data_PCOD9459957
_publ_section_title
;
Structure prediction by ZEFSAII (Michael W. Deem and Ramdas Pophale) SiO2 
 PCOD9459957
Probable space group: P B C A
;
_chemical_formula_sum "Si O2"
_cell_formula_units_Z 48
_cell_length_a 27.828314
_cell_length_b 8.952449
_cell_length_c 8.953612
_cell_angle_alpha 90.000000
_cell_angle_beta 90.000000
_cell_angle_gamma 90.000000
_cell_volume 2230.627342
_symmetry_space_group_name_H-M "P B C A"
_symmetry_group_IT_number 61
_symmetry_cell_setting 'orthorhombic'
loop_
_space_group_symop_operation_xyz
x,y,z
1/2-x,-y,1/2+z
1/2+x,1/2-y,-z
-x,1/2+y,1/2-z
-x,-y,-z
1/2+x,y,1/2-z
1/2-x,1/2+y,z
x,1/2-y,1/2+z
loop_
_atom_site_type_symbol
_atom_site_label
_atom_site_fract_x
_atom_site_fract_y
_atom_site_fract_z
Si Si1 0.592792 0.719766 0.599598
Si Si2 0.151189 0.632346 0.161193
Si Si3 0.709852 0.421032 0.500570
Si Si4 0.010353 0.158810 0.069918
Si Si5 0.758368 0.198164 0.705989
Si Si6 0.458493 0.581193 0.401610
O O1 0.607068 0.834144 0.729700
O O2 0.635241 0.731169 0.479968
O O3 0.541318 0.767357 0.542722
O O4 0.583035 0.542597 0.631866
O O5 0.162107 0.470682 0.090356
O O6 0.198288 0.690501 0.247872
O O7 0.715928 0.290726 0.623403
O O8 0.725208 0.570451 0.590124
O O9 0.744076 0.375165 0.363383
O O10 0.021549 0.135915 0.243143
O O11 0.050214 0.266027 0.994321
O O12 0.000000 0.000000 0.000000
O O13 0.500000 0.500000 0.500000
#
# Coordination Sequence:
#
# PCOD9459957 Si02
#       6
#     8   8   8   8   8   8
#     4  11  23  41  64  96 131 171 220 276 342 398
#     4  12  23  40  68  96 134 171 219 290 346 384
#     4  12  23  43  69  99 132 179 234 274 337 421
#     4  11  21  40  69  93 127 175 225 271 325 409
#     4  12  23  43  71  98 130 180 234 271 338 420
#     4  10  21  39  64  96 127 174 225 262 326 416
#
# _framework density 21.518612000000001
#
# number of rings (size 3 to 8) (size 9 to 14) (size 15 to 20)
#    0.000    0.667    5.000    5.000    0.000    0.000 
#    0.000    3.333    0.000    0.000    0.000    0.000 
#    0.000    0.000    0.000    0.000    0.000    0.000 
#
# Total GULP energy -267211.186051 kJ/mol
# GULP energy per Si atom -5566.899709 kJ/mol
# Density = 2.146963 g / cm^3
# Si number density = 21.518612 Si / 1000 Ang^3
#
#
#
# Elastic Constant Matrix: (Units=GPa)
#
#
# Indices 1 2 3 4 5 6 
#
# 1 45.6650 13.1899 7.2480 0.0000 0.0000 0.0000
# 2 13.1899 91.1905 27.5680 0.0000 0.0000 0.0000
# 3 7.2480 27.5680 110.0523 0.0000 0.0000 0.0000
# 4 0.0000 0.0000 0.0000 36.2569 0.0000 0.0000
# 5 0.0000 0.0000 0.0000 0.0000 37.4097 0.0000
# 6 0.0000 0.0000 0.0000 0.0000 0.0000 21.0648
#
#
#
# Elastic Compliance Matrix: (Units=1/GPa)
#
#
# Indices 1 2 3 4 5 6 
#
# 1 0.022908 -0.003091 -0.000734 0.000000 0.000000 0.000000
# 2 -0.003091 0.012282 -0.002873 0.000000 0.000000 0.000000
# 3 -0.000734 -0.002873 0.009855 0.000000 0.000000 0.000000
# 4 0.000000 0.000000 0.000000 0.027581 0.000000 0.000000
# 5 0.000000 0.000000 0.000000 0.000000 0.026731 0.000000
# 6 0.000000 0.000000 0.000000 0.000000 0.000000 0.047473
#
#
# Mechanical properties :
#
#
# Convention : Reuss Voigt Hill
#
# Bulk Modulus (GPa) = 31.59860 38.10220 34.85040
# Shear Modulus (GPa) = 29.27820 32.20641 30.74231
#
# Velocity S-wave (km/s) = 3.69263 3.87289 3.78383
# Velocity P-wave (km/s) = 5.73558 6.14362 5.94310
#
# Compressibility (1/GPa) = 0.03164698
#
# Stress axis : x y z
#
# Youngs Moduli (GPa) = 43.65266 81.42171 101.47517
#
# Poissons Ratio (x) = 0.25171 0.07452
# Poissons Ratio (y) = 0.13495 0.29153
# Poissons Ratio (z) = 0.03205 0.23392
#
# Static dielectric constant tensor:
#      x y z
#    x 1.852800 0.000000 0.000000 
#    y 0.000000 1.894290 0.000000 
#    z 0.000000 0.000000 1.828860 
# 
# From -- ./inp_files/4574.got.cif
#   From: 2010.05.17/outbox.cif.g08.bks.cpg/sg61_3_cif.got.tgz:4574.got - 2010.06.03 15:17:17.
