data_PCOD9459827
_publ_section_title
;
Structure prediction by ZEFSAII (Michael W. Deem and Ramdas Pophale) SiO2 
 PCOD9459827
Probable space group: P B C A
;
_chemical_formula_sum "Si O2"
_cell_formula_units_Z 64
_cell_length_a 14.112334
_cell_length_b 33.146508
_cell_length_c 5.281277
_cell_angle_alpha 90.000000
_cell_angle_beta 90.000000
_cell_angle_gamma 90.000000
_cell_volume 2470.447193
_symmetry_space_group_name_H-M "P B C A"
_symmetry_group_IT_number 61
_symmetry_cell_setting 'orthorhombic'
loop_
_space_group_symop_operation_xyz
x,y,z
1/2-x,-y,1/2+z
1/2+x,1/2-y,-z
-x,1/2+y,1/2-z
-x,-y,-z
1/2+x,y,1/2-z
1/2-x,1/2+y,z
x,1/2-y,1/2+z
loop_
_atom_site_type_symbol
_atom_site_label
_atom_site_fract_x
_atom_site_fract_y
_atom_site_fract_z
Si Si1 0.902473 0.773393 0.966102
Si Si2 0.107174 0.138315 0.067843
Si Si3 0.676988 0.638077 0.651442
Si Si4 0.339438 0.441196 0.623237
Si Si5 0.989859 0.944219 0.948501
Si Si6 0.829136 0.225941 0.478003
Si Si7 0.215307 0.102190 0.464176
Si Si8 0.887331 0.970218 0.427881
O O1 0.930604 0.752557 0.706258
O O2 0.938826 0.818830 0.979388
O O3 0.786729 0.775596 0.970754
O O4 0.210419 0.138863 0.931527
O O5 0.042189 0.101332 0.990819
O O6 0.133415 0.131570 0.365115
O O7 0.628112 0.597596 0.540596
O O8 0.638261 0.680731 0.556818
O O9 0.696761 0.629395 0.947686
O O10 0.400298 0.444595 0.880707
O O11 0.342000 0.486263 0.517908
O O12 0.239414 0.425960 0.722638
O O13 0.943605 0.956157 0.676920
O O14 0.957064 0.970683 0.186044
O O15 0.855754 0.256967 0.702601
O O16 0.185225 0.065641 0.645404
#
# Coordination Sequence:
#
# PCOD9459827 Si02
#       8
#     8   8   8   8   8   8   8   8
#     4   9  18  28  52  85 113 144 193 247 299 354
#     4   9  20  37  57  84 121 158 196 250 308 360
#     4  10  21  37  58  89 122 156 203 253 304 367
#     4  11  26  38  64  91 125 163 211 256 309 368
#     4  11  24  44  62  89 121 168 209 256 305 368
#     4   9  19  32  54  82 116 153 191 245 304 356
#     4  10  23  37  61  89 125 160 207 255 310 363
#     4  11  25  43  64  88 125 166 210 256 308 361
#
# _framework density 25.906241999999999
#
# number of rings (size 3 to 8) (size 9 to 14) (size 15 to 20)
#    0.000    2.000    1.250    0.750   15.750    0.000 
#    0.000    0.000    0.000    1.500    0.000    0.000 
#    0.000    0.000    0.000    0.000    0.000    0.000 
#
# Total GULP energy -357600.108734 kJ/mol
# GULP energy per Si atom -5587.501699 kJ/mol
# Density = 2.584728 g / cm^3
# Si number density = 25.906242 Si / 1000 Ang^3
#
#
#
# Elastic Constant Matrix: (Units=GPa)
#
#
# Indices 1 2 3 4 5 6 
#
# 1 49.5306 31.2895 24.5909 0.0000 0.0000 0.0000
# 2 31.2895 261.6545 93.0587 0.0000 0.0000 0.0000
# 3 24.5909 93.0587 144.9834 0.0000 0.0000 0.0000
# 4 0.0000 0.0000 0.0000 33.7276 0.0000 0.0000
# 5 0.0000 0.0000 0.0000 0.0000 27.8720 0.0000
# 6 0.0000 0.0000 0.0000 0.0000 0.0000 18.7234
#
#
#
# Elastic Compliance Matrix: (Units=1/GPa)
#
#
# Indices 1 2 3 4 5 6 
#
# 1 0.022640 -0.001739 -0.002724 0.000000 0.000000 0.000000
# 2 -0.001739 0.005086 -0.002970 0.000000 0.000000 0.000000
# 3 -0.002724 -0.002970 0.009265 0.000000 0.000000 0.000000
# 4 0.000000 0.000000 0.000000 0.029649 0.000000 0.000000
# 5 0.000000 0.000000 0.000000 0.000000 0.035878 0.000000
# 6 0.000000 0.000000 0.000000 0.000000 0.000000 0.053409
#
#
# Mechanical properties :
#
#
# Convention : Reuss Voigt Hill
#
# Bulk Modulus (GPa) = 45.19342 83.78295 64.48818
# Shear Modulus (GPa) = 28.06333 36.54656 32.30494
#
# Velocity S-wave (km/s) = 3.29487 3.76004 3.53511
# Velocity P-wave (km/s) = 5.65312 7.15972 6.45055
#
# Compressibility (1/GPa) = 0.02212712
#
# Stress axis : x y z
#
# Youngs Moduli (GPa) = 44.16902 196.62365 107.92848
#
# Poissons Ratio (x) = 0.34184 0.29401
# Poissons Ratio (y) = 0.07679 0.32050
# Poissons Ratio (z) = 0.12032 0.58388
#
# Static dielectric constant tensor:
#      x y z
#    x 2.106580 0.000000 0.000000 
#    y 0.000000 2.006940 0.000000 
#    z 0.000000 0.000000 2.210800 
# 
# From -- ./inp_files/848.got.cif
#   From: 2010.05.17/outbox.cif.g08.bks.cpg/sg61_1_cif.got.tgz:848.got - 2010.06.03 15:17:17.
