data_PCOD9459114
_publ_section_title
;
Structure prediction by ZEFSAII (Michael W. Deem and Ramdas Pophale) SiO2 
 PCOD9459114
Probable space group: P B C A
;
_chemical_formula_sum "Si O2"
_cell_formula_units_Z 44
_cell_length_a 14.682863
_cell_length_b 9.379889
_cell_length_c 14.213848
_cell_angle_alpha 90.000000
_cell_angle_beta 90.000000
_cell_angle_gamma 90.000000
_cell_volume 1957.582674
_symmetry_space_group_name_H-M "P B C A"
_symmetry_group_IT_number 61
_symmetry_cell_setting 'orthorhombic'
loop_
_space_group_symop_operation_xyz
x,y,z
1/2-x,-y,1/2+z
1/2+x,1/2-y,-z
-x,1/2+y,1/2-z
-x,-y,-z
1/2+x,y,1/2-z
1/2-x,1/2+y,z
x,1/2-y,1/2+z
loop_
_atom_site_type_symbol
_atom_site_label
_atom_site_fract_x
_atom_site_fract_y
_atom_site_fract_z
Si Si1 0.218560 0.914661 0.265827
Si Si2 0.686375 0.529065 0.423516
Si Si3 0.133188 0.296701 0.786098
Si Si4 0.355122 0.714427 0.058241
Si Si5 0.500000 0.500000 0.000000
Si Si6 0.566605 0.723633 0.858658
O O1 0.292850 0.819804 0.319591
O O2 0.142239 0.810540 0.221635
O O3 0.275879 0.985878 0.180294
O O4 0.166573 0.045525 0.314061
O O5 0.661554 0.378440 0.468638
O O6 0.768145 0.618886 0.468092
O O7 0.603276 0.637996 0.412935
O O8 0.135331 0.290358 0.671922
O O9 0.031890 0.256537 0.816040
O O10 0.444688 0.649178 0.013619
O O11 0.564431 0.579988 0.920484
#
# Coordination Sequence:
#
# PCOD9459114 Si02
#       6
#     8   8   8   8   4   8
#     4  10  19  39  63  95 129 172 227 279 338 400
#     4  10  18  39  63  91 122 183 218 264 343 420
#     4  10  22  38  67  96 126 179 229 280 334 413
#     4  10  20  38  66  91 129 176 222 274 338 408
#     4  12  24  42  60 100 138 176 226 292 344 414
#     4  12  23  39  69 100 137 180 238 280 353 423
#
# _framework density 22.476700000000001
#
# number of rings (size 3 to 8) (size 9 to 14) (size 15 to 20)
#    0.000    1.455    9.091    0.000    5.091    0.727 
#    0.000    3.636    0.000    0.000    0.000    0.000 
#    0.000    0.000    0.000    0.000    0.000    0.000 
#
# Total GULP energy -244955.534508 kJ/mol
# GULP energy per Si atom -5567.171239 kJ/mol
# Density = 2.242554 g / cm^3
# Si number density = 22.476700 Si / 1000 Ang^3
#
#
#
# Elastic Constant Matrix: (Units=GPa)
#
#
# Indices 1 2 3 4 5 6 
#
# 1 124.2113 53.0492 29.1373 0.0000 0.0000 0.0000
# 2 53.0492 143.8193 30.8821 0.0000 0.0000 0.0000
# 3 29.1373 30.8821 47.9988 0.0000 0.0000 0.0000
# 4 0.0000 0.0000 0.0000 4.0813 0.0000 0.0000
# 5 0.0000 0.0000 0.0000 0.0000 11.3951 0.0000
# 6 0.0000 0.0000 0.0000 0.0000 0.0000 36.9808
#
#
#
# Elastic Compliance Matrix: (Units=1/GPa)
#
#
# Indices 1 2 3 4 5 6 
#
# 1 0.010306 -0.002852 -0.004421 0.000000 0.000000 0.000000
# 2 -0.002852 0.008857 -0.003967 0.000000 0.000000 0.000000
# 3 -0.004421 -0.003967 0.026070 0.000000 0.000000 0.000000
# 4 0.000000 0.000000 0.000000 0.245019 0.000000 0.000000
# 5 0.000000 0.000000 0.000000 0.000000 0.087757 0.000000
# 6 0.000000 0.000000 0.000000 0.000000 0.000000 0.027041
#
#
# Mechanical properties :
#
#
# Convention : Reuss Voigt Hill
#
# Bulk Modulus (GPa) = 43.95168 60.24073 52.09620
# Shear Modulus (GPa) = 11.49121 24.02219 17.75670
#
# Velocity S-wave (km/s) = 2.26354 3.27274 2.81375
# Velocity P-wave (km/s) = 5.14084 6.41410 5.81244
#
# Compressibility (1/GPa) = 0.02275226
#
# Stress axis : x y z
#
# Youngs Moduli (GPa) = 97.03077 112.90396 38.35806
#
# Poissons Ratio (x) = 0.32202 0.16959
# Poissons Ratio (y) = 0.27674 0.15217
# Poissons Ratio (z) = 0.42899 0.44791
#
# Static dielectric constant tensor:
#      x y z
#    x 1.828400 0.000000 0.000000 
#    y 0.000000 1.821720 0.000000 
#    z 0.000000 0.000000 1.882860 
# 
# From -- ./inp_files/3365.got.cif
#   From: 2010.05.17/outbox.cif.g08.bks.cpg/sg61_2_cif.got.tgz:3365.got - 2010.06.03 15:17:17.
