data_PCOD9459486
_publ_section_title
;
Structure prediction by ZEFSAII (Michael W. Deem and Ramdas Pophale) SiO2 
 PCOD9459486
Probable space group: P B C A
;
_chemical_formula_sum "Si O2"
_cell_formula_units_Z 64
_cell_length_a 10.347523
_cell_length_b 16.137482
_cell_length_c 14.805863
_cell_angle_alpha 90.000000
_cell_angle_beta 90.000000
_cell_angle_gamma 90.000000
_cell_volume 2472.326920
_symmetry_space_group_name_H-M "P B C A"
_symmetry_group_IT_number 61
_symmetry_cell_setting 'orthorhombic'
loop_
_space_group_symop_operation_xyz
x,y,z
1/2-x,-y,1/2+z
1/2+x,1/2-y,-z
-x,1/2+y,1/2-z
-x,-y,-z
1/2+x,y,1/2-z
1/2-x,1/2+y,z
x,1/2-y,1/2+z
loop_
_atom_site_type_symbol
_atom_site_label
_atom_site_fract_x
_atom_site_fract_y
_atom_site_fract_z
Si Si1 0.825197 0.335304 0.750400
Si Si2 0.250000 0.766893 0.500000
Si Si3 0.580297 0.030787 0.854883
Si Si4 0.000000 0.750000 0.609547
Si Si5 0.825197 0.835303 0.249600
Si Si6 0.580297 0.530786 0.145117
Si Si7 0.811576 0.424704 0.112798
Si Si8 0.188424 0.424705 0.612797
O O1 0.750000 0.250000 0.750000
O O2 0.880765 0.372578 0.658578
O O3 0.717759 0.401109 0.783016
O O4 0.940302 0.320525 0.823717
O O5 0.373179 0.724981 0.449892
O O6 0.186224 0.834424 0.432031
O O7 0.313776 0.834425 0.567968
O O8 0.126822 0.724981 0.550108
O O9 0.619235 0.127423 0.841422
O O10 0.441534 0.026674 0.898189
O O11 0.569381 0.000000 0.750000
O O12 0.685947 0.978852 0.908446
O O13 0.940303 0.679475 0.676283
O O14 0.717760 0.901108 0.216985
O O15 0.685946 0.478851 0.091554
O O16 0.441534 0.526674 0.101811
#
# Coordination Sequence:
#
# PCOD9459486 Si02
#       8
#     8   8   8   8   8   8   8   8
#     4  10  20  36  63  94 119 154 214 277 331 376
#     4  10  24  42  58  90 132 176 218 256 324 406
#     4  10  20  37  60  87 118 155 205 269 330 378
#     4  10  22  40  62  90 132 170 210 266 320 398
#     4  10  20  36  63  94 119 154 214 277 331 376
#     4  10  20  37  60  87 118 155 205 269 330 378
#     4  10  22  38  58  84 123 163 204 258 318 393
#     4  10  22  38  58  84 123 163 204 258 318 393
#
# _framework density 25.886545999999999
#
# number of rings (size 3 to 8) (size 9 to 14) (size 15 to 20)
#    0.000    2.000    0.000    3.750    0.000    9.000 
#    0.000    0.000    0.000    0.000    0.000    0.000 
#    0.000    0.000    0.000    0.000    0.000    0.000 
#
# Total GULP energy -357319.677664 kJ/mol
# GULP energy per Si atom -5583.119963 kJ/mol
# Density = 2.582763 g / cm^3
# Si number density = 25.886546 Si / 1000 Ang^3
#
#
#
# Elastic Constant Matrix: (Units=GPa)
#
#
# Indices 1 2 3 4 5 6 
#
# 1 203.0947 59.8363 33.6727 0.0000 0.0000 0.0000
# 2 59.8363 89.3298 7.1098 0.0000 0.0000 0.0000
# 3 33.6727 7.1098 62.6564 0.0000 0.0000 0.0000
# 4 0.0000 0.0000 0.0000 13.0488 0.0000 0.0000
# 5 0.0000 0.0000 0.0000 0.0000 43.7540 0.0000
# 6 0.0000 0.0000 0.0000 0.0000 0.0000 49.6401
#
#
#
# Elastic Compliance Matrix: (Units=1/GPa)
#
#
# Indices 1 2 3 4 5 6 
#
# 1 0.006687 -0.004231 -0.003113 0.000000 0.000000 0.000000
# 2 -0.004231 0.013974 0.000688 0.000000 0.000000 0.000000
# 3 -0.003113 0.000688 0.017555 0.000000 0.000000 0.000000
# 4 0.000000 0.000000 0.000000 0.076635 0.000000 0.000000
# 5 0.000000 0.000000 0.000000 0.000000 0.022855 0.000000
# 6 0.000000 0.000000 0.000000 0.000000 0.000000 0.020145
#
#
# Mechanical properties :
#
#
# Convention : Reuss Voigt Hill
#
# Bulk Modulus (GPa) = 40.15574 61.81319 50.98447
# Shear Modulus (GPa) = 27.86068 38.25273 33.05671
#
# Velocity S-wave (km/s) = 3.28420 3.84827 3.57737
# Velocity P-wave (km/s) = 5.47057 6.60877 6.06643
#
# Compressibility (1/GPa) = 0.02490304
#
# Stress axis : x y z
#
# Youngs Moduli (GPa) = 149.55312 71.56223 56.96337
#
# Poissons Ratio (x) = 0.30279 0.17735
# Poissons Ratio (y) = 0.63278 -0.03920
# Poissons Ratio (z) = 0.46562 -0.04925
#
# Static dielectric constant tensor:
#      x y z
#    x 2.039260 0.000000 0.000000 
#    y 0.000000 2.085670 0.000000 
#    z 0.000000 0.000000 2.214860 
# 
# From -- ./inp_files/10174.got.cif
#   From: 2010.05.17/outbox.cif.g08.bks.cpg/sg61_6_cif.got.tgz:10174.got - 2010.06.03 15:17:17.
