data_PCOD9459089
_publ_section_title
;
Structure prediction by ZEFSAII (Michael W. Deem and Ramdas Pophale) SiO2 
 PCOD9459089
Probable space group: P B C A
;
_chemical_formula_sum "Si O2"
_cell_formula_units_Z 64
_cell_length_a 28.764607
_cell_length_b 10.943898
_cell_length_c 8.220741
_cell_angle_alpha 90.000000
_cell_angle_beta 90.000000
_cell_angle_gamma 90.000000
_cell_volume 2587.863988
_symmetry_space_group_name_H-M "P B C A"
_symmetry_group_IT_number 61
_symmetry_cell_setting 'orthorhombic'
loop_
_space_group_symop_operation_xyz
x,y,z
1/2-x,-y,1/2+z
1/2+x,1/2-y,-z
-x,1/2+y,1/2-z
-x,-y,-z
1/2+x,y,1/2-z
1/2-x,1/2+y,z
x,1/2-y,1/2+z
loop_
_atom_site_type_symbol
_atom_site_label
_atom_site_fract_x
_atom_site_fract_y
_atom_site_fract_z
Si Si1 0.336351 0.321774 0.964557
Si Si2 0.271312 0.184221 0.749551
Si Si3 0.954075 0.681256 0.357037
Si Si4 0.107684 0.926398 0.427442
Si Si5 0.794197 0.668992 0.477177
Si Si6 0.516632 0.822194 0.941393
Si Si7 0.143171 0.338050 0.815002
Si Si8 0.074765 0.571698 0.550591
O O1 0.311358 0.362652 0.129983
O O2 0.381318 0.404622 0.932514
O O3 0.296623 0.302789 0.830518
O O4 0.359404 0.186103 0.978701
O O5 0.232895 0.225811 0.621193
O O6 0.245535 0.115210 0.899777
O O7 0.905550 0.699968 0.265024
O O8 0.946017 0.562753 0.470473
O O9 0.994124 0.646424 0.229162
O O10 0.973016 0.803289 0.439851
O O11 0.058051 0.911564 0.513073
O O12 0.094510 0.920990 0.235541
O O13 0.133195 0.054669 0.443572
O O14 0.832168 0.727106 0.595575
O O15 0.823125 0.612553 0.328323
O O16 0.540165 0.686906 0.951928
#
# Coordination Sequence:
#
# PCOD9459089 Si02
#       8
#     8   8   8   8   8   8   8   8
#     4  10  18  36  64  93 129 165 210 261 340 374
#     4   9  18  34  69  91 120 173 202 264 327 386
#     4  11  23  39  67  90 127 175 219 268 322 392
#     4  10  21  37  63  92 132 166 213 281 317 390
#     4   9  19  39  62  89 126 169 211 263 319 391
#     4  11  22  42  62  95 128 171 221 269 325 381
#     4  10  21  39  63  88 128 171 219 260 332 386
#     4  10  21  37  62  93 133 164 215 271 316 392
#
# _framework density 24.730820999999999
#
# number of rings (size 3 to 8) (size 9 to 14) (size 15 to 20)
#    0.000    2.000    2.500    1.125    0.000    2.000 
#    2.250    3.750   24.750    0.000    0.000    0.000 
#    0.000    0.000    0.000    0.000    0.000    0.000 
#
# Total GULP energy -357280.305497 kJ/mol
# GULP energy per Si atom -5582.504773 kJ/mol
# Density = 2.467453 g / cm^3
# Si number density = 24.730821 Si / 1000 Ang^3
#
#
#
# Elastic Constant Matrix: (Units=GPa)
#
#
# Indices 1 2 3 4 5 6 
#
# 1 107.1174 30.7386 3.4709 0.0000 0.0000 0.0000
# 2 30.7386 64.9753 -2.2396 0.0000 0.0000 0.0000
# 3 3.4709 -2.2396 23.6570 0.0000 0.0000 0.0000
# 4 0.0000 0.0000 0.0000 -5.5866 0.0000 0.0000
# 5 0.0000 0.0000 0.0000 0.0000 42.2966 0.0000
# 6 0.0000 0.0000 0.0000 0.0000 0.0000 -8.2961
#
#
#
# Elastic Compliance Matrix: (Units=1/GPa)
#
#
# Indices 1 2 3 4 5 6 
#
# 1 0.010905 -0.005231 -0.002095 0.000000 0.000000 0.000000
# 2 -0.005231 0.017950 0.002467 0.000000 0.000000 0.000000
# 3 -0.002095 0.002467 0.042812 0.000000 0.000000 0.000000
# 4 0.000000 0.000000 0.000000 -0.178998 0.000000 0.000000
# 5 0.000000 0.000000 0.000000 0.000000 0.023643 0.000000
# 6 0.000000 0.000000 0.000000 0.000000 0.000000 -0.120538
#
#
# Mechanical properties :
#
#
# Convention : Reuss Voigt Hill
#
# Bulk Modulus (GPa) = 16.14256 28.85437 22.49846
# Shear Modulus (GPa) = -28.75882 16.60142 -6.07870
#
# Velocity S-wave (km/s) = -3.41379 2.59373 -1.56948
# Velocity P-wave (km/s) = 2.99953 4.54561 2.41510
#
# Compressibility (1/GPa) = 0.06194803
#
# Stress axis : x y z
#
# Youngs Moduli (GPa) = 91.70518 55.70987 23.35806
#
# Poissons Ratio (x) = 0.29141 0.04894
# Poissons Ratio (y) = 0.47970 -0.05762
# Poissons Ratio (z) = 0.19213 -0.13743
#
# Static dielectric constant tensor:
#      x y z
#    x 1.984880 0.000000 0.000000 
#    y 0.000000 1.998190 0.000000 
#    z 0.000000 0.000000 1.983740 
# 
# From -- ./inp_files/4641.got.cif
#   From: 2010.05.17/outbox.cif.g08.bks.cpg/sg61_3_cif.got.tgz:4641.got - 2010.06.03 15:17:17.
