data_PCOD9459271
_publ_section_title
;
Structure prediction by ZEFSAII (Michael W. Deem and Ramdas Pophale) SiO2 
 PCOD9459271
Probable space group: P B C A
;
_chemical_formula_sum "Si O2"
_cell_formula_units_Z 48
_cell_length_a 13.324279
_cell_length_b 9.017790
_cell_length_c 17.380861
_cell_angle_alpha 90.000000
_cell_angle_beta 90.000000
_cell_angle_gamma 90.000000
_cell_volume 2088.406912
_symmetry_space_group_name_H-M "P B C A"
_symmetry_group_IT_number 61
_symmetry_cell_setting 'orthorhombic'
loop_
_space_group_symop_operation_xyz
x,y,z
1/2-x,-y,1/2+z
1/2+x,1/2-y,-z
-x,1/2+y,1/2-z
-x,-y,-z
1/2+x,y,1/2-z
1/2-x,1/2+y,z
x,1/2-y,1/2+z
loop_
_atom_site_type_symbol
_atom_site_label
_atom_site_fract_x
_atom_site_fract_y
_atom_site_fract_z
Si Si1 0.373922 0.870131 0.293606
Si Si2 0.302660 0.104321 0.679325
Si Si3 0.106854 0.948293 0.421580
Si Si4 0.475887 0.569023 0.269274
Si Si5 0.773954 0.749180 0.068975
Si Si6 0.681219 0.625882 0.424368
O O1 0.273510 0.841619 0.245193
O O2 0.451995 0.741529 0.272004
O O3 0.420309 0.024947 0.269297
O O4 0.350794 0.848517 0.382746
O O5 0.387194 0.004583 0.718857
O O6 0.348347 0.242935 0.633056
O O7 0.234476 0.005521 0.621594
O O8 0.030997 0.995899 0.354801
O O9 0.163881 0.795167 0.399848
O O10 0.095462 0.923487 0.513991
O O11 0.189206 0.082420 0.420052
O O12 0.765030 0.800236 0.981052
#
# Coordination Sequence:
#
# PCOD9459271 Si02
#       6
#     8   8   8   8   8   8
#     4  11  25  41  62  92 125 163 208 252 299 369
#     4  12  21  40  65  92 121 158 206 260 299 364
#     4   9  18  37  60  85 117 157 196 239 307 358
#     4  11  25  41  62  92 123 165 208 248 306 365
#     4   9  18  37  60  85 118 156 196 239 307 356
#     4  10  19  36  65  90 119 159 200 253 310 358
#
# _framework density 22.984027000000001
#
# number of rings (size 3 to 8) (size 9 to 14) (size 15 to 20)
#    1.000    0.667    5.000    0.000    2.333    1.333 
#    0.000    3.333    0.000    0.000    0.000    0.000 
#    0.000    0.000    0.000    0.000    0.000    0.000 
#
# Total GULP energy -267838.093645 kJ/mol
# GULP energy per Si atom -5579.960284 kJ/mol
# Density = 2.293171 g / cm^3
# Si number density = 22.984027 Si / 1000 Ang^3
#
#
#
# Elastic Constant Matrix: (Units=GPa)
#
#
# Indices 1 2 3 4 5 6 
#
# 1 30.2820 6.2099 22.5745 0.0000 0.0000 0.0000
# 2 6.2099 56.1195 27.8553 0.0000 0.0000 0.0000
# 3 22.5745 27.8553 107.9219 0.0000 0.0000 0.0000
# 4 0.0000 0.0000 0.0000 39.7871 0.0000 0.0000
# 5 0.0000 0.0000 0.0000 0.0000 40.8366 0.0000
# 6 0.0000 0.0000 0.0000 0.0000 0.0000 34.4170
#
#
#
# Elastic Compliance Matrix: (Units=1/GPa)
#
#
# Indices 1 2 3 4 5 6 
#
# 1 0.039128 -0.000307 -0.008105 0.000000 0.000000 0.000000
# 2 -0.000307 0.020440 -0.005212 0.000000 0.000000 0.000000
# 3 -0.008105 -0.005212 0.012307 0.000000 0.000000 0.000000
# 4 0.000000 0.000000 0.000000 0.025134 0.000000 0.000000
# 5 0.000000 0.000000 0.000000 0.000000 0.024488 0.000000
# 6 0.000000 0.000000 0.000000 0.000000 0.000000 0.029055
#
#
# Mechanical properties :
#
#
# Convention : Reuss Voigt Hill
#
# Bulk Modulus (GPa) = 22.40772 34.17808 28.29290
# Shear Modulus (GPa) = 25.95049 32.18704 29.06877
#
# Velocity S-wave (km/s) = 3.36380 3.74626 3.56017
# Velocity P-wave (km/s) = 4.98571 5.79787 5.40706
#
# Compressibility (1/GPa) = 0.04462748
#
# Stress axis : x y z
#
# Youngs Moduli (GPa) = 25.55699 48.92418 81.25765
#
# Poissons Ratio (x) = 0.01500 0.65863
# Poissons Ratio (y) = 0.00783 0.42347
# Poissons Ratio (z) = 0.20715 0.25497
#
# Static dielectric constant tensor:
#      x y z
#    x 1.876930 0.000000 0.000000 
#    y 0.000000 1.830180 0.000000 
#    z 0.000000 0.000000 1.875220 
# 
# From -- ./inp_files/10411.got.cif
#   From: 2010.05.17/outbox.cif.g08.bks.cpg/sg61_6_cif.got.tgz:10411.got - 2010.06.03 15:17:17.
