data_PCOD9459481
_publ_section_title
;
Structure prediction by ZEFSAII (Michael W. Deem and Ramdas Pophale) SiO2 
 PCOD9459481
Probable space group: P B C A
;
_chemical_formula_sum "Si O2"
_cell_formula_units_Z 48
_cell_length_a 18.451379
_cell_length_b 9.187200
_cell_length_c 16.229475
_cell_angle_alpha 90.000000
_cell_angle_beta 90.000000
_cell_angle_gamma 90.000000
_cell_volume 2751.163947
_symmetry_space_group_name_H-M "P B C A"
_symmetry_group_IT_number 61
_symmetry_cell_setting 'orthorhombic'
loop_
_space_group_symop_operation_xyz
x,y,z
1/2-x,-y,1/2+z
1/2+x,1/2-y,-z
-x,1/2+y,1/2-z
-x,-y,-z
1/2+x,y,1/2-z
1/2-x,1/2+y,z
x,1/2-y,1/2+z
loop_
_atom_site_type_symbol
_atom_site_label
_atom_site_fract_x
_atom_site_fract_y
_atom_site_fract_z
Si Si1 0.073988 0.367287 0.820019
Si Si2 0.178491 0.429908 0.145221
Si Si3 0.024121 0.083472 0.081437
Si Si4 0.066782 0.392185 0.009383
Si Si5 0.829104 0.586195 0.328784
Si Si6 0.449674 0.961610 0.263433
O O1 0.089569 0.352221 0.916370
O O2 0.142754 0.415632 0.765482
O O3 0.010944 0.484031 0.800399
O O4 0.047285 0.210112 0.785427
O O5 0.184155 0.255471 0.151166
O O6 0.257072 0.498953 0.151785
O O7 0.127544 0.484156 0.220205
O O8 0.132847 0.458441 0.061943
O O9 0.101712 0.032326 0.118061
O O10 0.966550 0.051688 0.153699
O O11 0.037504 0.250735 0.057865
O O12 0.000000 0.000000 0.000000
O O13 0.000000 0.500000 0.000000
#
# Coordination Sequence:
#
# PCOD9459481 Si02
#       6
#     8   8   8   8   8   8
#     4  10  20  37  59  87 115 152 194 244 293 352
#     4  10  21  40  57  82 119 155 194 238 298 347
#     4  10  20  38  61  85 114 151 196 244 299 344
#     4  11  21  37  60  90 120 149 197 255 287 345
#     4   9  22  38  56  81 118 156 190 239 294 354
#     4  10  20  36  62  84 117 150 193 241 295 360
#
# _framework density 17.447161000000001
#
# number of rings (size 3 to 8) (size 9 to 14) (size 15 to 20)
#    0.000    2.000    3.333    1.000    0.000    4.000 
#    3.000    0.000    0.000    0.000    0.000    0.000 
#    0.000    0.000    0.000    0.000    0.000    0.000 
#
# Total GULP energy -267650.001389 kJ/mol
# GULP energy per Si atom -5576.041696 kJ/mol
# Density = 1.740745 g / cm^3
# Si number density = 17.447161 Si / 1000 Ang^3
#
#
#
# Elastic Constant Matrix: (Units=GPa)
#
#
# Indices 1 2 3 4 5 6 
#
# 1 103.7728 46.2154 49.2084 0.0000 0.0000 0.0000
# 2 46.2154 45.9204 35.4155 0.0000 0.0000 0.0000
# 3 49.2084 35.4155 129.8664 0.0000 0.0000 0.0000
# 4 0.0000 0.0000 0.0000 30.2097 0.0000 0.0000
# 5 0.0000 0.0000 0.0000 0.0000 24.5387 0.0000
# 6 0.0000 0.0000 0.0000 0.0000 0.0000 35.9686
#
#
#
# Elastic Compliance Matrix: (Units=1/GPa)
#
#
# Indices 1 2 3 4 5 6 
#
# 1 0.018029 -0.016306 -0.002385 0.000000 0.000000 0.000000
# 2 -0.016306 0.042324 -0.005364 0.000000 0.000000 0.000000
# 3 -0.002385 -0.005364 0.010067 0.000000 0.000000 0.000000
# 4 0.000000 0.000000 0.000000 0.033102 0.000000 0.000000
# 5 0.000000 0.000000 0.000000 0.000000 0.040752 0.000000
# 6 0.000000 0.000000 0.000000 0.000000 0.000000 0.027802
#
#
# Mechanical properties :
#
#
# Convention : Reuss Voigt Hill
#
# Bulk Modulus (GPa) = 44.82023 60.13757 52.47890
# Shear Modulus (GPa) = 21.96643 28.05809 25.01226
#
# Velocity S-wave (km/s) = 3.55213 4.01456 3.79040
# Velocity P-wave (km/s) = 6.52444 7.48546 7.02141
#
# Compressibility (1/GPa) = 0.02231136
#
# Stress axis : x y z
#
# Youngs Moduli (GPa) = 55.46622 23.62749 99.33893
#
# Poissons Ratio (x) = 0.38526 0.23691
# Poissons Ratio (y) = 0.90441 0.53281
# Poissons Ratio (z) = 0.13228 0.12673
#
# Static dielectric constant tensor:
#      x y z
#    x 1.562290 0.000000 0.000000 
#    y 0.000000 1.592800 0.000000 
#    z 0.000000 0.000000 1.631670 
# 
# From -- ./inp_files/3496.got.cif
#   From: 2010.05.17/outbox.cif.g08.bks.cpg/sg61_2_cif.got.tgz:3496.got - 2010.06.03 15:17:17.
