data_PCOD9459433
_publ_section_title
;
Structure prediction by ZEFSAII (Michael W. Deem and Ramdas Pophale) SiO2 
 PCOD9459433
Probable space group: P B C A
;
_chemical_formula_sum "Si O2"
_cell_formula_units_Z 64
_cell_length_a 16.297080
_cell_length_b 15.853464
_cell_length_c 9.056545
_cell_angle_alpha 90.000000
_cell_angle_beta 90.000000
_cell_angle_gamma 90.000000
_cell_volume 2339.895798
_symmetry_space_group_name_H-M "P B C A"
_symmetry_group_IT_number 61
_symmetry_cell_setting 'orthorhombic'
loop_
_space_group_symop_operation_xyz
x,y,z
1/2-x,-y,1/2+z
1/2+x,1/2-y,-z
-x,1/2+y,1/2-z
-x,-y,-z
1/2+x,y,1/2-z
1/2-x,1/2+y,z
x,1/2-y,1/2+z
loop_
_atom_site_type_symbol
_atom_site_label
_atom_site_fract_x
_atom_site_fract_y
_atom_site_fract_z
Si Si1 0.107115 0.594742 0.938005
Si Si2 0.934910 0.652370 0.928018
Si Si3 0.730628 0.346492 0.947940
Si Si4 0.904646 0.081705 0.084957
Si Si5 0.839179 0.511170 0.297545
Si Si6 0.331773 0.567931 0.765157
Si Si7 0.352165 0.245130 0.228804
Si Si8 0.515174 0.307097 0.090000
O O1 0.185013 0.596057 0.045375
O O2 0.100298 0.515269 0.830601
O O3 0.137261 0.673718 0.833608
O O4 0.015606 0.609143 0.994550
O O5 0.853233 0.600826 0.898044
O O6 0.957970 0.668914 0.754561
O O7 0.926590 0.740254 0.010265
O O8 0.688225 0.361782 0.107678
O O9 0.667561 0.391808 0.838267
O O10 0.769460 0.264500 0.868868
O O11 0.865784 0.161929 0.170460
O O12 0.990393 0.116389 0.018518
O O13 0.901946 0.999218 0.187515
O O14 0.857161 0.046200 0.940948
O O15 0.751699 0.483677 0.235503
O O16 0.427976 0.259147 0.117498
#
# Coordination Sequence:
#
# PCOD9459433 Si02
#       8
#     8   8   8   8   8   8   8   8
#     4  10  20  35  63  86 109 164 215 240 294 374
#     4  11  22  42  64  90 126 166 210 260 307 373
#     4  10  20  38  59  88 122 156 202 258 309 363
#     4  11  19  37  66  93 117 168 213 257 302 386
#     4  10  20  39  59  87 125 157 203 254 317 367
#     4  10  24  39  60  93 131 157 196 275 327 358
#     4  11  18  35  65  95 109 159 221 258 287 372
#     4  11  21  39  69  91 119 170 222 250 298 384
#
# _framework density 27.351645000000001
#
# number of rings (size 3 to 8) (size 9 to 14) (size 15 to 20)
#    0.000    1.500    7.500    0.000    0.000    0.500 
#    4.500    2.500    0.000    0.000    0.000    0.000 
#    0.000    0.000    0.000    0.000    0.000    0.000 
#
# Total GULP energy -357835.535439 kJ/mol
# GULP energy per Si atom -5591.180241 kJ/mol
# Density = 2.728939 g / cm^3
# Si number density = 27.351645 Si / 1000 Ang^3
#
#
#
# Elastic Constant Matrix: (Units=GPa)
#
#
# Indices 1 2 3 4 5 6 
#
# 1 52.4085 35.7478 1.4694 0.0000 0.0000 0.0000
# 2 35.7478 90.0906 38.2573 0.0000 0.0000 0.0000
# 3 1.4694 38.2573 70.2166 0.0000 0.0000 0.0000
# 4 0.0000 0.0000 0.0000 63.2860 0.0000 0.0000
# 5 0.0000 0.0000 0.0000 0.0000 44.3651 0.0000
# 6 0.0000 0.0000 0.0000 0.0000 0.0000 44.1880
#
#
#
# Elastic Compliance Matrix: (Units=1/GPa)
#
#
# Indices 1 2 3 4 5 6 
#
# 1 0.028785 -0.014527 0.007313 0.000000 0.000000 0.000000
# 2 -0.014527 0.021773 -0.011559 0.000000 0.000000 0.000000
# 3 0.007313 -0.011559 0.020386 0.000000 0.000000 0.000000
# 4 0.000000 0.000000 0.000000 0.015801 0.000000 0.000000
# 5 0.000000 0.000000 0.000000 0.000000 0.022540 0.000000
# 6 0.000000 0.000000 0.000000 0.000000 0.000000 0.022631
#
#
# Mechanical properties :
#
#
# Convention : Reuss Voigt Hill
#
# Bulk Modulus (GPa) = 29.94244 40.40719 35.17482
# Shear Modulus (GPa) = 27.68629 39.51724 33.60176
#
# Velocity S-wave (km/s) = 3.18502 3.80516 3.50881
# Velocity P-wave (km/s) = 4.94942 5.84045 5.41330
#
# Compressibility (1/GPa) = 0.03339741
#
# Stress axis : x y z
#
# Youngs Moduli (GPa) = 34.74066 45.92903 49.05233
#
# Poissons Ratio (x) = 0.66721 -0.35870
# Poissons Ratio (y) = 0.50468 0.56699
# Poissons Ratio (z) = -0.25405 0.53088
#
# Static dielectric constant tensor:
#      x y z
#    x 2.253960 0.000000 0.000000 
#    y 0.000000 2.245640 0.000000 
#    z 0.000000 0.000000 2.137120 
# 
# From -- ./inp_files/6361.got.cif
#   From: 2010.05.17/outbox.cif.g08.bks.cpg/sg61_4_cif.got.tgz:6361.got - 2010.06.03 15:17:17.
