data_PCOD9459033
_publ_section_title
;
Structure prediction by ZEFSAII (Michael W. Deem and Ramdas Pophale) SiO2 
 PCOD9459033
Probable space group: P B C A
;
_chemical_formula_sum "Si O2"
_cell_formula_units_Z 48
_cell_length_a 5.390873
_cell_length_b 18.941612
_cell_length_c 22.294689
_cell_angle_alpha 90.000000
_cell_angle_beta 90.000000
_cell_angle_gamma 90.000000
_cell_volume 2276.551375
_symmetry_space_group_name_H-M "P B C A"
_symmetry_group_IT_number 61
_symmetry_cell_setting 'orthorhombic'
loop_
_space_group_symop_operation_xyz
x,y,z
1/2-x,-y,1/2+z
1/2+x,1/2-y,-z
-x,1/2+y,1/2-z
-x,-y,-z
1/2+x,y,1/2-z
1/2-x,1/2+y,z
x,1/2-y,1/2+z
loop_
_atom_site_type_symbol
_atom_site_label
_atom_site_fract_x
_atom_site_fract_y
_atom_site_fract_z
Si Si1 0.375502 0.614475 0.219837
Si Si2 0.929005 0.714698 0.019835
Si Si3 0.419592 0.000657 0.900181
Si Si4 0.429128 0.452940 0.268208
Si Si5 0.616509 0.636489 0.099418
Si Si6 0.241436 0.922250 0.508046
O O1 0.617007 0.641051 0.254831
O O2 0.387563 0.529047 0.233146
O O3 0.412963 0.637441 0.151314
O O4 0.789028 0.702978 0.083609
O O5 0.026086 0.636793 0.001848
O O6 0.693877 0.743751 0.980909
O O7 0.294559 0.927201 0.881193
O O8 0.644967 0.980115 0.944068
O O9 0.483026 0.037393 0.838435
O O10 0.231936 0.043035 0.943227
O O11 0.663919 0.416850 0.238463
O O12 0.477593 0.613851 0.038212
#
# Coordination Sequence:
#
# PCOD9459033 Si02
#       6
#     8   8   8   8   8   8
#     4  10  19  30  51  80 116 146 185 225 286 346
#     4  11  23  41  58  80 111 148 204 243 294 345
#     4  10  20  32  53  89 123 152 181 232 295 357
#     4  10  18  32  49  74 117 150 186 218 268 352
#     4  11  20  34  60  82 124 152 191 244 291 356
#     4  10  21  35  55  86 118 156 184 238 293 358
#
# _framework density 21.084523999999998
#
# number of rings (size 3 to 8) (size 9 to 14) (size 15 to 20)
#    0.000    1.667    5.000    2.500    2.333    0.000 
#    0.000    0.000    0.000    0.000    0.000    7.000 
#    0.000    0.000    0.000    0.000    0.000    0.000 
#
# Total GULP energy -267385.056841 kJ/mol
# GULP energy per Si atom -5570.522018 kJ/mol
# Density = 2.103653 g / cm^3
# Si number density = 21.084524 Si / 1000 Ang^3
#
#
#
# Elastic Constant Matrix: (Units=GPa)
#
#
# Indices 1 2 3 4 5 6 
#
# 1 127.5418 10.5450 12.5663 0.0000 0.0000 0.0000
# 2 10.5450 16.0655 7.7105 0.0000 0.0000 0.0000
# 3 12.5663 7.7105 79.8719 0.0000 0.0000 0.0000
# 4 0.0000 0.0000 0.0000 10.4825 0.0000 0.0000
# 5 0.0000 0.0000 0.0000 0.0000 27.4658 0.0000
# 6 0.0000 0.0000 0.0000 0.0000 0.0000 24.2506
#
#
#
# Elastic Compliance Matrix: (Units=1/GPa)
#
#
# Indices 1 2 3 4 5 6 
#
# 1 0.008342 -0.005081 -0.000822 0.000000 0.000000 0.000000
# 2 -0.005081 0.068364 -0.005800 0.000000 0.000000 0.000000
# 3 -0.000822 -0.005800 0.013209 0.000000 0.000000 0.000000
# 4 0.000000 0.000000 0.000000 0.095397 0.000000 0.000000
# 5 0.000000 0.000000 0.000000 0.000000 0.036409 0.000000
# 6 0.000000 0.000000 0.000000 0.000000 0.000000 0.041236
#
#
# Mechanical properties :
#
#
# Convention : Reuss Voigt Hill
#
# Bulk Modulus (GPa) = 15.03556 31.68032 23.35794
# Shear Modulus (GPa) = 16.20578 25.28361 20.74469
#
# Velocity S-wave (km/s) = 2.77539 3.46664 3.14009
# Velocity P-wave (km/s) = 4.17336 5.57507 4.92435
#
# Compressibility (1/GPa) = 0.06650899
#
# Stress axis : x y z
#
# Youngs Moduli (GPa) = 119.88076 14.62761 75.70430
#
# Poissons Ratio (x) = 0.07432 0.06222
# Poissons Ratio (y) = 0.60909 0.43910
# Poissons Ratio (z) = 0.09853 0.08484
#
# Static dielectric constant tensor:
#      x y z
#    x 1.859270 0.000000 0.000000 
#    y 0.000000 1.817690 0.000000 
#    z 0.000000 0.000000 1.798560 
# 
# From -- ./inp_files/982.got.cif
#   From: 2010.05.17/outbox.cif.g08.bks.cpg/sg61_1_cif.got.tgz:982.got - 2010.06.03 15:17:17.
