data_PCOD9459339
_publ_section_title
;
Structure prediction by ZEFSAII (Michael W. Deem and Ramdas Pophale) SiO2 
 PCOD9459339
Probable space group: P B C A
;
_chemical_formula_sum "Si O2"
_cell_formula_units_Z 64
_cell_length_a 16.492946
_cell_length_b 15.375386
_cell_length_c 12.316904
_cell_angle_alpha 90.000000
_cell_angle_beta 90.000000
_cell_angle_gamma 90.000000
_cell_volume 3123.387163
_symmetry_space_group_name_H-M "P B C A"
_symmetry_group_IT_number 61
_symmetry_cell_setting 'orthorhombic'
loop_
_space_group_symop_operation_xyz
x,y,z
1/2-x,-y,1/2+z
1/2+x,1/2-y,-z
-x,1/2+y,1/2-z
-x,-y,-z
1/2+x,y,1/2-z
1/2-x,1/2+y,z
x,1/2-y,1/2+z
loop_
_atom_site_type_symbol
_atom_site_label
_atom_site_fract_x
_atom_site_fract_y
_atom_site_fract_z
Si Si1 0.128619 0.715149 0.383786
Si Si2 0.679864 0.911664 0.457297
Si Si3 0.871377 0.784852 0.883788
Si Si4 0.499998 0.596633 0.240969
Si Si5 0.499999 0.720751 0.441249
Si Si6 0.249998 0.672704 0.749998
Si Si7 0.500000 0.411660 0.129545
Si Si8 0.320132 0.911664 0.457293
O O1 0.193172 0.663092 0.455426
O O2 0.074877 0.767219 0.473638
O O3 0.175357 0.772136 0.296751
O O4 0.075305 0.642507 0.321301
O O5 0.717169 0.885659 0.345256
O O6 0.583076 0.922153 0.437380
O O7 0.715324 0.999999 0.500001
O O8 0.924690 0.857494 0.821302
O O9 0.824639 0.727864 0.796753
O O10 0.806824 0.836909 0.955429
O O11 0.925120 0.732782 0.973639
O O12 0.499998 0.635351 0.364467
O O13 0.499999 0.491445 0.218069
O O14 0.500000 0.804904 0.357370
O O15 0.282826 0.614341 0.845253
O O16 0.583080 0.422152 0.062626
#
# Coordination Sequence:
#
# PCOD9459339 Si02
#       8
#     8   8   8   8   8   8   8   8
#     4  10  21  39  64  88 126 164 215 259 318 386
#     4  11  22  41  63  91 122 165 214 261 313 387
#     4  10  21  39  64  88 126 164 215 259 318 386
#     4  11  19  38  70  93 117 167 220 269 317 374
#     4   9  21  36  65 101 125 160 217 276 322 375
#     4  12  26  40  58  94 134 170 200 266 332 392
#     4  10  19  40  67  91 115 161 222 264 304 378
#     4  11  22  41  63  91 122 165 214 261 313 387
#
# _framework density 20.490576000000001
#
# number of rings (size 3 to 8) (size 9 to 14) (size 15 to 20)
#    0.000    1.500    2.500    4.875    0.000    2.000 
#    4.500    0.000    0.000    3.000    0.000    0.000 
#    0.000    0.000    0.000    0.000    0.000    0.000 
#
# Total GULP energy -356816.062400 kJ/mol
# GULP energy per Si atom -5575.250975 kJ/mol
# Density = 2.044394 g / cm^3
# Si number density = 20.490576 Si / 1000 Ang^3
#
#
#
# Elastic Constant Matrix: (Units=GPa)
#
#
# Indices 1 2 3 4 5 6 
#
# 1 43.8205 21.9464 15.9840 0.0000 0.0000 0.0000
# 2 21.9464 91.9851 37.3948 0.0000 0.0000 0.0000
# 3 15.9840 37.3948 83.0379 0.0000 0.0000 0.0000
# 4 0.0000 0.0000 0.0000 34.4896 0.0000 0.0000
# 5 0.0000 0.0000 0.0000 0.0000 45.5619 0.0000
# 6 0.0000 0.0000 0.0000 0.0000 0.0000 53.1732
#
#
#
# Elastic Compliance Matrix: (Units=1/GPa)
#
#
# Indices 1 2 3 4 5 6 
#
# 1 0.026421 -0.005185 -0.002751 0.000000 0.000000 0.000000
# 2 -0.005185 0.014325 -0.005453 0.000000 0.000000 0.000000
# 3 -0.002751 -0.005453 0.015028 0.000000 0.000000 0.000000
# 4 0.000000 0.000000 0.000000 0.028994 0.000000 0.000000
# 5 0.000000 0.000000 0.000000 0.000000 0.021948 0.000000
# 6 0.000000 0.000000 0.000000 0.000000 0.000000 0.018806
#
#
# Mechanical properties :
#
#
# Convention : Reuss Voigt Hill
#
# Bulk Modulus (GPa) = 34.48777 41.05489 37.77133
# Shear Modulus (GPa) = 30.87066 36.21281 33.54174
#
# Velocity S-wave (km/s) = 3.88568 4.20848 4.05029
# Velocity P-wave (km/s) = 6.08267 6.61018 6.35191
#
# Compressibility (1/GPa) = 0.02899579
#
# Stress axis : x y z
#
# Youngs Moduli (GPa) = 37.84914 69.80640 66.54312
#
# Poissons Ratio (x) = 0.36198 0.18303
# Poissons Ratio (y) = 0.19626 0.36286
# Poissons Ratio (z) = 0.10411 0.38066
#
# Static dielectric constant tensor:
#      x y z
#    x 1.763060 0.000000 0.000000 
#    y 0.000000 1.769230 0.000000 
#    z 0.000000 0.000000 1.723640 
# 
# From -- ./inp_files/6279.got.cif
#   From: 2010.05.17/outbox.cif.g08.bks.cpg/sg61_4_cif.got.tgz:6279.got - 2010.06.03 15:17:17.
