data_PCOD9459401
_publ_section_title
;
Structure prediction by ZEFSAII (Michael W. Deem and Ramdas Pophale) SiO2 
 PCOD9459401
Probable space group: P B C A
;
_chemical_formula_sum "Si O2"
_cell_formula_units_Z 56
_cell_length_a 13.809401
_cell_length_b 9.029600
_cell_length_c 20.450829
_cell_angle_alpha 90.000000
_cell_angle_beta 90.000000
_cell_angle_gamma 90.000000
_cell_volume 2550.082731
_symmetry_space_group_name_H-M "P B C A"
_symmetry_group_IT_number 61
_symmetry_cell_setting 'orthorhombic'
loop_
_space_group_symop_operation_xyz
x,y,z
1/2-x,-y,1/2+z
1/2+x,1/2-y,-z
-x,1/2+y,1/2-z
-x,-y,-z
1/2+x,y,1/2-z
1/2-x,1/2+y,z
x,1/2-y,1/2+z
loop_
_atom_site_type_symbol
_atom_site_label
_atom_site_fract_x
_atom_site_fract_y
_atom_site_fract_z
Si Si1 0.051842 0.268560 0.170114
Si Si2 0.279827 0.182336 0.653707
Si Si3 0.697056 0.320398 0.529539
Si Si4 0.943316 0.431861 0.281047
Si Si5 0.475815 0.669572 0.917714
Si Si6 0.578372 0.670153 0.051803
Si Si7 0.739996 0.569951 0.436920
O O1 0.164050 0.309429 0.159659
O O2 0.001932 0.385104 0.217970
O O3 0.988267 0.254692 0.104215
O O4 0.051798 0.105820 0.203839
O O5 0.333587 0.131803 0.719007
O O6 0.310701 0.337044 0.620515
O O7 0.302208 0.052410 0.601276
O O8 0.613644 0.282757 0.579759
O O9 0.805903 0.311699 0.557539
O O10 0.683493 0.474355 0.490774
O O11 0.695867 0.189053 0.475432
O O12 0.984484 0.346255 0.344872
O O13 0.440590 0.503740 0.936001
O O14 0.545573 0.711695 0.978372
#
# Coordination Sequence:
#
# PCOD9459401 Si02
#       7
#     8   8   8   8   8   8   8
#     4  11  26  46  69  97 133 179 223 271 332 400
#     4  11  22  43  66  98 126 180 220 272 322 402
#     4  11  20  37  60 104 132 170 210 286 334 386
#     4  11  26  46  69  97 133 179 223 271 332 400
#     4  10  21  40  66  93 129 171 216 268 331 389
#     4  10  21  40  66  93 129 171 216 268 331 389
#     4  10  20  34  66  94 134 168 218 260 334 392
#
# _framework density 21.960072
#
# number of rings (size 3 to 8) (size 9 to 14) (size 15 to 20)
#    0.000    1.429    2.857    3.429    6.000    1.143 
#    2.571    5.000    0.000    0.000    0.000    0.000 
#    0.000    0.000    0.000    0.000    0.000    0.000 
#
# Total GULP energy -312895.639062 kJ/mol
# GULP energy per Si atom -5587.422126 kJ/mol
# Density = 2.191009 g / cm^3
# Si number density = 21.960072 Si / 1000 Ang^3
#
#
#
# Elastic Constant Matrix: (Units=GPa)
#
#
# Indices 1 2 3 4 5 6 
#
# 1 95.2223 5.4115 22.5170 0.0000 0.0000 0.0000
# 2 5.4115 77.8376 13.0187 0.0000 0.0000 0.0000
# 3 22.5170 13.0187 60.4516 0.0000 0.0000 0.0000
# 4 0.0000 0.0000 0.0000 34.2828 0.0000 0.0000
# 5 0.0000 0.0000 0.0000 0.0000 30.6993 0.0000
# 6 0.0000 0.0000 0.0000 0.0000 0.0000 23.1692
#
#
#
# Elastic Compliance Matrix: (Units=1/GPa)
#
#
# Indices 1 2 3 4 5 6 
#
# 1 0.011517 -0.000086 -0.004271 0.000000 0.000000 0.000000
# 2 -0.000086 0.013328 -0.002838 0.000000 0.000000 0.000000
# 3 -0.004271 -0.002838 0.018744 0.000000 0.000000 0.000000
# 4 0.000000 0.000000 0.000000 0.029169 0.000000 0.000000
# 5 0.000000 0.000000 0.000000 0.000000 0.032574 0.000000
# 6 0.000000 0.000000 0.000000 0.000000 0.000000 0.043161
#
#
# Mechanical properties :
#
#
# Convention : Reuss Voigt Hill
#
# Bulk Modulus (GPa) = 34.24924 35.04512 34.64718
# Shear Modulus (GPa) = 28.96592 30.46786 29.71689
#
# Velocity S-wave (km/s) = 3.63578 3.72885 3.68261
# Velocity P-wave (km/s) = 5.76673 5.87642 5.82183
#
# Compressibility (1/GPa) = 0.02919773
#
# Stress axis : x y z
#
# Youngs Moduli (GPa) = 86.83099 75.03023 53.34963
#
# Poissons Ratio (x) = 0.00648 0.22786
# Poissons Ratio (y) = 0.00749 0.15141
# Poissons Ratio (z) = 0.37087 0.21295
#
# Static dielectric constant tensor:
#      x y z
#    x 1.871910 0.000000 0.000000 
#    y 0.000000 1.810060 0.000000 
#    z 0.000000 0.000000 1.793250 
# 
# From -- ./inp_files/10447.got.cif
#   From: 2010.05.17/outbox.cif.g08.bks.cpg/sg61_6_cif.got.tgz:10447.got - 2010.06.03 15:17:17.
