data_PCOD9459793
_publ_section_title
;
Structure prediction by ZEFSAII (Michael W. Deem and Ramdas Pophale) SiO2 
 PCOD9459793
Probable space group: P B C A
;
_chemical_formula_sum "Si O2"
_cell_formula_units_Z 48
_cell_length_a 14.904359
_cell_length_b 14.750655
_cell_length_c 8.983309
_cell_angle_alpha 90.000000
_cell_angle_beta 90.000000
_cell_angle_gamma 90.000000
_cell_volume 1974.972018
_symmetry_space_group_name_H-M "P B C A"
_symmetry_group_IT_number 61
_symmetry_cell_setting 'orthorhombic'
loop_
_space_group_symop_operation_xyz
x,y,z
1/2-x,-y,1/2+z
1/2+x,1/2-y,-z
-x,1/2+y,1/2-z
-x,-y,-z
1/2+x,y,1/2-z
1/2-x,1/2+y,z
x,1/2-y,1/2+z
loop_
_atom_site_type_symbol
_atom_site_label
_atom_site_fract_x
_atom_site_fract_y
_atom_site_fract_z
Si Si1 0.039629 0.068887 0.809097
Si Si2 0.708523 0.732358 0.096166
Si Si3 0.325025 0.605161 0.566066
Si Si4 0.408998 0.758782 0.867908
Si Si5 0.613787 0.577100 0.557306
Si Si6 0.548847 0.877763 0.733129
O O1 0.137138 0.074033 0.723685
O O2 0.044531 0.162930 0.898060
O O3 0.954439 0.075094 0.696268
O O4 0.038387 0.966402 0.867617
O O5 0.734506 0.662444 0.961113
O O6 0.804416 0.744954 0.176148
O O7 0.634607 0.680606 0.190524
O O8 0.400506 0.676747 0.511130
O O9 0.330207 0.516747 0.458705
O O10 0.464524 0.812509 0.745527
O O11 0.672788 0.668189 0.559134
O O12 0.560759 0.584028 0.401265
#
# Coordination Sequence:
#
# PCOD9459793 Si02
#       6
#     8   8   8   8   8   8
#     4  11  19  37  64  78 113 155 186 234 285 342
#     4  10  23  33  58  86 115 138 197 241 273 331
#     4   9  21  38  52  83 112 146 188 229 278 345
#     4  10  21  35  57  86 114 143 192 235 278 331
#     4  11  19  37  62  79 111 155 190 225 288 351
#     4  11  21  39  59  85 111 155 192 228 289 342
#
# _framework density 24.304144000000001
#
# number of rings (size 3 to 8) (size 9 to 14) (size 15 to 20)
#    1.000    0.667    5.000    1.000    4.667    0.000 
#    0.000    0.000    0.000    2.000    0.000    0.000 
#    0.000    0.000    0.000    0.000    0.000    0.000 
#
# Total GULP energy -267849.894742 kJ/mol
# GULP energy per Si atom -5580.206140 kJ/mol
# Density = 2.424883 g / cm^3
# Si number density = 24.304144 Si / 1000 Ang^3
#
#
#
# Elastic Constant Matrix: (Units=GPa)
#
#
# Indices 1 2 3 4 5 6 
#
# 1 96.1948 55.2328 14.5063 0.0000 0.0000 0.0000
# 2 55.2328 230.1590 21.9876 0.0000 0.0000 0.0000
# 3 14.5063 21.9876 22.4776 0.0000 0.0000 0.0000
# 4 0.0000 0.0000 0.0000 27.7368 0.0000 0.0000
# 5 0.0000 0.0000 0.0000 0.0000 10.6474 0.0000
# 6 0.0000 0.0000 0.0000 0.0000 0.0000 46.5029
#
#
#
# Elastic Compliance Matrix: (Units=1/GPa)
#
#
# Indices 1 2 3 4 5 6 
#
# 1 0.012697 -0.002498 -0.005751 0.000000 0.000000 0.000000
# 2 -0.002498 0.005284 -0.003557 0.000000 0.000000 0.000000
# 3 -0.005751 -0.003557 0.051680 0.000000 0.000000 0.000000
# 4 0.000000 0.000000 0.000000 0.036053 0.000000 0.000000
# 5 0.000000 0.000000 0.000000 0.000000 0.093919 0.000000
# 6 0.000000 0.000000 0.000000 0.000000 0.000000 0.021504
#
#
# Mechanical properties :
#
#
# Convention : Reuss Voigt Hill
#
# Bulk Modulus (GPa) = 21.71580 59.14275 40.42927
# Shear Modulus (GPa) = 19.22353 34.11774 26.67063
#
# Velocity S-wave (km/s) = 2.81545 3.75077 3.31625
# Velocity P-wave (km/s) = 4.41853 6.56848 5.59770
#
# Compressibility (1/GPa) = 0.04604942
#
# Stress axis : x y z
#
# Youngs Moduli (GPa) = 78.75953 189.25138 19.34996
#
# Poissons Ratio (x) = 0.47266 0.11128
# Poissons Ratio (y) = 0.19671 0.06883
# Poissons Ratio (z) = 0.45295 0.67316
#
# Static dielectric constant tensor:
#      x y z
#    x 1.906080 0.000000 0.000000 
#    y 0.000000 1.976900 0.000000 
#    z 0.000000 0.000000 2.048040 
# 
# From -- ./inp_files/6139.got.cif
#   From: 2010.05.17/outbox.cif.g08.bks.cpg/sg61_4_cif.got.tgz:6139.got - 2010.06.03 15:17:17.
