data_PCOD9459345
_publ_section_title
;
Structure prediction by ZEFSAII (Michael W. Deem and Ramdas Pophale) SiO2 
 PCOD9459345
Probable space group: P B C A
;
_chemical_formula_sum "Si O2"
_cell_formula_units_Z 40
_cell_length_a 12.652827
_cell_length_b 14.376596
_cell_length_c 8.823080
_cell_angle_alpha 90.000000
_cell_angle_beta 90.000000
_cell_angle_gamma 90.000000
_cell_volume 1604.958680
_symmetry_space_group_name_H-M "P B C A"
_symmetry_group_IT_number 61
_symmetry_cell_setting 'orthorhombic'
loop_
_space_group_symop_operation_xyz
x,y,z
1/2-x,-y,1/2+z
1/2+x,1/2-y,-z
-x,1/2+y,1/2-z
-x,-y,-z
1/2+x,y,1/2-z
1/2-x,1/2+y,z
x,1/2-y,1/2+z
loop_
_atom_site_type_symbol
_atom_site_label
_atom_site_fract_x
_atom_site_fract_y
_atom_site_fract_z
Si Si1 0.465680 0.627778 0.548403
Si Si2 0.848477 0.321552 0.485378
Si Si3 0.214383 0.024570 0.685520
Si Si4 0.216807 0.873011 0.475768
Si Si5 0.497526 0.291244 0.750565
O O1 0.402332 0.544838 0.622314
O O2 0.591802 0.617647 0.562052
O O3 0.437008 0.719246 0.647777
O O4 0.443905 0.644573 0.370783
O O5 0.789613 0.407686 0.413202
O O6 0.769043 0.237614 0.531877
O O7 0.922739 0.272618 0.358035
O O8 0.923407 0.343854 0.628244
O O9 0.223849 0.064241 0.853338
O O10 0.239567 0.919049 0.638908
#
# Coordination Sequence:
#
# PCOD9459345 Si02
#       5
#     8   8   8   8   8
#     4  10  21  40  62  94 128 162 208 262 312 378
#     4  10  19  41  63  85 128 167 200 259 317 362
#     4  12  24  40  69  89 129 171 214 252 316 386
#     4  10  25  42  59  98 129 164 210 265 314 360
#     4   8  18  37  62  88 125 155 205 258 311 354
#
# _framework density 24.922758999999999
#
# number of rings (size 3 to 8) (size 9 to 14) (size 15 to 20)
#    0.000    2.400    4.000    0.600    8.400    0.000 
#    0.000    1.000    0.000    0.000    0.000    0.000 
#    0.000    0.000    0.000    0.000    0.000    0.000 
#
# Total GULP energy -223613.028105 kJ/mol
# GULP energy per Si atom -5590.325703 kJ/mol
# Density = 2.486603 g / cm^3
# Si number density = 24.922759 Si / 1000 Ang^3
#
#
#
# Elastic Constant Matrix: (Units=GPa)
#
#
# Indices 1 2 3 4 5 6 
#
# 1 56.3936 -9.0715 10.3838 0.0000 0.0000 0.0000
# 2 -9.0715 43.0095 2.2331 0.0000 0.0000 0.0000
# 3 10.3838 2.2331 114.8275 0.0000 0.0000 0.0000
# 4 0.0000 0.0000 0.0000 41.0067 0.0000 0.0000
# 5 0.0000 0.0000 0.0000 0.0000 32.4153 0.0000
# 6 0.0000 0.0000 0.0000 0.0000 0.0000 12.1845
#
#
#
# Elastic Compliance Matrix: (Units=1/GPa)
#
#
# Indices 1 2 3 4 5 6 
#
# 1 0.018708 0.004038 -0.001770 0.000000 0.000000 0.000000
# 2 0.004038 0.024146 -0.000835 0.000000 0.000000 0.000000
# 3 -0.001770 -0.000835 0.008885 0.000000 0.000000 0.000000
# 4 0.000000 0.000000 0.000000 0.024386 0.000000 0.000000
# 5 0.000000 0.000000 0.000000 0.000000 0.030850 0.000000
# 6 0.000000 0.000000 0.000000 0.000000 0.000000 0.082072
#
#
# Mechanical properties :
#
#
# Convention : Reuss Voigt Hill
#
# Bulk Modulus (GPa) = 18.31358 24.59128 21.45243
# Shear Modulus (GPa) = 24.46399 31.16697 27.81548
#
# Velocity S-wave (km/s) = 3.13644 3.54014 3.34438
# Velocity P-wave (km/s) = 4.52553 5.15737 4.85175
#
# Compressibility (1/GPa) = 0.05460429
#
# Stress axis : x y z
#
# Youngs Moduli (GPa) = 53.45309 41.41529 112.54880
#
# Poissons Ratio (x) = -0.16723 0.19924
# Poissons Ratio (y) = -0.21583 0.09395
# Poissons Ratio (z) = 0.09463 0.03457
#
# Static dielectric constant tensor:
#      x y z
#    x 1.987810 0.000000 0.000000 
#    y 0.000000 2.093280 0.000000 
#    z 0.000000 0.000000 2.007950 
# 
# From -- ./inp_files/2645.got.cif
#   From: 2010.05.17/outbox.cif.g08.bks.cpg/sg61_2_cif.got.tgz:2645.got - 2010.06.03 15:17:17.
