data_PCOD9459384
_publ_section_title
;
Structure prediction by ZEFSAII (Michael W. Deem and Ramdas Pophale) SiO2 
 PCOD9459384
Probable space group: P B C A
;
_chemical_formula_sum "Si O2"
_cell_formula_units_Z 64
_cell_length_a 21.895808
_cell_length_b 8.096531
_cell_length_c 14.546963
_cell_angle_alpha 90.000000
_cell_angle_beta 90.000000
_cell_angle_gamma 90.000000
_cell_volume 2578.886884
_symmetry_space_group_name_H-M "P B C A"
_symmetry_group_IT_number 61
_symmetry_cell_setting 'orthorhombic'
loop_
_space_group_symop_operation_xyz
x,y,z
1/2-x,-y,1/2+z
1/2+x,1/2-y,-z
-x,1/2+y,1/2-z
-x,-y,-z
1/2+x,y,1/2-z
1/2-x,1/2+y,z
x,1/2-y,1/2+z
loop_
_atom_site_type_symbol
_atom_site_label
_atom_site_fract_x
_atom_site_fract_y
_atom_site_fract_z
Si Si1 0.959265 0.849576 0.253745
Si Si2 0.163573 0.341375 0.946941
Si Si3 0.127415 0.974172 0.622933
Si Si4 0.275007 0.963326 0.357439
Si Si5 0.936715 0.222465 0.992920
Si Si6 0.532185 0.053194 0.383264
Si Si7 0.587535 0.932195 0.159386
Si Si8 0.189916 0.737624 0.740826
O O1 0.949706 0.665896 0.296029
O O2 0.018284 0.904598 0.313636
O O3 0.899658 0.947706 0.284885
O O4 0.982922 0.917621 0.155672
O O5 0.186411 0.161414 0.919182
O O6 0.216469 0.468648 0.913360
O O7 0.105726 0.393212 0.884255
O O8 0.148078 0.386246 0.051543
O O9 0.071015 0.870628 0.579259
O O10 0.179285 0.839435 0.647526
O O11 0.249511 0.868471 0.265917
O O12 0.307761 0.123748 0.319814
O O13 0.918864 0.056143 0.938463
O O14 0.899624 0.299758 0.077420
O O15 0.000083 0.170614 0.041412
O O16 0.631651 0.878203 0.241716
#
# Coordination Sequence:
#
# PCOD9459384 Si02
#       8
#     8   8   8   8   8   8   8   8
#     4  11  22  36  54  83 121 157 193 233 280 350
#     4   9  20  37  60  85 111 148 190 239 294 346
#     4  11  22  36  58  88 118 152 195 237 287 353
#     4   9  20  40  61  82 111 148 192 246 301 343
#     4   9  19  36  54  78 112 154 196 236 284 339
#     4  10  20  34  54  76 111 160 198 232 278 331
#     4   9  19  35  56  82 116 155 188 231 288 346
#     4  10  20  38  61  84 112 148 194 245 296 345
#
# _framework density 24.816907
#
# number of rings (size 3 to 8) (size 9 to 14) (size 15 to 20)
#    0.000    2.250    0.000    3.000    0.000    7.500 
#    0.000    5.000    0.000    0.000    0.000    0.000 
#    0.000    0.000    0.000    0.000    0.000    0.000 
#
# Total GULP energy -357069.956041 kJ/mol
# GULP energy per Si atom -5579.218063 kJ/mol
# Density = 2.476042 g / cm^3
# Si number density = 24.816907 Si / 1000 Ang^3
#
#
#
# Elastic Constant Matrix: (Units=GPa)
#
#
# Indices 1 2 3 4 5 6 
#
# 1 52.8892 18.9324 1.4129 0.0000 0.0000 0.0000
# 2 18.9324 85.9662 -2.1503 0.0000 0.0000 0.0000
# 3 1.4129 -2.1503 76.6230 0.0000 0.0000 0.0000
# 4 0.0000 0.0000 0.0000 30.5511 0.0000 0.0000
# 5 0.0000 0.0000 0.0000 0.0000 20.6316 0.0000
# 6 0.0000 0.0000 0.0000 0.0000 0.0000 41.7482
#
#
#
# Elastic Compliance Matrix: (Units=1/GPa)
#
#
# Indices 1 2 3 4 5 6 
#
# 1 0.020545 -0.004537 -0.000506 0.000000 0.000000 0.000000
# 2 -0.004537 0.012643 0.000438 0.000000 0.000000 0.000000
# 3 -0.000506 0.000438 0.013073 0.000000 0.000000 0.000000
# 4 0.000000 0.000000 0.000000 0.032732 0.000000 0.000000
# 5 0.000000 0.000000 0.000000 0.000000 0.048469 0.000000
# 6 0.000000 0.000000 0.000000 0.000000 0.000000 0.023953
#
#
# Mechanical properties :
#
#
# Convention : Reuss Voigt Hill
#
# Bulk Modulus (GPa) = 26.99033 27.98540 27.48787
# Shear Modulus (GPa) = 28.90590 31.73842 30.32216
#
# Velocity S-wave (km/s) = 3.41657 3.58006 3.49927
# Velocity P-wave (km/s) = 5.14425 5.32825 5.23706
#
# Compressibility (1/GPa) = 0.03705030
#
# Stress axis : x y z
#
# Youngs Moduli (GPa) = 48.67326 79.09703 76.49615
#
# Poissons Ratio (x) = 0.35889 0.03872
# Poissons Ratio (y) = 0.22085 -0.03354
# Poissons Ratio (z) = 0.02464 -0.03468
#
# Static dielectric constant tensor:
#      x y z
#    x 1.949730 0.000000 0.000000 
#    y 0.000000 2.025590 0.000000 
#    z 0.000000 0.000000 2.008280 
# 
# From -- ./inp_files/8521.got.cif
#   From: 2010.05.17/outbox.cif.g08.bks.cpg/sg61_5_cif.got.tgz:8521.got - 2010.06.03 15:17:17.
