data_PCOD9459646
_publ_section_title
;
Structure prediction by ZEFSAII (Michael W. Deem and Ramdas Pophale) SiO2 
 PCOD9459646
Probable space group: P B C A
;
_chemical_formula_sum "Si O2"
_cell_formula_units_Z 64
_cell_length_a 14.197558
_cell_length_b 17.557110
_cell_length_c 12.942447
_cell_angle_alpha 90.000000
_cell_angle_beta 90.000000
_cell_angle_gamma 90.000000
_cell_volume 3226.139012
_symmetry_space_group_name_H-M "P B C A"
_symmetry_group_IT_number 61
_symmetry_cell_setting 'orthorhombic'
loop_
_space_group_symop_operation_xyz
x,y,z
1/2-x,-y,1/2+z
1/2+x,1/2-y,-z
-x,1/2+y,1/2-z
-x,-y,-z
1/2+x,y,1/2-z
1/2-x,1/2+y,z
x,1/2-y,1/2+z
loop_
_atom_site_type_symbol
_atom_site_label
_atom_site_fract_x
_atom_site_fract_y
_atom_site_fract_z
Si Si1 0.736270 0.370943 0.206479
Si Si2 0.684850 0.479118 0.619840
Si Si3 0.892520 0.249997 0.249999
Si Si4 0.000001 0.499997 0.257709
Si Si5 0.684852 0.020880 0.880160
Si Si6 0.236261 0.370941 0.706476
Si Si7 0.964215 0.654863 0.622938
Si Si8 0.964224 0.845148 0.877072
O O1 0.750391 0.446441 0.136386
O O2 0.824195 0.314748 0.203985
O O3 0.727722 0.406115 0.321743
O O4 0.639734 0.331747 0.170713
O O5 0.590482 0.497710 0.683676
O O6 0.667943 0.465414 0.500000
O O7 0.727718 0.406112 0.678258
O O8 0.824182 0.185258 0.296019
O O9 0.960941 0.283889 0.337037
O O10 0.960926 0.216094 0.162955
O O11 0.997258 0.574349 0.328944
O O12 0.090486 0.497714 0.183677
O O13 0.002745 0.425635 0.328925
O O14 0.749612 0.946439 0.863617
O O15 0.139721 0.331753 0.670713
O O16 0.959238 0.652316 0.500005
#
# Coordination Sequence:
#
# PCOD9459646 Si02
#       8
#     8   8   8   8   8   8   8   8
#     4  10  23  42  64  96 135 168 225 275 318 405
#     4  10  20  39  67  96 131 177 219 272 329 382
#     4  12  24  46  62  98 136 168 216 276 334 394
#     4  10  20  42  64 100 130 170 228 278 308 406
#     4  10  20  39  67  96 131 177 219 272 329 382
#     4  10  23  42  64  96 135 168 225 275 318 405
#     4  11  24  42  68  95 130 177 218 272 333 389
#     4  11  24  42  68  95 130 177 218 272 333 389
#
# _framework density 19.837952999999999
#
# number of rings (size 3 to 8) (size 9 to 14) (size 15 to 20)
#    0.000    1.500    2.500    2.250    0.000    3.000 
#    0.000    6.250    0.000    0.000    0.000    0.000 
#    0.000    0.000    0.000    0.000    0.000    0.000 
#
# Total GULP energy -357766.672073 kJ/mol
# GULP energy per Si atom -5590.104251 kJ/mol
# Density = 1.979280 g / cm^3
# Si number density = 19.837953 Si / 1000 Ang^3
#
#
#
# Elastic Constant Matrix: (Units=GPa)
#
#
# Indices 1 2 3 4 5 6 
#
# 1 140.7786 67.9886 53.7703 0.0000 0.0000 0.0000
# 2 67.9886 80.4301 61.3602 0.0000 0.0000 0.0000
# 3 53.7703 61.3602 163.9545 0.0000 0.0000 0.0000
# 4 0.0000 0.0000 0.0000 11.9850 0.0000 0.0000
# 5 0.0000 0.0000 0.0000 0.0000 10.5603 0.0000
# 6 0.0000 0.0000 0.0000 0.0000 0.0000 46.5585
#
#
#
# Elastic Compliance Matrix: (Units=1/GPa)
#
#
# Indices 1 2 3 4 5 6 
#
# 1 0.012008 -0.010002 -0.000195 0.000000 0.000000 0.000000
# 2 -0.010002 0.025733 -0.006350 0.000000 0.000000 0.000000
# 3 -0.000195 -0.006350 0.008540 0.000000 0.000000 0.000000
# 4 0.000000 0.000000 0.000000 0.083438 0.000000 0.000000
# 5 0.000000 0.000000 0.000000 0.000000 0.094694 0.000000
# 6 0.000000 0.000000 0.000000 0.000000 0.000000 0.021478
#
#
# Mechanical properties :
#
#
# Convention : Reuss Voigt Hill
#
# Bulk Modulus (GPa) = 75.83650 83.48904 79.66277
# Shear Modulus (GPa) = 17.64408 27.29034 22.46721
#
# Velocity S-wave (km/s) = 2.98553 3.71302 3.36897
# Velocity P-wave (km/s) = 7.08488 7.78196 7.44159
#
# Compressibility (1/GPa) = 0.01318626
#
# Stress axis : x y z
#
# Youngs Moduli (GPa) = 83.27596 38.86122 117.09929
#
# Poissons Ratio (x) = 0.38869 0.02283
# Poissons Ratio (y) = 0.83293 0.74360
# Poissons Ratio (z) = 0.01623 0.24678
#
# Static dielectric constant tensor:
#      x y z
#    x 1.720830 0.000000 0.000000 
#    y 0.000000 1.711400 0.000000 
#    z 0.000000 0.000000 1.646940 
# 
# From -- ./inp_files/5980.got.cif
#   From: 2010.05.17/outbox.cif.g08.bks.cpg/sg61_3_cif.got.tgz:5980.got - 2010.06.03 15:17:17.
