data_PCOD9459427
_publ_section_title
;
Structure prediction by ZEFSAII (Michael W. Deem and Ramdas Pophale) SiO2 
 PCOD9459427
Probable space group: P B C A
;
_chemical_formula_sum "Si O2"
_cell_formula_units_Z 56
_cell_length_a 7.482767
_cell_length_b 14.483909
_cell_length_c 23.053420
_cell_angle_alpha 90.000000
_cell_angle_beta 90.000000
_cell_angle_gamma 90.000000
_cell_volume 2498.523119
_symmetry_space_group_name_H-M "P B C A"
_symmetry_group_IT_number 61
_symmetry_cell_setting 'orthorhombic'
loop_
_space_group_symop_operation_xyz
x,y,z
1/2-x,-y,1/2+z
1/2+x,1/2-y,-z
-x,1/2+y,1/2-z
-x,-y,-z
1/2+x,y,1/2-z
1/2-x,1/2+y,z
x,1/2-y,1/2+z
loop_
_atom_site_type_symbol
_atom_site_label
_atom_site_fract_x
_atom_site_fract_y
_atom_site_fract_z
Si Si1 0.031247 0.187083 0.442045
Si Si2 0.190330 0.884206 0.168811
Si Si3 0.408079 0.328936 0.676912
Si Si4 0.121643 0.752300 0.372726
Si Si5 0.717405 0.170468 0.946001
Si Si6 0.273487 0.108738 0.293374
Si Si7 0.582217 0.921878 0.208102
O O1 0.936734 0.134267 0.388322
O O2 0.874185 0.256694 0.462017
O O3 0.200196 0.239621 0.411806
O O4 0.121733 0.134594 0.495727
O O5 0.175828 0.772505 0.174313
O O6 0.182945 0.897755 0.099471
O O7 0.382043 0.922295 0.185856
O O8 0.070319 0.919497 0.221779
O O9 0.607773 0.321071 0.701545
O O10 0.321222 0.390216 0.726224
O O11 0.088421 0.655690 0.337941
O O12 0.153607 0.830152 0.323508
O O13 0.949592 0.782312 0.410892
O O14 0.197631 0.009758 0.310481
#
# Coordination Sequence:
#
# PCOD9459427 Si02
#       7
#     8   8   8   8   8   8   8
#     4  10  20  35  61  92 116 163 216 254 308 376
#     4  10  21  36  59  88 124 159 204 257 311 370
#     4  10  21  36  59  88 124 159 204 257 311 370
#     4  10  22  38  62  90 126 162 204 272 310 374
#     4  10  20  35  61  92 116 163 216 254 308 376
#     4  11  22  37  60  92 128 164 203 255 320 379
#     4  11  22  37  60  92 128 164 203 255 320 379
#
# _framework density 22.413239999999998
#
# number of rings (size 3 to 8) (size 9 to 14) (size 15 to 20)
#    0.000    1.714    2.857    1.714    8.000    0.000 
#    0.000    0.000    0.000   22.286    0.000    0.000 
#    0.000    0.000    0.000    0.000    0.000    0.000 
#
# Total GULP energy -311863.128784 kJ/mol
# GULP energy per Si atom -5568.984443 kJ/mol
# Density = 2.236223 g / cm^3
# Si number density = 22.413240 Si / 1000 Ang^3
#
#
#
# Elastic Constant Matrix: (Units=GPa)
#
#
# Indices 1 2 3 4 5 6 
#
# 1 44.1965 13.4310 13.3919 0.0000 0.0000 0.0000
# 2 13.4310 51.6162 7.0229 0.0000 0.0000 0.0000
# 3 13.3919 7.0229 136.2013 0.0000 0.0000 0.0000
# 4 0.0000 0.0000 0.0000 4.2445 0.0000 0.0000
# 5 0.0000 0.0000 0.0000 0.0000 48.1301 0.0000
# 6 0.0000 0.0000 0.0000 0.0000 0.0000 12.7491
#
#
#
# Elastic Compliance Matrix: (Units=1/GPa)
#
#
# Indices 1 2 3 4 5 6 
#
# 1 0.025181 -0.006259 -0.002153 0.000000 0.000000 0.000000
# 2 -0.006259 0.021067 -0.000471 0.000000 0.000000 0.000000
# 3 -0.002153 -0.000471 0.007578 0.000000 0.000000 0.000000
# 4 0.000000 0.000000 0.000000 0.235599 0.000000 0.000000
# 5 0.000000 0.000000 0.000000 0.000000 0.020777 0.000000
# 6 0.000000 0.000000 0.000000 0.000000 0.000000 0.078437
#
#
# Mechanical properties :
#
#
# Convention : Reuss Voigt Hill
#
# Bulk Modulus (GPa) = 27.73240 33.30062 30.51651
# Shear Modulus (GPa) = 11.94958 26.23595 19.09276
#
# Velocity S-wave (km/s) = 2.31151 3.42505 2.92182
# Velocity P-wave (km/s) = 4.41861 5.52550 5.00276
#
# Compressibility (1/GPa) = 0.03605891
#
# Stress axis : x y z
#
# Youngs Moduli (GPa) = 39.71275 47.46860 131.95993
#
# Poissons Ratio (x) = 0.29712 0.28413
# Poissons Ratio (y) = 0.24857 0.06213
# Poissons Ratio (z) = 0.08551 0.02235
#
# Static dielectric constant tensor:
#      x y z
#    x 1.923760 0.000000 0.000000 
#    y 0.000000 1.846090 0.000000 
#    z 0.000000 0.000000 1.958270 
# 
# From -- ./inp_files/10117.got.cif
#   From: 2010.05.17/outbox.cif.g08.bks.cpg/sg61_6_cif.got.tgz:10117.got - 2010.06.03 15:17:17.
