data_PCOD9459257
_publ_section_title
;
Structure prediction by ZEFSAII (Michael W. Deem and Ramdas Pophale) SiO2 
 PCOD9459257
Probable space group: P B C A
;
_chemical_formula_sum "Si O2"
_cell_formula_units_Z 56
_cell_length_a 11.514713
_cell_length_b 13.878045
_cell_length_c 15.321858
_cell_angle_alpha 90.000000
_cell_angle_beta 90.000000
_cell_angle_gamma 90.000000
_cell_volume 2448.459035
_symmetry_space_group_name_H-M "P B C A"
_symmetry_group_IT_number 61
_symmetry_cell_setting 'orthorhombic'
loop_
_space_group_symop_operation_xyz
x,y,z
1/2-x,-y,1/2+z
1/2+x,1/2-y,-z
-x,1/2+y,1/2-z
-x,-y,-z
1/2+x,y,1/2-z
1/2-x,1/2+y,z
x,1/2-y,1/2+z
loop_
_atom_site_type_symbol
_atom_site_label
_atom_site_fract_x
_atom_site_fract_y
_atom_site_fract_z
Si Si1 0.863608 0.486952 0.598283
Si Si2 0.110163 0.410074 0.242325
Si Si3 0.043642 0.764897 0.690021
Si Si4 0.513020 0.336954 0.010463
Si Si5 0.367348 0.879892 0.891109
Si Si6 0.203061 0.788308 0.333834
Si Si7 0.474751 0.853909 0.069999
O O1 0.918356 0.502620 0.693830
O O2 0.894318 0.587354 0.549602
O O3 0.729757 0.460611 0.610992
O O4 0.922490 0.402185 0.542855
O O5 0.232022 0.370394 0.278227
O O6 0.096801 0.416506 0.139649
O O7 0.023594 0.322177 0.262947
O O8 0.150361 0.778100 0.755467
O O9 0.050842 0.721375 0.590487
O O10 0.960875 0.857460 0.683367
O O11 0.565953 0.257556 0.945145
O O12 0.292150 0.779459 0.887311
O O13 0.445000 0.896702 0.976303
O O14 0.106021 0.835140 0.396678
#
# Coordination Sequence:
#
# PCOD9459257 Si02
#       7
#     8   8   8   8   8   8   8
#     4  10  19  36  58  94 126 157 195 273 319 365
#     4   9  20  35  57  84 123 158 205 248 311 359
#     4   8  18  35  56  87 114 163 209 245 293 385
#     4   9  18  35  63  87 122 161 211 245 320 377
#     4  10  20  35  60  92 121 158 209 253 311 369
#     4  10  19  37  59  83 124 162 205 260 295 370
#     4  10  20  37  61  90 114 167 217 244 294 401
#
# _framework density 22.871528000000001
#
# number of rings (size 3 to 8) (size 9 to 14) (size 15 to 20)
#    0.000    2.571    1.429    0.857    2.000    0.000 
#    0.000    9.286    0.000    0.000    0.000    0.000 
#    0.000    0.000    0.000    0.000    0.000    0.000 
#
# Total GULP energy -311919.058268 kJ/mol
# GULP energy per Si atom -5569.983183 kJ/mol
# Density = 2.281947 g / cm^3
# Si number density = 22.871528 Si / 1000 Ang^3
#
#
#
# Elastic Constant Matrix: (Units=GPa)
#
#
# Indices 1 2 3 4 5 6 
#
# 1 66.8396 25.7200 42.8147 0.0000 0.0000 0.0000
# 2 25.7200 72.3442 16.1443 0.0000 0.0000 0.0000
# 3 42.8147 16.1443 87.4551 0.0000 0.0000 0.0000
# 4 0.0000 0.0000 0.0000 30.2830 0.0000 0.0000
# 5 0.0000 0.0000 0.0000 0.0000 33.1094 0.0000
# 6 0.0000 0.0000 0.0000 0.0000 0.0000 36.0261
#
#
#
# Elastic Compliance Matrix: (Units=1/GPa)
#
#
# Indices 1 2 3 4 5 6 
#
# 1 0.024211 -0.006219 -0.010705 0.000000 0.000000 0.000000
# 2 -0.006219 0.016014 0.000088 0.000000 0.000000 0.000000
# 3 -0.010705 0.000088 0.016659 0.000000 0.000000 0.000000
# 4 0.000000 0.000000 0.000000 0.033022 0.000000 0.000000
# 5 0.000000 0.000000 0.000000 0.000000 0.030203 0.000000
# 6 0.000000 0.000000 0.000000 0.000000 0.000000 0.027758
#
#
# Mechanical properties :
#
#
# Convention : Reuss Voigt Hill
#
# Bulk Modulus (GPa) = 43.07870 43.99966 43.53918
# Shear Modulus (GPa) = 26.41652 29.34767 27.88210
#
# Velocity S-wave (km/s) = 3.40221 3.58600 3.49531
# Velocity P-wave (km/s) = 5.85742 6.03534 5.94705
#
# Compressibility (1/GPa) = 0.02321333
#
# Stress axis : x y z
#
# Youngs Moduli (GPa) = 41.30290 62.44529 60.02794
#
# Poissons Ratio (x) = 0.38833 0.64260
# Poissons Ratio (y) = 0.25685 -0.00530
# Poissons Ratio (z) = 0.44215 -0.00551
#
# Static dielectric constant tensor:
#      x y z
#    x 1.909120 0.000000 0.000000 
#    y 0.000000 1.938030 0.000000 
#    z 0.000000 0.000000 1.892160 
# 
# From -- ./inp_files/7524.got.cif
#   From: 2010.05.17/outbox.cif.g08.bks.cpg/sg61_4_cif.got.tgz:7524.got - 2010.06.03 15:17:17.
