data_PCOD9459072
_publ_section_title
;
Structure prediction by ZEFSAII (Michael W. Deem and Ramdas Pophale) SiO2 
 PCOD9459072
Probable space group: P B C A
;
_chemical_formula_sum "Si O2"
_cell_formula_units_Z 40
_cell_length_a 5.548783
_cell_length_b 15.903896
_cell_length_c 17.592272
_cell_angle_alpha 90.000000
_cell_angle_beta 90.000000
_cell_angle_gamma 90.000000
_cell_volume 1552.469938
_symmetry_space_group_name_H-M "P B C A"
_symmetry_group_IT_number 61
_symmetry_cell_setting 'orthorhombic'
loop_
_space_group_symop_operation_xyz
x,y,z
1/2-x,-y,1/2+z
1/2+x,1/2-y,-z
-x,1/2+y,1/2-z
-x,-y,-z
1/2+x,y,1/2-z
1/2-x,1/2+y,z
x,1/2-y,1/2+z
loop_
_atom_site_type_symbol
_atom_site_label
_atom_site_fract_x
_atom_site_fract_y
_atom_site_fract_z
Si Si1 0.628363 0.849874 0.508030
Si Si2 0.580964 0.007378 0.812778
Si Si3 0.127608 0.663057 0.953357
Si Si4 0.480262 0.803782 0.218351
Si Si5 0.418456 0.048819 0.347186
O O1 0.645756 0.749137 0.497099
O O2 0.388474 0.878409 0.464091
O O3 0.589015 0.873915 0.595703
O O4 0.887444 0.883553 0.481377
O O5 0.336519 0.997638 0.859222
O O6 0.581642 0.939110 0.744348
O O7 0.825552 0.996709 0.858806
O O8 0.567991 0.096083 0.768608
O O9 0.072032 0.692725 0.868027
O O10 0.708938 0.769344 0.266660
#
# Coordination Sequence:
#
# PCOD9459072 Si02
#       5
#     8   8   8   8   8
#     4  10  21  42  60  83 122 150 194 241 286 348
#     4  10  19  35  57  83 118 149 187 238 287 330
#     4  10  23  40  61  85 115 159 191 239 292 337
#     4  12  21  40  62  83 120 153 192 239 289 342
#     4  10  18  35  59  82 112 158 181 235 293 331
#
# _framework density 25.765395000000002
#
# number of rings (size 3 to 8) (size 9 to 14) (size 15 to 20)
#    0.000    1.600    4.000    2.400    0.000    0.000 
#    7.200    6.000    0.000    0.000    0.000    0.000 
#    0.000    0.000    0.000    0.000    0.000    0.000 
#
# Total GULP energy -223138.674949 kJ/mol
# GULP energy per Si atom -5578.466874 kJ/mol
# Density = 2.570675 g / cm^3
# Si number density = 25.765395 Si / 1000 Ang^3
#
#
#
# Elastic Constant Matrix: (Units=GPa)
#
#
# Indices 1 2 3 4 5 6 
#
# 1 289.2939 37.0070 26.1685 0.0000 0.0000 0.0000
# 2 37.0070 39.9726 17.4624 0.0000 0.0000 0.0000
# 3 26.1685 17.4624 71.6313 0.0000 0.0000 0.0000
# 4 0.0000 0.0000 0.0000 9.5658 0.0000 0.0000
# 5 0.0000 0.0000 0.0000 0.0000 52.1579 0.0000
# 6 0.0000 0.0000 0.0000 0.0000 0.0000 2.0308
#
#
#
# Elastic Compliance Matrix: (Units=1/GPa)
#
#
# Indices 1 2 3 4 5 6 
#
# 1 0.003945 -0.003383 -0.000617 0.000000 0.000000 0.000000
# 2 -0.003383 0.030900 -0.006297 0.000000 0.000000 0.000000
# 3 -0.000617 -0.006297 0.015721 0.000000 0.000000 0.000000
# 4 0.000000 0.000000 0.000000 0.104539 0.000000 0.000000
# 5 0.000000 0.000000 0.000000 0.000000 0.019173 0.000000
# 6 0.000000 0.000000 0.000000 0.000000 0.000000 0.492406
#
#
# Mechanical properties :
#
#
# Convention : Reuss Voigt Hill
#
# Bulk Modulus (GPa) = 33.36357 62.46373 47.91365
# Shear Modulus (GPa) = 7.17084 34.10156 20.63620
#
# Velocity S-wave (km/s) = 1.67008 3.64200 2.83314
# Velocity P-wave (km/s) = 4.08607 6.47931 5.41652
#
# Compressibility (1/GPa) = 0.02997281
#
# Stress axis : x y z
#
# Youngs Moduli (GPa) = 253.46954 32.36223 63.61050
#
# Poissons Ratio (x) = 0.10949 0.03922
# Poissons Ratio (y) = 0.85754 0.40055
# Poissons Ratio (z) = 0.15627 0.20378
#
# Static dielectric constant tensor:
#      x y z
#    x 2.110120 0.000000 0.000000 
#    y 0.000000 2.060210 0.000000 
#    z 0.000000 0.000000 1.992180 
# 
# From -- ./inp_files/8725.got.cif
#   From: 2010.05.17/outbox.cif.g08.bks.cpg/sg61_5_cif.got.tgz:8725.got - 2010.06.03 15:17:17.
