data_PCOD9459280
_publ_section_title
;
Structure prediction by ZEFSAII (Michael W. Deem and Ramdas Pophale) SiO2 
 PCOD9459280
Probable space group: P B C A
;
_chemical_formula_sum "Si O2"
_cell_formula_units_Z 64
_cell_length_a 9.022626
_cell_length_b 19.401153
_cell_length_c 18.977948
_cell_angle_alpha 90.000000
_cell_angle_beta 90.000000
_cell_angle_gamma 90.000000
_cell_volume 3322.077414
_symmetry_space_group_name_H-M "P B C A"
_symmetry_group_IT_number 61
_symmetry_cell_setting 'orthorhombic'
loop_
_space_group_symop_operation_xyz
x,y,z
1/2-x,-y,1/2+z
1/2+x,1/2-y,-z
-x,1/2+y,1/2-z
-x,-y,-z
1/2+x,y,1/2-z
1/2-x,1/2+y,z
x,1/2-y,1/2+z
loop_
_atom_site_type_symbol
_atom_site_label
_atom_site_fract_x
_atom_site_fract_y
_atom_site_fract_z
Si Si1 0.239583 0.254468 0.882520
Si Si2 0.844898 0.900761 0.447579
Si Si3 0.196544 0.765504 0.047675
Si Si4 0.147116 0.975152 0.654602
Si Si5 0.382498 0.462909 0.251524
Si Si6 0.443558 0.789130 0.150991
Si Si7 0.377895 0.635909 0.796493
Si Si8 0.017245 0.353927 0.910088
O O1 0.399406 0.247894 0.845938
O O2 0.146273 0.188430 0.859042
O O3 0.152300 0.324335 0.863937
O O4 0.261062 0.253853 0.966571
O O5 0.701426 0.849402 0.445703
O O6 0.958101 0.858029 0.397250
O O7 0.913042 0.897618 0.525428
O O8 0.824778 0.974175 0.411936
O O9 0.322959 0.746920 0.105551
O O10 0.059198 0.716105 0.061711
O O11 0.102262 0.899969 0.629141
O O12 0.288253 0.983494 0.705369
O O13 0.003347 0.003781 0.697023
O O14 0.260838 0.415559 0.290196
O O15 0.475292 0.410139 0.202721
O O16 0.386882 0.816947 0.225656
#
# Coordination Sequence:
#
# PCOD9459280 Si02
#       8
#     8   8   8   8   8   8   8   8
#     4  11  20  35  58  94 118 147 200 250 302 351
#     4   9  18  37  64  81 111 154 203 238 280 364
#     4   9  19  37  60  88 119 152 193 250 299 345
#     4  11  22  41  59  86 118 160 203 242 304 363
#     4  10  20  38  59  82 115 156 198 242 290 353
#     4  10  19  37  58  88 115 151 199 251 278 354
#     4  11  20  35  63  86 109 154 208 247 285 350
#     4  11  23  36  61  90 121 158 191 252 319 352
#
# _framework density 19.265053999999999
#
# number of rings (size 3 to 8) (size 9 to 14) (size 15 to 20)
#    0.750    1.000    5.000    0.375    3.500    0.000 
#    4.500    1.250    0.000    0.750    0.000    0.000 
#    0.000    0.000    0.000    0.000    0.000    0.000 
#
# Total GULP energy -356451.904918 kJ/mol
# GULP energy per Si atom -5569.561014 kJ/mol
# Density = 1.922121 g / cm^3
# Si number density = 19.265054 Si / 1000 Ang^3
#
#
#
# Elastic Constant Matrix: (Units=GPa)
#
#
# Indices 1 2 3 4 5 6 
#
# 1 43.1945 9.1756 8.0410 0.0000 0.0000 0.0000
# 2 9.1756 23.1916 0.2621 0.0000 0.0000 0.0000
# 3 8.0410 0.2621 29.8307 0.0000 0.0000 0.0000
# 4 0.0000 0.0000 0.0000 21.4829 0.0000 0.0000
# 5 0.0000 0.0000 0.0000 0.0000 21.6978 0.0000
# 6 0.0000 0.0000 0.0000 0.0000 0.0000 20.2285
#
#
#
# Elastic Compliance Matrix: (Units=1/GPa)
#
#
# Indices 1 2 3 4 5 6 
#
# 1 0.026701 -0.010484 -0.007105 0.000000 0.000000 0.000000
# 2 -0.010484 0.047240 0.002411 0.000000 0.000000 0.000000
# 3 -0.007105 0.002411 0.035417 0.000000 0.000000 0.000000
# 4 0.000000 0.000000 0.000000 0.046549 0.000000 0.000000
# 5 0.000000 0.000000 0.000000 0.000000 0.046088 0.000000
# 6 0.000000 0.000000 0.000000 0.000000 0.000000 0.049435
#
#
# Mechanical properties :
#
#
# Convention : Reuss Voigt Hill
#
# Bulk Modulus (GPa) = 12.65807 14.57491 13.61649
# Shear Modulus (GPa) = 16.22755 17.93106 17.07931
#
# Velocity S-wave (km/s) = 2.90544 3.05414 2.98072
# Velocity P-wave (km/s) = 4.22377 4.47425 4.35081
#
# Compressibility (1/GPa) = 0.07900097
#
# Stress axis : x y z
#
# Youngs Moduli (GPa) = 37.45212 21.16867 28.23542
#
# Poissons Ratio (x) = 0.22193 0.20062
# Poissons Ratio (y) = 0.39264 -0.06807
# Poissons Ratio (z) = 0.26610 -0.05104
#
# Static dielectric constant tensor:
#      x y z
#    x 1.713100 0.000000 0.000000 
#    y 0.000000 1.689010 0.000000 
#    z 0.000000 0.000000 1.680440 
# 
# From -- ./inp_files/10219.got.cif
#   From: 2010.05.17/outbox.cif.g08.bks.cpg/sg61_6_cif.got.tgz:10219.got - 2010.06.03 15:17:17.
