data_PCOD9459975
_publ_section_title
;
Structure prediction by ZEFSAII (Michael W. Deem and Ramdas Pophale) SiO2 
 PCOD9459975
Probable space group: P B C A
;
_chemical_formula_sum "Si O2"
_cell_formula_units_Z 48
_cell_length_a 8.839646
_cell_length_b 29.011866
_cell_length_c 8.362294
_cell_angle_alpha 90.000000
_cell_angle_beta 90.000000
_cell_angle_gamma 90.000000
_cell_volume 2144.548974
_symmetry_space_group_name_H-M "P B C A"
_symmetry_group_IT_number 61
_symmetry_cell_setting 'orthorhombic'
loop_
_space_group_symop_operation_xyz
x,y,z
1/2-x,-y,1/2+z
1/2+x,1/2-y,-z
-x,1/2+y,1/2-z
-x,-y,-z
1/2+x,y,1/2-z
1/2-x,1/2+y,z
x,1/2-y,1/2+z
loop_
_atom_site_type_symbol
_atom_site_label
_atom_site_fract_x
_atom_site_fract_y
_atom_site_fract_z
Si Si1 0.606597 0.024364 0.368616
Si Si2 0.106631 0.538167 0.919947
Si Si3 0.632266 0.734594 0.693076
Si Si4 0.974028 0.894283 0.614996
Si Si5 0.742157 0.164075 0.278158
Si Si6 0.061825 0.292348 0.474076
O O1 0.748088 0.043415 0.467347
O O2 0.544467 0.065458 0.252644
O O3 0.500000 0.000000 0.500000
O O4 0.652347 0.982631 0.249485
O O5 0.004742 0.583328 0.941808
O O6 0.000000 0.500000 0.000000
O O7 0.696598 0.784621 0.747010
O O8 0.564982 0.704938 0.837910
O O9 0.494373 0.747511 0.574029
O O10 0.775201 0.712965 0.606882
O O11 0.122086 0.864651 0.650252
O O12 0.826886 0.862241 0.626387
O O13 0.596933 0.168416 0.396680
#
# Coordination Sequence:
#
# PCOD9459975 Si02
#       6
#     8   8   8   8   8   8
#     4  11  23  42  71  99 133 181 235 282 339 427
#     4  10  21  39  67  99 130 178 230 276 338 423
#     4  12  23  42  69  99 130 183 241 286 344 433
#     4  11  23  42  66  97 139 179 226 284 363 416
#     4  12  23  41  70  98 137 180 224 293 364 400
#     4  12  23  42  70  98 134 179 241 287 350 427
#
# _framework density 22.382328999999999
#
# number of rings (size 3 to 8) (size 9 to 14) (size 15 to 20)
#    0.000    0.667    6.667    2.000    2.333    0.000 
#    0.000    1.667    3.667    0.000    0.000    0.000 
#    0.000    0.000    0.000    0.000    0.000    0.000 
#
# Total GULP energy -267862.753259 kJ/mol
# GULP energy per Si atom -5580.474026 kJ/mol
# Density = 2.233139 g / cm^3
# Si number density = 22.382329 Si / 1000 Ang^3
#
#
#
# Elastic Constant Matrix: (Units=GPa)
#
#
# Indices 1 2 3 4 5 6 
#
# 1 65.1120 11.9319 7.6237 0.0000 0.0000 0.0000
# 2 11.9319 52.5252 10.4873 0.0000 0.0000 0.0000
# 3 7.6237 10.4873 77.9744 0.0000 0.0000 0.0000
# 4 0.0000 0.0000 0.0000 31.7455 0.0000 0.0000
# 5 0.0000 0.0000 0.0000 0.0000 52.2595 0.0000
# 6 0.0000 0.0000 0.0000 0.0000 0.0000 38.4382
#
#
#
# Elastic Compliance Matrix: (Units=1/GPa)
#
#
# Indices 1 2 3 4 5 6 
#
# 1 0.016119 -0.003439 -0.001113 0.000000 0.000000 0.000000
# 2 -0.003439 0.020298 -0.002394 0.000000 0.000000 0.000000
# 3 -0.001113 -0.002394 0.013256 0.000000 0.000000 0.000000
# 4 0.000000 0.000000 0.000000 0.031501 0.000000 0.000000
# 5 0.000000 0.000000 0.000000 0.000000 0.019135 0.000000
# 6 0.000000 0.000000 0.000000 0.000000 0.000000 0.026016
#
#
# Mechanical properties :
#
#
# Convention : Reuss Voigt Hill
#
# Bulk Modulus (GPa) = 27.94923 28.41084 28.18003
# Shear Modulus (GPa) = 32.86385 35.52655 34.19520
#
# Velocity S-wave (km/s) = 3.83599 3.98836 3.91292
# Velocity P-wave (km/s) = 5.66869 5.82498 5.74737
#
# Compressibility (1/GPa) = 0.03577916
#
# Stress axis : x y z
#
# Youngs Moduli (GPa) = 62.03941 49.26666 75.44027
#
# Poissons Ratio (x) = 0.16944 0.08399
# Poissons Ratio (y) = 0.21337 0.18058
# Poissons Ratio (z) = 0.06907 0.11793
#
# Static dielectric constant tensor:
#      x y z
#    x 1.849050 0.000000 0.000000 
#    y 0.000000 1.868400 0.000000 
#    z 0.000000 0.000000 1.922020 
# 
# From -- ./inp_files/1873.got.cif
#   From: 2010.05.17/outbox.cif.g08.bks.cpg/sg61_1_cif.got.tgz:1873.got - 2010.06.03 15:17:17.
