data_PCOD9459529
_publ_section_title
;
Structure prediction by ZEFSAII (Michael W. Deem and Ramdas Pophale) SiO2 
 PCOD9459529
Probable space group: P B C A
;
_chemical_formula_sum "Si O2"
_cell_formula_units_Z 64
_cell_length_a 15.725627
_cell_length_b 8.790604
_cell_length_c 24.086402
_cell_angle_alpha 90.000000
_cell_angle_beta 90.000000
_cell_angle_gamma 90.000000
_cell_volume 3329.650250
_symmetry_space_group_name_H-M "P B C A"
_symmetry_group_IT_number 61
_symmetry_cell_setting 'orthorhombic'
loop_
_space_group_symop_operation_xyz
x,y,z
1/2-x,-y,1/2+z
1/2+x,1/2-y,-z
-x,1/2+y,1/2-z
-x,-y,-z
1/2+x,y,1/2-z
1/2-x,1/2+y,z
x,1/2-y,1/2+z
loop_
_atom_site_type_symbol
_atom_site_label
_atom_site_fract_x
_atom_site_fract_y
_atom_site_fract_z
Si Si1 0.335681 0.184754 0.619792
Si Si2 0.406096 0.687726 0.501210
Si Si3 0.342188 0.677102 0.113310
Si Si4 0.349342 0.678682 0.376281
Si Si5 0.331846 0.185035 0.882513
Si Si6 0.509508 0.678897 0.183027
Si Si7 0.894628 0.175826 0.496157
Si Si8 0.502523 0.814545 0.305425
O O1 0.243470 0.247089 0.635739
O O2 0.358728 0.249264 0.559133
O O3 0.411036 0.228099 0.661884
O O4 0.332857 0.003352 0.616673
O O5 0.357214 0.774445 0.549636
O O6 0.374772 0.723172 0.439315
O O7 0.393794 0.506986 0.510368
O O8 0.506745 0.721244 0.504445
O O9 0.425729 0.722860 0.147847
O O10 0.259360 0.755441 0.363215
O O11 0.341027 0.496105 0.374328
O O12 0.423457 0.735201 0.335985
O O13 0.407503 0.268643 0.850350
O O14 0.343544 0.216756 0.948279
O O15 0.507620 0.759729 0.242416
O O16 0.508248 0.496694 0.190684
#
# Coordination Sequence:
#
# PCOD9459529 Si02
#       8
#     8   8   8   8   8   8   8   8
#     4  11  24  40  63  93 125 162 204 251 307 367
#     4  10  20  37  63  94 127 164 201 246 306 367
#     4  11  24  40  63  93 125 162 204 251 307 367
#     4  11  23  40  64  93 127 164 205 252 307 368
#     4  11  23  40  64  93 127 164 205 252 307 368
#     4  11  25  44  65  90 121 162 210 260 311 365
#     4  10  20  37  63  94 127 164 201 246 306 367
#     4  11  25  44  65  90 121 162 210 260 311 365
#
# _framework density 19.221239000000001
#
# number of rings (size 3 to 8) (size 9 to 14) (size 15 to 20)
#    0.000    1.250    2.500    3.000    0.000    8.500 
#    0.000    2.500    0.000    0.000    0.000    0.000 
#    0.000    0.000    0.000    0.000    0.000    0.000 
#
# Total GULP energy -358006.719026 kJ/mol
# GULP energy per Si atom -5593.854985 kJ/mol
# Density = 1.917749 g / cm^3
# Si number density = 19.221239 Si / 1000 Ang^3
#
#
#
# Elastic Constant Matrix: (Units=GPa)
#
#
# Indices 1 2 3 4 5 6 
#
# 1 75.5530 -0.5564 -10.3292 0.0000 0.0000 0.0000
# 2 -0.5564 19.3573 5.9510 0.0000 0.0000 0.0000
# 3 -10.3292 5.9510 65.1547 0.0000 0.0000 0.0000
# 4 0.0000 0.0000 0.0000 30.2928 0.0000 0.0000
# 5 0.0000 0.0000 0.0000 0.0000 -0.6538 0.0000
# 6 0.0000 0.0000 0.0000 0.0000 0.0000 31.8669
#
#
#
# Elastic Compliance Matrix: (Units=1/GPa)
#
#
# Indices 1 2 3 4 5 6 
#
# 1 0.013530 -0.000278 0.002170 0.000000 0.000000 0.000000
# 2 -0.000278 0.053158 -0.004899 0.000000 0.000000 0.000000
# 3 0.002170 -0.004899 0.016140 0.000000 0.000000 0.000000
# 4 0.000000 0.000000 0.000000 0.033011 0.000000 0.000000
# 5 0.000000 0.000000 0.000000 0.000000 -1.529429 0.000000
# 6 0.000000 0.000000 0.000000 0.000000 0.000000 0.031381
#
#
# Mechanical properties :
#
#
# Convention : Reuss Voigt Hill
#
# Bulk Modulus (GPa) = 13.01850 16.68843 14.85347
# Shear Modulus (GPa) = -3.70209 23.30114 9.79953
#
# Velocity S-wave (km/s) = -1.38932 3.48553 2.26039
# Velocity P-wave (km/s) = 2.05282 4.98996 3.81535
#
# Compressibility (1/GPa) = 0.07681375
#
# Stress axis : x y z
#
# Youngs Moduli (GPa) = 73.90756 18.81176 61.95913
#
# Poissons Ratio (x) = 0.00524 -0.13448
# Poissons Ratio (y) = 0.02057 0.30356
# Poissons Ratio (z) = -0.16041 0.09217
#
# Static dielectric constant tensor:
#      x y z
#    x 1.665400 0.000000 0.000000 
#    y 0.000000 1.641590 0.000000 
#    z 0.000000 0.000000 1.634000 
# 
# From -- ./inp_files/11072.got.cif
#   From: 2010.05.17/outbox.cif.g08.bks.cpg/sg61_6_cif.got.tgz:11072.got - 2010.06.03 15:17:17.
