data_PCOD9459258
_publ_section_title
;
Structure prediction by ZEFSAII (Michael W. Deem and Ramdas Pophale) SiO2 
 PCOD9459258
Probable space group: P B C A
;
_chemical_formula_sum "Si O2"
_cell_formula_units_Z 64
_cell_length_a 13.561115
_cell_length_b 21.494847
_cell_length_c 8.907369
_cell_angle_alpha 90.000000
_cell_angle_beta 90.000000
_cell_angle_gamma 90.000000
_cell_volume 2596.445439
_symmetry_space_group_name_H-M "P B C A"
_symmetry_group_IT_number 61
_symmetry_cell_setting 'orthorhombic'
loop_
_space_group_symop_operation_xyz
x,y,z
1/2-x,-y,1/2+z
1/2+x,1/2-y,-z
-x,1/2+y,1/2-z
-x,-y,-z
1/2+x,y,1/2-z
1/2-x,1/2+y,z
x,1/2-y,1/2+z
loop_
_atom_site_type_symbol
_atom_site_label
_atom_site_fract_x
_atom_site_fract_y
_atom_site_fract_z
Si Si1 0.566970 0.398360 0.309864
Si Si2 0.635793 0.612802 0.549101
Si Si3 0.242424 0.832140 0.048925
Si Si4 0.647632 0.331920 0.043527
Si Si5 0.037778 0.545156 0.212281
Si Si6 0.809351 0.775984 0.748164
Si Si7 0.674196 0.482192 0.709396
Si Si8 0.353337 0.448964 0.991620
O O1 0.465868 0.367741 0.369116
O O2 0.659519 0.368701 0.396546
O O3 0.590453 0.384872 0.134719
O O4 0.561219 0.473018 0.331155
O O5 0.734215 0.653802 0.553600
O O6 0.602824 0.593012 0.381926
O O7 0.664612 0.548715 0.630013
O O8 0.249453 0.814139 0.874806
O O9 0.156250 0.881892 0.069472
O O10 0.242687 0.770082 0.149175
O O11 0.626933 0.270063 0.142593
O O12 0.631306 0.317243 0.868807
O O13 0.050807 0.547292 0.390541
O O14 0.923945 0.555713 0.173847
O O15 0.769812 0.453009 0.637401
O O16 0.671562 0.498912 0.885460
#
# Coordination Sequence:
#
# PCOD9459258 Si02
#       8
#     8   8   8   8   8   8   8   8
#     4  10  21  37  58  85 120 158 194 238 298 362
#     4  11  21  38  61  85 121 164 196 240 303 360
#     4  10  19  36  59  82 110 149 195 242 297 352
#     4  10  20  39  61  84 115 154 200 249 304 357
#     4  11  23  38  58  91 128 160 199 245 292 362
#     4   9  20  37  60  84 110 146 197 259 300 339
#     4  11  23  38  58  90 128 159 198 244 289 363
#     4  12  22  37  62  89 121 166 201 237 301 365
#
# _framework density 24.649082
#
# number of rings (size 3 to 8) (size 9 to 14) (size 15 to 20)
#    0.000    1.500    0.000    7.875    0.000    1.000 
#    0.000    7.500    0.000    4.500    0.000    0.000 
#    0.000    0.000    0.000    0.000    0.000    0.000 
#
# Total GULP energy -358030.120472 kJ/mol
# GULP energy per Si atom -5594.220632 kJ/mol
# Density = 2.459298 g / cm^3
# Si number density = 24.649082 Si / 1000 Ang^3
#
#
#
# Elastic Constant Matrix: (Units=GPa)
#
#
# Indices 1 2 3 4 5 6 
#
# 1 69.4271 13.4290 29.4590 0.0000 0.0000 0.0000
# 2 13.4290 53.3995 29.0595 0.0000 0.0000 0.0000
# 3 29.4590 29.0595 175.3520 0.0000 0.0000 0.0000
# 4 0.0000 0.0000 0.0000 55.1817 0.0000 0.0000
# 5 0.0000 0.0000 0.0000 0.0000 37.8977 0.0000
# 6 0.0000 0.0000 0.0000 0.0000 0.0000 11.1104
#
#
#
# Elastic Compliance Matrix: (Units=1/GPa)
#
#
# Indices 1 2 3 4 5 6 
#
# 1 0.015879 -0.002794 -0.002205 0.000000 0.000000 0.000000
# 2 -0.002794 0.021074 -0.003023 0.000000 0.000000 0.000000
# 3 -0.002205 -0.003023 0.006574 0.000000 0.000000 0.000000
# 4 0.000000 0.000000 0.000000 0.018122 0.000000 0.000000
# 5 0.000000 0.000000 0.000000 0.000000 0.026387 0.000000
# 6 0.000000 0.000000 0.000000 0.000000 0.000000 0.090006
#
#
# Mechanical properties :
#
#
# Convention : Reuss Voigt Hill
#
# Bulk Modulus (GPa) = 36.38334 49.11928 42.75131
# Shear Modulus (GPa) = 24.60056 35.92003 30.26030
#
# Velocity S-wave (km/s) = 3.16259 3.82154 3.50758
# Velocity P-wave (km/s) = 5.30363 6.28036 5.81255
#
# Compressibility (1/GPa) = 0.02748511
#
# Stress axis : x y z
#
# Youngs Moduli (GPa) = 62.97439 47.45080 152.10941
#
# Poissons Ratio (x) = 0.13256 0.33537
# Poissons Ratio (y) = 0.17592 0.45985
# Poissons Ratio (z) = 0.13884 0.14345
#
# Static dielectric constant tensor:
#      x y z
#    x 1.949070 0.000000 0.000000 
#    y 0.000000 1.975240 0.000000 
#    z 0.000000 0.000000 2.042200 
# 
# From -- ./inp_files/3211.got.cif
#   From: 2010.05.17/outbox.cif.g08.bks.cpg/sg61_2_cif.got.tgz:3211.got - 2010.06.03 15:17:17.
