data_PCOD9459501
_publ_section_title
;
Structure prediction by ZEFSAII (Michael W. Deem and Ramdas Pophale) SiO2 
 PCOD9459501
Probable space group: P B C A
;
_chemical_formula_sum "Si O2"
_cell_formula_units_Z 52
_cell_length_a 22.230302
_cell_length_b 13.864764
_cell_length_c 8.278911
_cell_angle_alpha 90.000000
_cell_angle_beta 90.000000
_cell_angle_gamma 90.000000
_cell_volume 2551.708487
_symmetry_space_group_name_H-M "P B C A"
_symmetry_group_IT_number 61
_symmetry_cell_setting 'orthorhombic'
loop_
_space_group_symop_operation_xyz
x,y,z
1/2-x,-y,1/2+z
1/2+x,1/2-y,-z
-x,1/2+y,1/2-z
-x,-y,-z
1/2+x,y,1/2-z
1/2-x,1/2+y,z
x,1/2-y,1/2+z
loop_
_atom_site_type_symbol
_atom_site_label
_atom_site_fract_x
_atom_site_fract_y
_atom_site_fract_z
Si Si1 0.365468 0.705095 0.028175
Si Si2 0.500000 0.000000 0.000000
Si Si3 0.811217 0.391784 0.392319
Si Si4 0.098377 0.104589 0.711044
Si Si5 0.196778 0.981670 0.574037
Si Si6 0.884096 0.533868 0.227260
Si Si7 0.275005 0.287204 0.437345
O O1 0.387664 0.809040 0.085526
O O2 0.372399 0.632327 0.178291
O O3 0.296333 0.716902 0.970627
O O4 0.403034 0.656712 0.883551
O O5 0.540811 0.048148 0.852833
O O6 0.445724 0.973678 0.870122
O O7 0.763399 0.477026 0.416782
O O8 0.873490 0.443828 0.349777
O O9 0.806195 0.315512 0.535943
O O10 0.787967 0.329894 0.238765
O O11 0.154667 0.029844 0.708821
O O12 0.167628 0.018166 0.406744
O O13 0.198204 0.866848 0.560852
#
# Coordination Sequence:
#
# PCOD9459501 Si02
#       7
#     8   4   8   8   8   8   8
#     4  12  21  38  67 101 117 168 221 269 324 406
#     4  10  24  48  62  84 130 174 232 284 318 380
#     4  11  22  36  57  94 133 169 206 268 332 398
#     4  11  23  40  66  96 128 166 224 271 326 387
#     4  10  20  37  58  92 133 170 204 271 328 393
#     4  10  24  41  65  91 131 173 223 274 333 396
#     4  11  22  33  58  95 137 162 209 259 334 412
#
# _framework density 20.378502000000001
#
# number of rings (size 3 to 8) (size 9 to 14) (size 15 to 20)
#    0.000    1.231    4.615    1.846    2.154    1.846 
#    0.000    9.231    0.000    0.000    0.000    0.000 
#    0.000    0.000    0.000    0.000    0.000    0.000 
#
# Total GULP energy -289524.205211 kJ/mol
# GULP energy per Si atom -5567.773177 kJ/mol
# Density = 2.033212 g / cm^3
# Si number density = 20.378502 Si / 1000 Ang^3
#
#
#
# Elastic Constant Matrix: (Units=GPa)
#
#
# Indices 1 2 3 4 5 6 
#
# 1 63.2034 29.9705 19.6700 0.0000 0.0000 0.0000
# 2 29.9705 59.3705 -0.5042 0.0000 0.0000 0.0000
# 3 19.6700 -0.5042 42.7228 0.0000 0.0000 0.0000
# 4 0.0000 0.0000 0.0000 29.7138 0.0000 0.0000
# 5 0.0000 0.0000 0.0000 0.0000 20.1200 0.0000
# 6 0.0000 0.0000 0.0000 0.0000 0.0000 18.7968
#
#
#
# Elastic Compliance Matrix: (Units=1/GPa)
#
#
# Indices 1 2 3 4 5 6 
#
# 1 0.025786 -0.013119 -0.012027 0.000000 0.000000 0.000000
# 2 -0.013119 0.023520 0.006318 0.000000 0.000000 0.000000
# 3 -0.012027 0.006318 0.029019 0.000000 0.000000 0.000000
# 4 0.000000 0.000000 0.000000 0.033654 0.000000 0.000000
# 5 0.000000 0.000000 0.000000 0.000000 0.049702 0.000000
# 6 0.000000 0.000000 0.000000 0.000000 0.000000 0.053200
#
#
# Mechanical properties :
#
#
# Convention : Reuss Voigt Hill
#
# Bulk Modulus (GPa) = 24.58960 29.28548 26.93754
# Shear Modulus (GPa) = 18.79045 21.47015 20.13030
#
# Velocity S-wave (km/s) = 3.03986 3.24939 3.14637
# Velocity P-wave (km/s) = 4.94101 5.33667 5.14265
#
# Compressibility (1/GPa) = 0.04066761
#
# Stress axis : x y z
#
# Youngs Moduli (GPa) = 38.78108 42.51790 34.46071
#
# Poissons Ratio (x) = 0.55779 0.41445
# Poissons Ratio (y) = 0.50877 -0.21771
# Poissons Ratio (z) = 0.46641 -0.26861
#
# Static dielectric constant tensor:
#      x y z
#    x 1.678750 0.000000 0.000000 
#    y 0.000000 1.744760 0.000000 
#    z 0.000000 0.000000 1.801930 
# 
# From -- ./inp_files/3894.got.cif
#   From: 2010.05.17/outbox.cif.g08.bks.cpg/sg61_2_cif.got.tgz:3894.got - 2010.06.03 15:17:17.
