data_PCOD9459664
_publ_section_title
;
Structure prediction by ZEFSAII (Michael W. Deem and Ramdas Pophale) SiO2 
 PCOD9459664
Probable space group: P B C A
;
_chemical_formula_sum "Si O2"
_cell_formula_units_Z 64
_cell_length_a 13.934680
_cell_length_b 23.095842
_cell_length_c 10.251622
_cell_angle_alpha 90.000000
_cell_angle_beta 90.000000
_cell_angle_gamma 90.000000
_cell_volume 3299.311981
_symmetry_space_group_name_H-M "P B C A"
_symmetry_group_IT_number 61
_symmetry_cell_setting 'orthorhombic'
loop_
_space_group_symop_operation_xyz
x,y,z
1/2-x,-y,1/2+z
1/2+x,1/2-y,-z
-x,1/2+y,1/2-z
-x,-y,-z
1/2+x,y,1/2-z
1/2-x,1/2+y,z
x,1/2-y,1/2+z
loop_
_atom_site_type_symbol
_atom_site_label
_atom_site_fract_x
_atom_site_fract_y
_atom_site_fract_z
Si Si1 0.361272 0.996568 0.600903
Si Si2 0.718616 0.291747 0.912065
Si Si3 0.203545 0.304210 0.293405
Si Si4 0.849620 0.099829 0.696322
Si Si5 0.524088 0.706200 0.795060
Si Si6 0.178264 0.912958 0.599889
Si Si7 0.012287 0.697595 0.411090
Si Si8 0.063430 0.933122 0.859627
O O1 0.352137 0.043604 0.715099
O O2 0.374690 0.030539 0.464113
O O3 0.269890 0.955123 0.595645
O O4 0.457247 0.960023 0.630141
O O5 0.740242 0.237051 0.821398
O O6 0.780898 0.348016 0.876724
O O7 0.604298 0.305915 0.898283
O O8 0.731631 0.278837 0.065261
O O9 0.246878 0.368263 0.292262
O O10 0.089376 0.306073 0.282493
O O11 0.921161 0.148639 0.751482
O O12 0.868224 0.087413 0.544163
O O13 0.547217 0.759178 0.700279
O O14 0.538513 0.721312 0.946245
O O15 0.108511 0.933062 0.715528
O O16 0.055142 0.633802 0.400508
#
# Coordination Sequence:
#
# PCOD9459664 Si02
#       8
#     8   8   8   8   8   8   8   8
#     4  11  24  46  65  90 125 171 219 259 311 378
#     4   9  19  39  60  90 127 159 204 253 311 373
#     4   9  21  37  60  89 126 165 194 259 312 374
#     4  11  24  40  65  93 126 166 207 262 322 371
#     4  10  22  38  63  94 128 160 208 257 311 385
#     4  11  24  41  64  95 126 163 214 270 307 377
#     4  10  20  40  63  93 126 168 204 254 317 373
#     4  11  24  41  70  90 124 174 212 261 314 380
#
# _framework density 19.397984999999998
#
# number of rings (size 3 to 8) (size 9 to 14) (size 15 to 20)
#    0.000    1.750    2.500    0.750    3.500    3.500 
#    0.000    1.250    0.000    0.000    0.000    0.000 
#    0.000    0.000    0.000    0.000    0.000    0.000 
#
# Total GULP energy -357706.628025 kJ/mol
# GULP energy per Si atom -5589.166063 kJ/mol
# Density = 1.935383 g / cm^3
# Si number density = 19.397985 Si / 1000 Ang^3
#
#
#
# Elastic Constant Matrix: (Units=GPa)
#
#
# Indices 1 2 3 4 5 6 
#
# 1 43.3930 11.4552 32.1765 0.0000 0.0000 0.0000
# 2 11.4552 72.8901 53.4677 0.0000 0.0000 0.0000
# 3 32.1765 53.4677 126.4524 0.0000 0.0000 0.0000
# 4 0.0000 0.0000 0.0000 36.3660 0.0000 0.0000
# 5 0.0000 0.0000 0.0000 0.0000 26.2148 0.0000
# 6 0.0000 0.0000 0.0000 0.0000 0.0000 19.2404
#
#
#
# Elastic Compliance Matrix: (Units=1/GPa)
#
#
# Indices 1 2 3 4 5 6 
#
# 1 0.028479 0.001218 -0.007762 0.000000 0.000000 0.000000
# 2 0.001218 0.019940 -0.008741 0.000000 0.000000 0.000000
# 3 -0.007762 -0.008741 0.013579 0.000000 0.000000 0.000000
# 4 0.000000 0.000000 0.000000 0.027498 0.000000 0.000000
# 5 0.000000 0.000000 0.000000 0.000000 0.038146 0.000000
# 6 0.000000 0.000000 0.000000 0.000000 0.000000 0.051974
#
#
# Mechanical properties :
#
#
# Convention : Reuss Voigt Hill
#
# Bulk Modulus (GPa) = 31.81859 48.54827 40.18343
# Shear Modulus (GPa) = 22.65910 26.07331 24.36621
#
# Velocity S-wave (km/s) = 3.42148 3.67021 3.54802
# Velocity P-wave (km/s) = 5.66104 6.56067 6.12739
#
# Compressibility (1/GPa) = 0.03142817
#
# Stress axis : x y z
#
# Youngs Moduli (GPa) = 35.11361 50.15110 73.64316
#
# Poissons Ratio (x) = -0.06107 0.57158
# Poissons Ratio (y) = -0.04276 0.64371
# Poissons Ratio (z) = 0.27253 0.43837
#
# Static dielectric constant tensor:
#      x y z
#    x 1.700190 0.000000 0.000000 
#    y 0.000000 1.630390 0.000000 
#    z 0.000000 0.000000 1.667270 
# 
# From -- ./inp_files/3195.got.cif
#   From: 2010.05.17/outbox.cif.g08.bks.cpg/sg61_2_cif.got.tgz:3195.got - 2010.06.03 15:17:17.
