data_PCOD9459044
_publ_section_title
;
Structure prediction by ZEFSAII (Michael W. Deem and Ramdas Pophale) SiO2 
 PCOD9459044
Probable space group: P B C A
;
_chemical_formula_sum "Si O2"
_cell_formula_units_Z 64
_cell_length_a 23.719732
_cell_length_b 8.199088
_cell_length_c 13.733577
_cell_angle_alpha 90.000000
_cell_angle_beta 90.000000
_cell_angle_gamma 90.000000
_cell_volume 2670.908390
_symmetry_space_group_name_H-M "P B C A"
_symmetry_group_IT_number 61
_symmetry_cell_setting 'orthorhombic'
loop_
_space_group_symop_operation_xyz
x,y,z
1/2-x,-y,1/2+z
1/2+x,1/2-y,-z
-x,1/2+y,1/2-z
-x,-y,-z
1/2+x,y,1/2-z
1/2-x,1/2+y,z
x,1/2-y,1/2+z
loop_
_atom_site_type_symbol
_atom_site_label
_atom_site_fract_x
_atom_site_fract_y
_atom_site_fract_z
Si Si1 0.372885 0.793779 0.966444
Si Si2 0.412401 0.963738 0.147413
Si Si3 0.344550 0.129039 0.874744
Si Si4 0.762914 0.211002 0.269164
Si Si5 0.845561 0.214357 0.927473
Si Si6 0.072564 0.553016 0.701804
Si Si7 0.669508 0.395127 0.197542
Si Si8 0.017675 0.329466 0.835392
O O1 0.338169 0.647719 0.916010
O O2 0.341088 0.958519 0.930996
O O3 0.433511 0.802034 0.913030
O O4 0.388010 0.823125 0.078042
O O5 0.391475 0.933094 0.256666
O O6 0.477360 0.015632 0.138210
O O7 0.379958 0.128203 0.112419
O O8 0.291852 0.167090 0.807927
O O9 0.396928 0.120259 0.800299
O O10 0.347385 0.267525 0.957246
O O11 0.784580 0.265280 0.376014
O O12 0.697151 0.235483 0.249442
O O13 0.792042 0.042540 0.237377
O O14 0.880013 0.064245 0.881653
O O15 0.046319 0.381635 0.733401
O O16 0.022419 0.674447 0.673256
#
# Coordination Sequence:
#
# PCOD9459044 Si02
#       8
#     8   8   8   8   8   8   8   8
#     4  10  20  35  57  82 108 145 189 232 278 337
#     4   9  19  35  55  80 110 145 186 228 278 336
#     4   9  18  36  57  77 104 143 188 228 274 332
#     4  10  21  37  57  79 110 146 180 229 283 331
#     4   8  17  35  56  75 103 144 185 224 274 332
#     4   9  18  31  51  78 108 144 185 230 279 332
#     4  11  22  38  57  83 114 146 187 234 281 338
#     4  10  18  33  55  80 114 149 184 231 284 334
#
# _framework density 23.961884999999999
#
# number of rings (size 3 to 8) (size 9 to 14) (size 15 to 20)
#    0.000    2.500    0.000    2.625    0.000    2.000 
#    0.000    9.375    0.000    0.000    0.000    0.000 
#    0.000    0.000    0.000    0.000    0.000    0.000 
#
# Total GULP energy -357316.609308 kJ/mol
# GULP energy per Si atom -5583.072020 kJ/mol
# Density = 2.390735 g / cm^3
# Si number density = 23.961885 Si / 1000 Ang^3
#
#
#
# Elastic Constant Matrix: (Units=GPa)
#
#
# Indices 1 2 3 4 5 6 
#
# 1 50.3640 4.2640 -10.1267 0.0000 0.0000 0.0000
# 2 4.2640 66.8099 -9.8797 0.0000 0.0000 0.0000
# 3 -10.1267 -9.8797 40.7954 0.0000 0.0000 0.0000
# 4 0.0000 0.0000 0.0000 25.8026 0.0000 0.0000
# 5 0.0000 0.0000 0.0000 0.0000 12.7892 0.0000
# 6 0.0000 0.0000 0.0000 0.0000 0.0000 31.2692
#
#
#
# Elastic Compliance Matrix: (Units=1/GPa)
#
#
# Indices 1 2 3 4 5 6 
#
# 1 0.020921 -0.000588 0.005051 0.000000 0.000000 0.000000
# 2 -0.000588 0.015540 0.003617 0.000000 0.000000 0.000000
# 3 0.005051 0.003617 0.026642 0.000000 0.000000 0.000000
# 4 0.000000 0.000000 0.000000 0.038756 0.000000 0.000000
# 5 0.000000 0.000000 0.000000 0.000000 0.078191 0.000000
# 6 0.000000 0.000000 0.000000 0.000000 0.000000 0.031980
#
#
# Mechanical properties :
#
#
# Convention : Reuss Voigt Hill
#
# Bulk Modulus (GPa) = 12.61619 14.05384 13.33502
# Shear Modulus (GPa) = 22.49291 25.55297 24.02294
#
# Velocity S-wave (km/s) = 3.06714 3.26912 3.16974
# Velocity P-wave (km/s) = 4.22133 4.48635 4.35586
#
# Compressibility (1/GPa) = 0.07926321
#
# Stress axis : x y z
#
# Youngs Moduli (GPa) = 47.79925 64.34869 37.53419
#
# Poissons Ratio (x) = 0.03786 -0.18957
# Poissons Ratio (y) = 0.02812 -0.13578
# Poissons Ratio (z) = -0.24142 -0.23278
#
# Static dielectric constant tensor:
#      x y z
#    x 1.964580 0.000000 0.000000 
#    y 0.000000 2.047130 0.000000 
#    z 0.000000 0.000000 1.895980 
# 
# From -- ./inp_files/8500.got.cif
#   From: 2010.05.17/outbox.cif.g08.bks.cpg/sg61_5_cif.got.tgz:8500.got - 2010.06.03 15:17:17.
