data_PCOD9459238
_publ_section_title
;
Structure prediction by ZEFSAII (Michael W. Deem and Ramdas Pophale) SiO2 
 PCOD9459238
Probable space group: P B C A
;
_chemical_formula_sum "Si O2"
_cell_formula_units_Z 64
_cell_length_a 29.481074
_cell_length_b 5.528563
_cell_length_c 17.344079
_cell_angle_alpha 90.000000
_cell_angle_beta 90.000000
_cell_angle_gamma 90.000000
_cell_volume 2826.876313
_symmetry_space_group_name_H-M "P B C A"
_symmetry_group_IT_number 61
_symmetry_cell_setting 'orthorhombic'
loop_
_space_group_symop_operation_xyz
x,y,z
1/2-x,-y,1/2+z
1/2+x,1/2-y,-z
-x,1/2+y,1/2-z
-x,-y,-z
1/2+x,y,1/2-z
1/2-x,1/2+y,z
x,1/2-y,1/2+z
loop_
_atom_site_type_symbol
_atom_site_label
_atom_site_fract_x
_atom_site_fract_y
_atom_site_fract_z
Si Si1 0.467980 0.800189 0.632607
Si Si2 0.607628 0.004493 0.791022
Si Si3 0.365663 0.224647 0.057660
Si Si4 0.547458 0.872426 0.227035
Si Si5 0.373414 0.700136 0.341000
Si Si6 0.738890 0.795294 0.432611
Si Si7 0.088797 0.280289 0.501112
Si Si8 0.726430 0.146653 0.104154
O O1 0.418526 0.698385 0.656956
O O2 0.470735 0.030108 0.690206
O O3 0.508957 0.634158 0.662134
O O4 0.461141 0.798408 0.540583
O O5 0.629032 0.818963 0.850593
O O6 0.566648 0.890888 0.742986
O O7 0.639790 0.117418 0.727721
O O8 0.312718 0.255758 0.042240
O O9 0.387861 0.477537 0.034636
O O10 0.388529 0.986171 0.018407
O O11 0.591684 0.014956 0.198238
O O12 0.403295 0.810871 0.410121
O O13 0.326018 0.608804 0.374682
O O14 0.755680 0.552772 0.390821
O O15 0.767983 0.826608 0.511125
O O16 0.745666 0.408930 0.130662
#
# Coordination Sequence:
#
# PCOD9459238 Si02
#       8
#     8   8   8   8   8   8   8   8
#     4  10  21  40  69  94 128 185 235 269 334 410
#     4  10  23  41  66  94 134 180 222 283 335 410
#     4  11  22  42  68  96 129 175 235 271 328 401
#     4  11  21  41  66  96 135 182 229 280 343 418
#     4  11  26  40  65 104 137 178 223 289 359 404
#     4  10  19  35  61  92 121 165 219 277 322 389
#     4  11  23  40  67 101 134 175 225 283 329 408
#     4  10  21  39  63  89 128 177 218 265 338 413
#
# _framework density 22.63983
#
# number of rings (size 3 to 8) (size 9 to 14) (size 15 to 20)
#    0.000    1.500    2.500    3.750    3.500    0.500 
#    0.000    1.875    0.000    0.000    0.000    0.000 
#    0.000    0.000    0.000    0.000    0.000    0.000 
#
# Total GULP energy -356637.535168 kJ/mol
# GULP energy per Si atom -5572.461487 kJ/mol
# Density = 2.258830 g / cm^3
# Si number density = 22.639830 Si / 1000 Ang^3
#
#
#
# Elastic Constant Matrix: (Units=GPa)
#
#
# Indices 1 2 3 4 5 6 
#
# 1 51.7259 11.0209 7.9534 0.0000 0.0000 0.0000
# 2 11.0209 130.8260 9.6431 0.0000 0.0000 0.0000
# 3 7.9534 9.6431 56.8039 0.0000 0.0000 0.0000
# 4 0.0000 0.0000 0.0000 -0.7884 0.0000 0.0000
# 5 0.0000 0.0000 0.0000 0.0000 17.9211 0.0000
# 6 0.0000 0.0000 0.0000 0.0000 0.0000 23.2688
#
#
#
# Elastic Compliance Matrix: (Units=1/GPa)
#
#
# Indices 1 2 3 4 5 6 
#
# 1 0.020045 -0.001500 -0.002552 0.000000 0.000000 0.000000
# 2 -0.001500 0.007853 -0.001123 0.000000 0.000000 0.000000
# 3 -0.002552 -0.001123 0.018152 0.000000 0.000000 0.000000
# 4 0.000000 0.000000 0.000000 -1.268441 0.000000 0.000000
# 5 0.000000 0.000000 0.000000 0.000000 0.055800 0.000000
# 6 0.000000 0.000000 0.000000 0.000000 0.000000 0.042976
#
#
# Mechanical properties :
#
#
# Convention : Reuss Voigt Hill
#
# Bulk Modulus (GPa) = 28.01175 32.95451 30.48313
# Shear Modulus (GPa) = -4.53982 22.12954 8.79486
#
# Velocity S-wave (km/s) = -1.41760 3.12983 1.97310
# Velocity P-wave (km/s) = 3.11772 5.25820 4.32255
#
# Compressibility (1/GPa) = 0.03569931
#
# Stress axis : x y z
#
# Youngs Moduli (GPa) = 49.88834 127.34117 55.08927
#
# Poissons Ratio (x) = 0.19107 0.14058
# Poissons Ratio (y) = 0.07486 0.06187
# Poissons Ratio (z) = 0.12731 0.14301
#
# Static dielectric constant tensor:
#      x y z
#    x 1.839550 0.000000 0.000000 
#    y 0.000000 1.937450 0.000000 
#    z 0.000000 0.000000 1.916280 
# 
# From -- ./inp_files/9921.got.cif
#   From: 2010.05.17/outbox.cif.g08.bks.cpg/sg61_5_cif.got.tgz:9921.got - 2010.06.03 15:17:17.
