data_PCOD9459634
_publ_section_title
;
Structure prediction by ZEFSAII (Michael W. Deem and Ramdas Pophale) SiO2 
 PCOD9459634
Probable space group: P B C A
;
_chemical_formula_sum "Si O2"
_cell_formula_units_Z 56
_cell_length_a 13.747052
_cell_length_b 10.406744
_cell_length_c 18.941685
_cell_angle_alpha 90.000000
_cell_angle_beta 90.000000
_cell_angle_gamma 90.000000
_cell_volume 2709.836304
_symmetry_space_group_name_H-M "P B C A"
_symmetry_group_IT_number 61
_symmetry_cell_setting 'orthorhombic'
loop_
_space_group_symop_operation_xyz
x,y,z
1/2-x,-y,1/2+z
1/2+x,1/2-y,-z
-x,1/2+y,1/2-z
-x,-y,-z
1/2+x,y,1/2-z
1/2-x,1/2+y,z
x,1/2-y,1/2+z
loop_
_atom_site_type_symbol
_atom_site_label
_atom_site_fract_x
_atom_site_fract_y
_atom_site_fract_z
Si Si1 0.902422 0.852718 0.825506
Si Si2 0.402422 0.352717 0.174494
Si Si3 0.614756 0.147753 0.487548
Si Si4 0.871310 0.860256 0.212294
Si Si5 0.628690 0.639744 0.212294
Si Si6 0.750000 0.750000 0.594900
Si Si7 0.885244 0.147753 0.987548
O O1 0.868575 0.825943 0.905003
O O2 0.862933 0.752531 0.768943
O O3 0.020804 0.845506 0.822032
O O4 0.876683 0.000000 0.807535
O O5 0.520804 0.345506 0.177968
O O6 0.362933 0.252530 0.231057
O O7 0.368575 0.325942 0.094997
O O8 0.661880 0.252816 0.539071
O O9 0.500000 0.145842 0.500000
O O10 0.650039 1.000000 0.502520
O O11 0.791229 0.852712 0.150808
O O12 0.868345 1.000000 0.246967
O O13 0.708771 0.647288 0.150808
O O14 0.661880 0.747184 0.539072
#
# Coordination Sequence:
#
# PCOD9459634 Si02
#       7
#     8   8   8   8   8   8   8
#     4   9  19  39  66  90 119 167 216 262 319 385
#     4   9  19  39  66  90 119 167 216 262 319 385
#     4  10  20  39  64  90 125 170 217 266 324 387
#     4  10  21  38  61  91 127 165 211 266 322 382
#     4  10  21  38  61  91 127 165 211 266 322 382
#     4  12  22  34  62  96 126 166 218 262 318 388
#     4  10  20  39  64  90 125 170 217 266 324 387
#
# _framework density 20.665455999999999
#
# number of rings (size 3 to 8) (size 9 to 14) (size 15 to 20)
#    0.000    2.000    2.857    0.857    0.000    3.429 
#    0.000    5.714    0.000    4.286    0.000    0.000 
#    0.000    0.000    0.000    0.000    0.000    0.000 
#
# Total GULP energy -311993.165935 kJ/mol
# GULP energy per Si atom -5571.306535 kJ/mol
# Density = 2.061842 g / cm^3
# Si number density = 20.665456 Si / 1000 Ang^3
#
#
#
# Elastic Constant Matrix: (Units=GPa)
#
#
# Indices 1 2 3 4 5 6 
#
# 1 70.3273 34.6464 28.1213 0.0000 0.0000 0.0000
# 2 34.6464 108.3889 86.2352 0.0000 0.0000 0.0000
# 3 28.1213 86.2352 147.6539 0.0000 0.0000 0.0000
# 4 0.0000 0.0000 0.0000 5.5051 0.0000 0.0000
# 5 0.0000 0.0000 0.0000 0.0000 37.9563 0.0000
# 6 0.0000 0.0000 0.0000 0.0000 0.0000 12.7141
#
#
#
# Elastic Compliance Matrix: (Units=1/GPa)
#
#
# Indices 1 2 3 4 5 6 
#
# 1 0.016878 -0.005301 -0.000119 0.000000 0.000000 0.000000
# 2 -0.005301 0.018899 -0.010028 0.000000 0.000000 0.000000
# 3 -0.000119 -0.010028 0.012652 0.000000 0.000000 0.000000
# 4 0.000000 0.000000 0.000000 0.181650 0.000000 0.000000
# 5 0.000000 0.000000 0.000000 0.000000 0.026346 0.000000
# 6 0.000000 0.000000 0.000000 0.000000 0.000000 0.078653
#
#
# Mechanical properties :
#
#
# Convention : Reuss Voigt Hill
#
# Bulk Modulus (GPa) = 57.03208 69.37511 63.20359
# Shear Modulus (GPa) = 13.44745 23.05957 18.25351
#
# Velocity S-wave (km/s) = 2.55369 3.34406 2.97524
# Velocity P-wave (km/s) = 6.02933 6.96805 6.51562
#
# Compressibility (1/GPa) = 0.01753399
#
# Stress axis : x y z
#
# Youngs Moduli (GPa) = 59.24868 52.91351 79.03909
#
# Poissons Ratio (x) = 0.28047 0.00939
# Poissons Ratio (y) = 0.31405 0.79261
# Poissons Ratio (z) = 0.00704 0.53062
#
# Static dielectric constant tensor:
#      x y z
#    x 1.787200 0.000000 0.000000 
#    y 0.000000 1.734780 0.000000 
#    z 0.000000 0.000000 1.729860 
# 
# From -- ./inp_files/10463.got.cif
#   From: 2010.05.17/outbox.cif.g08.bks.cpg/sg61_6_cif.got.tgz:10463.got - 2010.06.03 15:17:17.
