data_PCOD9459588
_publ_section_title
;
Structure prediction by ZEFSAII (Michael W. Deem and Ramdas Pophale) SiO2 
 PCOD9459588
Probable space group: P B C A
;
_chemical_formula_sum "Si O2"
_cell_formula_units_Z 48
_cell_length_a 16.028699
_cell_length_b 14.191698
_cell_length_c 8.434715
_cell_angle_alpha 90.000000
_cell_angle_beta 90.000000
_cell_angle_gamma 90.000000
_cell_volume 1918.682202
_symmetry_space_group_name_H-M "P B C A"
_symmetry_group_IT_number 61
_symmetry_cell_setting 'orthorhombic'
loop_
_space_group_symop_operation_xyz
x,y,z
1/2-x,-y,1/2+z
1/2+x,1/2-y,-z
-x,1/2+y,1/2-z
-x,-y,-z
1/2+x,y,1/2-z
1/2-x,1/2+y,z
x,1/2-y,1/2+z
loop_
_atom_site_type_symbol
_atom_site_label
_atom_site_fract_x
_atom_site_fract_y
_atom_site_fract_z
Si Si1 0.864453 0.510985 0.699920
Si Si2 0.620636 0.029828 0.325374
Si Si3 0.029617 0.645314 0.209371
Si Si4 0.708419 0.870894 0.201949
Si Si5 0.045247 0.321142 0.131951
Si Si6 0.781816 0.795973 0.875834
O O1 0.863784 0.504597 0.509304
O O2 0.884083 0.409617 0.773683
O O3 0.778117 0.554502 0.761104
O O4 0.928853 0.591694 0.757825
O O5 0.530908 0.077455 0.310989
O O6 0.683047 0.115567 0.275599
O O7 0.628345 0.936493 0.219013
O O8 0.016974 0.748412 0.281671
O O9 0.994846 0.647139 0.032284
O O10 0.716395 0.777471 0.304974
O O11 0.741391 0.837565 0.033209
O O12 0.131931 0.263533 0.094857
#
# Coordination Sequence:
#
# PCOD9459588 Si02
#       6
#     8   8   8   8   8   8
#     4  10  22  40  61  88 119 157 204 248 291 352
#     4  10  21  38  61  87 119 158 199 247 296 354
#     4  11  21  39  63  89 119 157 200 245 297 359
#     4  10  21  38  60  85 114 155 199 243 292 348
#     4  10  20  38  64  88 117 161 201 235 295 369
#     4   9  19  37  58  81 114 156 196 232 287 362
#
# _framework density 25.01717
#
# number of rings (size 3 to 8) (size 9 to 14) (size 15 to 20)
#    0.000    2.000    0.000    6.000    0.000    8.000 
#    0.000    6.667    0.000    0.000    0.000    0.000 
#    0.000    0.000    0.000    0.000    0.000    0.000 
#
# Total GULP energy -268711.615084 kJ/mol
# GULP energy per Si atom -5598.158648 kJ/mol
# Density = 2.496023 g / cm^3
# Si number density = 25.017170 Si / 1000 Ang^3
#
#
#
# Elastic Constant Matrix: (Units=GPa)
#
#
# Indices 1 2 3 4 5 6 
#
# 1 38.1771 14.8802 0.0210 0.0000 0.0000 0.0000
# 2 14.8802 111.9520 24.5680 0.0000 0.0000 0.0000
# 3 0.0210 24.5680 65.1195 0.0000 0.0000 0.0000
# 4 0.0000 0.0000 0.0000 30.3999 0.0000 0.0000
# 5 0.0000 0.0000 0.0000 0.0000 30.0789 0.0000
# 6 0.0000 0.0000 0.0000 0.0000 0.0000 58.1177
#
#
#
# Elastic Compliance Matrix: (Units=1/GPa)
#
#
# Indices 1 2 3 4 5 6 
#
# 1 0.027760 -0.004021 0.001508 0.000000 0.000000 0.000000
# 2 -0.004021 0.010321 -0.003893 0.000000 0.000000 0.000000
# 3 0.001508 -0.003893 0.016824 0.000000 0.000000 0.000000
# 4 0.000000 0.000000 0.000000 0.032895 0.000000 0.000000
# 5 0.000000 0.000000 0.000000 0.000000 0.033246 0.000000
# 6 0.000000 0.000000 0.000000 0.000000 0.000000 0.017206
#
#
# Mechanical properties :
#
#
# Convention : Reuss Voigt Hill
#
# Bulk Modulus (GPa) = 23.75582 32.68742 28.22162
# Shear Modulus (GPa) = 30.28561 35.43794 32.86178
#
# Velocity S-wave (km/s) = 3.48313 3.76778 3.62825
# Velocity P-wave (km/s) = 5.06880 5.65885 5.37193
#
# Compressibility (1/GPa) = 0.04209495
#
# Stress axis : x y z
#
# Youngs Moduli (GPa) = 36.02303 96.88948 59.43721
#
# Poissons Ratio (x) = 0.38956 -0.08963
# Poissons Ratio (y) = 0.14484 0.23136
# Poissons Ratio (z) = -0.05432 0.37715
#
# Static dielectric constant tensor:
#      x y z
#    x 2.116020 0.000000 0.000000 
#    y 0.000000 1.962250 0.000000 
#    z 0.000000 0.000000 1.896360 
# 
# From -- ./inp_files/3412.got.cif
#   From: 2010.05.17/outbox.cif.g08.bks.cpg/sg61_2_cif.got.tgz:3412.got - 2010.06.03 15:17:17.
