data_PCOD9459381
_publ_section_title
;
Structure prediction by ZEFSAII (Michael W. Deem and Ramdas Pophale) SiO2 
 PCOD9459381
Probable space group: P B C A
;
_chemical_formula_sum "Si O2"
_cell_formula_units_Z 64
_cell_length_a 8.201151
_cell_length_b 14.732748
_cell_length_c 19.355122
_cell_angle_alpha 90.000000
_cell_angle_beta 90.000000
_cell_angle_gamma 90.000000
_cell_volume 2338.592119
_symmetry_space_group_name_H-M "P B C A"
_symmetry_group_IT_number 61
_symmetry_cell_setting 'orthorhombic'
loop_
_space_group_symop_operation_xyz
x,y,z
1/2-x,-y,1/2+z
1/2+x,1/2-y,-z
-x,1/2+y,1/2-z
-x,-y,-z
1/2+x,y,1/2-z
1/2-x,1/2+y,z
x,1/2-y,1/2+z
loop_
_atom_site_type_symbol
_atom_site_label
_atom_site_fract_x
_atom_site_fract_y
_atom_site_fract_z
Si Si1 0.254422 0.615907 0.644765
Si Si2 0.551072 0.647183 0.980251
Si Si3 0.548779 0.901228 0.729330
Si Si4 0.240155 0.604317 0.144727
Si Si5 0.755811 0.135716 0.103403
Si Si6 0.754326 0.355933 0.107586
Si Si7 0.950516 0.612181 0.733676
Si Si8 0.548854 0.642024 0.483803
O O1 0.214481 0.644363 0.567189
O O2 0.257035 0.505831 0.644110
O O3 0.407030 0.648531 0.690504
O O4 0.097127 0.650866 0.688452
O O5 0.404337 0.609099 0.935172
O O6 0.511887 0.752090 0.992083
O O7 0.596283 0.605139 0.053328
O O8 0.595571 0.862815 0.803813
O O9 0.403262 0.862418 0.683107
O O10 0.708322 0.897062 0.680154
O O11 0.511341 0.006359 0.741388
O O12 0.205029 0.634979 0.067260
O O13 0.755064 0.245808 0.106152
O O14 0.595540 0.102492 0.063073
O O15 0.712410 0.382027 0.185776
O O16 0.903558 0.390978 0.060303
#
# Coordination Sequence:
#
# PCOD9459381 Si02
#       8
#     8   8   8   8   8   8   8   8
#     4   9  19  35  54  75 100 132 169 209 252 298
#     4   9  19  36  54  74 102 135 171 209 251 299
#     4  10  20  35  54  75 102 134 168 208 252 300
#     4  10  20  35  54  75 102 134 168 208 252 300
#     4  10  20  34  53  77 104 134 169 209 252 300
#     4   9  19  36  54  74 102 135 171 209 251 299
#     4   9  19  35  54  75 100 132 169 209 252 298
#     4  10  20  34  53  77 104 134 169 209 252 300
#
# _framework density 27.366893000000001
#
# number of rings (size 3 to 8) (size 9 to 14) (size 15 to 20)
#    0.000    2.500    0.000    1.500    0.000    5.000 
#    0.000    7.500    0.000    0.000    0.000    0.000 
#    0.000    0.000    0.000    0.000    0.000    0.000 
#
# Total GULP energy -358079.953563 kJ/mol
# GULP energy per Si atom -5594.999274 kJ/mol
# Density = 2.730460 g / cm^3
# Si number density = 27.366893 Si / 1000 Ang^3
#
#
#
# Elastic Constant Matrix: (Units=GPa)
#
#
# Indices 1 2 3 4 5 6 
#
# 1 66.1365 -5.7493 9.5592 0.0000 0.0000 0.0000
# 2 -5.7493 118.7426 -9.6385 0.0000 0.0000 0.0000
# 3 9.5592 -9.6385 165.4841 0.0000 0.0000 0.0000
# 4 0.0000 0.0000 0.0000 23.1320 0.0000 0.0000
# 5 0.0000 0.0000 0.0000 0.0000 46.3080 0.0000
# 6 0.0000 0.0000 0.0000 0.0000 0.0000 11.5677
#
#
#
# Elastic Compliance Matrix: (Units=1/GPa)
#
#
# Indices 1 2 3 4 5 6 
#
# 1 0.015301 0.000672 -0.000845 0.000000 0.000000 0.000000
# 2 0.000672 0.008491 0.000456 0.000000 0.000000 0.000000
# 3 -0.000845 0.000456 0.006118 0.000000 0.000000 0.000000
# 4 0.000000 0.000000 0.000000 0.043230 0.000000 0.000000
# 5 0.000000 0.000000 0.000000 0.000000 0.021595 0.000000
# 6 0.000000 0.000000 0.000000 0.000000 0.000000 0.086448
#
#
# Mechanical properties :
#
#
# Convention : Reuss Voigt Hill
#
# Bulk Modulus (GPa) = 32.81195 37.63401 35.22298
# Shear Modulus (GPa) = 26.20890 39.94766 33.07828
#
# Velocity S-wave (km/s) = 3.09801 3.82476 3.48040
# Velocity P-wave (km/s) = 4.98122 5.76945 5.38976
#
# Compressibility (1/GPa) = 0.03047670
#
# Stress axis : x y z
#
# Youngs Moduli (GPa) = 65.35621 117.77010 163.44637
#
# Poissons Ratio (x) = -0.07917 0.13806
# Poissons Ratio (y) = -0.04394 -0.07449
# Poissons Ratio (z) = 0.05521 -0.05367
#
# Static dielectric constant tensor:
#      x y z
#    x 2.281920 0.000000 0.000000 
#    y 0.000000 2.000710 0.000000 
#    z 0.000000 0.000000 2.069310 
# 
# From -- ./inp_files/3731.got.cif
#   From: 2010.05.17/outbox.cif.g08.bks.cpg/sg61_2_cif.got.tgz:3731.got - 2010.06.03 15:17:17.
