data_PCOD9459763
_publ_section_title
;
Structure prediction by ZEFSAII (Michael W. Deem and Ramdas Pophale) SiO2 
 PCOD9459763
Probable space group: P B C A
;
_chemical_formula_sum "Si O2"
_cell_formula_units_Z 64
_cell_length_a 13.296715
_cell_length_b 23.752495
_cell_length_c 10.297067
_cell_angle_alpha 90.000000
_cell_angle_beta 90.000000
_cell_angle_gamma 90.000000
_cell_volume 3252.124283
_symmetry_space_group_name_H-M "P B C A"
_symmetry_group_IT_number 61
_symmetry_cell_setting 'orthorhombic'
loop_
_space_group_symop_operation_xyz
x,y,z
1/2-x,-y,1/2+z
1/2+x,1/2-y,-z
-x,1/2+y,1/2-z
-x,-y,-z
1/2+x,y,1/2-z
1/2-x,1/2+y,z
x,1/2-y,1/2+z
loop_
_atom_site_type_symbol
_atom_site_label
_atom_site_fract_x
_atom_site_fract_y
_atom_site_fract_z
Si Si1 0.765595 0.861228 0.477039
Si Si2 0.117515 0.458100 0.105947
Si Si3 0.361741 0.236883 0.476788
Si Si4 0.749427 0.158145 0.452668
Si Si5 0.442704 0.083038 0.087362
Si Si6 0.134888 0.136740 0.784812
Si Si7 0.482525 0.234749 0.731002
Si Si8 0.101990 0.155229 0.278958
O O1 0.786394 0.928660 0.466783
O O2 0.666646 0.829135 0.523217
O O3 0.788691 0.843250 0.329172
O O4 0.848683 0.839702 0.578750
O O5 0.113215 0.524528 0.118411
O O6 0.113679 0.427264 0.244075
O O7 0.021048 0.434929 0.025847
O O8 0.270711 0.275370 0.529592
O O9 0.446975 0.245055 0.584350
O O10 0.394342 0.259124 0.336383
O O11 0.858215 0.127905 0.453165
O O12 0.683240 0.141164 0.575696
O O13 0.689646 0.141473 0.322818
O O14 0.511814 0.110420 0.200506
O O15 0.037453 0.175216 0.766727
O O16 0.557782 0.285258 0.764556
#
# Coordination Sequence:
#
# PCOD9459763 Si02
#       8
#     8   8   8   8   8   8   8   8
#     4   9  20  39  58  86 120 162 202 248 310 367
#     4   8  20  42  66  84 123 167 203 265 311 372
#     4  12  22  35  59  95 121 164 205 246 314 386
#     4  12  23  38  63  93 124 164 211 257 314 374
#     4  10  20  44  65  89 122 170 215 248 327 378
#     4  10  21  40  57  89 122 164 204 258 312 362
#     4  12  22  36  59  89 129 166 197 255 318 367
#     4  11  22  40  60  90 126 164 204 262 309 374
#
# _framework density 19.679445999999999
#
# number of rings (size 3 to 8) (size 9 to 14) (size 15 to 20)
#    0.750    0.750    1.250    5.250    0.000    0.000 
#    6.750    0.625    0.000    0.000    0.000    0.000 
#    0.000    0.000    0.000    0.000    0.000    0.000 
#
# Total GULP energy -356585.014426 kJ/mol
# GULP energy per Si atom -5571.640850 kJ/mol
# Density = 1.963465 g / cm^3
# Si number density = 19.679446 Si / 1000 Ang^3
#
#
#
# Elastic Constant Matrix: (Units=GPa)
#
#
# Indices 1 2 3 4 5 6 
#
# 1 28.3843 3.7805 10.5726 0.0000 0.0000 0.0000
# 2 3.7805 60.7540 7.1366 0.0000 0.0000 0.0000
# 3 10.5726 7.1366 47.6723 0.0000 0.0000 0.0000
# 4 0.0000 0.0000 0.0000 -57.8915 0.0000 0.0000
# 5 0.0000 0.0000 0.0000 0.0000 16.3975 0.0000
# 6 0.0000 0.0000 0.0000 0.0000 0.0000 27.9251
#
#
#
# Elastic Compliance Matrix: (Units=1/GPa)
#
#
# Indices 1 2 3 4 5 6 
#
# 1 0.038523 -0.001418 -0.008331 0.000000 0.000000 0.000000
# 2 -0.001418 0.016807 -0.002201 0.000000 0.000000 0.000000
# 3 -0.008331 -0.002201 0.023154 0.000000 0.000000 0.000000
# 4 0.000000 0.000000 0.000000 -0.017274 0.000000 0.000000
# 5 0.000000 0.000000 0.000000 0.000000 0.060985 0.000000
# 6 0.000000 0.000000 0.000000 0.000000 0.000000 0.035810
#
#
# Mechanical properties :
#
#
# Convention : Reuss Voigt Hill
#
# Bulk Modulus (GPa) = 18.32128 19.97664 19.14896
# Shear Modulus (GPa) = 24.98744 4.97427 14.98085
#
# Velocity S-wave (km/s) = 3.56718 1.59158 2.76206
# Velocity P-wave (km/s) = 5.12801 3.68111 4.46358
#
# Compressibility (1/GPa) = 0.05458134
#
# Stress axis : x y z
#
# Youngs Moduli (GPa) = 25.95861 59.50013 43.18955
#
# Poissons Ratio (x) = 0.08440 0.35982
# Poissons Ratio (y) = 0.03682 0.09508
# Poissons Ratio (z) = 0.21626 0.13098
#
# Static dielectric constant tensor:
#      x y z
#    x 1.752820 0.000000 0.000000 
#    y 0.000000 1.690320 0.000000 
#    z 0.000000 0.000000 1.680130 
# 
# From -- ./inp_files/5469.got.cif
#   From: 2010.05.17/outbox.cif.g08.bks.cpg/sg61_3_cif.got.tgz:5469.got - 2010.06.03 15:17:17.
