data_PCOD9459899
_publ_section_title
;
Structure prediction by ZEFSAII (Michael W. Deem and Ramdas Pophale) SiO2 
 PCOD9459899
Probable space group: P B C A
;
_chemical_formula_sum "Si O2"
_cell_formula_units_Z 40
_cell_length_a 9.588880
_cell_length_b 8.542012
_cell_length_c 18.126221
_cell_angle_alpha 90.000000
_cell_angle_beta 90.000000
_cell_angle_gamma 90.000000
_cell_volume 1484.688456
_symmetry_space_group_name_H-M "P B C A"
_symmetry_group_IT_number 61
_symmetry_cell_setting 'orthorhombic'
loop_
_space_group_symop_operation_xyz
x,y,z
1/2-x,-y,1/2+z
1/2+x,1/2-y,-z
-x,1/2+y,1/2-z
-x,-y,-z
1/2+x,y,1/2-z
1/2-x,1/2+y,z
x,1/2-y,1/2+z
loop_
_atom_site_type_symbol
_atom_site_label
_atom_site_fract_x
_atom_site_fract_y
_atom_site_fract_z
Si Si1 0.883956 0.300091 0.344564
Si Si2 0.627906 0.378696 0.245126
Si Si3 0.952415 0.990092 0.397742
Si Si4 0.593776 0.500252 0.096840
Si Si5 0.188746 0.323643 0.976022
O O1 0.765562 0.320226 0.284676
O O2 0.865234 0.152564 0.397014
O O3 0.931445 0.460816 0.385450
O O4 0.028818 0.262930 0.300357
O O5 0.537166 0.435550 0.314042
O O6 0.656558 0.504398 0.180126
O O7 0.097371 0.040975 0.433925
O O8 0.862796 0.861568 0.441794
O O9 0.642547 0.344476 0.053276
O O10 0.652674 0.642586 0.049382
#
# Coordination Sequence:
#
# PCOD9459899 Si02
#       5
#     8   8   8   8   8
#     4   9  22  38  62  93 127 166 221 263 331 374
#     4  10  21  38  64  92 125 166 221 268 318 389
#     4  10  22  38  66  89 135 173 215 265 332 394
#     4   9  22  39  65  90 130 171 215 270 321 389
#     4  10  21  43  63  94 132 177 211 268 337 386
#
# _framework density 26.941679000000001
#
# number of rings (size 3 to 8) (size 9 to 14) (size 15 to 20)
#    1.200    1.200    0.000    1.200    5.600    1.600 
#    0.000    1.000    0.000    0.000    0.000    0.000 
#    0.000    0.000    0.000    0.000    0.000    0.000 
#
# Total GULP energy -223461.969425 kJ/mol
# GULP energy per Si atom -5586.549236 kJ/mol
# Density = 2.688036 g / cm^3
# Si number density = 26.941679 Si / 1000 Ang^3
#
#
#
# Elastic Constant Matrix: (Units=GPa)
#
#
# Indices 1 2 3 4 5 6 
#
# 1 102.9487 16.3395 -1.5461 0.0000 0.0000 0.0000
# 2 16.3395 54.8030 11.1115 0.0000 0.0000 0.0000
# 3 -1.5461 11.1115 141.7138 0.0000 0.0000 0.0000
# 4 0.0000 0.0000 0.0000 38.2301 0.0000 0.0000
# 5 0.0000 0.0000 0.0000 0.0000 33.6235 0.0000
# 6 0.0000 0.0000 0.0000 0.0000 0.0000 35.1377
#
#
#
# Elastic Compliance Matrix: (Units=1/GPa)
#
#
# Indices 1 2 3 4 5 6 
#
# 1 0.010214 -0.003117 0.000356 0.000000 0.000000 0.000000
# 2 -0.003117 0.019493 -0.001562 0.000000 0.000000 0.000000
# 3 0.000356 -0.001562 0.007183 0.000000 0.000000 0.000000
# 4 0.000000 0.000000 0.000000 0.026157 0.000000 0.000000
# 5 0.000000 0.000000 0.000000 0.000000 0.029741 0.000000
# 6 0.000000 0.000000 0.000000 0.000000 0.000000 0.028459
#
#
# Mechanical properties :
#
#
# Convention : Reuss Voigt Hill
#
# Bulk Modulus (GPa) = 35.40816 39.03057 37.21937
# Shear Modulus (GPa) = 35.89121 39.63563 37.76342
#
# Velocity S-wave (km/s) = 3.65387 3.83974 3.74795
# Velocity P-wave (km/s) = 5.56525 5.84608 5.70739
#
# Compressibility (1/GPa) = 0.02824208
#
# Stress axis : x y z
#
# Youngs Moduli (GPa) = 97.90779 51.29937 139.22014
#
# Poissons Ratio (x) = 0.15992 -0.04954
# Poissons Ratio (y) = 0.30521 0.21752
# Poissons Ratio (z) = -0.03484 0.08015
#
# Static dielectric constant tensor:
#      x y z
#    x 2.176120 0.000000 0.000000 
#    y 0.000000 2.157740 0.000000 
#    z 0.000000 0.000000 2.144030 
# 
# From -- ./inp_files/10252.got.cif
#   From: 2010.05.17/outbox.cif.g08.bks.cpg/sg61_6_cif.got.tgz:10252.got - 2010.06.03 15:17:17.
