data_PCOD9459024
_publ_section_title
;
Structure prediction by ZEFSAII (Michael W. Deem and Ramdas Pophale) SiO2 
 PCOD9459024
Probable space group: P B C A
;
_chemical_formula_sum "Si O2"
_cell_formula_units_Z 64
_cell_length_a 30.640503
_cell_length_b 21.340447
_cell_length_c 5.482529
_cell_angle_alpha 90.000000
_cell_angle_beta 90.000000
_cell_angle_gamma 90.000000
_cell_volume 3584.927194
_symmetry_space_group_name_H-M "P B C A"
_symmetry_group_IT_number 61
_symmetry_cell_setting 'orthorhombic'
loop_
_space_group_symop_operation_xyz
x,y,z
1/2-x,-y,1/2+z
1/2+x,1/2-y,-z
-x,1/2+y,1/2-z
-x,-y,-z
1/2+x,y,1/2-z
1/2-x,1/2+y,z
x,1/2-y,1/2+z
loop_
_atom_site_type_symbol
_atom_site_label
_atom_site_fract_x
_atom_site_fract_y
_atom_site_fract_z
Si Si1 0.576210 0.098203 0.384296
Si Si2 0.771956 0.587944 0.756099
Si Si3 0.396678 0.021109 0.311457
Si Si4 0.308687 0.029375 0.527212
Si Si5 0.007929 0.539495 0.247880
Si Si6 0.600246 0.215608 0.624889
Si Si7 0.349767 0.934992 0.918244
Si Si8 0.205242 0.214477 0.927845
O O1 0.529260 0.092459 0.260779
O O2 0.578313 0.147632 0.599941
O O3 0.589473 0.029617 0.483578
O O4 0.617110 0.112831 0.209401
O O5 0.783829 0.519071 0.651747
O O6 0.725287 0.580357 0.880753
O O7 0.812029 0.600884 0.938914
O O8 0.774780 0.644496 0.566925
O O9 0.352984 0.055027 0.404452
O O10 0.440902 0.057675 0.249900
O O11 0.379917 0.977977 0.090202
O O12 0.324872 0.983079 0.741217
O O13 0.000000 0.500000 0.500000
O O14 0.000000 0.500000 0.000000
O O15 0.587481 0.246728 0.879901
O O16 0.652656 0.209369 0.598185
O O17 0.217979 0.250827 0.174886
#
# Coordination Sequence:
#
# PCOD9459024 Si02
#       8
#     8   8   8   8   8   8   8   8
#     4  10  20  32  52  74 103 142 171 214 265 317
#     4  11  21  33  51  75 108 140 188 220 280 329
#     4   9  19  32  49  76 104 136 171 212 269 330
#     4  10  20  32  50  78 103 144 173 230 276 336
#     4  10  19  33  52  77 104 136 170 207 259 324
#     4  10  22  34  50  73 104 139 183 214 255 310
#     4  10  18  30  49  71 109 133 172 207 276 316
#     4  10  23  37  53  74 105 147 184 225 264 319
#
# _framework density 17.852523999999999
#
# number of rings (size 3 to 8) (size 9 to 14) (size 15 to 20)
#    0.000    2.000    2.500    2.250    8.750    0.000 
#    0.000    0.000    0.000    0.000    0.000    1.750 
#    0.000    0.000    0.000    0.000    0.000    0.000 
#
# Total GULP energy -356743.406626 kJ/mol
# GULP energy per Si atom -5574.115729 kJ/mol
# Density = 1.781189 g / cm^3
# Si number density = 17.852524 Si / 1000 Ang^3
#
#
#
# Elastic Constant Matrix: (Units=GPa)
#
#
# Indices 1 2 3 4 5 6 
#
# 1 108.0720 19.7176 27.0683 0.0000 0.0000 0.0000
# 2 19.7176 32.4418 7.0935 0.0000 0.0000 0.0000
# 3 27.0683 7.0935 76.2126 0.0000 0.0000 0.0000
# 4 0.0000 0.0000 0.0000 23.7347 0.0000 0.0000
# 5 0.0000 0.0000 0.0000 0.0000 18.9155 0.0000
# 6 0.0000 0.0000 0.0000 0.0000 0.0000 12.8335
#
#
#
# Elastic Compliance Matrix: (Units=1/GPa)
#
#
# Indices 1 2 3 4 5 6 
#
# 1 0.011217 -0.006070 -0.003419 0.000000 0.000000 0.000000
# 2 -0.006070 0.034749 -0.001078 0.000000 0.000000 0.000000
# 3 -0.003419 -0.001078 0.014436 0.000000 0.000000 0.000000
# 4 0.000000 0.000000 0.000000 0.042132 0.000000 0.000000
# 5 0.000000 0.000000 0.000000 0.000000 0.052867 0.000000
# 6 0.000000 0.000000 0.000000 0.000000 0.000000 0.077921
#
#
# Mechanical properties :
#
#
# Convention : Reuss Voigt Hill
#
# Bulk Modulus (GPa) = 25.46629 36.05391 30.76010
# Shear Modulus (GPa) = 18.68835 21.95319 20.32077
#
# Velocity S-wave (km/s) = 3.23897 3.51051 3.37747
# Velocity P-wave (km/s) = 5.31824 6.05564 5.69888
#
# Compressibility (1/GPa) = 0.03926760
#
# Stress axis : x y z
#
# Youngs Moduli (GPa) = 89.15155 28.77749 69.27190
#
# Poissons Ratio (x) = 0.17468 0.23684
# Poissons Ratio (y) = 0.54114 0.07471
# Poissons Ratio (z) = 0.30480 0.03104
#
# Static dielectric constant tensor:
#      x y z
#    x 1.641810 0.000000 0.000000 
#    y 0.000000 1.632410 0.000000 
#    z 0.000000 0.000000 1.269060 
# 
# From -- ./inp_files/1502.got.cif
#   From: 2010.05.17/outbox.cif.g08.bks.cpg/sg61_1_cif.got.tgz:1502.got - 2010.06.03 15:17:17.
