data_PCOD9459778
_publ_section_title
;
Structure prediction by ZEFSAII (Michael W. Deem and Ramdas Pophale) SiO2 
 PCOD9459778
Probable space group: P B C A
;
_chemical_formula_sum "Si O2"
_cell_formula_units_Z 48
_cell_length_a 16.973442
_cell_length_b 9.130514
_cell_length_c 16.195498
_cell_angle_alpha 90.000000
_cell_angle_beta 90.000000
_cell_angle_gamma 90.000000
_cell_volume 2509.917544
_symmetry_space_group_name_H-M "P B C A"
_symmetry_group_IT_number 61
_symmetry_cell_setting 'orthorhombic'
loop_
_space_group_symop_operation_xyz
x,y,z
1/2-x,-y,1/2+z
1/2+x,1/2-y,-z
-x,1/2+y,1/2-z
-x,-y,-z
1/2+x,y,1/2-z
1/2-x,1/2+y,z
x,1/2-y,1/2+z
loop_
_atom_site_type_symbol
_atom_site_label
_atom_site_fract_x
_atom_site_fract_y
_atom_site_fract_z
Si Si1 0.165077 0.164748 0.452587
Si Si2 0.586157 0.780548 0.588143
Si Si3 0.917675 0.503086 0.184037
Si Si4 0.990138 0.314947 0.933834
Si Si5 0.057769 0.004163 0.123915
Si Si6 0.804881 0.990160 0.010298
O O1 0.074346 0.178044 0.480672
O O2 0.199584 0.327688 0.453500
O O3 0.219833 0.059285 0.506118
O O4 0.151480 0.094300 0.361866
O O5 0.593716 0.666659 0.661866
O O6 0.575368 0.682295 0.504862
O O7 0.508530 0.880448 0.596657
O O8 0.655967 0.895131 0.574304
O O9 0.996591 0.563042 0.136596
O O10 0.922765 0.527167 0.280610
O O11 0.978767 0.157632 0.890726
O O12 0.135252 0.013948 0.066807
#
# Coordination Sequence:
#
# PCOD9459778 Si02
#       6
#     8   8   8   8   8   8
#     4  10  21  39  55  85 114 161 194 236 283 370
#     4  11  18  35  63  83 112 157 194 241 286 348
#     4  10  21  33  59  88 120 143 190 246 301 331
#     4   9  19  36  56  86 116 149 203 232 285 353
#     4  11  19  37  60  90 114 152 192 256 288 334
#     4  11  21  38  62  77 116 158 201 229 291 357
#
# _framework density 19.124134999999999
#
# number of rings (size 3 to 8) (size 9 to 14) (size 15 to 20)
#    1.000    0.667    3.333    3.500    0.000    0.000 
#    0.000    3.333    3.667    0.000    0.000    0.000 
#    0.000    0.000    0.000    0.000    0.000    0.000 
#
# Total GULP energy -267421.558103 kJ/mol
# GULP energy per Si atom -5571.282460 kJ/mol
# Density = 1.908061 g / cm^3
# Si number density = 19.124135 Si / 1000 Ang^3
#
#
#
# Elastic Constant Matrix: (Units=GPa)
#
#
# Indices 1 2 3 4 5 6 
#
# 1 57.8564 22.2955 4.4427 0.0000 0.0000 0.0000
# 2 22.2955 93.6566 18.2271 0.0000 0.0000 0.0000
# 3 4.4427 18.2271 58.5764 0.0000 0.0000 0.0000
# 4 0.0000 0.0000 0.0000 18.6654 0.0000 0.0000
# 5 0.0000 0.0000 0.0000 0.0000 12.1313 0.0000
# 6 0.0000 0.0000 0.0000 0.0000 0.0000 32.4323
#
#
#
# Elastic Compliance Matrix: (Units=1/GPa)
#
#
# Indices 1 2 3 4 5 6 
#
# 1 0.019030 -0.004523 -0.000036 0.000000 0.000000 0.000000
# 2 -0.004523 0.012441 -0.003528 0.000000 0.000000 0.000000
# 3 -0.000036 -0.003528 0.018172 0.000000 0.000000 0.000000
# 4 0.000000 0.000000 0.000000 0.053575 0.000000 0.000000
# 5 0.000000 0.000000 0.000000 0.000000 0.082432 0.000000
# 6 0.000000 0.000000 0.000000 0.000000 0.000000 0.030833
#
#
# Mechanical properties :
#
#
# Convention : Reuss Voigt Hill
#
# Bulk Modulus (GPa) = 29.87868 33.33554 31.60711
# Shear Modulus (GPa) = 20.50747 23.65407 22.08077
#
# Velocity S-wave (km/s) = 3.27820 3.52073 3.40163
# Velocity P-wave (km/s) = 5.47597 5.83064 5.65609
#
# Compressibility (1/GPa) = 0.03346868
#
# Stress axis : x y z
#
# Youngs Moduli (GPa) = 52.54865 80.38133 55.02891
#
# Poissons Ratio (x) = 0.36358 0.00197
# Poissons Ratio (y) = 0.23769 0.19415
# Poissons Ratio (z) = 0.00188 0.28359
#
# Static dielectric constant tensor:
#      x y z
#    x 1.705260 0.000000 0.000000 
#    y 0.000000 1.697750 0.000000 
#    z 0.000000 0.000000 1.646660 
# 
# From -- ./inp_files/9619.got.cif
#   From: 2010.05.17/outbox.cif.g08.bks.cpg/sg61_5_cif.got.tgz:9619.got - 2010.06.03 15:17:17.
