data_PCOD9459955
_publ_section_title
;
Structure prediction by ZEFSAII (Michael W. Deem and Ramdas Pophale) SiO2 
 PCOD9459955
Probable space group: P B C A
;
_chemical_formula_sum "Si O2"
_cell_formula_units_Z 48
_cell_length_a 9.241134
_cell_length_b 8.857525
_cell_length_c 27.785619
_cell_angle_alpha 90.000000
_cell_angle_beta 90.000000
_cell_angle_gamma 90.000000
_cell_volume 2274.352261
_symmetry_space_group_name_H-M "P B C A"
_symmetry_group_IT_number 61
_symmetry_cell_setting 'orthorhombic'
loop_
_space_group_symop_operation_xyz
x,y,z
1/2-x,-y,1/2+z
1/2+x,1/2-y,-z
-x,1/2+y,1/2-z
-x,-y,-z
1/2+x,y,1/2-z
1/2-x,1/2+y,z
x,1/2-y,1/2+z
loop_
_atom_site_type_symbol
_atom_site_label
_atom_site_fract_x
_atom_site_fract_y
_atom_site_fract_z
Si Si1 0.656332 0.072929 0.999314
Si Si2 0.898708 0.597845 0.535369
Si Si3 0.640499 0.246888 0.846140
Si Si4 0.848944 0.455290 0.403554
Si Si5 0.564549 0.562218 0.710550
Si Si6 0.796147 0.364752 0.752038
O O1 0.737987 0.044624 0.948732
O O2 0.642767 0.248567 0.009529
O O3 0.500000 0.000000 0.000000
O O4 0.754244 0.998049 0.040809
O O5 0.000000 0.500000 0.500000
O O6 0.000898 0.621600 0.580857
O O7 0.619054 0.376106 0.885744
O O8 0.771149 0.140408 0.862623
O O9 0.502147 0.140454 0.836992
O O10 0.690925 0.330718 0.797320
O O11 0.693058 0.438937 0.711252
O O12 0.423836 0.481952 0.734343
O O13 0.630273 0.705973 0.738721
#
# Coordination Sequence:
#
# PCOD9459955 Si02
#       6
#     8   8   8   8   8   8
#     4  11  21  40  69  92 128 174 220 264 320 400
#     4  10  21  39  64  94 125 173 221 257 318 410
#     4  12  23  40  68  97 134 171 218 288 343 380
#     4  11  23  41  64  97 131 168 219 273 336 391
#     4  12  23  43  69  97 131 178 232 271 335 414
#     4  12  23  43  71  97 130 180 233 271 331 421
#
# _framework density 21.104911000000001
#
# number of rings (size 3 to 8) (size 9 to 14) (size 15 to 20)
#    0.000    0.667    5.000    5.000    0.000    0.000 
#    0.000    3.333    0.000    0.000    0.000    0.000 
#    0.000    0.000    0.000    0.000    0.000    0.000 
#
# Total GULP energy -268099.565555 kJ/mol
# GULP energy per Si atom -5585.407616 kJ/mol
# Density = 2.105688 g / cm^3
# Si number density = 21.104911 Si / 1000 Ang^3
#
#
#
# Elastic Constant Matrix: (Units=GPa)
#
#
# Indices 1 2 3 4 5 6 
#
# 1 109.4623 27.5167 14.9745 0.0000 0.0000 0.0000
# 2 27.5167 96.3984 11.7716 0.0000 0.0000 0.0000
# 3 14.9745 11.7716 39.6790 0.0000 0.0000 0.0000
# 4 0.0000 0.0000 0.0000 36.9106 0.0000 0.0000
# 5 0.0000 0.0000 0.0000 0.0000 40.7532 0.0000
# 6 0.0000 0.0000 0.0000 0.0000 0.0000 43.3130
#
#
#
# Elastic Compliance Matrix: (Units=1/GPa)
#
#
# Indices 1 2 3 4 5 6 
#
# 1 0.010196 -0.002532 -0.003097 0.000000 0.000000 0.000000
# 2 -0.002532 0.011392 -0.002424 0.000000 0.000000 0.000000
# 3 -0.003097 -0.002424 0.027090 0.000000 0.000000 0.000000
# 4 0.000000 0.000000 0.000000 0.027093 0.000000 0.000000
# 5 0.000000 0.000000 0.000000 0.000000 0.024538 0.000000
# 6 0.000000 0.000000 0.000000 0.000000 0.000000 0.023088
#
#
# Mechanical properties :
#
#
# Convention : Reuss Voigt Hill
#
# Bulk Modulus (GPa) = 30.70087 39.34058 35.02073
# Shear Modulus (GPa) = 33.25357 36.94714 35.10036
#
# Velocity S-wave (km/s) = 3.97373 4.18861 4.08258
# Velocity P-wave (km/s) = 5.96929 6.48641 6.23321
#
# Compressibility (1/GPa) = 0.03257237
#
# Stress axis : x y z
#
# Youngs Moduli (GPa) = 98.08032 87.77746 36.91393
#
# Poissons Ratio (x) = 0.22227 0.11431
# Poissons Ratio (y) = 0.24836 0.08949
# Poissons Ratio (z) = 0.30371 0.21279
#
# Static dielectric constant tensor:
#      x y z
#    x 1.771000 0.000000 0.000000 
#    y 0.000000 1.777980 0.000000 
#    z 0.000000 0.000000 1.829750 
# 
# From -- ./inp_files/11676.got.cif
#   From: 2010.05.17/outbox.cif.g08.bks.cpg/sg61_6_cif.got.tgz:11676.got - 2010.06.03 15:17:17.
