data_PCOD9459426
_publ_section_title
;
Structure prediction by ZEFSAII (Michael W. Deem and Ramdas Pophale) SiO2 
 PCOD9459426
Probable space group: P B C A
;
_chemical_formula_sum "Si O2"
_cell_formula_units_Z 60
_cell_length_a 5.226628
_cell_length_b 26.819132
_cell_length_c 15.005211
_cell_angle_alpha 90.000000
_cell_angle_beta 90.000000
_cell_angle_gamma 90.000000
_cell_volume 2103.334838
_symmetry_space_group_name_H-M "P B C A"
_symmetry_group_IT_number 61
_symmetry_cell_setting 'orthorhombic'
loop_
_space_group_symop_operation_xyz
x,y,z
1/2-x,-y,1/2+z
1/2+x,1/2-y,-z
-x,1/2+y,1/2-z
-x,-y,-z
1/2+x,y,1/2-z
1/2-x,1/2+y,z
x,1/2-y,1/2+z
loop_
_atom_site_type_symbol
_atom_site_label
_atom_site_fract_x
_atom_site_fract_y
_atom_site_fract_z
Si Si1 0.000000 0.500000 0.000000
Si Si2 0.961421 0.876968 0.721280
Si Si3 0.654004 0.108449 0.018555
Si Si4 0.457131 0.948213 0.608472
Si Si5 0.749988 0.857247 0.192029
Si Si6 0.701564 0.465320 0.187586
Si Si7 0.260776 0.747229 0.304616
Si Si8 0.926196 0.718464 0.015264
O O1 0.930701 0.558766 0.969510
O O2 0.223877 0.521955 0.069424
O O3 0.447187 0.923645 0.707481
O O4 0.212036 0.848308 0.747987
O O5 0.836107 0.789119 0.616662
O O6 0.966476 0.891446 0.619080
O O7 0.594525 0.162118 0.976786
O O8 0.948987 0.096730 0.045458
O O9 0.687774 0.990770 0.613101
O O10 0.460092 0.858845 0.227807
O O11 0.810968 0.909983 0.147594
O O12 0.796907 0.803073 0.151618
O O13 0.448544 0.470859 0.249393
O O14 0.470399 0.746565 0.227187
O O15 0.203446 0.744724 0.020688
#
# Coordination Sequence:
#
# PCOD9459426 Si02
#       8
#     4   8   8   8   8   8   8   8
#     4  12  26  48  72 114 164 212 260 328 414 496
#     4  10  20  39  71 108 152 194 260 328 388 470
#     4  11  27  49  76 112 159 213 270 331 405 495
#     4  11  24  42  72 109 159 201 262 326 399 479
#     4   8  16  32  57  94 138 181 240 306 373 451
#     4  10  20  35  61 100 144 194 248 314 384 463
#     4  10  21  44  77 111 150 197 271 342 409 484
#     4  12  30  53  82 118 165 218 276 346 434 505
#
# _framework density 28.526129000000001
#
# number of rings (size 3 to 8) (size 9 to 14) (size 15 to 20)
#    0.000    1.600    1.333    2.800    3.733    3.200 
#    2.400    1.333    0.000    0.000    0.000    0.000 
#    0.000    0.000    0.000    0.000    0.000    0.000 
#
# Total GULP energy -335265.414141 kJ/mol
# GULP energy per Si atom -5587.756902 kJ/mol
# Density = 2.846120 g / cm^3
# Si number density = 28.526129 Si / 1000 Ang^3
#
#
#
# Elastic Constant Matrix: (Units=GPa)
#
#
# Indices 1 2 3 4 5 6 
#
# 1 147.9342 23.3911 25.2180 0.0000 0.0000 0.0000
# 2 23.3911 220.4312 16.2816 0.0000 0.0000 0.0000
# 3 25.2180 16.2816 85.5403 0.0000 0.0000 0.0000
# 4 0.0000 0.0000 0.0000 46.3450 0.0000 0.0000
# 5 0.0000 0.0000 0.0000 0.0000 44.1998 0.0000
# 6 0.0000 0.0000 0.0000 0.0000 0.0000 42.0449
#
#
#
# Elastic Compliance Matrix: (Units=1/GPa)
#
#
# Indices 1 2 3 4 5 6 
#
# 1 0.007199 -0.000616 -0.002005 0.000000 0.000000 0.000000
# 2 -0.000616 0.004654 -0.000704 0.000000 0.000000 0.000000
# 3 -0.002005 -0.000704 0.012416 0.000000 0.000000 0.000000
# 4 0.000000 0.000000 0.000000 0.021577 0.000000 0.000000
# 5 0.000000 0.000000 0.000000 0.000000 0.022625 0.000000
# 6 0.000000 0.000000 0.000000 0.000000 0.000000 0.023784
#
#
# Mechanical properties :
#
#
# Convention : Reuss Voigt Hill
#
# Bulk Modulus (GPa) = 56.75992 64.85412 60.80702
# Shear Modulus (GPa) = 47.72021 52.45228 50.08624
#
# Velocity S-wave (km/s) = 4.09450 4.29271 4.19478
# Velocity P-wave (km/s) = 6.50338 6.88144 6.69508
#
# Compressibility (1/GPa) = 0.01761807
#
# Stress axis : x y z
#
# Youngs Moduli (GPa) = 138.90936 214.87222 80.54408
#
# Poissons Ratio (x) = 0.13232 0.16150
# Poissons Ratio (y) = 0.08554 0.05672
# Poissons Ratio (z) = 0.27853 0.15133
#
# Static dielectric constant tensor:
#      x y z
#    x 2.028130 0.000000 0.000000 
#    y 0.000000 2.241320 0.000000 
#    z 0.000000 0.000000 1.911740 
# 
# From -- ./inp_files/9997.got.cif
#   From: 2010.05.17/outbox.cif.g08.bks.cpg/sg61_5_cif.got.tgz:9997.got - 2010.06.03 15:17:17.
