data_PCOD9459511
_publ_section_title
;
Structure prediction by ZEFSAII (Michael W. Deem and Ramdas Pophale) SiO2 
 PCOD9459511
Probable space group: P B C A
;
_chemical_formula_sum "Si O2"
_cell_formula_units_Z 40
_cell_length_a 9.134691
_cell_length_b 15.987215
_cell_length_c 11.303665
_cell_angle_alpha 90.000000
_cell_angle_beta 90.000000
_cell_angle_gamma 90.000000
_cell_volume 1650.767670
_symmetry_space_group_name_H-M "P B C A"
_symmetry_group_IT_number 61
_symmetry_cell_setting 'orthorhombic'
loop_
_space_group_symop_operation_xyz
x,y,z
1/2-x,-y,1/2+z
1/2+x,1/2-y,-z
-x,1/2+y,1/2-z
-x,-y,-z
1/2+x,y,1/2-z
1/2-x,1/2+y,z
x,1/2-y,1/2+z
loop_
_atom_site_type_symbol
_atom_site_label
_atom_site_fract_x
_atom_site_fract_y
_atom_site_fract_z
Si Si1 0.864194 0.469570 0.863735
Si Si2 0.412005 0.879713 0.704653
Si Si3 0.919167 0.391893 0.111407
Si Si4 0.434256 0.217096 0.492535
Si Si5 0.178949 0.272883 0.343900
O O1 0.972202 0.401464 0.805316
O O2 0.948816 0.554854 0.836382
O O3 0.703791 0.453803 0.812647
O O4 0.858361 0.449377 0.003566
O O5 0.499902 0.856981 0.586827
O O6 0.324560 0.796634 0.743211
O O7 0.779954 0.353516 0.180177
O O8 0.985665 0.307449 0.056401
O O9 0.264575 0.229671 0.456742
O O10 0.512538 0.206975 0.618514
#
# Coordination Sequence:
#
# PCOD9459511 Si02
#       5
#     8   8   8   8   8
#     4  11  21  36  60  82 119 155 189 241 298 348
#     4  12  20  36  62  86 112 156 200 236 290 354
#     4   9  21  38  56  81 119 155 185 240 298 336
#     4  10  20  37  60  86 111 154 197 243 282 352
#     4  10  20  37  60  86 111 154 197 243 282 352
#
# _framework density 24.231152999999999
#
# number of rings (size 3 to 8) (size 9 to 14) (size 15 to 20)
#    1.200    0.400    6.000    0.000    0.000    1.600 
#    0.000    0.000    4.400    4.800    0.000    0.000 
#    0.000    0.000    0.000    0.000    0.000    0.000 
#
# Total GULP energy -222982.998809 kJ/mol
# GULP energy per Si atom -5574.574970 kJ/mol
# Density = 2.417600 g / cm^3
# Si number density = 24.231153 Si / 1000 Ang^3
#
#
#
# Elastic Constant Matrix: (Units=GPa)
#
#
# Indices 1 2 3 4 5 6 
#
# 1 90.3206 -12.9723 15.0931 0.0000 0.0000 0.0000
# 2 -12.9723 25.9762 -8.7571 0.0000 0.0000 0.0000
# 3 15.0931 -8.7571 21.1234 0.0000 0.0000 0.0000
# 4 0.0000 0.0000 0.0000 18.7484 0.0000 0.0000
# 5 0.0000 0.0000 0.0000 0.0000 29.0161 0.0000
# 6 0.0000 0.0000 0.0000 0.0000 0.0000 27.3353
#
#
#
# Elastic Compliance Matrix: (Units=1/GPa)
#
#
# Indices 1 2 3 4 5 6 
#
# 1 0.012900 0.003877 -0.007610 0.000000 0.000000 0.000000
# 2 0.003877 0.045916 0.016265 0.000000 0.000000 0.000000
# 3 -0.007610 0.016265 0.059522 0.000000 0.000000 0.000000
# 4 0.000000 0.000000 0.000000 0.053338 0.000000 0.000000
# 5 0.000000 0.000000 0.000000 0.000000 0.034464 0.000000
# 6 0.000000 0.000000 0.000000 0.000000 0.000000 0.036583
#
#
# Mechanical properties :
#
#
# Convention : Reuss Voigt Hill
#
# Bulk Modulus (GPa) = 6.97341 13.79416 10.38379
# Shear Modulus (GPa) = 18.83529 24.62373 21.72951
#
# Velocity S-wave (km/s) = 2.79107 3.19125 2.99784
# Velocity P-wave (km/s) = 3.64292 4.39134 4.03452
#
# Compressibility (1/GPa) = 0.14340188
#
# Stress axis : x y z
#
# Youngs Moduli (GPa) = 77.51836 21.77877 16.80062
#
# Poissons Ratio (x) = -0.08443 0.12786
# Poissons Ratio (y) = -0.30051 -0.27327
# Poissons Ratio (z) = 0.58993 -0.35424
#
# Static dielectric constant tensor:
#      x y z
#    x 1.919620 0.000000 0.000000 
#    y 0.000000 1.930830 0.000000 
#    z 0.000000 0.000000 1.991270 
# 
# From -- ./inp_files/3353.got.cif
#   From: 2010.05.17/outbox.cif.g08.bks.cpg/sg61_2_cif.got.tgz:3353.got - 2010.06.03 15:17:17.
