data_PCOD9459583
_publ_section_title
;
Structure prediction by ZEFSAII (Michael W. Deem and Ramdas Pophale) SiO2 
 PCOD9459583
Probable space group: P B C A
;
_chemical_formula_sum "Si O2"
_cell_formula_units_Z 40
_cell_length_a 17.881914
_cell_length_b 10.318769
_cell_length_c 8.603618
_cell_angle_alpha 90.000000
_cell_angle_beta 90.000000
_cell_angle_gamma 90.000000
_cell_volume 1587.533914
_symmetry_space_group_name_H-M "P B C A"
_symmetry_group_IT_number 61
_symmetry_cell_setting 'orthorhombic'
loop_
_space_group_symop_operation_xyz
x,y,z
1/2-x,-y,1/2+z
1/2+x,1/2-y,-z
-x,1/2+y,1/2-z
-x,-y,-z
1/2+x,y,1/2-z
1/2-x,1/2+y,z
x,1/2-y,1/2+z
loop_
_atom_site_type_symbol
_atom_site_label
_atom_site_fract_x
_atom_site_fract_y
_atom_site_fract_z
Si Si1 0.104081 0.568178 0.368368
Si Si2 0.937411 0.281844 0.890608
Si Si3 0.030122 0.128095 0.660537
Si Si4 0.241584 0.385330 0.363506
Si Si5 0.694853 0.378799 0.478307
O O1 0.085740 0.654260 0.515497
O O2 0.125970 0.662735 0.223918
O O3 0.038090 0.490637 0.280247
O O4 0.165355 0.462218 0.406462
O O5 0.004154 0.244080 0.772937
O O6 0.968203 0.375050 0.025488
O O7 0.110564 0.150104 0.580540
O O8 0.230161 0.239574 0.424164
O O9 0.302791 0.482808 0.434288
O O10 0.243192 0.388788 0.178292
#
# Coordination Sequence:
#
# PCOD9459583 Si02
#       5
#     8   8   8   8   8
#     4  10  22  39  61  92 127 168 215 266 324 386
#     4  10  21  38  62  92 129 167 212 266 323 386
#     4  10  20  38  63  92 126 166 211 263 323 385
#     4  11  25  45  69  97 130 170 220 270 328 387
#     4  11  24  44  68  97 129 171 217 271 324 386
#
# _framework density 25.196313
#
# number of rings (size 3 to 8) (size 9 to 14) (size 15 to 20)
#    0.000    1.600    0.000    4.800    0.000    6.400 
#    0.000   12.000    0.000    0.000    0.000    0.000 
#    0.000    0.000    0.000    0.000    0.000    0.000 
#
# Total GULP energy -223747.756061 kJ/mol
# GULP energy per Si atom -5593.693902 kJ/mol
# Density = 2.513897 g / cm^3
# Si number density = 25.196313 Si / 1000 Ang^3
#
#
#
# Elastic Constant Matrix: (Units=GPa)
#
#
# Indices 1 2 3 4 5 6 
#
# 1 88.3328 38.5479 41.4202 0.0000 0.0000 0.0000
# 2 38.5479 84.3381 17.7641 0.0000 0.0000 0.0000
# 3 41.4202 17.7641 102.6176 0.0000 0.0000 0.0000
# 4 0.0000 0.0000 0.0000 59.2737 0.0000 0.0000
# 5 0.0000 0.0000 0.0000 0.0000 36.4028 0.0000
# 6 0.0000 0.0000 0.0000 0.0000 0.0000 36.2525
#
#
#
# Elastic Compliance Matrix: (Units=1/GPa)
#
#
# Indices 1 2 3 4 5 6 
#
# 1 0.016807 -0.006490 -0.005661 0.000000 0.000000 0.000000
# 2 -0.006490 0.014812 0.000055 0.000000 0.000000 0.000000
# 3 -0.005661 0.000055 0.012020 0.000000 0.000000 0.000000
# 4 0.000000 0.000000 0.000000 0.016871 0.000000 0.000000
# 5 0.000000 0.000000 0.000000 0.000000 0.027470 0.000000
# 6 0.000000 0.000000 0.000000 0.000000 0.000000 0.027584
#
#
# Mechanical properties :
#
#
# Convention : Reuss Voigt Hill
#
# Bulk Modulus (GPa) = 51.41579 52.30587 51.86083
# Shear Modulus (GPa) = 34.19104 38.22288 36.20696
#
# Velocity S-wave (km/s) = 3.68773 3.89910 3.79488
# Velocity P-wave (km/s) = 6.21151 6.40898 6.31101
#
# Compressibility (1/GPa) = 0.01944928
#
# Stress axis : x y z
#
# Youngs Moduli (GPa) = 59.49841 67.51489 83.19375
#
# Poissons Ratio (x) = 0.43815 0.47092
# Poissons Ratio (y) = 0.38612 -0.00461
# Poissons Ratio (z) = 0.33679 -0.00374
#
# Static dielectric constant tensor:
#      x y z
#    x 2.060120 0.000000 0.000000 
#    y 0.000000 2.147600 0.000000 
#    z 0.000000 0.000000 1.961790 
# 
# From -- ./inp_files/1751.got.cif
#   From: 2010.05.17/outbox.cif.g08.bks.cpg/sg61_1_cif.got.tgz:1751.got - 2010.06.03 15:17:17.
