data_PCOD9459018
_publ_section_title
;
Structure prediction by ZEFSAII (Michael W. Deem and Ramdas Pophale) SiO2 
 PCOD9459018
Probable space group: P B C A
;
_chemical_formula_sum "Si O2"
_cell_formula_units_Z 64
_cell_length_a 5.520870
_cell_length_b 17.077515
_cell_length_c 30.307333
_cell_angle_alpha 90.000000
_cell_angle_beta 90.000000
_cell_angle_gamma 90.000000
_cell_volume 2857.458405
_symmetry_space_group_name_H-M "P B C A"
_symmetry_group_IT_number 61
_symmetry_cell_setting 'orthorhombic'
loop_
_space_group_symop_operation_xyz
x,y,z
1/2-x,-y,1/2+z
1/2+x,1/2-y,-z
-x,1/2+y,1/2-z
-x,-y,-z
1/2+x,y,1/2-z
1/2-x,1/2+y,z
x,1/2-y,1/2+z
loop_
_atom_site_type_symbol
_atom_site_label
_atom_site_fract_x
_atom_site_fract_y
_atom_site_fract_z
Si Si1 0.084112 0.095407 0.142313
Si Si2 0.891993 0.482800 0.227468
Si Si3 0.150432 0.347363 0.062952
Si Si4 0.354122 0.911200 0.478148
Si Si5 0.303075 0.330201 0.562055
Si Si6 0.560974 0.160291 0.261307
Si Si7 0.587746 0.456963 0.364465
Si Si8 0.802466 0.561522 0.067871
O O1 0.030944 0.136922 0.187866
O O2 0.869072 0.083400 0.108173
O O3 0.267772 0.147344 0.113218
O O4 0.188766 0.009214 0.152390
O O5 0.141658 0.455427 0.250605
O O6 0.909872 0.578020 0.233751
O O7 0.903943 0.459740 0.176153
O O8 0.389751 0.391965 0.044564
O O9 0.221209 0.257584 0.055683
O O10 0.137712 0.372921 0.114553
O O11 0.882269 0.365747 0.042965
O O12 0.353203 0.883405 0.528692
O O13 0.292347 0.001835 0.469004
O O14 0.573934 0.359212 0.550711
O O15 0.818301 0.201645 0.254895
O O16 0.500651 0.506437 0.407229
#
# Coordination Sequence:
#
# PCOD9459018 Si02
#       8
#     8   8   8   8   8   8   8   8
#     4  11  21  36  60  91 125 156 204 261 315 364
#     4  10  18  29  56  87 115 144 197 251 299 348
#     4  11  25  43  64  87 125 169 215 257 317 379
#     4  11  24  44  65  88 120 169 220 261 306 381
#     4  11  26  39  61  92 128 167 207 262 326 382
#     4  10  19  32  55  85 118 150 195 246 299 361
#     4  10  20  37  58  91 120 158 205 258 302 365
#     4  10  22  38  62  91 125 161 209 267 316 368
#
# _framework density 22.397525999999999
#
# number of rings (size 3 to 8) (size 9 to 14) (size 15 to 20)
#    0.000    1.500    3.750    2.625    5.250    0.500 
#    0.000    0.000    0.000    1.500    0.000    0.000 
#    0.000    0.000    0.000    0.000    0.000    0.000 
#
# Total GULP energy -357220.538764 kJ/mol
# GULP energy per Si atom -5581.570918 kJ/mol
# Density = 2.234655 g / cm^3
# Si number density = 22.397526 Si / 1000 Ang^3
#
#
#
# Elastic Constant Matrix: (Units=GPa)
#
#
# Indices 1 2 3 4 5 6 
#
# 1 128.8079 24.4313 24.4235 0.0000 0.0000 0.0000
# 2 24.4313 79.1392 12.7191 0.0000 0.0000 0.0000
# 3 24.4235 12.7191 104.6052 0.0000 0.0000 0.0000
# 4 0.0000 0.0000 0.0000 7.5448 0.0000 0.0000
# 5 0.0000 0.0000 0.0000 0.0000 35.2838 0.0000
# 6 0.0000 0.0000 0.0000 0.0000 0.0000 2.6483
#
#
#
# Elastic Compliance Matrix: (Units=1/GPa)
#
#
# Indices 1 2 3 4 5 6 
#
# 1 0.008535 -0.002361 -0.001706 0.000000 0.000000 0.000000
# 2 -0.002361 0.013541 -0.001095 0.000000 0.000000 0.000000
# 3 -0.001706 -0.001095 0.010091 0.000000 0.000000 0.000000
# 4 0.000000 0.000000 0.000000 0.132541 0.000000 0.000000
# 5 0.000000 0.000000 0.000000 0.000000 0.028342 0.000000
# 6 0.000000 0.000000 0.000000 0.000000 0.000000 0.377603
#
#
# Mechanical properties :
#
#
# Convention : Reuss Voigt Hill
#
# Bulk Modulus (GPa) = 45.78030 48.41111 47.09570
# Shear Modulus (GPa) = 8.49969 25.82727 17.16348
#
# Velocity S-wave (km/s) = 1.95017 3.39946 2.77124
# Velocity P-wave (km/s) = 5.05521 6.08850 5.59576
#
# Compressibility (1/GPa) = 0.02184346
#
# Stress axis : x y z
#
# Youngs Moduli (GPa) = 117.16925 73.85110 99.09651
#
# Poissons Ratio (x) = 0.17434 0.16902
# Poissons Ratio (y) = 0.27659 0.10854
# Poissons Ratio (z) = 0.19985 0.08089
#
# Static dielectric constant tensor:
#      x y z
#    x 1.992770 0.000000 0.000000 
#    y 0.000000 1.824990 0.000000 
#    z 0.000000 0.000000 1.861570 
# 
# From -- ./inp_files/843.got.cif
#   From: 2010.05.17/outbox.cif.g08.bks.cpg/sg61_1_cif.got.tgz:843.got - 2010.06.03 15:17:17.
