data_PCOD9459626
_publ_section_title
;
Structure prediction by ZEFSAII (Michael W. Deem and Ramdas Pophale) SiO2 
 PCOD9459626
Probable space group: P B C A
;
_chemical_formula_sum "Si O2"
_cell_formula_units_Z 56
_cell_length_a 18.725850
_cell_length_b 19.173718
_cell_length_c 5.710263
_cell_angle_alpha 90.000000
_cell_angle_beta 90.000000
_cell_angle_gamma 90.000000
_cell_volume 2050.236623
_symmetry_space_group_name_H-M "P B C A"
_symmetry_group_IT_number 61
_symmetry_cell_setting 'orthorhombic'
loop_
_space_group_symop_operation_xyz
x,y,z
1/2-x,-y,1/2+z
1/2+x,1/2-y,-z
-x,1/2+y,1/2-z
-x,-y,-z
1/2+x,y,1/2-z
1/2-x,1/2+y,z
x,1/2-y,1/2+z
loop_
_atom_site_type_symbol
_atom_site_label
_atom_site_fract_x
_atom_site_fract_y
_atom_site_fract_z
Si Si1 0.260916 0.579998 0.453276
Si Si2 0.968668 0.823118 0.567591
Si Si3 0.112071 0.082179 0.778168
Si Si4 0.181469 0.215304 0.246985
Si Si5 0.923173 0.069263 0.431954
Si Si6 0.636918 0.510219 0.834696
Si Si7 0.624296 0.782025 0.976476
O O1 0.307827 0.595987 0.684053
O O2 0.276355 0.644154 0.287393
O O3 0.300468 0.512399 0.345458
O O4 0.179194 0.562576 0.497220
O O5 0.933391 0.855664 0.331061
O O6 0.904289 0.796246 0.725289
O O7 0.008714 0.891634 0.670425
O O8 0.036718 0.774164 0.517845
O O9 0.088841 0.006302 0.676679
O O10 0.114689 0.061568 0.046131
O O11 0.197684 0.257960 0.486849
O O12 0.926888 0.048926 0.707130
O O13 0.867637 0.134219 0.446620
O O14 0.649054 0.744364 0.734544
#
# Coordination Sequence:
#
# PCOD9459626 Si02
#       7
#     8   8   8   8   8   8   8
#     4  10  23  40  68  94 131 171 229 279 342 387
#     4   9  21  39  64  96 133 167 215 274 335 403
#     4  10  20  39  63  97 128 163 214 275 345 383
#     4  11  25  44  69  99 133 178 227 277 330 399
#     4   9  23  37  61  96 129 166 214 269 333 403
#     4  11  21  41  65  98 127 175 219 287 337 404
#     4  10  22  41  61  86 129 177 216 252 314 394
#
# _framework density 27.313921000000001
#
# number of rings (size 3 to 8) (size 9 to 14) (size 15 to 20)
#    0.857    1.143    1.429    1.286    6.000    0.571 
#    7.714    1.429    0.000    0.000    0.000    0.000 
#    0.000    0.000    0.000    0.000    0.000    0.000 
#
# Total GULP energy -312841.734999 kJ/mol
# GULP energy per Si atom -5586.459554 kJ/mol
# Density = 2.725175 g / cm^3
# Si number density = 27.313921 Si / 1000 Ang^3
#
#
#
# Elastic Constant Matrix: (Units=GPa)
#
#
# Indices 1 2 3 4 5 6 
#
# 1 63.4523 20.9388 27.7889 0.0000 0.0000 0.0000
# 2 20.9388 133.7613 57.8338 0.0000 0.0000 0.0000
# 3 27.7889 57.8338 129.1751 0.0000 0.0000 0.0000
# 4 0.0000 0.0000 0.0000 63.1106 0.0000 0.0000
# 5 0.0000 0.0000 0.0000 0.0000 31.3444 0.0000
# 6 0.0000 0.0000 0.0000 0.0000 0.0000 39.3147
#
#
#
# Elastic Compliance Matrix: (Units=1/GPa)
#
#
# Indices 1 2 3 4 5 6 
#
# 1 0.017604 -0.001387 -0.003166 0.000000 0.000000 0.000000
# 2 -0.001387 0.009380 -0.003901 0.000000 0.000000 0.000000
# 3 -0.003166 -0.003901 0.010169 0.000000 0.000000 0.000000
# 4 0.000000 0.000000 0.000000 0.015845 0.000000 0.000000
# 5 0.000000 0.000000 0.000000 0.000000 0.031904 0.000000
# 6 0.000000 0.000000 0.000000 0.000000 0.000000 0.025436
#
#
# Mechanical properties :
#
#
# Convention : Reuss Voigt Hill
#
# Bulk Modulus (GPa) = 49.39535 59.94575 54.67055
# Shear Modulus (GPa) = 37.31502 41.40910 39.36206
#
# Velocity S-wave (km/s) = 3.70016 3.89786 3.80030
# Velocity P-wave (km/s) = 6.03146 6.50018 6.27020
#
# Compressibility (1/GPa) = 0.02024482
#
# Stress axis : x y z
#
# Youngs Moduli (GPa) = 56.80485 106.61186 98.33633
#
# Poissons Ratio (x) = 0.14784 0.31136
# Poissons Ratio (y) = 0.07877 0.38363
# Poissons Ratio (z) = 0.17986 0.41591
#
# Static dielectric constant tensor:
#      x y z
#    x 2.163240 0.000000 0.000000 
#    y 0.000000 2.086790 0.000000 
#    z 0.000000 0.000000 2.284150 
# 
# From -- ./inp_files/1034.got.cif
#   From: 2010.05.17/outbox.cif.g08.bks.cpg/sg61_1_cif.got.tgz:1034.got - 2010.06.03 15:17:17.
