data_PCOD9459354
_publ_section_title
;
Structure prediction by ZEFSAII (Michael W. Deem and Ramdas Pophale) SiO2 
 PCOD9459354
Probable space group: P B C A
;
_chemical_formula_sum "Si O2"
_cell_formula_units_Z 56
_cell_length_a 11.404015
_cell_length_b 24.041325
_cell_length_c 7.436607
_cell_angle_alpha 90.000000
_cell_angle_beta 90.000000
_cell_angle_gamma 90.000000
_cell_volume 2038.876923
_symmetry_space_group_name_H-M "P B C A"
_symmetry_group_IT_number 61
_symmetry_cell_setting 'orthorhombic'
loop_
_space_group_symop_operation_xyz
x,y,z
1/2-x,-y,1/2+z
1/2+x,1/2-y,-z
-x,1/2+y,1/2-z
-x,-y,-z
1/2+x,y,1/2-z
1/2-x,1/2+y,z
x,1/2-y,1/2+z
loop_
_atom_site_type_symbol
_atom_site_label
_atom_site_fract_x
_atom_site_fract_y
_atom_site_fract_z
Si Si1 0.011233 0.401500 0.082070
Si Si2 0.709807 0.466164 0.355023
Si Si3 0.672134 0.425650 0.942400
Si Si4 0.970400 0.279241 0.480078
Si Si5 0.131724 0.200698 0.663826
Si Si6 0.926730 0.097828 0.997388
Si Si7 0.300546 0.324518 0.485341
O O1 0.084382 0.457030 0.051553
O O2 0.111534 0.354436 0.050375
O O3 0.973509 0.404203 0.291250
O O4 0.898175 0.373657 0.996757
O O5 0.700054 0.439357 0.154790
O O6 0.751027 0.529262 0.341456
O O7 0.807615 0.435020 0.474003
O O8 0.533782 0.432137 0.900314
O O9 0.698944 0.360225 0.915681
O O10 0.922090 0.337252 0.559714
O O11 0.870743 0.231776 0.464957
O O12 0.097469 0.254549 0.549083
O O13 0.013467 0.295622 0.283517
O O14 0.243551 0.190006 0.788965
#
# Coordination Sequence:
#
# PCOD9459354 Si02
#       7
#     8   8   8   8   8   8   8
#     4   9  18  36  64  89 114 171 209 246 318 382
#     4  11  22  41  68  90 128 169 223 265 317 384
#     4  11  23  42  65  94 124 175 215 264 323 385
#     4  10  23  37  66  93 122 172 207 258 323 385
#     4  10  20  40  60  90 126 161 210 251 315 390
#     4  10  19  43  61  89 129 172 210 256 334 387
#     4  11  20  39  65  92 131 164 211 262 319 388
#
# _framework density 27.466103
#
# number of rings (size 3 to 8) (size 9 to 14) (size 15 to 20)
#    0.000    1.714    5.714    0.429    0.000    6.286 
#    2.571    2.857    0.000    0.000    0.000    0.000 
#    0.000    0.000    0.000    0.000    0.000    0.000 
#
# Total GULP energy -312329.899310 kJ/mol
# GULP energy per Si atom -5577.319631 kJ/mol
# Density = 2.740359 g / cm^3
# Si number density = 27.466103 Si / 1000 Ang^3
#
#
#
# Elastic Constant Matrix: (Units=GPa)
#
#
# Indices 1 2 3 4 5 6 
#
# 1 132.0149 65.4573 29.5256 0.0000 0.0000 0.0000
# 2 65.4573 153.0078 13.7915 0.0000 0.0000 0.0000
# 3 29.5256 13.7915 33.1715 0.0000 0.0000 0.0000
# 4 0.0000 0.0000 0.0000 24.9179 0.0000 0.0000
# 5 0.0000 0.0000 0.0000 0.0000 18.9420 0.0000
# 6 0.0000 0.0000 0.0000 0.0000 0.0000 53.1597
#
#
#
# Elastic Compliance Matrix: (Units=1/GPa)
#
#
# Indices 1 2 3 4 5 6 
#
# 1 0.011557 -0.004173 -0.008551 0.000000 0.000000 0.000000
# 2 -0.004173 0.008297 0.000265 0.000000 0.000000 0.000000
# 3 -0.008551 0.000265 0.037648 0.000000 0.000000 0.000000
# 4 0.000000 0.000000 0.000000 0.040132 0.000000 0.000000
# 5 0.000000 0.000000 0.000000 0.000000 0.052793 0.000000
# 6 0.000000 0.000000 0.000000 0.000000 0.000000 0.018811
#
#
# Mechanical properties :
#
#
# Convention : Reuss Voigt Hill
#
# Bulk Modulus (GPa) = 30.69172 59.52699 45.10935
# Shear Modulus (GPa) = 24.38818 33.36522 28.87670
#
# Velocity S-wave (km/s) = 2.98306 3.48915 3.24598
# Velocity P-wave (km/s) = 4.80245 6.16053 5.52339
#
# Compressibility (1/GPa) = 0.03258208
#
# Stress axis : x y z
#
# Youngs Moduli (GPa) = 86.53018 120.52478 26.56203
#
# Poissons Ratio (x) = 0.50297 0.22714
# Poissons Ratio (y) = 0.36111 -0.00704
# Poissons Ratio (z) = 0.73995 -0.03193
#
# Static dielectric constant tensor:
#      x y z
#    x 2.239290 0.000000 0.000000 
#    y 0.000000 2.296000 0.000000 
#    z 0.000000 0.000000 2.291320 
# 
# From -- ./inp_files/5364.got.cif
#   From: 2010.05.17/outbox.cif.g08.bks.cpg/sg61_3_cif.got.tgz:5364.got - 2010.06.03 15:17:17.
