data_PCOD9459569
_publ_section_title
;
Structure prediction by ZEFSAII (Michael W. Deem and Ramdas Pophale) SiO2 
 PCOD9459569
Probable space group: P B C A
;
_chemical_formula_sum "Si O2"
_cell_formula_units_Z 48
_cell_length_a 9.531037
_cell_length_b 8.584114
_cell_length_c 27.777259
_cell_angle_alpha 90.000000
_cell_angle_beta 90.000000
_cell_angle_gamma 90.000000
_cell_volume 2272.610560
_symmetry_space_group_name_H-M "P B C A"
_symmetry_group_IT_number 61
_symmetry_cell_setting 'orthorhombic'
loop_
_space_group_symop_operation_xyz
x,y,z
1/2-x,-y,1/2+z
1/2+x,1/2-y,-z
-x,1/2+y,1/2-z
-x,-y,-z
1/2+x,y,1/2-z
1/2-x,1/2+y,z
x,1/2-y,1/2+z
loop_
_atom_site_type_symbol
_atom_site_label
_atom_site_fract_x
_atom_site_fract_y
_atom_site_fract_z
Si Si1 0.060680 0.726194 0.969996
Si Si2 0.930326 0.142801 0.230834
Si Si3 0.690467 0.953370 0.265817
Si Si4 0.236293 0.548775 0.126990
Si Si5 0.535338 0.304739 0.366181
Si Si6 0.772834 0.559104 0.982330
O O1 0.059114 0.729512 0.912340
O O2 0.898312 0.688667 0.982690
O O3 0.134416 0.876514 0.992264
O O4 0.153703 0.584388 0.990627
O O5 0.827250 0.994575 0.234761
O O6 0.856598 0.276727 0.261133
O O7 0.073574 0.075046 0.251530
O O8 0.965214 0.228830 0.180625
O O9 0.704029 0.982720 0.322739
O O10 0.313472 0.716629 0.126968
O O11 0.074459 0.489191 0.134138
O O12 0.263073 0.488120 0.072636
#
# Coordination Sequence:
#
# PCOD9459569 Si02
#       6
#     8   8   8   8   8   8
#     4  10  22  38  58  85 119 154 198 246 300 351
#     4  11  23  39  61  88 123 158 203 252 306 359
#     4  11  22  40  62  89 120 160 204 253 301 361
#     4  10  20  38  62  83 115 159 201 230 289 371
#     4  10  22  38  59  89 119 157 199 246 301 358
#     4  10  21  39  60  86 118 156 199 249 293 356
#
# _framework density 21.121084
#
# number of rings (size 3 to 8) (size 9 to 14) (size 15 to 20)
#    0.000    1.667    0.000    6.000    0.000    4.000 
#    0.000    5.000    0.000    0.000    0.000    0.000 
#    0.000    0.000    0.000    0.000    0.000    0.000 
#
# Total GULP energy -267318.139593 kJ/mol
# GULP energy per Si atom -5569.127908 kJ/mol
# Density = 2.107301 g / cm^3
# Si number density = 21.121084 Si / 1000 Ang^3
#
#
#
# Elastic Constant Matrix: (Units=GPa)
#
#
# Indices 1 2 3 4 5 6 
#
# 1 74.4115 29.7042 31.3128 0.0000 0.0000 0.0000
# 2 29.7042 55.8514 22.2950 0.0000 0.0000 0.0000
# 3 31.3128 22.2950 68.2637 0.0000 0.0000 0.0000
# 4 0.0000 0.0000 0.0000 18.2073 0.0000 0.0000
# 5 0.0000 0.0000 0.0000 0.0000 23.5258 0.0000
# 6 0.0000 0.0000 0.0000 0.0000 0.0000 45.1532
#
#
#
# Elastic Compliance Matrix: (Units=1/GPa)
#
#
# Indices 1 2 3 4 5 6 
#
# 1 0.019143 -0.007677 -0.006274 0.000000 0.000000 0.000000
# 2 -0.007677 0.023667 -0.004208 0.000000 0.000000 0.000000
# 3 -0.006274 -0.004208 0.018901 0.000000 0.000000 0.000000
# 4 0.000000 0.000000 0.000000 0.054923 0.000000 0.000000
# 5 0.000000 0.000000 0.000000 0.000000 0.042507 0.000000
# 6 0.000000 0.000000 0.000000 0.000000 0.000000 0.022147
#
#
# Mechanical properties :
#
#
# Convention : Reuss Voigt Hill
#
# Bulk Modulus (GPa) = 39.37945 40.57229 39.97587
# Shear Modulus (GPa) = 22.11690 25.05823 23.58756
#
# Velocity S-wave (km/s) = 3.23948 3.44816 3.34545
# Velocity P-wave (km/s) = 5.71641 5.92488 5.82158
#
# Compressibility (1/GPa) = 0.02539395
#
# Stress axis : x y z
#
# Youngs Moduli (GPa) = 52.23741 42.25212 52.90617
#
# Poissons Ratio (x) = 0.32436 0.33193
# Poissons Ratio (y) = 0.40102 0.22265
# Poissons Ratio (z) = 0.32773 0.17782
#
# Static dielectric constant tensor:
#      x y z
#    x 1.794810 0.000000 0.000000 
#    y 0.000000 1.853040 0.000000 
#    z 0.000000 0.000000 1.767620 
# 
# From -- ./inp_files/4579.got.cif
#   From: 2010.05.17/outbox.cif.g08.bks.cpg/sg61_3_cif.got.tgz:4579.got - 2010.06.03 15:17:17.
