data_PCOD9459029
_publ_section_title
;
Structure prediction by ZEFSAII (Michael W. Deem and Ramdas Pophale) SiO2 
 PCOD9459029
Probable space group: P B C A
;
_chemical_formula_sum "Si O2"
_cell_formula_units_Z 64
_cell_length_a 8.390085
_cell_length_b 13.808449
_cell_length_c 19.343943
_cell_angle_alpha 90.000000
_cell_angle_beta 90.000000
_cell_angle_gamma 90.000000
_cell_volume 2241.074349
_symmetry_space_group_name_H-M "P B C A"
_symmetry_group_IT_number 61
_symmetry_cell_setting 'orthorhombic'
loop_
_space_group_symop_operation_xyz
x,y,z
1/2-x,-y,1/2+z
1/2+x,1/2-y,-z
-x,1/2+y,1/2-z
-x,-y,-z
1/2+x,y,1/2-z
1/2-x,1/2+y,z
x,1/2-y,1/2+z
loop_
_atom_site_type_symbol
_atom_site_label
_atom_site_fract_x
_atom_site_fract_y
_atom_site_fract_z
Si Si1 0.939745 0.757823 0.899917
Si Si2 0.737294 0.202528 0.020936
Si Si3 0.744073 0.026852 0.731860
Si Si4 0.948064 0.011784 0.856368
Si Si5 0.476631 0.744751 0.857146
Si Si6 0.956160 0.456588 0.104224
Si Si7 0.715954 0.243821 0.266301
Si Si8 0.239961 0.521450 0.022435
O O1 0.103773 0.781231 0.936386
O O2 0.949054 0.642372 0.889001
O O3 0.914243 0.790983 0.822139
O O4 0.791605 0.769208 0.952955
O O5 0.582370 0.223103 0.067867
O O6 0.746288 0.091909 0.997841
O O7 0.798434 0.991320 0.806219
O O8 0.601041 0.981791 0.688173
O O9 0.891596 0.019157 0.679120
O O10 0.711760 0.140393 0.748616
O O11 0.983214 0.128171 0.865028
O O12 0.896236 0.964787 0.929453
O O13 0.624364 0.776112 0.808994
O O14 0.330435 0.787926 0.810099
O O15 0.806260 0.434843 0.052325
O O16 0.078922 0.530118 0.068540
#
# Coordination Sequence:
#
# PCOD9459029 Si02
#       8
#     8   8   8   8   8   8   8   8
#     4  11  20  35  57  82 111 145 187 228 273 325
#     4  11  21  34  54  81 114 147 179 224 277 333
#     4  10  18  31  56  82 107 137 184 234 272 312
#     4  10  18  32  53  84 110 137 180 231 274 318
#     4  10  18  31  52  78 106 139 177 224 275 321
#     4  10  20  36  57  80 109 150 187 227 275 328
#     4  10  19  32  55  85 109 134 182 237 274 317
#     4  10  22  37  54  80 118 150 180 222 280 339
#
# _framework density 28.557732999999999
#
# number of rings (size 3 to 8) (size 9 to 14) (size 15 to 20)
#    0.000    1.750    0.000    9.750    0.000    0.500 
#    0.000    0.000    0.000   16.500    0.000    0.000 
#    0.000    0.000    0.000    0.000    0.000    0.000 
#
# Total GULP energy -358106.763844 kJ/mol
# GULP energy per Si atom -5595.418185 kJ/mol
# Density = 2.849273 g / cm^3
# Si number density = 28.557733 Si / 1000 Ang^3
#
#
#
# Elastic Constant Matrix: (Units=GPa)
#
#
# Indices 1 2 3 4 5 6 
#
# 1 127.3308 28.2918 45.7852 0.0000 0.0000 0.0000
# 2 28.2918 82.3918 20.7067 0.0000 0.0000 0.0000
# 3 45.7852 20.7067 180.7805 0.0000 0.0000 0.0000
# 4 0.0000 0.0000 0.0000 21.2776 0.0000 0.0000
# 5 0.0000 0.0000 0.0000 0.0000 77.0559 0.0000
# 6 0.0000 0.0000 0.0000 0.0000 0.0000 23.0332
#
#
#
# Elastic Compliance Matrix: (Units=1/GPa)
#
#
# Indices 1 2 3 4 5 6 
#
# 1 0.009166 -0.002640 -0.002019 0.000000 0.000000 0.000000
# 2 -0.002640 0.013257 -0.000850 0.000000 0.000000 0.000000
# 3 -0.002019 -0.000850 0.006140 0.000000 0.000000 0.000000
# 4 0.000000 0.000000 0.000000 0.046998 0.000000 0.000000
# 5 0.000000 0.000000 0.000000 0.000000 0.012978 0.000000
# 6 0.000000 0.000000 0.000000 0.000000 0.000000 0.043416
#
#
# Mechanical properties :
#
#
# Convention : Reuss Voigt Hill
#
# Bulk Modulus (GPa) = 56.99395 64.45229 60.72312
# Shear Modulus (GPa) = 33.59737 43.98798 38.79268
#
# Velocity S-wave (km/s) = 3.43369 3.92895 3.68964
# Velocity P-wave (km/s) = 5.97671 6.57269 6.28177
#
# Compressibility (1/GPa) = 0.01754572
#
# Stress axis : x y z
#
# Youngs Moduli (GPa) = 109.09692 75.43037 162.85932
#
# Poissons Ratio (x) = 0.19914 0.32882
# Poissons Ratio (y) = 0.28802 0.13841
# Poissons Ratio (z) = 0.22027 0.06411
#
# Static dielectric constant tensor:
#      x y z
#    x 2.272080 0.000000 0.000000 
#    y 0.000000 2.322440 0.000000 
#    z 0.000000 0.000000 2.144050 
# 
# From -- ./inp_files/9075.got.cif
#   From: 2010.05.17/outbox.cif.g08.bks.cpg/sg61_5_cif.got.tgz:9075.got - 2010.06.03 15:17:17.
