data_PCOD9459979
_publ_section_title
;
Structure prediction by ZEFSAII (Michael W. Deem and Ramdas Pophale) SiO2 
 PCOD9459979
Probable space group: P B C A
;
_chemical_formula_sum "Si O2"
_cell_formula_units_Z 48
_cell_length_a 14.550508
_cell_length_b 10.011569
_cell_length_c 14.627399
_cell_angle_alpha 90.000000
_cell_angle_beta 90.000000
_cell_angle_gamma 90.000000
_cell_volume 2130.823162
_symmetry_space_group_name_H-M "P B C A"
_symmetry_group_IT_number 61
_symmetry_cell_setting 'orthorhombic'
loop_
_space_group_symop_operation_xyz
x,y,z
1/2-x,-y,1/2+z
1/2+x,1/2-y,-z
-x,1/2+y,1/2-z
-x,-y,-z
1/2+x,y,1/2-z
1/2-x,1/2+y,z
x,1/2-y,1/2+z
loop_
_atom_site_type_symbol
_atom_site_label
_atom_site_fract_x
_atom_site_fract_y
_atom_site_fract_z
Si Si1 0.576267 0.479244 0.290298
Si Si2 0.077974 0.388753 0.007992
Si Si3 0.052663 0.195502 0.244777
Si Si4 0.971765 0.361221 0.543777
Si Si5 0.741239 0.391106 0.833366
Si Si6 0.724411 0.639053 0.966201
O O1 0.598159 0.399745 0.383249
O O2 0.545505 0.352367 0.229192
O O3 0.496328 0.586541 0.308469
O O4 0.670600 0.559690 0.275158
O O5 0.183052 0.391701 0.974722
O O6 0.029964 0.249537 0.989920
O O7 0.000000 0.500000 0.000000
O O8 0.158337 0.158164 0.229392
O O9 0.999310 0.159254 0.149594
O O10 0.863957 0.342012 0.529210
O O11 0.000000 0.500000 0.500000
O O12 0.708820 0.514594 0.897126
O O13 0.766580 0.272167 0.903794
#
# Coordination Sequence:
#
# PCOD9459979 Si02
#       6
#     8   8   8   8   8   8
#     4  10  24  39  62  89 125 169 206 263 310 392
#     4  10  21  40  60  91 123 162 209 252 327 375
#     4  11  23  41  61  92 127 166 217 257 326 382
#     4  11  20  35  63  95 119 154 214 264 305 381
#     4  11  20  41  64  87 119 165 211 244 327 388
#     4  11  20  37  65  89 121 163 202 264 314 380
#
# _framework density 22.526506000000001
#
# number of rings (size 3 to 8) (size 9 to 14) (size 15 to 20)
#    0.000    1.333    6.667    2.000    2.333    1.333 
#    3.000    0.000    0.000    0.000    0.000    0.000 
#    0.000    0.000    0.000    0.000    0.000    0.000 
#
# Total GULP energy -267791.328702 kJ/mol
# GULP energy per Si atom -5578.986015 kJ/mol
# Density = 2.247523 g / cm^3
# Si number density = 22.526506 Si / 1000 Ang^3
#
#
#
# Elastic Constant Matrix: (Units=GPa)
#
#
# Indices 1 2 3 4 5 6 
#
# 1 175.8551 42.0482 4.3068 0.0000 0.0000 0.0000
# 2 42.0482 148.1905 6.5528 0.0000 0.0000 0.0000
# 3 4.3068 6.5528 37.9216 0.0000 0.0000 0.0000
# 4 0.0000 0.0000 0.0000 26.3563 0.0000 0.0000
# 5 0.0000 0.0000 0.0000 0.0000 31.9790 0.0000
# 6 0.0000 0.0000 0.0000 0.0000 0.0000 41.0828
#
#
#
# Elastic Compliance Matrix: (Units=1/GPa)
#
#
# Indices 1 2 3 4 5 6 
#
# 1 0.006106 -0.001715 -0.000397 0.000000 0.000000 0.000000
# 2 -0.001715 0.007282 -0.001063 0.000000 0.000000 0.000000
# 3 -0.000397 -0.001063 0.026599 0.000000 0.000000 0.000000
# 4 0.000000 0.000000 0.000000 0.037942 0.000000 0.000000
# 5 0.000000 0.000000 0.000000 0.000000 0.031271 0.000000
# 6 0.000000 0.000000 0.000000 0.000000 0.000000 0.024341
#
#
# Mechanical properties :
#
#
# Convention : Reuss Voigt Hill
#
# Bulk Modulus (GPa) = 29.73028 51.97586 40.85307
# Shear Modulus (GPa) = 33.08989 40.48760 36.78875
#
# Velocity S-wave (km/s) = 3.83682 4.24409 4.04559
# Velocity P-wave (km/s) = 5.73191 6.86584 6.32434
#
# Compressibility (1/GPa) = 0.03363574
#
# Stress axis : x y z
#
# Youngs Moduli (GPa) = 163.76503 137.32989 37.59529
#
# Poissons Ratio (x) = 0.23553 0.01493
# Poissons Ratio (y) = 0.28087 0.03998
# Poissons Ratio (z) = 0.06504 0.14605
#
# Static dielectric constant tensor:
#      x y z
#    x 1.883130 0.000000 0.000000 
#    y 0.000000 1.850650 0.000000 
#    z 0.000000 0.000000 2.017330 
# 
# From -- ./inp_files/7045.got.cif
#   From: 2010.05.17/outbox.cif.g08.bks.cpg/sg61_4_cif.got.tgz:7045.got - 2010.06.03 15:17:17.
