data_PCOD9459325
_publ_section_title
;
Structure prediction by ZEFSAII (Michael W. Deem and Ramdas Pophale) SiO2 
 PCOD9459325
Probable space group: P B C A
;
_chemical_formula_sum "Si O2"
_cell_formula_units_Z 40
_cell_length_a 12.234372
_cell_length_b 9.035744
_cell_length_c 13.687346
_cell_angle_alpha 90.000000
_cell_angle_beta 90.000000
_cell_angle_gamma 90.000000
_cell_volume 1513.090294
_symmetry_space_group_name_H-M "P B C A"
_symmetry_group_IT_number 61
_symmetry_cell_setting 'orthorhombic'
loop_
_space_group_symop_operation_xyz
x,y,z
1/2-x,-y,1/2+z
1/2+x,1/2-y,-z
-x,1/2+y,1/2-z
-x,-y,-z
1/2+x,y,1/2-z
1/2-x,1/2+y,z
x,1/2-y,1/2+z
loop_
_atom_site_type_symbol
_atom_site_label
_atom_site_fract_x
_atom_site_fract_y
_atom_site_fract_z
Si Si1 0.577715 0.518282 0.284347
Si Si2 0.312649 0.577648 0.958780
Si Si3 0.514889 0.206868 0.041761
Si Si4 0.285581 0.853241 0.069015
Si Si5 0.389539 0.305895 0.339448
O O1 0.548061 0.628951 0.373135
O O2 0.672677 0.410933 0.327871
O O3 0.466694 0.417541 0.274868
O O4 0.617590 0.638848 0.204746
O O5 0.429110 0.639904 0.926420
O O6 0.225691 0.623814 0.875156
O O7 0.280837 0.679241 0.054342
O O8 0.316776 0.423485 0.014896
O O9 0.621504 0.107153 0.012698
O O10 0.459253 0.212704 0.937669
#
# Coordination Sequence:
#
# PCOD9459325 Si02
#       5
#     8   8   8   8   8
#     4  11  21  43  66  93 134 173 222 277 328 387
#     4  10  19  39  67  89 125 173 219 261 331 386
#     4   9  20  41  70  82 132 175 220 260 338 386
#     4   9  19  39  66  84 124 173 212 263 325 385
#     4  11  21  42  67  98 128 176 220 273 333 390
#
# _framework density 26.435963999999998
#
# number of rings (size 3 to 8) (size 9 to 14) (size 15 to 20)
#    1.200    0.800    4.000    1.200    0.000    1.600 
#    7.200    4.000    0.000    0.000    0.000    0.000 
#    0.000    0.000    0.000    0.000    0.000    0.000 
#
# Total GULP energy -223054.657074 kJ/mol
# GULP energy per Si atom -5576.366427 kJ/mol
# Density = 2.637579 g / cm^3
# Si number density = 26.435964 Si / 1000 Ang^3
#
#
#
# Elastic Constant Matrix: (Units=GPa)
#
#
# Indices 1 2 3 4 5 6 
#
# 1 66.7277 -22.0301 16.4425 0.0000 0.0000 0.0000
# 2 -22.0301 60.3881 -0.2861 0.0000 0.0000 0.0000
# 3 16.4425 -0.2861 62.2779 0.0000 0.0000 0.0000
# 4 0.0000 0.0000 0.0000 -36.8436 0.0000 0.0000
# 5 0.0000 0.0000 0.0000 0.0000 23.0007 0.0000
# 6 0.0000 0.0000 0.0000 0.0000 0.0000 25.8020
#
#
#
# Elastic Compliance Matrix: (Units=1/GPa)
#
#
# Indices 1 2 3 4 5 6 
#
# 1 0.018381 0.006683 -0.004822 0.000000 0.000000 0.000000
# 2 0.006683 0.018989 -0.001677 0.000000 0.000000 0.000000
# 3 -0.004822 -0.001677 0.017322 0.000000 0.000000 0.000000
# 4 0.000000 0.000000 0.000000 -0.027142 0.000000 0.000000
# 5 0.000000 0.000000 0.000000 0.000000 0.043477 0.000000
# 6 0.000000 0.000000 0.000000 0.000000 0.000000 0.038757
#
#
# Mechanical properties :
#
#
# Convention : Reuss Voigt Hill
#
# Bulk Modulus (GPa) = 18.16216 19.73847 18.95032
# Shear Modulus (GPa) = 39.13249 15.40964 27.27107
#
# Velocity S-wave (km/s) = 3.85161 2.41696 3.21532
# Velocity P-wave (km/s) = 5.16382 3.90790 4.57912
#
# Compressibility (1/GPa) = 0.05505952
#
# Stress axis : x y z
#
# Youngs Moduli (GPa) = 54.40467 52.66070 57.72844
#
# Poissons Ratio (x) = -0.35191 0.27838
# Poissons Ratio (y) = -0.36357 0.09682
# Poissons Ratio (z) = 0.26235 0.08832
#
# Static dielectric constant tensor:
#      x y z
#    x 2.153560 0.000000 0.000000 
#    y 0.000000 2.152010 0.000000 
#    z 0.000000 0.000000 2.055280 
# 
# From -- ./inp_files/7699.got.cif
#   From: 2010.05.17/outbox.cif.g08.bks.cpg/sg61_4_cif.got.tgz:7699.got - 2010.06.03 15:17:17.
