data_PCOD9459428
_publ_section_title
;
Structure prediction by ZEFSAII (Michael W. Deem and Ramdas Pophale) SiO2 
 PCOD9459428
Probable space group: P B C A
;
_chemical_formula_sum "Si O2"
_cell_formula_units_Z 64
_cell_length_a 8.137511
_cell_length_b 17.435758
_cell_length_c 19.954351
_cell_angle_alpha 90.000000
_cell_angle_beta 90.000000
_cell_angle_gamma 90.000000
_cell_volume 2831.196603
_symmetry_space_group_name_H-M "P B C A"
_symmetry_group_IT_number 61
_symmetry_cell_setting 'orthorhombic'
loop_
_space_group_symop_operation_xyz
x,y,z
1/2-x,-y,1/2+z
1/2+x,1/2-y,-z
-x,1/2+y,1/2-z
-x,-y,-z
1/2+x,y,1/2-z
1/2-x,1/2+y,z
x,1/2-y,1/2+z
loop_
_atom_site_type_symbol
_atom_site_label
_atom_site_fract_x
_atom_site_fract_y
_atom_site_fract_z
Si Si1 0.514920 0.316847 0.811904
Si Si2 0.332366 0.092962 0.219396
Si Si3 0.515219 0.353082 0.593718
Si Si4 0.159860 0.285819 0.551919
Si Si5 0.672531 0.428479 0.319315
Si Si6 0.460618 0.879762 0.049816
Si Si7 0.690258 0.195305 0.593908
Si Si8 0.472840 0.164567 0.722493
O O1 0.697010 0.342698 0.792254
O O2 0.403282 0.388345 0.791654
O O3 0.530066 0.304549 0.890481
O O4 0.469671 0.242523 0.766854
O O5 0.475971 0.106291 0.163918
O O6 0.263096 0.009089 0.207222
O O7 0.342342 0.311056 0.573550
O O8 0.536531 0.405513 0.527621
O O9 0.654938 0.287542 0.601693
O O10 0.111304 0.319727 0.479666
O O11 0.155941 0.194714 0.546125
O O12 0.616095 0.435442 0.395679
O O13 0.800010 0.358726 0.309707
O O14 0.521163 0.402327 0.273677
O O15 0.631827 0.844437 0.080585
O O16 0.603711 0.166011 0.661543
#
# Coordination Sequence:
#
# PCOD9459428 Si02
#       8
#     8   8   8   8   8   8   8   8
#     4  11  22  39  65  90 119 166 210 261 302 380
#     4  11  24  41  62  91 129 165 209 258 326 373
#     4   9  19  38  60  90 127 165 210 258 311 374
#     4   9  19  36  60  92 125 156 208 267 311 355
#     4  12  25  41  61  91 131 167 202 266 325 378
#     4  10  20  35  61  92 126 166 209 258 317 368
#     4  10  20  35  62  96 120 155 211 268 304 369
#     4  12  23  39  65  92 121 164 215 262 313 374
#
# _framework density 22.605284000000001
#
# number of rings (size 3 to 8) (size 9 to 14) (size 15 to 20)
#    0.000    1.500    2.500    3.000    1.750    1.500 
#    0.000    0.000    0.000   13.500    0.000    0.000 
#    0.000    0.000    0.000    0.000    0.000    0.000 
#
# Total GULP energy -357036.352132 kJ/mol
# GULP energy per Si atom -5578.693002 kJ/mol
# Density = 2.255383 g / cm^3
# Si number density = 22.605284 Si / 1000 Ang^3
#
#
#
# Elastic Constant Matrix: (Units=GPa)
#
#
# Indices 1 2 3 4 5 6 
#
# 1 45.7379 1.5009 2.7156 0.0000 0.0000 0.0000
# 2 1.5009 62.5861 20.5300 0.0000 0.0000 0.0000
# 3 2.7156 20.5300 98.2184 0.0000 0.0000 0.0000
# 4 0.0000 0.0000 0.0000 21.2316 0.0000 0.0000
# 5 0.0000 0.0000 0.0000 0.0000 21.5180 0.0000
# 6 0.0000 0.0000 0.0000 0.0000 0.0000 15.9071
#
#
#
# Elastic Compliance Matrix: (Units=1/GPa)
#
#
# Indices 1 2 3 4 5 6 
#
# 1 0.021907 -0.000351 -0.000532 0.000000 0.000000 0.000000
# 2 -0.000351 0.017160 -0.003577 0.000000 0.000000 0.000000
# 3 -0.000532 -0.003577 0.010944 0.000000 0.000000 0.000000
# 4 0.000000 0.000000 0.000000 0.047100 0.000000 0.000000
# 5 0.000000 0.000000 0.000000 0.000000 0.046473 0.000000
# 6 0.000000 0.000000 0.000000 0.000000 0.000000 0.062865
#
#
# Mechanical properties :
#
#
# Convention : Reuss Voigt Hill
#
# Bulk Modulus (GPa) = 24.33685 28.44841 26.39263
# Shear Modulus (GPa) = 21.82787 23.85106 22.83947
#
# Velocity S-wave (km/s) = 3.11080 3.25177 3.18206
# Velocity P-wave (km/s) = 4.86745 5.16825 5.02011
#
# Compressibility (1/GPa) = 0.04108995
#
# Stress axis : x y z
#
# Youngs Moduli (GPa) = 45.64789 58.27575 91.37585
#
# Poissons Ratio (x) = 0.02044 0.04865
# Poissons Ratio (y) = 0.01601 0.32686
# Poissons Ratio (z) = 0.02430 0.20846
#
# Static dielectric constant tensor:
#      x y z
#    x 1.889990 0.000000 0.000000 
#    y 0.000000 1.814780 0.000000 
#    z 0.000000 0.000000 1.901370 
# 
# From -- ./inp_files/10182.got.cif
#   From: 2010.05.17/outbox.cif.g08.bks.cpg/sg61_6_cif.got.tgz:10182.got - 2010.06.03 15:17:17.
