data_PCOD9459403
_publ_section_title
;
Structure prediction by ZEFSAII (Michael W. Deem and Ramdas Pophale) SiO2 
 PCOD9459403
Probable space group: P B C A
;
_chemical_formula_sum "Si O2"
_cell_formula_units_Z 40
_cell_length_a 7.720245
_cell_length_b 11.065509
_cell_length_c 18.627641
_cell_angle_alpha 90.000000
_cell_angle_beta 90.000000
_cell_angle_gamma 90.000000
_cell_volume 1591.330321
_symmetry_space_group_name_H-M "P B C A"
_symmetry_group_IT_number 61
_symmetry_cell_setting 'orthorhombic'
loop_
_space_group_symop_operation_xyz
x,y,z
1/2-x,-y,1/2+z
1/2+x,1/2-y,-z
-x,1/2+y,1/2-z
-x,-y,-z
1/2+x,y,1/2-z
1/2-x,1/2+y,z
x,1/2-y,1/2+z
loop_
_atom_site_type_symbol
_atom_site_label
_atom_site_fract_x
_atom_site_fract_y
_atom_site_fract_z
Si Si1 0.721055 0.747056 0.284303
Si Si2 0.568031 0.564759 0.886239
Si Si3 0.430074 0.749968 0.002880
Si Si4 0.420782 0.195276 0.355711
Si Si5 0.862192 0.103356 0.414081
O O1 0.620239 0.862589 0.315055
O O2 0.728318 0.725318 0.199766
O O3 0.633935 0.636580 0.329749
O O4 0.916157 0.749089 0.312397
O O5 0.457615 0.446370 0.867061
O O6 0.751480 0.517922 0.919533
O O7 0.470252 0.644360 0.945276
O O8 0.576292 0.753188 0.066171
O O9 0.267521 0.704680 0.050439
O O10 0.459296 0.871137 0.955391
#
# Coordination Sequence:
#
# PCOD9459403 Si02
#       5
#     8   8   8   8   8
#     4   9  20  34  51  77 109 139 175 219 263 321
#     4   9  18  36  57  75 108 144 174 222 277 318
#     4   9  18  35  57  79 103 136 179 225 269 319
#     4  10  20  35  54  80 107 139 182 223 268 322
#     4   9  18  34  53  77 106 138 175 219 268 320
#
# _framework density 25.136202000000001
#
# number of rings (size 3 to 8) (size 9 to 14) (size 15 to 20)
#    0.000    3.200    0.000    2.400    0.000    6.400 
#    0.000   13.000    0.000    0.000    0.000    1.400 
#    0.000    0.000    0.000    0.000    0.000    0.000 
#
# Total GULP energy -223254.369143 kJ/mol
# GULP energy per Si atom -5581.359229 kJ/mol
# Density = 2.507899 g / cm^3
# Si number density = 25.136202 Si / 1000 Ang^3
#
#
#
# Elastic Constant Matrix: (Units=GPa)
#
#
# Indices 1 2 3 4 5 6 
#
# 1 38.1771 2.1853 10.9156 0.0000 0.0000 0.0000
# 2 2.1853 45.0195 17.9255 0.0000 0.0000 0.0000
# 3 10.9156 17.9255 130.4604 0.0000 0.0000 0.0000
# 4 0.0000 0.0000 0.0000 27.7151 0.0000 0.0000
# 5 0.0000 0.0000 0.0000 0.0000 23.7413 0.0000
# 6 0.0000 0.0000 0.0000 0.0000 0.0000 6.1566
#
#
#
# Elastic Compliance Matrix: (Units=1/GPa)
#
#
# Indices 1 2 3 4 5 6 
#
# 1 0.026844 -0.000432 -0.002187 0.000000 0.000000 0.000000
# 2 -0.000432 0.023505 -0.003193 0.000000 0.000000 0.000000
# 3 -0.002187 -0.003193 0.008287 0.000000 0.000000 0.000000
# 4 0.000000 0.000000 0.000000 0.036081 0.000000 0.000000
# 5 0.000000 0.000000 0.000000 0.000000 0.042121 0.000000
# 6 0.000000 0.000000 0.000000 0.000000 0.000000 0.162428
#
#
# Mechanical properties :
#
#
# Convention : Reuss Voigt Hill
#
# Bulk Modulus (GPa) = 21.27169 30.63440 25.95304
# Shear Modulus (GPa) = 15.31109 23.69797 19.50453
#
# Velocity S-wave (km/s) = 2.47072 3.07381 2.78862
# Velocity P-wave (km/s) = 4.07679 4.98112 4.55147
#
# Compressibility (1/GPa) = 0.04701084
#
# Stress axis : x y z
#
# Youngs Moduli (GPa) = 37.25272 42.54391 120.67242
#
# Poissons Ratio (x) = 0.01840 0.26386
# Poissons Ratio (y) = 0.01611 0.38536
# Poissons Ratio (z) = 0.08146 0.13586
#
# Static dielectric constant tensor:
#      x y z
#    x 2.161780 0.000000 0.000000 
#    y 0.000000 1.980720 0.000000 
#    z 0.000000 0.000000 1.992620 
# 
# From -- ./inp_files/2214.got.cif
#   From: 2010.05.17/outbox.cif.g08.bks.cpg/sg61_2_cif.got.tgz:2214.got - 2010.06.03 15:17:17.
