data_PCOD9459259
_publ_section_title
;
Structure prediction by ZEFSAII (Michael W. Deem and Ramdas Pophale) SiO2 
 PCOD9459259
Probable space group: P B C A
;
_chemical_formula_sum "Si O2"
_cell_formula_units_Z 48
_cell_length_a 9.150061
_cell_length_b 15.086202
_cell_length_c 16.081224
_cell_angle_alpha 90.000000
_cell_angle_beta 90.000000
_cell_angle_gamma 90.000000
_cell_volume 2219.846831
_symmetry_space_group_name_H-M "P B C A"
_symmetry_group_IT_number 61
_symmetry_cell_setting 'orthorhombic'
loop_
_space_group_symop_operation_xyz
x,y,z
1/2-x,-y,1/2+z
1/2+x,1/2-y,-z
-x,1/2+y,1/2-z
-x,-y,-z
1/2+x,y,1/2-z
1/2-x,1/2+y,z
x,1/2-y,1/2+z
loop_
_atom_site_type_symbol
_atom_site_label
_atom_site_fract_x
_atom_site_fract_y
_atom_site_fract_z
Si Si1 0.800573 0.067406 0.772241
Si Si2 0.974074 0.684597 0.047213
Si Si3 0.491681 0.791824 0.692853
Si Si4 0.800328 0.797374 0.163183
Si Si5 0.048607 0.549288 0.195184
Si Si6 0.760290 0.788590 0.414832
O O1 0.706052 0.102758 0.693631
O O2 0.805114 0.148301 0.840094
O O3 0.709547 0.989873 0.816146
O O4 0.941780 0.028602 0.726391
O O5 0.869799 0.764219 0.079368
O O6 0.994937 0.605672 0.114869
O O7 0.128057 0.736369 0.040931
O O8 0.876737 0.653791 0.968720
O O9 0.405159 0.749695 0.769974
O O10 0.633976 0.736071 0.669152
O O11 0.549846 0.884151 0.726499
O O12 0.368129 0.786152 0.623258
#
# Coordination Sequence:
#
# PCOD9459259 Si02
#       6
#     8   8   8   8   8   8
#     4  11  21  36  60  90 121 150 193 249 300 350
#     4  11  23  40  61  84 116 160 204 243 294 357
#     4  10  19  36  59  84 116 157 203 240 284 354
#     4  10  19  36  59  84 114 156 203 242 285 349
#     4  11  21  36  60  89 119 151 193 246 302 352
#     4  11  23  40  61  87 120 160 204 245 291 355
#
# _framework density 21.623113
#
# number of rings (size 3 to 8) (size 9 to 14) (size 15 to 20)
#    0.000    1.333    0.000   11.000    0.000    0.667 
#    0.000    1.667    0.000    8.000    0.000    0.000 
#    0.000    0.000    0.000    0.000    0.000    0.000 
#
# Total GULP energy -267348.860877 kJ/mol
# GULP energy per Si atom -5569.767935 kJ/mol
# Density = 2.157390 g / cm^3
# Si number density = 21.623113 Si / 1000 Ang^3
#
#
#
# Elastic Constant Matrix: (Units=GPa)
#
#
# Indices 1 2 3 4 5 6 
#
# 1 132.3365 13.1877 25.8994 0.0000 0.0000 0.0000
# 2 13.1877 48.9421 -8.4865 0.0000 0.0000 0.0000
# 3 25.8994 -8.4865 42.4467 0.0000 0.0000 0.0000
# 4 0.0000 0.0000 0.0000 23.5612 0.0000 0.0000
# 5 0.0000 0.0000 0.0000 0.0000 25.5652 0.0000
# 6 0.0000 0.0000 0.0000 0.0000 0.0000 35.2864
#
#
#
# Elastic Compliance Matrix: (Units=1/GPa)
#
#
# Indices 1 2 3 4 5 6 
#
# 1 0.009141 -0.003553 -0.006288 0.000000 0.000000 0.000000
# 2 -0.003553 0.022547 0.006676 0.000000 0.000000 0.000000
# 3 -0.006288 0.006676 0.028730 0.000000 0.000000 0.000000
# 4 0.000000 0.000000 0.000000 0.042443 0.000000 0.000000
# 5 0.000000 0.000000 0.000000 0.000000 0.039116 0.000000
# 6 0.000000 0.000000 0.000000 0.000000 0.000000 0.028340
#
#
# Mechanical properties :
#
#
# Convention : Reuss Voigt Hill
#
# Bulk Modulus (GPa) = 18.48828 31.65850 25.07339
# Shear Modulus (GPa) = 25.68352 29.75753 27.72053
#
# Velocity S-wave (km/s) = 3.45016 3.71373 3.58437
# Velocity P-wave (km/s) = 4.94371 5.74995 5.36200
#
# Compressibility (1/GPa) = 0.05408832
#
# Stress axis : x y z
#
# Youngs Moduli (GPa) = 109.39428 44.35092 34.80625
#
# Poissons Ratio (x) = 0.15760 0.21887
# Poissons Ratio (y) = 0.38873 -0.23237
# Poissons Ratio (z) = 0.68788 -0.29609
#
# Static dielectric constant tensor:
#      x y z
#    x 1.863540 0.000000 0.000000 
#    y 0.000000 1.817280 0.000000 
#    z 0.000000 0.000000 1.901610 
# 
# From -- ./inp_files/2881.got.cif
#   From: 2010.05.17/outbox.cif.g08.bks.cpg/sg61_2_cif.got.tgz:2881.got - 2010.06.03 15:17:17.
