data_PCOD9459386
_publ_section_title
;
Structure prediction by ZEFSAII (Michael W. Deem and Ramdas Pophale) SiO2 
 PCOD9459386
Probable space group: P B C A
;
_chemical_formula_sum "Si O2"
_cell_formula_units_Z 64
_cell_length_a 8.639086
_cell_length_b 17.753302
_cell_length_c 22.486546
_cell_angle_alpha 90.000000
_cell_angle_beta 90.000000
_cell_angle_gamma 90.000000
_cell_volume 3448.813341
_symmetry_space_group_name_H-M "P B C A"
_symmetry_group_IT_number 61
_symmetry_cell_setting 'orthorhombic'
loop_
_space_group_symop_operation_xyz
x,y,z
1/2-x,-y,1/2+z
1/2+x,1/2-y,-z
-x,1/2+y,1/2-z
-x,-y,-z
1/2+x,y,1/2-z
1/2-x,1/2+y,z
x,1/2-y,1/2+z
loop_
_atom_site_type_symbol
_atom_site_label
_atom_site_fract_x
_atom_site_fract_y
_atom_site_fract_z
Si Si1 0.364272 0.935286 0.148604
Si Si2 0.426601 0.417750 0.932491
Si Si3 0.671692 0.013391 0.140962
Si Si4 0.567000 0.587381 0.931294
Si Si5 0.628126 0.364837 0.171266
Si Si6 0.451143 0.188553 0.782661
Si Si7 0.953449 0.645966 0.315366
Si Si8 0.785872 0.060109 0.255269
O O1 0.507381 0.981989 0.120928
O O2 0.228950 0.917024 0.103219
O O3 0.443874 0.860232 0.172876
O O4 0.305750 0.985182 0.205041
O O5 0.255740 0.435602 0.907280
O O6 0.507785 0.500251 0.930545
O O7 0.509947 0.363262 0.885235
O O8 0.424369 0.390199 0.999948
O O9 0.787533 0.945964 0.162375
O O10 0.655190 0.054695 0.203763
O O11 0.452953 0.641107 0.893095
O O12 0.772616 0.316490 0.196116
O O13 0.491111 0.350601 0.219210
O O14 0.505192 0.273989 0.787796
O O15 0.069127 0.585994 0.284130
O O16 0.778585 0.622637 0.300410
#
# Coordination Sequence:
#
# PCOD9459386 Si02
#       8
#     8   8   8   8   8   8   8   8
#     4  11  20  33  58  85 111 149 196 239 283 348
#     4   9  20  37  56  81 117 151 193 235 289 339
#     4   9  19  32  55  84 111 144 186 239 284 336
#     4  10  20  36  59  83 108 155 198 237 279 342
#     4  10  20  34  54  80 111 146 189 235 280 345
#     4  11  22  35  55  85 117 146 191 241 296 351
#     4  11  22  36  56  84 119 152 184 242 299 341
#     4  11  19  33  54  83 113 146 186 236 294 338
#
# _framework density 18.557106999999998
#
# number of rings (size 3 to 8) (size 9 to 14) (size 15 to 20)
#    0.000    1.750    3.750    1.500    1.750    0.500 
#    0.000    1.250    0.000    0.000    0.000    0.000 
#    0.000    0.000    0.000    0.000    0.000    0.000 
#
# Total GULP energy -356386.835217 kJ/mol
# GULP energy per Si atom -5568.544300 kJ/mol
# Density = 1.851487 g / cm^3
# Si number density = 18.557107 Si / 1000 Ang^3
#
#
#
# Elastic Constant Matrix: (Units=GPa)
#
#
# Indices 1 2 3 4 5 6 
#
# 1 68.3828 5.4062 51.5099 0.0000 0.0000 0.0000
# 2 5.4062 20.8786 3.1405 0.0000 0.0000 0.0000
# 3 51.5099 3.1405 134.9232 0.0000 0.0000 0.0000
# 4 0.0000 0.0000 0.0000 10.9869 0.0000 0.0000
# 5 0.0000 0.0000 0.0000 0.0000 23.1606 0.0000
# 6 0.0000 0.0000 0.0000 0.0000 0.0000 17.7135
#
#
#
# Elastic Compliance Matrix: (Units=1/GPa)
#
#
# Indices 1 2 3 4 5 6 
#
# 1 0.020891 -0.004225 -0.007877 0.000000 0.000000 0.000000
# 2 -0.004225 0.048918 0.000474 0.000000 0.000000 0.000000
# 3 -0.007877 0.000474 0.010408 0.000000 0.000000 0.000000
# 4 0.000000 0.000000 0.000000 0.091017 0.000000 0.000000
# 5 0.000000 0.000000 0.000000 0.000000 0.043177 0.000000
# 6 0.000000 0.000000 0.000000 0.000000 0.000000 0.056454
#
#
# Mechanical properties :
#
#
# Convention : Reuss Voigt Hill
#
# Bulk Modulus (GPa) = 17.55553 38.25530 27.90542
# Shear Modulus (GPa) = 15.96891 21.31408 18.64149
#
# Velocity S-wave (km/s) = 2.93666 3.39273 3.17290
# Velocity P-wave (km/s) = 4.58033 6.00059 5.33791
#
# Compressibility (1/GPa) = 0.05696212
#
# Stress axis : x y z
#
# Youngs Moduli (GPa) = 47.86696 20.44221 96.08048
#
# Poissons Ratio (x) = 0.08636 0.75686
# Poissons Ratio (y) = 0.20222 -0.04556
# Poissons Ratio (z) = 0.37707 -0.00969
#
# Static dielectric constant tensor:
#      x y z
#    x 1.715440 0.000000 0.000000 
#    y 0.000000 1.638370 0.000000 
#    z 0.000000 0.000000 1.657420 
# 
# From -- ./inp_files/9788.got.cif
#   From: 2010.05.17/outbox.cif.g08.bks.cpg/sg61_5_cif.got.tgz:9788.got - 2010.06.03 15:17:17.
