data_PCOD9459154
_publ_section_title
;
Structure prediction by ZEFSAII (Michael W. Deem and Ramdas Pophale) SiO2 
 PCOD9459154
Probable space group: P B C A
;
_chemical_formula_sum "Si O2"
_cell_formula_units_Z 64
_cell_length_a 16.964728
_cell_length_b 7.015314
_cell_length_c 21.519261
_cell_angle_alpha 90.000000
_cell_angle_beta 90.000000
_cell_angle_gamma 90.000000
_cell_volume 2561.069525
_symmetry_space_group_name_H-M "P B C A"
_symmetry_group_IT_number 61
_symmetry_cell_setting 'orthorhombic'
loop_
_space_group_symop_operation_xyz
x,y,z
1/2-x,-y,1/2+z
1/2+x,1/2-y,-z
-x,1/2+y,1/2-z
-x,-y,-z
1/2+x,y,1/2-z
1/2-x,1/2+y,z
x,1/2-y,1/2+z
loop_
_atom_site_type_symbol
_atom_site_label
_atom_site_fract_x
_atom_site_fract_y
_atom_site_fract_z
Si Si1 0.163200 0.295494 0.104850
Si Si2 0.811048 0.888835 0.635177
Si Si3 0.860177 0.253717 0.786425
Si Si4 0.673467 0.310121 0.767581
Si Si5 0.590289 0.138621 0.020072
Si Si6 0.151107 0.851447 0.084361
Si Si7 0.869516 0.176759 0.153349
Si Si8 0.947739 0.283840 0.532835
O O1 0.143386 0.327742 0.177534
O O2 0.256316 0.314699 0.094178
O O3 0.139866 0.076073 0.094579
O O4 0.125288 0.405573 0.047884
O O5 0.838054 0.766289 0.695262
O O6 0.842523 0.811430 0.569755
O O7 0.716776 0.909857 0.638692
O O8 0.847096 0.098750 0.645201
O O9 0.768106 0.315976 0.779060
O O10 0.887633 0.266330 0.858149
O O11 0.898625 0.342687 0.724513
O O12 0.857899 0.023664 0.777099
O O13 0.550655 0.945832 0.045222
O O14 0.527255 0.305312 0.007407
O O15 0.123524 0.813398 0.014796
O O16 0.931689 0.125878 0.099731
#
# Coordination Sequence:
#
# PCOD9459154 Si02
#       8
#     8   8   8   8   8   8   8   8
#     4  10  19  32  52  75  98 124 157 198 242 289
#     4   9  17  31  51  72  94 122 158 198 239 285
#     4   8  15  28  47  71  95 119 151 194 240 283
#     4   8  15  28  47  71  95 119 151 194 240 283
#     4  10  21  35  49  68  98 134 167 200 240 285
#     4  10  19  32  52  75  98 124 157 198 242 289
#     4   9  17  31  51  72  94 122 158 198 239 285
#     4  10  21  35  49  68  98 134 167 200 240 285
#
# _framework density 24.989561999999999
#
# number of rings (size 3 to 8) (size 9 to 14) (size 15 to 20)
#    0.000    2.750    0.000    1.500    0.000    4.500 
#    0.000    1.250    0.000    0.000    0.000    0.000 
#    0.000    0.000    0.000    0.000    0.000    0.000 
#
# Total GULP energy -357165.637731 kJ/mol
# GULP energy per Si atom -5580.713090 kJ/mol
# Density = 2.493268 g / cm^3
# Si number density = 24.989562 Si / 1000 Ang^3
#
#
#
# Elastic Constant Matrix: (Units=GPa)
#
#
# Indices 1 2 3 4 5 6 
#
# 1 25.0768 -6.7286 26.6708 0.0000 0.0000 0.0000
# 2 -6.7286 53.5939 9.9959 0.0000 0.0000 0.0000
# 3 26.6708 9.9959 173.2625 0.0000 0.0000 0.0000
# 4 0.0000 0.0000 0.0000 31.3745 0.0000 0.0000
# 5 0.0000 0.0000 0.0000 0.0000 13.1774 0.0000
# 6 0.0000 0.0000 0.0000 0.0000 0.0000 21.7203
#
#
#
# Elastic Compliance Matrix: (Units=1/GPa)
#
#
# Indices 1 2 3 4 5 6 
#
# 1 0.050807 0.007923 -0.008278 0.000000 0.000000 0.000000
# 2 0.007923 0.020097 -0.002379 0.000000 0.000000 0.000000
# 3 -0.008278 -0.002379 0.007183 0.000000 0.000000 0.000000
# 4 0.000000 0.000000 0.000000 0.031873 0.000000 0.000000
# 5 0.000000 0.000000 0.000000 0.000000 0.075888 0.000000
# 6 0.000000 0.000000 0.000000 0.000000 0.000000 0.046040
#
#
# Mechanical properties :
#
#
# Convention : Reuss Voigt Hill
#
# Bulk Modulus (GPa) = 13.77048 34.64548 24.20798
# Shear Modulus (GPa) = 19.11584 28.05412 23.58498
#
# Velocity S-wave (km/s) = 2.76878 3.35421 3.07545
# Velocity P-wave (km/s) = 3.96787 5.37541 4.72435
#
# Compressibility (1/GPa) = 0.07261911
#
# Stress axis : x y z
#
# Youngs Moduli (GPa) = 19.68216 49.75813 139.21576
#
# Poissons Ratio (x) = -0.39422 1.15243
# Poissons Ratio (y) = -0.15594 0.33120
# Poissons Ratio (z) = 0.16293 0.11838
#
# Static dielectric constant tensor:
#      x y z
#    x 1.972440 0.000000 0.000000 
#    y 0.000000 2.074940 0.000000 
#    z 0.000000 0.000000 2.045450 
# 
# From -- ./inp_files/10540.got.cif
#   From: 2010.05.17/outbox.cif.g08.bks.cpg/sg61_6_cif.got.tgz:10540.got - 2010.06.03 15:17:17.
