data_PCOD9459842
_publ_section_title
;
Structure prediction by ZEFSAII (Michael W. Deem and Ramdas Pophale) SiO2 
 PCOD9459842
Probable space group: P B C A
;
_chemical_formula_sum "Si O2"
_cell_formula_units_Z 40
_cell_length_a 23.299785
_cell_length_b 5.145516
_cell_length_c 13.688100
_cell_angle_alpha 90.000000
_cell_angle_beta 90.000000
_cell_angle_gamma 90.000000
_cell_volume 1641.058322
_symmetry_space_group_name_H-M "P B C A"
_symmetry_group_IT_number 61
_symmetry_cell_setting 'orthorhombic'
loop_
_space_group_symop_operation_xyz
x,y,z
1/2-x,-y,1/2+z
1/2+x,1/2-y,-z
-x,1/2+y,1/2-z
-x,-y,-z
1/2+x,y,1/2-z
1/2-x,1/2+y,z
x,1/2-y,1/2+z
loop_
_atom_site_type_symbol
_atom_site_label
_atom_site_fract_x
_atom_site_fract_y
_atom_site_fract_z
Si Si1 0.790529 0.065646 0.944908
Si Si2 0.581380 0.901040 0.700807
Si Si3 0.478447 0.145788 0.622843
Si Si4 0.623580 0.242264 0.353577
Si Si5 0.607981 0.638397 0.525175
O O1 0.749614 0.816641 0.952319
O O2 0.829170 0.986340 0.850591
O O3 0.843329 0.135840 0.016606
O O4 0.545018 0.079210 0.626094
O O5 0.537017 0.825343 0.785740
O O6 0.598335 0.643857 0.640841
O O7 0.627418 0.066148 0.761421
O O8 0.438373 0.892816 0.638451
O O9 0.451602 0.282329 0.528095
O O10 0.630117 0.409511 0.454091
#
# Coordination Sequence:
#
# PCOD9459842 Si02
#       5
#     8   8   8   8   8
#     4  11  22  45  73  93 130 174 223 292 353 401
#     4  11  21  40  61  98 141 178 232 281 333 430
#     4  10  21  37  61  93 138 182 216 279 349 402
#     4  10  22  41  63  98 130 183 228 276 358 404
#     4  10  23  39  67  97 130 181 232 285 346 417
#
# _framework density 24.374517999999998
#
# number of rings (size 3 to 8) (size 9 to 14) (size 15 to 20)
#    0.000    1.600    4.000    0.600    0.000    4.000 
#    0.000    2.000    0.000    0.000    0.000    0.000 
#    0.000    0.000    0.000    0.000    0.000    0.000 
#
# Total GULP energy -223043.881790 kJ/mol
# GULP energy per Si atom -5576.097045 kJ/mol
# Density = 2.431904 g / cm^3
# Si number density = 24.374518 Si / 1000 Ang^3
#
#
#
# Elastic Constant Matrix: (Units=GPa)
#
#
# Indices 1 2 3 4 5 6 
#
# 1 76.4446 23.9434 20.9320 0.0000 0.0000 0.0000
# 2 23.9434 114.6180 2.4815 0.0000 0.0000 0.0000
# 3 20.9320 2.4815 45.6364 0.0000 0.0000 0.0000
# 4 0.0000 0.0000 0.0000 7.0910 0.0000 0.0000
# 5 0.0000 0.0000 0.0000 0.0000 9.8815 0.0000
# 6 0.0000 0.0000 0.0000 0.0000 0.0000 52.0397
#
#
#
# Elastic Compliance Matrix: (Units=1/GPa)
#
#
# Indices 1 2 3 4 5 6 
#
# 1 0.016051 -0.003197 -0.007188 0.000000 0.000000 0.000000
# 2 -0.003197 0.009372 0.000957 0.000000 0.000000 0.000000
# 3 -0.007188 0.000957 0.025157 0.000000 0.000000 0.000000
# 4 0.000000 0.000000 0.000000 0.141024 0.000000 0.000000
# 5 0.000000 0.000000 0.000000 0.000000 0.101199 0.000000
# 6 0.000000 0.000000 0.000000 0.000000 0.000000 0.019216
#
#
# Mechanical properties :
#
#
# Convention : Reuss Voigt Hill
#
# Bulk Modulus (GPa) = 31.52305 36.82364 34.17335
# Shear Modulus (GPa) = 14.64337 26.42525 20.53431
#
# Velocity S-wave (km/s) = 2.45371 3.29619 2.90565
# Velocity P-wave (km/s) = 4.58132 5.44304 5.03067
#
# Compressibility (1/GPa) = 0.03172282
#
# Stress axis : x y z
#
# Youngs Moduli (GPa) = 62.30097 106.70262 39.74985
#
# Poissons Ratio (x) = 0.34117 0.28573
# Poissons Ratio (y) = 0.19920 -0.03804
# Poissons Ratio (z) = 0.44784 -0.10211
#
# Static dielectric constant tensor:
#      x y z
#    x 1.952830 0.000000 0.000000 
#    y 0.000000 2.084310 0.000000 
#    z 0.000000 0.000000 2.011750 
# 
# From -- ./inp_files/441.got.cif
#   From: 2010.05.17/outbox.cif.g08.bks.cpg/sg61_1_cif.got.tgz:441.got - 2010.06.03 15:17:17.
