data_PCOD9459389
_publ_section_title
;
Structure prediction by ZEFSAII (Michael W. Deem and Ramdas Pophale) SiO2 
 PCOD9459389
Probable space group: P B C A
;
_chemical_formula_sum "Si O2"
_cell_formula_units_Z 48
_cell_length_a 12.274749
_cell_length_b 10.473271
_cell_length_c 14.673056
_cell_angle_alpha 90.000000
_cell_angle_beta 90.000000
_cell_angle_gamma 90.000000
_cell_volume 1886.320726
_symmetry_space_group_name_H-M "P B C A"
_symmetry_group_IT_number 61
_symmetry_cell_setting 'orthorhombic'
loop_
_space_group_symop_operation_xyz
x,y,z
1/2-x,-y,1/2+z
1/2+x,1/2-y,-z
-x,1/2+y,1/2-z
-x,-y,-z
1/2+x,y,1/2-z
1/2-x,1/2+y,z
x,1/2-y,1/2+z
loop_
_atom_site_type_symbol
_atom_site_label
_atom_site_fract_x
_atom_site_fract_y
_atom_site_fract_z
Si Si1 0.210975 0.466297 0.561332
Si Si2 0.700172 0.290325 0.539443
Si Si3 0.517787 0.569333 0.154820
Si Si4 0.876653 0.531025 0.175936
Si Si5 0.181750 0.435537 0.230062
Si Si6 0.987001 0.826930 0.408121
O O1 0.233943 0.349863 0.492844
O O2 0.235578 0.601609 0.516493
O O3 0.084379 0.466863 0.591308
O O4 0.288007 0.458254 0.651392
O O5 0.691958 0.349188 0.639832
O O6 0.575837 0.301623 0.500941
O O7 0.464127 0.584236 0.254030
O O8 0.611284 0.470422 0.180403
O O9 0.557728 0.703833 0.116995
O O10 0.802560 0.425232 0.227952
O O11 0.942429 0.453396 0.099666
O O12 0.109246 0.338555 0.169860
#
# Coordination Sequence:
#
# PCOD9459389 Si02
#       6
#     8   8   8   8   8   8
#     4   9  20  36  54  78 114 148 183 231 285 334
#     4  10  20  36  56  83 114 149 185 230 285 337
#     4   9  19  35  54  77 107 144 185 231 276 333
#     4  10  20  34  56  81 105 141 187 230 276 336
#     4   9  19  34  53  79 104 142 188 230 276 332
#     4   9  19  35  54  76 110 146 182 228 282 336
#
# _framework density 25.446363000000002
#
# number of rings (size 3 to 8) (size 9 to 14) (size 15 to 20)
#    0.000    2.667    0.000    0.500    0.000   10.667 
#    0.000    4.167    0.000    0.000    0.000    0.000 
#    0.000    0.000    0.000    0.000    0.000    0.000 
#
# Total GULP energy -267879.958479 kJ/mol
# GULP energy per Si atom -5580.832468 kJ/mol
# Density = 2.538845 g / cm^3
# Si number density = 25.446363 Si / 1000 Ang^3
#
#
#
# Elastic Constant Matrix: (Units=GPa)
#
#
# Indices 1 2 3 4 5 6 
#
# 1 51.5848 20.7869 6.8956 0.0000 0.0000 0.0000
# 2 20.7869 66.0373 12.8546 0.0000 0.0000 0.0000
# 3 6.8956 12.8546 45.9562 0.0000 0.0000 0.0000
# 4 0.0000 0.0000 0.0000 19.7870 0.0000 0.0000
# 5 0.0000 0.0000 0.0000 0.0000 44.2986 0.0000
# 6 0.0000 0.0000 0.0000 0.0000 0.0000 38.6977
#
#
#
# Elastic Compliance Matrix: (Units=1/GPa)
#
#
# Indices 1 2 3 4 5 6 
#
# 1 0.022294 -0.006733 -0.001462 0.000000 0.000000 0.000000
# 2 -0.006733 0.018048 -0.004038 0.000000 0.000000 0.000000
# 3 -0.001462 -0.004038 0.023109 0.000000 0.000000 0.000000
# 4 0.000000 0.000000 0.000000 0.050538 0.000000 0.000000
# 5 0.000000 0.000000 0.000000 0.000000 0.022574 0.000000
# 6 0.000000 0.000000 0.000000 0.000000 0.000000 0.025841
#
#
# Mechanical properties :
#
#
# Convention : Reuss Voigt Hill
#
# Bulk Modulus (GPa) = 25.65076 27.18361 26.41718
# Shear Modulus (GPa) = 25.01675 28.75941 26.88808
#
# Velocity S-wave (km/s) = 3.13887 3.36549 3.25415
# Velocity P-wave (km/s) = 4.82067 5.08015 4.95211
#
# Compressibility (1/GPa) = 0.03898521
#
# Stress axis : x y z
#
# Youngs Moduli (GPa) = 44.85474 55.40651 43.27377
#
# Poissons Ratio (x) = 0.37306 0.06326
# Poissons Ratio (y) = 0.30201 0.17474
# Poissons Ratio (z) = 0.06557 0.22374
#
# Static dielectric constant tensor:
#      x y z
#    x 2.073910 0.000000 0.000000 
#    y 0.000000 1.996530 0.000000 
#    z 0.000000 0.000000 2.055300 
# 
# From -- ./inp_files/5248.got.cif
#   From: 2010.05.17/outbox.cif.g08.bks.cpg/sg61_3_cif.got.tgz:5248.got - 2010.06.03 15:17:17.
