data_PCOD9459938
_publ_section_title
;
Structure prediction by ZEFSAII (Michael W. Deem and Ramdas Pophale) SiO2 
 PCOD9459938
Probable space group: P B C A
;
_chemical_formula_sum "Si O2"
_cell_formula_units_Z 48
_cell_length_a 16.505462
_cell_length_b 7.880722
_cell_length_c 15.982349
_cell_angle_alpha 90.000000
_cell_angle_beta 90.000000
_cell_angle_gamma 90.000000
_cell_volume 2078.903367
_symmetry_space_group_name_H-M "P B C A"
_symmetry_group_IT_number 61
_symmetry_cell_setting 'orthorhombic'
loop_
_space_group_symop_operation_xyz
x,y,z
1/2-x,-y,1/2+z
1/2+x,1/2-y,-z
-x,1/2+y,1/2-z
-x,-y,-z
1/2+x,y,1/2-z
1/2-x,1/2+y,z
x,1/2-y,1/2+z
loop_
_atom_site_type_symbol
_atom_site_label
_atom_site_fract_x
_atom_site_fract_y
_atom_site_fract_z
Si Si1 0.277522 0.062952 0.601661
Si Si2 0.374565 0.404200 0.569449
Si Si3 0.478618 0.763154 0.350001
Si Si4 0.830127 0.928755 0.078927
Si Si5 0.095870 0.474775 0.725911
Si Si6 0.346948 0.190878 0.880807
O O1 0.180377 0.063027 0.595713
O O2 0.307775 0.976558 0.515662
O O3 0.317057 0.248697 0.600405
O O4 0.318681 0.966117 0.678587
O O5 0.459873 0.376392 0.613430
O O6 0.380036 0.378896 0.469716
O O7 0.405183 0.803378 0.412104
O O8 0.439163 0.696735 0.264290
O O9 0.531667 0.931513 0.334079
O O10 0.749063 0.851193 0.118616
O O11 0.853938 0.106498 0.121915
O O12 0.110685 0.598602 0.804598
#
# Coordination Sequence:
#
# PCOD9459938 Si02
#       6
#     8   8   8   8   8   8
#     4   9  21  40  61  83 114 156 198 234 292 359
#     4   9  21  40  61  85 114 156 198 237 292 359
#     4  11  24  38  58  89 122 154 197 250 299 342
#     4  10  21  41  63  84 117 159 198 238 291 361
#     4  11  24  38  58  91 121 155 197 248 300 341
#     4  10  21  39  63  86 116 157 198 238 292 358
#
# _framework density 23.089096000000001
#
# number of rings (size 3 to 8) (size 9 to 14) (size 15 to 20)
#    0.000    2.000    0.000    2.000    0.000   17.333 
#    0.000    0.000    0.000    0.000    0.000    0.000 
#    0.000    0.000    0.000    0.000    0.000    0.000 
#
# Total GULP energy -268569.684058 kJ/mol
# GULP energy per Si atom -5595.201751 kJ/mol
# Density = 2.303654 g / cm^3
# Si number density = 23.089096 Si / 1000 Ang^3
#
#
#
# Elastic Constant Matrix: (Units=GPa)
#
#
# Indices 1 2 3 4 5 6 
#
# 1 69.5963 11.0593 23.1481 0.0000 0.0000 0.0000
# 2 11.0593 46.0726 -9.3740 0.0000 0.0000 0.0000
# 3 23.1481 -9.3740 25.0353 0.0000 0.0000 0.0000
# 4 0.0000 0.0000 0.0000 11.8153 0.0000 0.0000
# 5 0.0000 0.0000 0.0000 0.0000 29.7209 0.0000
# 6 0.0000 0.0000 0.0000 0.0000 0.0000 32.4761
#
#
#
# Elastic Compliance Matrix: (Units=1/GPa)
#
#
# Indices 1 2 3 4 5 6 
#
# 1 0.025608 -0.011869 -0.028122 0.000000 0.000000 0.000000
# 2 -0.011869 0.028996 0.021831 0.000000 0.000000 0.000000
# 3 -0.028122 0.021831 0.074119 0.000000 0.000000 0.000000
# 4 0.000000 0.000000 0.000000 0.084636 0.000000 0.000000
# 5 0.000000 0.000000 0.000000 0.000000 0.033646 0.000000
# 6 0.000000 0.000000 0.000000 0.000000 0.000000 0.030792
#
#
# Mechanical properties :
#
#
# Convention : Reuss Voigt Hill
#
# Bulk Modulus (GPa) = 10.82204 21.15235 15.98720
# Shear Modulus (GPa) = 14.49621 22.52717 18.51169
#
# Velocity S-wave (km/s) = 2.50839 3.12695 2.83459
# Velocity P-wave (km/s) = 3.61754 4.71361 4.20147
#
# Compressibility (1/GPa) = 0.09240400
#
# Stress axis : x y z
#
# Youngs Moduli (GPa) = 39.05030 34.48807 13.49174
#
# Poissons Ratio (x) = 0.40933 0.37941
# Poissons Ratio (y) = 0.46347 -0.29453
# Poissons Ratio (z) = 1.09816 -0.75290
#
# Static dielectric constant tensor:
#      x y z
#    x 1.849210 0.000000 0.000000 
#    y 0.000000 1.906140 0.000000 
#    z 0.000000 0.000000 1.828730 
# 
# From -- ./inp_files/8104.got.cif
#   From: 2010.05.17/outbox.cif.g08.bks.cpg/sg61_5_cif.got.tgz:8104.got - 2010.06.03 15:17:17.
