data_PCOD9459340
_publ_section_title
;
Structure prediction by ZEFSAII (Michael W. Deem and Ramdas Pophale) SiO2 
 PCOD9459340
Probable space group: P B C A
;
_chemical_formula_sum "Si O2"
_cell_formula_units_Z 32
_cell_length_a 12.587243
_cell_length_b 5.364188
_cell_length_c 20.913065
_cell_angle_alpha 90.000000
_cell_angle_beta 90.000000
_cell_angle_gamma 90.000000
_cell_volume 1412.057214
_symmetry_space_group_name_H-M "P B C A"
_symmetry_group_IT_number 61
_symmetry_cell_setting 'orthorhombic'
loop_
_space_group_symop_operation_xyz
x,y,z
1/2-x,-y,1/2+z
1/2+x,1/2-y,-z
-x,1/2+y,1/2-z
-x,-y,-z
1/2+x,y,1/2-z
1/2-x,1/2+y,z
x,1/2-y,1/2+z
loop_
_atom_site_type_symbol
_atom_site_label
_atom_site_fract_x
_atom_site_fract_y
_atom_site_fract_z
Si Si1 0.867316 0.647895 0.034347
Si Si2 0.508059 0.777740 0.709043
Si Si3 0.371947 0.354321 0.911330
Si Si4 0.685825 0.320143 0.385746
O O1 0.917764 0.380902 0.049565
O O2 0.751394 0.626016 0.068790
O O3 0.923113 0.884359 0.066817
O O4 0.843699 0.693796 0.960572
O O5 0.513312 0.532520 0.752778
O O6 0.610647 0.810923 0.663502
O O7 0.413552 0.731552 0.659069
O O8 0.731322 0.596084 0.373648
#
# Coordination Sequence:
#
# PCOD9459340 Si02
#       4
#     8   8   8   8
#     4  10  19  40  69 104 125 163 224 274 364 371
#     4  12  28  48  63 101 140 188 235 261 330 413
#     4  10  20  40  67  95 137 164 219 286 316 409
#     4  12  23  46  71 100 138 173 222 291 344 405
#
# _framework density 22.661968999999999
#
# number of rings (size 3 to 8) (size 9 to 14) (size 15 to 20)
#    0.000    1.000    5.000    3.000    0.000    2.000 
#   27.000    0.000    0.000    0.000    0.000    0.000 
#    0.000    0.000    0.000    0.000    0.000    0.000 
#
# Total GULP energy -179042.570803 kJ/mol
# GULP energy per Si atom -5595.080338 kJ/mol
# Density = 2.261039 g / cm^3
# Si number density = 22.661969 Si / 1000 Ang^3
#
#
#
# Elastic Constant Matrix: (Units=GPa)
#
#
# Indices 1 2 3 4 5 6 
#
# 1 61.2404 -11.0388 29.7857 0.0000 0.0000 0.0000
# 2 -11.0388 155.4196 3.3660 0.0000 0.0000 0.0000
# 3 29.7857 3.3660 106.6295 0.0000 0.0000 0.0000
# 4 0.0000 0.0000 0.0000 43.5891 0.0000 0.0000
# 5 0.0000 0.0000 0.0000 0.0000 36.3665 0.0000
# 6 0.0000 0.0000 0.0000 0.0000 0.0000 26.8020
#
#
#
# Elastic Compliance Matrix: (Units=1/GPa)
#
#
# Indices 1 2 3 4 5 6 
#
# 1 0.019232 0.001483 -0.005419 0.000000 0.000000 0.000000
# 2 0.001483 0.006553 -0.000621 0.000000 0.000000 0.000000
# 3 -0.005419 -0.000621 0.010912 0.000000 0.000000 0.000000
# 4 0.000000 0.000000 0.000000 0.022942 0.000000 0.000000
# 5 0.000000 0.000000 0.000000 0.000000 0.027498 0.000000
# 6 0.000000 0.000000 0.000000 0.000000 0.000000 0.037311
#
#
# Mechanical properties :
#
#
# Convention : Reuss Voigt Hill
#
# Bulk Modulus (GPa) = 36.25438 40.83504 38.54471
# Shear Modulus (GPa) = 35.02503 41.42996 38.22750
#
# Velocity S-wave (km/s) = 3.93560 4.28035 4.11159
# Velocity P-wave (km/s) = 6.05678 6.51819 6.29172
#
# Compressibility (1/GPa) = 0.02758287
#
# Stress axis : x y z
#
# Youngs Moduli (GPa) = 51.99617 152.60176 91.64519
#
# Poissons Ratio (x) = -0.22636 0.49664
# Poissons Ratio (y) = -0.07713 0.05693
# Poissons Ratio (z) = 0.28177 0.09480
#
# Static dielectric constant tensor:
#      x y z
#    x 2.189800 0.000000 0.000000 
#    y 0.000000 1.937270 0.000000 
#    z 0.000000 0.000000 1.796740 
# 
# From -- ./inp_files/666.got.cif
#   From: 2010.05.17/outbox.cif.g08.bks.cpg/sg61_1_cif.got.tgz:666.got - 2010.06.03 15:17:17.
