data_PCOD9459997
_publ_section_title
;
Structure prediction by ZEFSAII (Michael W. Deem and Ramdas Pophale) SiO2 
 PCOD9459997
Probable space group: P B C A
;
_chemical_formula_sum "Si O2"
_cell_formula_units_Z 64
_cell_length_a 22.286168
_cell_length_b 13.438322
_cell_length_c 9.516672
_cell_angle_alpha 90.000000
_cell_angle_beta 90.000000
_cell_angle_gamma 90.000000
_cell_volume 2850.135742
_symmetry_space_group_name_H-M "P B C A"
_symmetry_group_IT_number 61
_symmetry_cell_setting 'orthorhombic'
loop_
_space_group_symop_operation_xyz
x,y,z
1/2-x,-y,1/2+z
1/2+x,1/2-y,-z
-x,1/2+y,1/2-z
-x,-y,-z
1/2+x,y,1/2-z
1/2-x,1/2+y,z
x,1/2-y,1/2+z
loop_
_atom_site_type_symbol
_atom_site_label
_atom_site_fract_x
_atom_site_fract_y
_atom_site_fract_z
Si Si1 0.824712 0.471095 0.037425
Si Si2 0.559323 0.407168 0.616675
Si Si3 0.108516 0.201690 0.799099
Si Si4 0.683750 0.662339 0.958404
Si Si5 0.377349 0.274479 0.321290
Si Si6 0.191050 0.265551 0.564249
Si Si7 0.502410 0.890589 0.182226
Si Si8 0.267014 0.528868 0.187275
O O1 0.878181 0.547138 0.062654
O O2 0.849111 0.363615 0.083662
O O3 0.773086 0.499026 0.150789
O O4 0.798010 0.474439 0.883013
O O5 0.575434 0.309399 0.702954
O O6 0.519606 0.381955 0.479927
O O7 0.528903 0.498639 0.698335
O O8 0.153299 0.196682 0.668338
O O9 0.054587 0.125141 0.781237
O O10 0.148564 0.199767 0.938079
O O11 0.655767 0.722406 0.827180
O O12 0.749413 0.709284 0.988732
O O13 0.692971 0.551940 0.897323
O O14 0.640044 0.676901 0.090713
O O15 0.445845 0.307875 0.297581
O O16 0.209527 0.361211 0.655600
#
# Coordination Sequence:
#
# PCOD9459997 Si02
#       8
#     8   8   8   8   8   8   8   8
#     4  10  21  40  63  92 129 169 211 270 321 397
#     4  10  21  44  67  91 131 178 221 273 328 391
#     4  12  24  43  69  98 131 176 217 283 326 396
#     4  11  24  42  63  96 129 176 206 278 332 394
#     4  10  23  41  64  90 131 163 224 261 326 397
#     4  12  25  43  67  99 134 170 225 270 338 402
#     4  10  24  43  68  96 127 178 226 265 332 402
#     4  11  24  38  63  95 133 166 216 268 336 388
#
# _framework density 22.455072000000001
#
# number of rings (size 3 to 8) (size 9 to 14) (size 15 to 20)
#    0.000    1.250    3.750    1.500    5.250    0.000 
#    2.250    0.625    0.000    0.000    0.000    0.000 
#    0.000    0.000    0.000    0.000    0.000    0.000 
#
# Total GULP energy -358118.947125 kJ/mol
# GULP energy per Si atom -5595.608549 kJ/mol
# Density = 2.240396 g / cm^3
# Si number density = 22.455072 Si / 1000 Ang^3
#
#
#
# Elastic Constant Matrix: (Units=GPa)
#
#
# Indices 1 2 3 4 5 6 
#
# 1 85.8621 -2.6145 22.5819 0.0000 0.0000 0.0000
# 2 -2.6145 41.2230 -4.4200 0.0000 0.0000 0.0000
# 3 22.5819 -4.4200 52.0933 0.0000 0.0000 0.0000
# 4 0.0000 0.0000 0.0000 27.8215 0.0000 0.0000
# 5 0.0000 0.0000 0.0000 0.0000 36.0087 0.0000
# 6 0.0000 0.0000 0.0000 0.0000 0.0000 30.3983
#
#
#
# Elastic Compliance Matrix: (Units=1/GPa)
#
#
# Indices 1 2 3 4 5 6 
#
# 1 0.013147 0.000225 -0.005680 0.000000 0.000000 0.000000
# 2 0.000225 0.024485 0.001980 0.000000 0.000000 0.000000
# 3 -0.005680 0.001980 0.021827 0.000000 0.000000 0.000000
# 4 0.000000 0.000000 0.000000 0.035943 0.000000 0.000000
# 5 0.000000 0.000000 0.000000 0.000000 0.027771 0.000000
# 6 0.000000 0.000000 0.000000 0.000000 0.000000 0.032897
#
#
# Mechanical properties :
#
#
# Convention : Reuss Voigt Hill
#
# Bulk Modulus (GPa) = 19.04461 23.36366 21.20413
# Shear Modulus (GPa) = 27.69726 29.75443 28.72585
#
# Velocity S-wave (km/s) = 3.51586 3.64409 3.58055
# Velocity P-wave (km/s) = 4.99814 5.30406 5.15337
#
# Compressibility (1/GPa) = 0.05250829
#
# Stress axis : x y z
#
# Youngs Moduli (GPa) = 76.06118 40.84150 45.81561
#
# Poissons Ratio (x) = -0.00918 0.26024
# Poissons Ratio (y) = -0.01710 -0.09072
# Poissons Ratio (z) = 0.43204 -0.08087
#
# Static dielectric constant tensor:
#      x y z
#    x 1.838370 0.000000 0.000000 
#    y 0.000000 1.865840 0.000000 
#    z 0.000000 0.000000 1.801910 
# 
# From -- ./inp_files/4320.got.cif
#   From: 2010.05.17/outbox.cif.g08.bks.cpg/sg61_3_cif.got.tgz:4320.got - 2010.06.03 15:17:17.
