data_PCOD9459262
_publ_section_title
;
Structure prediction by ZEFSAII (Michael W. Deem and Ramdas Pophale) SiO2 
 PCOD9459262
Probable space group: P B C A
;
_chemical_formula_sum "Si O2"
_cell_formula_units_Z 64
_cell_length_a 8.995483
_cell_length_b 17.873911
_cell_length_c 14.484186
_cell_angle_alpha 90.000000
_cell_angle_beta 90.000000
_cell_angle_gamma 90.000000
_cell_volume 2328.832061
_symmetry_space_group_name_H-M "P B C A"
_symmetry_group_IT_number 61
_symmetry_cell_setting 'orthorhombic'
loop_
_space_group_symop_operation_xyz
x,y,z
1/2-x,-y,1/2+z
1/2+x,1/2-y,-z
-x,1/2+y,1/2-z
-x,-y,-z
1/2+x,y,1/2-z
1/2-x,1/2+y,z
x,1/2-y,1/2+z
loop_
_atom_site_type_symbol
_atom_site_label
_atom_site_fract_x
_atom_site_fract_y
_atom_site_fract_z
Si Si1 0.495080 0.259818 0.412163
Si Si2 0.428627 0.484038 0.221409
Si Si3 0.071861 0.213815 0.897281
Si Si4 0.114168 0.627487 0.284185
Si Si5 0.737469 0.635036 0.879408
Si Si6 0.268190 0.921027 0.364616
Si Si7 0.563968 0.856395 0.914736
Si Si8 0.803204 0.552917 0.059213
O O1 0.574409 0.207494 0.490733
O O2 0.422903 0.204162 0.338249
O O3 0.616705 0.314480 0.364860
O O4 0.406285 0.312029 0.489122
O O5 0.471567 0.570800 0.219271
O O6 0.288352 0.445554 0.168717
O O7 0.575679 0.447082 0.179079
O O8 0.385393 0.448770 0.320075
O O9 0.206015 0.166688 0.856825
O O10 0.067342 0.300622 0.875670
O O11 0.911209 0.183278 0.864323
O O12 0.162318 0.637407 0.176723
O O13 0.227738 0.578723 0.345065
O O14 0.742259 0.611464 0.985529
O O15 0.258146 0.968974 0.458935
O O16 0.478509 0.932032 0.938258
#
# Coordination Sequence:
#
# PCOD9459262 Si02
#       8
#     8   8   8   8   8   8   8   8
#     4   9  21  35  54  86 120 145 197 245 305 358
#     4  10  23  38  63  90 118 164 211 255 308 366
#     4   9  20  37  56  84 121 153 199 249 308 357
#     4  11  20  36  60  85 117 160 206 246 308 365
#     4  10  20  37  60  86 116 156 204 255 304 368
#     4  10  21  39  59  87 124 154 207 254 298 369
#     4   9  20  36  52  86 117 152 192 246 306 357
#     4  10  19  36  61  84 116 156 203 255 300 361
#
# _framework density 27.481586
#
# number of rings (size 3 to 8) (size 9 to 14) (size 15 to 20)
#    0.750    1.500    2.500    0.000    3.500    2.500 
#    2.250    1.250    0.000    0.750    0.000    0.000 
#    0.000    0.000    0.000    0.000    0.000    0.000 
#
# Total GULP energy -356747.745722 kJ/mol
# GULP energy per Si atom -5574.183527 kJ/mol
# Density = 2.741904 g / cm^3
# Si number density = 27.481586 Si / 1000 Ang^3
#
#
#
# Elastic Constant Matrix: (Units=GPa)
#
#
# Indices 1 2 3 4 5 6 
#
# 1 76.0521 22.9317 -2.8878 0.0000 0.0000 0.0000
# 2 22.9317 84.5949 1.2819 0.0000 0.0000 0.0000
# 3 -2.8878 1.2819 53.5093 0.0000 0.0000 0.0000
# 4 0.0000 0.0000 0.0000 29.1153 0.0000 0.0000
# 5 0.0000 0.0000 0.0000 0.0000 41.0209 0.0000
# 6 0.0000 0.0000 0.0000 0.0000 0.0000 29.6827
#
#
#
# Elastic Compliance Matrix: (Units=1/GPa)
#
#
# Indices 1 2 3 4 5 6 
#
# 1 0.014360 -0.003906 0.000869 0.000000 0.000000 0.000000
# 2 -0.003906 0.012888 -0.000520 0.000000 0.000000 0.000000
# 3 0.000869 -0.000520 0.018748 0.000000 0.000000 0.000000
# 4 0.000000 0.000000 0.000000 0.034346 0.000000 0.000000
# 5 0.000000 0.000000 0.000000 0.000000 0.024378 0.000000
# 6 0.000000 0.000000 0.000000 0.000000 0.000000 0.033690
#
#
# Mechanical properties :
#
#
# Convention : Reuss Voigt Hill
#
# Bulk Modulus (GPa) = 25.71922 28.53422 27.12672
# Shear Modulus (GPa) = 31.54925 32.81915 32.18420
#
# Velocity S-wave (km/s) = 3.39191 3.45950 3.42587
# Velocity P-wave (km/s) = 4.97183 5.13450 5.05382
#
# Compressibility (1/GPa) = 0.03888143
#
# Stress axis : x y z
#
# Youngs Moduli (GPa) = 69.64019 77.59361 53.34004
#
# Poissons Ratio (x) = 0.30306 -0.04633
# Poissons Ratio (y) = 0.27199 0.02771
# Poissons Ratio (z) = -0.06048 0.04031
#
# Static dielectric constant tensor:
#      x y z
#    x 2.103350 0.000000 0.000000 
#    y 0.000000 2.233690 0.000000 
#    z 0.000000 0.000000 2.417590 
# 
# From -- ./inp_files/9350.got.cif
#   From: 2010.05.17/outbox.cif.g08.bks.cpg/sg61_5_cif.got.tgz:9350.got - 2010.06.03 15:17:17.
