data_PCOD9459846
_publ_section_title
;
Structure prediction by ZEFSAII (Michael W. Deem and Ramdas Pophale) SiO2 
 PCOD9459846
Probable space group: P B C A
;
_chemical_formula_sum "Si O2"
_cell_formula_units_Z 64
_cell_length_a 29.637215
_cell_length_b 17.326265
_cell_length_c 5.294067
_cell_angle_alpha 90.000000
_cell_angle_beta 90.000000
_cell_angle_gamma 90.000000
_cell_volume 2718.515268
_symmetry_space_group_name_H-M "P B C A"
_symmetry_group_IT_number 61
_symmetry_cell_setting 'orthorhombic'
loop_
_space_group_symop_operation_xyz
x,y,z
1/2-x,-y,1/2+z
1/2+x,1/2-y,-z
-x,1/2+y,1/2-z
-x,-y,-z
1/2+x,y,1/2-z
1/2-x,1/2+y,z
x,1/2-y,1/2+z
loop_
_atom_site_type_symbol
_atom_site_label
_atom_site_fract_x
_atom_site_fract_y
_atom_site_fract_z
Si Si1 0.935788 0.223427 0.391641
Si Si2 0.334654 0.285273 0.026632
Si Si3 0.286365 0.935284 0.000719
Si Si4 0.355418 0.607490 0.097291
Si Si5 0.292804 0.702678 0.825718
Si Si6 0.450854 0.054903 0.268886
Si Si7 0.184568 0.544481 0.343507
Si Si8 0.056686 0.038930 0.270213
O O1 0.959413 0.232398 0.661535
O O2 0.887025 0.262494 0.436068
O O3 0.929794 0.135550 0.312298
O O4 0.314979 0.269616 0.305372
O O5 0.330929 0.371460 0.922805
O O6 0.275156 0.882195 0.245588
O O7 0.238337 0.955581 0.889312
O O8 0.315502 0.012239 0.058281
O O9 0.318791 0.884851 0.822410
O O10 0.344440 0.674747 0.895437
O O11 0.342446 0.523036 0.985272
O O12 0.405663 0.601463 0.200758
O O13 0.280454 0.746086 0.082957
O O14 0.504935 0.065718 0.250288
O O15 0.439792 0.026912 0.551162
O O16 0.436909 0.993696 0.052948
#
# Coordination Sequence:
#
# PCOD9459846 Si02
#       8
#     8   8   8   8   8   8   8   8
#     4  10  21  37  62  91 131 176 208 258 348 399
#     4  10  25  40  59  97 132 177 219 270 344 411
#     4  11  24  44  70 100 131 190 229 298 361 394
#     4  11  25  42  73 102 131 188 232 293 355 409
#     4  11  24  46  69  95 131 176 230 296 350 417
#     4  10  22  43  65  99 141 171 229 281 344 420
#     4  11  25  42  66  98 143 175 242 286 339 437
#     4  10  24  40  70 100 129 183 224 290 338 417
#
# _framework density 23.542261
#
# number of rings (size 3 to 8) (size 9 to 14) (size 15 to 20)
#    0.000    1.500    2.500    0.750   12.250    1.000 
#    0.000    1.250    0.000    0.000    0.000    0.000 
#    0.000    0.000    0.000    0.000    0.000    0.000 
#
# Total GULP energy -357146.233657 kJ/mol
# GULP energy per Si atom -5580.409901 kJ/mol
# Density = 2.348868 g / cm^3
# Si number density = 23.542261 Si / 1000 Ang^3
#
#
#
# Elastic Constant Matrix: (Units=GPa)
#
#
# Indices 1 2 3 4 5 6 
#
# 1 85.4347 24.2946 -44.2930 0.0000 0.0000 0.0000
# 2 24.2946 104.1457 -41.0840 0.0000 0.0000 0.0000
# 3 -44.2930 -41.0840 221.9054 0.0000 0.0000 0.0000
# 4 0.0000 0.0000 0.0000 41.6041 0.0000 0.0000
# 5 0.0000 0.0000 0.0000 0.0000 12.8813 0.0000
# 6 0.0000 0.0000 0.0000 0.0000 0.0000 20.8571
#
#
#
# Elastic Compliance Matrix: (Units=1/GPa)
#
#
# Indices 1 2 3 4 5 6 
#
# 1 0.013530 -0.002256 0.002283 0.000000 0.000000 0.000000
# 2 -0.002256 0.010735 0.001537 0.000000 0.000000 0.000000
# 3 0.002283 0.001537 0.005247 0.000000 0.000000 0.000000
# 4 0.000000 0.000000 0.000000 0.024036 0.000000 0.000000
# 5 0.000000 0.000000 0.000000 0.000000 0.077632 0.000000
# 6 0.000000 0.000000 0.000000 0.000000 0.000000 0.047945
#
#
# Mechanical properties :
#
#
# Convention : Reuss Voigt Hill
#
# Bulk Modulus (GPa) = 30.63696 32.14678 31.39187
# Shear Modulus (GPa) = 26.75584 46.57303 36.66444
#
# Velocity S-wave (km/s) = 3.37486 4.45260 3.95066
# Velocity P-wave (km/s) = 5.31301 6.33394 5.84581
#
# Compressibility (1/GPa) = 0.03264031
#
# Stress axis : x y z
#
# Youngs Moduli (GPa) = 73.91059 93.15753 190.59539
#
# Poissons Ratio (x) = 0.21012 -0.43513
# Poissons Ratio (y) = 0.16671 -0.29298
# Poissons Ratio (z) = -0.16874 -0.14320
#
# Static dielectric constant tensor:
#      x y z
#    x 1.955210 0.000000 0.000000 
#    y 0.000000 1.944340 0.000000 
#    z 0.000000 0.000000 2.066240 
# 
# From -- ./inp_files/1500.got.cif
#   From: 2010.05.17/outbox.cif.g08.bks.cpg/sg61_1_cif.got.tgz:1500.got - 2010.06.03 15:17:17.
