data_PCOD9459991
_publ_section_title
;
Structure prediction by ZEFSAII (Michael W. Deem and Ramdas Pophale) SiO2 
 PCOD9459991
Probable space group: P B C A
;
_chemical_formula_sum "Si O2"
_cell_formula_units_Z 60
_cell_length_a 19.743799
_cell_length_b 9.993851
_cell_length_c 12.388307
_cell_angle_alpha 90.000000
_cell_angle_beta 90.000000
_cell_angle_gamma 90.000000
_cell_volume 2444.418436
_symmetry_space_group_name_H-M "P B C A"
_symmetry_group_IT_number 61
_symmetry_cell_setting 'orthorhombic'
loop_
_space_group_symop_operation_xyz
x,y,z
1/2-x,-y,1/2+z
1/2+x,1/2-y,-z
-x,1/2+y,1/2-z
-x,-y,-z
1/2+x,y,1/2-z
1/2-x,1/2+y,z
x,1/2-y,1/2+z
loop_
_atom_site_type_symbol
_atom_site_label
_atom_site_fract_x
_atom_site_fract_y
_atom_site_fract_z
Si Si1 0.635682 0.596464 0.048594
Si Si2 0.546690 0.625352 0.722463
Si Si3 0.191622 0.633475 0.859233
Si Si4 0.001298 0.112631 0.137270
Si Si5 0.116526 0.300907 0.054502
Si Si6 0.811634 0.961325 0.263796
Si Si7 0.500000 0.000000 0.000000
Si Si8 0.729581 0.086767 0.443815
O O1 0.668111 0.738185 0.073923
O O2 0.555429 0.609027 0.044364
O O3 0.650614 0.514403 0.158393
O O4 0.673006 0.528445 0.950034
O O5 0.626463 0.598938 0.711133
O O6 0.529342 0.783558 0.728158
O O7 0.513924 0.530440 0.810468
O O8 0.516848 0.582731 0.606839
O O9 0.255299 0.641079 0.780186
O O10 0.219375 0.544479 0.958520
O O11 0.068709 0.179408 0.092492
O O12 0.136789 0.391503 0.156443
O O13 0.070379 0.397911 0.980093
O O14 0.187805 0.222598 0.026995
O O15 0.771390 0.074232 0.333184
#
# Coordination Sequence:
#
# PCOD9459991 Si02
#       8
#     8   8   8   8   8   8   4   8
#     4  10  22  39  59  90 125 160 208 262 318 380
#     4  10  21  40  63  89 125 164 211 262 316 379
#     4  10  22  39  61  89 125 164 206 262 320 378
#     4  10  22  40  61  90 123 164 212 261 318 380
#     4  11  23  39  62  90 124 165 210 257 315 380
#     4  11  22  40  63  90 122 163 212 261 317 380
#     4  10  22  38  60  90 118 160 206 252 308 372
#     4  11  23  39  63  91 123 164 212 265 320 380
#
# _framework density 24.545717
#
# number of rings (size 3 to 8) (size 9 to 14) (size 15 to 20)
#    0.000    1.600    0.000    4.800    0.000    5.867 
#    0.000    9.333    0.000    0.000    0.000    0.000 
#    0.000    0.000    0.000    0.000    0.000    0.000 
#
# Total GULP energy -334173.170435 kJ/mol
# GULP energy per Si atom -5569.552841 kJ/mol
# Density = 2.448985 g / cm^3
# Si number density = 24.545717 Si / 1000 Ang^3
#
#
#
# Elastic Constant Matrix: (Units=GPa)
#
#
# Indices 1 2 3 4 5 6 
#
# 1 135.7575 23.9470 14.8424 0.0000 0.0000 0.0000
# 2 23.9470 54.0811 21.6324 0.0000 0.0000 0.0000
# 3 14.8424 21.6324 48.2447 0.0000 0.0000 0.0000
# 4 0.0000 0.0000 0.0000 23.5827 0.0000 0.0000
# 5 0.0000 0.0000 0.0000 0.0000 27.6161 0.0000
# 6 0.0000 0.0000 0.0000 0.0000 0.0000 29.0772
#
#
#
# Elastic Compliance Matrix: (Units=1/GPa)
#
#
# Indices 1 2 3 4 5 6 
#
# 1 0.008035 -0.003131 -0.001068 0.000000 0.000000 0.000000
# 2 -0.003131 0.023752 -0.009687 0.000000 0.000000 0.000000
# 3 -0.001068 -0.009687 0.025400 0.000000 0.000000 0.000000
# 4 0.000000 0.000000 0.000000 0.042404 0.000000 0.000000
# 5 0.000000 0.000000 0.000000 0.000000 0.036211 0.000000
# 6 0.000000 0.000000 0.000000 0.000000 0.000000 0.034391
#
#
# Mechanical properties :
#
#
# Convention : Reuss Voigt Hill
#
# Bulk Modulus (GPa) = 33.99611 39.88075 36.93843
# Shear Modulus (GPa) = 24.06520 27.89931 25.98225
#
# Velocity S-wave (km/s) = 3.13457 3.37505 3.25703
# Velocity P-wave (km/s) = 5.19431 5.60988 5.40609
#
# Compressibility (1/GPa) = 0.02941513
#
# Stress axis : x y z
#
# Youngs Moduli (GPa) = 124.45401 42.10229 39.37038
#
# Poissons Ratio (x) = 0.13181 0.04206
# Poissons Ratio (y) = 0.38962 0.38137
# Poissons Ratio (z) = 0.13295 0.40784
#
# Static dielectric constant tensor:
#      x y z
#    x 2.090100 0.000000 0.000000 
#    y 0.000000 2.017530 0.000000 
#    z 0.000000 0.000000 1.927160 
# 
# From -- ./inp_files/6509.got.cif
#   From: 2010.05.17/outbox.cif.g08.bks.cpg/sg61_4_cif.got.tgz:6509.got - 2010.06.03 15:17:17.
