data_PCOD9459655
_publ_section_title
;
Structure prediction by ZEFSAII (Michael W. Deem and Ramdas Pophale) SiO2 
 PCOD9459655
Probable space group: P B C A
;
_chemical_formula_sum "Si O2"
_cell_formula_units_Z 64
_cell_length_a 17.199467
_cell_length_b 9.802984
_cell_length_c 16.172739
_cell_angle_alpha 90.000000
_cell_angle_beta 90.000000
_cell_angle_gamma 90.000000
_cell_volume 2726.822446
_symmetry_space_group_name_H-M "P B C A"
_symmetry_group_IT_number 61
_symmetry_cell_setting 'orthorhombic'
loop_
_space_group_symop_operation_xyz
x,y,z
1/2-x,-y,1/2+z
1/2+x,1/2-y,-z
-x,1/2+y,1/2-z
-x,-y,-z
1/2+x,y,1/2-z
1/2-x,1/2+y,z
x,1/2-y,1/2+z
loop_
_atom_site_type_symbol
_atom_site_label
_atom_site_fract_x
_atom_site_fract_y
_atom_site_fract_z
Si Si1 0.675525 0.800071 0.042303
Si Si2 0.759950 0.456708 0.484482
Si Si3 0.422896 0.913249 0.520047
Si Si4 0.167971 0.705521 0.269562
Si Si5 0.994073 0.161148 0.726180
Si Si6 0.587065 0.404220 0.781764
Si Si7 0.248028 0.538588 0.709984
Si Si8 0.993899 0.344884 0.026241
O O1 0.673559 0.742256 0.134252
O O2 0.590907 0.788530 0.001472
O O3 0.737024 0.705194 0.995476
O O4 0.699283 0.957522 0.037622
O O5 0.844871 0.514433 0.510643
O O6 0.745097 0.484627 0.388073
O O7 0.412976 0.905156 0.618974
O O8 0.441140 0.758391 0.492613
O O9 0.500000 0.000000 0.500000
O O10 0.083008 0.758006 0.243088
O O11 0.183549 0.547474 0.251675
O O12 0.232861 0.801666 0.225686
O O13 0.994328 0.158089 0.626300
O O14 0.067173 0.253819 0.750550
O O15 0.981322 0.008699 0.756686
O O16 0.668882 0.467942 0.755606
O O17 0.000000 0.500000 0.000000
#
# Coordination Sequence:
#
# PCOD9459655 Si02
#       8
#     8   8   8   8   8   8   8   8
#     4  11  23  40  62  90 125 159 206 256 306 367
#     4  11  23  39  62  91 123 159 204 255 303 367
#     4  10  20  40  60  83 119 160 196 244 307 357
#     4  10  21  40  61  82 121 158 196 244 300 358
#     4   9  20  39  58  86 116 151 194 246 292 356
#     4   9  20  37  57  83 117 146 194 243 286 353
#     4  10  21  40  59  84 120 155 196 245 297 357
#     4  10  22  40  61  88 121 158 202 253 304 366
#
# _framework density 23.470541999999998
#
# number of rings (size 3 to 8) (size 9 to 14) (size 15 to 20)
#    0.000    2.000    1.250    1.500    1.750    2.000 
#    9.000    0.000    0.000    0.000    0.000    0.000 
#    0.000    0.000    0.000    0.000    0.000    0.000 
#
# Total GULP energy -357711.511826 kJ/mol
# GULP energy per Si atom -5589.242372 kJ/mol
# Density = 2.341712 g / cm^3
# Si number density = 23.470542 Si / 1000 Ang^3
#
#
#
# Elastic Constant Matrix: (Units=GPa)
#
#
# Indices 1 2 3 4 5 6 
#
# 1 35.0822 -6.2361 -4.4749 0.0000 0.0000 0.0000
# 2 -6.2361 95.2266 -8.2092 0.0000 0.0000 0.0000
# 3 -4.4749 -8.2092 24.3199 0.0000 0.0000 0.0000
# 4 0.0000 0.0000 0.0000 33.2289 0.0000 0.0000
# 5 0.0000 0.0000 0.0000 0.0000 4.4236 0.0000
# 6 0.0000 0.0000 0.0000 0.0000 0.0000 39.0972
#
#
#
# Elastic Compliance Matrix: (Units=1/GPa)
#
#
# Indices 1 2 3 4 5 6 
#
# 1 0.029753 0.002493 0.006316 0.000000 0.000000 0.000000
# 2 0.002493 0.011025 0.004180 0.000000 0.000000 0.000000
# 3 0.006316 0.004180 0.043692 0.000000 0.000000 0.000000
# 4 0.000000 0.000000 0.000000 0.030094 0.000000 0.000000
# 5 0.000000 0.000000 0.000000 0.000000 0.226060 0.000000
# 6 0.000000 0.000000 0.000000 0.000000 0.000000 0.025577
#
#
# Mechanical properties :
#
#
# Convention : Reuss Voigt Hill
#
# Bulk Modulus (GPa) = 9.05399 12.97647 11.01523
# Shear Modulus (GPa) = 13.26123 26.91987 20.09055
#
# Velocity S-wave (km/s) = 2.37958 3.39036 2.92890
# Velocity P-wave (km/s) = 3.37874 4.56803 4.01763
#
# Compressibility (1/GPa) = 0.11044859
#
# Stress axis : x y z
#
# Youngs Moduli (GPa) = 33.60975 90.70389 22.88758
#
# Poissons Ratio (x) = -0.22612 -0.14456
# Poissons Ratio (y) = -0.08379 -0.09567
# Poissons Ratio (z) = -0.21229 -0.37916
#
# Static dielectric constant tensor:
#      x y z
#    x 1.940590 0.000000 0.000000 
#    y 0.000000 1.893790 0.000000 
#    z 0.000000 0.000000 1.840980 
# 
# From -- ./inp_files/3696.got.cif
#   From: 2010.05.17/outbox.cif.g08.bks.cpg/sg61_2_cif.got.tgz:3696.got - 2010.06.03 15:17:17.
