data_PCOD9459061
_publ_section_title
;
Structure prediction by ZEFSAII (Michael W. Deem and Ramdas Pophale) SiO2 
 PCOD9459061
Probable space group: P B C A
;
_chemical_formula_sum "Si O2"
_cell_formula_units_Z 48
_cell_length_a 13.596686
_cell_length_b 13.784116
_cell_length_c 9.678369
_cell_angle_alpha 90.000000
_cell_angle_beta 90.000000
_cell_angle_gamma 90.000000
_cell_volume 1813.903436
_symmetry_space_group_name_H-M "P B C A"
_symmetry_group_IT_number 61
_symmetry_cell_setting 'orthorhombic'
loop_
_space_group_symop_operation_xyz
x,y,z
1/2-x,-y,1/2+z
1/2+x,1/2-y,-z
-x,1/2+y,1/2-z
-x,-y,-z
1/2+x,y,1/2-z
1/2-x,1/2+y,z
x,1/2-y,1/2+z
loop_
_atom_site_type_symbol
_atom_site_label
_atom_site_fract_x
_atom_site_fract_y
_atom_site_fract_z
Si Si1 0.725109 0.982167 0.418339
Si Si2 0.348669 0.092542 0.871960
Si Si3 0.889547 0.828855 0.853992
Si Si4 0.303163 0.750949 0.388731
Si Si5 0.415096 0.114963 0.416667
Si Si6 0.962627 0.590771 0.699750
O O1 0.818812 0.033320 0.489780
O O2 0.642220 0.068194 0.424780
O O3 0.712166 0.947585 0.261495
O O4 0.694572 0.893730 0.521067
O O5 0.304852 0.201415 0.889493
O O6 0.462395 0.091021 0.828839
O O7 0.827908 0.834264 0.714724
O O8 0.006423 0.818557 0.835067
O O9 0.847087 0.749989 0.959095
O O10 0.376677 0.830450 0.310160
O O11 0.469852 0.113997 0.565887
O O12 0.423515 0.017663 0.324424
#
# Coordination Sequence:
#
# PCOD9459061 Si02
#       6
#     8   8   8   8   8   8
#     4  10  18  34  58  79 103 143 191 221 265 326
#     4  10  19  34  56  79 108 139 178 229 269 325
#     4  10  18  35  56  78 106 146 177 224 274 323
#     4  10  21  35  53  78 115 137 176 224 281 317
#     4   9  13  33  61  74  93 146 194 208 255 336
#     4   9  15  33  57  76  99 144 182 219 257 325
#
# _framework density 26.462268000000002
#
# number of rings (size 3 to 8) (size 9 to 14) (size 15 to 20)
#    0.000    2.333    8.333    0.000    0.000    1.333 
#    0.000   14.167    0.000    0.000    0.000    0.000 
#    0.000    0.000    0.000    0.000    0.000    0.000 
#
# Total GULP energy -267551.066748 kJ/mol
# GULP energy per Si atom -5573.980557 kJ/mol
# Density = 2.640204 g / cm^3
# Si number density = 26.462268 Si / 1000 Ang^3
#
#
#
# Elastic Constant Matrix: (Units=GPa)
#
#
# Indices 1 2 3 4 5 6 
#
# 1 70.6941 -23.3846 5.8350 0.0000 0.0000 0.0000
# 2 -23.3846 20.4663 16.5939 0.0000 0.0000 0.0000
# 3 5.8350 16.5939 97.6900 0.0000 0.0000 0.0000
# 4 0.0000 0.0000 0.0000 38.6996 0.0000 0.0000
# 5 0.0000 0.0000 0.0000 0.0000 42.6826 0.0000
# 6 0.0000 0.0000 0.0000 0.0000 0.0000 20.0032
#
#
#
# Elastic Compliance Matrix: (Units=1/GPa)
#
#
# Indices 1 2 3 4 5 6 
#
# 1 0.027265 0.037660 -0.008026 0.000000 0.000000 0.000000
# 2 0.037660 0.108683 -0.020711 0.000000 0.000000 0.000000
# 3 -0.008026 -0.020711 0.014234 0.000000 0.000000 0.000000
# 4 0.000000 0.000000 0.000000 0.025840 0.000000 0.000000
# 5 0.000000 0.000000 0.000000 0.000000 0.023429 0.000000
# 6 0.000000 0.000000 0.000000 0.000000 0.000000 0.049992
#
#
# Mechanical properties :
#
#
# Convention : Reuss Voigt Hill
#
# Bulk Modulus (GPa) = 5.95131 20.77101 13.36116
# Shear Modulus (GPa) = 17.38495 32.93083 25.15789
#
# Velocity S-wave (km/s) = 2.56593 3.53150 3.08670
# Velocity P-wave (km/s) = 3.32152 4.94924 4.21470
#
# Compressibility (1/GPa) = 0.16803014
#
# Stress axis : x y z
#
# Youngs Moduli (GPa) = 36.67662 9.20106 70.25534
#
# Poissons Ratio (x) = -0.34651 0.56384
# Poissons Ratio (y) = -1.38125 1.45503
# Poissons Ratio (z) = 0.29435 0.19056
#
# Static dielectric constant tensor:
#      x y z
#    x 2.271790 0.000000 0.000000 
#    y 0.000000 2.250350 0.000000 
#    z 0.000000 0.000000 2.141220 
# 
# From -- ./inp_files/5768.got.cif
#   From: 2010.05.17/outbox.cif.g08.bks.cpg/sg61_3_cif.got.tgz:5768.got - 2010.06.03 15:17:17.
