data_PCOD9459311
_publ_section_title
;
Structure prediction by ZEFSAII (Michael W. Deem and Ramdas Pophale) SiO2 
 PCOD9459311
Probable space group: P B C A
;
_chemical_formula_sum "Si O2"
_cell_formula_units_Z 48
_cell_length_a 13.806267
_cell_length_b 15.913858
_cell_length_c 8.125969
_cell_angle_alpha 90.000000
_cell_angle_beta 90.000000
_cell_angle_gamma 90.000000
_cell_volume 1785.364552
_symmetry_space_group_name_H-M "P B C A"
_symmetry_group_IT_number 61
_symmetry_cell_setting 'orthorhombic'
loop_
_space_group_symop_operation_xyz
x,y,z
1/2-x,-y,1/2+z
1/2+x,1/2-y,-z
-x,1/2+y,1/2-z
-x,-y,-z
1/2+x,y,1/2-z
1/2-x,1/2+y,z
x,1/2-y,1/2+z
loop_
_atom_site_type_symbol
_atom_site_label
_atom_site_fract_x
_atom_site_fract_y
_atom_site_fract_z
Si Si1 0.274466 0.276028 0.234061
Si Si2 0.663564 0.884034 0.956943
Si Si3 0.980283 0.087147 0.708120
Si Si4 0.854055 0.875554 0.474804
Si Si5 0.072066 0.290099 0.422800
Si Si6 0.358432 0.940133 0.658467
O O1 0.320691 0.331843 0.374310
O O2 0.323785 0.188636 0.181276
O O3 0.165503 0.268713 0.309344
O O4 0.247594 0.333430 0.076875
O O5 0.751663 0.948032 0.922203
O O6 0.565106 0.923884 0.023596
O O7 0.096083 0.073759 0.675689
O O8 0.984341 0.173227 0.817632
O O9 0.928354 0.019818 0.827049
O O10 0.934973 0.800019 0.493395
O O11 0.844518 0.916877 0.650778
O O12 0.097095 0.362195 0.555696
#
# Coordination Sequence:
#
# PCOD9459311 Si02
#       6
#     8   8   8   8   8   8
#     4  10  19  38  66  89 119 170 217 260 317 400
#     4  11  22  40  62  94 132 169 214 265 344 385
#     4  11  26  36  62 103 132 163 218 284 322 381
#     4  11  20  42  69  95 118 176 228 262 315 397
#     4  10  20  41  66  93 121 176 227 259 318 394
#     4  11  21  43  65  88 136 175 209 266 339 397
#
# _framework density 26.885262999999998
#
# number of rings (size 3 to 8) (size 9 to 14) (size 15 to 20)
#    0.000    1.333    5.000    2.000    2.333    1.333 
#    0.000    3.333    0.000    0.000    0.000    0.000 
#    0.000    0.000    0.000    0.000    0.000    0.000 
#
# Total GULP energy -267845.303628 kJ/mol
# GULP energy per Si atom -5580.110492 kJ/mol
# Density = 2.682407 g / cm^3
# Si number density = 26.885263 Si / 1000 Ang^3
#
#
#
# Elastic Constant Matrix: (Units=GPa)
#
#
# Indices 1 2 3 4 5 6 
#
# 1 73.7026 29.5497 18.4546 0.0000 0.0000 0.0000
# 2 29.5497 79.0135 20.5975 0.0000 0.0000 0.0000
# 3 18.4546 20.5975 111.8011 0.0000 0.0000 0.0000
# 4 0.0000 0.0000 0.0000 52.8018 0.0000 0.0000
# 5 0.0000 0.0000 0.0000 0.0000 48.7694 0.0000
# 6 0.0000 0.0000 0.0000 0.0000 0.0000 43.8971
#
#
#
# Elastic Compliance Matrix: (Units=1/GPa)
#
#
# Indices 1 2 3 4 5 6 
#
# 1 0.016243 -0.005647 -0.001641 0.000000 0.000000 0.000000
# 2 -0.005647 0.015258 -0.001879 0.000000 0.000000 0.000000
# 3 -0.001641 -0.001879 0.009561 0.000000 0.000000 0.000000
# 4 0.000000 0.000000 0.000000 0.018939 0.000000 0.000000
# 5 0.000000 0.000000 0.000000 0.000000 0.020505 0.000000
# 6 0.000000 0.000000 0.000000 0.000000 0.000000 0.022781
#
#
# Mechanical properties :
#
#
# Convention : Reuss Voigt Hill
#
# Bulk Modulus (GPa) = 43.99671 44.63564 44.31618
# Shear Modulus (GPa) = 38.70111 42.15470 40.42790
#
# Velocity S-wave (km/s) = 3.79818 3.96403 3.88199
# Velocity P-wave (km/s) = 5.96951 6.13104 6.05081
#
# Compressibility (1/GPa) = 0.02272897
#
# Stress axis : x y z
#
# Youngs Moduli (GPa) = 61.56547 65.54082 104.58659
#
# Poissons Ratio (x) = 0.37010 0.17161
# Poissons Ratio (y) = 0.34765 0.19651
# Poissons Ratio (z) = 0.10102 0.12314
#
# Static dielectric constant tensor:
#      x y z
#    x 2.332030 0.000000 0.000000 
#    y 0.000000 2.416620 0.000000 
#    z 0.000000 0.000000 2.195130 
# 
# From -- ./inp_files/2861.got.cif
#   From: 2010.05.17/outbox.cif.g08.bks.cpg/sg61_2_cif.got.tgz:2861.got - 2010.06.03 15:17:17.
