data_PCOD9459180
_publ_section_title
;
Structure prediction by ZEFSAII (Michael W. Deem and Ramdas Pophale) SiO2 
 PCOD9459180
Probable space group: P B C A
;
_chemical_formula_sum "Si O2"
_cell_formula_units_Z 48
_cell_length_a 23.123068
_cell_length_b 9.732107
_cell_length_c 7.675462
_cell_angle_alpha 90.000000
_cell_angle_beta 90.000000
_cell_angle_gamma 90.000000
_cell_volume 1727.256586
_symmetry_space_group_name_H-M "P B C A"
_symmetry_group_IT_number 61
_symmetry_cell_setting 'orthorhombic'
loop_
_space_group_symop_operation_xyz
x,y,z
1/2-x,-y,1/2+z
1/2+x,1/2-y,-z
-x,1/2+y,1/2-z
-x,-y,-z
1/2+x,y,1/2-z
1/2-x,1/2+y,z
x,1/2-y,1/2+z
loop_
_atom_site_type_symbol
_atom_site_label
_atom_site_fract_x
_atom_site_fract_y
_atom_site_fract_z
Si Si1 0.425608 0.089862 0.046514
Si Si2 0.308055 0.333491 0.382933
Si Si3 0.997864 0.439618 0.279820
Si Si4 0.092674 0.401063 0.521006
Si Si5 0.354905 0.848707 0.180126
Si Si6 0.733414 0.574459 0.966964
O O1 0.463128 0.074324 0.224711
O O2 0.395882 0.938463 0.054039
O O3 0.368150 0.172070 0.991951
O O4 0.472570 0.115324 0.898733
O O5 0.286725 0.176021 0.378657
O O6 0.311467 0.408322 0.194130
O O7 0.260832 0.429033 0.480745
O O8 0.941266 0.476717 0.388570
O O9 0.040083 0.347649 0.395478
O O10 0.119488 0.302397 0.663942
O O11 0.140790 0.416771 0.371323
O O12 0.290567 0.852436 0.113026
#
# Coordination Sequence:
#
# PCOD9459180 Si02
#       6
#     8   8   8   8   8   8
#     4   9  20  40  61  86 124 162 206 259 324 385
#     4  11  24  44  68  97 131 174 219 273 331 393
#     4   9  19  37  59  86 122 164 208 261 316 383
#     4  10  19  33  58  87 114 152 209 257 307 370
#     4  10  20  35  60  87 116 162 209 255 313 393
#     4  11  24  43  68  96 131 170 221 274 329 390
#
# _framework density 27.789736000000001
#
# number of rings (size 3 to 8) (size 9 to 14) (size 15 to 20)
#    0.000    2.000    0.000    3.000    0.000    5.333 
#    0.000   15.000    0.000    0.000    0.000    0.000 
#    0.000    0.000    0.000    0.000    0.000    0.000 
#
# Total GULP energy -268140.300099 kJ/mol
# GULP energy per Si atom -5586.256252 kJ/mol
# Density = 2.772648 g / cm^3
# Si number density = 27.789736 Si / 1000 Ang^3
#
#
#
# Elastic Constant Matrix: (Units=GPa)
#
#
# Indices 1 2 3 4 5 6 
#
# 1 123.1821 2.1173 -6.8423 0.0000 0.0000 0.0000
# 2 2.1173 64.2728 13.3611 0.0000 0.0000 0.0000
# 3 -6.8423 13.3611 104.1835 0.0000 0.0000 0.0000
# 4 0.0000 0.0000 0.0000 30.8999 0.0000 0.0000
# 5 0.0000 0.0000 0.0000 0.0000 26.6687 0.0000
# 6 0.0000 0.0000 0.0000 0.0000 0.0000 41.6916
#
#
#
# Elastic Compliance Matrix: (Units=1/GPa)
#
#
# Indices 1 2 3 4 5 6 
#
# 1 0.008157 -0.000391 0.000586 0.000000 0.000000 0.000000
# 2 -0.000391 0.016004 -0.002078 0.000000 0.000000 0.000000
# 3 0.000586 -0.002078 0.009903 0.000000 0.000000 0.000000
# 4 0.000000 0.000000 0.000000 0.032363 0.000000 0.000000
# 5 0.000000 0.000000 0.000000 0.000000 0.037497 0.000000
# 6 0.000000 0.000000 0.000000 0.000000 0.000000 0.023986
#
#
# Mechanical properties :
#
#
# Convention : Reuss Voigt Hill
#
# Bulk Modulus (GPa) = 33.00458 34.32340 33.66399
# Shear Modulus (GPa) = 35.26721 38.71884 36.99302
#
# Velocity S-wave (km/s) = 3.56627 3.73671 3.65249
# Velocity P-wave (km/s) = 5.37215 5.56734 5.47062
#
# Compressibility (1/GPa) = 0.03029883
#
# Stress axis : x y z
#
# Youngs Moduli (GPa) = 122.58932 62.48618 100.97520
#
# Poissons Ratio (x) = 0.02440 -0.05915
# Poissons Ratio (y) = 0.04787 0.20983
# Poissons Ratio (z) = -0.07181 0.12985
#
# Static dielectric constant tensor:
#      x y z
#    x 2.198220 0.000000 0.000000 
#    y 0.000000 2.111450 0.000000 
#    z 0.000000 0.000000 2.207020 
# 
# From -- ./inp_files/4204.got.cif
#   From: 2010.05.17/outbox.cif.g08.bks.cpg/sg61_3_cif.got.tgz:4204.got - 2010.06.03 15:17:17.
