data_PCOD9459861
_publ_section_title
;
Structure prediction by ZEFSAII (Michael W. Deem and Ramdas Pophale) SiO2 
 PCOD9459861
Probable space group: P B C A
;
_chemical_formula_sum "Si O2"
_cell_formula_units_Z 56
_cell_length_a 15.682335
_cell_length_b 8.469012
_cell_length_c 20.174081
_cell_angle_alpha 90.000000
_cell_angle_beta 90.000000
_cell_angle_gamma 90.000000
_cell_volume 2679.398040
_symmetry_space_group_name_H-M "P B C A"
_symmetry_group_IT_number 61
_symmetry_cell_setting 'orthorhombic'
loop_
_space_group_symop_operation_xyz
x,y,z
1/2-x,-y,1/2+z
1/2+x,1/2-y,-z
-x,1/2+y,1/2-z
-x,-y,-z
1/2+x,y,1/2-z
1/2-x,1/2+y,z
x,1/2-y,1/2+z
loop_
_atom_site_type_symbol
_atom_site_label
_atom_site_fract_x
_atom_site_fract_y
_atom_site_fract_z
Si Si1 0.503138 0.103295 0.846339
Si Si2 0.854199 0.122125 0.554131
Si Si3 0.796582 0.423971 0.621104
Si Si4 0.046272 0.099219 0.220914
Si Si5 0.306346 0.812675 0.283782
Si Si6 0.682407 0.877545 0.337443
Si Si7 0.332772 0.040375 0.097646
O O1 0.434609 0.064013 0.902894
O O2 0.487626 0.280898 0.820055
O O3 0.493837 0.987655 0.783741
O O4 0.596919 0.081991 0.876069
O O5 0.844582 0.307924 0.570976
O O6 0.856998 0.088526 0.476577
O O7 0.772400 0.027853 0.581578
O O8 0.842807 0.549495 0.669065
O O9 0.746756 0.306927 0.670650
O O10 0.119664 0.215595 0.248870
O O11 0.095568 0.970463 0.176810
O O12 0.240813 0.880721 0.229071
O O13 0.666348 0.697853 0.357799
O O14 0.739987 0.962463 0.393210
#
# Coordination Sequence:
#
# PCOD9459861 Si02
#       7
#     8   8   8   8   8   8   8
#     4  12  26  42  62  98 135 169 205 270 340 381
#     4  11  24  43  60  94 129 176 220 253 317 389
#     4  10  21  37  67  89 121 161 214 271 310 374
#     4  12  24  41  66  97 130 161 210 274 332 376
#     4  11  18  37  64  94 119 149 205 278 319 355
#     4  12  22  42  68 100 120 169 225 266 319 378
#     4  12  24  42  66  88 135 175 214 262 310 396
#
# _framework density 20.900217000000001
#
# number of rings (size 3 to 8) (size 9 to 14) (size 15 to 20)
#    0.000    0.571    5.714    3.000    2.000    0.000 
#    0.000    0.714    0.000    0.000    0.000    0.000 
#    0.000    0.000    0.000    0.000    0.000    0.000 
#
# Total GULP energy -313230.203825 kJ/mol
# GULP energy per Si atom -5593.396497 kJ/mol
# Density = 2.085265 g / cm^3
# Si number density = 20.900217 Si / 1000 Ang^3
#
#
#
# Elastic Constant Matrix: (Units=GPa)
#
#
# Indices 1 2 3 4 5 6 
#
# 1 17.0132 -10.2756 17.9923 0.0000 0.0000 0.0000
# 2 -10.2756 75.5124 7.8089 0.0000 0.0000 0.0000
# 3 17.9923 7.8089 79.4460 0.0000 0.0000 0.0000
# 4 0.0000 0.0000 0.0000 26.0623 0.0000 0.0000
# 5 0.0000 0.0000 0.0000 0.0000 -813.2678 0.0000
# 6 0.0000 0.0000 0.0000 0.0000 0.0000 39.8793
#
#
#
# Elastic Compliance Matrix: (Units=1/GPa)
#
#
# Indices 1 2 3 4 5 6 
#
# 1 0.090928 0.014652 -0.022033 0.000000 0.000000 0.000000
# 2 0.014652 0.015740 -0.004865 0.000000 0.000000 0.000000
# 3 -0.022033 -0.004865 0.018055 0.000000 0.000000 0.000000
# 4 0.000000 0.000000 0.000000 0.038370 0.000000 0.000000
# 5 0.000000 0.000000 0.000000 0.000000 -0.001230 0.000000
# 6 0.000000 0.000000 0.000000 0.000000 0.000000 0.025076
#
#
# Mechanical properties :
#
#
# Convention : Reuss Voigt Hill
#
# Bulk Modulus (GPa) = 9.97699 22.55807 16.26753
# Shear Modulus (GPa) = 20.42135 -139.03552 -59.30708
#
# Velocity S-wave (km/s) = 3.12923 -8.16504 -5.33272
# Velocity P-wave (km/s) = 4.22376 8.83594 5.48788
#
# Compressibility (1/GPa) = 0.10023058
#
# Stress axis : x y z
#
# Youngs Moduli (GPa) = 10.99769 63.53318 55.38562
#
# Poissons Ratio (x) = -0.93088 1.22030
# Poissons Ratio (y) = -0.16114 0.26947
# Poissons Ratio (z) = 0.24231 0.30911
#
# Static dielectric constant tensor:
#      x y z
#    x 1.756100 0.000000 0.000000 
#    y 0.000000 1.745640 0.000000 
#    z 0.000000 0.000000 1.739410 
# 
# From -- ./inp_files/7167.got.cif
#   From: 2010.05.17/outbox.cif.g08.bks.cpg/sg61_4_cif.got.tgz:7167.got - 2010.06.03 15:17:17.
