data_PCOD9459727
_publ_section_title
;
Structure prediction by ZEFSAII (Michael W. Deem and Ramdas Pophale) SiO2 
 PCOD9459727
Probable space group: P B C A
;
_chemical_formula_sum "Si O2"
_cell_formula_units_Z 48
_cell_length_a 4.956686
_cell_length_b 24.183160
_cell_length_c 16.738233
_cell_angle_alpha 90.000000
_cell_angle_beta 90.000000
_cell_angle_gamma 90.000000
_cell_volume 2006.384047
_symmetry_space_group_name_H-M "P B C A"
_symmetry_group_IT_number 61
_symmetry_cell_setting 'orthorhombic'
loop_
_space_group_symop_operation_xyz
x,y,z
1/2-x,-y,1/2+z
1/2+x,1/2-y,-z
-x,1/2+y,1/2-z
-x,-y,-z
1/2+x,y,1/2-z
1/2-x,1/2+y,z
x,1/2-y,1/2+z
loop_
_atom_site_type_symbol
_atom_site_label
_atom_site_fract_x
_atom_site_fract_y
_atom_site_fract_z
Si Si1 0.828791 0.699031 0.915062
Si Si2 0.661866 0.266637 0.601433
Si Si3 0.464795 0.421787 0.425395
Si Si4 0.663007 0.855727 0.796279
Si Si5 0.003735 0.956138 0.604811
Si Si6 0.382891 0.522930 0.810642
O O1 0.043833 0.742486 0.878214
O O2 0.530014 0.713475 0.888479
O O3 0.906118 0.635795 0.901500
O O4 0.831263 0.712398 0.009981
O O5 0.494168 0.314020 0.646154
O O6 0.611465 0.480992 0.406713
O O7 0.449750 0.425265 0.521315
O O8 0.187823 0.429238 0.375227
O O9 0.479397 0.848260 0.717110
O O10 0.622326 0.917573 0.827549
O O11 0.696586 0.969290 0.634527
O O12 0.644335 0.525740 0.756314
#
# Coordination Sequence:
#
# PCOD9459727 Si02
#       6
#     8   8   8   8   8   8
#     4  10  20  42  64  91 121 162 210 265 299 369
#     4  10  22  39  66  89 121 163 214 253 315 364
#     4   9  20  41  66  95 127 166 215 259 311 384
#     4  12  24  42  67  95 132 166 209 268 319 370
#     4   9  20  41  65  95 126 168 214 257 313 386
#     4  10  21  39  58  87 124 161 200 250 315 368
#
# _framework density 23.923632999999999
#
# number of rings (size 3 to 8) (size 9 to 14) (size 15 to 20)
#    1.000    1.000    1.667    2.000    0.000    1.333 
#    0.000   11.667    0.000    0.000    0.000    0.000 
#    0.000    0.000    0.000    0.000    0.000    0.000 
#
# Total GULP energy -267591.872093 kJ/mol
# GULP energy per Si atom -5574.830669 kJ/mol
# Density = 2.386918 g / cm^3
# Si number density = 23.923633 Si / 1000 Ang^3
#
#
#
# Elastic Constant Matrix: (Units=GPa)
#
#
# Indices 1 2 3 4 5 6 
#
# 1 92.6328 5.6641 15.6504 0.0000 0.0000 0.0000
# 2 5.6641 105.7722 0.5223 0.0000 0.0000 0.0000
# 3 15.6504 0.5223 61.3839 0.0000 0.0000 0.0000
# 4 0.0000 0.0000 0.0000 33.3252 0.0000 0.0000
# 5 0.0000 0.0000 0.0000 0.0000 10.8041 0.0000
# 6 0.0000 0.0000 0.0000 0.0000 0.0000 25.5310
#
#
#
# Elastic Compliance Matrix: (Units=1/GPa)
#
#
# Indices 1 2 3 4 5 6 
#
# 1 0.011318 -0.000592 -0.002881 0.000000 0.000000 0.000000
# 2 -0.000592 0.009486 0.000070 0.000000 0.000000 0.000000
# 3 -0.002881 0.000070 0.017025 0.000000 0.000000 0.000000
# 4 0.000000 0.000000 0.000000 0.030007 0.000000 0.000000
# 5 0.000000 0.000000 0.000000 0.000000 0.092557 0.000000
# 6 0.000000 0.000000 0.000000 0.000000 0.000000 0.039168
#
#
# Mechanical properties :
#
#
# Convention : Reuss Voigt Hill
#
# Bulk Modulus (GPa) = 32.23316 33.71805 32.97561
# Shear Modulus (GPa) = 23.07260 29.79553 26.43406
#
# Velocity S-wave (km/s) = 3.10889 3.53291 3.32766
# Velocity P-wave (km/s) = 5.13708 5.54676 5.34585
#
# Compressibility (1/GPa) = 0.03102396
#
# Stress axis : x y z
#
# Youngs Moduli (GPa) = 88.35339 105.42269 58.73796
#
# Poissons Ratio (x) = 0.06240 0.16920
# Poissons Ratio (y) = 0.05229 -0.00412
# Poissons Ratio (z) = 0.25451 -0.00740
#
# Static dielectric constant tensor:
#      x y z
#    x 1.959400 0.000000 0.000000 
#    y 0.000000 1.912280 0.000000 
#    z 0.000000 0.000000 1.960270 
# 
# From -- ./inp_files/8753.got.cif
#   From: 2010.05.17/outbox.cif.g08.bks.cpg/sg61_5_cif.got.tgz:8753.got - 2010.06.03 15:17:17.
