data_PCOD9459172
_publ_section_title
;
Structure prediction by ZEFSAII (Michael W. Deem and Ramdas Pophale) SiO2 
 PCOD9459172
Probable space group: P B C A
;
_chemical_formula_sum "Si O2"
_cell_formula_units_Z 64
_cell_length_a 31.632117
_cell_length_b 19.823936
_cell_length_c 4.993473
_cell_angle_alpha 90.000000
_cell_angle_beta 90.000000
_cell_angle_gamma 90.000000
_cell_volume 3131.272409
_symmetry_space_group_name_H-M "P B C A"
_symmetry_group_IT_number 61
_symmetry_cell_setting 'orthorhombic'
loop_
_space_group_symop_operation_xyz
x,y,z
1/2-x,-y,1/2+z
1/2+x,1/2-y,-z
-x,1/2+y,1/2-z
-x,-y,-z
1/2+x,y,1/2-z
1/2-x,1/2+y,z
x,1/2-y,1/2+z
loop_
_atom_site_type_symbol
_atom_site_label
_atom_site_fract_x
_atom_site_fract_y
_atom_site_fract_z
Si Si1 0.755894 0.912218 0.212456
Si Si2 0.309337 0.705260 0.717112
Si Si3 0.301602 0.527712 0.283862
Si Si4 0.443906 0.514617 0.755493
Si Si5 0.873180 0.903732 0.031018
Si Si6 0.965804 0.430361 0.232559
Si Si7 0.964800 0.208974 0.009920
Si Si8 0.066316 0.291421 0.535095
O O1 0.764379 0.833398 0.254789
O O2 0.788405 0.949174 0.419657
O O3 0.711168 0.949381 0.254720
O O4 0.770075 0.931270 0.913450
O O5 0.314092 0.731273 0.415875
O O6 0.342516 0.649670 0.822481
O O7 0.346724 0.551068 0.175795
O O8 0.399063 0.550700 0.761676
O O9 0.483178 0.564734 0.691068
O O10 0.446403 0.452875 0.548725
O O11 0.453193 0.487203 0.052547
O O12 0.909365 0.858891 0.890359
O O13 0.952272 0.360241 0.365470
O O14 0.952213 0.269484 0.808068
O O15 0.015857 0.202404 0.036294
O O16 0.078426 0.232775 0.740008
#
# Coordination Sequence:
#
# PCOD9459172 Si02
#       8
#     8   8   8   8   8   8   8   8
#     4   9  18  36  51  77 104 142 182 217 249 311
#     4  11  22  34  53  80 115 149 173 207 260 329
#     4   9  19  32  56  74 105 139 181 223 259 299
#     4  10  22  33  54  70 110 142 179 229 271 321
#     4  11  21  36  51  82 109 146 178 221 273 325
#     4  10  20  38  49  76  99 145 187 224 274 322
#     4  10  19  33  54  74  96 132 180 225 265 320
#     4  10  21  32  46  71 108 143 170 208 259 323
#
# _framework density 20.438974999999999
#
# number of rings (size 3 to 8) (size 9 to 14) (size 15 to 20)
#    0.000    2.000    1.250    3.000    0.000    6.000 
#    0.000    0.000    0.000    0.000    0.000    5.250 
#    0.000    0.000    0.000    0.000    0.000    0.000 
#
# Total GULP energy -357129.022095 kJ/mol
# GULP energy per Si atom -5580.140970 kJ/mol
# Density = 2.039245 g / cm^3
# Si number density = 20.438975 Si / 1000 Ang^3
#
#
#
# Elastic Constant Matrix: (Units=GPa)
#
#
# Indices 1 2 3 4 5 6 
#
# 1 14.7769 19.2693 8.8365 0.0000 0.0000 0.0000
# 2 19.2693 51.1989 -2.9207 0.0000 0.0000 0.0000
# 3 8.8365 -2.9207 61.5741 0.0000 0.0000 0.0000
# 4 0.0000 0.0000 0.0000 23.0682 0.0000 0.0000
# 5 0.0000 0.0000 0.0000 0.0000 10.6756 0.0000
# 6 0.0000 0.0000 0.0000 0.0000 0.0000 33.1950
#
#
#
# Elastic Compliance Matrix: (Units=1/GPa)
#
#
# Indices 1 2 3 4 5 6 
#
# 1 0.169002 -0.065166 -0.027344 0.000000 0.000000 0.000000
# 2 -0.065166 0.044712 0.011473 0.000000 0.000000 0.000000
# 3 -0.027344 0.011473 0.020709 0.000000 0.000000 0.000000
# 4 0.000000 0.000000 0.000000 0.043350 0.000000 0.000000
# 5 0.000000 0.000000 0.000000 0.000000 0.093671 0.000000
# 6 0.000000 0.000000 0.000000 0.000000 0.000000 0.030125
#
#
# Mechanical properties :
#
#
# Convention : Reuss Voigt Hill
#
# Bulk Modulus (GPa) = 13.82209 19.76892 16.79550
# Shear Modulus (GPa) = 8.50688 20.21209 14.35949
#
# Velocity S-wave (km/s) = 2.04233 3.14809 2.65345
# Velocity P-wave (km/s) = 3.51266 4.78614 4.19797
#
# Compressibility (1/GPa) = 0.07234798
#
# Stress axis : x y z
#
# Youngs Moduli (GPa) = 5.91710 22.36537 48.28823
#
# Poissons Ratio (x) = 1.45745 1.32041
# Poissons Ratio (y) = 0.38559 -0.55400
# Poissons Ratio (z) = 0.16180 -0.25659
#
# Static dielectric constant tensor:
#      x y z
#    x 1.766220 0.000000 0.000000 
#    y 0.000000 1.779800 0.000000 
#    z 0.000000 0.000000 1.724110 
# 
# From -- ./inp_files/1513.got.cif
#   From: 2010.05.17/outbox.cif.g08.bks.cpg/sg61_1_cif.got.tgz:1513.got - 2010.06.03 15:17:17.
