data_PCOD9459628
_publ_section_title
;
Structure prediction by ZEFSAII (Michael W. Deem and Ramdas Pophale) SiO2 
 PCOD9459628
Probable space group: P B C A
;
_chemical_formula_sum "Si O2"
_cell_formula_units_Z 40
_cell_length_a 11.692957
_cell_length_b 12.434325
_cell_length_c 11.532553
_cell_angle_alpha 90.000000
_cell_angle_beta 90.000000
_cell_angle_gamma 90.000000
_cell_volume 1676.764329
_symmetry_space_group_name_H-M "P B C A"
_symmetry_group_IT_number 61
_symmetry_cell_setting 'orthorhombic'
loop_
_space_group_symop_operation_xyz
x,y,z
1/2-x,-y,1/2+z
1/2+x,1/2-y,-z
-x,1/2+y,1/2-z
-x,-y,-z
1/2+x,y,1/2-z
1/2-x,1/2+y,z
x,1/2-y,1/2+z
loop_
_atom_site_type_symbol
_atom_site_label
_atom_site_fract_x
_atom_site_fract_y
_atom_site_fract_z
Si Si1 0.876416 0.332153 0.122787
Si Si2 0.815871 0.889892 0.971124
Si Si3 0.337926 0.397613 0.952891
Si Si4 0.387156 0.154603 0.203894
Si Si5 0.422908 0.661229 0.484668
O O1 0.760828 0.391452 0.089404
O O2 0.871479 0.228027 0.033628
O O3 0.874724 0.276803 0.246973
O O4 0.994985 0.386208 0.085820
O O5 0.893522 0.784780 0.980218
O O6 0.875943 0.005246 0.965900
O O7 0.723723 0.877555 0.869388
O O8 0.382443 0.414388 0.821833
O O9 0.200321 0.391556 0.968050
O O10 0.503809 0.148388 0.132418
#
# Coordination Sequence:
#
# PCOD9459628 Si02
#       5
#     8   8   8   8   8
#     4   8  20  38  56  89 116 155 208 237 305 359
#     4  10  20  40  61  85 121 164 195 254 308 345
#     4   9  21  40  56  93 122 153 206 253 294 368
#     4   9  21  40  56  92 121 149 216 238 291 388
#     4  10  20  39  64  79 126 161 193 260 296 356
#
# _framework density 23.855468999999999
#
# number of rings (size 3 to 8) (size 9 to 14) (size 15 to 20)
#    1.200    1.600    0.000    0.000    2.800    4.000 
#   18.000    0.000    0.000    0.000    0.000    0.000 
#    0.000    0.000    0.000    0.000    0.000    0.000 
#
# Total GULP energy -222873.148284 kJ/mol
# GULP energy per Si atom -5571.828707 kJ/mol
# Density = 2.380117 g / cm^3
# Si number density = 23.855469 Si / 1000 Ang^3
#
#
#
# Elastic Constant Matrix: (Units=GPa)
#
#
# Indices 1 2 3 4 5 6 
#
# 1 103.4823 -14.9366 -11.1645 0.0000 0.0000 0.0000
# 2 -14.9366 74.5814 -6.4853 0.0000 0.0000 0.0000
# 3 -11.1645 -6.4853 42.7617 0.0000 0.0000 0.0000
# 4 0.0000 0.0000 0.0000 11.9797 0.0000 0.0000
# 5 0.0000 0.0000 0.0000 0.0000 20.0385 0.0000
# 6 0.0000 0.0000 0.0000 0.0000 0.0000 -2.8025
#
#
#
# Elastic Compliance Matrix: (Units=1/GPa)
#
#
# Indices 1 2 3 4 5 6 
#
# 1 0.010330 0.002334 0.003051 0.000000 0.000000 0.000000
# 2 0.002334 0.014115 0.002750 0.000000 0.000000 0.000000
# 3 0.003051 0.002750 0.024599 0.000000 0.000000 0.000000
# 4 0.000000 0.000000 0.000000 0.083475 0.000000 0.000000
# 5 0.000000 0.000000 0.000000 0.000000 0.049904 0.000000
# 6 0.000000 0.000000 0.000000 0.000000 0.000000 -0.356826
#
#
# Mechanical properties :
#
#
# Convention : Reuss Voigt Hill
#
# Bulk Modulus (GPa) = 15.31085 17.29474 16.30279
# Shear Modulus (GPa) = -29.60277 22.73726 -3.43276
#
# Velocity S-wave (km/s) = -3.52649 3.09062 -1.20088
# Velocity P-wave (km/s) = 3.18582 4.47230 2.21946
#
# Compressibility (1/GPa) = 0.06531317
#
# Stress axis : x y z
#
# Youngs Moduli (GPa) = 96.80977 70.84793 40.65201
#
# Poissons Ratio (x) = -0.16536 -0.12402
# Poissons Ratio (y) = -0.22595 -0.11179
# Poissons Ratio (z) = -0.29536 -0.19483
#
# Static dielectric constant tensor:
#      x y z
#    x 1.898120 0.000000 0.000000 
#    y 0.000000 1.959620 0.000000 
#    z 0.000000 0.000000 1.917200 
# 
# From -- ./inp_files/7409.got.cif
#   From: 2010.05.17/outbox.cif.g08.bks.cpg/sg61_4_cif.got.tgz:7409.got - 2010.06.03 15:17:17.
