data_PCOD9459561
_publ_section_title
;
Structure prediction by ZEFSAII (Michael W. Deem and Ramdas Pophale) SiO2 
 PCOD9459561
Probable space group: P B C A
;
_chemical_formula_sum "Si O2"
_cell_formula_units_Z 48
_cell_length_a 7.083987
_cell_length_b 11.781161
_cell_length_c 24.545419
_cell_angle_alpha 90.000000
_cell_angle_beta 90.000000
_cell_angle_gamma 90.000000
_cell_volume 2048.501549
_symmetry_space_group_name_H-M "P B C A"
_symmetry_group_IT_number 61
_symmetry_cell_setting 'orthorhombic'
loop_
_space_group_symop_operation_xyz
x,y,z
1/2-x,-y,1/2+z
1/2+x,1/2-y,-z
-x,1/2+y,1/2-z
-x,-y,-z
1/2+x,y,1/2-z
1/2-x,1/2+y,z
x,1/2-y,1/2+z
loop_
_atom_site_type_symbol
_atom_site_label
_atom_site_fract_x
_atom_site_fract_y
_atom_site_fract_z
Si Si1 0.548291 0.109779 0.137460
Si Si2 0.645339 0.172633 0.702714
Si Si3 0.450019 0.510040 0.885587
Si Si4 0.359449 0.728135 0.951286
Si Si5 0.921114 0.876206 0.326074
Si Si6 0.575224 0.276469 0.923637
O O1 0.572732 0.204144 0.184388
O O2 0.515177 0.178907 0.081303
O O3 0.748041 0.048934 0.125473
O O4 0.416858 0.008180 0.157694
O O5 0.518782 0.079422 0.670536
O O6 0.656270 0.151772 0.766633
O O7 0.857932 0.159105 0.680642
O O8 0.430425 0.604533 0.932622
O O9 0.580460 0.407084 0.904680
O O10 0.146314 0.742713 0.929944
O O11 0.351119 0.742672 0.015674
O O12 0.843486 0.802100 0.375949
#
# Coordination Sequence:
#
# PCOD9459561 Si02
#       6
#     8   8   8   8   8   8
#     4   9  18  38  61  79 116 156 184 234 295 338
#     4  10  21  37  62  82 117 152 192 239 287 340
#     4   9  17  39  60  80 111 160 188 230 293 340
#     4  10  20  38  61  82 116 153 189 238 290 341
#     4  11  22  38  58  86 114 154 191 236 292 340
#     4  11  21  38  59  86 115 151 195 237 290 344
#
# _framework density 23.431761999999999
#
# number of rings (size 3 to 8) (size 9 to 14) (size 15 to 20)
#    0.000    2.000    6.667    0.500    2.333    0.667 
#    6.000    1.667    0.000    0.000    0.000    0.000 
#    0.000    0.000    0.000    0.000    0.000    0.000 
#
# Total GULP energy -268443.047883 kJ/mol
# GULP energy per Si atom -5592.563498 kJ/mol
# Density = 2.337843 g / cm^3
# Si number density = 23.431762 Si / 1000 Ang^3
#
#
#
# Elastic Constant Matrix: (Units=GPa)
#
#
# Indices 1 2 3 4 5 6 
#
# 1 54.5014 19.2041 35.9360 0.0000 0.0000 0.0000
# 2 19.2041 190.3206 97.4742 0.0000 0.0000 0.0000
# 3 35.9360 97.4742 251.3947 0.0000 0.0000 0.0000
# 4 0.0000 0.0000 0.0000 24.5455 0.0000 0.0000
# 5 0.0000 0.0000 0.0000 0.0000 36.8693 0.0000
# 6 0.0000 0.0000 0.0000 0.0000 0.0000 13.8307
#
#
#
# Elastic Compliance Matrix: (Units=1/GPa)
#
#
# Indices 1 2 3 4 5 6 
#
# 1 0.020333 -0.000703 -0.002634 0.000000 0.000000 0.000000
# 2 -0.000703 0.006581 -0.002451 0.000000 0.000000 0.000000
# 3 -0.002634 -0.002451 0.005305 0.000000 0.000000 0.000000
# 4 0.000000 0.000000 0.000000 0.040741 0.000000 0.000000
# 5 0.000000 0.000000 0.000000 0.000000 0.027123 0.000000
# 6 0.000000 0.000000 0.000000 0.000000 0.000000 0.072303
#
#
# Mechanical properties :
#
#
# Convention : Reuss Voigt Hill
#
# Bulk Modulus (GPa) = 48.44411 89.04948 68.74679
# Shear Modulus (GPa) = 26.19996 37.95593 32.07794
#
# Velocity S-wave (km/s) = 3.34749 4.02910 3.70401
# Velocity P-wave (km/s) = 5.97163 7.72859 6.90621
#
# Compressibility (1/GPa) = 0.02064234
#
# Stress axis : x y z
#
# Youngs Moduli (GPa) = 49.18234 151.96381 188.51235
#
# Poissons Ratio (x) = 0.10677 0.49655
# Poissons Ratio (y) = 0.03455 0.46205
# Poissons Ratio (z) = 0.12955 0.37247
#
# Static dielectric constant tensor:
#      x y z
#    x 1.985920 0.000000 0.000000 
#    y 0.000000 1.852480 0.000000 
#    z 0.000000 0.000000 1.730360 
# 
# From -- ./inp_files/2272.got.cif
#   From: 2010.05.17/outbox.cif.g08.bks.cpg/sg61_2_cif.got.tgz:2272.got - 2010.06.03 15:17:17.
