data_PCOD9459267
_publ_section_title
;
Structure prediction by ZEFSAII (Michael W. Deem and Ramdas Pophale) SiO2 
 PCOD9459267
Probable space group: P B C A
;
_chemical_formula_sum "Si O2"
_cell_formula_units_Z 32
_cell_length_a 14.271348
_cell_length_b 14.211658
_cell_length_c 5.620694
_cell_angle_alpha 90.000000
_cell_angle_beta 90.000000
_cell_angle_gamma 90.000000
_cell_volume 1139.986442
_symmetry_space_group_name_H-M "P B C A"
_symmetry_group_IT_number 61
_symmetry_cell_setting 'orthorhombic'
loop_
_space_group_symop_operation_xyz
x,y,z
1/2-x,-y,1/2+z
1/2+x,1/2-y,-z
-x,1/2+y,1/2-z
-x,-y,-z
1/2+x,y,1/2-z
1/2-x,1/2+y,z
x,1/2-y,1/2+z
loop_
_atom_site_type_symbol
_atom_site_label
_atom_site_fract_x
_atom_site_fract_y
_atom_site_fract_z
Si Si1 0.793557 0.468637 0.749999
Si Si2 0.003361 0.577983 0.250000
Si Si3 0.251757 0.252655 0.749999
Si Si4 0.563482 0.619630 0.750000
O O1 0.750000 0.500000 0.499999
O O2 0.903672 0.488918 0.750000
O O3 0.793165 0.356315 0.750000
O O4 0.012093 0.635489 0.495782
O O5 0.925507 0.495873 0.250000
O O6 0.012093 0.635489 0.004218
O O7 0.198233 0.250000 0.499999
O O8 0.338636 0.178363 0.750000
#
# Coordination Sequence:
#
# PCOD9459267 Si02
#       4
#     8   8   8   8
#     4  12  24  38  60  97 135 178 218 258 323 410
#     4  10  20  36  61  95 123 157 212 270 331 372
#     4  12  21  38  64  94 122 175 226 267 324 385
#     4  10  19  36  63  94 118 156 218 275 316 395
#
# _framework density 28.070508
#
# number of rings (size 3 to 8) (size 9 to 14) (size 15 to 20)
#    0.000    1.000    5.000    3.000    0.000    0.000 
#    0.000    0.000    0.000    9.000    0.000    0.000 
#    0.000    0.000    0.000    0.000    0.000    0.000 
#
# Total GULP energy -178667.348139 kJ/mol
# GULP energy per Si atom -5583.354629 kJ/mol
# Density = 2.800662 g / cm^3
# Si number density = 28.070508 Si / 1000 Ang^3
#
#
#
# Elastic Constant Matrix: (Units=GPa)
#
#
# Indices 1 2 3 4 5 6 
#
# 1 115.0028 37.0762 59.1142 0.0000 0.0000 0.0000
# 2 37.0762 111.4956 56.5441 0.0000 0.0000 0.0000
# 3 59.1142 56.5441 372.3547 0.0000 0.0000 0.0000
# 4 0.0000 0.0000 0.0000 28.6898 0.0000 0.0000
# 5 0.0000 0.0000 0.0000 0.0000 36.5938 0.0000
# 6 0.0000 0.0000 0.0000 0.0000 0.0000 22.8546
#
#
#
# Elastic Compliance Matrix: (Units=1/GPa)
#
#
# Indices 1 2 3 4 5 6 
#
# 1 0.010210 -0.002788 -0.001198 0.000000 0.000000 0.000000
# 2 -0.002788 0.010479 -0.001149 0.000000 0.000000 0.000000
# 3 -0.001198 -0.001149 0.003050 0.000000 0.000000 0.000000
# 4 0.000000 0.000000 0.000000 0.034856 0.000000 0.000000
# 5 0.000000 0.000000 0.000000 0.000000 0.027327 0.000000
# 6 0.000000 0.000000 0.000000 0.000000 0.000000 0.043755
#
#
# Mechanical properties :
#
#
# Convention : Reuss Voigt Hill
#
# Bulk Modulus (GPa) = 74.23617 100.48023 87.35820
# Shear Modulus (GPa) = 34.61785 47.36886 40.99336
#
# Velocity S-wave (km/s) = 3.51557 4.11237 3.82563
# Velocity P-wave (km/s) = 6.55612 7.64344 7.12056
#
# Compressibility (1/GPa) = 0.01347052
#
# Stress axis : x y z
#
# Youngs Moduli (GPa) = 97.94543 95.43330 327.85196
#
# Poissons Ratio (x) = 0.26605 0.39262
# Poissons Ratio (y) = 0.27305 0.37658
# Poissons Ratio (z) = 0.11729 0.10962
#
# Static dielectric constant tensor:
#      x y z
#    x 2.233850 0.000000 0.000000 
#    y 0.000000 2.405550 0.000000 
#    z 0.000000 0.000000 2.371100 
# 
# From -- ./inp_files/665.got.cif
#   From: 2010.05.17/outbox.cif.g08.bks.cpg/sg61_1_cif.got.tgz:665.got - 2010.06.03 15:17:17.
