data_PCOD9459253
_publ_section_title
;
Structure prediction by ZEFSAII (Michael W. Deem and Ramdas Pophale) SiO2 
 PCOD9459253
Probable space group: P B C A
;
_chemical_formula_sum "Si O2"
_cell_formula_units_Z 64
_cell_length_a 9.577561
_cell_length_b 17.913199
_cell_length_c 14.930056
_cell_angle_alpha 90.000000
_cell_angle_beta 90.000000
_cell_angle_gamma 90.000000
_cell_volume 2561.471417
_symmetry_space_group_name_H-M "P B C A"
_symmetry_group_IT_number 61
_symmetry_cell_setting 'orthorhombic'
loop_
_space_group_symop_operation_xyz
x,y,z
1/2-x,-y,1/2+z
1/2+x,1/2-y,-z
-x,1/2+y,1/2-z
-x,-y,-z
1/2+x,y,1/2-z
1/2-x,1/2+y,z
x,1/2-y,1/2+z
loop_
_atom_site_type_symbol
_atom_site_label
_atom_site_fract_x
_atom_site_fract_y
_atom_site_fract_z
Si Si1 0.501543 0.187791 0.629842
Si Si2 0.425860 0.447828 0.237340
Si Si3 0.526060 0.374070 0.412577
Si Si4 0.314379 0.481598 0.849970
Si Si5 0.231223 0.388960 0.473073
Si Si6 0.404351 0.159725 0.282396
Si Si7 0.339034 0.758099 0.198112
Si Si8 0.947542 0.360420 0.903327
O O1 0.399129 0.129231 0.681003
O O2 0.585716 0.146900 0.551635
O O3 0.608844 0.200491 0.712030
O O4 0.465811 0.270334 0.593620
O O5 0.511936 0.429896 0.329346
O O6 0.286673 0.487273 0.271851
O O7 0.527725 0.493526 0.172898
O O8 0.360836 0.347969 0.419690
O O9 0.641694 0.313922 0.385292
O O10 0.538624 0.396793 0.516901
O O11 0.271252 0.526559 0.938087
O O12 0.318755 0.392846 0.847684
O O13 0.288258 0.381468 0.572255
O O14 0.535479 0.200734 0.322936
O O15 0.298916 0.216732 0.232657
O O16 0.470735 0.115038 0.197581
#
# Coordination Sequence:
#
# PCOD9459253 Si02
#       8
#     8   8   8   8   8   8   8   8
#     4   9  17  32  54  81 111 136 185 239 280 343
#     4   9  18  34  58  80 101 150 193 230 278 338
#     4   8  17  32  54  80 108 141 176 234 296 336
#     4  10  19  36  57  75 112 154 202 224 266 344
#     4   8  17  33  54  76 110 153 178 227 292 335
#     4  11  22  35  57  84 112 155 197 235 277 338
#     4  10  20  34  55  85 113 147 188 236 290 341
#     4   9  20  32  54  85 112 139 180 239 295 331
#
# _framework density 24.985638000000002
#
# number of rings (size 3 to 8) (size 9 to 14) (size 15 to 20)
#    0.750    2.000    0.000    1.500    1.750    6.000 
#    0.000    0.625    5.500    2.250    0.000    0.000 
#    0.000    0.000    0.000    0.000    0.000    0.000 
#
# Total GULP energy -356623.829506 kJ/mol
# GULP energy per Si atom -5572.247336 kJ/mol
# Density = 2.492877 g / cm^3
# Si number density = 24.985638 Si / 1000 Ang^3
#
#
#
# Elastic Constant Matrix: (Units=GPa)
#
#
# Indices 1 2 3 4 5 6 
#
# 1 72.3269 12.6415 -8.5713 0.0000 0.0000 0.0000
# 2 12.6415 48.1004 -5.8571 0.0000 0.0000 0.0000
# 3 -8.5713 -5.8571 38.9978 0.0000 0.0000 0.0000
# 4 0.0000 0.0000 0.0000 9.0150 0.0000 0.0000
# 5 0.0000 0.0000 0.0000 0.0000 13.3019 0.0000
# 6 0.0000 0.0000 0.0000 0.0000 0.0000 27.0688
#
#
#
# Elastic Compliance Matrix: (Units=1/GPa)
#
#
# Indices 1 2 3 4 5 6 
#
# 1 0.014768 -0.003551 0.002713 0.000000 0.000000 0.000000
# 2 -0.003551 0.022031 0.002528 0.000000 0.000000 0.000000
# 3 0.002713 0.002528 0.026618 0.000000 0.000000 0.000000
# 4 0.000000 0.000000 0.000000 0.110926 0.000000 0.000000
# 5 0.000000 0.000000 0.000000 0.000000 0.075177 0.000000
# 6 0.000000 0.000000 0.000000 0.000000 0.000000 0.036943
#
#
# Mechanical properties :
#
#
# Convention : Reuss Voigt Hill
#
# Bulk Modulus (GPa) = 14.97062 17.31681 16.14371
# Shear Modulus (GPa) = 16.37467 20.62462 18.49965
#
# Velocity S-wave (km/s) = 2.56278 2.87620 2.72400
# Velocity P-wave (km/s) = 3.84211 4.23978 4.04584
#
# Compressibility (1/GPa) = 0.06679750
#
# Stress axis : x y z
#
# Youngs Moduli (GPa) = 67.71292 45.39060 37.56800
#
# Poissons Ratio (x) = 0.16118 -0.10191
# Poissons Ratio (y) = 0.24045 -0.09499
# Poissons Ratio (z) = -0.18368 -0.11477
#
# Static dielectric constant tensor:
#      x y z
#    x 2.055100 0.000000 0.000000 
#    y 0.000000 2.069420 0.000000 
#    z 0.000000 0.000000 2.016020 
# 
# From -- ./inp_files/9369.got.cif
#   From: 2010.05.17/outbox.cif.g08.bks.cpg/sg61_5_cif.got.tgz:9369.got - 2010.06.03 15:17:17.
