data_PCOD9459611
_publ_section_title
;
Structure prediction by ZEFSAII (Michael W. Deem and Ramdas Pophale) SiO2 
 PCOD9459611
Probable space group: P B C A
;
_chemical_formula_sum "Si O2"
_cell_formula_units_Z 64
_cell_length_a 9.201029
_cell_length_b 15.386275
_cell_length_c 23.372887
_cell_angle_alpha 90.000000
_cell_angle_beta 90.000000
_cell_angle_gamma 90.000000
_cell_volume 3308.889386
_symmetry_space_group_name_H-M "P B C A"
_symmetry_group_IT_number 61
_symmetry_cell_setting 'orthorhombic'
loop_
_space_group_symop_operation_xyz
x,y,z
1/2-x,-y,1/2+z
1/2+x,1/2-y,-z
-x,1/2+y,1/2-z
-x,-y,-z
1/2+x,y,1/2-z
1/2-x,1/2+y,z
x,1/2-y,1/2+z
loop_
_atom_site_type_symbol
_atom_site_label
_atom_site_fract_x
_atom_site_fract_y
_atom_site_fract_z
Si Si1 0.640372 0.411755 0.554703
Si Si2 0.127722 0.693804 0.719365
Si Si3 0.176647 0.521054 0.662245
Si Si4 0.346262 0.011944 0.352807
Si Si5 0.765583 0.625142 0.245373
Si Si6 0.086485 0.432016 0.072502
Si Si7 0.128925 0.847262 0.344105
Si Si8 0.894554 0.719257 0.147513
O O1 0.783685 0.438217 0.591251
O O2 0.530598 0.492294 0.561042
O O3 0.651405 0.397194 0.487083
O O4 0.576505 0.329303 0.588625
O O5 0.208539 0.607486 0.699324
O O6 0.217428 0.781701 0.730128
O O7 0.062633 0.669922 0.781424
O O8 0.012106 0.713771 0.670154
O O9 0.198802 0.438672 0.703250
O O10 0.287689 0.525598 0.610297
O O11 0.010326 0.519943 0.641057
O O12 0.232270 0.933131 0.341910
O O13 0.344343 0.075312 0.297439
O O14 0.890743 0.647900 0.198916
O O15 0.995731 0.361606 0.109209
O O16 0.239478 0.767906 0.356223
#
# Coordination Sequence:
#
# PCOD9459611 Si02
#       8
#     8   8   8   8   8   8   8   8
#     4   9  21  45  65  81 121 169 218 252 314 366
#     4  11  22  35  60  93 131 156 209 255 314 376
#     4  12  23  36  64  97 126 161 207 262 316 366
#     4  10  20  39  61  88 122 167 203 255 309 370
#     4  10  22  36  57  94 130 164 197 253 320 375
#     4  10  23  40  64  90 117 167 213 260 306 375
#     4  10  21  36  59  87 124 162 202 250 317 371
#     4  10  20  39  60  87 122 166 201 256 302 376
#
# _framework density 19.341837000000002
#
# number of rings (size 3 to 8) (size 9 to 14) (size 15 to 20)
#    0.000    1.750    2.500    1.500    5.250    0.500 
#    2.250    0.000    0.000    0.000    0.000    0.000 
#    0.000    0.000    0.000    0.000    0.000    0.000 
#
# Total GULP energy -356934.219230 kJ/mol
# GULP energy per Si atom -5577.097175 kJ/mol
# Density = 1.929781 g / cm^3
# Si number density = 19.341837 Si / 1000 Ang^3
#
#
#
# Elastic Constant Matrix: (Units=GPa)
#
#
# Indices 1 2 3 4 5 6 
#
# 1 52.0244 15.7424 31.9060 0.0000 0.0000 0.0000
# 2 15.7424 86.0204 51.6237 0.0000 0.0000 0.0000
# 3 31.9060 51.6237 119.8151 0.0000 0.0000 0.0000
# 4 0.0000 0.0000 0.0000 26.1662 0.0000 0.0000
# 5 0.0000 0.0000 0.0000 0.0000 12.7634 0.0000
# 6 0.0000 0.0000 0.0000 0.0000 0.0000 20.9694
#
#
#
# Elastic Compliance Matrix: (Units=1/GPa)
#
#
# Indices 1 2 3 4 5 6 
#
# 1 0.023007 -0.000720 -0.005816 0.000000 0.000000 0.000000
# 2 -0.000720 0.015702 -0.006574 0.000000 0.000000 0.000000
# 3 -0.005816 -0.006574 0.012727 0.000000 0.000000 0.000000
# 4 0.000000 0.000000 0.000000 0.038217 0.000000 0.000000
# 5 0.000000 0.000000 0.000000 0.000000 0.078349 0.000000
# 6 0.000000 0.000000 0.000000 0.000000 0.000000 0.047688
#
#
# Mechanical properties :
#
#
# Convention : Reuss Voigt Hill
#
# Bulk Modulus (GPa) = 39.65689 50.71159 45.18424
# Shear Modulus (GPa) = 19.97476 22.55232 21.26354
#
# Velocity S-wave (km/s) = 3.21709 3.41836 3.31925
# Velocity P-wave (km/s) = 5.86065 6.46960 6.17264
#
# Compressibility (1/GPa) = 0.02521630
#
# Stress axis : x y z
#
# Youngs Moduli (GPa) = 43.46555 63.68623 78.57047
#
# Poissons Ratio (x) = 0.04584 0.45700
# Poissons Ratio (y) = 0.03129 0.51650
# Poissons Ratio (z) = 0.25281 0.41865
#
# Static dielectric constant tensor:
#      x y z
#    x 1.715070 0.000000 0.000000 
#    y 0.000000 1.713490 0.000000 
#    z 0.000000 0.000000 1.679730 
# 
# From -- ./inp_files/10936.got.cif
#   From: 2010.05.17/outbox.cif.g08.bks.cpg/sg61_6_cif.got.tgz:10936.got - 2010.06.03 15:17:17.
