data_PCOD9459251
_publ_section_title
;
Structure prediction by ZEFSAII (Michael W. Deem and Ramdas Pophale) SiO2 
 PCOD9459251
Probable space group: P B C A
;
_chemical_formula_sum "Si O2"
_cell_formula_units_Z 52
_cell_length_a 19.755757
_cell_length_b 12.869661
_cell_length_c 9.022199
_cell_angle_alpha 90.000000
_cell_angle_beta 90.000000
_cell_angle_gamma 90.000000
_cell_volume 2293.893152
_symmetry_space_group_name_H-M "P B C A"
_symmetry_group_IT_number 61
_symmetry_cell_setting 'orthorhombic'
loop_
_space_group_symop_operation_xyz
x,y,z
1/2-x,-y,1/2+z
1/2+x,1/2-y,-z
-x,1/2+y,1/2-z
-x,-y,-z
1/2+x,y,1/2-z
1/2-x,1/2+y,z
x,1/2-y,1/2+z
loop_
_atom_site_type_symbol
_atom_site_label
_atom_site_fract_x
_atom_site_fract_y
_atom_site_fract_z
Si Si1 0.176397 0.801667 0.071570
Si Si2 0.393538 0.743666 0.428792
Si Si3 0.798245 0.838396 0.819627
Si Si4 0.273802 0.526889 0.548987
Si Si5 0.000000 0.500000 0.000000
Si Si6 0.913325 0.600184 0.823127
Si Si7 0.628116 0.880697 0.128774
O O1 0.136233 0.726244 0.963352
O O2 0.221054 0.888621 0.988238
O O3 0.233499 0.735856 0.160959
O O4 0.132329 0.855121 0.198304
O O5 0.340352 0.680241 0.329005
O O6 0.351441 0.806661 0.551087
O O7 0.425973 0.825469 0.314968
O O8 0.437329 0.658242 0.520735
O O9 0.770915 0.951846 0.849694
O O10 0.333751 0.580060 0.647174
O O11 0.309991 0.451691 0.431741
O O12 0.046216 0.504662 0.158767
O O13 0.938577 0.442650 0.088973
#
# Coordination Sequence:
#
# PCOD9459251 Si02
#       7
#     8   8   8   8   4   8   8
#     4  11  21  38  63  98 131 164 211 271 346 393
#     4  10  19  36  56  87 115 163 193 258 319 378
#     4  10  20  32  55  90 133 148 198 250 332 403
#     4  10  21  31  59  94 126 159 195 261 334 393
#     4  10  24  48  60  86 124 178 234 256 318 384
#     4  10  22  37  62  81 120 163 208 254 310 381
#     4  10  25  41  65  93 133 178 217 280 324 403
#
# _framework density 22.668885
#
# number of rings (size 3 to 8) (size 9 to 14) (size 15 to 20)
#    0.000    1.846    3.077    1.846    4.308    2.462 
#    2.769    0.000    0.000    2.769    0.000    0.000 
#    0.000    0.000    0.000    0.000    0.000    0.000 
#
# Total GULP energy -289681.174301 kJ/mol
# GULP energy per Si atom -5570.791813 kJ/mol
# Density = 2.261729 g / cm^3
# Si number density = 22.668885 Si / 1000 Ang^3
#
#
#
# Elastic Constant Matrix: (Units=GPa)
#
#
# Indices 1 2 3 4 5 6 
#
# 1 58.7213 6.1139 14.1811 0.0000 0.0000 0.0000
# 2 6.1139 66.6120 10.4891 0.0000 0.0000 0.0000
# 3 14.1811 10.4891 94.1267 0.0000 0.0000 0.0000
# 4 0.0000 0.0000 0.0000 23.2137 0.0000 0.0000
# 5 0.0000 0.0000 0.0000 0.0000 17.2545 0.0000
# 6 0.0000 0.0000 0.0000 0.0000 0.0000 11.6343
#
#
#
# Elastic Compliance Matrix: (Units=1/GPa)
#
#
# Indices 1 2 3 4 5 6 
#
# 1 0.017771 -0.001231 -0.002540 0.000000 0.000000 0.000000
# 2 -0.001231 0.015366 -0.001527 0.000000 0.000000 0.000000
# 3 -0.002540 -0.001527 0.011177 0.000000 0.000000 0.000000
# 4 0.000000 0.000000 0.000000 0.043078 0.000000 0.000000
# 5 0.000000 0.000000 0.000000 0.000000 0.057956 0.000000
# 6 0.000000 0.000000 0.000000 0.000000 0.000000 0.085953
#
#
# Mechanical properties :
#
#
# Convention : Reuss Voigt Hill
#
# Bulk Modulus (GPa) = 29.65820 31.22536 30.44178
# Shear Modulus (GPa) = 19.75224 22.99890 21.37557
#
# Velocity S-wave (km/s) = 2.95504 3.18867 3.07408
# Velocity P-wave (km/s) = 4.97541 5.23080 5.10470
#
# Compressibility (1/GPa) = 0.03371749
#
# Stress axis : x y z
#
# Youngs Moduli (GPa) = 56.27068 65.07995 89.47079
#
# Poissons Ratio (x) = 0.08012 0.22728
# Poissons Ratio (y) = 0.06928 0.13660
# Poissons Ratio (z) = 0.14294 0.09936
#
# Static dielectric constant tensor:
#      x y z
#    x 1.745670 0.000000 0.000000 
#    y 0.000000 1.717480 0.000000 
#    z 0.000000 0.000000 1.889110 
# 
# From -- ./inp_files/3885.got.cif
#   From: 2010.05.17/outbox.cif.g08.bks.cpg/sg61_2_cif.got.tgz:3885.got - 2010.06.03 15:17:17.
