data_PCOD9459062
_publ_section_title
;
Structure prediction by ZEFSAII (Michael W. Deem and Ramdas Pophale) SiO2 
 PCOD9459062
Probable space group: P B C A
;
_chemical_formula_sum "Si O2"
_cell_formula_units_Z 56
_cell_length_a 19.040043
_cell_length_b 15.197153
_cell_length_c 7.994930
_cell_angle_alpha 90.000000
_cell_angle_beta 90.000000
_cell_angle_gamma 90.000000
_cell_volume 2313.368546
_symmetry_space_group_name_H-M "P B C A"
_symmetry_group_IT_number 61
_symmetry_cell_setting 'orthorhombic'
loop_
_space_group_symop_operation_xyz
x,y,z
1/2-x,-y,1/2+z
1/2+x,1/2-y,-z
-x,1/2+y,1/2-z
-x,-y,-z
1/2+x,y,1/2-z
1/2-x,1/2+y,z
x,1/2-y,1/2+z
loop_
_atom_site_type_symbol
_atom_site_label
_atom_site_fract_x
_atom_site_fract_y
_atom_site_fract_z
Si Si1 0.502088 0.269475 0.698588
Si Si2 0.713319 0.167241 0.885535
Si Si3 0.233706 0.094270 0.954866
Si Si4 0.294163 0.409487 0.819205
Si Si5 0.601798 0.007395 0.868206
Si Si6 0.959363 0.387301 0.115469
Si Si7 0.396114 0.821429 0.533205
O O1 0.448321 0.192892 0.755257
O O2 0.479137 0.332006 0.550826
O O3 0.537782 0.326446 0.844389
O O4 0.569300 0.214772 0.633960
O O5 0.771130 0.155188 0.031978
O O6 0.745330 0.161174 0.699076
O O7 0.659019 0.084501 0.886704
O O8 0.663388 0.250663 0.914085
O O9 0.245664 0.998729 0.875909
O O10 0.269961 0.114586 0.131067
O O11 0.150444 0.094048 0.002014
O O12 0.373707 0.439741 0.777094
O O13 0.526673 0.052954 0.837259
O O14 0.597753 0.954592 0.044973
#
# Coordination Sequence:
#
# PCOD9459062 Si02
#       7
#     8   8   8   8   8   8   8
#     4  10  18  34  59  91 113 154 204 271 303 355
#     4  11  21  39  61  95 120 162 208 262 320 358
#     4  11  21  34  58  91 121 157 200 253 315 363
#     4  11  22  37  61  85 130 166 197 252 316 382
#     4  10  20  39  61  88 120 169 203 253 318 392
#     4  10  21  37  66  84 121 162 212 257 327 368
#     4  11  19  34  61  89 120 148 214 272 294 361
#
# _framework density 24.207125999999999
#
# number of rings (size 3 to 8) (size 9 to 14) (size 15 to 20)
#    0.000    1.429    7.143    1.714    0.000    0.000 
#    0.000    1.429   18.857   10.286    0.000    0.000 
#    0.000    0.000    0.000    0.000    0.000    0.000 
#
# Total GULP energy -312290.478672 kJ/mol
# GULP energy per Si atom -5576.615691 kJ/mol
# Density = 2.415203 g / cm^3
# Si number density = 24.207126 Si / 1000 Ang^3
#
#
#
# Elastic Constant Matrix: (Units=GPa)
#
#
# Indices 1 2 3 4 5 6 
#
# 1 29.2758 9.0351 0.9113 0.0000 0.0000 0.0000
# 2 9.0351 58.5100 12.7728 0.0000 0.0000 0.0000
# 3 0.9113 12.7728 102.2368 0.0000 0.0000 0.0000
# 4 0.0000 0.0000 0.0000 32.8636 0.0000 0.0000
# 5 0.0000 0.0000 0.0000 0.0000 14.1084 0.0000
# 6 0.0000 0.0000 0.0000 0.0000 0.0000 34.3815
#
#
#
# Elastic Compliance Matrix: (Units=1/GPa)
#
#
# Indices 1 2 3 4 5 6 
#
# 1 0.035882 -0.005624 0.000383 0.000000 0.000000 0.000000
# 2 -0.005624 0.018452 -0.002255 0.000000 0.000000 0.000000
# 3 0.000383 -0.002255 0.010060 0.000000 0.000000 0.000000
# 4 0.000000 0.000000 0.000000 0.030429 0.000000 0.000000
# 5 0.000000 0.000000 0.000000 0.000000 0.070880 0.000000
# 6 0.000000 0.000000 0.000000 0.000000 0.000000 0.029085
#
#
# Mechanical properties :
#
#
# Convention : Reuss Voigt Hill
#
# Bulk Modulus (GPa) = 20.24300 26.16235 23.20267
# Shear Modulus (GPa) = 22.09972 27.42426 24.76199
#
# Velocity S-wave (km/s) = 3.02477 3.36951 3.20178
# Velocity P-wave (km/s) = 4.53647 5.09601 4.82436
#
# Compressibility (1/GPa) = 0.04939980
#
# Stress axis : x y z
#
# Youngs Moduli (GPa) = 27.86925 54.19491 99.40806
#
# Poissons Ratio (x) = 0.30482 -0.03806
# Poissons Ratio (y) = 0.15675 0.22418
# Poissons Ratio (z) = -0.01067 0.12222
#
# Static dielectric constant tensor:
#      x y z
#    x 1.954710 0.000000 0.000000 
#    y 0.000000 1.986170 0.000000 
#    z 0.000000 0.000000 1.991400 
# 
# From -- ./inp_files/4038.got.cif
#   From: 2010.05.17/outbox.cif.g08.bks.cpg/sg61_3_cif.got.tgz:4038.got - 2010.06.03 15:17:17.
