data_PCOD9459953
_publ_section_title
;
Structure prediction by ZEFSAII (Michael W. Deem and Ramdas Pophale) SiO2 
 PCOD9459953
Probable space group: P B C A
;
_chemical_formula_sum "Si O2"
_cell_formula_units_Z 52
_cell_length_a 13.167310
_cell_length_b 16.950090
_cell_length_c 10.669193
_cell_angle_alpha 90.000000
_cell_angle_beta 90.000000
_cell_angle_gamma 90.000000
_cell_volume 2381.226134
_symmetry_space_group_name_H-M "P B C A"
_symmetry_group_IT_number 61
_symmetry_cell_setting 'orthorhombic'
loop_
_space_group_symop_operation_xyz
x,y,z
1/2-x,-y,1/2+z
1/2+x,1/2-y,-z
-x,1/2+y,1/2-z
-x,-y,-z
1/2+x,y,1/2-z
1/2-x,1/2+y,z
x,1/2-y,1/2+z
loop_
_atom_site_type_symbol
_atom_site_label
_atom_site_fract_x
_atom_site_fract_y
_atom_site_fract_z
Si Si1 0.107096 0.846748 0.469454
Si Si2 0.891315 0.333022 0.521678
Si Si3 0.195288 0.084309 0.399461
Si Si4 0.500000 0.500000 0.500000
Si Si5 0.508952 0.595157 0.782536
Si Si6 0.559311 0.081482 0.325217
Si Si7 0.685802 0.076144 0.580302
O O1 0.089213 0.758024 0.509558
O O2 0.064186 0.920487 0.545794
O O3 0.050281 0.860836 0.337315
O O4 0.225708 0.862777 0.448746
O O5 0.774702 0.351817 0.551403
O O6 0.923709 0.382086 0.400605
O O7 0.965129 0.364222 0.633217
O O8 0.139148 0.114615 0.274495
O O9 0.107370 0.052216 0.491065
O O10 0.262828 0.005299 0.374537
O O11 0.523925 0.501360 0.762155
O O12 0.392717 0.608095 0.817417
O O13 0.619155 0.062276 0.454716
#
# Coordination Sequence:
#
# PCOD9459953 Si02
#       7
#     8   8   8   4   8   8   8
#     4  11  26  42  65 101 132 178 222 281 328 395
#     4  11  25  42  65  98 137 169 227 276 335 396
#     4  11  22  39  69  96 126 171 221 277 328 392
#     4  10  24  42  62  96 132 168 224 268 324 396
#     4  11  21  43  67  92 134 179 216 267 343 400
#     4  11  21  40  69  96 127 180 214 270 336 404
#     4  10  21  39  64  92 125 170 223 262 332 409
#
# _framework density 21.837489999999999
#
# number of rings (size 3 to 8) (size 9 to 14) (size 15 to 20)
#    0.000    1.231    6.154    0.923    0.000   12.308 
#    0.000    0.000    0.000    0.000    0.000    0.000 
#    0.000    0.000    0.000    0.000    0.000    0.000 
#
# Total GULP energy -289583.052349 kJ/mol
# GULP energy per Si atom -5568.904853 kJ/mol
# Density = 2.178779 g / cm^3
# Si number density = 21.837490 Si / 1000 Ang^3
#
#
#
# Elastic Constant Matrix: (Units=GPa)
#
#
# Indices 1 2 3 4 5 6 
#
# 1 112.7775 71.9435 104.7969 0.0000 0.0000 0.0000
# 2 71.9435 17.5086 -143.7064 0.0000 0.0000 0.0000
# 3 104.7969 -143.7064 -226.4223 0.0000 0.0000 0.0000
# 4 0.0000 0.0000 0.0000 21.1034 0.0000 0.0000
# 5 0.0000 0.0000 0.0000 0.0000 45.0140 0.0000
# 6 0.0000 0.0000 0.0000 0.0000 0.0000 3.2585
#
#
#
# Elastic Compliance Matrix: (Units=1/GPa)
#
#
# Indices 1 2 3 4 5 6 
#
# 1 0.006211 -0.000310 0.003071 0.000000 0.000000 0.000000
# 2 -0.000310 0.009214 -0.005991 0.000000 0.000000 0.000000
# 3 0.003071 -0.005991 0.000808 0.000000 0.000000 0.000000
# 4 0.000000 0.000000 0.000000 0.047386 0.000000 0.000000
# 5 0.000000 0.000000 0.000000 0.000000 0.022215 0.000000
# 6 0.000000 0.000000 0.000000 0.000000 0.000000 0.306892
#
#
# Mechanical properties :
#
#
# Convention : Reuss Voigt Hill
#
# Bulk Modulus (GPa) = 102.33375 -3.34089 49.49643
# Shear Modulus (GPa) = 12.42412 5.26383 8.84397
#
# Velocity S-wave (km/s) = 2.38782 1.55425 2.01462
# Velocity P-wave (km/s) = 7.38685 1.29912 5.30345
#
# Compressibility (1/GPa) = 0.00977195
#
# Stress axis : x y z
#
# Youngs Moduli (GPa) = 161.01025 108.53375 1238.06563
#
# Poissons Ratio (x) = 0.03367 -3.80272
# Poissons Ratio (y) = 0.04995 7.41773
# Poissons Ratio (z) = -0.49454 0.65027
#
# Static dielectric constant tensor:
#      x y z
#    x 1.791260 0.000000 0.000000 
#    y 0.000000 1.773600 0.000000 
#    z 0.000000 0.000000 2.000320 
# 
# From -- ./inp_files/5900.got.cif
#   From: 2010.05.17/outbox.cif.g08.bks.cpg/sg61_3_cif.got.tgz:5900.got - 2010.06.03 15:17:17.
