data_PCOD9459455
_publ_section_title
;
Structure prediction by ZEFSAII (Michael W. Deem and Ramdas Pophale) SiO2 
 PCOD9459455
Probable space group: P B C A
;
_chemical_formula_sum "Si O2"
_cell_formula_units_Z 48
_cell_length_a 24.781036
_cell_length_b 5.073522
_cell_length_c 14.156572
_cell_angle_alpha 90.000000
_cell_angle_beta 90.000000
_cell_angle_gamma 90.000000
_cell_volume 1779.865187
_symmetry_space_group_name_H-M "P B C A"
_symmetry_group_IT_number 61
_symmetry_cell_setting 'orthorhombic'
loop_
_space_group_symop_operation_xyz
x,y,z
1/2-x,-y,1/2+z
1/2+x,1/2-y,-z
-x,1/2+y,1/2-z
-x,-y,-z
1/2+x,y,1/2-z
1/2-x,1/2+y,z
x,1/2-y,1/2+z
loop_
_atom_site_type_symbol
_atom_site_label
_atom_site_fract_x
_atom_site_fract_y
_atom_site_fract_z
Si Si1 0.350843 0.602252 0.886356
Si Si2 0.012129 0.589983 0.156607
Si Si3 0.911808 0.705471 0.276280
Si Si4 0.647431 0.375398 0.438856
Si Si5 0.443503 0.265254 0.980122
Si Si6 0.785413 0.343352 0.776703
O O1 0.371526 0.814963 0.810389
O O2 0.316804 0.406396 0.820929
O O3 0.321514 0.732300 0.975773
O O4 0.406016 0.477466 0.928593
O O5 0.967926 0.596611 0.238783
O O6 0.068518 0.508421 0.204338
O O7 0.024626 0.815653 0.078977
O O8 0.986904 0.364513 0.089495
O O9 0.880419 0.652073 0.372253
O O10 0.600133 0.541289 0.489267
O O11 0.680811 0.560368 0.368186
O O12 0.764973 0.046226 0.779074
#
# Coordination Sequence:
#
# PCOD9459455 Si02
#       6
#     8   8   8   8   8   8
#     4  11  24  43  71  96 136 184 228 292 362 424
#     4  10  20  36  58  95 142 184 242 280 327 409
#     4  10  21  37  58  96 133 182 225 278 334 398
#     4  10  24  44  66 100 135 175 230 287 356 422
#     4  10  22  39  62  97 136 187 236 282 342 410
#     4  11  29  51  75 108 137 175 233 301 376 447
#
# _framework density 26.968336999999998
#
# number of rings (size 3 to 8) (size 9 to 14) (size 15 to 20)
#    0.000    1.667    1.667    1.000    7.000    2.000 
#    0.000    0.000    0.000    0.000    0.000    0.000 
#    0.000    0.000    0.000    0.000    0.000    0.000 
#
# Total GULP energy -268485.390500 kJ/mol
# GULP energy per Si atom -5593.445635 kJ/mol
# Density = 2.690696 g / cm^3
# Si number density = 26.968337 Si / 1000 Ang^3
#
#
#
# Elastic Constant Matrix: (Units=GPa)
#
#
# Indices 1 2 3 4 5 6 
#
# 1 97.5892 24.2888 32.1195 0.0000 0.0000 0.0000
# 2 24.2888 57.9383 27.9946 0.0000 0.0000 0.0000
# 3 32.1195 27.9946 203.2920 0.0000 0.0000 0.0000
# 4 0.0000 0.0000 0.0000 19.5259 0.0000 0.0000
# 5 0.0000 0.0000 0.0000 0.0000 40.8946 0.0000
# 6 0.0000 0.0000 0.0000 0.0000 0.0000 59.2067
#
#
#
# Elastic Compliance Matrix: (Units=1/GPa)
#
#
# Indices 1 2 3 4 5 6 
#
# 1 0.011735 -0.004310 -0.001260 0.000000 0.000000 0.000000
# 2 -0.004310 0.020073 -0.002083 0.000000 0.000000 0.000000
# 3 -0.001260 -0.002083 0.005405 0.000000 0.000000 0.000000
# 4 0.000000 0.000000 0.000000 0.051214 0.000000 0.000000
# 5 0.000000 0.000000 0.000000 0.000000 0.024453 0.000000
# 6 0.000000 0.000000 0.000000 0.000000 0.000000 0.016890
#
#
# Mechanical properties :
#
#
# Convention : Reuss Voigt Hill
#
# Bulk Modulus (GPa) = 45.65175 58.62503 52.13839
# Shear Modulus (GPa) = 32.81275 42.21988 37.51631
#
# Velocity S-wave (km/s) = 3.49193 3.96098 3.73382
# Velocity P-wave (km/s) = 5.76392 6.53489 6.16147
#
# Compressibility (1/GPa) = 0.02190496
#
# Stress axis : x y z
#
# Youngs Moduli (GPa) = 85.21734 49.81744 185.01204
#
# Poissons Ratio (x) = 0.21473 0.23320
# Poissons Ratio (y) = 0.36732 0.38542
# Poissons Ratio (z) = 0.10742 0.10378
#
# Static dielectric constant tensor:
#      x y z
#    x 2.084300 0.000000 0.000000 
#    y 0.000000 2.206580 0.000000 
#    z 0.000000 0.000000 2.141820 
# 
# From -- ./inp_files/8580.got.cif
#   From: 2010.05.17/outbox.cif.g08.bks.cpg/sg61_5_cif.got.tgz:8580.got - 2010.06.03 15:17:17.
