data_PCOD9459082
_publ_section_title
;
Structure prediction by ZEFSAII (Michael W. Deem and Ramdas Pophale) SiO2 
 PCOD9459082
Probable space group: P B C A
;
_chemical_formula_sum "Si O2"
_cell_formula_units_Z 64
_cell_length_a 20.231174
_cell_length_b 18.207084
_cell_length_c 8.283485
_cell_angle_alpha 90.000000
_cell_angle_beta 90.000000
_cell_angle_gamma 90.000000
_cell_volume 3051.227369
_symmetry_space_group_name_H-M "P B C A"
_symmetry_group_IT_number 61
_symmetry_cell_setting 'orthorhombic'
loop_
_space_group_symop_operation_xyz
x,y,z
1/2-x,-y,1/2+z
1/2+x,1/2-y,-z
-x,1/2+y,1/2-z
-x,-y,-z
1/2+x,y,1/2-z
1/2-x,1/2+y,z
x,1/2-y,1/2+z
loop_
_atom_site_type_symbol
_atom_site_label
_atom_site_fract_x
_atom_site_fract_y
_atom_site_fract_z
Si Si1 0.371085 0.188212 0.902073
Si Si2 0.215443 0.596818 0.114675
Si Si3 0.261776 0.203253 0.381382
Si Si4 0.852424 0.815323 0.385058
Si Si5 0.059067 0.276534 0.847848
Si Si6 0.528236 0.677355 0.061566
Si Si7 0.137842 0.604369 0.590065
Si Si8 0.265415 0.553313 0.760980
O O1 0.302201 0.224170 0.838214
O O2 0.421862 0.252602 0.935942
O O3 0.392835 0.139704 0.752438
O O4 0.349937 0.141068 0.057192
O O5 0.255050 0.653625 0.227467
O O6 0.203234 0.525815 0.225034
O O7 0.249293 0.571190 0.947350
O O8 0.203003 0.220239 0.501021
O O9 0.313592 0.155711 0.485562
O O10 0.912468 0.828075 0.510574
O O11 0.882429 0.758400 0.258887
O O12 0.815584 0.885254 0.308016
O O13 0.009742 0.320357 0.731179
O O14 0.024048 0.205276 0.928086
O O15 0.571644 0.605013 0.021244
O O16 0.193757 0.550665 0.667277
#
# Coordination Sequence:
#
# PCOD9459082 Si02
#       8
#     8   8   8   8   8   8   8   8
#     4  10  20  33  61  94 118 153 199 269 317 359
#     4  11  23  38  63  97 131 164 200 254 327 389
#     4  10  20  33  58  94 121 152 198 253 326 365
#     4  10  23  37  56  87 127 164 206 249 315 376
#     4  10  22  34  56  83 124 169 208 263 306 350
#     4  10  18  36  54  90 119 155 215 258 310 354
#     4   9  18  32  55  83 119 151 193 259 302 362
#     4  10  22  41  57  95 124 167 205 242 321 396
#
# _framework density 20.975166999999999
#
# number of rings (size 3 to 8) (size 9 to 14) (size 15 to 20)
#    0.000    2.000    1.250    3.000    8.750    1.000 
#    0.000    0.000    0.000    3.000    0.000    7.000 
#    0.000    0.000    0.000    0.000    0.000    0.000 
#
# Total GULP energy -356503.341840 kJ/mol
# GULP energy per Si atom -5570.364716 kJ/mol
# Density = 2.092743 g / cm^3
# Si number density = 20.975167 Si / 1000 Ang^3
#
#
#
# Elastic Constant Matrix: (Units=GPa)
#
#
# Indices 1 2 3 4 5 6 
#
# 1 71.3574 15.0762 28.7599 0.0000 0.0000 0.0000
# 2 15.0762 42.8354 16.9092 0.0000 0.0000 0.0000
# 3 28.7599 16.9092 90.2437 0.0000 0.0000 0.0000
# 4 0.0000 0.0000 0.0000 29.8810 0.0000 0.0000
# 5 0.0000 0.0000 0.0000 0.0000 45.6930 0.0000
# 6 0.0000 0.0000 0.0000 0.0000 0.0000 15.7478
#
#
#
# Elastic Compliance Matrix: (Units=1/GPa)
#
#
# Indices 1 2 3 4 5 6 
#
# 1 0.016715 -0.004082 -0.004562 0.000000 0.000000 0.000000
# 2 -0.004082 0.026207 -0.003609 0.000000 0.000000 0.000000
# 3 -0.004562 -0.003609 0.013211 0.000000 0.000000 0.000000
# 4 0.000000 0.000000 0.000000 0.033466 0.000000 0.000000
# 5 0.000000 0.000000 0.000000 0.000000 0.021885 0.000000
# 6 0.000000 0.000000 0.000000 0.000000 0.000000 0.063501
#
#
# Mechanical properties :
#
#
# Convention : Reuss Voigt Hill
#
# Bulk Modulus (GPa) = 31.61976 36.21411 33.91693
# Shear Modulus (GPa) = 23.80558 27.84377 25.82467
#
# Velocity S-wave (km/s) = 3.37254 3.64739 3.51266
# Velocity P-wave (km/s) = 5.50209 5.91951 5.71461
#
# Compressibility (1/GPa) = 0.03162580
#
# Stress axis : x y z
#
# Youngs Moduli (GPa) = 59.82602 38.15812 75.69262
#
# Poissons Ratio (x) = 0.15577 0.34532
# Poissons Ratio (y) = 0.24422 0.27321
# Poissons Ratio (z) = 0.27293 0.13773
#
# Static dielectric constant tensor:
#      x y z
#    x 1.823810 0.000000 0.000000 
#    y 0.000000 1.754850 0.000000 
#    z 0.000000 0.000000 1.805990 
# 
# From -- ./inp_files/4077.got.cif
#   From: 2010.05.17/outbox.cif.g08.bks.cpg/sg61_3_cif.got.tgz:4077.got - 2010.06.03 15:17:17.
