data_PCOD9459442
_publ_section_title
;
Structure prediction by ZEFSAII (Michael W. Deem and Ramdas Pophale) SiO2 
 PCOD9459442
Probable space group: P B C A
;
_chemical_formula_sum "Si O2"
_cell_formula_units_Z 48
_cell_length_a 8.841663
_cell_length_b 28.932203
_cell_length_c 8.767061
_cell_angle_alpha 90.000000
_cell_angle_beta 90.000000
_cell_angle_gamma 90.000000
_cell_volume 2242.691256
_symmetry_space_group_name_H-M "P B C A"
_symmetry_group_IT_number 61
_symmetry_cell_setting 'orthorhombic'
loop_
_space_group_symop_operation_xyz
x,y,z
1/2-x,-y,1/2+z
1/2+x,1/2-y,-z
-x,1/2+y,1/2-z
-x,-y,-z
1/2+x,y,1/2-z
1/2-x,1/2+y,z
x,1/2-y,1/2+z
loop_
_atom_site_type_symbol
_atom_site_label
_atom_site_fract_x
_atom_site_fract_y
_atom_site_fract_z
Si Si1 0.504244 0.888467 0.334486
Si Si2 0.362909 0.200382 0.569327
Si Si3 0.326418 0.365366 0.460146
Si Si4 0.426309 0.489238 0.253931
Si Si5 0.807519 0.040639 0.422608
Si Si6 0.788916 0.773451 0.113085
O O1 0.605972 0.854403 0.437169
O O2 0.539324 0.870840 0.162368
O O3 0.330583 0.880734 0.377282
O O4 0.547783 0.941812 0.336864
O O5 0.531632 0.221681 0.591175
O O6 0.277367 0.223946 0.429999
O O7 0.262569 0.212232 0.717818
O O8 0.346275 0.405000 0.585466
O O9 0.294668 0.311895 0.494822
O O10 0.325949 0.475094 0.401796
O O11 0.352160 0.527578 0.147745
O O12 0.576837 0.509626 0.327086
#
# Coordination Sequence:
#
# PCOD9459442 Si02
#       6
#     8   8   8   8   8   8
#     4   9  18  34  57  79 107 147 187 220 272 336
#     4  10  20  36  59  84 112 148 189 233 281 335
#     4   9  19  35  55  81 111 144 184 229 274 333
#     4  10  20  36  56  81 109 143 185 231 273 327
#     4  10  21  36  55  80 112 145 184 227 275 327
#     4  10  20  37  58  83 113 146 187 232 281 338
#
# _framework density 21.402857999999998
#
# number of rings (size 3 to 8) (size 9 to 14) (size 15 to 20)
#    0.000    2.333    0.000    3.000    0.000    4.000 
#    0.000    6.667    0.000    0.000    0.000    0.000 
#    0.000    0.000    0.000    0.000    0.000    0.000 
#
# Total GULP energy -267941.313271 kJ/mol
# GULP energy per Si atom -5582.110693 kJ/mol
# Density = 2.135414 g / cm^3
# Si number density = 21.402858 Si / 1000 Ang^3
#
#
#
# Elastic Constant Matrix: (Units=GPa)
#
#
# Indices 1 2 3 4 5 6 
#
# 1 17.0960 -13.1761 -3.0890 0.0000 0.0000 0.0000
# 2 -13.1761 84.1628 8.0541 0.0000 0.0000 0.0000
# 3 -3.0890 8.0541 15.0343 0.0000 0.0000 0.0000
# 4 0.0000 0.0000 0.0000 34.0759 0.0000 0.0000
# 5 0.0000 0.0000 0.0000 0.0000 23.8601 0.0000
# 6 0.0000 0.0000 0.0000 0.0000 0.0000 27.4201
#
#
#
# Elastic Compliance Matrix: (Units=1/GPa)
#
#
# Indices 1 2 3 4 5 6 
#
# 1 0.067572 0.009750 0.008661 0.000000 0.000000 0.000000
# 2 0.009750 0.013931 -0.005460 0.000000 0.000000 0.000000
# 3 0.008661 -0.005460 0.071219 0.000000 0.000000 0.000000
# 4 0.000000 0.000000 0.000000 0.029346 0.000000 0.000000
# 5 0.000000 0.000000 0.000000 0.000000 0.041911 0.000000
# 6 0.000000 0.000000 0.000000 0.000000 0.000000 0.036470
#
#
# Mechanical properties :
#
#
# Convention : Reuss Voigt Hill
#
# Bulk Modulus (GPa) = 5.59837 11.09680 8.34758
# Shear Modulus (GPa) = 17.00174 25.37150 21.18662
#
# Velocity S-wave (km/s) = 2.82151 3.44674 3.14968
# Velocity P-wave (km/s) = 3.63812 4.58650 4.13956
#
# Compressibility (1/GPa) = 0.17862344
#
# Stress axis : x y z
#
# Youngs Moduli (GPa) = 14.79897 71.78451 14.04126
#
# Poissons Ratio (x) = -0.69990 -0.12160
# Poissons Ratio (y) = -0.14429 0.07666
# Poissons Ratio (z) = -0.12817 0.39191
#
# Static dielectric constant tensor:
#      x y z
#    x 1.759020 0.000000 0.000000 
#    y 0.000000 1.826730 0.000000 
#    z 0.000000 0.000000 1.766350 
# 
# From -- ./inp_files/1866.got.cif
#   From: 2010.05.17/outbox.cif.g08.bks.cpg/sg61_1_cif.got.tgz:1866.got - 2010.06.03 15:17:17.
