data_PCOD9459269
_publ_section_title
;
Structure prediction by ZEFSAII (Michael W. Deem and Ramdas Pophale) SiO2 
 PCOD9459269
Probable space group: P B C A
;
_chemical_formula_sum "Si O2"
_cell_formula_units_Z 56
_cell_length_a 16.180745
_cell_length_b 23.006024
_cell_length_c 7.996707
_cell_angle_alpha 90.000000
_cell_angle_beta 90.000000
_cell_angle_gamma 90.000000
_cell_volume 2976.811028
_symmetry_space_group_name_H-M "P B C A"
_symmetry_group_IT_number 61
_symmetry_cell_setting 'orthorhombic'
loop_
_space_group_symop_operation_xyz
x,y,z
1/2-x,-y,1/2+z
1/2+x,1/2-y,-z
-x,1/2+y,1/2-z
-x,-y,-z
1/2+x,y,1/2-z
1/2-x,1/2+y,z
x,1/2-y,1/2+z
loop_
_atom_site_type_symbol
_atom_site_label
_atom_site_fract_x
_atom_site_fract_y
_atom_site_fract_z
Si Si1 0.305123 0.430221 0.523927
Si Si2 0.094035 0.346809 0.737816
Si Si3 0.204307 0.344480 0.044632
Si Si4 0.170915 0.735584 0.431164
Si Si5 0.814627 0.831205 0.095270
Si Si6 0.308040 0.547350 0.337063
Si Si7 0.913598 0.175819 0.373155
O O1 0.234034 0.391447 0.437332
O O2 0.327506 0.484241 0.407195
O O3 0.264806 0.451226 0.699598
O O4 0.379222 0.385267 0.559069
O O5 0.120394 0.325603 0.554822
O O6 0.116179 0.415784 0.755806
O O7 0.001938 0.332582 0.790190
O O8 0.155368 0.321322 0.880880
O O9 0.292262 0.312508 0.057266
O O10 0.154833 0.333578 0.214350
O O11 0.216471 0.411596 0.994794
O O12 0.244580 0.782127 0.419229
O O13 0.150568 0.699901 0.265272
O O14 0.092363 0.773183 0.489082
#
# Coordination Sequence:
#
# PCOD9459269 Si02
#       7
#     8   8   8   8   8   8   8
#     4  10  19  36  64  89 116 161 210 258 294 364
#     4   9  23  39  55  94 126 155 197 252 317 367
#     4  10  19  38  61  85 114 162 207 244 296 363
#     4  11  20  38  61  83 116 166 208 251 297 365
#     4  10  20  37  64  84 117 159 211 252 294 369
#     4   9  19  36  61  89 117 159 209 250 294 364
#     4  11  22  40  57  91 131 155 201 261 320 363
#
# _framework density 18.812076000000001
#
# number of rings (size 3 to 8) (size 9 to 14) (size 15 to 20)
#    0.857    1.143    2.857    1.714    0.000    1.714 
#    2.571    0.000    0.000    2.571    0.000    0.000 
#    0.000    0.000    0.000    0.000    0.000    0.000 
#
# Total GULP energy -311819.230097 kJ/mol
# GULP energy per Si atom -5568.200537 kJ/mol
# Density = 1.876926 g / cm^3
# Si number density = 18.812076 Si / 1000 Ang^3
#
#
#
# Elastic Constant Matrix: (Units=GPa)
#
#
# Indices 1 2 3 4 5 6 
#
# 1 37.7327 18.7436 -4.1854 0.0000 0.0000 0.0000
# 2 18.7436 93.1723 12.7622 0.0000 0.0000 0.0000
# 3 -4.1854 12.7622 78.4765 0.0000 0.0000 0.0000
# 4 0.0000 0.0000 0.0000 22.5174 0.0000 0.0000
# 5 0.0000 0.0000 0.0000 0.0000 14.0992 0.0000
# 6 0.0000 0.0000 0.0000 0.0000 0.0000 15.1758
#
#
#
# Elastic Compliance Matrix: (Units=1/GPa)
#
#
# Indices 1 2 3 4 5 6 
#
# 1 0.029969 -0.006390 0.002638 0.000000 0.000000 0.000000
# 2 -0.006390 0.012340 -0.002348 0.000000 0.000000 0.000000
# 3 0.002638 -0.002348 0.013265 0.000000 0.000000 0.000000
# 4 0.000000 0.000000 0.000000 0.044410 0.000000 0.000000
# 5 0.000000 0.000000 0.000000 0.000000 0.070926 0.000000
# 6 0.000000 0.000000 0.000000 0.000000 0.000000 0.065894
#
#
# Mechanical properties :
#
#
# Convention : Reuss Voigt Hill
#
# Bulk Modulus (GPa) = 23.05545 29.33579 26.19562
# Shear Modulus (GPa) = 18.97798 22.49588 20.73693
#
# Velocity S-wave (km/s) = 3.17964 3.46182 3.32372
# Velocity P-wave (km/s) = 5.07567 5.62200 5.35580
#
# Compressibility (1/GPa) = 0.04337368
#
# Stress axis : x y z
#
# Youngs Moduli (GPa) = 33.36767 81.03804 75.38569
#
# Poissons Ratio (x) = 0.51785 -0.19883
# Poissons Ratio (y) = 0.21323 0.17697
# Poissons Ratio (z) = -0.08801 0.19024
#
# Static dielectric constant tensor:
#      x y z
#    x 1.637730 0.000000 0.000000 
#    y 0.000000 1.677440 0.000000 
#    z 0.000000 0.000000 1.721920 
# 
# From -- ./inp_files/3738.got.cif
#   From: 2010.05.17/outbox.cif.g08.bks.cpg/sg61_2_cif.got.tgz:3738.got - 2010.06.03 15:17:17.
