data_PCOD9459783
_publ_section_title
;
Structure prediction by ZEFSAII (Michael W. Deem and Ramdas Pophale) SiO2 
 PCOD9459783
Probable space group: P B C A
;
_chemical_formula_sum "Si O2"
_cell_formula_units_Z 48
_cell_length_a 12.349254
_cell_length_b 15.160543
_cell_length_c 14.812903
_cell_angle_alpha 90.000000
_cell_angle_beta 90.000000
_cell_angle_gamma 90.000000
_cell_volume 2773.292383
_symmetry_space_group_name_H-M "P B C A"
_symmetry_group_IT_number 61
_symmetry_cell_setting 'orthorhombic'
loop_
_space_group_symop_operation_xyz
x,y,z
1/2-x,-y,1/2+z
1/2+x,1/2-y,-z
-x,1/2+y,1/2-z
-x,-y,-z
1/2+x,y,1/2-z
1/2-x,1/2+y,z
x,1/2-y,1/2+z
loop_
_atom_site_type_symbol
_atom_site_label
_atom_site_fract_x
_atom_site_fract_y
_atom_site_fract_z
Si Si1 0.914046 0.504688 0.370662
Si Si2 0.589704 0.377658 0.051819
Si Si3 0.035105 0.323132 0.986635
Si Si4 0.472272 0.539504 0.320958
Si Si5 0.833034 0.409072 0.069051
Si Si6 0.175614 0.045980 0.597821
O O1 0.911681 0.569487 0.456754
O O2 0.942203 0.560091 0.281325
O O3 0.797729 0.455806 0.366836
O O4 0.007008 0.431795 0.385794
O O5 0.554937 0.277669 0.035942
O O6 0.712415 0.377975 0.088290
O O7 0.035736 0.382381 0.894904
O O8 0.124755 0.365038 0.054969
O O9 0.918926 0.336907 0.034848
O O10 0.388389 0.463614 0.351313
O O11 0.590677 0.495639 0.331729
O O12 0.826583 0.478470 0.986554
#
# Coordination Sequence:
#
# PCOD9459783 Si02
#       6
#     8   8   8   8   8   8
#     4  10  21  35  53  80 114 143 170 223 279 318
#     4  10  21  35  54  81 113 140 176 219 278 320
#     4   9  18  36  59  77 105 143 184 219 261 320
#     4   9  18  36  57  76 102 144 188 216 258 320
#     4   8  17  35  56  76 101 143 178 213 266 325
#     4   8  17  35  57  74 103 145 176 213 269 322
#
# _framework density 17.307949000000001
#
# number of rings (size 3 to 8) (size 9 to 14) (size 15 to 20)
#    0.000    3.000    0.000    2.000    4.667    0.000 
#    6.000    0.000    0.000    0.000    0.000    0.000 
#    0.000    0.000    0.000    0.000    0.000    0.000 
#
# Total GULP energy -267304.375656 kJ/mol
# GULP energy per Si atom -5568.841159 kJ/mol
# Density = 1.726855 g / cm^3
# Si number density = 17.307949 Si / 1000 Ang^3
#
#
#
# Elastic Constant Matrix: (Units=GPa)
#
#
# Indices 1 2 3 4 5 6 
#
# 1 140.5672 46.0335 29.0811 0.0000 0.0000 0.0000
# 2 46.0335 91.5876 -6.5136 0.0000 0.0000 0.0000
# 3 29.0811 -6.5136 47.1451 0.0000 0.0000 0.0000
# 4 0.0000 0.0000 0.0000 8.3450 0.0000 0.0000
# 5 0.0000 0.0000 0.0000 0.0000 12.4542 0.0000
# 6 0.0000 0.0000 0.0000 0.0000 0.0000 16.1390
#
#
#
# Elastic Compliance Matrix: (Units=1/GPa)
#
#
# Indices 1 2 3 4 5 6 
#
# 1 0.010526 -0.005809 -0.007295 0.000000 0.000000 0.000000
# 2 -0.005809 0.014233 0.005550 0.000000 0.000000 0.000000
# 3 -0.007295 0.005550 0.026478 0.000000 0.000000 0.000000
# 4 0.000000 0.000000 0.000000 0.119832 0.000000 0.000000
# 5 0.000000 0.000000 0.000000 0.000000 0.080294 0.000000
# 6 0.000000 0.000000 0.000000 0.000000 0.000000 0.061962
#
#
# Mechanical properties :
#
#
# Convention : Reuss Voigt Hill
#
# Bulk Modulus (GPa) = 27.67996 46.27798 36.97897
# Shear Modulus (GPa) = 14.68528 21.43422 18.05975
#
# Velocity S-wave (km/s) = 2.91601 3.52291 3.23373
# Velocity P-wave (km/s) = 5.23114 6.58361 5.94596
#
# Compressibility (1/GPa) = 0.03612722
#
# Stress axis : x y z
#
# Youngs Moduli (GPa) = 95.00491 70.25899 37.76729
#
# Poissons Ratio (x) = 0.40815 0.27553
# Poissons Ratio (y) = 0.55191 -0.20960
# Poissons Ratio (z) = 0.69309 -0.38993
#
# Static dielectric constant tensor:
#      x y z
#    x 1.615040 0.000000 0.000000 
#    y 0.000000 1.545840 0.000000 
#    z 0.000000 0.000000 1.601750 
# 
# From -- ./inp_files/5717.got.cif
#   From: 2010.05.17/outbox.cif.g08.bks.cpg/sg61_3_cif.got.tgz:5717.got - 2010.06.03 15:17:17.
