data_PCOD9459133
_publ_section_title
;
Structure prediction by ZEFSAII (Michael W. Deem and Ramdas Pophale) SiO2 
 PCOD9459133
Probable space group: P B C A
;
_chemical_formula_sum "Si O2"
_cell_formula_units_Z 64
_cell_length_a 15.854293
_cell_length_b 20.504001
_cell_length_c 9.228733
_cell_angle_alpha 90.000000
_cell_angle_beta 90.000000
_cell_angle_gamma 90.000000
_cell_volume 3000.043665
_symmetry_space_group_name_H-M "P B C A"
_symmetry_group_IT_number 61
_symmetry_cell_setting 'orthorhombic'
loop_
_space_group_symop_operation_xyz
x,y,z
1/2-x,-y,1/2+z
1/2+x,1/2-y,-z
-x,1/2+y,1/2-z
-x,-y,-z
1/2+x,y,1/2-z
1/2-x,1/2+y,z
x,1/2-y,1/2+z
loop_
_atom_site_type_symbol
_atom_site_label
_atom_site_fract_x
_atom_site_fract_y
_atom_site_fract_z
Si Si1 0.988349 0.696131 0.494583
Si Si2 0.258743 0.949695 0.986939
Si Si3 0.968534 0.678133 0.836356
Si Si4 0.209208 0.193098 0.490973
Si Si5 0.058430 0.470562 0.124383
Si Si6 0.490349 0.056164 0.378995
Si Si7 0.302491 0.810828 0.648448
Si Si8 0.680967 0.451157 0.824236
O O1 0.978463 0.697860 0.668112
O O2 0.018432 0.765982 0.428651
O O3 0.031361 0.628078 0.441519
O O4 0.893498 0.690009 0.429567
O O5 0.238902 0.873358 0.995057
O O6 0.347074 0.959578 0.069227
O O7 0.189059 0.993475 0.058637
O O8 0.277697 0.971541 0.824951
O O9 0.875031 0.681604 0.911264
O O10 0.983479 0.599986 0.838133
O O11 0.189155 0.202973 0.320456
O O12 0.250251 0.255838 0.565691
O O13 0.064269 0.522142 0.255139
O O14 0.000000 0.500000 0.000000
O O15 0.582739 0.064351 0.303746
O O16 0.500000 0.000000 0.500000
O O17 0.272603 0.884686 0.629421
#
# Coordination Sequence:
#
# PCOD9459133 Si02
#       8
#     8   8   8   8   8   8   8   8
#     4  10  19  30  50  78 110 141 185 228 275 322
#     4  10  22  36  55  84 111 146 180 229 276 331
#     4  10  19  30  50  79 107 145 182 229 276 322
#     4   9  17  30  50  76 105 138 182 222 272 316
#     4  11  22  38  59  82 115 148 190 229 284 332
#     4  11  22  38  57  86 113 148 188 234 277 336
#     4   9  17  30  50  76 105 139 179 228 266 321
#     4  10  22  36  55  83 114 142 184 226 278 327
#
# _framework density 21.333023000000001
#
# number of rings (size 3 to 8) (size 9 to 14) (size 15 to 20)
#    0.000    2.000    2.500    3.000    5.250    2.000 
#    0.000    0.000    0.000    3.000    0.000    0.000 
#    0.000    0.000    0.000    0.000    0.000    0.000 
#
# Total GULP energy -356589.564830 kJ/mol
# GULP energy per Si atom -5571.711950 kJ/mol
# Density = 2.128447 g / cm^3
# Si number density = 21.333023 Si / 1000 Ang^3
#
#
#
# Elastic Constant Matrix: (Units=GPa)
#
#
# Indices 1 2 3 4 5 6 
#
# 1 32.6977 12.4283 10.4949 0.0000 0.0000 0.0000
# 2 12.4283 104.1194 58.9987 0.0000 0.0000 0.0000
# 3 10.4949 58.9987 136.5700 0.0000 0.0000 0.0000
# 4 0.0000 0.0000 0.0000 40.9248 0.0000 0.0000
# 5 0.0000 0.0000 0.0000 0.0000 20.2052 0.0000
# 6 0.0000 0.0000 0.0000 0.0000 0.0000 11.5081
#
#
#
# Elastic Compliance Matrix: (Units=1/GPa)
#
#
# Indices 1 2 3 4 5 6 
#
# 1 0.032156 -0.003228 -0.001076 0.000000 0.000000 0.000000
# 2 -0.003228 0.013042 -0.005386 0.000000 0.000000 0.000000
# 3 -0.001076 -0.005386 0.009732 0.000000 0.000000 0.000000
# 4 0.000000 0.000000 0.000000 0.024435 0.000000 0.000000
# 5 0.000000 0.000000 0.000000 0.000000 0.049492 0.000000
# 6 0.000000 0.000000 0.000000 0.000000 0.000000 0.086895
#
#
# Mechanical properties :
#
#
# Convention : Reuss Voigt Hill
#
# Bulk Modulus (GPa) = 28.13117 48.58118 38.35617
# Shear Modulus (GPa) = 20.24437 27.29196 23.76817
#
# Velocity S-wave (km/s) = 3.08388 3.58065 3.34151
# Velocity P-wave (km/s) = 5.08878 6.31799 5.73640
#
# Compressibility (1/GPa) = 0.03554776
#
# Stress axis : x y z
#
# Youngs Moduli (GPa) = 31.09858 76.67751 102.75686
#
# Poissons Ratio (x) = 0.24754 0.11060
# Poissons Ratio (y) = 0.10040 0.55344
# Poissons Ratio (z) = 0.03347 0.41298
#
# Static dielectric constant tensor:
#      x y z
#    x 1.827280 0.000000 0.000000 
#    y 0.000000 1.900380 0.000000 
#    z 0.000000 0.000000 1.760170 
# 
# From -- ./inp_files/3690.got.cif
#   From: 2010.05.17/outbox.cif.g08.bks.cpg/sg61_2_cif.got.tgz:3690.got - 2010.06.03 15:17:17.
