data_PCOD9459945
_publ_section_title
;
Structure prediction by ZEFSAII (Michael W. Deem and Ramdas Pophale) SiO2 
 PCOD9459945
Probable space group: P B C A
;
_chemical_formula_sum "Si O2"
_cell_formula_units_Z 40
_cell_length_a 7.938172
_cell_length_b 11.021665
_cell_length_c 19.225211
_cell_angle_alpha 90.000000
_cell_angle_beta 90.000000
_cell_angle_gamma 90.000000
_cell_volume 1682.049710
_symmetry_space_group_name_H-M "P B C A"
_symmetry_group_IT_number 61
_symmetry_cell_setting 'orthorhombic'
loop_
_space_group_symop_operation_xyz
x,y,z
1/2-x,-y,1/2+z
1/2+x,1/2-y,-z
-x,1/2+y,1/2-z
-x,-y,-z
1/2+x,y,1/2-z
1/2-x,1/2+y,z
x,1/2-y,1/2+z
loop_
_atom_site_type_symbol
_atom_site_label
_atom_site_fract_x
_atom_site_fract_y
_atom_site_fract_z
Si Si1 0.731561 0.199517 0.549136
Si Si2 0.426418 0.516115 0.847645
Si Si3 0.352684 0.849800 0.829331
Si Si4 0.588757 0.233009 0.401198
Si Si5 0.160295 0.711376 0.715956
O O1 0.661963 0.319108 0.589224
O O2 0.706359 0.208904 0.467493
O O3 0.926905 0.194318 0.570549
O O4 0.620873 0.093505 0.583842
O O5 0.248592 0.471985 0.815938
O O6 0.524444 0.395008 0.870254
O O7 0.540058 0.597129 0.797131
O O8 0.241866 0.746652 0.789106
O O9 0.540651 0.827138 0.803809
O O10 0.690802 0.297511 0.340194
#
# Coordination Sequence:
#
# PCOD9459945 Si02
#       5
#     8   8   8   8   8
#     4  10  21  39  63  93 129 165 209 261 312 375
#     4  10  23  42  67  93 128 170 211 260 325 379
#     4  10  22  40  63  94 127 165 212 262 313 377
#     4  11  23  42  65  96 131 168 214 264 313 379
#     4  11  24  43  65  94 129 168 214 267 316 378
#
# _framework density 23.78051
#
# number of rings (size 3 to 8) (size 9 to 14) (size 15 to 20)
#    0.000    1.600    0.000    5.400    0.000    9.600 
#    0.000    6.000    0.000    0.000    0.000    0.000 
#    0.000    0.000    0.000    0.000    0.000    0.000 
#
# Total GULP energy -223759.039494 kJ/mol
# GULP energy per Si atom -5593.975987 kJ/mol
# Density = 2.372638 g / cm^3
# Si number density = 23.780510 Si / 1000 Ang^3
#
#
#
# Elastic Constant Matrix: (Units=GPa)
#
#
# Indices 1 2 3 4 5 6 
#
# 1 82.7975 6.2556 16.3193 0.0000 0.0000 0.0000
# 2 6.2556 55.6294 7.8396 0.0000 0.0000 0.0000
# 3 16.3193 7.8396 111.4463 0.0000 0.0000 0.0000
# 4 0.0000 0.0000 0.0000 18.9663 0.0000 0.0000
# 5 0.0000 0.0000 0.0000 0.0000 53.4367 0.0000
# 6 0.0000 0.0000 0.0000 0.0000 0.0000 45.4013
#
#
#
# Elastic Compliance Matrix: (Units=1/GPa)
#
#
# Indices 1 2 3 4 5 6 
#
# 1 0.012510 -0.001160 -0.001750 0.000000 0.000000 0.000000
# 2 -0.001160 0.018264 -0.001115 0.000000 0.000000 0.000000
# 3 -0.001750 -0.001115 0.009308 0.000000 0.000000 0.000000
# 4 0.000000 0.000000 0.000000 0.052725 0.000000 0.000000
# 5 0.000000 0.000000 0.000000 0.000000 0.018714 0.000000
# 6 0.000000 0.000000 0.000000 0.000000 0.000000 0.022026
#
#
# Mechanical properties :
#
#
# Convention : Reuss Voigt Hill
#
# Bulk Modulus (GPa) = 31.21970 34.52244 32.87107
# Shear Modulus (GPa) = 32.83557 38.19144 35.51351
#
# Velocity S-wave (km/s) = 3.71991 4.01184 3.86863
# Velocity P-wave (km/s) = 5.62202 6.00070 5.81444
#
# Compressibility (1/GPa) = 0.03203106
#
# Stress axis : x y z
#
# Youngs Moduli (GPa) = 79.93417 54.75348 107.43848
#
# Poissons Ratio (x) = 0.06352 0.18805
# Poissons Ratio (y) = 0.09273 0.11978
# Poissons Ratio (z) = 0.13991 0.06104
#
# Static dielectric constant tensor:
#      x y z
#    x 1.927560 0.000000 0.000000 
#    y 0.000000 1.956560 0.000000 
#    z 0.000000 0.000000 1.866460 
# 
# From -- ./inp_files/6071.got.cif
#   From: 2010.05.17/outbox.cif.g08.bks.cpg/sg61_4_cif.got.tgz:6071.got - 2010.06.03 15:17:17.
