data_PCOD9459554
_publ_section_title
;
Structure prediction by ZEFSAII (Michael W. Deem and Ramdas Pophale) SiO2 
 PCOD9459554
Probable space group: P B C A
;
_chemical_formula_sum "Si O2"
_cell_formula_units_Z 48
_cell_length_a 5.125830
_cell_length_b 19.110256
_cell_length_c 18.667146
_cell_angle_alpha 90.000000
_cell_angle_beta 90.000000
_cell_angle_gamma 90.000000
_cell_volume 1828.557526
_symmetry_space_group_name_H-M "P B C A"
_symmetry_group_IT_number 61
_symmetry_cell_setting 'orthorhombic'
loop_
_space_group_symop_operation_xyz
x,y,z
1/2-x,-y,1/2+z
1/2+x,1/2-y,-z
-x,1/2+y,1/2-z
-x,-y,-z
1/2+x,y,1/2-z
1/2-x,1/2+y,z
x,1/2-y,1/2+z
loop_
_atom_site_type_symbol
_atom_site_label
_atom_site_fract_x
_atom_site_fract_y
_atom_site_fract_z
Si Si1 0.323038 0.413811 0.800559
Si Si2 0.099933 0.525262 0.603087
Si Si3 0.391915 0.853991 0.122546
Si Si4 0.875565 0.236051 0.456167
Si Si5 0.196394 0.756766 0.798634
Si Si6 0.794694 0.411088 0.990261
O O1 0.046090 0.420630 0.760843
O O2 0.398010 0.473064 0.858184
O O3 0.329204 0.334572 0.832775
O O4 0.238823 0.580674 0.655809
O O5 0.309894 0.475755 0.563237
O O6 0.949318 0.569416 0.541420
O O7 0.198162 0.790754 0.104181
O O8 0.629885 0.814433 0.159462
O O9 0.492413 0.886994 0.047939
O O10 0.674338 0.255748 0.520580
O O11 0.791205 0.157307 0.440242
O O12 0.973759 0.755958 0.738388
#
# Coordination Sequence:
#
# PCOD9459554 Si02
#       6
#     8   8   8   8   8   8
#     4  10  24  47  70  96 129 178 223 269 331 393
#     4  11  23  41  65  95 134 172 215 273 325 398
#     4  11  23  39  65  94 131 171 218 271 326 385
#     4  10  20  38  60  87 122 164 206 252 306 380
#     4  10  24  44  68  93 126 169 222 272 322 383
#     4  10  23  41  61  97 134 173 213 264 336 396
#
# _framework density 26.250197
#
# number of rings (size 3 to 8) (size 9 to 14) (size 15 to 20)
#    0.000    1.667    1.667    1.500    4.667    1.333 
#    0.000    5.000    0.000    0.000    0.000    0.000 
#    0.000    0.000    0.000    0.000    0.000    0.000 
#
# Total GULP energy -268517.010860 kJ/mol
# GULP energy per Si atom -5594.104393 kJ/mol
# Density = 2.619045 g / cm^3
# Si number density = 26.250197 Si / 1000 Ang^3
#
#
#
# Elastic Constant Matrix: (Units=GPa)
#
#
# Indices 1 2 3 4 5 6 
#
# 1 93.0890 29.6207 43.2150 0.0000 0.0000 0.0000
# 2 29.6207 206.1761 33.0564 0.0000 0.0000 0.0000
# 3 43.2150 33.0564 41.8855 0.0000 0.0000 0.0000
# 4 0.0000 0.0000 0.0000 16.6224 0.0000 0.0000
# 5 0.0000 0.0000 0.0000 0.0000 42.1856 0.0000
# 6 0.0000 0.0000 0.0000 0.0000 0.0000 1.0342
#
#
#
# Elastic Compliance Matrix: (Units=1/GPa)
#
#
# Indices 1 2 3 4 5 6 
#
# 1 0.020665 0.000515 -0.021727 0.000000 0.000000 0.000000
# 2 0.000515 0.005566 -0.004923 0.000000 0.000000 0.000000
# 3 -0.021727 -0.004923 0.050177 0.000000 0.000000 0.000000
# 4 0.000000 0.000000 0.000000 0.060160 0.000000 0.000000
# 5 0.000000 0.000000 0.000000 0.000000 0.023705 0.000000
# 6 0.000000 0.000000 0.000000 0.000000 0.000000 0.966942
#
#
# Mechanical properties :
#
#
# Convention : Reuss Voigt Hill
#
# Bulk Modulus (GPa) = 41.43213 61.43717 51.43465
# Shear Modulus (GPa) = 4.21041 27.65235 15.93138
#
# Velocity S-wave (km/s) = 1.26785 3.24916 2.46622
# Velocity P-wave (km/s) = 4.23805 6.12628 5.26746
#
# Compressibility (1/GPa) = 0.02413586
#
# Stress axis : x y z
#
# Youngs Moduli (GPa) = 48.39064 179.67299 19.92939
#
# Poissons Ratio (x) = -0.09247 0.43301
# Poissons Ratio (y) = -0.02490 0.09812
# Poissons Ratio (z) = 1.05140 0.88461
#
# Static dielectric constant tensor:
#      x y z
#    x 2.051370 0.000000 0.000000 
#    y 0.000000 2.124580 0.000000 
#    z 0.000000 0.000000 2.101740 
# 
# From -- ./inp_files/755.got.cif
#   From: 2010.05.17/outbox.cif.g08.bks.cpg/sg61_1_cif.got.tgz:755.got - 2010.06.03 15:17:17.
