data_PCOD9459962
_publ_section_title
;
Structure prediction by ZEFSAII (Michael W. Deem and Ramdas Pophale) SiO2 
 PCOD9459962
Probable space group: P B C A
;
_chemical_formula_sum "Si O2"
_cell_formula_units_Z 56
_cell_length_a 10.995811
_cell_length_b 19.191899
_cell_length_c 11.813674
_cell_angle_alpha 90.000000
_cell_angle_beta 90.000000
_cell_angle_gamma 90.000000
_cell_volume 2493.045462
_symmetry_space_group_name_H-M "P B C A"
_symmetry_group_IT_number 61
_symmetry_cell_setting 'orthorhombic'
loop_
_space_group_symop_operation_xyz
x,y,z
1/2-x,-y,1/2+z
1/2+x,1/2-y,-z
-x,1/2+y,1/2-z
-x,-y,-z
1/2+x,y,1/2-z
1/2-x,1/2+y,z
x,1/2-y,1/2+z
loop_
_atom_site_type_symbol
_atom_site_label
_atom_site_fract_x
_atom_site_fract_y
_atom_site_fract_z
Si Si1 0.791291 0.084713 0.641200
Si Si2 0.634602 0.056134 0.031050
Si Si3 0.480281 0.369092 0.700338
Si Si4 0.355215 0.761067 0.696942
Si Si5 0.693197 0.669792 0.126891
Si Si6 0.150831 0.783894 0.517865
Si Si7 0.050153 0.393419 0.212469
O O1 0.816142 0.150942 0.560784
O O2 0.659034 0.085961 0.701028
O O3 0.906633 0.088624 0.729831
O O4 0.804921 0.017004 0.561135
O O5 0.533421 0.068658 0.128711
O O6 0.725574 0.120094 0.051998
O O7 0.581559 0.069899 0.907447
O O8 0.572590 0.333195 0.787089
O O9 0.362736 0.379533 0.776494
O O10 0.447104 0.310343 0.608118
O O11 0.266429 0.769973 0.805729
O O12 0.270513 0.761832 0.587463
O O13 0.433208 0.690676 0.701720
O O14 0.606222 0.715932 0.048604
#
# Coordination Sequence:
#
# PCOD9459962 Si02
#       7
#     8   8   8   8   8   8   8
#     4  12  28  46  75 102 146 188 241 290 363 427
#     4  11  25  44  69  99 144 191 227 293 361 431
#     4  10  23  38  67  97 137 183 232 289 356 418
#     4  10  22  38  65 101 136 178 234 289 350 412
#     4  10  21  39  65 101 133 180 237 290 348 414
#     4  11  21  42  67 100 138 183 233 296 351 411
#     4  12  25  47  73 105 139 189 239 293 352 432
#
# _framework density 22.462486999999999
#
# number of rings (size 3 to 8) (size 9 to 14) (size 15 to 20)
#    0.000    1.143    4.286    1.286    4.000    2.286 
#    2.571    0.714    0.000    0.000    0.000    0.000 
#    0.000    0.000    0.000    0.000    0.000    0.000 
#
# Total GULP energy -312621.553704 kJ/mol
# GULP energy per Si atom -5582.527745 kJ/mol
# Density = 2.241136 g / cm^3
# Si number density = 22.462487 Si / 1000 Ang^3
#
#
#
# Elastic Constant Matrix: (Units=GPa)
#
#
# Indices 1 2 3 4 5 6 
#
# 1 40.5425 -6.3454 -1.3465 0.0000 0.0000 0.0000
# 2 -6.3454 89.9418 8.9132 0.0000 0.0000 0.0000
# 3 -1.3465 8.9132 29.6178 0.0000 0.0000 0.0000
# 4 0.0000 0.0000 0.0000 19.7437 0.0000 0.0000
# 5 0.0000 0.0000 0.0000 0.0000 25.3135 0.0000
# 6 0.0000 0.0000 0.0000 0.0000 0.0000 17.5692
#
#
#
# Elastic Compliance Matrix: (Units=1/GPa)
#
#
# Indices 1 2 3 4 5 6 
#
# 1 0.024952 0.001699 0.000623 0.000000 0.000000 0.000000
# 2 0.001699 0.011576 -0.003406 0.000000 0.000000 0.000000
# 3 0.000623 -0.003406 0.034817 0.000000 0.000000 0.000000
# 4 0.000000 0.000000 0.000000 0.050649 0.000000 0.000000
# 5 0.000000 0.000000 0.000000 0.000000 0.039505 0.000000
# 6 0.000000 0.000000 0.000000 0.000000 0.000000 0.056918
#
#
# Mechanical properties :
#
#
# Convention : Reuss Voigt Hill
#
# Bulk Modulus (GPa) = 14.45596 18.06050 16.25823
# Shear Modulus (GPa) = 20.52179 23.11735 21.81957
#
# Velocity S-wave (km/s) = 3.02587 3.21152 3.12008
# Velocity P-wave (km/s) = 4.31942 4.67007 4.49816
#
# Compressibility (1/GPa) = 0.06917560
#
# Stress axis : x y z
#
# Youngs Moduli (GPa) = 40.07687 86.38776 28.72167
#
# Poissons Ratio (x) = -0.14674 -0.01790
# Poissons Ratio (y) = -0.06808 0.09784
# Poissons Ratio (z) = -0.02498 0.29427
#
# Static dielectric constant tensor:
#      x y z
#    x 1.959910 0.000000 0.000000 
#    y 0.000000 1.799970 0.000000 
#    z 0.000000 0.000000 1.825170 
# 
# From -- ./inp_files/5361.got.cif
#   From: 2010.05.17/outbox.cif.g08.bks.cpg/sg61_3_cif.got.tgz:5361.got - 2010.06.03 15:17:17.
