data_PCOD9459597
_publ_section_title
;
Structure prediction by ZEFSAII (Michael W. Deem and Ramdas Pophale) SiO2 
 PCOD9459597
Probable space group: P B C A
;
_chemical_formula_sum "Si O2"
_cell_formula_units_Z 56
_cell_length_a 10.797948
_cell_length_b 24.615280
_cell_length_c 10.396212
_cell_angle_alpha 90.000000
_cell_angle_beta 90.000000
_cell_angle_gamma 90.000000
_cell_volume 2763.256110
_symmetry_space_group_name_H-M "P B C A"
_symmetry_group_IT_number 61
_symmetry_cell_setting 'orthorhombic'
loop_
_space_group_symop_operation_xyz
x,y,z
1/2-x,-y,1/2+z
1/2+x,1/2-y,-z
-x,1/2+y,1/2-z
-x,-y,-z
1/2+x,y,1/2-z
1/2-x,1/2+y,z
x,1/2-y,1/2+z
loop_
_atom_site_type_symbol
_atom_site_label
_atom_site_fract_x
_atom_site_fract_y
_atom_site_fract_z
Si Si1 0.863323 0.762997 0.651561
Si Si2 0.213652 0.158786 0.000495
Si Si3 0.500000 0.586601 0.087013
Si Si4 0.786348 0.158787 0.000494
Si Si5 0.750000 0.085505 0.750000
Si Si6 0.136677 0.737003 0.151562
Si Si7 0.000000 0.528433 0.695065
O O1 0.855403 0.712415 0.553463
O O2 0.831944 0.817966 0.574795
O O3 0.750000 0.755622 0.750000
O O4 1.000000 0.763893 0.710900
O O5 0.244598 0.122934 0.876271
O O6 0.121259 0.124243 0.089395
O O7 0.331944 0.182034 0.074796
O O8 0.500000 0.536406 0.183499
O O9 0.621259 0.624243 0.089394
O O10 0.500000 0.557141 0.946317
O O11 0.755402 0.122934 0.876270
O O12 0.855403 0.212415 0.946537
O O13 0.873749 0.049638 0.742360
O O14 0.626251 0.049638 0.757641
#
# Coordination Sequence:
#
# PCOD9459597 Si02
#       7
#     8   8   8   8   8   8   8
#     4  11  24  38  59  95 129 173 207 257 307 399
#     4  10  21  38  64  89 130 161 210 255 324 374
#     4   9  18  40  59  86 119 166 199 256 315 360
#     4  10  21  38  64  89 130 161 210 255 324 374
#     4  10  20  38  66  96 116 170 206 266 314 378
#     4  11  24  38  59  95 129 173 207 257 307 399
#     4   9  20  36  65  87 116 153 216 257 304 368
#
# _framework density 20.265947000000001
#
# number of rings (size 3 to 8) (size 9 to 14) (size 15 to 20)
#    0.000    2.000    2.857    0.000    4.000    1.143 
#    2.571    0.000    0.000    3.429    0.000    0.000 
#    0.000    0.000    0.000    0.000    0.000    0.000 
#
# Total GULP energy -312695.659506 kJ/mol
# GULP energy per Si atom -5583.851063 kJ/mol
# Density = 2.021982 g / cm^3
# Si number density = 20.265947 Si / 1000 Ang^3
#
#
#
# Elastic Constant Matrix: (Units=GPa)
#
#
# Indices 1 2 3 4 5 6 
#
# 1 166.3216 65.4703 23.4210 0.0000 0.0000 0.0000
# 2 65.4703 139.8582 23.5408 0.0000 0.0000 0.0000
# 3 23.4210 23.5408 21.4513 0.0000 0.0000 0.0000
# 4 0.0000 0.0000 0.0000 14.3279 0.0000 0.0000
# 5 0.0000 0.0000 0.0000 0.0000 17.7845 0.0000
# 6 0.0000 0.0000 0.0000 0.0000 0.0000 12.9513
#
#
#
# Elastic Compliance Matrix: (Units=1/GPa)
#
#
# Indices 1 2 3 4 5 6 
#
# 1 0.007881 -0.002749 -0.005589 0.000000 0.000000 0.000000
# 2 -0.002749 0.009729 -0.007675 0.000000 0.000000 0.000000
# 3 -0.005589 -0.007675 0.061142 0.000000 0.000000 0.000000
# 4 0.000000 0.000000 0.000000 0.069794 0.000000 0.000000
# 5 0.000000 0.000000 0.000000 0.000000 0.056229 0.000000
# 6 0.000000 0.000000 0.000000 0.000000 0.000000 0.077212
#
#
# Mechanical properties :
#
#
# Convention : Reuss Voigt Hill
#
# Bulk Modulus (GPa) = 21.40102 61.38838 41.39470
# Shear Modulus (GPa) = 15.17048 23.35935 19.26492
#
# Velocity S-wave (km/s) = 2.73897 3.39874 3.08653
# Velocity P-wave (km/s) = 4.53714 6.76454 5.75954
#
# Compressibility (1/GPa) = 0.04672674
#
# Stress axis : x y z
#
# Youngs Moduli (GPa) = 126.88039 102.78813 16.35546
#
# Poissons Ratio (x) = 0.28254 0.09140
# Poissons Ratio (y) = 0.34877 0.12553
# Poissons Ratio (z) = 0.70908 0.78892
#
# Static dielectric constant tensor:
#      x y z
#    x 1.759380 0.000000 0.000000 
#    y 0.000000 1.707730 0.000000 
#    z 0.000000 0.000000 1.745170 
# 
# From -- ./inp_files/5362.got.cif
#   From: 2010.05.17/outbox.cif.g08.bks.cpg/sg61_3_cif.got.tgz:5362.got - 2010.06.03 15:17:17.
