data_PCOD9459107
_publ_section_title
;
Structure prediction by ZEFSAII (Michael W. Deem and Ramdas Pophale) SiO2 
 PCOD9459107
Probable space group: P B C A
;
_chemical_formula_sum "Si O2"
_cell_formula_units_Z 48
_cell_length_a 15.879645
_cell_length_b 9.991215
_cell_length_c 12.220745
_cell_angle_alpha 90.000000
_cell_angle_beta 90.000000
_cell_angle_gamma 90.000000
_cell_volume 1938.906096
_symmetry_space_group_name_H-M "P B C A"
_symmetry_group_IT_number 61
_symmetry_cell_setting 'orthorhombic'
loop_
_space_group_symop_operation_xyz
x,y,z
1/2-x,-y,1/2+z
1/2+x,1/2-y,-z
-x,1/2+y,1/2-z
-x,-y,-z
1/2+x,y,1/2-z
1/2-x,1/2+y,z
x,1/2-y,1/2+z
loop_
_atom_site_type_symbol
_atom_site_label
_atom_site_fract_x
_atom_site_fract_y
_atom_site_fract_z
Si Si1 0.849104 0.561649 0.678102
Si Si2 0.397680 0.673120 0.209110
Si Si3 0.107497 0.541058 0.099201
Si Si4 0.798847 0.515997 0.442645
Si Si5 0.154803 0.901240 0.269518
Si Si6 0.023648 0.794927 0.428831
O O1 0.896766 0.697048 0.714709
O O2 0.873130 0.455994 0.771732
O O3 0.851966 0.518373 0.553174
O O4 0.750307 0.595572 0.691348
O O5 0.315986 0.650109 0.130966
O O6 0.892888 0.544063 0.214587
O O7 0.471203 0.670890 0.118736
O O8 0.198338 0.508909 0.043924
O O9 0.046215 0.414030 0.082001
O O10 0.064548 0.670334 0.045381
O O11 0.833906 0.401218 0.361640
O O12 0.098944 0.806849 0.341944
#
# Coordination Sequence:
#
# PCOD9459107 Si02
#       6
#     8   8   8   8   8   8
#     4  10  18  38  62  86 129 163 207 265 308 389
#     4   9  22  36  58  94 127 169 211 258 316 375
#     4   9  19  33  62  89 117 162 203 249 323 368
#     4   9  19  39  58  94 122 160 211 261 314 376
#     4   9  20  38  61  92 125 168 208 262 318 371
#     4  10  18  38  62  92 128 163 208 267 313 386
#
# _framework density 24.756226999999999
#
# number of rings (size 3 to 8) (size 9 to 14) (size 15 to 20)
#    1.000    1.667    1.667    0.000    0.000    4.000 
#    3.000    3.333    0.000    0.000    4.333    0.000 
#    0.000    0.000    0.000    0.000    0.000    0.000 
#
# Total GULP energy -267557.836478 kJ/mol
# GULP energy per Si atom -5574.121593 kJ/mol
# Density = 2.469988 g / cm^3
# Si number density = 24.756227 Si / 1000 Ang^3
#
#
#
# Elastic Constant Matrix: (Units=GPa)
#
#
# Indices 1 2 3 4 5 6 
#
# 1 87.6162 8.7959 24.3869 0.0000 0.0000 0.0000
# 2 8.7959 19.6631 -0.1322 0.0000 0.0000 0.0000
# 3 24.3869 -0.1322 119.8911 0.0000 0.0000 0.0000
# 4 0.0000 0.0000 0.0000 15.0048 0.0000 0.0000
# 5 0.0000 0.0000 0.0000 0.0000 40.0981 0.0000
# 6 0.0000 0.0000 0.0000 0.0000 0.0000 32.9844
#
#
#
# Elastic Compliance Matrix: (Units=1/GPa)
#
#
# Indices 1 2 3 4 5 6 
#
# 1 0.012707 -0.005702 -0.002591 0.000000 0.000000 0.000000
# 2 -0.005702 0.053415 0.001219 0.000000 0.000000 0.000000
# 3 -0.002591 0.001219 0.008869 0.000000 0.000000 0.000000
# 4 0.000000 0.000000 0.000000 0.066645 0.000000 0.000000
# 5 0.000000 0.000000 0.000000 0.000000 0.024939 0.000000
# 6 0.000000 0.000000 0.000000 0.000000 0.000000 0.030317
#
#
# Mechanical properties :
#
#
# Convention : Reuss Voigt Hill
#
# Bulk Modulus (GPa) = 16.43552 32.58571 24.51062
# Shear Modulus (GPa) = 21.61484 30.55876 26.08680
#
# Velocity S-wave (km/s) = 2.95804 3.51720 3.24967
# Velocity P-wave (km/s) = 4.28019 5.44843 4.89926
#
# Compressibility (1/GPa) = 0.06084382
#
# Stress axis : x y z
#
# Youngs Moduli (GPa) = 78.69694 18.72117 112.74871
#
# Poissons Ratio (x) = 0.10674 0.29213
# Poissons Ratio (y) = 0.44870 -0.13740
# Poissons Ratio (z) = 0.20390 -0.02281
#
# Static dielectric constant tensor:
#      x y z
#    x 1.944750 0.000000 0.000000 
#    y 0.000000 2.040620 0.000000 
#    z 0.000000 0.000000 2.000760 
# 
# From -- ./inp_files/6191.got.cif
#   From: 2010.05.17/outbox.cif.g08.bks.cpg/sg61_4_cif.got.tgz:6191.got - 2010.06.03 15:17:17.
