data_PCOD9459336
_publ_section_title
;
Structure prediction by ZEFSAII (Michael W. Deem and Ramdas Pophale) SiO2 
 PCOD9459336
Probable space group: P B C A
;
_chemical_formula_sum "Si O2"
_cell_formula_units_Z 56
_cell_length_a 14.371658
_cell_length_b 12.702455
_cell_length_c 13.314945
_cell_angle_alpha 90.000000
_cell_angle_beta 90.000000
_cell_angle_gamma 90.000000
_cell_volume 2430.714299
_symmetry_space_group_name_H-M "P B C A"
_symmetry_group_IT_number 61
_symmetry_cell_setting 'orthorhombic'
loop_
_space_group_symop_operation_xyz
x,y,z
1/2-x,-y,1/2+z
1/2+x,1/2-y,-z
-x,1/2+y,1/2-z
-x,-y,-z
1/2+x,y,1/2-z
1/2-x,1/2+y,z
x,1/2-y,1/2+z
loop_
_atom_site_type_symbol
_atom_site_label
_atom_site_fract_x
_atom_site_fract_y
_atom_site_fract_z
Si Si1 0.419017 0.353494 0.070479
Si Si2 0.258927 0.181723 0.040427
Si Si3 0.912885 0.637196 0.182891
Si Si4 0.947472 0.269111 0.217308
Si Si5 0.292805 0.999445 0.675140
Si Si6 0.239748 0.319813 0.314478
Si Si7 0.939661 0.719089 0.969124
O O1 0.346135 0.259785 0.046310
O O2 0.456759 0.337692 0.182773
O O3 0.357488 0.457222 0.083798
O O4 0.505523 0.327501 0.999641
O O5 0.265632 0.093109 0.124958
O O6 0.246370 0.136570 0.927992
O O7 0.164896 0.249043 0.057990
O O8 0.856361 0.543460 0.233461
O O9 0.844006 0.738107 0.191623
O O10 0.939182 0.641175 0.065142
O O11 0.001811 0.661334 0.252035
O O12 0.838265 0.259717 0.198007
O O13 0.001621 0.320639 0.124932
O O14 0.236485 0.093346 0.727530
#
# Coordination Sequence:
#
# PCOD9459336 Si02
#       7
#     8   8   8   8   8   8   8
#     4  10  23  41  63  94 126 165 208 259 313 372
#     4  11  22  42  65  90 127 167 207 257 316 369
#     4  10  22  42  64  91 125 167 204 259 316 371
#     4  10  19  40  66  84 121 166 204 251 310 370
#     4  11  22  39  63  96 127 158 217 256 308 374
#     4  10  23  42  63  91 128 167 208 255 316 376
#     4  10  21  40  68  87 120 169 209 248 320 368
#
# _framework density 23.038495000000001
#
# number of rings (size 3 to 8) (size 9 to 14) (size 15 to 20)
#    0.000    1.714    2.857    1.714    0.000    2.857 
#    2.571   17.143    0.000    0.000    0.000    0.000 
#    0.000    0.000    0.000    0.000    0.000    0.000 
#
# Total GULP energy -312794.030295 kJ/mol
# GULP energy per Si atom -5585.607684 kJ/mol
# Density = 2.298606 g / cm^3
# Si number density = 23.038495 Si / 1000 Ang^3
#
#
#
# Elastic Constant Matrix: (Units=GPa)
#
#
# Indices 1 2 3 4 5 6 
#
# 1 93.2150 11.9990 18.6963 0.0000 0.0000 0.0000
# 2 11.9990 46.6367 21.0605 0.0000 0.0000 0.0000
# 3 18.6963 21.0605 118.9608 0.0000 0.0000 0.0000
# 4 0.0000 0.0000 0.0000 1.8843 0.0000 0.0000
# 5 0.0000 0.0000 0.0000 0.0000 17.5802 0.0000
# 6 0.0000 0.0000 0.0000 0.0000 0.0000 24.4355
#
#
#
# Elastic Compliance Matrix: (Units=1/GPa)
#
#
# Indices 1 2 3 4 5 6 
#
# 1 0.011297 -0.002288 -0.001371 0.000000 0.000000 0.000000
# 2 -0.002288 0.023769 -0.003848 0.000000 0.000000 0.000000
# 3 -0.001371 -0.003848 0.009303 0.000000 0.000000 0.000000
# 4 0.000000 0.000000 0.000000 0.530691 0.000000 0.000000
# 5 0.000000 0.000000 0.000000 0.000000 0.056882 0.000000
# 6 0.000000 0.000000 0.000000 0.000000 0.000000 0.040924
#
#
# Mechanical properties :
#
#
# Convention : Reuss Voigt Hill
#
# Bulk Modulus (GPa) = 34.06504 40.25824 37.16164
# Shear Modulus (GPa) = 7.16676 22.58379 14.87528
#
# Velocity S-wave (km/s) = 1.76565 3.13431 2.54376
# Velocity P-wave (km/s) = 4.35602 5.53270 4.97925
#
# Compressibility (1/GPa) = 0.02935560
#
# Stress axis : x y z
#
# Youngs Moduli (GPa) = 88.51707 42.07191 107.49407
#
# Poissons Ratio (x) = 0.09625 0.14732
# Poissons Ratio (y) = 0.20250 0.41368
# Poissons Ratio (z) = 0.12131 0.16191
#
# Static dielectric constant tensor:
#      x y z
#    x 1.876100 0.000000 0.000000 
#    y 0.000000 1.884580 0.000000 
#    z 0.000000 0.000000 1.918270 
# 
# From -- ./inp_files/7831.got.cif
#   From: 2010.05.17/outbox.cif.g08.bks.cpg/sg61_4_cif.got.tgz:7831.got - 2010.06.03 15:17:17.
