data_PCOD9459574
_publ_section_title
;
Structure prediction by ZEFSAII (Michael W. Deem and Ramdas Pophale) SiO2 
 PCOD9459574
Probable space group: P B C A
;
_chemical_formula_sum "Si O2"
_cell_formula_units_Z 40
_cell_length_a 17.825947
_cell_length_b 9.367586
_cell_length_c 9.895659
_cell_angle_alpha 90.000000
_cell_angle_beta 90.000000
_cell_angle_gamma 90.000000
_cell_volume 1652.437420
_symmetry_space_group_name_H-M "P B C A"
_symmetry_group_IT_number 61
_symmetry_cell_setting 'orthorhombic'
loop_
_space_group_symop_operation_xyz
x,y,z
1/2-x,-y,1/2+z
1/2+x,1/2-y,-z
-x,1/2+y,1/2-z
-x,-y,-z
1/2+x,y,1/2-z
1/2-x,1/2+y,z
x,1/2-y,1/2+z
loop_
_atom_site_type_symbol
_atom_site_label
_atom_site_fract_x
_atom_site_fract_y
_atom_site_fract_z
Si Si1 0.349031 0.204816 0.826997
Si Si2 0.366479 0.013716 0.062813
Si Si3 0.567282 0.688505 0.924546
Si Si4 0.805210 0.739992 0.796660
Si Si5 0.902689 0.724974 0.531487
O O1 0.399408 0.126254 0.713516
O O2 0.278382 0.271544 0.750245
O O3 0.389704 0.315354 0.930990
O O4 0.325323 0.082141 0.933366
O O5 0.307716 0.924560 0.151088
O O6 0.416707 0.143523 0.115897
O O7 0.421242 0.884370 0.021511
O O8 0.481403 0.650164 0.947511
O O9 0.859689 0.743021 0.670160
O O10 0.843322 0.827443 0.919006
#
# Coordination Sequence:
#
# PCOD9459574 Si02
#       5
#     8   8   8   8   8
#     4  10  21  39  60  88 120 158 199 246 295 350
#     4   8  23  36  62  84 123 152 204 234 305 346
#     4  10  20  38  62  87 120 158 197 245 296 351
#     4  10  21  39  60  88 120 158 199 246 295 350
#     4  10  20  38  62  87 120 158 197 245 296 351
#
# _framework density 24.206666999999999
#
# number of rings (size 3 to 8) (size 9 to 14) (size 15 to 20)
#    2.400    0.000    0.000    3.000    0.000    1.600 
#    0.000    0.000    0.000    4.800    0.000    0.000 
#    0.000    0.000    0.000    0.000    0.000    0.000 
#
# Total GULP energy -222689.774985 kJ/mol
# GULP energy per Si atom -5567.244375 kJ/mol
# Density = 2.415157 g / cm^3
# Si number density = 24.206667 Si / 1000 Ang^3
#
#
#
# Elastic Constant Matrix: (Units=GPa)
#
#
# Indices 1 2 3 4 5 6 
#
# 1 177.7384 -11.3466 106.8241 0.0000 0.0000 0.0000
# 2 -11.3466 43.2537 0.2539 0.0000 0.0000 0.0000
# 3 106.8241 0.2539 222.9605 0.0000 0.0000 0.0000
# 4 0.0000 0.0000 0.0000 -24.3966 0.0000 0.0000
# 5 0.0000 0.0000 0.0000 0.0000 109.6442 0.0000
# 6 0.0000 0.0000 0.0000 0.0000 0.0000 -4.6931
#
#
#
# Elastic Compliance Matrix: (Units=1/GPa)
#
#
# Indices 1 2 3 4 5 6 
#
# 1 0.008096 0.002147 -0.003881 0.000000 0.000000 0.000000
# 2 0.002147 0.023689 -0.001055 0.000000 0.000000 0.000000
# 3 -0.003881 -0.001055 0.006346 0.000000 0.000000 0.000000
# 4 0.000000 0.000000 0.000000 -0.040989 0.000000 0.000000
# 5 0.000000 0.000000 0.000000 0.000000 0.009120 0.000000
# 6 0.000000 0.000000 0.000000 0.000000 0.000000 -0.213080
#
#
# Mechanical properties :
#
#
# Convention : Reuss Voigt Hill
#
# Bulk Modulus (GPa) = 30.72173 70.60171 50.66172
# Shear Modulus (GPa) = -26.26221 39.32564 6.53172
#
# Velocity S-wave (km/s) = -3.29738 4.03498 1.64444
# Velocity P-wave (km/s) = 1.33341 7.13706 4.95780
#
# Compressibility (1/GPa) = 0.03255025
#
# Stress axis : x y z
#
# Youngs Moduli (GPa) = 123.51654 42.21414 157.58084
#
# Poissons Ratio (x) = -0.09062 0.61164
# Poissons Ratio (y) = -0.26514 0.16632
# Poissons Ratio (z) = 0.47942 0.04456
#
# Static dielectric constant tensor:
#      x y z
#    x 1.934770 0.000000 0.000000 
#    y 0.000000 1.990050 0.000000 
#    z 0.000000 0.000000 1.966710 
# 
# From -- ./inp_files/3827.got.cif
#   From: 2010.05.17/outbox.cif.g08.bks.cpg/sg61_2_cif.got.tgz:3827.got - 2010.06.03 15:17:17.
