data_PCOD9459437
_publ_section_title
;
Structure prediction by ZEFSAII (Michael W. Deem and Ramdas Pophale) SiO2 
 PCOD9459437
Probable space group: P B C A
;
_chemical_formula_sum "Si O2"
_cell_formula_units_Z 44
_cell_length_a 17.607626
_cell_length_b 16.447471
_cell_length_c 5.265588
_cell_angle_alpha 90.000000
_cell_angle_beta 90.000000
_cell_angle_gamma 90.000000
_cell_volume 1524.919119
_symmetry_space_group_name_H-M "P B C A"
_symmetry_group_IT_number 61
_symmetry_cell_setting 'orthorhombic'
loop_
_space_group_symop_operation_xyz
x,y,z
1/2-x,-y,1/2+z
1/2+x,1/2-y,-z
-x,1/2+y,1/2-z
-x,-y,-z
1/2+x,y,1/2-z
1/2-x,1/2+y,z
x,1/2-y,1/2+z
loop_
_atom_site_type_symbol
_atom_site_label
_atom_site_fract_x
_atom_site_fract_y
_atom_site_fract_z
Si Si1 0.500000 0.500000 0.000000
Si Si2 0.531174 0.271003 0.532307
Si Si3 0.891954 0.095035 0.867278
Si Si4 0.197600 0.294618 0.480778
Si Si5 0.806184 0.420965 0.873127
Si Si6 0.095619 0.452451 0.983002
O O1 0.475745 0.400248 0.026609
O O2 0.549802 0.494797 0.289055
O O3 0.485416 0.247252 0.779781
O O4 0.607295 0.215167 0.527370
O O5 0.568724 0.360851 0.532396
O O6 0.861031 0.118989 0.593148
O O7 0.912171 0.995411 0.799183
O O8 0.832909 0.101984 0.092707
O O9 0.225426 0.264256 0.207603
O O10 0.225477 0.383201 0.560865
O O11 0.819280 0.516492 0.937881
#
# Coordination Sequence:
#
# PCOD9459437 Si02
#       6
#     4   8   8   8   8   8
#     4   6  16  32  56  86 106 136 184 244 290 332
#     4  10  22  36  54  79 113 151 187 235 298 351
#     4   8  17  30  56  84 105 137 185 240 281 333
#     4  10  20  36  53  76 109 151 191 231 293 348
#     4   9  18  32  55  78 106 145 189 235 280 342
#     4   8  19  34  59  81 111 145 195 240 283 348
#
# _framework density 28.853992000000002
#
# number of rings (size 3 to 8) (size 9 to 14) (size 15 to 20)
#    2.182    0.727    0.000    1.091    2.545    2.909 
#    0.000    7.273    0.000   15.273    0.000    0.000 
#    0.000    0.000    0.000    0.000    0.000    0.000 
#
# Total GULP energy -245165.159968 kJ/mol
# GULP energy per Si atom -5571.935454 kJ/mol
# Density = 2.878832 g / cm^3
# Si number density = 28.853992 Si / 1000 Ang^3
#
#
#
# Elastic Constant Matrix: (Units=GPa)
#
#
# Indices 1 2 3 4 5 6 
#
# 1 72.0539 32.7038 20.9675 0.0000 0.0000 0.0000
# 2 32.7038 91.7496 64.7781 0.0000 0.0000 0.0000
# 3 20.9675 64.7781 275.2512 0.0000 0.0000 0.0000
# 4 0.0000 0.0000 0.0000 52.2296 0.0000 0.0000
# 5 0.0000 0.0000 0.0000 0.0000 36.6947 0.0000
# 6 0.0000 0.0000 0.0000 0.0000 0.0000 46.7493
#
#
#
# Elastic Compliance Matrix: (Units=1/GPa)
#
#
# Indices 1 2 3 4 5 6 
#
# 1 0.016563 -0.006012 0.000153 0.000000 0.000000 0.000000
# 2 -0.006012 0.015253 -0.003132 0.000000 0.000000 0.000000
# 3 0.000153 -0.003132 0.004358 0.000000 0.000000 0.000000
# 4 0.000000 0.000000 0.000000 0.019146 0.000000 0.000000
# 5 0.000000 0.000000 0.000000 0.000000 0.027252 0.000000
# 6 0.000000 0.000000 0.000000 0.000000 0.000000 0.021391
#
#
# Mechanical properties :
#
#
# Convention : Reuss Voigt Hill
#
# Bulk Modulus (GPa) = 54.96500 75.10595 65.03547
# Shear Modulus (GPa) = 39.05997 48.50841 43.78419
#
# Velocity S-wave (km/s) = 3.68327 4.10465 3.89966
# Velocity P-wave (km/s) = 6.09749 6.96781 6.54713
#
# Compressibility (1/GPa) = 0.01819340
#
# Stress axis : x y z
#
# Youngs Moduli (GPa) = 60.37720 65.55986 229.44118
#
# Poissons Ratio (x) = 0.39413 -0.03514
# Poissons Ratio (y) = 0.36297 0.71856
# Poissons Ratio (z) = -0.00925 0.20532
#
# Static dielectric constant tensor:
#      x y z
#    x 2.374000 0.000000 0.000000 
#    y 0.000000 2.396920 0.000000 
#    z 0.000000 0.000000 2.472050 
# 
# From -- ./inp_files/1170.got.cif
#   From: 2010.05.17/outbox.cif.g08.bks.cpg/sg61_1_cif.got.tgz:1170.got - 2010.06.03 15:17:17.
