data_PCOD9459737
_publ_section_title
;
Structure prediction by ZEFSAII (Michael W. Deem and Ramdas Pophale) SiO2 
 PCOD9459737
Probable space group: P B C A
;
_chemical_formula_sum "Si O2"
_cell_formula_units_Z 48
_cell_length_a 18.212726
_cell_length_b 13.308241
_cell_length_c 7.800965
_cell_angle_alpha 90.000000
_cell_angle_beta 90.000000
_cell_angle_gamma 90.000000
_cell_volume 1890.792802
_symmetry_space_group_name_H-M "P B C A"
_symmetry_group_IT_number 61
_symmetry_cell_setting 'orthorhombic'
loop_
_space_group_symop_operation_xyz
x,y,z
1/2-x,-y,1/2+z
1/2+x,1/2-y,-z
-x,1/2+y,1/2-z
-x,-y,-z
1/2+x,y,1/2-z
1/2-x,1/2+y,z
x,1/2-y,1/2+z
loop_
_atom_site_type_symbol
_atom_site_label
_atom_site_fract_x
_atom_site_fract_y
_atom_site_fract_z
Si Si1 0.208593 0.848350 0.592173
Si Si2 0.533724 0.962696 0.275829
Si Si3 0.959680 0.145257 0.413307
Si Si4 0.829618 0.814319 0.386699
Si Si5 0.570619 0.323565 0.078655
Si Si6 0.811497 0.981780 0.676111
O O1 0.123644 0.828208 0.631053
O O2 0.251802 0.742504 0.601349
O O3 0.246918 0.925687 0.724073
O O4 0.209944 0.913178 0.415119
O O5 0.489067 0.910255 0.427474
O O6 0.484961 0.050023 0.194560
O O7 0.617926 0.996890 0.296259
O O8 0.537146 0.883562 0.114870
O O9 0.018379 0.230182 0.375808
O O10 0.883032 0.719729 0.423627
O O11 0.865672 0.853269 0.212772
O O12 0.834748 0.902249 0.527193
#
# Coordination Sequence:
#
# PCOD9459737 Si02
#       6
#     8   8   8   8   8   8
#     4  11  26  41  68 101 133 177 218 281 341 401
#     4  10  20  42  68  88 130 177 216 270 333 401
#     4  10  21  41  64  96 125 172 221 265 335 402
#     4  12  24  44  68  95 138 175 223 275 341 404
#     4  12  22  42  71  95 125 180 227 276 331 404
#     4  11  25  47  66  98 138 179 223 275 349 404
#
# _framework density 25.386175999999999
#
# number of rings (size 3 to 8) (size 9 to 14) (size 15 to 20)
#    0.000    1.000    5.000    2.000    4.667    4.000 
#    3.000    1.667    0.000    0.000    0.000    0.000 
#    0.000    0.000    0.000    0.000    0.000    0.000 
#
# Total GULP energy -268722.389674 kJ/mol
# GULP energy per Si atom -5598.383118 kJ/mol
# Density = 2.532840 g / cm^3
# Si number density = 25.386176 Si / 1000 Ang^3
#
#
#
# Elastic Constant Matrix: (Units=GPa)
#
#
# Indices 1 2 3 4 5 6 
#
# 1 181.5864 32.6103 20.7029 0.0000 0.0000 0.0000
# 2 32.6103 83.5579 4.2009 0.0000 0.0000 0.0000
# 3 20.7029 4.2009 22.4266 0.0000 0.0000 0.0000
# 4 0.0000 0.0000 0.0000 40.2080 0.0000 0.0000
# 5 0.0000 0.0000 0.0000 0.0000 24.5985 0.0000
# 6 0.0000 0.0000 0.0000 0.0000 0.0000 54.3184
#
#
#
# Elastic Compliance Matrix: (Units=1/GPa)
#
#
# Indices 1 2 3 4 5 6 
#
# 1 0.006557 -0.002276 -0.005627 0.000000 0.000000 0.000000
# 2 -0.002276 0.012872 -0.000310 0.000000 0.000000 0.000000
# 3 -0.005627 -0.000310 0.049842 0.000000 0.000000 0.000000
# 4 0.000000 0.000000 0.000000 0.024871 0.000000 0.000000
# 5 0.000000 0.000000 0.000000 0.000000 0.040653 0.000000
# 6 0.000000 0.000000 0.000000 0.000000 0.000000 0.018410
#
#
# Mechanical properties :
#
#
# Convention : Reuss Voigt Hill
#
# Bulk Modulus (GPa) = 18.92314 44.73323 31.82818
# Shear Modulus (GPa) = 26.70284 39.16210 32.93247
#
# Velocity S-wave (km/s) = 3.24677 3.93193 3.60566
# Velocity P-wave (km/s) = 4.63957 6.18650 5.46801
#
# Compressibility (1/GPa) = 0.05284537
#
# Stress axis : x y z
#
# Youngs Moduli (GPa) = 152.50085 77.68990 20.06326
#
# Poissons Ratio (x) = 0.17684 0.11290
# Poissons Ratio (y) = 0.34713 0.00622
# Poissons Ratio (z) = 0.85812 0.02407
#
# Static dielectric constant tensor:
#      x y z
#    x 1.954830 0.000000 0.000000 
#    y 0.000000 2.044010 0.000000 
#    z 0.000000 0.000000 2.075410 
# 
# From -- ./inp_files/3475.got.cif
#   From: 2010.05.17/outbox.cif.g08.bks.cpg/sg61_2_cif.got.tgz:3475.got - 2010.06.03 15:17:17.
