data_PCOD9459058
_publ_section_title
;
Structure prediction by ZEFSAII (Michael W. Deem and Ramdas Pophale) SiO2 
 PCOD9459058
Probable space group: P B C A
;
_chemical_formula_sum "Si O2"
_cell_formula_units_Z 56
_cell_length_a 17.022485
_cell_length_b 33.383189
_cell_length_c 4.981454
_cell_angle_alpha 90.000000
_cell_angle_beta 90.000000
_cell_angle_gamma 90.000000
_cell_volume 2830.785130
_symmetry_space_group_name_H-M "P B C A"
_symmetry_group_IT_number 61
_symmetry_cell_setting 'orthorhombic'
loop_
_space_group_symop_operation_xyz
x,y,z
1/2-x,-y,1/2+z
1/2+x,1/2-y,-z
-x,1/2+y,1/2-z
-x,-y,-z
1/2+x,y,1/2-z
1/2-x,1/2+y,z
x,1/2-y,1/2+z
loop_
_atom_site_type_symbol
_atom_site_label
_atom_site_fract_x
_atom_site_fract_y
_atom_site_fract_z
Si Si1 0.173856 0.462960 0.403309
Si Si2 0.070422 0.654796 0.817587
Si Si3 0.961770 0.723838 0.053869
Si Si4 0.346754 0.655630 0.418057
Si Si5 0.669043 0.862249 0.664776
Si Si6 0.784239 0.450105 0.595360
Si Si7 0.581494 0.386808 0.090082
O O1 0.161696 0.510539 0.431539
O O2 0.240388 0.450457 0.618526
O O3 0.100503 0.433624 0.439446
O O4 0.214210 0.455738 0.117010
O O5 0.122494 0.663461 0.555941
O O6 0.002507 0.624924 0.711219
O O7 0.026756 0.692779 0.948420
O O8 0.125203 0.637782 0.052049
O O9 0.967437 0.737943 0.359828
O O10 0.880016 0.699773 0.026510
O O11 0.258154 0.653071 0.316711
O O12 0.356818 0.630906 0.692848
O O13 0.402284 0.635352 0.191469
O O14 0.673529 0.907984 0.559970
#
# Coordination Sequence:
#
# PCOD9459058 Si02
#       7
#     8   8   8   8   8   8   8
#     4  10  18  34  56  87 116 163 212 253 299 346
#     4  11  25  37  62  88 126 161 196 241 318 379
#     4  11  23  45  65  87 115 154 196 240 293 372
#     4  11  22  37  67  88 115 152 208 253 295 350
#     4  12  21  40  57  96 124 157 200 257 306 360
#     4  10  20  32  57  87 121 158 204 263 303 338
#     4  11  19  39  58  89 116 167 211 247 286 369
#
# _framework density 19.782499000000001
#
# number of rings (size 3 to 8) (size 9 to 14) (size 15 to 20)
#    0.000    1.143    2.857    6.000    0.000    0.000 
#    0.000    5.714    0.000    0.000    0.000    0.000 
#    0.000    0.000    0.000    0.000    0.000    0.000 
#
# Total GULP energy -312786.838365 kJ/mol
# GULP energy per Si atom -5585.479257 kJ/mol
# Density = 1.973747 g / cm^3
# Si number density = 19.782499 Si / 1000 Ang^3
#
#
#
# Elastic Constant Matrix: (Units=GPa)
#
#
# Indices 1 2 3 4 5 6 
#
# 1 76.2706 15.9649 7.1804 0.0000 0.0000 0.0000
# 2 15.9649 59.2871 -2.1158 0.0000 0.0000 0.0000
# 3 7.1804 -2.1158 60.9090 0.0000 0.0000 0.0000
# 4 0.0000 0.0000 0.0000 26.9447 0.0000 0.0000
# 5 0.0000 0.0000 0.0000 0.0000 23.5089 0.0000
# 6 0.0000 0.0000 0.0000 0.0000 0.0000 15.2930
#
#
#
# Elastic Compliance Matrix: (Units=1/GPa)
#
#
# Indices 1 2 3 4 5 6 
#
# 1 0.014088 -0.003858 -0.001795 0.000000 0.000000 0.000000
# 2 -0.003858 0.017944 0.001078 0.000000 0.000000 0.000000
# 3 -0.001795 0.001078 0.016667 0.000000 0.000000 0.000000
# 4 0.000000 0.000000 0.000000 0.037113 0.000000 0.000000
# 5 0.000000 0.000000 0.000000 0.000000 0.042537 0.000000
# 6 0.000000 0.000000 0.000000 0.000000 0.000000 0.065389
#
#
# Mechanical properties :
#
#
# Convention : Reuss Voigt Hill
#
# Bulk Modulus (GPa) = 25.28418 26.50286 25.89352
# Shear Modulus (GPa) = 23.14061 24.84514 23.99288
#
# Velocity S-wave (km/s) = 3.42387 3.54773 3.48635
# Velocity P-wave (km/s) = 5.33286 5.49619 5.41514
#
# Compressibility (1/GPa) = 0.03955042
#
# Stress axis : x y z
#
# Youngs Moduli (GPa) = 70.98415 55.72797 59.99890
#
# Poissons Ratio (x) = 0.21498 0.10768
# Poissons Ratio (y) = 0.27383 -0.06468
# Poissons Ratio (z) = 0.12740 -0.06008
#
# Static dielectric constant tensor:
#      x y z
#    x 1.687400 0.000000 0.000000 
#    y 0.000000 1.724070 0.000000 
#    z 0.000000 0.000000 1.686470 
# 
# From -- ./inp_files/618.got.cif
#   From: 2010.05.17/outbox.cif.g08.bks.cpg/sg61_1_cif.got.tgz:618.got - 2010.06.03 15:17:17.
