data_PCOD9459073
_publ_section_title
;
Structure prediction by ZEFSAII (Michael W. Deem and Ramdas Pophale) SiO2 
 PCOD9459073
Probable space group: P B C A
;
_chemical_formula_sum "Si O2"
_cell_formula_units_Z 52
_cell_length_a 17.874086
_cell_length_b 15.026559
_cell_length_c 6.668384
_cell_angle_alpha 90.000000
_cell_angle_beta 90.000000
_cell_angle_gamma 90.000000
_cell_volume 1791.034637
_symmetry_space_group_name_H-M "P B C A"
_symmetry_group_IT_number 61
_symmetry_cell_setting 'orthorhombic'
loop_
_space_group_symop_operation_xyz
x,y,z
1/2-x,-y,1/2+z
1/2+x,1/2-y,-z
-x,1/2+y,1/2-z
-x,-y,-z
1/2+x,y,1/2-z
1/2-x,1/2+y,z
x,1/2-y,1/2+z
loop_
_atom_site_type_symbol
_atom_site_label
_atom_site_fract_x
_atom_site_fract_y
_atom_site_fract_z
Si Si1 0.177772 0.094038 0.434404
Si Si2 0.283720 0.623603 0.963864
Si Si3 0.833811 0.073066 0.026409
Si Si4 0.500000 0.500000 0.000000
Si Si5 0.369356 0.393302 0.541317
Si Si6 0.522759 0.338777 0.662800
Si Si7 0.443607 0.854007 0.368881
O O1 0.199844 0.114129 0.203635
O O2 0.254988 0.115316 0.553513
O O3 0.100005 0.147060 0.456001
O O4 0.151659 0.993474 0.478707
O O5 0.199899 0.658920 0.940754
O O6 0.356670 0.670890 0.876749
O O7 0.298327 0.521163 0.901306
O O8 0.857938 0.125617 0.222434
O O9 0.912112 0.048890 0.922539
O O10 0.458287 0.545800 0.805585
O O11 0.455536 0.371647 0.527603
O O12 0.529621 0.382518 0.890425
O O13 0.513949 0.233373 0.692933
#
# Coordination Sequence:
#
# PCOD9459073 Si02
#       7
#     8   8   8   4   8   8   8
#     4   9  19  35  57  86 119 151 190 243 299 353
#     4   8  18  36  57  81 117 156 196 234 297 368
#     4   9  17  33  61  84 113 153 194 235 290 362
#     4  10  18  38  64  82 110 160 200 232 294 364
#     4  10  18  35  59  89 116 149 198 250 292 353
#     4  11  22  39  54  86 122 151 198 251 296 345
#     4  10  22  40  57  83 117 159 192 245 299 351
#
# _framework density 29.033498999999999
#
# number of rings (size 3 to 8) (size 9 to 14) (size 15 to 20)
#    0.000    2.462    1.538    0.462    0.000    2.462 
#   11.077    0.000    0.000    0.000    0.000    0.000 
#    0.000    0.000    0.000    0.000    0.000    0.000 
#
# Total GULP energy -289570.795539 kJ/mol
# GULP energy per Si atom -5568.669145 kJ/mol
# Density = 2.896742 g / cm^3
# Si number density = 29.033499 Si / 1000 Ang^3
#
#
#
# Elastic Constant Matrix: (Units=GPa)
#
#
# Indices 1 2 3 4 5 6 
#
# 1 286.2385 41.9524 36.3364 0.0000 0.0000 0.0000
# 2 41.9524 85.2027 -7.5354 0.0000 0.0000 0.0000
# 3 36.3364 -7.5354 100.5970 0.0000 0.0000 0.0000
# 4 0.0000 0.0000 0.0000 27.2700 0.0000 0.0000
# 5 0.0000 0.0000 0.0000 0.0000 33.4853 0.0000
# 6 0.0000 0.0000 0.0000 0.0000 0.0000 23.3787
#
#
#
# Elastic Compliance Matrix: (Units=1/GPa)
#
#
# Indices 1 2 3 4 5 6 
#
# 1 0.004007 -0.002115 -0.001606 0.000000 0.000000 0.000000
# 2 -0.002115 0.012931 0.001733 0.000000 0.000000 0.000000
# 3 -0.001606 0.001733 0.010651 0.000000 0.000000 0.000000
# 4 0.000000 0.000000 0.000000 0.036670 0.000000 0.000000
# 5 0.000000 0.000000 0.000000 0.000000 0.029864 0.000000
# 6 0.000000 0.000000 0.000000 0.000000 0.000000 0.042774
#
#
# Mechanical properties :
#
#
# Convention : Reuss Voigt Hill
#
# Bulk Modulus (GPa) = 42.35055 68.17167 55.26111
# Shear Modulus (GPa) = 33.61444 43.57910 38.59677
#
# Velocity S-wave (km/s) = 3.40631 3.87847 3.65003
# Velocity P-wave (km/s) = 5.48535 6.60212 6.06948
#
# Compressibility (1/GPa) = 0.02361245
#
# Stress axis : x y z
#
# Youngs Moduli (GPa) = 249.53315 77.33064 93.89195
#
# Poissons Ratio (x) = 0.16357 0.15079
# Poissons Ratio (y) = 0.52783 -0.16269
# Poissons Ratio (z) = 0.40075 -0.13399
#
# Static dielectric constant tensor:
#      x y z
#    x 2.582610 0.000000 0.000000 
#    y 0.000000 3.000710 0.000000 
#    z 0.000000 0.000000 2.546400 
# 
# From -- ./inp_files/3548.got.cif
#   From: 2010.05.17/outbox.cif.g08.bks.cpg/sg61_2_cif.got.tgz:3548.got - 2010.06.03 15:17:17.
