data_PCOD9459156
_publ_section_title
;
Structure prediction by ZEFSAII (Michael W. Deem and Ramdas Pophale) SiO2 
 PCOD9459156
Probable space group: P B C A
;
_chemical_formula_sum "Si O2"
_cell_formula_units_Z 64
_cell_length_a 11.193917
_cell_length_b 9.216389
_cell_length_c 30.516408
_cell_angle_alpha 90.000000
_cell_angle_beta 90.000000
_cell_angle_gamma 90.000000
_cell_volume 3148.301324
_symmetry_space_group_name_H-M "P B C A"
_symmetry_group_IT_number 61
_symmetry_cell_setting 'orthorhombic'
loop_
_space_group_symop_operation_xyz
x,y,z
1/2-x,-y,1/2+z
1/2+x,1/2-y,-z
-x,1/2+y,1/2-z
-x,-y,-z
1/2+x,y,1/2-z
1/2-x,1/2+y,z
x,1/2-y,1/2+z
loop_
_atom_site_type_symbol
_atom_site_label
_atom_site_fract_x
_atom_site_fract_y
_atom_site_fract_z
Si Si1 0.195729 0.874654 0.255021
Si Si2 0.123305 0.175813 0.240539
Si Si3 0.109832 0.328402 0.374832
Si Si4 0.898906 0.810270 0.018796
Si Si5 0.841973 0.359248 0.513583
Si Si6 0.569649 0.668682 0.310925
Si Si7 0.649428 0.663013 0.117973
Si Si8 0.489013 0.853496 0.171370
O O1 0.321691 0.808256 0.267755
O O2 0.098888 0.864412 0.293455
O O3 0.160482 0.781637 0.211906
O O4 0.209241 0.039917 0.242044
O O5 0.007022 0.131945 0.267196
O O6 0.092570 0.230724 0.192900
O O7 0.095674 0.315379 0.427856
O O8 0.001751 0.260134 0.347474
O O9 0.226275 0.229954 0.365207
O O10 0.128125 0.499728 0.364268
O O11 0.790000 0.705462 0.002988
O O12 0.859910 0.971008 0.002162
O O13 0.035922 0.781833 0.003487
O O14 0.844906 0.350628 0.566050
O O15 0.579844 0.506455 0.331499
O O16 0.548857 0.781865 0.129361
#
# Coordination Sequence:
#
# PCOD9459156 Si02
#       8
#     8   8   8   8   8   8   8   8
#     4  10  20  33  49  69  96 130 167 208 253 300
#     4  10  20  33  49  69  96 130 167 208 253 300
#     4  10  19  32  52  76 103 133 168 212 258 306
#     4   9  19  36  57  82 111 142 178 221 269 322
#     4   9  19  36  57  82 111 142 178 221 269 322
#     4  10  20  33  50  72  98 129 167 208 251 301
#     4  10  19  32  52  76 103 133 168 212 258 306
#     4  10  20  33  50  72  98 129 167 208 251 301
#
# _framework density 20.328420999999999
#
# number of rings (size 3 to 8) (size 9 to 14) (size 15 to 20)
#    0.000    2.250    0.000    3.000    0.000    6.500 
#    0.000    1.250    0.000    3.000    0.000    0.000 
#    0.000    0.000    0.000    0.000    0.000    0.000 
#
# Total GULP energy -356320.760634 kJ/mol
# GULP energy per Si atom -5567.511885 kJ/mol
# Density = 2.028215 g / cm^3
# Si number density = 20.328421 Si / 1000 Ang^3
#
#
#
# Elastic Constant Matrix: (Units=GPa)
#
#
# Indices 1 2 3 4 5 6 
#
# 1 40.6828 -8.1520 7.0565 0.0000 0.0000 0.0000
# 2 -8.1520 84.9880 5.6279 0.0000 0.0000 0.0000
# 3 7.0565 5.6279 21.4457 0.0000 0.0000 0.0000
# 4 0.0000 0.0000 0.0000 18.5187 0.0000 0.0000
# 5 0.0000 0.0000 0.0000 0.0000 26.8852 0.0000
# 6 0.0000 0.0000 0.0000 0.0000 0.0000 26.8926
#
#
#
# Elastic Compliance Matrix: (Units=1/GPa)
#
#
# Indices 1 2 3 4 5 6 
#
# 1 0.026909 0.003223 -0.009700 0.000000 0.000000 0.000000
# 2 0.003223 0.012361 -0.004304 0.000000 0.000000 0.000000
# 3 -0.009700 -0.004304 0.050951 0.000000 0.000000 0.000000
# 4 0.000000 0.000000 0.000000 0.053999 0.000000 0.000000
# 5 0.000000 0.000000 0.000000 0.000000 0.037195 0.000000
# 6 0.000000 0.000000 0.000000 0.000000 0.000000 0.037185
#
#
# Mechanical properties :
#
#
# Convention : Reuss Voigt Hill
#
# Bulk Modulus (GPa) = 14.56493 17.35349 15.95921
# Shear Modulus (GPa) = 19.00797 23.96491 21.48644
#
# Velocity S-wave (km/s) = 3.06117 3.43722 3.25463
# Velocity P-wave (km/s) = 4.43562 4.93029 4.68948
#
# Compressibility (1/GPa) = 0.06865809
#
# Stress axis : x y z
#
# Youngs Moduli (GPa) = 37.16259 80.90229 19.62684
#
# Poissons Ratio (x) = -0.26078 0.19038
# Poissons Ratio (y) = -0.11979 0.08448
# Poissons Ratio (z) = 0.36048 0.34823
#
# Static dielectric constant tensor:
#      x y z
#    x 1.852740 0.000000 0.000000 
#    y 0.000000 1.760950 0.000000 
#    z 0.000000 0.000000 1.712270 
# 
# From -- ./inp_files/11782.got.cif
#   From: 2010.05.17/outbox.cif.g08.bks.cpg/sg61_6_cif.got.tgz:11782.got - 2010.06.03 15:17:17.
