data_PCOD9459828
_publ_section_title
;
Structure prediction by ZEFSAII (Michael W. Deem and Ramdas Pophale) SiO2 
 PCOD9459828
Probable space group: P B C A
;
_chemical_formula_sum "Si O2"
_cell_formula_units_Z 64
_cell_length_a 11.951170
_cell_length_b 18.865953
_cell_length_c 10.450665
_cell_angle_alpha 90.000000
_cell_angle_beta 90.000000
_cell_angle_gamma 90.000000
_cell_volume 2356.313648
_symmetry_space_group_name_H-M "P B C A"
_symmetry_group_IT_number 61
_symmetry_cell_setting 'orthorhombic'
loop_
_space_group_symop_operation_xyz
x,y,z
1/2-x,-y,1/2+z
1/2+x,1/2-y,-z
-x,1/2+y,1/2-z
-x,-y,-z
1/2+x,y,1/2-z
1/2-x,1/2+y,z
x,1/2-y,1/2+z
loop_
_atom_site_type_symbol
_atom_site_label
_atom_site_fract_x
_atom_site_fract_y
_atom_site_fract_z
Si Si1 0.447579 0.523395 0.181294
Si Si2 0.642357 0.530424 0.568749
Si Si3 0.150601 0.776638 0.181780
Si Si4 0.494952 0.156207 0.890442
Si Si5 0.702282 0.349605 0.748301
Si Si6 0.671288 0.563381 0.028306
Si Si7 0.078471 0.256965 0.418135
Si Si8 0.814809 0.620694 0.718860
O O1 0.438493 0.510268 0.333410
O O2 0.358634 0.589226 0.170056
O O3 0.570150 0.541958 0.129271
O O4 0.402628 0.456579 0.098699
O O5 0.574561 0.599669 0.526724
O O6 0.712569 0.477624 0.483104
O O7 0.745974 0.558020 0.657247
O O8 0.091832 0.793258 0.317527
O O9 0.211280 0.701662 0.178832
O O10 0.236424 0.840978 0.176880
O O11 0.049458 0.782772 0.084240
O O12 0.565639 0.113290 0.784609
O O13 0.580331 0.206734 0.961779
O O14 0.767507 0.378463 0.621686
O O15 0.605361 0.296278 0.698654
O O16 0.160122 0.321981 0.394088
#
# Coordination Sequence:
#
# PCOD9459828 Si02
#       8
#     8   8   8   8   8   8   8   8
#     4  10  22  40  59  85 121 155 204 248 286 356
#     4  10  21  39  61  85 119 154 195 247 294 349
#     4   9  20  38  57  84 120 151 186 241 298 353
#     4  10  21  37  58  91 114 150 196 237 297 357
#     4  10  21  39  61  85 119 154 195 247 294 349
#     4  10  22  40  59  89 113 163 204 238 308 340
#     4  10  21  37  58  91 114 150 196 237 297 357
#     4   9  20  38  57  84 120 151 186 241 298 353
#
# _framework density 27.161069999999999
#
# number of rings (size 3 to 8) (size 9 to 14) (size 15 to 20)
#    0.000    2.250    0.000    1.500    3.500    3.000 
#   13.500    1.250    0.000    0.000    0.000    0.000 
#    0.000    0.000    0.000    0.000    0.000    0.000 
#
# Total GULP energy -357160.080102 kJ/mol
# GULP energy per Si atom -5580.626252 kJ/mol
# Density = 2.709925 g / cm^3
# Si number density = 27.161070 Si / 1000 Ang^3
#
#
#
# Elastic Constant Matrix: (Units=GPa)
#
#
# Indices 1 2 3 4 5 6 
#
# 1 131.2522 41.1568 24.4720 0.0000 0.0000 0.0000
# 2 41.1568 87.2937 13.6020 0.0000 0.0000 0.0000
# 3 24.4720 13.6020 40.7505 0.0000 0.0000 0.0000
# 4 0.0000 0.0000 0.0000 23.4467 0.0000 0.0000
# 5 0.0000 0.0000 0.0000 0.0000 37.9424 0.0000
# 6 0.0000 0.0000 0.0000 0.0000 0.0000 50.5458
#
#
#
# Elastic Compliance Matrix: (Units=1/GPa)
#
#
# Indices 1 2 3 4 5 6 
#
# 1 0.009671 -0.003855 -0.004521 0.000000 0.000000 0.000000
# 2 -0.003855 0.013621 -0.002231 0.000000 0.000000 0.000000
# 3 -0.004521 -0.002231 0.027999 0.000000 0.000000 0.000000
# 4 0.000000 0.000000 0.000000 0.042650 0.000000 0.000000
# 5 0.000000 0.000000 0.000000 0.000000 0.026356 0.000000
# 6 0.000000 0.000000 0.000000 0.000000 0.000000 0.019784
#
#
# Mechanical properties :
#
#
# Convention : Reuss Voigt Hill
#
# Bulk Modulus (GPa) = 33.24874 46.41755 39.83314
# Shear Modulus (GPa) = 29.18509 34.39133 31.78821
#
# Velocity S-wave (km/s) = 3.28154 3.56223 3.42476
# Velocity P-wave (km/s) = 5.16003 5.83491 5.50782
#
# Compressibility (1/GPa) = 0.03007633
#
# Stress axis : x y z
#
# Youngs Moduli (GPa) = 103.40566 73.41694 35.71522
#
# Poissons Ratio (x) = 0.28303 0.16146
# Poissons Ratio (y) = 0.39863 0.07969
# Poissons Ratio (z) = 0.46747 0.16382
#
# Static dielectric constant tensor:
#      x y z
#    x 2.068230 0.000000 0.000000 
#    y 0.000000 2.193210 0.000000 
#    z 0.000000 0.000000 2.255390 
# 
# From -- ./inp_files/5468.got.cif
#   From: 2010.05.17/outbox.cif.g08.bks.cpg/sg61_3_cif.got.tgz:5468.got - 2010.06.03 15:17:17.
