data_PCOD9459790
_publ_section_title
;
Structure prediction by ZEFSAII (Michael W. Deem and Ramdas Pophale) SiO2 
 PCOD9459790
Probable space group: P B C A
;
_chemical_formula_sum "Si O2"
_cell_formula_units_Z 64
_cell_length_a 11.303253
_cell_length_b 9.047520
_cell_length_c 30.485622
_cell_angle_alpha 90.000000
_cell_angle_beta 90.000000
_cell_angle_gamma 90.000000
_cell_volume 3117.655045
_symmetry_space_group_name_H-M "P B C A"
_symmetry_group_IT_number 61
_symmetry_cell_setting 'orthorhombic'
loop_
_space_group_symop_operation_xyz
x,y,z
1/2-x,-y,1/2+z
1/2+x,1/2-y,-z
-x,1/2+y,1/2-z
-x,-y,-z
1/2+x,y,1/2-z
1/2-x,1/2+y,z
x,1/2-y,1/2+z
loop_
_atom_site_type_symbol
_atom_site_label
_atom_site_fract_x
_atom_site_fract_y
_atom_site_fract_z
Si Si1 0.693727 0.245599 0.372292
Si Si2 0.133458 0.317708 0.729437
Si Si3 0.598110 0.410549 0.568364
Si Si4 0.927376 0.277174 0.480013
Si Si5 0.263253 0.654093 0.972541
Si Si6 0.611988 0.527759 0.259051
Si Si7 0.073914 0.077939 0.048583
Si Si8 0.410840 0.062531 0.137302
O O1 0.653939 0.199859 0.323094
O O2 0.628965 0.148313 0.408875
O O3 0.659756 0.416332 0.378779
O O4 0.831835 0.204463 0.374973
O O5 0.255753 0.397230 0.747333
O O6 0.006941 0.402348 0.736591
O O7 0.122820 0.149731 0.748301
O O8 0.487316 0.371868 0.536981
O O9 0.678814 0.265828 0.561642
O O10 0.672995 0.547136 0.551229
O O11 0.538923 0.433293 0.615299
O O12 0.791223 0.251688 0.488028
O O13 0.957886 0.406783 0.445887
O O14 0.975527 0.313705 0.528812
O O15 0.350415 0.561625 0.003437
O O16 0.585013 0.550727 0.310581
#
# Coordination Sequence:
#
# PCOD9459790 Si02
#       8
#     8   8   8   8   8   8   8   8
#     4  10  22  38  64  91 123 155 205 256 308 364
#     4  10  21  41  68 100 131 167 207 264 322 392
#     4  11  23  39  59  83 120 160 209 255 311 367
#     4  10  21  36  54  81 112 158 207 253 303 358
#     4  11  21  38  58  81 119 160 203 258 307 364
#     4  10  21  42  69  98 132 166 211 260 327 393
#     4  10  21  35  56  84 113 155 206 252 301 359
#     4  10  23  41  61  94 123 159 204 259 307 373
#
# _framework density 20.52825
#
# number of rings (size 3 to 8) (size 9 to 14) (size 15 to 20)
#    0.000    1.750    1.250    2.625    3.500    2.000 
#    0.000    5.000    0.000    0.000    0.000    0.000 
#    0.000    0.000    0.000    0.000    0.000    0.000 
#
# Total GULP energy -356467.705662 kJ/mol
# GULP energy per Si atom -5569.807901 kJ/mol
# Density = 2.048153 g / cm^3
# Si number density = 20.528250 Si / 1000 Ang^3
#
#
#
# Elastic Constant Matrix: (Units=GPa)
#
#
# Indices 1 2 3 4 5 6 
#
# 1 94.9071 52.1695 27.2904 0.0000 0.0000 0.0000
# 2 52.1695 101.5646 34.1411 0.0000 0.0000 0.0000
# 3 27.2904 34.1411 40.7688 0.0000 0.0000 0.0000
# 4 0.0000 0.0000 0.0000 23.4312 0.0000 0.0000
# 5 0.0000 0.0000 0.0000 0.0000 39.8488 0.0000
# 6 0.0000 0.0000 0.0000 0.0000 0.0000 42.3863
#
#
#
# Elastic Compliance Matrix: (Units=1/GPa)
#
#
# Indices 1 2 3 4 5 6 
#
# 1 0.015417 -0.006194 -0.005134 0.000000 0.000000 0.000000
# 2 -0.006194 0.016192 -0.009414 0.000000 0.000000 0.000000
# 3 -0.005134 -0.009414 0.035848 0.000000 0.000000 0.000000
# 4 0.000000 0.000000 0.000000 0.042678 0.000000 0.000000
# 5 0.000000 0.000000 0.000000 0.000000 0.025095 0.000000
# 6 0.000000 0.000000 0.000000 0.000000 0.000000 0.023593
#
#
# Mechanical properties :
#
#
# Convention : Reuss Voigt Hill
#
# Bulk Modulus (GPa) = 38.49729 51.60470 45.05100
# Shear Modulus (GPa) = 23.92773 29.37590 26.65181
#
# Velocity S-wave (km/s) = 3.41779 3.78696 3.60710
# Velocity P-wave (km/s) = 5.86252 6.65690 6.27230
#
# Compressibility (1/GPa) = 0.02597585
#
# Stress axis : x y z
#
# Youngs Moduli (GPa) = 64.86219 61.76003 27.89545
#
# Poissons Ratio (x) = 0.38252 0.14320
# Poissons Ratio (y) = 0.40173 0.26259
# Poissons Ratio (z) = 0.33297 0.58138
#
# Static dielectric constant tensor:
#      x y z
#    x 1.927870 0.000000 0.000000 
#    y 0.000000 1.916540 0.000000 
#    z 0.000000 0.000000 1.709590 
# 
# From -- ./inp_files/11796.got.cif
#   From: 2010.05.17/outbox.cif.g08.bks.cpg/sg61_6_cif.got.tgz:11796.got - 2010.06.03 15:17:17.
