data_PCOD9459963
_publ_section_title
;
Structure prediction by ZEFSAII (Michael W. Deem and Ramdas Pophale) SiO2 
 PCOD9459963
Probable space group: P B C A
;
_chemical_formula_sum "Si O2"
_cell_formula_units_Z 40
_cell_length_a 20.413596
_cell_length_b 9.950547
_cell_length_c 9.687212
_cell_angle_alpha 90.000000
_cell_angle_beta 90.000000
_cell_angle_gamma 90.000000
_cell_volume 1967.728949
_symmetry_space_group_name_H-M "P B C A"
_symmetry_group_IT_number 61
_symmetry_cell_setting 'orthorhombic'
loop_
_space_group_symop_operation_xyz
x,y,z
1/2-x,-y,1/2+z
1/2+x,1/2-y,-z
-x,1/2+y,1/2-z
-x,-y,-z
1/2+x,y,1/2-z
1/2-x,1/2+y,z
x,1/2-y,1/2+z
loop_
_atom_site_type_symbol
_atom_site_label
_atom_site_fract_x
_atom_site_fract_y
_atom_site_fract_z
Si Si1 0.545120 0.360866 0.646724
Si Si2 0.728906 0.214834 0.518351
Si Si3 0.796884 0.509669 0.877761
Si Si4 0.945259 0.906690 0.326743
Si Si5 0.316674 0.875832 0.746853
O O1 0.544741 0.215922 0.720685
O O2 0.491517 0.465591 0.701460
O O3 0.538308 0.354248 0.481560
O O4 0.617389 0.420161 0.680930
O O5 0.734299 0.365655 0.459672
O O6 0.790043 0.121866 0.478106
O O7 0.706400 0.241176 0.673060
O O8 0.673112 0.153056 0.416273
O O9 0.870375 0.541264 0.834148
O O10 0.746727 0.470193 0.756005
#
# Coordination Sequence:
#
# PCOD9459963 Si02
#       5
#     8   8   8   8   8
#     4  11  23  45  68  92 136 173 218 273 327 392
#     4  10  22  35  64  87 125 160 207 259 321 372
#     4  10  22  38  62  94 126 162 213 265 317 385
#     4  11  24  45  66  95 131 174 221 271 327 389
#     4  10  21  39  65  87 128 164 206 262 322 374
#
# _framework density 20.328002999999999
#
# number of rings (size 3 to 8) (size 9 to 14) (size 15 to 20)
#    1.200    0.400    4.000    0.000    2.800    2.400 
#    7.200    0.000    0.000    0.000    0.000    0.000 
#    0.000    0.000    0.000    0.000    0.000    0.000 
#
# Total GULP energy -222744.066315 kJ/mol
# GULP energy per Si atom -5568.601658 kJ/mol
# Density = 2.028174 g / cm^3
# Si number density = 20.328003 Si / 1000 Ang^3
#
#
#
# Elastic Constant Matrix: (Units=GPa)
#
#
# Indices 1 2 3 4 5 6 
#
# 1 109.9297 93.7218 23.1838 0.0000 0.0000 0.0000
# 2 93.7218 131.2453 19.2266 0.0000 0.0000 0.0000
# 3 23.1838 19.2266 52.2986 0.0000 0.0000 0.0000
# 4 0.0000 0.0000 0.0000 38.2938 0.0000 0.0000
# 5 0.0000 0.0000 0.0000 0.0000 20.8706 0.0000
# 6 0.0000 0.0000 0.0000 0.0000 0.0000 42.7401
#
#
#
# Elastic Compliance Matrix: (Units=1/GPa)
#
#
# Indices 1 2 3 4 5 6 
#
# 1 0.024274 -0.016654 -0.004638 0.000000 0.000000 0.000000
# 2 -0.016654 0.019480 0.000221 0.000000 0.000000 0.000000
# 3 -0.004638 0.000221 0.021095 0.000000 0.000000 0.000000
# 4 0.000000 0.000000 0.000000 0.026114 0.000000 0.000000
# 5 0.000000 0.000000 0.000000 0.000000 0.047914 0.000000
# 6 0.000000 0.000000 0.000000 0.000000 0.000000 0.023397
#
#
# Mechanical properties :
#
#
# Convention : Reuss Voigt Hill
#
# Bulk Modulus (GPa) = 44.03827 62.85976 53.44902
# Shear Modulus (GPa) = 23.58664 30.87035 27.22849
#
# Velocity S-wave (km/s) = 3.41002 3.90116 3.66383
# Velocity P-wave (km/s) = 6.10042 7.16114 6.65196
#
# Compressibility (1/GPa) = 0.02270752
#
# Stress axis : x y z
#
# Youngs Moduli (GPa) = 41.19696 51.33558 47.40358
#
# Poissons Ratio (x) = 0.85496 0.21985
# Poissons Ratio (y) = 0.68611 -0.01050
# Poissons Ratio (z) = 0.19106 -0.01137
#
# Static dielectric constant tensor:
#      x y z
#    x 1.712600 0.000000 0.000000 
#    y 0.000000 1.765160 0.000000 
#    z 0.000000 0.000000 1.811490 
# 
# From -- ./inp_files/6078.got.cif
#   From: 2010.05.17/outbox.cif.g08.bks.cpg/sg61_4_cif.got.tgz:6078.got - 2010.06.03 15:17:17.
