data_PCOD9459772
_publ_section_title
;
Structure prediction by ZEFSAII (Michael W. Deem and Ramdas Pophale) SiO2 
 PCOD9459772
Probable space group: P B C A
;
_chemical_formula_sum "Si O2"
_cell_formula_units_Z 56
_cell_length_a 12.585458
_cell_length_b 14.068770
_cell_length_c 11.132647
_cell_angle_alpha 90.000000
_cell_angle_beta 90.000000
_cell_angle_gamma 90.000000
_cell_volume 1971.167785
_symmetry_space_group_name_H-M "P B C A"
_symmetry_group_IT_number 61
_symmetry_cell_setting 'orthorhombic'
loop_
_space_group_symop_operation_xyz
x,y,z
1/2-x,-y,1/2+z
1/2+x,1/2-y,-z
-x,1/2+y,1/2-z
-x,-y,-z
1/2+x,y,1/2-z
1/2-x,1/2+y,z
x,1/2-y,1/2+z
loop_
_atom_site_type_symbol
_atom_site_label
_atom_site_fract_x
_atom_site_fract_y
_atom_site_fract_z
Si Si1 0.690490 0.618372 0.423183
Si Si2 0.219690 0.361062 0.324428
Si Si3 0.500000 0.000000 0.500000
Si Si4 0.590056 0.688757 0.023027
Si Si5 0.454013 0.825395 0.142106
Si Si6 0.000000 0.000000 0.500000
Si Si7 0.695647 0.343445 0.580457
Si Si8 0.362378 0.975486 0.733599
O O1 0.763213 0.600417 0.541579
O O2 0.635504 0.723353 0.441524
O O3 0.602603 0.536871 0.417152
O O4 0.771205 0.597694 0.314915
O O5 0.109295 0.358496 0.255851
O O6 0.231400 0.248381 0.345135
O O7 0.302480 0.423672 0.247537
O O8 0.507012 0.884650 0.471483
O O9 0.454751 0.977154 0.637626
O O10 0.533382 0.736702 0.138701
O O11 0.688901 0.617045 0.046953
O O12 0.521889 0.910565 0.090344
O O13 0.366702 0.807323 0.036826
O O14 0.616886 0.422443 0.636877
#
# Coordination Sequence:
#
# PCOD9459772 Si02
#       8
#     8   8   4   8   8   4   8   8
#     4  10  24  49  75 114 149 211 257 331 400 485
#     4  11  25  46  80 104 159 209 258 332 405 467
#     4  12  28  48  74 118 154 200 266 338 384 492
#     4  10  26  47  77 110 155 201 275 317 410 476
#     4  11  23  50  74 115 153 206 265 334 386 498
#     4  10  20  46  78 104 152 196 270 306 400 478
#     4  11  27  49  77 109 161 210 258 332 408 468
#     4  12  27  49  75 113 160 202 264 334 403 488
#
# _framework density 28.409557
#
# number of rings (size 3 to 8) (size 9 to 14) (size 15 to 20)
#    0.000    1.143    1.429    2.571   12.000    0.000 
#   23.143    1.429    0.000    0.000    0.000    0.000 
#    0.000    0.000    0.000    0.000    0.000    0.000 
#
# Total GULP energy -311750.322743 kJ/mol
# GULP energy per Si atom -5566.970049 kJ/mol
# Density = 2.834490 g / cm^3
# Si number density = 28.409557 Si / 1000 Ang^3
#
#
#
# Elastic Constant Matrix: (Units=GPa)
#
#
# Indices 1 2 3 4 5 6 
#
# 1 123.1495 25.8087 38.5310 0.0000 0.0000 0.0000
# 2 25.8087 174.0821 43.1074 0.0000 0.0000 0.0000
# 3 38.5310 43.1074 82.7878 0.0000 0.0000 0.0000
# 4 0.0000 0.0000 0.0000 33.0472 0.0000 0.0000
# 5 0.0000 0.0000 0.0000 0.0000 51.5482 0.0000
# 6 0.0000 0.0000 0.0000 0.0000 0.0000 40.6821
#
#
#
# Elastic Compliance Matrix: (Units=1/GPa)
#
#
# Indices 1 2 3 4 5 6 
#
# 1 0.009524 -0.000361 -0.004245 0.000000 0.000000 0.000000
# 2 -0.000361 0.006608 -0.003273 0.000000 0.000000 0.000000
# 3 -0.004245 -0.003273 0.015759 0.000000 0.000000 0.000000
# 4 0.000000 0.000000 0.000000 0.030260 0.000000 0.000000
# 5 0.000000 0.000000 0.000000 0.000000 0.019399 0.000000
# 6 0.000000 0.000000 0.000000 0.000000 0.000000 0.024581
#
#
# Mechanical properties :
#
#
# Convention : Reuss Voigt Hill
#
# Bulk Modulus (GPa) = 61.98086 66.10153 64.04119
# Shear Modulus (GPa) = 39.28769 43.22700 41.25735
#
# Velocity S-wave (km/s) = 3.72278 3.90496 3.81495
# Velocity P-wave (km/s) = 6.35162 6.60677 6.48045
#
# Compressibility (1/GPa) = 0.01613401
#
# Stress axis : x y z
#
# Youngs Moduli (GPa) = 104.99875 151.32242 63.45622
#
# Poissons Ratio (x) = 0.05461 0.26935
# Poissons Ratio (y) = 0.03789 0.20769
# Poissons Ratio (z) = 0.44569 0.49528
#
# Static dielectric constant tensor:
#      x y z
#    x 2.358360 0.000000 0.000000 
#    y 0.000000 1.916130 0.000000 
#    z 0.000000 0.000000 3.540540 
# 
# From -- ./inp_files/5854.got.cif
#   From: 2010.05.17/outbox.cif.g08.bks.cpg/sg61_3_cif.got.tgz:5854.got - 2010.06.03 15:17:17.
