data_PCOD9459675
_publ_section_title
;
Structure prediction by ZEFSAII (Michael W. Deem and Ramdas Pophale) SiO2 
 PCOD9459675
Probable space group: P B C A
;
_chemical_formula_sum "Si O2"
_cell_formula_units_Z 60
_cell_length_a 21.810423
_cell_length_b 8.231521
_cell_length_c 17.035387
_cell_angle_alpha 90.000000
_cell_angle_beta 90.000000
_cell_angle_gamma 90.000000
_cell_volume 3058.413367
_symmetry_space_group_name_H-M "P B C A"
_symmetry_group_IT_number 61
_symmetry_cell_setting 'orthorhombic'
loop_
_space_group_symop_operation_xyz
x,y,z
1/2-x,-y,1/2+z
1/2+x,1/2-y,-z
-x,1/2+y,1/2-z
-x,-y,-z
1/2+x,y,1/2-z
1/2-x,1/2+y,z
x,1/2-y,1/2+z
loop_
_atom_site_type_symbol
_atom_site_label
_atom_site_fract_x
_atom_site_fract_y
_atom_site_fract_z
Si Si1 0.568039 0.519239 0.924517
Si Si2 0.776839 0.483788 0.920575
Si Si3 0.821929 0.329593 0.337335
Si Si4 0.000000 0.500000 0.000000
Si Si5 0.670224 0.700267 0.162237
Si Si6 0.039828 0.701563 0.418725
Si Si7 0.778938 0.887729 0.084180
Si Si8 0.375342 0.696486 0.498139
O O1 0.614388 0.586987 0.860831
O O2 0.504779 0.444530 0.892450
O O3 0.554598 0.658108 0.989380
O O4 0.598541 0.367828 0.970340
O O5 0.733025 0.542978 0.850607
O O6 0.806648 0.312184 0.899632
O O7 0.734952 0.465218 0.998465
O O8 0.830701 0.610652 0.938912
O O9 0.825178 0.251742 0.252166
O O10 0.994778 0.371741 0.074260
O O11 0.931318 0.577961 0.021305
O O12 0.601428 0.709813 0.130003
O O13 0.715005 0.817495 0.113586
O O14 0.694815 0.520802 0.143037
O O15 0.829431 0.746768 0.072130
#
# Coordination Sequence:
#
# PCOD9459675 Si02
#       8
#     8   8   8   4   8   8   8   8
#     4  10  20  40  65  87 123 171 220 269 316 388
#     4  12  21  39  65  89 123 172 223 264 320 403
#     4  12  23  39  59  94 134 171 211 271 349 397
#     4  10  22  36  62 100 118 158 222 282 316 378
#     4  12  25  39  61  98 138 166 211 278 346 392
#     4  10  21  40  65  93 123 168 226 272 316 386
#     4  12  21  38  64  93 129 171 218 271 322 391
#     4  11  20  36  65  93 123 160 223 271 319 379
#
# _framework density 19.618016000000001
#
# number of rings (size 3 to 8) (size 9 to 14) (size 15 to 20)
#    0.000    0.800    5.333    3.200    0.000    0.000 
#    0.000    4.000    0.000    0.000    0.000    0.000 
#    0.000    0.000    0.000    0.000    0.000    0.000 
#
# Total GULP energy -334198.013537 kJ/mol
# GULP energy per Si atom -5569.966892 kJ/mol
# Density = 1.957337 g / cm^3
# Si number density = 19.618016 Si / 1000 Ang^3
#
#
#
# Elastic Constant Matrix: (Units=GPa)
#
#
# Indices 1 2 3 4 5 6 
#
# 1 98.8252 16.3858 43.9622 0.0000 0.0000 0.0000
# 2 16.3858 29.4006 21.6386 0.0000 0.0000 0.0000
# 3 43.9622 21.6386 72.4836 0.0000 0.0000 0.0000
# 4 0.0000 0.0000 0.0000 22.2455 0.0000 0.0000
# 5 0.0000 0.0000 0.0000 0.0000 17.5972 0.0000
# 6 0.0000 0.0000 0.0000 0.0000 0.0000 42.1046
#
#
#
# Elastic Compliance Matrix: (Units=1/GPa)
#
#
# Indices 1 2 3 4 5 6 
#
# 1 0.013947 -0.001983 -0.007867 0.000000 0.000000 0.000000
# 2 -0.001983 0.043872 -0.011895 0.000000 0.000000 0.000000
# 3 -0.007867 -0.011895 0.022119 0.000000 0.000000 0.000000
# 4 0.000000 0.000000 0.000000 0.044953 0.000000 0.000000
# 5 0.000000 0.000000 0.000000 0.000000 0.056827 0.000000
# 6 0.000000 0.000000 0.000000 0.000000 0.000000 0.023750
#
#
# Mechanical properties :
#
#
# Convention : Reuss Voigt Hill
#
# Bulk Modulus (GPa) = 27.43573 40.52030 33.97802
# Shear Modulus (GPa) = 19.14913 24.30432 21.72672
#
# Velocity S-wave (km/s) = 3.12765 3.52359 3.33150
# Velocity P-wave (km/s) = 5.20175 6.10358 5.67062
#
# Compressibility (1/GPa) = 0.03644881
#
# Stress axis : x y z
#
# Youngs Moduli (GPa) = 71.69774 22.79337 45.21053
#
# Poissons Ratio (x) = 0.04520 0.35569
# Poissons Ratio (y) = 0.14218 0.53776
# Poissons Ratio (z) = 0.56407 0.27112
#
# Static dielectric constant tensor:
#      x y z
#    x 1.722080 0.000000 0.000000 
#    y 0.000000 1.770100 0.000000 
#    z 0.000000 0.000000 1.654370 
# 
# From -- ./inp_files/8496.got.cif
#   From: 2010.05.17/outbox.cif.g08.bks.cpg/sg61_5_cif.got.tgz:8496.got - 2010.06.03 15:17:17.
