data_PCOD9459736
_publ_section_title
;
Structure prediction by ZEFSAII (Michael W. Deem and Ramdas Pophale) SiO2 
 PCOD9459736
Probable space group: P B C A
;
_chemical_formula_sum "Si O2"
_cell_formula_units_Z 60
_cell_length_a 22.632936
_cell_length_b 10.953014
_cell_length_c 11.276064
_cell_angle_alpha 90.000000
_cell_angle_beta 90.000000
_cell_angle_gamma 90.000000
_cell_volume 2795.323466
_symmetry_space_group_name_H-M "P B C A"
_symmetry_group_IT_number 61
_symmetry_cell_setting 'orthorhombic'
loop_
_space_group_symop_operation_xyz
x,y,z
1/2-x,-y,1/2+z
1/2+x,1/2-y,-z
-x,1/2+y,1/2-z
-x,-y,-z
1/2+x,y,1/2-z
1/2-x,1/2+y,z
x,1/2-y,1/2+z
loop_
_atom_site_type_symbol
_atom_site_label
_atom_site_fract_x
_atom_site_fract_y
_atom_site_fract_z
Si Si1 0.597187 0.921981 0.970681
Si Si2 0.370716 0.888026 0.477255
Si Si3 0.867729 0.214367 0.685221
Si Si4 0.518070 0.733619 0.825506
Si Si5 0.097089 0.355725 0.873762
Si Si6 0.825938 0.019720 0.249097
Si Si7 0.500000 0.000000 0.500000
Si Si8 0.687983 0.485851 0.797716
O O1 0.550657 0.830786 0.911576
O O2 0.635649 0.984605 0.868474
O O3 0.638984 0.840532 0.054995
O O4 0.572595 0.026093 0.057264
O O5 0.383575 0.744512 0.469972
O O6 0.323428 0.930028 0.573584
O O7 0.349088 0.924494 0.346731
O O8 0.430543 0.960180 0.507629
O O9 0.937851 0.223268 0.714308
O O10 0.839471 0.345921 0.697183
O O11 0.840192 0.120074 0.779202
O O12 0.454703 0.792927 0.796920
O O13 0.509826 0.606998 0.894627
O O14 0.151406 0.401336 0.794397
O O15 0.756845 0.006766 0.270925
#
# Coordination Sequence:
#
# PCOD9459736 Si02
#       8
#     8   8   8   8   8   8   4   8
#     4  10  23  44  66 102 132 180 228 285 344 414
#     4  11  25  44  70  98 135 184 225 289 348 412
#     4  10  23  45  68  95 135 176 225 278 348 412
#     4  10  20  42  68 100 135 177 222 282 345 418
#     4  10  25  41  67 101 137 174 227 289 342 406
#     4  11  27  42  71  98 133 183 233 281 348 417
#     4  10  20  42  68 100 132 176 232 278 340 418
#     4  11  26  44  66  99 135 179 228 281 345 414
#
# _framework density 21.46442
#
# number of rings (size 3 to 8) (size 9 to 14) (size 15 to 20)
#    0.000    1.600    1.333    1.200    9.333    4.267 
#    7.200    0.000    0.000    0.000    0.000    0.000 
#    0.000    0.000    0.000    0.000    0.000    0.000 
#
# Total GULP energy -334472.842108 kJ/mol
# GULP energy per Si atom -5574.547368 kJ/mol
# Density = 2.141557 g / cm^3
# Si number density = 21.464420 Si / 1000 Ang^3
#
#
#
# Elastic Constant Matrix: (Units=GPa)
#
#
# Indices 1 2 3 4 5 6 
#
# 1 48.1137 9.8656 -12.4614 0.0000 0.0000 0.0000
# 2 9.8656 50.5586 -2.4171 0.0000 0.0000 0.0000
# 3 -12.4614 -2.4171 54.9578 0.0000 0.0000 0.0000
# 4 0.0000 0.0000 0.0000 19.1466 0.0000 0.0000
# 5 0.0000 0.0000 0.0000 0.0000 -8.9014 0.0000
# 6 0.0000 0.0000 0.0000 0.0000 0.0000 12.8509
#
#
#
# Elastic Compliance Matrix: (Units=1/GPa)
#
#
# Indices 1 2 3 4 5 6 
#
# 1 0.022953 -0.004239 0.005018 0.000000 0.000000 0.000000
# 2 -0.004239 0.020604 -0.000055 0.000000 0.000000 0.000000
# 3 0.005018 -0.000055 0.019331 0.000000 0.000000 0.000000
# 4 0.000000 0.000000 0.000000 0.052229 0.000000 0.000000
# 5 0.000000 0.000000 0.000000 0.000000 -0.112342 0.000000
# 6 0.000000 0.000000 0.000000 0.000000 0.000000 0.077815
#
#
# Mechanical properties :
#
#
# Convention : Reuss Voigt Hill
#
# Bulk Modulus (GPa) = 15.54345 15.95604 15.74974
# Shear Modulus (GPa) = 49.70843 15.19544 32.45193
#
# Velocity S-wave (km/s) = 4.81755 2.66359 3.89253
# Velocity P-wave (km/s) = 6.18080 4.11212 5.24937
#
# Compressibility (1/GPa) = 0.06433580
#
# Stress axis : x y z
#
# Youngs Moduli (GPa) = 43.56739 48.53530 51.72992
#
# Poissons Ratio (x) = 0.20574 -0.25958
# Poissons Ratio (y) = 0.18468 0.00284
# Poissons Ratio (z) = -0.21862 0.00267
#
# Static dielectric constant tensor:
#      x y z
#    x 1.768740 0.000000 0.000000 
#    y 0.000000 1.798810 0.000000 
#    z 0.000000 0.000000 1.779120 
# 
# From -- ./inp_files/5414.got.cif
#   From: 2010.05.17/outbox.cif.g08.bks.cpg/sg61_3_cif.got.tgz:5414.got - 2010.06.03 15:17:17.
