data_PCOD9459601
_publ_section_title
;
Structure prediction by ZEFSAII (Michael W. Deem and Ramdas Pophale) SiO2 
 PCOD9459601
Probable space group: P B C A
;
_chemical_formula_sum "Si O2"
_cell_formula_units_Z 48
_cell_length_a 8.097291
_cell_length_b 13.953185
_cell_length_c 17.304308
_cell_angle_alpha 90.000000
_cell_angle_beta 90.000000
_cell_angle_gamma 90.000000
_cell_volume 1955.092619
_symmetry_space_group_name_H-M "P B C A"
_symmetry_group_IT_number 61
_symmetry_cell_setting 'orthorhombic'
loop_
_space_group_symop_operation_xyz
x,y,z
1/2-x,-y,1/2+z
1/2+x,1/2-y,-z
-x,1/2+y,1/2-z
-x,-y,-z
1/2+x,y,1/2-z
1/2-x,1/2+y,z
x,1/2-y,1/2+z
loop_
_atom_site_type_symbol
_atom_site_label
_atom_site_fract_x
_atom_site_fract_y
_atom_site_fract_z
Si Si1 0.973513 0.589575 0.826577
Si Si2 0.980339 0.859791 0.149282
Si Si3 0.153358 0.746805 0.401495
Si Si4 0.350465 0.195214 0.076193
Si Si5 0.309784 0.993875 0.575808
Si Si6 0.321583 0.936519 0.910832
O O1 0.971595 0.603520 0.735836
O O2 0.003396 0.692157 0.867427
O O3 0.122175 0.519786 0.853569
O O4 0.811294 0.538222 0.859138
O O5 0.118705 0.776208 0.139845
O O6 0.023802 0.947305 0.091775
O O7 0.813806 0.806379 0.125513
O O8 0.153131 0.751430 0.494239
O O9 0.186584 0.637478 0.378243
O O10 0.512838 0.127070 0.075152
O O11 0.199392 0.120875 0.083116
O O12 0.232409 0.021728 0.493300
#
# Coordination Sequence:
#
# PCOD9459601 Si02
#       6
#     8   8   8   8   8   8
#     4  11  22  42  61  88 129 171 203 258 324 379
#     4  11  25  37  60  98 129 155 212 277 310 358
#     4  11  21  39  65  92 122 161 220 257 306 376
#     4  10  20  39  63  88 122 164 212 250 312 382
#     4  11  20  40  67  86 121 173 209 246 321 386
#     4  10  20  38  68  90 117 177 210 245 316 390
#
# _framework density 24.551266999999999
#
# number of rings (size 3 to 8) (size 9 to 14) (size 15 to 20)
#    0.000    1.333    5.000    2.000    0.000    2.000 
#    0.000    3.333    0.000    0.000    0.000    0.000 
#    0.000    0.000    0.000    0.000    0.000    0.000 
#
# Total GULP energy -269025.951309 kJ/mol
# GULP energy per Si atom -5604.707319 kJ/mol
# Density = 2.449539 g / cm^3
# Si number density = 24.551267 Si / 1000 Ang^3
#
#
#
# Elastic Constant Matrix: (Units=GPa)
#
#
# Indices 1 2 3 4 5 6 
#
# 1 60.4955 22.5300 20.2468 0.0000 0.0000 0.0000
# 2 22.5300 128.2527 12.1960 0.0000 0.0000 0.0000
# 3 20.2468 12.1960 108.9049 0.0000 0.0000 0.0000
# 4 0.0000 0.0000 0.0000 31.7078 0.0000 0.0000
# 5 0.0000 0.0000 0.0000 0.0000 23.1336 0.0000
# 6 0.0000 0.0000 0.0000 0.0000 0.0000 45.0778
#
#
#
# Elastic Compliance Matrix: (Units=1/GPa)
#
#
# Indices 1 2 3 4 5 6 
#
# 1 0.018693 -0.002985 -0.003141 0.000000 0.000000 0.000000
# 2 -0.002985 0.008358 -0.000381 0.000000 0.000000 0.000000
# 3 -0.003141 -0.000381 0.009809 0.000000 0.000000 0.000000
# 4 0.000000 0.000000 0.000000 0.031538 0.000000 0.000000
# 5 0.000000 0.000000 0.000000 0.000000 0.043227 0.000000
# 6 0.000000 0.000000 0.000000 0.000000 0.000000 0.022184
#
#
# Mechanical properties :
#
#
# Convention : Reuss Voigt Hill
#
# Bulk Modulus (GPa) = 41.93647 45.28875 43.61261
# Shear Modulus (GPa) = 32.30566 36.16250 34.23408
#
# Velocity S-wave (km/s) = 3.63139 3.84205 3.73821
# Velocity P-wave (km/s) = 5.89075 6.17806 6.03612
#
# Compressibility (1/GPa) = 0.02384559
#
# Stress axis : x y z
#
# Youngs Moduli (GPa) = 53.49554 119.64968 101.94775
#
# Poissons Ratio (x) = 0.35717 0.32022
# Poissons Ratio (y) = 0.15969 0.03884
# Poissons Ratio (z) = 0.16803 0.04559
#
# Static dielectric constant tensor:
#      x y z
#    x 2.077990 0.000000 0.000000 
#    y 0.000000 1.957940 0.000000 
#    z 0.000000 0.000000 1.830300 
# 
# From -- ./inp_files/8899.got.cif
#   From: 2010.05.17/outbox.cif.g08.bks.cpg/sg61_5_cif.got.tgz:8899.got - 2010.06.03 15:17:17.
