data_PCOD9459595
_publ_section_title
;
Structure prediction by ZEFSAII (Michael W. Deem and Ramdas Pophale) SiO2 
 PCOD9459595
Probable space group: P B C A
;
_chemical_formula_sum "Si O2"
_cell_formula_units_Z 64
_cell_length_a 17.649200
_cell_length_b 14.909286
_cell_length_c 11.669251
_cell_angle_alpha 90.000000
_cell_angle_beta 90.000000
_cell_angle_gamma 90.000000
_cell_volume 3070.611356
_symmetry_space_group_name_H-M "P B C A"
_symmetry_group_IT_number 61
_symmetry_cell_setting 'orthorhombic'
loop_
_space_group_symop_operation_xyz
x,y,z
1/2-x,-y,1/2+z
1/2+x,1/2-y,-z
-x,1/2+y,1/2-z
-x,-y,-z
1/2+x,y,1/2-z
1/2-x,1/2+y,z
x,1/2-y,1/2+z
loop_
_atom_site_type_symbol
_atom_site_label
_atom_site_fract_x
_atom_site_fract_y
_atom_site_fract_z
Si Si1 0.234623 0.997839 0.076083
Si Si2 0.023948 0.037011 0.687565
Si Si3 0.382973 0.103488 0.679202
Si Si4 0.064236 0.379737 0.947546
Si Si5 0.703085 0.641302 0.588974
Si Si6 0.266633 0.836360 0.940759
Si Si7 0.417220 0.214717 0.081530
Si Si8 0.653022 0.915368 0.741360
O O1 0.148694 0.985739 0.117850
O O2 0.284579 0.046003 0.171437
O O3 0.260575 0.894916 0.056516
O O4 0.253418 0.055486 0.962672
O O5 0.062066 0.089101 0.580637
O O6 0.964359 0.092388 0.761483
O O7 0.088411 0.991010 0.765575
O O8 0.973780 0.959493 0.625805
O O9 0.323512 0.126660 0.781275
O O10 0.390915 0.183720 0.588716
O O11 0.147611 0.357465 0.903146
O O12 0.006098 0.297702 0.934854
O O13 0.751829 0.730391 0.562811
O O14 0.625867 0.658389 0.516654
O O15 0.200117 0.879456 0.864639
O O16 0.389163 0.168470 0.198804
#
# Coordination Sequence:
#
# PCOD9459595 Si02
#       8
#     8   8   8   8   8   8   8   8
#     4  11  23  39  64  97 127 171 232 277 335 404
#     4  10  20  38  66  92 122 176 231 274 335 406
#     4  12  22  42  67  95 136 183 221 290 345 408
#     4  10  20  39  65  92 123 173 232 278 328 412
#     4  11  23  42  67  96 134 181 224 281 348 417
#     4  12  22  41  66  97 137 176 217 288 345 398
#     4  10  21  40  64  94 129 173 232 271 339 416
#     4  10  21  39  64  94 127 171 229 275 329 413
#
# _framework density 20.842755
#
# number of rings (size 3 to 8) (size 9 to 14) (size 15 to 20)
#    0.000    1.250    5.000    2.250    0.000    0.000 
#    4.500    6.875    0.000    0.000    0.000    0.000 
#    0.000    0.000    0.000    0.000    0.000    0.000 
#
# Total GULP energy -357263.853495 kJ/mol
# GULP energy per Si atom -5582.247711 kJ/mol
# Density = 2.079532 g / cm^3
# Si number density = 20.842755 Si / 1000 Ang^3
#
#
#
# Elastic Constant Matrix: (Units=GPa)
#
#
# Indices 1 2 3 4 5 6 
#
# 1 98.4324 30.7074 33.7947 0.0000 0.0000 0.0000
# 2 30.7074 83.7494 13.8512 0.0000 0.0000 0.0000
# 3 33.7947 13.8512 55.6171 0.0000 0.0000 0.0000
# 4 0.0000 0.0000 0.0000 18.5813 0.0000 0.0000
# 5 0.0000 0.0000 0.0000 0.0000 26.1041 0.0000
# 6 0.0000 0.0000 0.0000 0.0000 0.0000 36.6643
#
#
#
# Elastic Compliance Matrix: (Units=1/GPa)
#
#
# Indices 1 2 3 4 5 6 
#
# 1 0.013945 -0.003871 -0.007509 0.000000 0.000000 0.000000
# 2 -0.003871 0.013528 -0.001017 0.000000 0.000000 0.000000
# 3 -0.007509 -0.001017 0.022796 0.000000 0.000000 0.000000
# 4 0.000000 0.000000 0.000000 0.053818 0.000000 0.000000
# 5 0.000000 0.000000 0.000000 0.000000 0.038308 0.000000
# 6 0.000000 0.000000 0.000000 0.000000 0.000000 0.027274
#
#
# Mechanical properties :
#
#
# Convention : Reuss Voigt Hill
#
# Bulk Modulus (GPa) = 39.25484 43.83394 41.54439
# Shear Modulus (GPa) = 24.63591 26.89965 25.76778
#
# Velocity S-wave (km/s) = 3.44174 3.59639 3.51991
# Velocity P-wave (km/s) = 5.88802 6.19046 6.04113
#
# Compressibility (1/GPa) = 0.02547456
#
# Stress axis : x y z
#
# Youngs Moduli (GPa) = 71.70982 73.92109 43.86682
#
# Poissons Ratio (x) = 0.28616 0.32941
# Poissons Ratio (y) = 0.27760 0.04461
# Poissons Ratio (z) = 0.53850 0.07517
#
# Static dielectric constant tensor:
#      x y z
#    x 1.773170 0.000000 0.000000 
#    y 0.000000 1.762510 0.000000 
#    z 0.000000 0.000000 1.786790 
# 
# From -- ./inp_files/6281.got.cif
#   From: 2010.05.17/outbox.cif.g08.bks.cpg/sg61_4_cif.got.tgz:6281.got - 2010.06.03 15:17:17.
