data_PCOD9459742
_publ_section_title
;
Structure prediction by ZEFSAII (Michael W. Deem and Ramdas Pophale) SiO2 
 PCOD9459742
Probable space group: P B C A
;
_chemical_formula_sum "Si O2"
_cell_formula_units_Z 60
_cell_length_a 16.015759
_cell_length_b 8.431468
_cell_length_c 16.319665
_cell_angle_alpha 90.000000
_cell_angle_beta 90.000000
_cell_angle_gamma 90.000000
_cell_volume 2203.748150
_symmetry_space_group_name_H-M "P B C A"
_symmetry_group_IT_number 61
_symmetry_cell_setting 'orthorhombic'
loop_
_space_group_symop_operation_xyz
x,y,z
1/2-x,-y,1/2+z
1/2+x,1/2-y,-z
-x,1/2+y,1/2-z
-x,-y,-z
1/2+x,y,1/2-z
1/2-x,1/2+y,z
x,1/2-y,1/2+z
loop_
_atom_site_type_symbol
_atom_site_label
_atom_site_fract_x
_atom_site_fract_y
_atom_site_fract_z
Si Si1 0.449340 0.636003 0.200554
Si Si2 0.000000 0.000000 0.500000
Si Si3 0.292025 0.981447 0.667444
Si Si4 0.602417 0.844523 0.445662
Si Si5 0.818219 0.028366 0.491650
Si Si6 0.424535 0.380035 0.329060
Si Si7 0.744171 0.084849 0.658769
Si Si8 0.933338 0.907796 0.087979
O O1 0.356416 0.666513 0.165227
O O2 0.423727 0.546182 0.282751
O O3 0.506501 0.782776 0.219428
O O4 0.511768 0.534267 0.141263
O O5 0.904664 0.942084 0.476799
O O6 0.959870 0.089345 0.581545
O O7 0.237126 0.991878 0.587872
O O8 0.359481 0.119758 0.643920
O O9 0.244096 0.001110 0.752303
O O10 0.660908 0.716278 0.486834
O O11 0.592823 0.996471 0.505323
O O12 0.506714 0.779390 0.434233
O O13 0.774091 0.988446 0.577522
O O14 0.330156 0.311227 0.330695
O O15 0.651337 0.141072 0.634157
#
# Coordination Sequence:
#
# PCOD9459742 Si02
#       8
#     8   4   8   8   8   8   8   8
#     4  10  23  45  73 103 146 196 246 310 371 454
#     4  10  24  40  68  98 144 190 238 296 380 424
#     4  10  23  45  69 102 146 188 249 300 379 445
#     4  10  22  43  73  97 138 192 242 307 373 440
#     4  11  23  46  67 103 144 187 245 314 362 456
#     4  10  23  46  71 107 150 192 251 307 377 448
#     4  10  22  44  68 104 141 191 244 308 367 446
#     4  10  20  42  70 101 138 190 245 298 383 443
#
# _framework density 27.226343
#
# number of rings (size 3 to 8) (size 9 to 14) (size 15 to 20)
#    0.000    1.867    1.333    1.600    1.867    4.267 
#    4.800    4.000    0.000    0.000    0.000    0.000 
#    0.000    0.000    0.000    0.000    0.000    0.000 
#
# Total GULP energy -334425.737462 kJ/mol
# GULP energy per Si atom -5573.762291 kJ/mol
# Density = 2.716438 g / cm^3
# Si number density = 27.226343 Si / 1000 Ang^3
#
#
#
# Elastic Constant Matrix: (Units=GPa)
#
#
# Indices 1 2 3 4 5 6 
#
# 1 211.9495 20.8319 90.4272 0.0000 0.0000 0.0000
# 2 20.8319 36.7631 32.2199 0.0000 0.0000 0.0000
# 3 90.4272 32.2199 193.6840 0.0000 0.0000 0.0000
# 4 0.0000 0.0000 0.0000 32.0965 0.0000 0.0000
# 5 0.0000 0.0000 0.0000 0.0000 47.8791 0.0000
# 6 0.0000 0.0000 0.0000 0.0000 0.0000 38.5522
#
#
#
# Elastic Compliance Matrix: (Units=1/GPa)
#
#
# Indices 1 2 3 4 5 6 
#
# 1 0.005929 -0.001093 -0.002586 0.000000 0.000000 0.000000
# 2 -0.001093 0.032045 -0.004821 0.000000 0.000000 0.000000
# 3 -0.002586 -0.004821 0.007172 0.000000 0.000000 0.000000
# 4 0.000000 0.000000 0.000000 0.031156 0.000000 0.000000
# 5 0.000000 0.000000 0.000000 0.000000 0.020886 0.000000
# 6 0.000000 0.000000 0.000000 0.000000 0.000000 0.025939
#
#
# Mechanical properties :
#
#
# Convention : Reuss Voigt Hill
#
# Bulk Modulus (GPa) = 35.52759 81.03941 58.28350
# Shear Modulus (GPa) = 33.44266 43.63340 38.53803
#
# Velocity S-wave (km/s) = 3.50854 4.00761 3.76635
# Velocity P-wave (km/s) = 5.43051 7.15851 6.35353
#
# Compressibility (1/GPa) = 0.02814714
#
# Stress axis : x y z
#
# Youngs Moduli (GPa) = 168.66358 31.20573 139.42228
#
# Poissons Ratio (x) = 0.03411 0.36059
# Poissons Ratio (y) = 0.18435 0.67209
# Poissons Ratio (z) = 0.43621 0.15043
#
# Static dielectric constant tensor:
#      x y z
#    x 2.229750 0.000000 0.000000 
#    y 0.000000 2.224030 0.000000 
#    z 0.000000 0.000000 2.102400 
# 
# From -- ./inp_files/9498.got.cif
#   From: 2010.05.17/outbox.cif.g08.bks.cpg/sg61_5_cif.got.tgz:9498.got - 2010.06.03 15:17:17.
