data_PCOD9459494
_publ_section_title
;
Structure prediction by ZEFSAII (Michael W. Deem and Ramdas Pophale) SiO2 
 PCOD9459494
Probable space group: P B C A
;
_chemical_formula_sum "Si O2"
_cell_formula_units_Z 40
_cell_length_a 18.281327
_cell_length_b 18.309516
_cell_length_c 5.019442
_cell_angle_alpha 90.000000
_cell_angle_beta 90.000000
_cell_angle_gamma 90.000000
_cell_volume 1680.118916
_symmetry_space_group_name_H-M "P B C A"
_symmetry_group_IT_number 61
_symmetry_cell_setting 'orthorhombic'
loop_
_space_group_symop_operation_xyz
x,y,z
1/2-x,-y,1/2+z
1/2+x,1/2-y,-z
-x,1/2+y,1/2-z
-x,-y,-z
1/2+x,y,1/2-z
1/2-x,1/2+y,z
x,1/2-y,1/2+z
loop_
_atom_site_type_symbol
_atom_site_label
_atom_site_fract_x
_atom_site_fract_y
_atom_site_fract_z
Si Si1 0.776881 0.707421 0.069046
Si Si2 0.564596 0.154403 0.137593
Si Si3 0.526607 0.863969 0.338824
Si Si4 0.165794 0.912027 0.916154
Si Si5 0.610206 0.510429 0.616300
O O1 0.754073 0.769911 0.274506
O O2 0.863895 0.702405 0.102830
O O3 0.739432 0.631029 0.138966
O O4 0.532179 0.148020 0.432061
O O5 0.593600 0.073150 0.069957
O O6 0.501546 0.175788 0.926074
O O7 0.606462 0.852877 0.468624
O O8 0.539384 0.948195 0.242437
O O9 0.132883 0.948794 0.653340
O O10 0.169862 0.971682 0.153213
#
# Coordination Sequence:
#
# PCOD9459494 Si02
#       5
#     8   8   8   8   8
#     4  12  28  48  61  83 128 177 217 259 306 356
#     4  12  22  38  68  97 132 157 200 262 323 375
#     4  10  20  38  65 101 123 161 192 252 325 380
#     4  10  22  40  65  91 126 163 209 248 308 383
#     4  10  20  36  69 100 127 153 198 259 325 380
#
# _framework density 23.807838
#
# number of rings (size 3 to 8) (size 9 to 14) (size 15 to 20)
#    1.200    0.000    2.000    4.800    0.000    1.600 
#    0.000    6.000    0.000    0.000    0.000    0.000 
#    0.000    0.000    0.000    0.000    0.000    0.000 
#
# Total GULP energy -223475.992527 kJ/mol
# GULP energy per Si atom -5586.899813 kJ/mol
# Density = 2.375365 g / cm^3
# Si number density = 23.807838 Si / 1000 Ang^3
#
#
#
# Elastic Constant Matrix: (Units=GPa)
#
#
# Indices 1 2 3 4 5 6 
#
# 1 53.4984 12.8197 19.6931 0.0000 0.0000 0.0000
# 2 12.8197 49.7091 17.0758 0.0000 0.0000 0.0000
# 3 19.6931 17.0758 140.4936 0.0000 0.0000 0.0000
# 4 0.0000 0.0000 0.0000 11.7628 0.0000 0.0000
# 5 0.0000 0.0000 0.0000 0.0000 14.3566 0.0000
# 6 0.0000 0.0000 0.0000 0.0000 0.0000 34.8275
#
#
#
# Elastic Compliance Matrix: (Units=1/GPa)
#
#
# Indices 1 2 3 4 5 6 
#
# 1 0.020637 -0.004517 -0.002344 0.000000 0.000000 0.000000
# 2 -0.004517 0.021982 -0.002039 0.000000 0.000000 0.000000
# 3 -0.002344 -0.002039 0.007694 0.000000 0.000000 0.000000
# 4 0.000000 0.000000 0.000000 0.085014 0.000000 0.000000
# 5 0.000000 0.000000 0.000000 0.000000 0.069655 0.000000
# 6 0.000000 0.000000 0.000000 0.000000 0.000000 0.028713
#
#
# Mechanical properties :
#
#
# Convention : Reuss Voigt Hill
#
# Bulk Modulus (GPa) = 30.75530 38.09761 34.42645
# Shear Modulus (GPa) = 19.05982 25.13022 22.09502
#
# Velocity S-wave (km/s) = 2.83250 3.25244 3.04971
# Velocity P-wave (km/s) = 4.86247 5.49011 5.18580
#
# Compressibility (1/GPa) = 0.03251472
#
# Stress axis : x y z
#
# Youngs Moduli (GPa) = 48.45594 45.49122 129.97043
#
# Poissons Ratio (x) = 0.20549 0.30462
# Poissons Ratio (y) = 0.21888 0.26496
# Poissons Ratio (z) = 0.11357 0.09274
#
# Static dielectric constant tensor:
#      x y z
#    x 1.953300 0.000000 0.000000 
#    y 0.000000 1.910280 0.000000 
#    z 0.000000 0.000000 1.893460 
# 
# From -- ./inp_files/699.got.cif
#   From: 2010.05.17/outbox.cif.g08.bks.cpg/sg61_1_cif.got.tgz:699.got - 2010.06.03 15:17:17.
