data_PCOD9459474
_publ_section_title
;
Structure prediction by ZEFSAII (Michael W. Deem and Ramdas Pophale) SiO2 
 PCOD9459474
Probable space group: P B C A
;
_chemical_formula_sum "Si O2"
_cell_formula_units_Z 48
_cell_length_a 11.087707
_cell_length_b 7.967654
_cell_length_c 21.939389
_cell_angle_alpha 90.000000
_cell_angle_beta 90.000000
_cell_angle_gamma 90.000000
_cell_volume 1938.191728
_symmetry_space_group_name_H-M "P B C A"
_symmetry_group_IT_number 61
_symmetry_cell_setting 'orthorhombic'
loop_
_space_group_symop_operation_xyz
x,y,z
1/2-x,-y,1/2+z
1/2+x,1/2-y,-z
-x,1/2+y,1/2-z
-x,-y,-z
1/2+x,y,1/2-z
1/2-x,1/2+y,z
x,1/2-y,1/2+z
loop_
_atom_site_type_symbol
_atom_site_label
_atom_site_fract_x
_atom_site_fract_y
_atom_site_fract_z
Si Si1 0.183927 0.082356 0.769909
Si Si2 0.614339 0.200256 0.399558
Si Si3 0.332265 0.849652 0.858880
Si Si4 0.843867 0.084176 0.439625
Si Si5 0.823044 0.193236 0.313974
Si Si6 0.622818 0.679485 0.574075
O O1 0.236936 0.950320 0.817307
O O2 0.112309 0.220376 0.809199
O O3 0.300707 0.164601 0.735666
O O4 0.122029 0.970423 0.718089
O O5 0.633142 0.393670 0.420198
O O6 0.624734 0.706226 0.382131
O O7 0.472515 0.183639 0.402007
O O8 0.680888 0.166137 0.335289
O O9 0.398603 0.999704 0.893249
O O10 0.255643 0.742972 0.907890
O O11 0.697555 0.094479 0.444913
O O12 0.894936 0.147632 0.502714
#
# Coordination Sequence:
#
# PCOD9459474 Si02
#       6
#     8   8   8   8   8   8
#     4   9  16  35  61  80 116 161 197 246 303 344
#     4  10  21  37  61  92 116 162 200 251 310 357
#     4   9  21  35  59  85 121 166 189 254 299 352
#     4  10  20  36  61  86 120 160 196 258 304 354
#     4   9  16  33  61  80 113 155 200 243 300 342
#     4  11  21  40  59  89 128 154 207 242 310 375
#
# _framework density 24.765353000000001
#
# number of rings (size 3 to 8) (size 9 to 14) (size 15 to 20)
#    1.000    1.333    1.667    1.500    0.000    0.000 
#    0.000   11.667    0.000    0.000    0.000    0.000 
#    0.000    0.000    0.000    0.000    0.000    0.000 
#
# Total GULP energy -267343.911621 kJ/mol
# GULP energy per Si atom -5569.664825 kJ/mol
# Density = 2.470899 g / cm^3
# Si number density = 24.765353 Si / 1000 Ang^3
#
#
#
# Elastic Constant Matrix: (Units=GPa)
#
#
# Indices 1 2 3 4 5 6 
#
# 1 55.1051 13.0205 15.6241 0.0000 0.0000 0.0000
# 2 13.0205 51.4677 39.0211 0.0000 0.0000 0.0000
# 3 15.6241 39.0211 151.9813 0.0000 0.0000 0.0000
# 4 0.0000 0.0000 0.0000 30.7626 0.0000 0.0000
# 5 0.0000 0.0000 0.0000 0.0000 17.8840 0.0000
# 6 0.0000 0.0000 0.0000 0.0000 0.0000 34.1259
#
#
#
# Elastic Compliance Matrix: (Units=1/GPa)
#
#
# Indices 1 2 3 4 5 6 
#
# 1 0.019402 -0.004217 -0.000912 0.000000 0.000000 0.000000
# 2 -0.004217 0.025043 -0.005996 0.000000 0.000000 0.000000
# 3 -0.000912 -0.005996 0.008213 0.000000 0.000000 0.000000
# 4 0.000000 0.000000 0.000000 0.032507 0.000000 0.000000
# 5 0.000000 0.000000 0.000000 0.000000 0.055916 0.000000
# 6 0.000000 0.000000 0.000000 0.000000 0.000000 0.029303
#
#
# Mechanical properties :
#
#
# Convention : Reuss Voigt Hill
#
# Bulk Modulus (GPa) = 32.88657 43.76505 38.32581
# Shear Modulus (GPa) = 24.65852 29.28041 26.96947
#
# Velocity S-wave (km/s) = 3.15887 3.44221 3.30358
# Velocity P-wave (km/s) = 5.15875 5.78867 5.48276
#
# Compressibility (1/GPa) = 0.03040755
#
# Stress axis : x y z
#
# Youngs Moduli (GPa) = 51.54081 39.93206 121.75819
#
# Poissons Ratio (x) = 0.16840 0.11103
# Poissons Ratio (y) = 0.21735 0.73008
# Poissons Ratio (z) = 0.04700 0.23944
#
# Static dielectric constant tensor:
#      x y z
#    x 2.103000 0.000000 0.000000 
#    y 0.000000 1.992320 0.000000 
#    z 0.000000 0.000000 1.979950 
# 
# From -- ./inp_files/10979.got.cif
#   From: 2010.05.17/outbox.cif.g08.bks.cpg/sg61_6_cif.got.tgz:10979.got - 2010.06.03 15:17:17.
