data_PCOD9459373
_publ_section_title
;
Structure prediction by ZEFSAII (Michael W. Deem and Ramdas Pophale) SiO2 
 PCOD9459373
Probable space group: P B C A
;
_chemical_formula_sum "Si O2"
_cell_formula_units_Z 48
_cell_length_a 16.795319
_cell_length_b 17.644555
_cell_length_c 8.044464
_cell_angle_alpha 90.000000
_cell_angle_beta 90.000000
_cell_angle_gamma 90.000000
_cell_volume 2383.944164
_symmetry_space_group_name_H-M "P B C A"
_symmetry_group_IT_number 61
_symmetry_cell_setting 'orthorhombic'
loop_
_space_group_symop_operation_xyz
x,y,z
1/2-x,-y,1/2+z
1/2+x,1/2-y,-z
-x,1/2+y,1/2-z
-x,-y,-z
1/2+x,y,1/2-z
1/2-x,1/2+y,z
x,1/2-y,1/2+z
loop_
_atom_site_type_symbol
_atom_site_label
_atom_site_fract_x
_atom_site_fract_y
_atom_site_fract_z
Si Si1 0.004445 0.469832 0.762189
Si Si2 0.117170 0.437593 0.057272
Si Si3 0.695408 0.295906 0.862031
Si Si4 0.946498 0.385491 0.440388
Si Si5 0.408366 0.810688 0.332809
Si Si6 0.233388 0.854692 0.960643
O O1 0.043576 0.548963 0.699009
O O2 0.919845 0.489429 0.849988
O O3 0.988390 0.419801 0.602735
O O4 0.063859 0.432629 0.892673
O O5 0.099200 0.369853 0.183903
O O6 0.208998 0.424706 0.011118
O O7 0.624908 0.266975 0.740240
O O8 0.753545 0.339903 0.736714
O O9 0.651414 0.334702 0.017738
O O10 0.737787 0.221483 0.941151
O O11 0.856135 0.369069 0.483900
O O12 0.000495 0.313759 0.389435
#
# Coordination Sequence:
#
# PCOD9459373 Si02
#       6
#     8   8   8   8   8   8
#     4   9  19  36  53  75 108 141 178 214 258 325
#     4   9  18  35  55  75 103 140 175 213 262 311
#     4   9  19  36  53  74 106 138 175 218 263 319
#     4  10  20  33  53  80 106 138 178 219 264 316
#     4   9  18  34  55  74 102 143 176 211 265 322
#     4  10  20  34  53  79 105 134 174 221 266 305
#
# _framework density 20.134699000000001
#
# number of rings (size 3 to 8) (size 9 to 14) (size 15 to 20)
#    0.000    2.667    0.000    1.000    0.000    2.667 
#    0.000   15.000    0.000    0.000    0.000    0.000 
#    0.000    0.000    0.000    0.000    0.000    0.000 
#
# Total GULP energy -267502.565031 kJ/mol
# GULP energy per Si atom -5572.970105 kJ/mol
# Density = 2.008887 g / cm^3
# Si number density = 20.134699 Si / 1000 Ang^3
#
#
#
# Elastic Constant Matrix: (Units=GPa)
#
#
# Indices 1 2 3 4 5 6 
#
# 1 112.7710 28.4035 43.2287 0.0000 0.0000 0.0000
# 2 28.4035 28.3067 22.0801 0.0000 0.0000 0.0000
# 3 43.2287 22.0801 120.1002 0.0000 0.0000 0.0000
# 4 0.0000 0.0000 0.0000 19.8787 0.0000 0.0000
# 5 0.0000 0.0000 0.0000 0.0000 -4.4266 0.0000
# 6 0.0000 0.0000 0.0000 0.0000 0.0000 23.0702
#
#
#
# Elastic Compliance Matrix: (Units=1/GPa)
#
#
# Indices 1 2 3 4 5 6 
#
# 1 0.012507 -0.010552 -0.002562 0.000000 0.000000 0.000000
# 2 -0.010552 0.050143 -0.005421 0.000000 0.000000 0.000000
# 3 -0.002562 -0.005421 0.010245 0.000000 0.000000 0.000000
# 4 0.000000 0.000000 0.000000 0.050305 0.000000 0.000000
# 5 0.000000 0.000000 0.000000 0.000000 -0.225905 0.000000
# 6 0.000000 0.000000 0.000000 0.000000 0.000000 0.043346
#
#
# Mechanical properties :
#
#
# Convention : Reuss Voigt Hill
#
# Bulk Modulus (GPa) = 27.91186 49.84472 38.87829
# Shear Modulus (GPa) = -483.23717 18.86883 -232.18417
#
# Velocity S-wave (km/s) = -15.50881 3.06458 -10.75015
# Velocity P-wave (km/s) = 17.51585 6.10996 11.60761
#
# Compressibility (1/GPa) = 0.03582707
#
# Stress axis : x y z
#
# Youngs Moduli (GPa) = 79.95387 19.94279 97.60740
#
# Poissons Ratio (x) = 0.21043 0.25006
# Poissons Ratio (y) = 0.84364 0.52911
# Poissons Ratio (z) = 0.20484 0.10811
#
# Static dielectric constant tensor:
#      x y z
#    x 1.711930 0.000000 0.000000 
#    y 0.000000 1.741510 0.000000 
#    z 0.000000 0.000000 1.738780 
# 
# From -- ./inp_files/2916.got.cif
#   From: 2010.05.17/outbox.cif.g08.bks.cpg/sg61_2_cif.got.tgz:2916.got - 2010.06.03 15:17:17.
