data_PCOD9459674
_publ_section_title
;
Structure prediction by ZEFSAII (Michael W. Deem and Ramdas Pophale) SiO2 
 PCOD9459674
Probable space group: P B C A
;
_chemical_formula_sum "Si O2"
_cell_formula_units_Z 56
_cell_length_a 12.961655
_cell_length_b 21.745829
_cell_length_c 10.313723
_cell_angle_alpha 90.000000
_cell_angle_beta 90.000000
_cell_angle_gamma 90.000000
_cell_volume 2907.045903
_symmetry_space_group_name_H-M "P B C A"
_symmetry_group_IT_number 61
_symmetry_cell_setting 'orthorhombic'
loop_
_space_group_symop_operation_xyz
x,y,z
1/2-x,-y,1/2+z
1/2+x,1/2-y,-z
-x,1/2+y,1/2-z
-x,-y,-z
1/2+x,y,1/2-z
1/2-x,1/2+y,z
x,1/2-y,1/2+z
loop_
_atom_site_type_symbol
_atom_site_label
_atom_site_fract_x
_atom_site_fract_y
_atom_site_fract_z
Si Si1 0.620291 0.726606 0.956309
Si Si2 0.869789 0.573959 0.986872
Si Si3 0.556585 0.309291 0.638687
Si Si4 0.593346 0.597945 0.214496
Si Si5 0.269917 0.203337 0.268983
Si Si6 0.134329 0.914902 0.080975
Si Si7 0.969742 0.013805 0.685275
O O1 0.511289 0.761398 0.942380
O O2 0.692253 0.765826 0.861891
O O3 0.617360 0.657966 0.897438
O O4 0.666221 0.723302 0.101690
O O5 0.756768 0.571398 0.924968
O O6 0.966630 0.564990 0.891562
O O7 0.887140 0.640412 0.049502
O O8 0.885674 0.520482 0.094983
O O9 0.484933 0.348269 0.738038
O O10 0.651449 0.279543 0.713179
O O11 0.704081 0.629929 0.240114
O O12 0.556623 0.538350 0.290468
O O13 0.590042 0.578747 0.064664
O O14 0.079818 0.957649 0.186466
#
# Coordination Sequence:
#
# PCOD9459674 Si02
#       7
#     8   8   8   8   8   8   8
#     4  10  23  36  61  90 121 159 209 252 306 380
#     4  10  22  41  62  88 124 166 199 254 317 360
#     4  10  20  40  65  80 128 165 194 256 317 364
#     4   9  20  39  59  90 117 162 203 246 311 372
#     4  10  21  40  60  88 123 163 206 253 313 375
#     4  11  22  40  61  93 124 153 212 264 298 368
#     4  10  23  38  64  90 121 163 207 253 308 370
#
# _framework density 19.263542999999999
#
# number of rings (size 3 to 8) (size 9 to 14) (size 15 to 20)
#    0.000    2.000    2.857    0.429    4.000    4.571 
#    0.000    0.000    0.000    0.000    0.000    0.000 
#    0.000    0.000    0.000    0.000    0.000    0.000 
#
# Total GULP energy -312161.158450 kJ/mol
# GULP energy per Si atom -5574.306401 kJ/mol
# Density = 1.921970 g / cm^3
# Si number density = 19.263543 Si / 1000 Ang^3
#
#
#
# Elastic Constant Matrix: (Units=GPa)
#
#
# Indices 1 2 3 4 5 6 
#
# 1 46.4256 1.8702 -13.9433 0.0000 0.0000 0.0000
# 2 1.8702 38.4279 2.5443 0.0000 0.0000 0.0000
# 3 -13.9433 2.5443 32.8313 0.0000 0.0000 0.0000
# 4 0.0000 0.0000 0.0000 32.4894 0.0000 0.0000
# 5 0.0000 0.0000 0.0000 0.0000 18.1142 0.0000
# 6 0.0000 0.0000 0.0000 0.0000 0.0000 17.4769
#
#
#
# Elastic Compliance Matrix: (Units=1/GPa)
#
#
# Indices 1 2 3 4 5 6 
#
# 1 0.024829 -0.001916 0.010693 0.000000 0.000000 0.000000
# 2 -0.001916 0.026305 -0.002852 0.000000 0.000000 0.000000
# 3 0.010693 -0.002852 0.035221 0.000000 0.000000 0.000000
# 4 0.000000 0.000000 0.000000 0.030779 0.000000 0.000000
# 5 0.000000 0.000000 0.000000 0.000000 0.055205 0.000000
# 6 0.000000 0.000000 0.000000 0.000000 0.000000 0.057218
#
#
# Mechanical properties :
#
#
# Convention : Reuss Voigt Hill
#
# Bulk Modulus (GPa) = 10.18295 10.95856 10.57076
# Shear Modulus (GPa) = 19.96463 22.09703 21.03083
#
# Velocity S-wave (km/s) = 3.22280 3.39055 3.30774
# Velocity P-wave (km/s) = 4.37564 4.58572 4.48191
#
# Compressibility (1/GPa) = 0.09820335
#
# Stress axis : x y z
#
# Youngs Moduli (GPa) = 40.27625 38.01576 28.39208
#
# Poissons Ratio (x) = 0.07285 -0.30360
# Poissons Ratio (y) = 0.07718 0.08098
# Poissons Ratio (z) = -0.43068 0.10843
#
# Static dielectric constant tensor:
#      x y z
#    x 1.692180 0.000000 0.000000 
#    y 0.000000 1.695460 0.000000 
#    z 0.000000 0.000000 1.672820 
# 
# From -- ./inp_files/5347.got.cif
#   From: 2010.05.17/outbox.cif.g08.bks.cpg/sg61_3_cif.got.tgz:5347.got - 2010.06.03 15:17:17.
