data_PCOD9459972
_publ_section_title
;
Structure prediction by ZEFSAII (Michael W. Deem and Ramdas Pophale) SiO2 
 PCOD9459972
Probable space group: P B C A
;
_chemical_formula_sum "Si O2"
_cell_formula_units_Z 56
_cell_length_a 8.955136
_cell_length_b 16.043354
_cell_length_c 18.434755
_cell_angle_alpha 90.000000
_cell_angle_beta 90.000000
_cell_angle_gamma 90.000000
_cell_volume 2648.528938
_symmetry_space_group_name_H-M "P B C A"
_symmetry_group_IT_number 61
_symmetry_cell_setting 'orthorhombic'
loop_
_space_group_symop_operation_xyz
x,y,z
1/2-x,-y,1/2+z
1/2+x,1/2-y,-z
-x,1/2+y,1/2-z
-x,-y,-z
1/2+x,y,1/2-z
1/2-x,1/2+y,z
x,1/2-y,1/2+z
loop_
_atom_site_type_symbol
_atom_site_label
_atom_site_fract_x
_atom_site_fract_y
_atom_site_fract_z
Si Si1 0.007866 0.964540 0.389694
Si Si2 0.297253 0.884433 0.861322
Si Si3 0.232954 0.732590 0.243960
Si Si4 0.212963 0.578091 0.022845
Si Si5 0.467769 0.354867 0.963650
Si Si6 0.505347 0.712719 0.658371
Si Si7 0.059289 0.735688 0.094216
O O1 0.137246 0.933698 0.444885
O O2 0.951163 0.880535 0.353609
O O3 0.092169 0.038594 0.347872
O O4 0.869069 0.007374 0.430140
O O5 0.222136 0.855444 0.786139
O O6 0.399454 0.808034 0.891327
O O7 0.173180 0.897727 0.923807
O O8 0.401174 0.745035 0.218606
O O9 0.139794 0.745436 0.171025
O O10 0.169031 0.793025 0.305979
O O11 0.389837 0.584637 0.031551
O O12 0.154194 0.666898 0.051134
O O13 0.497434 0.273295 0.911503
O O14 0.443844 0.316859 0.043662
#
# Coordination Sequence:
#
# PCOD9459972 Si02
#       7
#     8   8   8   8   8   8   8
#     4  10  23  43  64  93 143 170 207 275 348 390
#     4  10  24  42  62  95 137 173 214 275 337 394
#     4  11  23  41  66  95 126 176 228 270 326 400
#     4  10  21  39  67 100 128 169 210 270 344 391
#     4  11  22  38  73  97 124 168 231 272 316 397
#     4  11  23  43  65  96 127 172 226 275 323 396
#     4  11  20  38  68  97 124 165 221 276 322 386
#
# _framework density 21.143813000000002
#
# number of rings (size 3 to 8) (size 9 to 14) (size 15 to 20)
#    0.000    1.429    4.286    0.857    2.000    0.571 
#    5.143    1.429    0.000    0.000    0.000    0.000 
#    0.000    0.000    0.000    0.000    0.000    0.000 
#
# Total GULP energy -312442.371324 kJ/mol
# GULP energy per Si atom -5579.328059 kJ/mol
# Density = 2.109569 g / cm^3
# Si number density = 21.143813 Si / 1000 Ang^3
#
#
#
# Elastic Constant Matrix: (Units=GPa)
#
#
# Indices 1 2 3 4 5 6 
#
# 1 75.7374 -3.1388 23.6192 0.0000 0.0000 0.0000
# 2 -3.1388 45.0497 27.3647 0.0000 0.0000 0.0000
# 3 23.6192 27.3647 84.8064 0.0000 0.0000 0.0000
# 4 0.0000 0.0000 0.0000 11.8697 0.0000 0.0000
# 5 0.0000 0.0000 0.0000 0.0000 29.7919 0.0000
# 6 0.0000 0.0000 0.0000 0.0000 0.0000 13.9578
#
#
#
# Elastic Compliance Matrix: (Units=1/GPa)
#
#
# Indices 1 2 3 4 5 6 
#
# 1 0.015160 0.004504 -0.005675 0.000000 0.000000 0.000000
# 2 0.004504 0.028947 -0.010595 0.000000 0.000000 0.000000
# 3 -0.005675 -0.010595 0.016791 0.000000 0.000000 0.000000
# 4 0.000000 0.000000 0.000000 0.084248 0.000000 0.000000
# 5 0.000000 0.000000 0.000000 0.000000 0.033566 0.000000
# 6 0.000000 0.000000 0.000000 0.000000 0.000000 0.071644
#
#
# Mechanical properties :
#
#
# Convention : Reuss Voigt Hill
#
# Bulk Modulus (GPa) = 26.76294 33.47598 30.11946
# Shear Modulus (GPa) = 17.46148 21.64045 19.55096
#
# Velocity S-wave (km/s) = 2.87687 3.20267 3.04413
# Velocity P-wave (km/s) = 4.87034 5.43535 5.16058
#
# Compressibility (1/GPa) = 0.03736510
#
# Stress axis : x y z
#
# Youngs Moduli (GPa) = 65.96272 34.54574 59.55628
#
# Poissons Ratio (x) = -0.15558 0.33801
# Poissons Ratio (y) = -0.29708 0.63098
# Poissons Ratio (z) = 0.37437 0.36600
#
# Static dielectric constant tensor:
#      x y z
#    x 1.816300 0.000000 0.000000 
#    y 0.000000 1.788790 0.000000 
#    z 0.000000 0.000000 1.774470 
# 
# From -- ./inp_files/10136.got.cif
#   From: 2010.05.17/outbox.cif.g08.bks.cpg/sg61_6_cif.got.tgz:10136.got - 2010.06.03 15:17:17.
