data_PCOD9459875
_publ_section_title
;
Structure prediction by ZEFSAII (Michael W. Deem and Ramdas Pophale) SiO2 
 PCOD9459875
Probable space group: P B C A
;
_chemical_formula_sum "Si O2"
_cell_formula_units_Z 36
_cell_length_a 16.176077
_cell_length_b 14.787667
_cell_length_c 5.067832
_cell_angle_alpha 90.000000
_cell_angle_beta 90.000000
_cell_angle_gamma 90.000000
_cell_volume 1212.258051
_symmetry_space_group_name_H-M "P B C A"
_symmetry_group_IT_number 61
_symmetry_cell_setting 'orthorhombic'
loop_
_space_group_symop_operation_xyz
x,y,z
1/2-x,-y,1/2+z
1/2+x,1/2-y,-z
-x,1/2+y,1/2-z
-x,-y,-z
1/2+x,y,1/2-z
1/2-x,1/2+y,z
x,1/2-y,1/2+z
loop_
_atom_site_type_symbol
_atom_site_label
_atom_site_fract_x
_atom_site_fract_y
_atom_site_fract_z
Si Si1 0.193689 0.517395 0.773394
Si Si2 0.899826 0.862155 0.483925
Si Si3 0.955732 0.307852 0.774495
Si Si4 0.500000 0.500000 0.500000
Si Si5 0.714714 0.799759 0.441764
O O1 0.247300 0.479015 0.529772
O O2 0.113018 0.458446 0.847071
O O3 0.168911 0.615132 0.679134
O O4 0.943989 0.796215 0.689228
O O5 0.811149 0.831783 0.398310
O O6 0.965090 0.913469 0.300490
O O7 0.926363 0.256571 0.514806
O O8 0.949775 0.414872 0.826297
O O9 0.709622 0.787273 0.754692
#
# Coordination Sequence:
#
# PCOD9459875 Si02
#       5
#     8   8   8   4   8
#     4  10  21  38  60  88 126 164 205 266 336 378
#     4   9  20  40  62  91 127 171 213 271 322 394
#     4  10  21  39  62  92 124 166 218 261 316 389
#     4   8  22  42  62  98 132 170 220 274 336 386
#     4  11  21  36  61  90 121 161 219 266 310 390
#
# _framework density 29.696649000000001
#
# number of rings (size 3 to 8) (size 9 to 14) (size 15 to 20)
#    1.333    0.889    0.000    4.000    0.000    4.444 
#    0.000    2.222    0.000    0.000    0.000    0.000 
#    0.000    0.000    0.000    0.000    0.000    0.000 
#
# Total GULP energy -200472.012286 kJ/mol
# GULP energy per Si atom -5568.667008 kJ/mol
# Density = 2.962906 g / cm^3
# Si number density = 29.696649 Si / 1000 Ang^3
#
#
#
# Elastic Constant Matrix: (Units=GPa)
#
#
# Indices 1 2 3 4 5 6 
#
# 1 57.3658 9.1475 36.6634 0.0000 0.0000 0.0000
# 2 9.1475 141.0604 83.5656 0.0000 0.0000 0.0000
# 3 36.6634 83.5656 149.0310 0.0000 0.0000 0.0000
# 4 0.0000 0.0000 0.0000 38.7164 0.0000 0.0000
# 5 0.0000 0.0000 0.0000 0.0000 48.4074 0.0000
# 6 0.0000 0.0000 0.0000 0.0000 0.0000 50.7309
#
#
#
# Elastic Compliance Matrix: (Units=1/GPa)
#
#
# Indices 1 2 3 4 5 6 
#
# 1 0.021293 0.002579 -0.006685 0.000000 0.000000 0.000000
# 2 0.002579 0.010928 -0.006762 0.000000 0.000000 0.000000
# 3 -0.006685 -0.006762 0.012146 0.000000 0.000000 0.000000
# 4 0.000000 0.000000 0.000000 0.025829 0.000000 0.000000
# 5 0.000000 0.000000 0.000000 0.000000 0.020658 0.000000
# 6 0.000000 0.000000 0.000000 0.000000 0.000000 0.019712
#
#
# Mechanical properties :
#
#
# Convention : Reuss Voigt Hill
#
# Bulk Modulus (GPa) = 44.18504 67.35670 55.77087
# Shear Modulus (GPa) = 35.75406 42.10964 38.93185
#
# Velocity S-wave (km/s) = 3.47360 3.76971 3.62468
# Velocity P-wave (km/s) = 5.56767 6.45588 6.02816
#
# Compressibility (1/GPa) = 0.02263209
#
# Stress axis : x y z
#
# Youngs Moduli (GPa) = 46.96404 91.50980 82.33084
#
# Poissons Ratio (x) = -0.23602 0.55034
# Poissons Ratio (y) = -0.12113 0.55672
# Poissons Ratio (z) = 0.31393 0.61879
#
# Static dielectric constant tensor:
#      x y z
#    x 2.209720 0.000000 0.000000 
#    y 0.000000 2.192220 0.000000 
#    z 0.000000 0.000000 2.033300 
# 
# From -- ./inp_files/917.got.cif
#   From: 2010.05.17/outbox.cif.g08.bks.cpg/sg61_1_cif.got.tgz:917.got - 2010.06.03 15:17:17.
