data_PCOD9459123
_publ_section_title
;
Structure prediction by ZEFSAII (Michael W. Deem and Ramdas Pophale) SiO2 
 PCOD9459123
Probable space group: P B C A
;
_chemical_formula_sum "Si O2"
_cell_formula_units_Z 64
_cell_length_a 12.886573
_cell_length_b 16.325057
_cell_length_c 15.345539
_cell_angle_alpha 90.000000
_cell_angle_beta 90.000000
_cell_angle_gamma 90.000000
_cell_volume 3228.303016
_symmetry_space_group_name_H-M "P B C A"
_symmetry_group_IT_number 61
_symmetry_cell_setting 'orthorhombic'
loop_
_space_group_symop_operation_xyz
x,y,z
1/2-x,-y,1/2+z
1/2+x,1/2-y,-z
-x,1/2+y,1/2-z
-x,-y,-z
1/2+x,y,1/2-z
1/2-x,1/2+y,z
x,1/2-y,1/2+z
loop_
_atom_site_type_symbol
_atom_site_label
_atom_site_fract_x
_atom_site_fract_y
_atom_site_fract_z
Si Si1 0.073304 0.486328 0.363386
Si Si2 0.532634 0.466005 0.687429
Si Si3 0.982656 0.188085 0.903359
Si Si4 0.889640 0.896061 0.373126
Si Si5 0.132156 0.170291 0.431101
Si Si6 0.726223 0.581035 0.724305
Si Si7 0.563277 0.717793 0.710625
Si Si8 0.873762 0.345486 0.574330
O O1 0.002509 0.408390 0.386085
O O2 0.182747 0.445307 0.340035
O O3 0.090972 0.559895 0.430129
O O4 0.032361 0.532468 0.276768
O O5 0.459737 0.522049 0.625781
O O6 0.565344 0.385332 0.635607
O O7 0.638079 0.512116 0.716359
O O8 0.086715 0.238047 0.926999
O O9 0.941680 0.227126 0.814109
O O10 0.904241 0.196348 0.983409
O O11 0.875771 0.863129 0.470152
O O12 0.783315 0.909420 0.318316
O O13 0.961386 0.833388 0.317697
O O14 0.252234 0.161791 0.406924
O O15 0.666072 0.662899 0.696080
O O16 0.568871 0.797286 0.651533
#
# Coordination Sequence:
#
# PCOD9459123 Si02
#       8
#     8   8   8   8   8   8   8   8
#     4  11  22  43  65  93 130 169 209 264 323 386
#     4  10  21  40  69  95 129 168 209 265 326 381
#     4  12  24  44  65  92 133 174 208 268 331 374
#     4  10  21  40  68  92 131 166 213 260 325 384
#     4  12  24  41  66 101 127 165 222 271 313 387
#     4  10  18  40  70  91 120 178 204 249 339 374
#     4  11  22  43  66  89 130 171 210 266 319 384
#     4  12  26  41  65  97 126 167 222 265 312 394
#
# _framework density 19.824657999999999
#
# number of rings (size 3 to 8) (size 9 to 14) (size 15 to 20)
#    0.000    1.000    6.250    3.000    0.000    0.000 
#    0.000    0.000    0.000    0.000    0.000    0.000 
#    0.000    0.000    0.000    0.000    0.000    0.000 
#
# Total GULP energy -357166.999263 kJ/mol
# GULP energy per Si atom -5580.734363 kJ/mol
# Density = 1.977954 g / cm^3
# Si number density = 19.824658 Si / 1000 Ang^3
#
#
#
# Elastic Constant Matrix: (Units=GPa)
#
#
# Indices 1 2 3 4 5 6 
#
# 1 26.1337 0.4261 -6.7318 0.0000 0.0000 0.0000
# 2 0.4261 84.3593 29.9604 0.0000 0.0000 0.0000
# 3 -6.7318 29.9604 76.3558 0.0000 0.0000 0.0000
# 4 0.0000 0.0000 0.0000 18.1028 0.0000 0.0000
# 5 0.0000 0.0000 0.0000 0.0000 24.6109 0.0000
# 6 0.0000 0.0000 0.0000 0.0000 0.0000 24.4252
#
#
#
# Elastic Compliance Matrix: (Units=1/GPa)
#
#
# Indices 1 2 3 4 5 6 
#
# 1 0.039354 -0.001663 0.004122 0.000000 0.000000 0.000000
# 2 -0.001663 0.013844 -0.005579 0.000000 0.000000 0.000000
# 3 0.004122 -0.005579 0.015649 0.000000 0.000000 0.000000
# 4 0.000000 0.000000 0.000000 0.055240 0.000000 0.000000
# 5 0.000000 0.000000 0.000000 0.000000 0.040632 0.000000
# 6 0.000000 0.000000 0.000000 0.000000 0.000000 0.040941
#
#
# Mechanical properties :
#
#
# Convention : Reuss Voigt Hill
#
# Bulk Modulus (GPa) = 15.97252 26.01759 20.99505
# Shear Modulus (GPa) = 21.48062 24.30737 22.89400
#
# Velocity S-wave (km/s) = 3.29527 3.50540 3.40196
# Velocity P-wave (km/s) = 4.74898 5.43471 5.10338
#
# Compressibility (1/GPa) = 0.06260753
#
# Stress axis : x y z
#
# Youngs Moduli (GPa) = 25.41065 72.23508 63.90229
#
# Poissons Ratio (x) = 0.12010 -0.26340
# Poissons Ratio (y) = 0.04225 0.35648
# Poissons Ratio (z) = -0.10474 0.40297
#
# Static dielectric constant tensor:
#      x y z
#    x 1.680320 0.000000 0.000000 
#    y 0.000000 1.720260 0.000000 
#    z 0.000000 0.000000 1.693510 
# 
# From -- ./inp_files/7623.got.cif
#   From: 2010.05.17/outbox.cif.g08.bks.cpg/sg61_4_cif.got.tgz:7623.got - 2010.06.03 15:17:17.
