data_PCOD9459452
_publ_section_title
;
Structure prediction by ZEFSAII (Michael W. Deem and Ramdas Pophale) SiO2 
 PCOD9459452
Probable space group: P B C A
;
_chemical_formula_sum "Si O2"
_cell_formula_units_Z 64
_cell_length_a 22.793139
_cell_length_b 7.867805
_cell_length_c 15.830817
_cell_angle_alpha 90.000000
_cell_angle_beta 90.000000
_cell_angle_gamma 90.000000
_cell_volume 2838.971647
_symmetry_space_group_name_H-M "P B C A"
_symmetry_group_IT_number 61
_symmetry_cell_setting 'orthorhombic'
loop_
_space_group_symop_operation_xyz
x,y,z
1/2-x,-y,1/2+z
1/2+x,1/2-y,-z
-x,1/2+y,1/2-z
-x,-y,-z
1/2+x,y,1/2-z
1/2-x,1/2+y,z
x,1/2-y,1/2+z
loop_
_atom_site_type_symbol
_atom_site_label
_atom_site_fract_x
_atom_site_fract_y
_atom_site_fract_z
Si Si1 0.227750 0.534201 0.382908
Si Si2 0.353967 0.930363 0.122252
Si Si3 0.328657 0.333240 0.472041
Si Si4 0.540568 0.014921 0.757077
Si Si5 0.570622 0.206797 0.498158
Si Si6 0.573716 0.373220 0.677706
Si Si7 0.193646 0.260427 0.775902
Si Si8 0.055842 0.662803 0.420406
O O1 0.287932 0.456050 0.416777
O O2 0.201181 0.650048 0.456168
O O3 0.246329 0.647748 0.301945
O O4 0.186612 0.383312 0.349619
O O5 0.380094 0.777784 0.064714
O O6 0.310346 0.841047 0.188690
O O7 0.408673 0.009319 0.174021
O O8 0.329674 0.079661 0.063146
O O9 0.393933 0.301253 0.437113
O O10 0.476019 0.004234 0.796351
O O11 0.550137 0.893327 0.676667
O O12 0.550210 0.201701 0.721422
O O13 0.574275 0.327475 0.579567
O O14 0.507036 0.222396 0.454487
O O15 0.573424 0.009867 0.527622
O O16 0.638752 0.388245 0.716254
#
# Coordination Sequence:
#
# PCOD9459452 Si02
#       8
#     8   8   8   8   8   8   8   8
#     4  10  23  43  64  84 112 159 207 246 297 347
#     4  11  23  38  60  91 122 153 196 247 297 359
#     4  11  23  40  64  89 117 156 201 248 295 347
#     4  10  21  36  58  89 122 154 192 233 293 367
#     4  10  21  37  60  91 123 157 193 234 298 368
#     4  10  20  36  58  86 122 154 188 239 290 352
#     4  10  22  42  62  85 119 155 198 250 296 345
#     4  10  21  40  62  87 125 161 193 242 298 356
#
# _framework density 22.543375000000001
#
# number of rings (size 3 to 8) (size 9 to 14) (size 15 to 20)
#    0.000    1.750    0.000    5.250    0.000    7.000 
#    0.000    3.750    0.000    0.000    0.000    0.000 
#    0.000    0.000    0.000    0.000    0.000    0.000 
#
# Total GULP energy -357777.535994 kJ/mol
# GULP energy per Si atom -5590.274000 kJ/mol
# Density = 2.249206 g / cm^3
# Si number density = 22.543375 Si / 1000 Ang^3
#
#
#
# Elastic Constant Matrix: (Units=GPa)
#
#
# Indices 1 2 3 4 5 6 
#
# 1 63.9244 31.5392 25.8041 0.0000 0.0000 0.0000
# 2 31.5392 49.3003 10.7654 0.0000 0.0000 0.0000
# 3 25.8041 10.7654 103.1722 0.0000 0.0000 0.0000
# 4 0.0000 0.0000 0.0000 5.1923 0.0000 0.0000
# 5 0.0000 0.0000 0.0000 0.0000 29.1764 0.0000
# 6 0.0000 0.0000 0.0000 0.0000 0.0000 31.4533
#
#
#
# Elastic Compliance Matrix: (Units=1/GPa)
#
#
# Indices 1 2 3 4 5 6 
#
# 1 0.024877 -0.014895 -0.004668 0.000000 0.000000 0.000000
# 2 -0.014895 0.029676 0.000629 0.000000 0.000000 0.000000
# 3 -0.004668 0.000629 0.010794 0.000000 0.000000 0.000000
# 4 0.000000 0.000000 0.000000 0.192594 0.000000 0.000000
# 5 0.000000 0.000000 0.000000 0.000000 0.034274 0.000000
# 6 0.000000 0.000000 0.000000 0.000000 0.000000 0.031793
#
#
# Mechanical properties :
#
#
# Convention : Reuss Voigt Hill
#
# Bulk Modulus (GPa) = 36.39183 39.17935 37.78559
# Shear Modulus (GPa) = 13.47581 23.05028 18.26305
#
# Velocity S-wave (km/s) = 2.44759 3.20110 2.84936
# Velocity P-wave (km/s) = 4.91586 5.57494 5.25574
#
# Compressibility (1/GPa) = 0.02747869
#
# Stress axis : x y z
#
# Youngs Moduli (GPa) = 40.19823 33.69775 92.64148
#
# Poissons Ratio (x) = 0.50194 0.43241
# Poissons Ratio (y) = 0.59876 -0.05827
# Poissons Ratio (z) = 0.18763 -0.02119
#
# Static dielectric constant tensor:
#      x y z
#    x 1.881890 0.000000 0.000000 
#    y 0.000000 1.884340 0.000000 
#    z 0.000000 0.000000 1.822120 
# 
# From -- ./inp_files/8536.got.cif
#   From: 2010.05.17/outbox.cif.g08.bks.cpg/sg61_5_cif.got.tgz:8536.got - 2010.06.03 15:17:17.
