data_PCOD9459517
_publ_section_title
;
Structure prediction by ZEFSAII (Michael W. Deem and Ramdas Pophale) SiO2 
 PCOD9459517
Probable space group: P B C A
;
_chemical_formula_sum "Si O2"
_cell_formula_units_Z 64
_cell_length_a 5.059129
_cell_length_b 16.856212
_cell_length_c 33.250866
_cell_angle_alpha 90.000000
_cell_angle_beta 90.000000
_cell_angle_gamma 90.000000
_cell_volume 2835.559070
_symmetry_space_group_name_H-M "P B C A"
_symmetry_group_IT_number 61
_symmetry_cell_setting 'orthorhombic'
loop_
_space_group_symop_operation_xyz
x,y,z
1/2-x,-y,1/2+z
1/2+x,1/2-y,-z
-x,1/2+y,1/2-z
-x,-y,-z
1/2+x,y,1/2-z
1/2-x,1/2+y,z
x,1/2-y,1/2+z
loop_
_atom_site_type_symbol
_atom_site_label
_atom_site_fract_x
_atom_site_fract_y
_atom_site_fract_z
Si Si1 0.155649 0.644251 0.638281
Si Si2 0.264464 0.800629 0.509532
Si Si3 0.451558 0.728903 0.095584
Si Si4 0.508432 0.505322 0.622922
Si Si5 0.118445 0.669579 0.726760
Si Si6 0.506945 0.088988 0.353276
Si Si7 0.763480 0.612993 0.567497
Si Si8 0.800063 0.360912 0.771938
O O1 0.236536 0.732330 0.625150
O O2 0.406804 0.586731 0.643187
O O3 0.027973 0.646880 0.681997
O O4 0.002705 0.611908 0.599238
O O5 0.465882 0.731361 0.494565
O O6 0.330934 0.811478 0.556111
O O7 0.318478 0.873292 0.479304
O O8 0.599521 0.665576 0.122741
O O9 0.613713 0.805077 0.079940
O O10 0.256845 0.448174 0.622972
O O11 0.598462 0.535202 0.578831
O O12 0.759760 0.470067 0.646116
O O13 0.403909 0.640874 0.741184
O O14 0.161726 0.765319 0.727179
O O15 0.644757 0.111722 0.311435
O O16 0.599401 0.387686 0.736392
#
# Coordination Sequence:
#
# PCOD9459517 Si02
#       8
#     8   8   8   8   8   8   8   8
#     4  11  21  44  67  92 125 176 208 257 327 381
#     4  10  20  37  62 101 128 155 212 276 315 364
#     4  10  23  37  70 100 121 164 221 270 306 375
#     4  11  26  41  64  89 134 176 202 254 321 390
#     4  10  23  37  62  97 125 152 207 273 317 367
#     4  12  24  43  63  95 127 168 218 259 310 388
#     4  10  22  42  69  93 131 171 212 261 326 382
#     4  10  21  39  61  90 122 158 202 266 322 361
#
# _framework density 22.570505000000001
#
# number of rings (size 3 to 8) (size 9 to 14) (size 15 to 20)
#    0.000    1.500    3.750    0.750    5.250    1.000 
#    0.000    5.000    0.000    0.000    0.000    0.000 
#    0.000    0.000    0.000    0.000    0.000    0.000 
#
# Total GULP energy -356990.097724 kJ/mol
# GULP energy per Si atom -5577.970277 kJ/mol
# Density = 2.251913 g / cm^3
# Si number density = 22.570505 Si / 1000 Ang^3
#
#
#
# Elastic Constant Matrix: (Units=GPa)
#
#
# Indices 1 2 3 4 5 6 
#
# 1 89.8083 15.0960 -4.0665 0.0000 0.0000 0.0000
# 2 15.0960 18.8255 12.2787 0.0000 0.0000 0.0000
# 3 -4.0665 12.2787 71.1428 0.0000 0.0000 0.0000
# 4 0.0000 0.0000 0.0000 17.2519 0.0000 0.0000
# 5 0.0000 0.0000 0.0000 0.0000 20.6939 0.0000
# 6 0.0000 0.0000 0.0000 0.0000 0.0000 19.4948
#
#
#
# Elastic Compliance Matrix: (Units=1/GPa)
#
#
# Indices 1 2 3 4 5 6 
#
# 1 0.013398 -0.012670 0.002953 0.000000 0.000000 0.000000
# 2 -0.012670 0.071839 -0.013123 0.000000 0.000000 0.000000
# 3 0.002953 -0.013123 0.016490 0.000000 0.000000 0.000000
# 4 0.000000 0.000000 0.000000 0.057965 0.000000 0.000000
# 5 0.000000 0.000000 0.000000 0.000000 0.048323 0.000000
# 6 0.000000 0.000000 0.000000 0.000000 0.000000 0.051296
#
#
# Mechanical properties :
#
#
# Convention : Reuss Voigt Hill
#
# Bulk Modulus (GPa) = 17.84234 25.15476 21.49855
# Shear Modulus (GPa) = 15.44770 21.91934 18.68352
#
# Velocity S-wave (km/s) = 2.61898 3.11971 2.88025
# Velocity P-wave (km/s) = 4.13131 4.91385 4.53947
#
# Compressibility (1/GPa) = 0.05604646
#
# Stress axis : x y z
#
# Youngs Moduli (GPa) = 74.63705 13.92011 60.64309
#
# Poissons Ratio (x) = 0.17636 -0.17905
# Poissons Ratio (y) = 0.94562 0.79582
# Poissons Ratio (z) = -0.22037 0.18267
#
# Static dielectric constant tensor:
#      x y z
#    x 1.879320 0.000000 0.000000 
#    y 0.000000 1.878800 0.000000 
#    z 0.000000 0.000000 1.846320 
# 
# From -- ./inp_files/11628.got.cif
#   From: 2010.05.17/outbox.cif.g08.bks.cpg/sg61_6_cif.got.tgz:11628.got - 2010.06.03 15:17:17.
