data_PCOD9459413
_publ_section_title
;
Structure prediction by ZEFSAII (Michael W. Deem and Ramdas Pophale) SiO2 
 PCOD9459413
Probable space group: P B C A
;
_chemical_formula_sum "Si O2"
_cell_formula_units_Z 56
_cell_length_a 16.108179
_cell_length_b 17.794058
_cell_length_c 9.961899
_cell_angle_alpha 90.000000
_cell_angle_beta 90.000000
_cell_angle_gamma 90.000000
_cell_volume 2855.377829
_symmetry_space_group_name_H-M "P B C A"
_symmetry_group_IT_number 61
_symmetry_cell_setting 'orthorhombic'
loop_
_space_group_symop_operation_xyz
x,y,z
1/2-x,-y,1/2+z
1/2+x,1/2-y,-z
-x,1/2+y,1/2-z
-x,-y,-z
1/2+x,y,1/2-z
1/2-x,1/2+y,z
x,1/2-y,1/2+z
loop_
_atom_site_type_symbol
_atom_site_label
_atom_site_fract_x
_atom_site_fract_y
_atom_site_fract_z
Si Si1 0.566207 0.705246 0.806636
Si Si2 0.855675 0.895305 0.010183
Si Si3 0.269459 0.369398 0.259628
Si Si4 0.357916 0.969638 0.758963
Si Si5 0.870691 0.609261 0.958249
Si Si6 0.527675 0.044806 0.724551
Si Si7 0.977792 0.739840 0.439914
O O1 0.659796 0.692498 0.760517
O O2 0.520607 0.624164 0.793729
O O3 0.514341 0.758326 0.708478
O O4 0.553747 0.733557 0.956574
O O5 0.788073 0.860287 0.110212
O O6 0.906919 0.955658 0.101680
O O7 0.917880 0.829878 0.965417
O O8 0.821225 0.931694 0.874707
O O9 0.314478 0.449849 0.275993
O O10 0.210478 0.372133 0.129520
O O11 0.350597 0.923119 0.895845
O O12 0.456093 0.982950 0.728652
O O13 0.926584 0.684054 0.966607
O O14 0.922575 0.550845 0.864598
#
# Coordination Sequence:
#
# PCOD9459413 Si02
#       7
#     8   8   8   8   8   8   8
#     4   9  19  36  55  76 108 141 180 227 271 326
#     4  10  20  35  57  81 112 147 183 230 274 330
#     4  10  22  37  51  78 118 147 170 233 300 316
#     4  11  19  33  57  83 106 144 193 224 264 336
#     4  10  20  35  57  81 112 147 183 230 274 330
#     4   8  18  34  53  77 110 144 177 226 277 308
#     4  10  20  38  58  80 104 146 192 222 270 332
#
# _framework density 19.612116
#
# number of rings (size 3 to 8) (size 9 to 14) (size 15 to 20)
#    0.000    2.286    0.000    3.429    0.000    1.143 
#    0.000    1.429    0.000    0.000    0.000    0.000 
#    0.000    0.000    0.000    0.000    0.000    0.000 
#
# Total GULP energy -312546.894151 kJ/mol
# GULP energy per Si atom -5581.194538 kJ/mol
# Density = 1.956748 g / cm^3
# Si number density = 19.612116 Si / 1000 Ang^3
#
#
#
# Elastic Constant Matrix: (Units=GPa)
#
#
# Indices 1 2 3 4 5 6 
#
# 1 55.9202 -2.6743 -8.0776 0.0000 0.0000 0.0000
# 2 -2.6743 29.8490 3.3636 0.0000 0.0000 0.0000
# 3 -8.0776 3.3636 85.6172 0.0000 0.0000 0.0000
# 4 0.0000 0.0000 0.0000 17.2984 0.0000 0.0000
# 5 0.0000 0.0000 0.0000 0.0000 5.4101 0.0000
# 6 0.0000 0.0000 0.0000 0.0000 0.0000 23.5283
#
#
#
# Elastic Compliance Matrix: (Units=1/GPa)
#
#
# Indices 1 2 3 4 5 6 
#
# 1 0.018191 0.001443 0.001660 0.000000 0.000000 0.000000
# 2 0.001443 0.033765 -0.001190 0.000000 0.000000 0.000000
# 3 0.001660 -0.001190 0.011883 0.000000 0.000000 0.000000
# 4 0.000000 0.000000 0.000000 0.057809 0.000000 0.000000
# 5 0.000000 0.000000 0.000000 0.000000 0.184841 0.000000
# 6 0.000000 0.000000 0.000000 0.000000 0.000000 0.042502
#
#
# Mechanical properties :
#
#
# Convention : Reuss Voigt Hill
#
# Bulk Modulus (GPa) = 14.77890 17.40108 16.08999
# Shear Modulus (GPa) = 13.59720 21.16566 17.38143
#
# Velocity S-wave (km/s) = 2.63593 3.28870 2.98024
# Velocity P-wave (km/s) = 4.10074 4.82832 4.47933
#
# Compressibility (1/GPa) = 0.06766405
#
# Stress axis : x y z
#
# Youngs Moduli (GPa) = 54.97118 29.61610 84.15212
#
# Poissons Ratio (x) = -0.04273 -0.13966
# Poissons Ratio (y) = -0.07931 0.10017
# Poissons Ratio (z) = -0.09123 0.03525
#
# Static dielectric constant tensor:
#      x y z
#    x 1.698180 0.000000 0.000000 
#    y 0.000000 1.665490 0.000000 
#    z 0.000000 0.000000 1.670880 
# 
# From -- ./inp_files/3647.got.cif
#   From: 2010.05.17/outbox.cif.g08.bks.cpg/sg61_2_cif.got.tgz:3647.got - 2010.06.03 15:17:17.
