data_PCOD9459242
_publ_section_title
;
Structure prediction by ZEFSAII (Michael W. Deem and Ramdas Pophale) SiO2 
 PCOD9459242
Probable space group: P B C A
;
_chemical_formula_sum "Si O2"
_cell_formula_units_Z 64
_cell_length_a 14.365527
_cell_length_b 17.767148
_cell_length_c 12.113049
_cell_angle_alpha 90.000000
_cell_angle_beta 90.000000
_cell_angle_gamma 90.000000
_cell_volume 3091.667330
_symmetry_space_group_name_H-M "P B C A"
_symmetry_group_IT_number 61
_symmetry_cell_setting 'orthorhombic'
loop_
_space_group_symop_operation_xyz
x,y,z
1/2-x,-y,1/2+z
1/2+x,1/2-y,-z
-x,1/2+y,1/2-z
-x,-y,-z
1/2+x,y,1/2-z
1/2-x,1/2+y,z
x,1/2-y,1/2+z
loop_
_atom_site_type_symbol
_atom_site_label
_atom_site_fract_x
_atom_site_fract_y
_atom_site_fract_z
Si Si1 0.988122 0.474491 0.777820
Si Si2 0.299121 0.540586 0.639428
Si Si3 0.042791 0.861351 0.301210
Si Si4 0.562898 0.278658 0.104327
Si Si5 0.659113 0.010000 0.507397
Si Si6 0.926325 0.612741 0.024385
Si Si7 0.984542 0.107686 0.054548
Si Si8 0.246036 0.130617 0.842018
O O1 0.880277 0.494700 0.799894
O O2 0.998602 0.411983 0.683233
O O3 0.036766 0.554186 0.748282
O O4 0.026263 0.445782 0.893621
O O5 0.210890 0.490394 0.609637
O O6 0.333967 0.573858 0.522927
O O7 0.275934 0.610431 0.716092
O O8 0.147417 0.843474 0.339966
O O9 0.996053 0.805698 0.211868
O O10 0.982774 0.870225 0.412138
O O11 0.578034 0.190500 0.089732
O O12 0.666495 0.314015 0.113686
O O13 0.506158 0.311251 0.997639
O O14 0.565397 0.059509 0.506362
O O15 0.728079 0.052532 0.591579
O O16 0.617112 0.927116 0.529380
#
# Coordination Sequence:
#
# PCOD9459242 Si02
#       8
#     8   8   8   8   8   8   8   8
#     4  11  20  39  65  95 123 164 214 269 319 369
#     4  11  20  37  64  93 124 157 215 271 318 369
#     4  11  22  44  67  92 126 168 214 267 324 373
#     4  11  24  43  63  91 134 175 207 260 324 396
#     4  10  19  35  62  98 119 161 214 271 313 375
#     4  11  25  40  63  90 131 171 208 267 320 384
#     4  10  20  36  62  91 129 161 209 260 328 377
#     4  11  20  39  67  92 125 162 216 265 321 380
#
# _framework density 20.700804999999999
#
# number of rings (size 3 to 8) (size 9 to 14) (size 15 to 20)
#    0.000    1.250    3.750    6.000    1.750    0.000 
#    4.500    0.000    0.000    0.000    0.000    0.000 
#    0.000    0.000    0.000    0.000    0.000    0.000 
#
# Total GULP energy -356986.591723 kJ/mol
# GULP energy per Si atom -5577.915496 kJ/mol
# Density = 2.065369 g / cm^3
# Si number density = 20.700805 Si / 1000 Ang^3
#
#
#
# Elastic Constant Matrix: (Units=GPa)
#
#
# Indices 1 2 3 4 5 6 
#
# 1 94.2933 11.2299 9.1637 0.0000 0.0000 0.0000
# 2 11.2299 57.9238 7.4877 0.0000 0.0000 0.0000
# 3 9.1637 7.4877 80.2530 0.0000 0.0000 0.0000
# 4 0.0000 0.0000 0.0000 25.8127 0.0000 0.0000
# 5 0.0000 0.0000 0.0000 0.0000 33.8510 0.0000
# 6 0.0000 0.0000 0.0000 0.0000 0.0000 7.9649
#
#
#
# Elastic Compliance Matrix: (Units=1/GPa)
#
#
# Indices 1 2 3 4 5 6 
#
# 1 0.010945 -0.001984 -0.001065 0.000000 0.000000 0.000000
# 2 -0.001984 0.017835 -0.001437 0.000000 0.000000 0.000000
# 3 -0.001065 -0.001437 0.012716 0.000000 0.000000 0.000000
# 4 0.000000 0.000000 0.000000 0.038741 0.000000 0.000000
# 5 0.000000 0.000000 0.000000 0.000000 0.029541 0.000000
# 6 0.000000 0.000000 0.000000 0.000000 0.000000 0.125551
#
#
# Mechanical properties :
#
#
# Convention : Reuss Voigt Hill
#
# Bulk Modulus (GPa) = 30.74731 32.02584 31.38658
# Shear Modulus (GPa) = 19.59691 27.16498 23.38095
#
# Velocity S-wave (km/s) = 3.08014 3.62645 3.36441
# Velocity P-wave (km/s) = 5.24740 5.74798 5.50338
#
# Compressibility (1/GPa) = 0.03252317
#
# Stress axis : x y z
#
# Youngs Moduli (GPa) = 91.36592 56.07086 78.63938
#
# Poissons Ratio (x) = 0.11126 0.08372
# Poissons Ratio (y) = 0.18130 0.11304
# Poissons Ratio (z) = 0.09727 0.08060
#
# Static dielectric constant tensor:
#      x y z
#    x 1.795750 0.000000 0.000000 
#    y 0.000000 1.773770 0.000000 
#    z 0.000000 0.000000 1.769560 
# 
# From -- ./inp_files/6002.got.cif
#   From: 2010.05.17/outbox.cif.g08.bks.cpg/sg61_4_cif.got.tgz:6002.got - 2010.06.03 15:17:17.
