data_PCOD9459309
_publ_section_title
;
Structure prediction by ZEFSAII (Michael W. Deem and Ramdas Pophale) SiO2 
 PCOD9459309
Probable space group: P B C A
;
_chemical_formula_sum "Si O2"
_cell_formula_units_Z 48
_cell_length_a 13.357710
_cell_length_b 28.415620
_cell_length_c 5.360925
_cell_angle_alpha 90.000000
_cell_angle_beta 90.000000
_cell_angle_gamma 90.000000
_cell_volume 2034.833497
_symmetry_space_group_name_H-M "P B C A"
_symmetry_group_IT_number 61
_symmetry_cell_setting 'orthorhombic'
loop_
_space_group_symop_operation_xyz
x,y,z
1/2-x,-y,1/2+z
1/2+x,1/2-y,-z
-x,1/2+y,1/2-z
-x,-y,-z
1/2+x,y,1/2-z
1/2-x,1/2+y,z
x,1/2-y,1/2+z
loop_
_atom_site_type_symbol
_atom_site_label
_atom_site_fract_x
_atom_site_fract_y
_atom_site_fract_z
Si Si1 0.129892 0.221938 0.865748
Si Si2 0.933642 0.503908 0.252368
Si Si3 0.234335 0.656314 0.180700
Si Si4 0.060000 0.672408 0.461846
Si Si5 0.608030 0.904337 0.162224
Si Si6 0.085992 0.392428 0.869728
O O1 0.146501 0.260490 0.085642
O O2 0.201693 0.180420 0.961364
O O3 0.013071 0.207253 0.893468
O O4 0.866282 0.456999 0.246428
O O5 0.889331 0.556298 0.242873
O O6 0.000000 0.500000 0.500000
O O7 0.000000 0.500000 0.000000
O O8 0.147912 0.691046 0.283112
O O9 0.313469 0.637367 0.383160
O O10 0.173881 0.611699 0.071252
O O11 0.118211 0.636684 0.639484
O O12 0.984467 0.639640 0.304599
O O13 0.488049 0.901669 0.101341
#
# Coordination Sequence:
#
# PCOD9459309 Si02
#       6
#     8   8   8   8   8   8
#     4  11  28  47  70  97 128 171 220 277 346 410
#     4  10  19  38  64  93 131 180 226 264 313 380
#     4  10  24  42  65 100 133 173 219 282 338 404
#     4  10  22  41  69  92 132 170 221 271 342 399
#     4  10  21  39  66  95 134 183 224 271 330 393
#     4   9  20  40  62  93 134 182 220 270 326 388
#
# _framework density 23.589155999999999
#
# number of rings (size 3 to 8) (size 9 to 14) (size 15 to 20)
#    0.000    2.000    1.667    0.000    9.333    2.667 
#    3.000    0.000    0.000    0.000    0.000    0.000 
#    0.000    0.000    0.000    0.000    0.000    0.000 
#
# Total GULP energy -267866.481348 kJ/mol
# GULP energy per Si atom -5580.551695 kJ/mol
# Density = 2.353547 g / cm^3
# Si number density = 23.589156 Si / 1000 Ang^3
#
#
#
# Elastic Constant Matrix: (Units=GPa)
#
#
# Indices 1 2 3 4 5 6 
#
# 1 120.3324 36.5270 16.2450 0.0000 0.0000 0.0000
# 2 36.5270 62.9726 8.4745 0.0000 0.0000 0.0000
# 3 16.2450 8.4745 60.2225 0.0000 0.0000 0.0000
# 4 0.0000 0.0000 0.0000 6.6061 0.0000 0.0000
# 5 0.0000 0.0000 0.0000 0.0000 13.2995 0.0000
# 6 0.0000 0.0000 0.0000 0.0000 0.0000 22.2112
#
#
#
# Elastic Compliance Matrix: (Units=1/GPa)
#
#
# Indices 1 2 3 4 5 6 
#
# 1 0.010312 -0.005715 -0.001977 0.000000 0.000000 0.000000
# 2 -0.005715 0.019354 -0.001182 0.000000 0.000000 0.000000
# 3 -0.001977 -0.001182 0.017305 0.000000 0.000000 0.000000
# 4 0.000000 0.000000 0.000000 0.151376 0.000000 0.000000
# 5 0.000000 0.000000 0.000000 0.000000 0.075191 0.000000
# 6 0.000000 0.000000 0.000000 0.000000 0.000000 0.045022
#
#
# Mechanical properties :
#
#
# Convention : Reuss Voigt Hill
#
# Bulk Modulus (GPa) = 34.22096 40.66895 37.44496
# Shear Modulus (GPa) = 14.44876 20.57541 17.51209
#
# Velocity S-wave (km/s) = 2.47759 2.95658 2.72762
# Velocity P-wave (km/s) = 4.76688 5.37895 5.08214
#
# Compressibility (1/GPa) = 0.02922185
#
# Stress axis : x y z
#
# Youngs Moduli (GPa) = 96.97254 51.66840 57.78747
#
# Poissons Ratio (x) = 0.29531 0.11427
# Poissons Ratio (y) = 0.55424 0.06829
# Poissons Ratio (z) = 0.19176 0.06106
#
# Static dielectric constant tensor:
#      x y z
#    x 1.877580 0.000000 0.000000 
#    y 0.000000 1.972320 0.000000 
#    z 0.000000 0.000000 1.956530 
# 
# From -- ./inp_files/576.got.cif
#   From: 2010.05.17/outbox.cif.g08.bks.cpg/sg61_1_cif.got.tgz:576.got - 2010.06.03 15:17:17.
