data_PCOD9459645
_publ_section_title
;
Structure prediction by ZEFSAII (Michael W. Deem and Ramdas Pophale) SiO2 
 PCOD9459645
Probable space group: P B C A
;
_chemical_formula_sum "Si O2"
_cell_formula_units_Z 56
_cell_length_a 12.947754
_cell_length_b 14.305894
_cell_length_c 15.891388
_cell_angle_alpha 90.000000
_cell_angle_beta 90.000000
_cell_angle_gamma 90.000000
_cell_volume 2943.549027
_symmetry_space_group_name_H-M "P B C A"
_symmetry_group_IT_number 61
_symmetry_cell_setting 'orthorhombic'
loop_
_space_group_symop_operation_xyz
x,y,z
1/2-x,-y,1/2+z
1/2+x,1/2-y,-z
-x,1/2+y,1/2-z
-x,-y,-z
1/2+x,y,1/2-z
1/2-x,1/2+y,z
x,1/2-y,1/2+z
loop_
_atom_site_type_symbol
_atom_site_label
_atom_site_fract_x
_atom_site_fract_y
_atom_site_fract_z
Si Si1 0.477846 0.937633 0.122174
Si Si2 0.488862 0.343960 0.022396
Si Si3 0.089984 0.241011 0.142027
Si Si4 0.666126 0.959331 0.998494
Si Si5 0.626047 0.998675 0.590623
Si Si6 0.542046 0.600498 0.249602
Si Si7 0.674110 0.715182 0.379346
O O1 0.460800 0.839436 0.167259
O O2 0.570836 0.930168 0.056741
O O3 0.498590 0.024386 0.183799
O O4 0.376738 0.963309 0.066546
O O5 0.568479 0.401884 0.080162
O O6 0.404873 0.285067 0.074195
O O7 0.550632 0.282700 0.953066
O O8 0.428645 0.423322 0.970081
O O9 0.213159 0.252181 0.144824
O O10 0.046844 0.157399 0.200443
O O11 0.758453 0.991813 0.057311
O O12 0.697269 0.870718 0.942649
O O13 0.610226 0.957127 0.682836
O O14 0.613646 0.672652 0.299961
#
# Coordination Sequence:
#
# PCOD9459645 Si02
#       7
#     8   8   8   8   8   8   8
#     4  10  22  41  62  93 129 163 211 266 306 384
#     4  10  21  39  66  89 123 160 221 257 304 381
#     4  11  22  43  63  93 128 168 210 265 315 379
#     4  10  20  39  67  89 120 168 214 254 316 369
#     4  10  21  41  63  93 121 169 208 262 313 375
#     4  10  26  41  59  95 136 161 211 261 323 376
#     4  11  22  42  64  96 125 167 211 266 314 381
#
# _framework density 19.024653000000001
#
# number of rings (size 3 to 8) (size 9 to 14) (size 15 to 20)
#    0.000    1.714    2.857    0.857    4.000    0.000 
#    2.571    0.000    0.000    0.000    0.000    0.000 
#    0.000    0.000    0.000    0.000    0.000    0.000 
#
# Total GULP energy -312592.196943 kJ/mol
# GULP energy per Si atom -5582.003517 kJ/mol
# Density = 1.898135 g / cm^3
# Si number density = 19.024653 Si / 1000 Ang^3
#
#
#
# Elastic Constant Matrix: (Units=GPa)
#
#
# Indices 1 2 3 4 5 6 
#
# 1 61.8369 14.1665 13.7052 0.0000 0.0000 0.0000
# 2 14.1665 59.1631 7.5901 0.0000 0.0000 0.0000
# 3 13.7052 7.5901 63.4490 0.0000 0.0000 0.0000
# 4 0.0000 0.0000 0.0000 27.0993 0.0000 0.0000
# 5 0.0000 0.0000 0.0000 0.0000 14.8162 0.0000
# 6 0.0000 0.0000 0.0000 0.0000 0.0000 18.7607
#
#
#
# Elastic Compliance Matrix: (Units=1/GPa)
#
#
# Indices 1 2 3 4 5 6 
#
# 1 0.017799 -0.003827 -0.003387 0.000000 0.000000 0.000000
# 2 -0.003827 0.017989 -0.001325 0.000000 0.000000 0.000000
# 3 -0.003387 -0.001325 0.016651 0.000000 0.000000 0.000000
# 4 0.000000 0.000000 0.000000 0.036901 0.000000 0.000000
# 5 0.000000 0.000000 0.000000 0.000000 0.067493 0.000000
# 6 0.000000 0.000000 0.000000 0.000000 0.000000 0.053303
#
#
# Mechanical properties :
#
#
# Convention : Reuss Voigt Hill
#
# Bulk Modulus (GPa) = 28.28066 28.37474 28.32770
# Shear Modulus (GPa) = 20.92032 22.06772 21.49402
#
# Velocity S-wave (km/s) = 3.31968 3.40950 3.36489
# Velocity P-wave (km/s) = 5.43979 5.51786 5.47896
#
# Compressibility (1/GPa) = 0.03535986
#
# Stress axis : x y z
#
# Youngs Moduli (GPa) = 56.18270 55.58982 60.05721
#
# Poissons Ratio (x) = 0.21277 0.20340
# Poissons Ratio (y) = 0.21504 0.07959
# Poissons Ratio (z) = 0.19028 0.07367
#
# Static dielectric constant tensor:
#      x y z
#    x 1.626100 0.000000 0.000000 
#    y 0.000000 1.668230 0.000000 
#    z 0.000000 0.000000 1.653510 
# 
# From -- ./inp_files/7499.got.cif
#   From: 2010.05.17/outbox.cif.g08.bks.cpg/sg61_4_cif.got.tgz:7499.got - 2010.06.03 15:17:17.
