data_PCOD9459287
_publ_section_title
;
Structure prediction by ZEFSAII (Michael W. Deem and Ramdas Pophale) SiO2 
 PCOD9459287
Probable space group: P B C A
;
_chemical_formula_sum "Si O2"
_cell_formula_units_Z 64
_cell_length_a 16.586568
_cell_length_b 9.550118
_cell_length_c 20.393801
_cell_angle_alpha 90.000000
_cell_angle_beta 90.000000
_cell_angle_gamma 90.000000
_cell_volume 3230.453161
_symmetry_space_group_name_H-M "P B C A"
_symmetry_group_IT_number 61
_symmetry_cell_setting 'orthorhombic'
loop_
_space_group_symop_operation_xyz
x,y,z
1/2-x,-y,1/2+z
1/2+x,1/2-y,-z
-x,1/2+y,1/2-z
-x,-y,-z
1/2+x,y,1/2-z
1/2-x,1/2+y,z
x,1/2-y,1/2+z
loop_
_atom_site_type_symbol
_atom_site_label
_atom_site_fract_x
_atom_site_fract_y
_atom_site_fract_z
Si Si1 0.403384 0.811387 0.611150
Si Si2 0.467282 0.847162 0.985217
Si Si3 0.885412 0.942479 0.640643
Si Si4 0.820306 0.869118 0.283326
Si Si5 0.772640 0.126355 0.216026
Si Si6 0.526906 0.313390 0.199001
Si Si7 0.537079 0.580773 0.936232
Si Si8 0.067711 0.756875 0.318245
O O1 0.425532 0.723964 0.546898
O O2 0.338671 0.721293 0.651912
O O3 0.485023 0.808498 0.655238
O O4 0.393139 0.974138 0.589158
O O5 0.400562 0.870469 0.928974
O O6 0.539240 0.741708 0.961791
O O7 0.500000 0.000000 0.000000
O O8 0.795220 0.935326 0.667980
O O9 0.941261 0.844756 0.686863
O O10 0.915264 0.101302 0.641968
O O11 0.761715 0.773631 0.240102
O O12 0.905338 0.881776 0.244825
O O13 0.784703 0.024387 0.278570
O O14 0.856204 0.155619 0.179473
O O15 0.515089 0.391243 0.130069
O O16 0.446727 0.302555 0.242567
O O17 0.500000 0.500000 0.000000
#
# Coordination Sequence:
#
# PCOD9459287 Si02
#       8
#     8   8   8   8   8   8   8   8
#     4  10  21  36  62  90 114 152 205 259 306 353
#     4  10  19  37  62  87 120 149 199 254 303 360
#     4  10  21  38  55  89 121 157 197 251 304 373
#     4  10  22  36  58  82 121 151 198 251 304 368
#     4  11  22  38  55  84 120 164 191 247 315 378
#     4   9  21  33  58  88 117 147 200 257 302 348
#     4   9  19  34  55  88 122 151 189 248 309 357
#     4  11  21  33  62  87 118 153 207 253 311 367
#
# _framework density 19.811463
#
# number of rings (size 3 to 8) (size 9 to 14) (size 15 to 20)
#    0.000    2.000    2.500    0.750    8.750    0.000 
#    0.000    0.000    2.750    1.500    0.000    0.000 
#    0.000    0.000    0.000    0.000    0.000    0.000 
#
# Total GULP energy -356280.796820 kJ/mol
# GULP energy per Si atom -5566.887450 kJ/mol
# Density = 1.976637 g / cm^3
# Si number density = 19.811463 Si / 1000 Ang^3
#
#
#
# Elastic Constant Matrix: (Units=GPa)
#
#
# Indices 1 2 3 4 5 6 
#
# 1 38.1416 10.6405 8.7232 0.0000 0.0000 0.0000
# 2 10.6405 120.4096 16.0442 0.0000 0.0000 0.0000
# 3 8.7232 16.0442 88.4427 0.0000 0.0000 0.0000
# 4 0.0000 0.0000 0.0000 27.2902 0.0000 0.0000
# 5 0.0000 0.0000 0.0000 0.0000 18.0379 0.0000
# 6 0.0000 0.0000 0.0000 0.0000 0.0000 9.8297
#
#
#
# Elastic Compliance Matrix: (Units=1/GPa)
#
#
# Indices 1 2 3 4 5 6 
#
# 1 0.027335 -0.002107 -0.002314 0.000000 0.000000 0.000000
# 2 -0.002107 0.008673 -0.001366 0.000000 0.000000 0.000000
# 3 -0.002314 -0.001366 0.011783 0.000000 0.000000 0.000000
# 4 0.000000 0.000000 0.000000 0.036643 0.000000 0.000000
# 5 0.000000 0.000000 0.000000 0.000000 0.055439 0.000000
# 6 0.000000 0.000000 0.000000 0.000000 0.000000 0.101733
#
#
# Mechanical properties :
#
#
# Convention : Reuss Voigt Hill
#
# Bulk Modulus (GPa) = 27.61079 35.31220 31.46149
# Shear Modulus (GPa) = 18.85000 25.13727 21.99364
#
# Velocity S-wave (km/s) = 3.08794 3.56592 3.33550
# Velocity P-wave (km/s) = 5.16535 5.90061 5.54518
#
# Compressibility (1/GPa) = 0.03621772
#
# Stress axis : x y z
#
# Youngs Moduli (GPa) = 36.58293 115.29827 84.87023
#
# Poissons Ratio (x) = 0.24297 0.19637
# Poissons Ratio (y) = 0.07709 0.11589
# Poissons Ratio (z) = 0.08465 0.15744
#
# Static dielectric constant tensor:
#      x y z
#    x 1.719750 0.000000 0.000000 
#    y 0.000000 1.729430 0.000000 
#    z 0.000000 0.000000 1.724780 
# 
# From -- ./inp_files/10533.got.cif
#   From: 2010.05.17/outbox.cif.g08.bks.cpg/sg61_6_cif.got.tgz:10533.got - 2010.06.03 15:17:17.
