data_PCOD9459612
_publ_section_title
;
Structure prediction by ZEFSAII (Michael W. Deem and Ramdas Pophale) SiO2 
 PCOD9459612
Probable space group: P B C A
;
_chemical_formula_sum "Si O2"
_cell_formula_units_Z 48
_cell_length_a 14.836539
_cell_length_b 18.409935
_cell_length_c 7.820464
_cell_angle_alpha 90.000000
_cell_angle_beta 90.000000
_cell_angle_gamma 90.000000
_cell_volume 2136.079336
_symmetry_space_group_name_H-M "P B C A"
_symmetry_group_IT_number 61
_symmetry_cell_setting 'orthorhombic'
loop_
_space_group_symop_operation_xyz
x,y,z
1/2-x,-y,1/2+z
1/2+x,1/2-y,-z
-x,1/2+y,1/2-z
-x,-y,-z
1/2+x,y,1/2-z
1/2-x,1/2+y,z
x,1/2-y,1/2+z
loop_
_atom_site_type_symbol
_atom_site_label
_atom_site_fract_x
_atom_site_fract_y
_atom_site_fract_z
Si Si1 0.602451 0.289011 0.672720
Si Si2 0.662752 0.358570 0.348756
Si Si3 0.397549 0.289011 0.672720
Si Si4 0.162752 0.641429 0.848756
Si Si5 0.500000 0.391497 0.884104
Si Si6 1.000000 0.546799 0.766846
O O1 0.670013 0.324516 0.537939
O O2 0.629312 0.210277 0.736789
O O3 0.500000 0.285824 0.593942
O O4 0.585391 0.341783 0.834171
O O5 0.750000 0.386335 0.250000
O O6 0.587905 0.420880 0.355929
O O7 0.329987 0.324516 0.537939
O O8 0.370688 0.210277 0.736789
O O9 0.414609 0.341783 0.834171
O O10 0.087905 0.579120 0.855929
O O11 0.500000 0.461047 0.759743
O O12 0.500000 0.418902 0.075800
#
# Coordination Sequence:
#
# PCOD9459612 Si02
#       6
#     8   8   8   8   8   8
#     4  10  20  39  60  89 114 160 195 243 299 349
#     4  12  23  37  63  90 120 153 197 250 301 356
#     4  10  20  39  60  89 114 160 195 243 299 349
#     4  12  23  37  63  90 120 153 197 250 301 356
#     4   9  22  37  68  79 117 171 190 249 294 355
#     4  11  20  43  58  87 121 155 206 237 302 351
#
# _framework density 22.471074000000002
#
# number of rings (size 3 to 8) (size 9 to 14) (size 15 to 20)
#    1.000    0.333    3.333    3.000    0.000    2.667 
#    0.000    8.333    0.000    0.000    0.000    0.000 
#    0.000    0.000    0.000    0.000    0.000    0.000 
#
# Total GULP energy -268330.206601 kJ/mol
# GULP energy per Si atom -5590.212638 kJ/mol
# Density = 2.241993 g / cm^3
# Si number density = 22.471074 Si / 1000 Ang^3
#
#
#
# Elastic Constant Matrix: (Units=GPa)
#
#
# Indices 1 2 3 4 5 6 
#
# 1 59.6090 2.5029 -9.4515 0.0000 0.0000 0.0000
# 2 2.5029 79.1357 -9.2260 0.0000 0.0000 0.0000
# 3 -9.4515 -9.2260 70.5406 0.0000 0.0000 0.0000
# 4 0.0000 0.0000 0.0000 27.5525 0.0000 0.0000
# 5 0.0000 0.0000 0.0000 0.0000 10.6852 0.0000
# 6 0.0000 0.0000 0.0000 0.0000 0.0000 0.6004
#
#
#
# Elastic Compliance Matrix: (Units=1/GPa)
#
#
# Indices 1 2 3 4 5 6 
#
# 1 0.017146 -0.000279 0.002261 0.000000 0.000000 0.000000
# 2 -0.000279 0.012837 0.001642 0.000000 0.000000 0.000000
# 3 0.002261 0.001642 0.014694 0.000000 0.000000 0.000000
# 4 0.000000 0.000000 0.000000 0.036294 0.000000 0.000000
# 5 0.000000 0.000000 0.000000 0.000000 0.093587 0.000000
# 6 0.000000 0.000000 0.000000 0.000000 0.000000 1.665589
#
#
# Mechanical properties :
#
#
# Convention : Reuss Voigt Hill
#
# Bulk Modulus (GPa) = 19.25882 19.65958 19.45920
# Shear Modulus (GPa) = 2.70240 22.79829 12.75035
#
# Velocity S-wave (km/s) = 1.09783 3.18867 2.38462
# Velocity P-wave (km/s) = 3.19313 4.72490 4.03242
#
# Compressibility (1/GPa) = 0.05192426
#
# Stress axis : x y z
#
# Youngs Moduli (GPa) = 58.32208 77.90155 68.05564
#
# Poissons Ratio (x) = 0.02171 -0.15387
# Poissons Ratio (y) = 0.01625 -0.11172
# Poissons Ratio (z) = -0.13186 -0.12788
#
# Static dielectric constant tensor:
#      x y z
#    x 1.866620 0.000000 0.000000 
#    y 0.000000 1.781210 0.000000 
#    z 0.000000 0.000000 1.869910 
# 
# From -- ./inp_files/2838.got.cif
#   From: 2010.05.17/outbox.cif.g08.bks.cpg/sg61_2_cif.got.tgz:2838.got - 2010.06.03 15:17:17.
