data_PCOD9459163
_publ_section_title
;
Structure prediction by ZEFSAII (Michael W. Deem and Ramdas Pophale) SiO2 
 PCOD9459163
Probable space group: P B C A
;
_chemical_formula_sum "Si O2"
_cell_formula_units_Z 64
_cell_length_a 8.927194
_cell_length_b 30.328591
_cell_length_c 12.919206
_cell_angle_alpha 90.000000
_cell_angle_beta 90.000000
_cell_angle_gamma 90.000000
_cell_volume 3497.864891
_symmetry_space_group_name_H-M "P B C A"
_symmetry_group_IT_number 61
_symmetry_cell_setting 'orthorhombic'
loop_
_space_group_symop_operation_xyz
x,y,z
1/2-x,-y,1/2+z
1/2+x,1/2-y,-z
-x,1/2+y,1/2-z
-x,-y,-z
1/2+x,y,1/2-z
1/2-x,1/2+y,z
x,1/2-y,1/2+z
loop_
_atom_site_type_symbol
_atom_site_label
_atom_site_fract_x
_atom_site_fract_y
_atom_site_fract_z
Si Si1 0.272030 0.311415 0.118889
Si Si2 0.928675 0.066486 0.248921
Si Si3 0.702265 0.910943 0.428456
Si Si4 0.524541 0.237725 0.751123
Si Si5 0.364519 0.497055 0.580476
Si Si6 0.224440 0.791000 0.872029
Si Si7 0.328721 0.887716 0.847962
Si Si8 0.933310 0.952315 0.973104
O O1 0.278086 0.364595 0.129416
O O2 0.408628 0.290258 0.182676
O O3 0.121845 0.292097 0.170722
O O4 0.281292 0.296602 0.997311
O O5 0.758981 0.077904 0.223234
O O6 0.000613 0.105413 0.317244
O O7 0.009137 0.062069 0.139349
O O8 0.932750 0.022403 0.314770
O O9 0.779063 0.956989 0.394684
O O10 0.788406 0.901545 0.536419
O O11 0.524994 0.919880 0.450217
O O12 0.640126 0.261080 0.671878
O O13 0.426776 0.271808 0.820669
O O14 0.500000 0.500000 0.500000
O O15 0.243415 0.461863 0.534145
O O16 0.262353 0.839736 0.830967
O O17 0.000000 0.000000 0.000000
#
# Coordination Sequence:
#
# PCOD9459163 Si02
#       8
#     8   8   8   8   8   8   8   8
#     4  10  21  40  61  85 124 155 194 251 292 354
#     4  11  19  33  53  81 112 147 185 242 284 341
#     4   9  20  38  54  77 115 152 185 237 291 337
#     4  10  21  38  62  90 115 157 200 233 303 377
#     4  11  20  35  57  82 111 150 197 236 285 342
#     4  10  20  37  62  89 118 152 193 251 304 355
#     4  10  19  32  55  81 112 142 185 238 293 334
#     4   9  20  36  54  76 109 151 192 230 286 339
#
# _framework density 18.296875
#
# number of rings (size 3 to 8) (size 9 to 14) (size 15 to 20)
#    0.000    2.000    2.500    1.500    0.000    0.000 
#    4.500    2.500    0.000    0.000    0.000    0.000 
#    0.000    0.000    0.000    0.000    0.000    0.000 
#
# Total GULP energy -356383.463579 kJ/mol
# GULP energy per Si atom -5568.491618 kJ/mol
# Density = 1.825523 g / cm^3
# Si number density = 18.296875 Si / 1000 Ang^3
#
#
#
# Elastic Constant Matrix: (Units=GPa)
#
#
# Indices 1 2 3 4 5 6 
#
# 1 78.7586 19.9000 20.0448 0.0000 0.0000 0.0000
# 2 19.9000 99.0948 29.4407 0.0000 0.0000 0.0000
# 3 20.0448 29.4407 54.5215 0.0000 0.0000 0.0000
# 4 0.0000 0.0000 0.0000 27.5423 0.0000 0.0000
# 5 0.0000 0.0000 0.0000 0.0000 17.2687 0.0000
# 6 0.0000 0.0000 0.0000 0.0000 0.0000 32.1809
#
#
#
# Elastic Compliance Matrix: (Units=1/GPa)
#
#
# Indices 1 2 3 4 5 6 
#
# 1 0.014205 -0.001550 -0.004386 0.000000 0.000000 0.000000
# 2 -0.001550 0.012189 -0.006012 0.000000 0.000000 0.000000
# 3 -0.004386 -0.006012 0.023200 0.000000 0.000000 0.000000
# 4 0.000000 0.000000 0.000000 0.036308 0.000000 0.000000
# 5 0.000000 0.000000 0.000000 0.000000 0.057908 0.000000
# 6 0.000000 0.000000 0.000000 0.000000 0.000000 0.031074
#
#
# Mechanical properties :
#
#
# Convention : Reuss Voigt Hill
#
# Bulk Modulus (GPa) = 38.91176 41.23844 40.07510
# Shear Modulus (GPa) = 24.11443 26.26433 25.18938
#
# Velocity S-wave (km/s) = 3.63430 3.79285 3.71442
# Velocity P-wave (km/s) = 6.23890 6.46285 6.35186
#
# Compressibility (1/GPa) = 0.02569917
#
# Stress axis : x y z
#
# Youngs Moduli (GPa) = 70.39894 82.04347 43.10323
#
# Poissons Ratio (x) = 0.12714 0.18903
# Poissons Ratio (y) = 0.10909 0.25913
# Poissons Ratio (z) = 0.30874 0.49324
#
# Static dielectric constant tensor:
#      x y z
#    x 1.649960 0.000000 0.000000 
#    y 0.000000 1.664650 0.000000 
#    z 0.000000 0.000000 1.626560 
# 
# From -- ./inp_files/4952.got.cif
#   From: 2010.05.17/outbox.cif.g08.bks.cpg/sg61_3_cif.got.tgz:4952.got - 2010.06.03 15:17:17.
