data_PCOD9459577
_publ_section_title
;
Structure prediction by ZEFSAII (Michael W. Deem and Ramdas Pophale) SiO2 
 PCOD9459577
Probable space group: P B C A
;
_chemical_formula_sum "Si O2"
_cell_formula_units_Z 56
_cell_length_a 14.579832
_cell_length_b 19.599772
_cell_length_c 8.484167
_cell_angle_alpha 90.000000
_cell_angle_beta 90.000000
_cell_angle_gamma 90.000000
_cell_volume 2424.447296
_symmetry_space_group_name_H-M "P B C A"
_symmetry_group_IT_number 61
_symmetry_cell_setting 'orthorhombic'
loop_
_space_group_symop_operation_xyz
x,y,z
1/2-x,-y,1/2+z
1/2+x,1/2-y,-z
-x,1/2+y,1/2-z
-x,-y,-z
1/2+x,y,1/2-z
1/2-x,1/2+y,z
x,1/2-y,1/2+z
loop_
_atom_site_type_symbol
_atom_site_label
_atom_site_fract_x
_atom_site_fract_y
_atom_site_fract_z
Si Si1 0.937366 0.167483 0.514761
Si Si2 0.423008 0.656718 0.103187
Si Si3 0.459593 0.990976 0.741689
Si Si4 0.399030 0.572691 0.565052
Si Si5 0.511593 0.719574 0.811744
Si Si6 0.232960 0.906619 0.575953
Si Si7 0.223528 0.951314 0.214581
O O1 0.870317 0.119733 0.420280
O O2 0.040420 0.138492 0.521650
O O3 0.928419 0.239771 0.435836
O O4 0.921338 0.177655 0.698816
O O5 0.465127 0.582135 0.153231
O O6 0.460231 0.720206 0.210038
O O7 0.313752 0.645704 0.118298
O O8 0.445697 0.674553 0.921172
O O9 0.550039 0.032811 0.790958
O O10 0.383046 0.040492 0.665124
O O11 0.412201 0.973983 0.911186
O O12 0.294522 0.588858 0.603533
O O13 0.242487 0.927772 0.392305
O O14 0.243265 0.970998 0.687759
#
# Coordination Sequence:
#
# PCOD9459577 Si02
#       7
#     8   8   8   8   8   8   8
#     4  11  22  43  65  93 124 175 215 261 323 384
#     4  10  22  41  64  91 126 165 212 270 308 379
#     4  10  20  38  62  96 127 165 210 255 326 387
#     4  11  19  37  68  88 132 171 194 267 334 375
#     4  10  23  42  66  89 124 168 225 259 313 381
#     4  11  23  40  62  91 135 161 215 264 321 394
#     4  11  21  38  60  98 127 164 209 261 321 397
#
# _framework density 23.098049
#
# number of rings (size 3 to 8) (size 9 to 14) (size 15 to 20)
#    0.000    1.429    4.286    1.714    0.000    1.143 
#    2.571    2.143    0.000    0.000    0.000    0.000 
#    0.000    0.000    0.000    0.000    0.000    0.000 
#
# Total GULP energy -312405.993070 kJ/mol
# GULP energy per Si atom -5578.678448 kJ/mol
# Density = 2.304548 g / cm^3
# Si number density = 23.098049 Si / 1000 Ang^3
#
#
#
# Elastic Constant Matrix: (Units=GPa)
#
#
# Indices 1 2 3 4 5 6 
#
# 1 49.2910 4.6436 11.3854 0.0000 0.0000 0.0000
# 2 4.6436 59.0682 3.3619 0.0000 0.0000 0.0000
# 3 11.3854 3.3619 43.8487 0.0000 0.0000 0.0000
# 4 0.0000 0.0000 0.0000 43.2873 0.0000 0.0000
# 5 0.0000 0.0000 0.0000 0.0000 23.3569 0.0000
# 6 0.0000 0.0000 0.0000 0.0000 0.0000 29.8931
#
#
#
# Elastic Compliance Matrix: (Units=1/GPa)
#
#
# Indices 1 2 3 4 5 6 
#
# 1 0.021695 -0.001391 -0.005527 0.000000 0.000000 0.000000
# 2 -0.001391 0.017093 -0.000949 0.000000 0.000000 0.000000
# 3 -0.005527 -0.000949 0.024313 0.000000 0.000000 0.000000
# 4 0.000000 0.000000 0.000000 0.023101 0.000000 0.000000
# 5 0.000000 0.000000 0.000000 0.000000 0.042814 0.000000
# 6 0.000000 0.000000 0.000000 0.000000 0.000000 0.033453
#
#
# Mechanical properties :
#
#
# Convention : Reuss Voigt Hill
#
# Bulk Modulus (GPa) = 21.11135 21.22106 21.16621
# Shear Modulus (GPa) = 25.77417 28.16193 26.96805
#
# Velocity S-wave (km/s) = 3.34407 3.49554 3.42065
# Velocity P-wave (km/s) = 4.90613 5.04966 4.97841
#
# Compressibility (1/GPa) = 0.04736788
#
# Stress axis : x y z
#
# Youngs Moduli (GPa) = 46.09304 58.50355 41.12949
#
# Poissons Ratio (x) = 0.08138 0.22730
# Poissons Ratio (y) = 0.06412 0.03905
# Poissons Ratio (z) = 0.25474 0.05554
#
# Static dielectric constant tensor:
#      x y z
#    x 1.952030 0.000000 0.000000 
#    y 0.000000 1.910370 0.000000 
#    z 0.000000 0.000000 1.946200 
# 
# From -- ./inp_files/3067.got.cif
#   From: 2010.05.17/outbox.cif.g08.bks.cpg/sg61_2_cif.got.tgz:3067.got - 2010.06.03 15:17:17.
