data_PCOD9459781
_publ_section_title
;
Structure prediction by ZEFSAII (Michael W. Deem and Ramdas Pophale) SiO2 
 PCOD9459781
Probable space group: P B C A
;
_chemical_formula_sum "Si O2"
_cell_formula_units_Z 56
_cell_length_a 15.091613
_cell_length_b 19.281519
_cell_length_c 9.054760
_cell_angle_alpha 90.000000
_cell_angle_beta 90.000000
_cell_angle_gamma 90.000000
_cell_volume 2634.837575
_symmetry_space_group_name_H-M "P B C A"
_symmetry_group_IT_number 61
_symmetry_cell_setting 'orthorhombic'
loop_
_space_group_symop_operation_xyz
x,y,z
1/2-x,-y,1/2+z
1/2+x,1/2-y,-z
-x,1/2+y,1/2-z
-x,-y,-z
1/2+x,y,1/2-z
1/2-x,1/2+y,z
x,1/2-y,1/2+z
loop_
_atom_site_type_symbol
_atom_site_label
_atom_site_fract_x
_atom_site_fract_y
_atom_site_fract_z
Si Si1 0.797015 0.384747 0.638583
Si Si2 0.397309 0.755378 0.990662
Si Si3 0.904144 0.910361 0.543334
Si Si4 0.274548 0.755682 0.242008
Si Si5 0.069242 0.691724 0.558063
Si Si6 0.376477 0.329163 0.385619
Si Si7 0.415309 0.448486 0.618682
O O1 0.697951 0.408311 0.595315
O O2 0.782047 0.311885 0.722218
O O3 0.864578 0.365922 0.506714
O O4 0.847072 0.434145 0.751414
O O5 0.427863 0.834060 0.016638
O O6 0.369546 0.751144 0.820021
O O7 0.303336 0.753781 0.073381
O O8 0.470876 0.696925 0.012170
O O9 0.983386 0.927264 0.657860
O O10 0.913019 0.971502 0.425831
O O11 0.221197 0.819713 0.310432
O O12 0.066658 0.683472 0.735071
O O13 0.107041 0.766509 0.502598
O O14 0.389623 0.400297 0.476089
#
# Coordination Sequence:
#
# PCOD9459781 Si02
#       7
#     8   8   8   8   8   8   8
#     4  10  23  41  65  95 129 169 215 271 329 388
#     4  11  21  36  58  92 126 157 209 260 321 378
#     4  10  24  41  65  94 129 172 220 259 318 399
#     4  10  21  34  59  93 122 158 204 270 319 379
#     4  11  22  35  63  95 126 166 205 276 327 385
#     4  11  20  38  60  93 125 164 216 258 334 384
#     4  11  23  43  69  91 130 181 215 265 326 391
#
# _framework density 21.253682999999999
#
# number of rings (size 3 to 8) (size 9 to 14) (size 15 to 20)
#    0.000    1.429    1.429    6.000    4.000    2.286 
#    0.000    0.000    0.000    4.286    0.000    0.000 
#    0.000    0.000    0.000    0.000    0.000    0.000 
#
# Total GULP energy -312134.593561 kJ/mol
# GULP energy per Si atom -5573.832028 kJ/mol
# Density = 2.120531 g / cm^3
# Si number density = 21.253683 Si / 1000 Ang^3
#
#
#
# Elastic Constant Matrix: (Units=GPa)
#
#
# Indices 1 2 3 4 5 6 
#
# 1 125.2331 24.8172 31.6151 0.0000 0.0000 0.0000
# 2 24.8172 53.5518 16.1760 0.0000 0.0000 0.0000
# 3 31.6151 16.1760 79.1924 0.0000 0.0000 0.0000
# 4 0.0000 0.0000 0.0000 16.2743 0.0000 0.0000
# 5 0.0000 0.0000 0.0000 0.0000 32.1156 0.0000
# 6 0.0000 0.0000 0.0000 0.0000 0.0000 25.7717
#
#
#
# Elastic Compliance Matrix: (Units=1/GPa)
#
#
# Indices 1 2 3 4 5 6 
#
# 1 0.009443 -0.003450 -0.003065 0.000000 0.000000 0.000000
# 2 -0.003450 0.021162 -0.002945 0.000000 0.000000 0.000000
# 3 -0.003065 -0.002945 0.014453 0.000000 0.000000 0.000000
# 4 0.000000 0.000000 0.000000 0.061446 0.000000 0.000000
# 5 0.000000 0.000000 0.000000 0.000000 0.031138 0.000000
# 6 0.000000 0.000000 0.000000 0.000000 0.000000 0.038802
#
#
# Mechanical properties :
#
#
# Convention : Reuss Voigt Hill
#
# Bulk Modulus (GPa) = 38.26042 44.79932 41.52987
# Shear Modulus (GPa) = 24.50066 27.19027 25.84546
#
# Velocity S-wave (km/s) = 3.39893 3.58064 3.49097
# Velocity P-wave (km/s) = 5.78312 6.18213 5.98595
#
# Compressibility (1/GPa) = 0.02613667
#
# Stress axis : x y z
#
# Youngs Moduli (GPa) = 105.90359 47.25450 69.19151
#
# Poissons Ratio (x) = 0.16303 0.21207
# Poissons Ratio (y) = 0.36538 0.20379
# Poissons Ratio (z) = 0.32459 0.13918
#
# Static dielectric constant tensor:
#      x y z
#    x 1.906700 0.000000 0.000000 
#    y 0.000000 1.730520 0.000000 
#    z 0.000000 0.000000 1.761570 
# 
# From -- ./inp_files/3049.got.cif
#   From: 2010.05.17/outbox.cif.g08.bks.cpg/sg61_2_cif.got.tgz:3049.got - 2010.06.03 15:17:17.
