data_PCOD9459823
_publ_section_title
;
Structure prediction by ZEFSAII (Michael W. Deem and Ramdas Pophale) SiO2 
 PCOD9459823
Probable space group: P B C A
;
_chemical_formula_sum "Si O2"
_cell_formula_units_Z 64
_cell_length_a 20.134330
_cell_length_b 5.237763
_cell_length_c 26.351594
_cell_angle_alpha 90.000000
_cell_angle_beta 90.000000
_cell_angle_gamma 90.000000
_cell_volume 2779.008765
_symmetry_space_group_name_H-M "P B C A"
_symmetry_group_IT_number 61
_symmetry_cell_setting 'orthorhombic'
loop_
_space_group_symop_operation_xyz
x,y,z
1/2-x,-y,1/2+z
1/2+x,1/2-y,-z
-x,1/2+y,1/2-z
-x,-y,-z
1/2+x,y,1/2-z
1/2-x,1/2+y,z
x,1/2-y,1/2+z
loop_
_atom_site_type_symbol
_atom_site_label
_atom_site_fract_x
_atom_site_fract_y
_atom_site_fract_z
Si Si1 0.081964 0.575367 0.228565
Si Si2 0.904296 0.944905 0.955175
Si Si3 0.211070 0.462329 0.616280
Si Si4 0.612932 0.265397 0.598824
Si Si5 0.231693 0.576142 0.226267
Si Si6 0.051422 0.762273 0.948578
Si Si7 0.561957 0.421389 0.705074
Si Si8 0.710350 0.174755 0.017960
O O1 0.156181 0.587730 0.207329
O O2 0.075171 0.297786 0.253691
O O3 0.017307 0.599348 0.193117
O O4 0.076378 0.802512 0.270353
O O5 0.862093 0.012643 0.905068
O O6 0.972913 0.804393 0.944147
O O7 0.852709 0.767366 0.985679
O O8 0.924302 0.170800 0.994225
O O9 0.258554 0.692361 0.598843
O O10 0.219999 0.445109 0.677154
O O11 0.571018 0.480740 0.568318
O O12 0.604025 0.346731 0.656480
O O13 0.686136 0.291185 0.575850
O O14 0.585673 0.982150 0.586314
O O15 0.246301 0.321767 0.256490
O O16 0.766948 0.386784 0.008756
#
# Coordination Sequence:
#
# PCOD9459823 Si02
#       8
#     8   8   8   8   8   8   8   8
#     4  10  21  40  63  92 120 156 200 245 316 380
#     4  10  22  40  60  89 124 165 208 242 307 362
#     4  10  22  36  56  86 122 162 200 239 291 370
#     4  11  23  42  61  90 119 153 207 256 306 352
#     4  10  21  37  57  88 127 158 191 242 301 370
#     4  10  24  38  62  90 124 161 202 262 297 351
#     4  10  22  40  67  88 117 158 201 258 308 371
#     4  11  23  39  60  82 117 161 203 250 292 350
#
# _framework density 23.029793999999999
#
# number of rings (size 3 to 8) (size 9 to 14) (size 15 to 20)
#    0.000    1.750    0.000    3.750    0.000   12.500 
#    0.000    3.750    0.000    0.000    0.000    0.000 
#    0.000    0.000    0.000    0.000    0.000    0.000 
#
# Total GULP energy -357676.229284 kJ/mol
# GULP energy per Si atom -5588.691083 kJ/mol
# Density = 2.297738 g / cm^3
# Si number density = 23.029794 Si / 1000 Ang^3
#
#
#
# Elastic Constant Matrix: (Units=GPa)
#
#
# Indices 1 2 3 4 5 6 
#
# 1 89.1408 13.4253 -2.0271 0.0000 0.0000 0.0000
# 2 13.4253 81.6372 -10.2413 0.0000 0.0000 0.0000
# 3 -2.0271 -10.2413 25.4242 0.0000 0.0000 0.0000
# 4 0.0000 0.0000 0.0000 16.6178 0.0000 0.0000
# 5 0.0000 0.0000 0.0000 0.0000 33.0770 0.0000
# 6 0.0000 0.0000 0.0000 0.0000 0.0000 30.3529
#
#
#
# Elastic Compliance Matrix: (Units=1/GPa)
#
#
# Indices 1 2 3 4 5 6 
#
# 1 0.011504 -0.001871 0.000163 0.000000 0.000000 0.000000
# 2 -0.001871 0.013206 0.005170 0.000000 0.000000 0.000000
# 3 0.000163 0.005170 0.041428 0.000000 0.000000 0.000000
# 4 0.000000 0.000000 0.000000 0.060176 0.000000 0.000000
# 5 0.000000 0.000000 0.000000 0.000000 0.030232 0.000000
# 6 0.000000 0.000000 0.000000 0.000000 0.000000 0.032946
#
#
# Mechanical properties :
#
#
# Convention : Reuss Voigt Hill
#
# Bulk Modulus (GPa) = 13.68691 22.05733 17.87212
# Shear Modulus (GPa) = 24.16372 29.01256 26.58814
#
# Velocity S-wave (km/s) = 3.24271 3.55319 3.40150
# Velocity P-wave (km/s) = 4.46948 5.14122 4.81707
#
# Compressibility (1/GPa) = 0.07306251
#
# Stress axis : x y z
#
# Youngs Moduli (GPa) = 86.92818 75.72506 24.13808
#
# Poissons Ratio (x) = 0.14170 -0.00394
# Poissons Ratio (y) = 0.16267 -0.12480
# Poissons Ratio (z) = -0.01420 -0.39152
#
# Static dielectric constant tensor:
#      x y z
#    x 1.879970 0.000000 0.000000 
#    y 0.000000 1.928800 0.000000 
#    z 0.000000 0.000000 1.910680 
# 
# From -- ./inp_files/11841.got.cif
#   From: 2010.05.17/outbox.cif.g08.bks.cpg/sg61_6_cif.got.tgz:11841.got - 2010.06.03 15:17:17.
