data_PCOD9459599
_publ_section_title
;
Structure prediction by ZEFSAII (Michael W. Deem and Ramdas Pophale) SiO2 
 PCOD9459599
Probable space group: P B C A
;
_chemical_formula_sum "Si O2"
_cell_formula_units_Z 56
_cell_length_a 10.789451
_cell_length_b 18.567029
_cell_length_c 13.502839
_cell_angle_alpha 90.000000
_cell_angle_beta 90.000000
_cell_angle_gamma 90.000000
_cell_volume 2704.997401
_symmetry_space_group_name_H-M "P B C A"
_symmetry_group_IT_number 61
_symmetry_cell_setting 'orthorhombic'
loop_
_space_group_symop_operation_xyz
x,y,z
1/2-x,-y,1/2+z
1/2+x,1/2-y,-z
-x,1/2+y,1/2-z
-x,-y,-z
1/2+x,y,1/2-z
1/2-x,1/2+y,z
x,1/2-y,1/2+z
loop_
_atom_site_type_symbol
_atom_site_label
_atom_site_fract_x
_atom_site_fract_y
_atom_site_fract_z
Si Si1 0.313607 0.832513 0.824775
Si Si2 0.758737 0.939610 0.394702
Si Si3 0.021846 0.805195 0.832489
Si Si4 0.438614 0.823018 0.027714
Si Si5 0.110526 0.942575 0.506371
Si Si6 0.223712 0.996197 0.308856
Si Si7 0.573105 0.552150 0.070220
O O1 0.169306 0.810657 0.803520
O O2 0.420257 0.800789 0.754241
O O3 0.325332 0.920715 0.814347
O O4 0.347771 0.806931 0.936056
O O5 0.868049 0.880754 0.400723
O O6 0.679217 0.922093 0.492722
O O7 0.804001 0.022219 0.411139
O O8 0.697586 0.949314 0.288243
O O9 0.999654 0.880414 0.889461
O O10 0.991481 0.741739 0.908797
O O11 0.553274 0.865476 0.977642
O O12 0.176141 0.950274 0.401467
O O13 0.000000 0.000000 0.500000
O O14 0.368018 0.010439 0.336220
O O15 0.500000 0.500000 0.000000
#
# Coordination Sequence:
#
# PCOD9459599 Si02
#       7
#     8   8   8   8   8   8   8
#     4  11  24  47  69  98 136 187 236 279 355 432
#     4  10  20  39  66  96 135 169 230 293 341 418
#     4  11  26  45  70  99 136 186 233 281 356 419
#     4  11  23  44  64  92 144 177 225 292 348 421
#     4   9  18  36  62  91 120 168 215 272 340 398
#     4  10  20  38  67  98 130 174 231 283 349 409
#     4  10  21  42  61  98 136 172 235 290 343 417
#
# _framework density 20.702421999999999
#
# number of rings (size 3 to 8) (size 9 to 14) (size 15 to 20)
#    0.000    1.714    5.714    0.857    4.000    4.571 
#   10.286    0.000    0.000    0.000    0.000    0.000 
#    0.000    0.000    0.000    0.000    0.000    0.000 
#
# Total GULP energy -311928.611479 kJ/mol
# GULP energy per Si atom -5570.153776 kJ/mol
# Density = 2.065530 g / cm^3
# Si number density = 20.702422 Si / 1000 Ang^3
#
#
#
# Elastic Constant Matrix: (Units=GPa)
#
#
# Indices 1 2 3 4 5 6 
#
# 1 78.8302 38.7509 24.9601 0.0000 0.0000 0.0000
# 2 38.7509 44.7117 21.5728 0.0000 0.0000 0.0000
# 3 24.9601 21.5728 70.4679 0.0000 0.0000 0.0000
# 4 0.0000 0.0000 0.0000 28.9447 0.0000 0.0000
# 5 0.0000 0.0000 0.0000 0.0000 23.5507 0.0000
# 6 0.0000 0.0000 0.0000 0.0000 0.0000 21.6589
#
#
#
# Elastic Compliance Matrix: (Units=1/GPa)
#
#
# Indices 1 2 3 4 5 6 
#
# 1 0.022425 -0.018307 -0.002339 0.000000 0.000000 0.000000
# 2 -0.018307 0.041187 -0.006124 0.000000 0.000000 0.000000
# 3 -0.002339 -0.006124 0.016894 0.000000 0.000000 0.000000
# 4 0.000000 0.000000 0.000000 0.034549 0.000000 0.000000
# 5 0.000000 0.000000 0.000000 0.000000 0.042462 0.000000
# 6 0.000000 0.000000 0.000000 0.000000 0.000000 0.046170
#
#
# Mechanical properties :
#
#
# Convention : Reuss Voigt Hill
#
# Bulk Modulus (GPa) = 37.08378 40.50860 38.79619
# Shear Modulus (GPa) = 18.78167 22.07925 20.43046
#
# Velocity S-wave (km/s) = 3.01528 3.26928 3.14485
# Velocity P-wave (km/s) = 5.48400 5.81898 5.65397
#
# Compressibility (1/GPa) = 0.02696596
#
# Stress axis : x y z
#
# Youngs Moduli (GPa) = 44.59215 24.27934 59.19229
#
# Poissons Ratio (x) = 0.44449 0.13843
# Poissons Ratio (y) = 0.81637 0.36251
# Poissons Ratio (z) = 0.10428 0.14870
#
# Static dielectric constant tensor:
#      x y z
#    x 1.846850 0.000000 0.000000 
#    y 0.000000 1.727020 0.000000 
#    z 0.000000 0.000000 1.737040 
# 
# From -- ./inp_files/5342.got.cif
#   From: 2010.05.17/outbox.cif.g08.bks.cpg/sg61_3_cif.got.tgz:5342.got - 2010.06.03 15:17:17.
