data_PCOD9459398
_publ_section_title
;
Structure prediction by ZEFSAII (Michael W. Deem and Ramdas Pophale) SiO2 
 PCOD9459398
Probable space group: P B C A
;
_chemical_formula_sum "Si O2"
_cell_formula_units_Z 52
_cell_length_a 12.733979
_cell_length_b 6.920831
_cell_length_c 25.936305
_cell_angle_alpha 90.000000
_cell_angle_beta 90.000000
_cell_angle_gamma 90.000000
_cell_volume 2285.759210
_symmetry_space_group_name_H-M "P B C A"
_symmetry_group_IT_number 61
_symmetry_cell_setting 'orthorhombic'
loop_
_space_group_symop_operation_xyz
x,y,z
1/2-x,-y,1/2+z
1/2+x,1/2-y,-z
-x,1/2+y,1/2-z
-x,-y,-z
1/2+x,y,1/2-z
1/2-x,1/2+y,z
x,1/2-y,1/2+z
loop_
_atom_site_type_symbol
_atom_site_label
_atom_site_fract_x
_atom_site_fract_y
_atom_site_fract_z
Si Si1 0.500000 0.000000 0.000000
Si Si2 0.825525 0.559978 0.820976
Si Si3 0.424352 0.775268 0.441780
Si Si4 0.838833 0.723012 0.930628
Si Si5 0.509269 0.237629 0.174044
Si Si6 0.389875 0.933676 0.731320
Si Si7 0.864251 0.401042 0.482458
O O1 0.432884 0.910852 0.051411
O O2 0.606646 0.064284 0.038949
O O3 0.797344 0.655486 0.875659
O O4 0.900110 0.378780 0.831159
O O5 0.725438 0.510604 0.785451
O O6 0.894210 0.723562 0.793993
O O7 0.444445 0.784933 0.381908
O O8 0.374069 0.966594 0.466714
O O9 0.535046 0.758843 0.477725
O O10 0.739195 0.713316 0.968959
O O11 0.878142 0.942961 0.936103
O O12 0.586711 0.105778 0.208736
O O13 0.476140 0.428844 0.205357
#
# Coordination Sequence:
#
# PCOD9459398 Si02
#       7
#     4   8   8   8   8   8   8
#     4  10  20  34  62  90 128 156 212 254 322 392
#     4  12  23  41  69  99 128 178 231 285 338 410
#     4  10  21  41  60  94 131 174 207 270 333 400
#     4  11  20  36  61  94 123 168 213 270 324 390
#     4  12  24  44  68  98 139 178 222 290 346 402
#     4  12  26  42  69 102 132 174 237 287 341 404
#     4  10  22  36  62  96 131 165 220 266 323 410
#
# _framework density 22.749554
#
# number of rings (size 3 to 8) (size 9 to 14) (size 15 to 20)
#    0.000    0.923    4.615    3.692    0.000    0.000 
#    0.000    3.077    3.385    0.000    0.000    0.000 
#    0.000    0.000    0.000    0.000    0.000    0.000 
#
# Total GULP energy -289725.015930 kJ/mol
# GULP energy per Si atom -5571.634922 kJ/mol
# Density = 2.269778 g / cm^3
# Si number density = 22.749554 Si / 1000 Ang^3
#
#
#
# Elastic Constant Matrix: (Units=GPa)
#
#
# Indices 1 2 3 4 5 6 
#
# 1 78.8143 12.7898 47.5153 0.0000 0.0000 0.0000
# 2 12.7898 89.4252 40.8495 0.0000 0.0000 0.0000
# 3 47.5153 40.8495 184.6550 0.0000 0.0000 0.0000
# 4 0.0000 0.0000 0.0000 35.1443 0.0000 0.0000
# 5 0.0000 0.0000 0.0000 0.0000 32.7015 0.0000
# 6 0.0000 0.0000 0.0000 0.0000 0.0000 39.7823
#
#
#
# Elastic Compliance Matrix: (Units=1/GPa)
#
#
# Indices 1 2 3 4 5 6 
#
# 1 0.015032 -0.000426 -0.003774 0.000000 0.000000 0.000000
# 2 -0.000426 0.012452 -0.002645 0.000000 0.000000 0.000000
# 3 -0.003774 -0.002645 0.006972 0.000000 0.000000 0.000000
# 4 0.000000 0.000000 0.000000 0.028454 0.000000 0.000000
# 5 0.000000 0.000000 0.000000 0.000000 0.030580 0.000000
# 6 0.000000 0.000000 0.000000 0.000000 0.000000 0.025137
#
#
# Mechanical properties :
#
#
# Convention : Reuss Voigt Hill
#
# Bulk Modulus (GPa) = 48.15556 61.68930 54.92243
# Shear Modulus (GPa) = 35.90973 38.30828 37.10900
#
# Velocity S-wave (km/s) = 3.97732 4.10800 4.04319
# Velocity P-wave (km/s) = 6.50429 7.04816 6.78168
#
# Compressibility (1/GPa) = 0.02076603
#
# Stress axis : x y z
#
# Youngs Moduli (GPa) = 66.52310 80.31053 143.43691
#
# Poissons Ratio (x) = 0.03422 0.54131
# Poissons Ratio (y) = 0.02834 0.37938
# Poissons Ratio (z) = 0.25105 0.21242
#
# Static dielectric constant tensor:
#      x y z
#    x 1.946700 0.000000 0.000000 
#    y 0.000000 2.048760 0.000000 
#    z 0.000000 0.000000 1.913150 
# 
# From -- ./inp_files/4442.got.cif
#   From: 2010.05.17/outbox.cif.g08.bks.cpg/sg61_3_cif.got.tgz:4442.got - 2010.06.03 15:17:17.
