data_PCOD9459290
_publ_section_title
;
Structure prediction by ZEFSAII (Michael W. Deem and Ramdas Pophale) SiO2 
 PCOD9459290
Probable space group: P B C A
;
_chemical_formula_sum "Si O2"
_cell_formula_units_Z 48
_cell_length_a 13.480189
_cell_length_b 27.828810
_cell_length_c 5.250532
_cell_angle_alpha 90.000000
_cell_angle_beta 90.000000
_cell_angle_gamma 90.000000
_cell_volume 1969.672070
_symmetry_space_group_name_H-M "P B C A"
_symmetry_group_IT_number 61
_symmetry_cell_setting 'orthorhombic'
loop_
_space_group_symop_operation_xyz
x,y,z
1/2-x,-y,1/2+z
1/2+x,1/2-y,-z
-x,1/2+y,1/2-z
-x,-y,-z
1/2+x,y,1/2-z
1/2-x,1/2+y,z
x,1/2-y,1/2+z
loop_
_atom_site_type_symbol
_atom_site_label
_atom_site_fract_x
_atom_site_fract_y
_atom_site_fract_z
Si Si1 0.127745 0.221132 0.851109
Si Si2 0.685614 0.675681 0.444942
Si Si3 0.643924 0.906692 0.323410
Si Si4 0.311195 0.992797 0.662991
Si Si5 0.832193 0.890021 0.629006
Si Si6 0.488022 0.343779 0.824805
O O1 0.110103 0.262077 0.064883
O O2 0.244875 0.208053 0.878651
O O3 0.056709 0.179159 0.955077
O O4 0.638810 0.631682 0.601119
O O5 0.765054 0.650947 0.259096
O O6 0.592040 0.694311 0.285032
O O7 0.618534 0.962020 0.269395
O O8 0.762081 0.905058 0.395531
O O9 0.577442 0.885968 0.549718
O O10 0.276422 0.001174 0.373470
O O11 0.345610 0.938397 0.704931
O O12 0.938719 0.865952 0.613962
#
# Coordination Sequence:
#
# PCOD9459290 Si02
#       6
#     8   8   8   8   8   8
#     4  11  28  47  70  97 127 168 215 273 338 405
#     4  10  22  42  67  92 131 172 216 269 334 393
#     4  10  21  38  66  92 134 179 219 269 326 385
#     4  10  19  37  63  93 132 182 226 261 312 379
#     4   9  20  39  61  93 132 180 217 269 316 385
#     4  10  24  41  66  98 131 168 218 274 337 393
#
# _framework density 24.369539
#
# number of rings (size 3 to 8) (size 9 to 14) (size 15 to 20)
#    0.000    2.000    1.667    0.000    9.333    3.333 
#    0.000    0.833    0.000    0.000    0.000    0.000 
#    0.000    0.000    0.000    0.000    0.000    0.000 
#
# Total GULP energy -267947.408519 kJ/mol
# GULP energy per Si atom -5582.237677 kJ/mol
# Density = 2.431407 g / cm^3
# Si number density = 24.369539 Si / 1000 Ang^3
#
#
#
# Elastic Constant Matrix: (Units=GPa)
#
#
# Indices 1 2 3 4 5 6 
#
# 1 139.2802 29.4844 17.6340 0.0000 0.0000 0.0000
# 2 29.4844 59.8863 8.3328 0.0000 0.0000 0.0000
# 3 17.6340 8.3328 55.5838 0.0000 0.0000 0.0000
# 4 0.0000 0.0000 0.0000 38.0426 0.0000 0.0000
# 5 0.0000 0.0000 0.0000 0.0000 18.3255 0.0000
# 6 0.0000 0.0000 0.0000 0.0000 0.0000 18.1881
#
#
#
# Elastic Compliance Matrix: (Units=1/GPa)
#
#
# Indices 1 2 3 4 5 6 
#
# 1 0.008237 -0.003771 -0.002048 0.000000 0.000000 0.000000
# 2 -0.003771 0.018780 -0.001619 0.000000 0.000000 0.000000
# 3 -0.002048 -0.001619 0.018883 0.000000 0.000000 0.000000
# 4 0.000000 0.000000 0.000000 0.026286 0.000000 0.000000
# 5 0.000000 0.000000 0.000000 0.000000 0.054569 0.000000
# 6 0.000000 0.000000 0.000000 0.000000 0.000000 0.054981
#
#
# Mechanical properties :
#
#
# Convention : Reuss Voigt Hill
#
# Bulk Modulus (GPa) = 32.23201 40.62809 36.43005
# Shear Modulus (GPa) = 24.16000 28.19786 26.17893
#
# Velocity S-wave (km/s) = 3.15207 3.40530 3.28113
# Velocity P-wave (km/s) = 5.14805 5.67180 5.41626
#
# Compressibility (1/GPa) = 0.03102506
#
# Stress axis : x y z
#
# Youngs Moduli (GPa) = 121.39961 53.24816 52.95680
#
# Poissons Ratio (x) = 0.20078 0.10846
# Poissons Ratio (y) = 0.45774 0.08575
# Poissons Ratio (z) = 0.24863 0.08622
#
# Static dielectric constant tensor:
#      x y z
#    x 1.935850 0.000000 0.000000 
#    y 0.000000 2.037640 0.000000 
#    z 0.000000 0.000000 1.978450 
# 
# From -- ./inp_files/518.got.cif
#   From: 2010.05.17/outbox.cif.g08.bks.cpg/sg61_1_cif.got.tgz:518.got - 2010.06.03 15:17:17.
