data_PCOD9459882
_publ_section_title
;
Structure prediction by ZEFSAII (Michael W. Deem and Ramdas Pophale) SiO2 
 PCOD9459882
Probable space group: P B C A
;
_chemical_formula_sum "Si O2"
_cell_formula_units_Z 48
_cell_length_a 9.133264
_cell_length_b 16.427894
_cell_length_c 12.864610
_cell_angle_alpha 90.000000
_cell_angle_beta 90.000000
_cell_angle_gamma 90.000000
_cell_volume 1930.209852
_symmetry_space_group_name_H-M "P B C A"
_symmetry_group_IT_number 61
_symmetry_cell_setting 'orthorhombic'
loop_
_space_group_symop_operation_xyz
x,y,z
1/2-x,-y,1/2+z
1/2+x,1/2-y,-z
-x,1/2+y,1/2-z
-x,-y,-z
1/2+x,y,1/2-z
1/2-x,1/2+y,z
x,1/2-y,1/2+z
loop_
_atom_site_type_symbol
_atom_site_label
_atom_site_fract_x
_atom_site_fract_y
_atom_site_fract_z
Si Si1 0.781230 0.872572 0.174621
Si Si2 0.861721 0.586052 0.038953
Si Si3 0.488256 0.545839 0.683617
Si Si4 0.799755 0.790853 0.796963
Si Si5 0.131158 0.698821 0.008833
Si Si6 0.414072 0.350782 0.868229
O O1 0.882965 0.945856 0.216680
O O2 0.615943 0.890050 0.211525
O O3 0.839011 0.787757 0.226054
O O4 0.746444 0.861007 0.051487
O O5 0.689531 0.597720 0.056889
O O6 0.919029 0.526508 0.130162
O O7 0.888349 0.564158 0.918163
O O8 0.980994 0.659077 0.049387
O O9 0.681206 0.842035 0.734651
O O10 0.921161 0.856474 0.831074
O O11 0.720674 0.759186 0.900051
O O12 0.084849 0.762852 0.923046
#
# Coordination Sequence:
#
# PCOD9459882 Si02
#       6
#     8   8   8   8   8   8
#     4  10  21  39  62  91 125 170 217 262 331 387
#     4  10  22  41  61  90 127 168 215 262 324 389
#     4  10  22  40  63  87 126 175 216 262 315 398
#     4  11  22  36  59  90 121 157 206 267 325 380
#     4  10  21  38  61  91 124 159 211 275 327 381
#     4  11  22  36  60  89 123 160 203 265 328 379
#
# _framework density 24.867761000000002
#
# number of rings (size 3 to 8) (size 9 to 14) (size 15 to 20)
#    0.000    1.667    0.000    6.000    0.000    8.000 
#    0.000    0.000    0.000    7.000    0.000    0.000 
#    0.000    0.000    0.000    0.000    0.000    0.000 
#
# Total GULP energy -267520.128272 kJ/mol
# GULP energy per Si atom -5573.336006 kJ/mol
# Density = 2.481116 g / cm^3
# Si number density = 24.867761 Si / 1000 Ang^3
#
#
#
# Elastic Constant Matrix: (Units=GPa)
#
#
# Indices 1 2 3 4 5 6 
#
# 1 51.8102 2.1005 25.4083 0.0000 0.0000 0.0000
# 2 2.1005 24.5192 9.7933 0.0000 0.0000 0.0000
# 3 25.4083 9.7933 56.9870 0.0000 0.0000 0.0000
# 4 0.0000 0.0000 0.0000 35.6316 0.0000 0.0000
# 5 0.0000 0.0000 0.0000 0.0000 45.4137 0.0000
# 6 0.0000 0.0000 0.0000 0.0000 0.0000 32.8644
#
#
#
# Elastic Compliance Matrix: (Units=1/GPa)
#
#
# Indices 1 2 3 4 5 6 
#
# 1 0.024841 0.002465 -0.011499 0.000000 0.000000 0.000000
# 2 0.002465 0.044035 -0.008666 0.000000 0.000000 0.000000
# 3 -0.011499 -0.008666 0.024164 0.000000 0.000000 0.000000
# 4 0.000000 0.000000 0.000000 0.028065 0.000000 0.000000
# 5 0.000000 0.000000 0.000000 0.000000 0.022020 0.000000
# 6 0.000000 0.000000 0.000000 0.000000 0.000000 0.030428
#
#
# Mechanical properties :
#
#
# Convention : Reuss Voigt Hill
#
# Bulk Modulus (GPa) = 17.34964 23.10230 20.22597
# Shear Modulus (GPa) = 21.91387 29.18288 25.54838
#
# Velocity S-wave (km/s) = 2.97175 3.42939 3.20874
# Velocity P-wave (km/s) = 4.33209 4.99912 4.67751
#
# Compressibility (1/GPa) = 0.05763809
#
# Stress axis : x y z
#
# Youngs Moduli (GPa) = 40.25681 22.70943 41.38362
#
# Poissons Ratio (x) = -0.05597 0.47587
# Poissons Ratio (y) = -0.09922 0.35864
# Poissons Ratio (z) = 0.46291 0.19681
#
# Static dielectric constant tensor:
#      x y z
#    x 1.963950 0.000000 0.000000 
#    y 0.000000 2.111240 0.000000 
#    z 0.000000 0.000000 1.999410 
# 
# From -- ./inp_files/7040.got.cif
#   From: 2010.05.17/outbox.cif.g08.bks.cpg/sg61_4_cif.got.tgz:7040.got - 2010.06.03 15:17:17.
