data_PCOD9459521
_publ_section_title
;
Structure prediction by ZEFSAII (Michael W. Deem and Ramdas Pophale) SiO2 
 PCOD9459521
Probable space group: P B C A
;
_chemical_formula_sum "Si O2"
_cell_formula_units_Z 40
_cell_length_a 18.052738
_cell_length_b 9.044059
_cell_length_c 9.394862
_cell_angle_alpha 90.000000
_cell_angle_beta 90.000000
_cell_angle_gamma 90.000000
_cell_volume 1533.899378
_symmetry_space_group_name_H-M "P B C A"
_symmetry_group_IT_number 61
_symmetry_cell_setting 'orthorhombic'
loop_
_space_group_symop_operation_xyz
x,y,z
1/2-x,-y,1/2+z
1/2+x,1/2-y,-z
-x,1/2+y,1/2-z
-x,-y,-z
1/2+x,y,1/2-z
1/2-x,1/2+y,z
x,1/2-y,1/2+z
loop_
_atom_site_type_symbol
_atom_site_label
_atom_site_fract_x
_atom_site_fract_y
_atom_site_fract_z
Si Si1 0.536689 0.961829 0.147675
Si Si2 0.238808 0.887806 0.210483
Si Si3 0.431800 0.943575 0.401396
Si Si4 0.841796 0.272725 0.561470
Si Si5 0.856915 0.670749 0.333173
O O1 0.591171 0.833203 0.099616
O O2 0.474996 0.904151 0.258316
O O3 0.583088 0.093085 0.226817
O O4 0.500000 0.000000 0.000000
O O5 0.223799 0.816833 0.363959
O O6 0.321390 0.832888 0.179826
O O7 0.213027 0.056739 0.191632
O O8 0.182156 0.807768 0.099073
O O9 0.370700 0.071528 0.377811
O O10 0.500000 0.000000 0.500000
O O11 0.390631 0.833931 0.508673
#
# Coordination Sequence:
#
# PCOD9459521 Si02
#       5
#     8   8   8   8   8
#     4  10  20  37  62  88 115 152 203 248 297 354
#     4  10  21  39  61  85 120 157 197 239 303 359
#     4   9  19  38  59  81 116 153 196 243 295 352
#     4  10  21  39  59  81 121 159 188 251 309 343
#     4   9  21  41  62  87 120 161 198 247 300 356
#
# _framework density 26.07733
#
# number of rings (size 3 to 8) (size 9 to 14) (size 15 to 20)
#    0.000    2.400    0.000    2.400    0.000    6.400 
#    0.000   22.000    0.000    0.000    0.000    0.000 
#    0.000    0.000    0.000    0.000    0.000    0.000 
#
# Total GULP energy -223717.979087 kJ/mol
# GULP energy per Si atom -5592.949477 kJ/mol
# Density = 2.601798 g / cm^3
# Si number density = 26.077330 Si / 1000 Ang^3
#
#
#
# Elastic Constant Matrix: (Units=GPa)
#
#
# Indices 1 2 3 4 5 6 
#
# 1 125.0652 45.3590 27.6392 0.0000 0.0000 0.0000
# 2 45.3590 89.6078 48.0194 0.0000 0.0000 0.0000
# 3 27.6392 48.0194 115.9011 0.0000 0.0000 0.0000
# 4 0.0000 0.0000 0.0000 25.2166 0.0000 0.0000
# 5 0.0000 0.0000 0.0000 0.0000 23.8391 0.0000
# 6 0.0000 0.0000 0.0000 0.0000 0.0000 51.9047
#
#
#
# Elastic Compliance Matrix: (Units=1/GPa)
#
#
# Indices 1 2 3 4 5 6 
#
# 1 0.009806 -0.004769 -0.000362 0.000000 0.000000 0.000000
# 2 -0.004769 0.016664 -0.005767 0.000000 0.000000 0.000000
# 3 -0.000362 -0.005767 0.011104 0.000000 0.000000 0.000000
# 4 0.000000 0.000000 0.000000 0.039656 0.000000 0.000000
# 5 0.000000 0.000000 0.000000 0.000000 0.041948 0.000000
# 6 0.000000 0.000000 0.000000 0.000000 0.000000 0.019266
#
#
# Mechanical properties :
#
#
# Convention : Reuss Voigt Hill
#
# Bulk Modulus (GPa) = 63.38541 63.62325 63.50433
# Shear Modulus (GPa) = 30.21140 34.16250 32.18695
#
# Velocity S-wave (km/s) = 3.40741 3.62338 3.51706
# Velocity P-wave (km/s) = 6.31190 6.47735 6.39516
#
# Compressibility (1/GPa) = 0.01577650
#
# Stress axis : x y z
#
# Youngs Moduli (GPa) = 101.98157 60.00817 90.05949
#
# Poissons Ratio (x) = 0.28620 0.03263
# Poissons Ratio (y) = 0.48639 0.51937
# Poissons Ratio (z) = 0.03695 0.34606
#
# Static dielectric constant tensor:
#      x y z
#    x 1.948600 0.000000 0.000000 
#    y 0.000000 2.064160 0.000000 
#    z 0.000000 0.000000 1.998230 
# 
# From -- ./inp_files/3814.got.cif
#   From: 2010.05.17/outbox.cif.g08.bks.cpg/sg61_2_cif.got.tgz:3814.got - 2010.06.03 15:17:17.
