data_PCOD9459536
_publ_section_title
;
Structure prediction by ZEFSAII (Michael W. Deem and Ramdas Pophale) SiO2 
 PCOD9459536
Probable space group: P B C A
;
_chemical_formula_sum "Si O2"
_cell_formula_units_Z 60
_cell_length_a 31.888302
_cell_length_b 16.927115
_cell_length_c 4.858500
_cell_angle_alpha 90.000000
_cell_angle_beta 90.000000
_cell_angle_gamma 90.000000
_cell_volume 2622.506336
_symmetry_space_group_name_H-M "P B C A"
_symmetry_group_IT_number 61
_symmetry_cell_setting 'orthorhombic'
loop_
_space_group_symop_operation_xyz
x,y,z
1/2-x,-y,1/2+z
1/2+x,1/2-y,-z
-x,1/2+y,1/2-z
-x,-y,-z
1/2+x,y,1/2-z
1/2-x,1/2+y,z
x,1/2-y,1/2+z
loop_
_atom_site_type_symbol
_atom_site_label
_atom_site_fract_x
_atom_site_fract_y
_atom_site_fract_z
Si Si1 0.892690 0.589868 0.229538
Si Si2 0.056106 0.361037 0.233919
Si Si3 0.356146 0.303684 0.761710
Si Si4 0.031110 0.799492 0.117083
Si Si5 0.577745 0.579839 0.499057
Si Si6 0.500000 0.500000 0.500000
Si Si7 0.709499 0.925785 0.881441
Si Si8 0.195225 0.467692 0.618613
O O1 0.919813 0.604079 0.503388
O O2 0.902412 0.501000 0.118531
O O3 0.843741 0.586998 0.303362
O O4 0.908098 0.652794 0.997837
O O5 0.019382 0.305748 0.353866
O O6 0.026227 0.421232 0.068205
O O7 0.361344 0.273415 0.070254
O O8 0.388151 0.371159 0.663698
O O9 0.311438 0.343976 0.703285
O O10 0.042604 0.725508 0.311891
O O11 0.056730 0.871989 0.247145
O O12 0.536605 0.551506 0.332847
O O13 0.697511 0.955045 0.185111
O O14 0.759683 0.926151 0.851998
O O15 0.692062 0.995707 0.684974
#
# Coordination Sequence:
#
# PCOD9459536 Si02
#       8
#     8   8   8   8   8   4   8   8
#     4  11  21  36  62  92 118 146 194 266 313 347
#     4  10  22  36  57  85 115 152 200 252 309 352
#     4  12  25  39  60  89 130 170 197 236 293 381
#     4  11  23  40  57  78 116 165 205 243 292 371
#     4  10  22  37  60  87 121 155 207 246 307 356
#     4   8  20  36  54  82 114 154 192 260 298 338
#     4  10  21  39  60  91 122 158 199 240 307 360
#     4  10  20  37  65  91 119 149 195 265 304 356
#
# _framework density 22.878878
#
# number of rings (size 3 to 8) (size 9 to 14) (size 15 to 20)
#    0.000    1.600    1.333    3.200    1.867    8.000 
#    0.000    0.000    0.000    4.800    0.000    0.000 
#    0.000    0.000    0.000    0.000    0.000    0.000 
#
# Total GULP energy -334235.499258 kJ/mol
# GULP energy per Si atom -5570.591654 kJ/mol
# Density = 2.282681 g / cm^3
# Si number density = 22.878878 Si / 1000 Ang^3
#
#
#
# Elastic Constant Matrix: (Units=GPa)
#
#
# Indices 1 2 3 4 5 6 
#
# 1 95.3653 38.0268 36.3031 0.0000 0.0000 0.0000
# 2 38.0268 -22.4680 -28.0346 0.0000 0.0000 0.0000
# 3 36.3031 -28.0346 50.2091 0.0000 0.0000 0.0000
# 4 0.0000 0.0000 0.0000 19.1726 0.0000 0.0000
# 5 0.0000 0.0000 0.0000 0.0000 17.6123 0.0000
# 6 0.0000 0.0000 0.0000 0.0000 0.0000 33.8639
#
#
#
# Elastic Compliance Matrix: (Units=1/GPa)
#
#
# Indices 1 2 3 4 5 6 
#
# 1 0.006318 0.009662 0.000827 0.000000 0.000000 0.000000
# 2 0.009662 -0.011456 -0.013383 0.000000 0.000000 0.000000
# 3 0.000827 -0.013383 0.011847 0.000000 0.000000 0.000000
# 4 0.000000 0.000000 0.000000 0.052158 0.000000 0.000000
# 5 0.000000 0.000000 0.000000 0.000000 0.056779 0.000000
# 6 0.000000 0.000000 0.000000 0.000000 0.000000 0.029530
#
#
# Mechanical properties :
#
#
# Convention : Reuss Voigt Hill
#
# Bulk Modulus (GPa) = 1084.58840 23.96634 554.27737
# Shear Modulus (GPa) = 33.05339 19.25049 26.15194
#
# Velocity S-wave (km/s) = 3.80506 2.90385 3.38459
# Velocity P-wave (km/s) = 22.23489 4.66275 16.06443
#
# Compressibility (1/GPa) = 0.00092201
#
# Stress axis : x y z
#
# Youngs Moduli (GPa) = 158.26722 -87.29210 84.41191
#
# Poissons Ratio (x) = 0.84346 -0.06978
# Poissons Ratio (y) = -1.52925 1.12966
# Poissons Ratio (z) = -0.13083 -1.16821
#
# Static dielectric constant tensor:
#      x y z
#    x 11.722240 0.000000 0.000000 
#    y 0.000000 1.990170 0.000000 
#    z 0.000000 0.000000 1.966980 
# 
# From -- ./inp_files/1376.got.cif
#   From: 2010.05.17/outbox.cif.g08.bks.cpg/sg61_1_cif.got.tgz:1376.got - 2010.06.03 15:17:17.
