data_PCOD9459135
_publ_section_title
;
Structure prediction by ZEFSAII (Michael W. Deem and Ramdas Pophale) SiO2 
 PCOD9459135
Probable space group: P B C A
;
_chemical_formula_sum "Si O2"
_cell_formula_units_Z 56
_cell_length_a 5.663756
_cell_length_b 17.947761
_cell_length_c 21.931581
_cell_angle_alpha 90.000000
_cell_angle_beta 90.000000
_cell_angle_gamma 90.000000
_cell_volume 2229.383349
_symmetry_space_group_name_H-M "P B C A"
_symmetry_group_IT_number 61
_symmetry_cell_setting 'orthorhombic'
loop_
_space_group_symop_operation_xyz
x,y,z
1/2-x,-y,1/2+z
1/2+x,1/2-y,-z
-x,1/2+y,1/2-z
-x,-y,-z
1/2+x,y,1/2-z
1/2-x,1/2+y,z
x,1/2-y,1/2+z
loop_
_atom_site_type_symbol
_atom_site_label
_atom_site_fract_x
_atom_site_fract_y
_atom_site_fract_z
Si Si1 0.248429 0.994425 0.915952
Si Si2 0.737135 0.998069 0.441785
Si Si3 0.585731 0.812294 0.772158
Si Si4 0.005883 0.356594 0.228568
Si Si5 0.691871 0.829593 0.973953
Si Si6 0.837456 0.660768 0.118201
Si Si7 0.990051 0.211750 0.599062
O O1 0.516864 0.021436 0.909727
O O2 0.236599 0.920712 0.875557
O O3 0.996243 0.033676 0.909708
O O4 0.246237 0.971937 0.988173
O O5 0.722404 0.088660 0.450722
O O6 0.332640 0.843868 0.750561
O O7 0.547322 0.724379 0.760022
O O8 0.573251 0.827967 0.843468
O O9 0.742392 0.391827 0.240258
O O10 0.058584 0.339632 0.156688
O O11 0.422861 0.826892 0.950323
O O12 0.828980 0.760986 0.942185
O O13 0.675182 0.826985 0.047438
O O14 0.657467 0.724514 0.134104
#
# Coordination Sequence:
#
# PCOD9459135 Si02
#       7
#     8   8   8   8   8   8   8
#     4   9  18  31  51  71  91 134 161 207 239 302
#     4   9  18  33  48  68 101 128 170 192 245 300
#     4  10  19  31  48  68  95 128 164 210 251 303
#     4  10  20  34  49  66  96 133 174 211 244 303
#     4  11  22  32  47  77 109 142 165 212 263 325
#     4  11  20  32  49  72 105 131 167 211 261 311
#     4  12  21  31  49  74 108 138 167 209 264 318
#
# _framework density 25.119050999999999
#
# number of rings (size 3 to 8) (size 9 to 14) (size 15 to 20)
#    0.000    1.714    5.714    1.714    0.000    0.000 
#    0.000    0.000    0.000    0.000    0.000    2.000 
#    0.000    0.000    0.000    0.000    0.000    0.000 
#
# Total GULP energy -311987.787703 kJ/mol
# GULP energy per Si atom -5571.210495 kJ/mol
# Density = 2.506188 g / cm^3
# Si number density = 25.119051 Si / 1000 Ang^3
#
#
#
# Elastic Constant Matrix: (Units=GPa)
#
#
# Indices 1 2 3 4 5 6 
#
# 1 196.6874 22.8080 24.5906 0.0000 0.0000 0.0000
# 2 22.8080 51.5713 18.1456 0.0000 0.0000 0.0000
# 3 24.5906 18.1456 76.6996 0.0000 0.0000 0.0000
# 4 0.0000 0.0000 0.0000 14.7997 0.0000 0.0000
# 5 0.0000 0.0000 0.0000 0.0000 37.2111 0.0000
# 6 0.0000 0.0000 0.0000 0.0000 0.0000 17.7369
#
#
#
# Elastic Compliance Matrix: (Units=1/GPa)
#
#
# Indices 1 2 3 4 5 6 
#
# 1 0.005474 -0.001967 -0.001290 0.000000 0.000000 0.000000
# 2 -0.001967 0.021858 -0.004541 0.000000 0.000000 0.000000
# 3 -0.001290 -0.004541 0.014526 0.000000 0.000000 0.000000
# 4 0.000000 0.000000 0.000000 0.067569 0.000000 0.000000
# 5 0.000000 0.000000 0.000000 0.000000 0.026874 0.000000
# 6 0.000000 0.000000 0.000000 0.000000 0.000000 0.056380
#
#
# Mechanical properties :
#
#
# Convention : Reuss Voigt Hill
#
# Bulk Modulus (GPa) = 38.07628 50.67184 44.37406
# Shear Modulus (GPa) = 23.03850 31.24382 27.14116
#
# Velocity S-wave (km/s) = 3.03177 3.53062 3.29066
# Velocity P-wave (km/s) = 5.23896 6.06934 5.66937
#
# Compressibility (1/GPa) = 0.02626307
#
# Stress axis : x y z
#
# Youngs Moduli (GPa) = 182.69763 45.74942 68.84435
#
# Poissons Ratio (x) = 0.08999 0.08878
# Poissons Ratio (y) = 0.35937 0.31259
# Poissons Ratio (z) = 0.23559 0.20773
#
# Static dielectric constant tensor:
#      x y z
#    x 2.123500 0.000000 0.000000 
#    y 0.000000 2.026350 0.000000 
#    z 0.000000 0.000000 2.124730 
# 
# From -- ./inp_files/1204.got.cif
#   From: 2010.05.17/outbox.cif.g08.bks.cpg/sg61_1_cif.got.tgz:1204.got - 2010.06.03 15:17:17.
