data_PCOD9459989
_publ_section_title
;
Structure prediction by ZEFSAII (Michael W. Deem and Ramdas Pophale) SiO2 
 PCOD9459989
Probable space group: P B C A
;
_chemical_formula_sum "Si O2"
_cell_formula_units_Z 40
_cell_length_a 5.504799
_cell_length_b 13.292743
_cell_length_c 21.291125
_cell_angle_alpha 90.000000
_cell_angle_beta 90.000000
_cell_angle_gamma 90.000000
_cell_volume 1557.954191
_symmetry_space_group_name_H-M "P B C A"
_symmetry_group_IT_number 61
_symmetry_cell_setting 'orthorhombic'
loop_
_space_group_symop_operation_xyz
x,y,z
1/2-x,-y,1/2+z
1/2+x,1/2-y,-z
-x,1/2+y,1/2-z
-x,-y,-z
1/2+x,y,1/2-z
1/2-x,1/2+y,z
x,1/2-y,1/2+z
loop_
_atom_site_type_symbol
_atom_site_label
_atom_site_fract_x
_atom_site_fract_y
_atom_site_fract_z
Si Si1 0.636337 0.099808 0.783850
Si Si2 0.291305 0.194158 0.056976
Si Si3 0.918431 0.285179 0.662561
Si Si4 0.380624 0.860476 0.420335
Si Si5 0.638442 0.046692 0.129573
O O1 0.910604 0.079514 0.763267
O O2 0.606142 0.220083 0.796884
O O3 0.562932 0.027598 0.841378
O O4 0.061719 0.177154 0.101056
O O5 0.357869 0.311665 0.067777
O O6 0.506515 0.124196 0.083094
O O7 0.253644 0.169514 0.984686
O O8 0.730737 0.200169 0.638653
O O9 0.768195 0.383230 0.682303
O O10 0.331205 0.975405 0.405383
#
# Coordination Sequence:
#
# PCOD9459989 Si02
#       5
#     8   8   8   8   8
#     4  11  28  49  73  97 136 182 234 300 362 406
#     4  11  21  40  66  96 142 182 222 280 343 427
#     4  10  24  42  67  98 134 178 231 284 342 424
#     4  10  21  40  62  98 139 183 219 270 349 414
#     4  10  25  41  67 101 132 175 239 287 344 419
#
# _framework density 25.674696999999998
#
# number of rings (size 3 to 8) (size 9 to 14) (size 15 to 20)
#    0.000    1.600    2.000    0.600   11.200    4.000 
#    0.000    0.000    0.000    0.000    0.000    0.000 
#    0.000    0.000    0.000    0.000    0.000    0.000 
#
# Total GULP energy -223740.821629 kJ/mol
# GULP energy per Si atom -5593.520541 kJ/mol
# Density = 2.561626 g / cm^3
# Si number density = 25.674697 Si / 1000 Ang^3
#
#
#
# Elastic Constant Matrix: (Units=GPa)
#
#
# Indices 1 2 3 4 5 6 
#
# 1 85.8270 41.5389 22.3421 0.0000 0.0000 0.0000
# 2 41.5389 123.9753 18.8867 0.0000 0.0000 0.0000
# 3 22.3421 18.8867 47.3757 0.0000 0.0000 0.0000
# 4 0.0000 0.0000 0.0000 32.1777 0.0000 0.0000
# 5 0.0000 0.0000 0.0000 0.0000 47.9769 0.0000
# 6 0.0000 0.0000 0.0000 0.0000 0.0000 38.2910
#
#
#
# Elastic Compliance Matrix: (Units=1/GPa)
#
#
# Indices 1 2 3 4 5 6 
#
# 1 0.015118 -0.004237 -0.005441 0.000000 0.000000 0.000000
# 2 -0.004237 0.009775 -0.001899 0.000000 0.000000 0.000000
# 3 -0.005441 -0.001899 0.024431 0.000000 0.000000 0.000000
# 4 0.000000 0.000000 0.000000 0.031077 0.000000 0.000000
# 5 0.000000 0.000000 0.000000 0.000000 0.020843 0.000000
# 6 0.000000 0.000000 0.000000 0.000000 0.000000 0.026116
#
#
# Mechanical properties :
#
#
# Convention : Reuss Voigt Hill
#
# Bulk Modulus (GPa) = 38.20967 46.96816 42.58891
# Shear Modulus (GPa) = 31.39988 35.31648 33.35818
#
# Velocity S-wave (km/s) = 3.50092 3.71285 3.60844
# Velocity P-wave (km/s) = 5.59075 6.05917 5.82967
#
# Compressibility (1/GPa) = 0.02617139
#
# Stress axis : x y z
#
# Youngs Moduli (GPa) = 66.14597 102.30275 40.93213
#
# Poissons Ratio (x) = 0.43341 0.22270
# Poissons Ratio (y) = 0.28023 0.07773
# Poissons Ratio (z) = 0.35988 0.19426
#
# Static dielectric constant tensor:
#      x y z
#    x 2.032830 0.000000 0.000000 
#    y 0.000000 1.996530 0.000000 
#    z 0.000000 0.000000 2.054520 
# 
# From -- ./inp_files/214.got.cif
#   From: 2010.05.17/outbox.cif.g08.bks.cpg/sg61_1_cif.got.tgz:214.got - 2010.06.03 15:17:17.
