data_PCOD9459708
_publ_section_title
;
Structure prediction by ZEFSAII (Michael W. Deem and Ramdas Pophale) SiO2 
 PCOD9459708
Probable space group: P B C A
;
_chemical_formula_sum "Si O2"
_cell_formula_units_Z 48
_cell_length_a 17.593529
_cell_length_b 11.565640
_cell_length_c 9.153681
_cell_angle_alpha 90.000000
_cell_angle_beta 90.000000
_cell_angle_gamma 90.000000
_cell_volume 1862.594880
_symmetry_space_group_name_H-M "P B C A"
_symmetry_group_IT_number 61
_symmetry_cell_setting 'orthorhombic'
loop_
_space_group_symop_operation_xyz
x,y,z
1/2-x,-y,1/2+z
1/2+x,1/2-y,-z
-x,1/2+y,1/2-z
-x,-y,-z
1/2+x,y,1/2-z
1/2-x,1/2+y,z
x,1/2-y,1/2+z
loop_
_atom_site_type_symbol
_atom_site_label
_atom_site_fract_x
_atom_site_fract_y
_atom_site_fract_z
Si Si1 0.975970 0.833871 0.970286
Si Si2 0.341200 0.525760 0.896312
Si Si3 0.632016 0.124528 0.921018
Si Si4 0.424764 0.240809 0.236154
Si Si5 0.670536 0.568891 0.639468
Si Si6 0.798719 0.174973 0.929143
O O1 0.936028 0.712567 0.932919
O O2 0.026440 0.853522 0.824239
O O3 0.910129 0.925479 0.005463
O O4 0.023886 0.810316 0.117616
O O5 0.364932 0.556389 0.730949
O O6 0.256981 0.583229 0.920025
O O7 0.324384 0.389920 0.924680
O O8 0.710188 0.196901 0.927816
O O9 0.635633 0.039693 0.058817
O O10 0.392027 0.329865 0.357474
O O11 0.348578 0.222335 0.138533
O O12 0.687789 0.569065 0.812941
#
# Coordination Sequence:
#
# PCOD9459708 Si02
#       6
#     8   8   8   8   8   8
#     4  12  24  40  60  98 136 168 208 266 332 380
#     4  10  20  41  67  93 122 169 222 266 311 377
#     4  10  20  41  67  93 122 169 222 266 311 377
#     4  10  24  42  58  94 132 166 208 258 332 386
#     4   8  20  43  65  89 124 168 223 258 309 389
#     4   8  20  43  65  89 124 168 223 258 309 389
#
# _framework density 25.770499000000001
#
# number of rings (size 3 to 8) (size 9 to 14) (size 15 to 20)
#    1.000    1.333    1.667    0.000    2.333    2.667 
#    3.000    0.000    0.000    0.000    0.000    0.000 
#    0.000    0.000    0.000    0.000    0.000    0.000 
#
# Total GULP energy -267912.364279 kJ/mol
# GULP energy per Si atom -5581.507589 kJ/mol
# Density = 2.571184 g / cm^3
# Si number density = 25.770499 Si / 1000 Ang^3
#
#
#
# Elastic Constant Matrix: (Units=GPa)
#
#
# Indices 1 2 3 4 5 6 
#
# 1 151.8603 43.4004 39.0279 0.0000 0.0000 0.0000
# 2 43.4004 61.1649 43.6244 0.0000 0.0000 0.0000
# 3 39.0279 43.6244 104.9442 0.0000 0.0000 0.0000
# 4 0.0000 0.0000 0.0000 38.6130 0.0000 0.0000
# 5 0.0000 0.0000 0.0000 0.0000 36.8658 0.0000
# 6 0.0000 0.0000 0.0000 0.0000 0.0000 25.5905
#
#
#
# Elastic Compliance Matrix: (Units=1/GPa)
#
#
# Indices 1 2 3 4 5 6 
#
# 1 0.008321 -0.005255 -0.000910 0.000000 0.000000 0.000000
# 2 -0.005255 0.026558 -0.009086 0.000000 0.000000 0.000000
# 3 -0.000910 -0.009086 0.013644 0.000000 0.000000 0.000000
# 4 0.000000 0.000000 0.000000 0.025898 0.000000 0.000000
# 5 0.000000 0.000000 0.000000 0.000000 0.027125 0.000000
# 6 0.000000 0.000000 0.000000 0.000000 0.000000 0.039077
#
#
# Mechanical properties :
#
#
# Convention : Reuss Voigt Hill
#
# Bulk Modulus (GPa) = 55.48889 63.34167 59.41528
# Shear Modulus (GPa) = 28.22752 33.00830 30.61791
#
# Velocity S-wave (km/s) = 3.31319 3.58279 3.45062
# Velocity P-wave (km/s) = 6.01789 6.46124 6.24350
#
# Compressibility (1/GPa) = 0.01802163
#
# Stress axis : x y z
#
# Youngs Moduli (GPa) = 120.18212 37.65312 73.29167
#
# Poissons Ratio (x) = 0.19787 0.06669
# Poissons Ratio (y) = 0.63157 0.66591
# Poissons Ratio (z) = 0.10935 0.34211
#
# Static dielectric constant tensor:
#      x y z
#    x 2.021190 0.000000 0.000000 
#    y 0.000000 2.053570 0.000000 
#    z 0.000000 0.000000 2.031750 
# 
# From -- ./inp_files/3854.got.cif
#   From: 2010.05.17/outbox.cif.g08.bks.cpg/sg61_2_cif.got.tgz:3854.got - 2010.06.03 15:17:17.
