data_PCOD9459560
_publ_section_title
;
Structure prediction by ZEFSAII (Michael W. Deem and Ramdas Pophale) SiO2 
 PCOD9459560
Probable space group: P B C A
;
_chemical_formula_sum "Si O2"
_cell_formula_units_Z 48
_cell_length_a 16.508193
_cell_length_b 8.849900
_cell_length_c 16.723009
_cell_angle_alpha 90.000000
_cell_angle_beta 90.000000
_cell_angle_gamma 90.000000
_cell_volume 2443.162335
_symmetry_space_group_name_H-M "P B C A"
_symmetry_group_IT_number 61
_symmetry_cell_setting 'orthorhombic'
loop_
_space_group_symop_operation_xyz
x,y,z
1/2-x,-y,1/2+z
1/2+x,1/2-y,-z
-x,1/2+y,1/2-z
-x,-y,-z
1/2+x,y,1/2-z
1/2-x,1/2+y,z
x,1/2-y,1/2+z
loop_
_atom_site_type_symbol
_atom_site_label
_atom_site_fract_x
_atom_site_fract_y
_atom_site_fract_z
Si Si1 0.005342 0.192034 0.672190
Si Si2 0.327718 0.696894 0.591418
Si Si3 0.907873 0.497522 0.697387
Si Si4 0.745707 0.952146 0.810171
Si Si5 0.305830 0.797042 0.411273
Si Si6 0.340159 0.029837 0.836933
O O1 0.967362 0.358297 0.681278
O O2 0.931821 0.080173 0.652472
O O3 0.076671 0.188602 0.607394
O O4 0.046497 0.128065 0.752885
O O5 0.285181 0.538290 0.610899
O O6 0.311077 0.760495 0.504313
O O7 0.289001 0.802211 0.660061
O O8 0.833035 0.439692 0.752937
O O9 0.868016 0.574660 0.619777
O O10 0.811239 0.038828 0.755286
O O11 0.218043 0.859081 0.386439
O O12 0.324545 0.641409 0.364795
#
# Coordination Sequence:
#
# PCOD9459560 Si02
#       6
#     8   8   8   8   8   8
#     4  11  22  37  61  88 117 152 203 253 293 342
#     4  11  23  38  59  89 119 152 192 247 302 352
#     4  10  21  38  60  88 117 158 202 244 291 349
#     4  10  20  38  61  82 112 156 202 234 284 358
#     4  11  23  39  60  86 122 158 193 239 304 362
#     4  11  21  40  63  84 115 160 204 244 288 356
#
# _framework density 19.64667
#
# number of rings (size 3 to 8) (size 9 to 14) (size 15 to 20)
#    0.000    1.333    0.000    9.000    0.000    1.333 
#    0.000    3.333    0.000    0.000    0.000    0.000 
#    0.000    0.000    0.000    0.000    0.000    0.000 
#
# Total GULP energy -268254.045556 kJ/mol
# GULP energy per Si atom -5588.625949 kJ/mol
# Density = 1.960195 g / cm^3
# Si number density = 19.646670 Si / 1000 Ang^3
#
#
#
# Elastic Constant Matrix: (Units=GPa)
#
#
# Indices 1 2 3 4 5 6 
#
# 1 106.5133 37.6924 16.3380 0.0000 0.0000 0.0000
# 2 37.6924 69.3121 9.3525 0.0000 0.0000 0.0000
# 3 16.3380 9.3525 56.4206 0.0000 0.0000 0.0000
# 4 0.0000 0.0000 0.0000 18.0678 0.0000 0.0000
# 5 0.0000 0.0000 0.0000 0.0000 7.9485 0.0000
# 6 0.0000 0.0000 0.0000 0.0000 0.0000 39.9106
#
#
#
# Elastic Compliance Matrix: (Units=1/GPa)
#
#
# Indices 1 2 3 4 5 6 
#
# 1 0.011944 -0.006167 -0.002437 0.000000 0.000000 0.000000
# 2 -0.006167 0.017941 -0.001188 0.000000 0.000000 0.000000
# 3 -0.002437 -0.001188 0.018627 0.000000 0.000000 0.000000
# 4 0.000000 0.000000 0.000000 0.055347 0.000000 0.000000
# 5 0.000000 0.000000 0.000000 0.000000 0.125809 0.000000
# 6 0.000000 0.000000 0.000000 0.000000 0.000000 0.025056
#
#
# Mechanical properties :
#
#
# Convention : Reuss Voigt Hill
#
# Bulk Modulus (GPa) = 34.56716 39.89019 37.22867
# Shear Modulus (GPa) = 17.60866 24.44292 21.02579
#
# Velocity S-wave (km/s) = 2.99702 3.53104 3.27493
# Velocity P-wave (km/s) = 5.44139 6.08048 5.76979
#
# Compressibility (1/GPa) = 0.02892919
#
# Stress axis : x y z
#
# Youngs Moduli (GPa) = 83.72055 55.73714 53.68668
#
# Poissons Ratio (x) = 0.34372 0.13081
# Poissons Ratio (y) = 0.51628 0.06380
# Poissons Ratio (z) = 0.20399 0.06623
#
# Static dielectric constant tensor:
#      x y z
#    x 1.670870 0.000000 0.000000 
#    y 0.000000 1.710370 0.000000 
#    z 0.000000 0.000000 1.669190 
# 
# From -- ./inp_files/2833.got.cif
#   From: 2010.05.17/outbox.cif.g08.bks.cpg/sg61_2_cif.got.tgz:2833.got - 2010.06.03 15:17:17.
