data_PCOD9459142
_publ_section_title
;
Structure prediction by ZEFSAII (Michael W. Deem and Ramdas Pophale) SiO2 
 PCOD9459142
Probable space group: P B C A
;
_chemical_formula_sum "Si O2"
_cell_formula_units_Z 48
_cell_length_a 10.889379
_cell_length_b 9.829601
_cell_length_c 19.750706
_cell_angle_alpha 90.000000
_cell_angle_beta 90.000000
_cell_angle_gamma 90.000000
_cell_volume 2114.081020
_symmetry_space_group_name_H-M "P B C A"
_symmetry_group_IT_number 61
_symmetry_cell_setting 'orthorhombic'
loop_
_space_group_symop_operation_xyz
x,y,z
1/2-x,-y,1/2+z
1/2+x,1/2-y,-z
-x,1/2+y,1/2-z
-x,-y,-z
1/2+x,y,1/2-z
1/2-x,1/2+y,z
x,1/2-y,1/2+z
loop_
_atom_site_type_symbol
_atom_site_label
_atom_site_fract_x
_atom_site_fract_y
_atom_site_fract_z
Si Si1 0.594883 0.354838 0.834147
Si Si2 0.668502 0.358411 0.681632
Si Si3 0.155811 0.358565 0.516490
Si Si4 0.125208 0.832973 0.012605
Si Si5 0.881831 0.164552 0.683322
Si Si6 0.449458 0.351229 0.163582
O O1 0.666645 0.362700 0.763865
O O2 0.671264 0.366546 0.902290
O O3 0.516971 0.216876 0.835004
O O4 0.508332 0.490377 0.834190
O O5 0.788768 0.279462 0.659140
O O6 0.649533 0.513370 0.658954
O O7 0.555957 0.260173 0.662264
O O8 0.268308 0.269258 0.490053
O O9 0.152045 0.512598 0.488922
O O10 0.017034 0.301221 0.505865
O O11 0.125300 0.836459 0.094637
O O12 0.878999 0.165656 0.765593
#
# Coordination Sequence:
#
# PCOD9459142 Si02
#       6
#     8   8   8   8   8   8
#     4   9  19  35  53  76 107 142 182 226 273 329
#     4  10  19  31  51  78 108 142 179 223 275 331
#     4  10  22  40  61  85 114 149 191 238 285 336
#     4  10  22  40  61  85 114 149 191 238 285 336
#     4  10  19  31  51  78 108 142 179 223 275 331
#     4   9  19  35  53  76 107 142 182 226 273 329
#
# _framework density 22.704899999999999
#
# number of rings (size 3 to 8) (size 9 to 14) (size 15 to 20)
#    0.000    2.333    0.000    2.000    0.000    4.667 
#    0.000    3.333    0.000    0.000    0.000    0.000 
#    0.000    0.000    0.000    0.000    0.000    0.000 
#
# Total GULP energy -267971.820003 kJ/mol
# GULP energy per Si atom -5582.746250 kJ/mol
# Density = 2.265322 g / cm^3
# Si number density = 22.704900 Si / 1000 Ang^3
#
#
#
# Elastic Constant Matrix: (Units=GPa)
#
#
# Indices 1 2 3 4 5 6 
#
# 1 54.7313 38.1580 -6.8766 0.0000 0.0000 0.0000
# 2 38.1580 91.3784 -3.9641 0.0000 0.0000 0.0000
# 3 -6.8766 -3.9641 85.5569 0.0000 0.0000 0.0000
# 4 0.0000 0.0000 0.0000 9.7786 0.0000 0.0000
# 5 0.0000 0.0000 0.0000 0.0000 -0.7519 0.0000
# 6 0.0000 0.0000 0.0000 0.0000 0.0000 42.3822
#
#
#
# Elastic Compliance Matrix: (Units=1/GPa)
#
#
# Indices 1 2 3 4 5 6 
#
# 1 0.025989 -0.010784 0.001589 0.000000 0.000000 0.000000
# 2 -0.010784 0.015440 -0.000151 0.000000 0.000000 0.000000
# 3 0.001589 -0.000151 0.011809 0.000000 0.000000 0.000000
# 4 0.000000 0.000000 0.000000 0.102265 0.000000 0.000000
# 5 0.000000 0.000000 0.000000 0.000000 -1.329977 0.000000
# 6 0.000000 0.000000 0.000000 0.000000 0.000000 0.023595
#
#
# Mechanical properties :
#
#
# Convention : Reuss Voigt Hill
#
# Bulk Modulus (GPa) = 28.94660 31.81122 30.37891
# Shear Modulus (GPa) = -4.46160 23.90507 9.72173
#
# Velocity S-wave (km/s) = -1.40332 3.24830 2.07149
# Velocity P-wave (km/s) = 3.18606 5.30186 4.37383
#
# Compressibility (1/GPa) = 0.03454637
#
# Stress axis : x y z
#
# Youngs Moduli (GPa) = 38.47790 64.76695 84.68222
#
# Poissons Ratio (x) = 0.69842 -0.13458
# Poissons Ratio (y) = 0.41493 0.01282
# Poissons Ratio (z) = -0.06115 0.00980
#
# Static dielectric constant tensor:
#      x y z
#    x 1.862600 0.000000 0.000000 
#    y 0.000000 1.837350 0.000000 
#    z 0.000000 0.000000 1.876170 
# 
# From -- ./inp_files/4243.got.cif
#   From: 2010.05.17/outbox.cif.g08.bks.cpg/sg61_3_cif.got.tgz:4243.got - 2010.06.03 15:17:17.
