data_PCOD9459127
_publ_section_title
;
Structure prediction by ZEFSAII (Michael W. Deem and Ramdas Pophale) SiO2 
 PCOD9459127
Probable space group: P B C A
;
_chemical_formula_sum "Si O2"
_cell_formula_units_Z 60
_cell_length_a 9.610958
_cell_length_b 11.155813
_cell_length_c 21.937806
_cell_angle_alpha 90.000000
_cell_angle_beta 90.000000
_cell_angle_gamma 90.000000
_cell_volume 2352.128785
_symmetry_space_group_name_H-M "P B C A"
_symmetry_group_IT_number 61
_symmetry_cell_setting 'orthorhombic'
loop_
_space_group_symop_operation_xyz
x,y,z
1/2-x,-y,1/2+z
1/2+x,1/2-y,-z
-x,1/2+y,1/2-z
-x,-y,-z
1/2+x,y,1/2-z
1/2-x,1/2+y,z
x,1/2-y,1/2+z
loop_
_atom_site_type_symbol
_atom_site_label
_atom_site_fract_x
_atom_site_fract_y
_atom_site_fract_z
Si Si1 0.746048 0.639905 0.058276
Si Si2 0.064048 0.725733 0.640534
Si Si3 0.514094 0.394334 0.364043
Si Si4 0.857017 0.668296 0.400675
Si Si5 0.659052 0.085596 0.181636
Si Si6 0.000000 0.500000 0.000000
Si Si7 0.136610 0.124064 0.963299
Si Si8 0.788340 0.478857 0.306184
O O1 0.737374 0.635829 0.131344
O O2 0.672753 0.516655 0.036946
O O3 0.731514 0.781136 0.040960
O O4 0.902257 0.604274 0.034283
O O5 0.204018 0.769777 0.605657
O O6 0.114896 0.638053 0.694443
O O7 0.977477 0.833766 0.670252
O O8 0.965204 0.659934 0.591272
O O9 0.536691 0.254347 0.367134
O O10 0.371182 0.450117 0.341466
O O11 0.542603 0.446467 0.431932
O O12 0.631379 0.439197 0.317108
O O13 0.910978 0.650875 0.468488
O O14 0.838117 0.544100 0.367308
O O15 0.700266 0.070805 0.250902
#
# Coordination Sequence:
#
# PCOD9459127 Si02
#       8
#     8   8   8   8   8   4   8   8
#     4  10  23  42  67 101 135 181 227 286 352 417
#     4  10  25  46  65 100 139 177 225 293 347 411
#     4  10  21  40  68  97 127 178 225 276 341 419
#     4  11  23  41  70  98 132 180 222 283 354 411
#     4  10  23  44  68  91 133 191 222 274 343 421
#     4  10  18  42  70  96 130 182 222 270 358 430
#     4  11  24  43  70 102 141 174 229 298 352 422
#     4  11  24  42  66  99 132 179 239 279 337 418
#
# _framework density 25.508807999999998
#
# number of rings (size 3 to 8) (size 9 to 14) (size 15 to 20)
#    0.000    1.600    2.667    0.800    7.467    1.600 
#   12.000    0.000    0.000    0.000    0.000    0.000 
#    0.000    0.000    0.000    0.000    0.000    0.000 
#
# Total GULP energy -334483.335480 kJ/mol
# GULP energy per Si atom -5574.722258 kJ/mol
# Density = 2.545075 g / cm^3
# Si number density = 25.508808 Si / 1000 Ang^3
#
#
#
# Elastic Constant Matrix: (Units=GPa)
#
#
# Indices 1 2 3 4 5 6 
#
# 1 52.5935 39.8795 1.7556 0.0000 0.0000 0.0000
# 2 39.8795 105.8341 -3.8338 0.0000 0.0000 0.0000
# 3 1.7556 -3.8338 86.7459 0.0000 0.0000 0.0000
# 4 0.0000 0.0000 0.0000 18.4148 0.0000 0.0000
# 5 0.0000 0.0000 0.0000 0.0000 12.4788 0.0000
# 6 0.0000 0.0000 0.0000 0.0000 0.0000 30.8525
#
#
#
# Elastic Compliance Matrix: (Units=1/GPa)
#
#
# Indices 1 2 3 4 5 6 
#
# 1 0.026704 -0.010098 -0.000987 0.000000 0.000000 0.000000
# 2 -0.010098 0.013282 0.000791 0.000000 0.000000 0.000000
# 3 -0.000987 0.000791 0.011583 0.000000 0.000000 0.000000
# 4 0.000000 0.000000 0.000000 0.054304 0.000000 0.000000
# 5 0.000000 0.000000 0.000000 0.000000 0.080136 0.000000
# 6 0.000000 0.000000 0.000000 0.000000 0.000000 0.032412
#
#
# Mechanical properties :
#
#
# Convention : Reuss Voigt Hill
#
# Bulk Modulus (GPa) = 32.27647 35.64177 33.95912
# Shear Modulus (GPa) = 20.05332 26.17403 23.11367
#
# Velocity S-wave (km/s) = 2.80685 3.20672 3.01342
# Velocity P-wave (km/s) = 4.81509 5.26435 5.04472
#
# Compressibility (1/GPa) = 0.03098232
#
# Stress axis : x y z
#
# Youngs Moduli (GPa) = 37.44820 75.28740 86.33438
#
# Poissons Ratio (x) = 0.76025 0.08519
# Poissons Ratio (y) = 0.37815 -0.06832
# Poissons Ratio (z) = 0.03695 -0.05958
#
# Static dielectric constant tensor:
#      x y z
#    x 1.768290 0.000000 0.000000 
#    y 0.000000 2.023150 0.000000 
#    z 0.000000 0.000000 1.939140 
# 
# From -- ./inp_files/6503.got.cif
#   From: 2010.05.17/outbox.cif.g08.bks.cpg/sg61_4_cif.got.tgz:6503.got - 2010.06.03 15:17:17.
