data_PCOD9459613
_publ_section_title
;
Structure prediction by ZEFSAII (Michael W. Deem and Ramdas Pophale) SiO2 
 PCOD9459613
Probable space group: P B C A
;
_chemical_formula_sum "Si O2"
_cell_formula_units_Z 64
_cell_length_a 13.315487
_cell_length_b 30.519913
_cell_length_c 7.889965
_cell_angle_alpha 90.000000
_cell_angle_beta 90.000000
_cell_angle_gamma 90.000000
_cell_volume 3206.383189
_symmetry_space_group_name_H-M "P B C A"
_symmetry_group_IT_number 61
_symmetry_cell_setting 'orthorhombic'
loop_
_space_group_symop_operation_xyz
x,y,z
1/2-x,-y,1/2+z
1/2+x,1/2-y,-z
-x,1/2+y,1/2-z
-x,-y,-z
1/2+x,y,1/2-z
1/2-x,1/2+y,z
x,1/2-y,1/2+z
loop_
_atom_site_type_symbol
_atom_site_label
_atom_site_fract_x
_atom_site_fract_y
_atom_site_fract_z
Si Si1 0.363064 0.456209 0.957935
Si Si2 0.590938 0.057797 0.538083
Si Si3 0.788987 0.910478 0.354267
Si Si4 0.245153 0.898441 0.675545
Si Si5 0.926110 0.658885 0.958648
Si Si6 0.814491 0.788683 0.157481
Si Si7 0.351719 0.142225 0.856639
Si Si8 0.347941 0.693387 0.219340
O O1 0.384575 0.507035 0.924320
O O2 0.320401 0.426252 0.806490
O O3 0.471355 0.437966 0.018481
O O4 0.269170 0.453603 0.088498
O O5 0.639030 0.084094 0.693692
O O6 0.653202 0.075601 0.376692
O O7 0.861726 0.885666 0.483185
O O8 0.695229 0.878867 0.311532
O O9 0.181233 0.891345 0.504122
O O10 0.274082 0.848478 0.723370
O O11 0.866658 0.688193 0.819665
O O12 0.031843 0.649195 0.874469
O O13 0.933825 0.681122 0.143448
O O14 0.708428 0.812351 0.125791
O O15 0.803007 0.738030 0.204080
O O16 0.872738 0.797474 0.978842
#
# Coordination Sequence:
#
# PCOD9459613 Si02
#       8
#     8   8   8   8   8   8   8   8
#     4  11  21  37  63  91 117 168 202 257 335 379
#     4  10  23  39  58  90 127 154 213 262 315 394
#     4  10  20  39  61  83 123 160 200 258 308 369
#     4  10  22  40  60  88 125 160 206 264 309 381
#     4  11  21  41  63  88 120 164 209 249 307 373
#     4  10  22  42  59  87 128 155 203 263 303 361
#     4   9  22  40  60  89 120 160 205 252 307 370
#     4  11  21  40  62  85 122 164 201 255 311 366
#
# _framework density 19.960186
#
# number of rings (size 3 to 8) (size 9 to 14) (size 15 to 20)
#    0.000    1.750    2.500    2.250    1.750    0.000 
#    4.500    0.000    0.000    8.250    0.000    0.000 
#    0.000    0.000    0.000    0.000    0.000    0.000 
#
# Total GULP energy -356474.908569 kJ/mol
# GULP energy per Si atom -5569.920446 kJ/mol
# Density = 1.991476 g / cm^3
# Si number density = 19.960186 Si / 1000 Ang^3
#
#
#
# Elastic Constant Matrix: (Units=GPa)
#
#
# Indices 1 2 3 4 5 6 
#
# 1 98.8406 27.6249 10.8275 0.0000 0.0000 0.0000
# 2 27.6249 81.3213 6.1264 0.0000 0.0000 0.0000
# 3 10.8275 6.1264 68.8189 0.0000 0.0000 0.0000
# 4 0.0000 0.0000 0.0000 25.1670 0.0000 0.0000
# 5 0.0000 0.0000 0.0000 0.0000 20.0786 0.0000
# 6 0.0000 0.0000 0.0000 0.0000 0.0000 13.0639
#
#
#
# Elastic Compliance Matrix: (Units=1/GPa)
#
#
# Indices 1 2 3 4 5 6 
#
# 1 0.011320 -0.003736 -0.001448 0.000000 0.000000 0.000000
# 2 -0.003736 0.013613 -0.000624 0.000000 0.000000 0.000000
# 3 -0.001448 -0.000624 0.014814 0.000000 0.000000 0.000000
# 4 0.000000 0.000000 0.000000 0.039735 0.000000 0.000000
# 5 0.000000 0.000000 0.000000 0.000000 0.049804 0.000000
# 6 0.000000 0.000000 0.000000 0.000000 0.000000 0.076547
#
#
# Mechanical properties :
#
#
# Convention : Reuss Voigt Hill
#
# Bulk Modulus (GPa) = 35.54912 37.57093 36.56002
# Shear Modulus (GPa) = 22.04317 25.28871 23.66594
#
# Velocity S-wave (km/s) = 3.32679 3.56330 3.44707
# Velocity P-wave (km/s) = 5.71011 5.98275 5.84802
#
# Compressibility (1/GPa) = 0.02813009
#
# Stress axis : x y z
#
# Youngs Moduli (GPa) = 88.33733 73.45829 67.50222
#
# Poissons Ratio (x) = 0.27447 0.09777
# Poissons Ratio (y) = 0.33006 0.04212
# Poissons Ratio (z) = 0.12795 0.04584
#
# Static dielectric constant tensor:
#      x y z
#    x 1.673700 0.000000 0.000000 
#    y 0.000000 1.721730 0.000000 
#    z 0.000000 0.000000 1.789040 
# 
# From -- ./inp_files/2458.got.cif
#   From: 2010.05.17/outbox.cif.g08.bks.cpg/sg61_2_cif.got.tgz:2458.got - 2010.06.03 15:17:17.
