data_PCOD9459617
_publ_section_title
;
Structure prediction by ZEFSAII (Michael W. Deem and Ramdas Pophale) SiO2 
 PCOD9459617
Probable space group: P B C A
;
_chemical_formula_sum "Si O2"
_cell_formula_units_Z 64
_cell_length_a 10.889690
_cell_length_b 11.045871
_cell_length_c 22.601196
_cell_angle_alpha 90.000000
_cell_angle_beta 90.000000
_cell_angle_gamma 90.000000
_cell_volume 2718.609970
_symmetry_space_group_name_H-M "P B C A"
_symmetry_group_IT_number 61
_symmetry_cell_setting 'orthorhombic'
loop_
_space_group_symop_operation_xyz
x,y,z
1/2-x,-y,1/2+z
1/2+x,1/2-y,-z
-x,1/2+y,1/2-z
-x,-y,-z
1/2+x,y,1/2-z
1/2-x,1/2+y,z
x,1/2-y,1/2+z
loop_
_atom_site_type_symbol
_atom_site_label
_atom_site_fract_x
_atom_site_fract_y
_atom_site_fract_z
Si Si1 0.824893 0.011516 0.946053
Si Si2 0.259184 0.840987 0.771484
Si Si3 0.452160 0.814223 0.468404
Si Si4 0.068235 0.128149 0.563309
Si Si5 0.413169 0.494396 0.345696
Si Si6 0.548682 0.477172 0.229025
Si Si7 0.301762 0.827465 0.357792
Si Si8 0.374756 0.838849 0.656470
O O1 0.698296 0.078676 0.959319
O O2 0.931771 0.112914 0.942463
O O3 0.807662 0.936070 0.885666
O O4 0.875939 0.912609 0.992615
O O5 0.205127 0.751159 0.819782
O O6 0.294348 0.783087 0.709443
O O7 0.375306 0.882885 0.811752
O O8 0.174969 0.953759 0.755324
O O9 0.492568 0.701948 0.509285
O O10 0.359523 0.775492 0.416750
O O11 0.081807 0.232729 0.613416
O O12 0.998494 0.020794 0.597440
O O13 0.480426 0.435090 0.288193
O O14 0.282341 0.444781 0.368956
O O15 0.589690 0.370889 0.185582
O O16 0.471720 0.576072 0.191397
#
# Coordination Sequence:
#
# PCOD9459617 Si02
#       8
#     8   8   8   8   8   8   8   8
#     4  10  22  45  66  89 127 173 217 272 319 396
#     4  10  22  37  61  95 133 164 208 265 331 391
#     4  10  24  43  67  92 124 177 222 261 338 385
#     4  11  23  40  67  95 125 168 223 271 326 380
#     4  10  23  40  63  95 132 168 214 275 329 391
#     4  10  20  39  61  90 129 173 209 259 333 395
#     4  11  22  41  64  93 128 175 217 269 327 404
#     4  10  20  39  62  92 123 168 212 261 321 390
#
# _framework density 23.541442
#
# number of rings (size 3 to 8) (size 9 to 14) (size 15 to 20)
#    0.000    1.750    1.250    2.250    1.750    5.000 
#    9.000    1.250    0.000    0.000    0.000    0.000 
#    0.000    0.000    0.000    0.000    0.000    0.000 
#
# Total GULP energy -356908.290760 kJ/mol
# GULP energy per Si atom -5576.692043 kJ/mol
# Density = 2.348786 g / cm^3
# Si number density = 23.541442 Si / 1000 Ang^3
#
#
#
# Elastic Constant Matrix: (Units=GPa)
#
#
# Indices 1 2 3 4 5 6 
#
# 1 34.5802 3.1564 0.8964 0.0000 0.0000 0.0000
# 2 3.1564 41.2109 4.5699 0.0000 0.0000 0.0000
# 3 0.8964 4.5699 75.3105 0.0000 0.0000 0.0000
# 4 0.0000 0.0000 0.0000 35.0432 0.0000 0.0000
# 5 0.0000 0.0000 0.0000 0.0000 26.6817 0.0000
# 6 0.0000 0.0000 0.0000 0.0000 0.0000 18.8269
#
#
#
# Elastic Compliance Matrix: (Units=1/GPa)
#
#
# Indices 1 2 3 4 5 6 
#
# 1 0.029125 -0.002207 -0.000213 0.000000 0.000000 0.000000
# 2 -0.002207 0.024597 -0.001466 0.000000 0.000000 0.000000
# 3 -0.000213 -0.001466 0.013370 0.000000 0.000000 0.000000
# 4 0.000000 0.000000 0.000000 0.028536 0.000000 0.000000
# 5 0.000000 0.000000 0.000000 0.000000 0.037479 0.000000
# 6 0.000000 0.000000 0.000000 0.000000 0.000000 0.053115
#
#
# Mechanical properties :
#
#
# Convention : Reuss Voigt Hill
#
# Bulk Modulus (GPa) = 16.85776 18.70522 17.78149
# Shear Modulus (GPa) = 23.38981 25.60897 24.49939
#
# Velocity S-wave (km/s) = 3.15550 3.30180 3.22948
# Velocity P-wave (km/s) = 4.52246 4.74328 4.63419
#
# Compressibility (1/GPa) = 0.05931986
#
# Stress axis : x y z
#
# Youngs Moduli (GPa) = 34.33444 40.65529 74.79510
#
# Poissons Ratio (x) = 0.08973 0.01591
# Poissons Ratio (y) = 0.07578 0.10967
# Poissons Ratio (z) = 0.00730 0.05961
#
# Static dielectric constant tensor:
#      x y z
#    x 1.918290 0.000000 0.000000 
#    y 0.000000 2.078270 0.000000 
#    z 0.000000 0.000000 1.915500 
# 
# From -- ./inp_files/11017.got.cif
#   From: 2010.05.17/outbox.cif.g08.bks.cpg/sg61_6_cif.got.tgz:11017.got - 2010.06.03 15:17:17.
