data_PCOD9459390
_publ_section_title
;
Structure prediction by ZEFSAII (Michael W. Deem and Ramdas Pophale) SiO2 
 PCOD9459390
Probable space group: P B C A
;
_chemical_formula_sum "Si O2"
_cell_formula_units_Z 48
_cell_length_a 11.620150
_cell_length_b 8.479863
_cell_length_c 19.761880
_cell_angle_alpha 90.000000
_cell_angle_beta 90.000000
_cell_angle_gamma 90.000000
_cell_volume 1947.281904
_symmetry_space_group_name_H-M "P B C A"
_symmetry_group_IT_number 61
_symmetry_cell_setting 'orthorhombic'
loop_
_space_group_symop_operation_xyz
x,y,z
1/2-x,-y,1/2+z
1/2+x,1/2-y,-z
-x,1/2+y,1/2-z
-x,-y,-z
1/2+x,y,1/2-z
1/2-x,1/2+y,z
x,1/2-y,1/2+z
loop_
_atom_site_type_symbol
_atom_site_label
_atom_site_fract_x
_atom_site_fract_y
_atom_site_fract_z
Si Si1 0.657303 0.972245 0.231384
Si Si2 0.404016 0.384854 0.761210
Si Si3 0.897715 0.906679 0.597334
Si Si4 0.632604 0.521909 0.447797
Si Si5 0.097388 0.454030 0.401522
Si Si6 0.150920 0.614783 0.537776
O O1 0.782738 0.026246 0.259632
O O2 0.538274 0.073107 0.242610
O O3 0.671031 0.983767 0.148959
O O4 0.622404 0.797315 0.253626
O O5 0.405340 0.423843 0.841022
O O6 0.871252 0.726412 0.616103
O O7 0.030244 0.962389 0.604941
O O8 0.892614 0.920095 0.515390
O O9 0.655155 0.699347 0.472136
O O10 0.744385 0.443294 0.417075
O O11 0.161472 0.526248 0.466165
O O12 0.967016 0.432664 0.428150
#
# Coordination Sequence:
#
# PCOD9459390 Si02
#       6
#     8   8   8   8   8   8
#     4  12  26  46  70  96 128 168 216 268 324 384
#     4  12  26  46  70  96 128 168 216 268 324 384
#     4  10  21  38  59  86 121 161 206 254 310 375
#     4  10  20  34  56  86 121 160 202 251 308 371
#     4  10  21  38  59  86 121 161 206 254 310 375
#     4  10  20  34  56  86 121 160 202 251 308 371
#
# _framework density 24.649742
#
# number of rings (size 3 to 8) (size 9 to 14) (size 15 to 20)
#    0.000    1.333    0.000    6.000    0.000    5.333 
#    0.000    3.333    0.000    0.000    0.000    0.000 
#    0.000    0.000    0.000    0.000    0.000    0.000 
#
# Total GULP energy -268041.697410 kJ/mol
# GULP energy per Si atom -5584.202029 kJ/mol
# Density = 2.459364 g / cm^3
# Si number density = 24.649742 Si / 1000 Ang^3
#
#
#
# Elastic Constant Matrix: (Units=GPa)
#
#
# Indices 1 2 3 4 5 6 
#
# 1 92.4331 21.2061 6.7373 0.0000 0.0000 0.0000
# 2 21.2061 51.8128 -6.9647 0.0000 0.0000 0.0000
# 3 6.7373 -6.9647 52.8022 0.0000 0.0000 0.0000
# 4 0.0000 0.0000 0.0000 28.1956 0.0000 0.0000
# 5 0.0000 0.0000 0.0000 0.0000 16.7505 0.0000
# 6 0.0000 0.0000 0.0000 0.0000 0.0000 38.5787
#
#
#
# Elastic Compliance Matrix: (Units=1/GPa)
#
#
# Indices 1 2 3 4 5 6 
#
# 1 0.012198 -0.005295 -0.002255 0.000000 0.000000 0.000000
# 2 -0.005295 0.021948 0.003571 0.000000 0.000000 0.000000
# 3 -0.002255 0.003571 0.019697 0.000000 0.000000 0.000000
# 4 0.000000 0.000000 0.000000 0.035466 0.000000 0.000000
# 5 0.000000 0.000000 0.000000 0.000000 0.059700 0.000000
# 6 0.000000 0.000000 0.000000 0.000000 0.000000 0.025921
#
#
# Mechanical properties :
#
#
# Convention : Reuss Voigt Hill
#
# Bulk Modulus (GPa) = 21.79446 26.55617 24.17532
# Shear Modulus (GPa) = 25.22912 28.44295 26.83603
#
# Velocity S-wave (km/s) = 3.20270 3.40057 3.30312
# Velocity P-wave (km/s) = 4.74734 5.12009 4.93723
#
# Compressibility (1/GPa) = 0.04588321
#
# Stress axis : x y z
#
# Youngs Moduli (GPa) = 81.98149 45.56316 50.76843
#
# Poissons Ratio (x) = 0.24128 0.11448
# Poissons Ratio (y) = 0.43413 -0.18127
# Poissons Ratio (z) = 0.18486 -0.16269
#
# Static dielectric constant tensor:
#      x y z
#    x 2.274860 0.000000 0.000000 
#    y 0.000000 1.891590 0.000000 
#    z 0.000000 0.000000 1.965780 
# 
# From -- ./inp_files/10977.got.cif
#   From: 2010.05.17/outbox.cif.g08.bks.cpg/sg61_6_cif.got.tgz:10977.got - 2010.06.03 15:17:17.
