data_PCOD9459880
_publ_section_title
;
Structure prediction by ZEFSAII (Michael W. Deem and Ramdas Pophale) SiO2 
 PCOD9459880
Probable space group: P B C A
;
_chemical_formula_sum "Si O2"
_cell_formula_units_Z 56
_cell_length_a 15.381385
_cell_length_b 5.090162
_cell_length_c 27.411885
_cell_angle_alpha 90.000000
_cell_angle_beta 90.000000
_cell_angle_gamma 90.000000
_cell_volume 2146.179036
_symmetry_space_group_name_H-M "P B C A"
_symmetry_group_IT_number 61
_symmetry_cell_setting 'orthorhombic'
loop_
_space_group_symop_operation_xyz
x,y,z
1/2-x,-y,1/2+z
1/2+x,1/2-y,-z
-x,1/2+y,1/2-z
-x,-y,-z
1/2+x,y,1/2-z
1/2-x,1/2+y,z
x,1/2-y,1/2+z
loop_
_atom_site_type_symbol
_atom_site_label
_atom_site_fract_x
_atom_site_fract_y
_atom_site_fract_z
Si Si1 0.500000 0.000000 0.500000
Si Si2 0.056255 0.089292 0.746145
Si Si3 0.581697 0.184658 0.860988
Si Si4 0.485363 0.694711 0.896651
Si Si5 0.214086 0.238595 0.404607
Si Si6 0.785544 0.806898 0.707077
Si Si7 0.809923 0.605933 0.957304
Si Si8 0.000000 0.000000 0.500000
O O1 0.484102 0.222665 0.545915
O O2 0.462061 0.238795 0.466894
O O3 0.105616 0.143228 0.695248
O O4 0.120854 0.178111 0.788512
O O5 0.977001 0.295391 0.747608
O O6 0.540575 0.469105 0.871018
O O7 0.508334 0.965471 0.870636
O O8 0.655332 0.131149 0.901244
O O9 0.383449 0.664293 0.900541
O O10 0.271664 0.459754 0.429381
O O11 0.241022 0.160808 0.349223
O O12 0.721159 0.592820 0.729970
O O13 0.737820 0.830099 0.963948
O O14 0.898082 0.653189 0.988930
#
# Coordination Sequence:
#
# PCOD9459880 Si02
#       8
#     4   8   8   8   8   8   8   4
#     4  12  22  44  76  92 140 190 230 290 376 432
#     4  12  25  42  67 105 135 184 245 301 360 436
#     4  12  25  44  72  98 142 184 243 306 362 447
#     4  12  23  43  71  96 135 191 223 296 366 423
#     4  10  21  38  61  95 130 168 224 282 343 423
#     4  10  21  38  61  88 129 171 209 275 351 413
#     4  12  26  47  77 112 150 201 256 317 388 464
#     4  12  24  50  74 110 150 192 246 324 388 440
#
# _framework density 26.092884999999999
#
# number of rings (size 3 to 8) (size 9 to 14) (size 15 to 20)
#    0.000    0.571    2.857    6.000    0.000    3.429 
#    0.000    4.286    0.000    0.000    0.000    0.000 
#    0.000    0.000    0.000    0.000    0.000    0.000 
#
# Total GULP energy -312233.599650 kJ/mol
# GULP energy per Si atom -5575.599994 kJ/mol
# Density = 2.603350 g / cm^3
# Si number density = 26.092885 Si / 1000 Ang^3
#
#
#
# Elastic Constant Matrix: (Units=GPa)
#
#
# Indices 1 2 3 4 5 6 
#
# 1 101.9054 4.2777 -6.8121 0.0000 0.0000 0.0000
# 2 4.2777 108.8042 23.5835 0.0000 0.0000 0.0000
# 3 -6.8121 23.5835 81.9061 0.0000 0.0000 0.0000
# 4 0.0000 0.0000 0.0000 22.0731 0.0000 0.0000
# 5 0.0000 0.0000 0.0000 0.0000 40.6742 0.0000
# 6 0.0000 0.0000 0.0000 0.0000 0.0000 41.3181
#
#
#
# Elastic Compliance Matrix: (Units=1/GPa)
#
#
# Indices 1 2 3 4 5 6 
#
# 1 0.009905 -0.000606 0.000998 0.000000 0.000000 0.000000
# 2 -0.000606 0.009840 -0.002884 0.000000 0.000000 0.000000
# 3 0.000998 -0.002884 0.013122 0.000000 0.000000 0.000000
# 4 0.000000 0.000000 0.000000 0.045304 0.000000 0.000000
# 5 0.000000 0.000000 0.000000 0.000000 0.024586 0.000000
# 6 0.000000 0.000000 0.000000 0.000000 0.000000 0.024202
#
#
# Mechanical properties :
#
#
# Convention : Reuss Voigt Hill
#
# Bulk Modulus (GPa) = 35.86156 37.19045 36.52601
# Shear Modulus (GPa) = 35.40161 38.91752 37.15956
#
# Velocity S-wave (km/s) = 3.68741 3.86618 3.77785
# Velocity P-wave (km/s) = 5.64827 5.84926 5.74964
#
# Compressibility (1/GPa) = 0.02788501
#
# Stress axis : x y z
#
# Youngs Moduli (GPa) = 100.95722 101.62959 76.20558
#
# Poissons Ratio (x) = 0.06157 -0.07607
# Poissons Ratio (y) = 0.06116 0.21974
# Poissons Ratio (z) = -0.10078 0.29305
#
# Static dielectric constant tensor:
#      x y z
#    x 1.904250 0.000000 0.000000 
#    y 0.000000 2.006120 0.000000 
#    z 0.000000 0.000000 2.173970 
# 
# From -- ./inp_files/11828.got.cif
#   From: 2010.05.17/outbox.cif.g08.bks.cpg/sg61_6_cif.got.tgz:11828.got - 2010.06.03 15:17:17.
