data_PCOD9459449
_publ_section_title
;
Structure prediction by ZEFSAII (Michael W. Deem and Ramdas Pophale) SiO2 
 PCOD9459449
Probable space group: P B C A
;
_chemical_formula_sum "Si O2"
_cell_formula_units_Z 32
_cell_length_a 5.184765
_cell_length_b 13.028017
_cell_length_c 18.926649
_cell_angle_alpha 90.000000
_cell_angle_beta 90.000000
_cell_angle_gamma 90.000000
_cell_volume 1278.442270
_symmetry_space_group_name_H-M "P B C A"
_symmetry_group_IT_number 61
_symmetry_cell_setting 'orthorhombic'
loop_
_space_group_symop_operation_xyz
x,y,z
1/2-x,-y,1/2+z
1/2+x,1/2-y,-z
-x,1/2+y,1/2-z
-x,-y,-z
1/2+x,y,1/2-z
1/2-x,1/2+y,z
x,1/2-y,1/2+z
loop_
_atom_site_type_symbol
_atom_site_label
_atom_site_fract_x
_atom_site_fract_y
_atom_site_fract_z
Si Si1 0.471597 0.365051 0.943996
Si Si2 0.842205 0.836972 0.225028
Si Si3 0.822338 0.034566 0.849122
Si Si4 0.529527 0.873834 0.036797
O O1 0.543616 0.431884 0.875602
O O2 0.188113 0.384132 0.975378
O O3 0.084146 0.441634 0.099918
O O4 0.489301 0.243076 0.935993
O O5 0.571764 0.781285 0.232707
O O6 0.781768 0.941593 0.270466
O O7 0.962145 0.872753 0.151332
O O8 0.807442 0.892915 0.001971
#
# Coordination Sequence:
#
# PCOD9459449 Si02
#       4
#     8   8   8   8
#     4  10  22  35  53  81 105 134 175 212 256 312
#     4   8  20  32  52  78 100 134 180 206 244 316
#     4  10  20  36  58  72 110 138 168 216 262 294
#     4  10  22  35  53  81 105 134 175 212 256 312
#
# _framework density 25.030463000000001
#
# number of rings (size 3 to 8) (size 9 to 14) (size 15 to 20)
#    1.500    1.000    0.000    1.500    7.000    0.000 
#    0.000    2.500    0.000    0.000    0.000    0.000 
#    0.000    0.000    0.000    0.000    0.000    0.000 
#
# Total GULP energy -178356.979070 kJ/mol
# GULP energy per Si atom -5573.655596 kJ/mol
# Density = 2.497349 g / cm^3
# Si number density = 25.030463 Si / 1000 Ang^3
#
#
#
# Elastic Constant Matrix: (Units=GPa)
#
#
# Indices 1 2 3 4 5 6 
#
# 1 159.7367 -25.6885 21.5419 0.0000 0.0000 0.0000
# 2 -25.6885 38.8322 2.1908 0.0000 0.0000 0.0000
# 3 21.5419 2.1908 66.5982 0.0000 0.0000 0.0000
# 4 0.0000 0.0000 0.0000 22.7188 0.0000 0.0000
# 5 0.0000 0.0000 0.0000 0.0000 39.3789 0.0000
# 6 0.0000 0.0000 0.0000 0.0000 0.0000 19.7447
#
#
#
# Elastic Compliance Matrix: (Units=1/GPa)
#
#
# Indices 1 2 3 4 5 6 
#
# 1 0.007419 0.005053 -0.002566 0.000000 0.000000 0.000000
# 2 0.005053 0.029241 -0.002596 0.000000 0.000000 0.000000
# 3 -0.002566 -0.002596 0.015931 0.000000 0.000000 0.000000
# 4 0.000000 0.000000 0.000000 0.044016 0.000000 0.000000
# 5 0.000000 0.000000 0.000000 0.000000 0.025394 0.000000
# 6 0.000000 0.000000 0.000000 0.000000 0.000000 0.050647
#
#
# Mechanical properties :
#
#
# Convention : Reuss Voigt Hill
#
# Bulk Modulus (GPa) = 19.09446 29.02838 24.06142
# Shear Modulus (GPa) = 26.27102 34.17667 30.22384
#
# Velocity S-wave (km/s) = 3.24321 3.69914 3.47865
# Velocity P-wave (km/s) = 4.65506 5.46510 5.07626
#
# Compressibility (1/GPa) = 0.05237122
#
# Stress axis : x y z
#
# Youngs Moduli (GPa) = 134.79137 34.19895 62.77154
#
# Poissons Ratio (x) = -0.17279 0.16107
# Poissons Ratio (y) = -0.68104 0.16297
# Poissons Ratio (z) = 0.34586 0.08879
#
# Static dielectric constant tensor:
#      x y z
#    x 2.201990 0.000000 0.000000 
#    y 0.000000 1.971000 0.000000 
#    z 0.000000 0.000000 2.071460 
# 
# From -- ./inp_files/710.got.cif
#   From: 2010.05.17/outbox.cif.g08.bks.cpg/sg61_1_cif.got.tgz:710.got - 2010.06.03 15:17:17.
