data_PCOD9459502
_publ_section_title
;
Structure prediction by ZEFSAII (Michael W. Deem and Ramdas Pophale) SiO2 
 PCOD9459502
Probable space group: P B C A
;
_chemical_formula_sum "Si O2"
_cell_formula_units_Z 48
_cell_length_a 15.124410
_cell_length_b 17.985387
_cell_length_c 8.138796
_cell_angle_alpha 90.000000
_cell_angle_beta 90.000000
_cell_angle_gamma 90.000000
_cell_volume 2213.901997
_symmetry_space_group_name_H-M "P B C A"
_symmetry_group_IT_number 61
_symmetry_cell_setting 'orthorhombic'
loop_
_space_group_symop_operation_xyz
x,y,z
1/2-x,-y,1/2+z
1/2+x,1/2-y,-z
-x,1/2+y,1/2-z
-x,-y,-z
1/2+x,y,1/2-z
1/2-x,1/2+y,z
x,1/2-y,1/2+z
loop_
_atom_site_type_symbol
_atom_site_label
_atom_site_fract_x
_atom_site_fract_y
_atom_site_fract_z
Si Si1 0.264742 0.885495 0.220494
Si Si2 0.092657 0.138404 0.246872
Si Si3 0.587453 0.207169 0.615524
Si Si4 0.261823 0.966245 0.870395
Si Si5 0.611144 0.864751 0.754489
Si Si6 0.382235 0.279026 0.089693
O O1 0.355175 0.843938 0.264943
O O2 0.189214 0.824705 0.191816
O O3 0.240705 0.945447 0.359632
O O4 0.268373 0.933480 0.053154
O O5 0.117349 0.207009 0.367394
O O6 0.156676 0.069617 0.272317
O O7 0.991280 0.114958 0.275598
O O8 0.098941 0.174401 0.066247
O O9 0.482642 0.209035 0.654159
O O10 0.173611 0.933316 0.785153
O O11 0.618319 0.811977 0.593079
O O12 0.638207 0.808539 0.899283
#
# Coordination Sequence:
#
# PCOD9459502 Si02
#       6
#     8   8   8   8   8   8
#     4  11  23  38  55  80 112 148 184 224 273 326
#     4  10  20  37  59  83 109 141 180 225 271 322
#     4  10  20  37  59  83 109 141 180 225 271 322
#     4  11  23  38  55  80 112 148 184 224 273 326
#     4   9  20  37  58  81 108 141 180 223 271 322
#     4   9  20  37  58  81 108 141 180 223 271 322
#
# _framework density 21.681176000000001
#
# number of rings (size 3 to 8) (size 9 to 14) (size 15 to 20)
#    0.000    2.000    0.000    3.000    0.000    8.000 
#    0.000    6.667    0.000    0.000    0.000    0.000 
#    0.000    0.000    0.000    0.000    0.000    0.000 
#
# Total GULP energy -268476.563396 kJ/mol
# GULP energy per Si atom -5593.261737 kJ/mol
# Density = 2.163183 g / cm^3
# Si number density = 21.681176 Si / 1000 Ang^3
#
#
#
# Elastic Constant Matrix: (Units=GPa)
#
#
# Indices 1 2 3 4 5 6 
#
# 1 52.7165 30.9229 20.8445 0.0000 0.0000 0.0000
# 2 30.9229 52.3800 12.6967 0.0000 0.0000 0.0000
# 3 20.8445 12.6967 40.0357 0.0000 0.0000 0.0000
# 4 0.0000 0.0000 0.0000 37.5300 0.0000 0.0000
# 5 0.0000 0.0000 0.0000 0.0000 25.9145 0.0000
# 6 0.0000 0.0000 0.0000 0.0000 0.0000 2.1612
#
#
#
# Elastic Compliance Matrix: (Units=1/GPa)
#
#
# Indices 1 2 3 4 5 6 
#
# 1 0.033739 -0.016964 -0.012186 0.000000 0.000000 0.000000
# 2 -0.016964 0.029211 -0.000431 0.000000 0.000000 0.000000
# 3 -0.012186 -0.000431 0.031459 0.000000 0.000000 0.000000
# 4 0.000000 0.000000 0.000000 0.026645 0.000000 0.000000
# 5 0.000000 0.000000 0.000000 0.000000 0.038588 0.000000
# 6 0.000000 0.000000 0.000000 0.000000 0.000000 0.462714
#
#
# Mechanical properties :
#
#
# Convention : Reuss Voigt Hill
#
# Bulk Modulus (GPa) = 28.37245 30.45116 29.41181
# Shear Modulus (GPa) = 7.21221 18.49901 12.85561
#
# Velocity S-wave (km/s) = 1.82584 2.92418 2.43767
# Velocity P-wave (km/s) = 4.19041 5.04743 4.63876
#
# Compressibility (1/GPa) = 0.03524546
#
# Stress axis : x y z
#
# Youngs Moduli (GPa) = 29.63937 34.23400 31.78717
#
# Poissons Ratio (x) = 0.58075 0.38736
# Poissons Ratio (y) = 0.50281 0.01371
# Poissons Ratio (z) = 0.36119 0.01477
#
# Static dielectric constant tensor:
#      x y z
#    x 1.757380 0.000000 0.000000 
#    y 0.000000 1.755960 0.000000 
#    z 0.000000 0.000000 1.848030 
# 
# From -- ./inp_files/2822.got.cif
#   From: 2010.05.17/outbox.cif.g08.bks.cpg/sg61_2_cif.got.tgz:2822.got - 2010.06.03 15:17:17.
