data_PCOD9459351
_publ_section_title
;
Structure prediction by ZEFSAII (Michael W. Deem and Ramdas Pophale) SiO2 
 PCOD9459351
Probable space group: P B C A
;
_chemical_formula_sum "Si O2"
_cell_formula_units_Z 40
_cell_length_a 14.395868
_cell_length_b 13.581719
_cell_length_c 7.481985
_cell_angle_alpha 90.000000
_cell_angle_beta 90.000000
_cell_angle_gamma 90.000000
_cell_volume 1462.882450
_symmetry_space_group_name_H-M "P B C A"
_symmetry_group_IT_number 61
_symmetry_cell_setting 'orthorhombic'
loop_
_space_group_symop_operation_xyz
x,y,z
1/2-x,-y,1/2+z
1/2+x,1/2-y,-z
-x,1/2+y,1/2-z
-x,-y,-z
1/2+x,y,1/2-z
1/2-x,1/2+y,z
x,1/2-y,1/2+z
loop_
_atom_site_type_symbol
_atom_site_label
_atom_site_fract_x
_atom_site_fract_y
_atom_site_fract_z
Si Si1 0.558890 0.358126 0.708560
Si Si2 0.124508 0.949253 0.166094
Si Si3 0.877117 0.349436 0.991405
Si Si4 0.829173 0.714847 0.531556
Si Si5 0.831605 0.510929 0.725723
O O1 0.549682 0.471399 0.766529
O O2 0.468790 0.316441 0.611224
O O3 0.591080 0.308834 0.890838
O O4 0.648131 0.324608 0.592122
O O5 0.109197 0.856792 0.295194
O O6 0.221854 0.992885 0.236329
O O7 0.135575 0.949856 0.951940
O O8 0.777018 0.297332 0.964398
O O9 0.868642 0.458805 0.903509
O O10 0.844726 0.626363 0.676256
#
# Coordination Sequence:
#
# PCOD9459351 Si02
#       5
#     8   8   8   8   8
#     4  11  24  43  64 103 139 175 233 282 358 414
#     4  10  20  39  69 103 131 181 232 286 331 429
#     4  11  23  44  71  95 136 188 227 286 352 411
#     4  10  25  42  66 102 139 179 229 298 344 423
#     4  10  19  41  70  96 133 179 235 275 351 399
#
# _framework density 27.343277
#
# number of rings (size 3 to 8) (size 9 to 14) (size 15 to 20)
#    0.000    1.600    6.000    0.600    2.800    4.800 
#    3.600    0.000    0.000    0.000    0.000    0.000 
#    0.000    0.000    0.000    0.000    0.000    0.000 
#
# Total GULP energy -223377.563252 kJ/mol
# GULP energy per Si atom -5584.439081 kJ/mol
# Density = 2.728104 g / cm^3
# Si number density = 27.343277 Si / 1000 Ang^3
#
#
#
# Elastic Constant Matrix: (Units=GPa)
#
#
# Indices 1 2 3 4 5 6 
#
# 1 103.8385 37.4375 24.4887 0.0000 0.0000 0.0000
# 2 37.4375 43.1997 21.3618 0.0000 0.0000 0.0000
# 3 24.4887 21.3618 131.7077 0.0000 0.0000 0.0000
# 4 0.0000 0.0000 0.0000 12.1642 0.0000 0.0000
# 5 0.0000 0.0000 0.0000 0.0000 40.2904 0.0000
# 6 0.0000 0.0000 0.0000 0.0000 0.0000 0.7002
#
#
#
# Elastic Compliance Matrix: (Units=1/GPa)
#
#
# Indices 1 2 3 4 5 6 
#
# 1 0.014065 -0.011846 -0.000694 0.000000 0.000000 0.000000
# 2 -0.011846 0.035143 -0.003497 0.000000 0.000000 0.000000
# 3 -0.000694 -0.003497 0.008289 0.000000 0.000000 0.000000
# 4 0.000000 0.000000 0.000000 0.082208 0.000000 0.000000
# 5 0.000000 0.000000 0.000000 0.000000 0.024820 0.000000
# 6 0.000000 0.000000 0.000000 0.000000 0.000000 1.428112
#
#
# Mechanical properties :
#
#
# Convention : Reuss Voigt Hill
#
# Bulk Modulus (GPa) = 39.33430 49.48022 44.40726
# Shear Modulus (GPa) = 3.06150 23.66151 13.36150
#
# Velocity S-wave (km/s) = 1.05929 2.94487 2.21296
# Velocity P-wave (km/s) = 3.98907 5.44961 4.77551
#
# Compressibility (1/GPa) = 0.02542310
#
# Stress axis : x y z
#
# Youngs Moduli (GPa) = 71.09983 28.45491 120.64426
#
# Poissons Ratio (x) = 0.33707 0.08371
# Poissons Ratio (y) = 0.84222 0.42195
# Poissons Ratio (z) = 0.04933 0.09952
#
# Static dielectric constant tensor:
#      x y z
#    x 2.094660 0.000000 0.000000 
#    y 0.000000 2.232740 0.000000 
#    z 0.000000 0.000000 2.180800 
# 
# From -- ./inp_files/2650.got.cif
#   From: 2010.05.17/outbox.cif.g08.bks.cpg/sg61_2_cif.got.tgz:2650.got - 2010.06.03 15:17:17.
