data_PCOD9459119
_publ_section_title
;
Structure prediction by ZEFSAII (Michael W. Deem and Ramdas Pophale) SiO2 
 PCOD9459119
Probable space group: P B C A
;
_chemical_formula_sum "Si O2"
_cell_formula_units_Z 44
_cell_length_a 9.566808
_cell_length_b 16.590330
_cell_length_c 10.909082
_cell_angle_alpha 90.000000
_cell_angle_beta 90.000000
_cell_angle_gamma 90.000000
_cell_volume 1731.451333
_symmetry_space_group_name_H-M "P B C A"
_symmetry_group_IT_number 61
_symmetry_cell_setting 'orthorhombic'
loop_
_space_group_symop_operation_xyz
x,y,z
1/2-x,-y,1/2+z
1/2+x,1/2-y,-z
-x,1/2+y,1/2-z
-x,-y,-z
1/2+x,y,1/2-z
1/2-x,1/2+y,z
x,1/2-y,1/2+z
loop_
_atom_site_type_symbol
_atom_site_label
_atom_site_fract_x
_atom_site_fract_y
_atom_site_fract_z
Si Si1 0.721202 0.598801 0.948996
Si Si2 0.254350 0.727676 0.356376
Si Si3 0.500000 0.000000 0.000000
Si Si4 0.215953 0.597384 0.823743
Si Si5 0.547191 0.648888 0.323876
Si Si6 0.997630 0.995025 0.187923
O O1 0.748481 0.631463 0.812992
O O2 0.594776 0.539215 0.917469
O O3 0.691091 0.670256 0.039575
O O4 0.853401 0.550213 0.994481
O O5 0.223132 0.819459 0.393929
O O6 0.420169 0.709490 0.352762
O O7 0.177729 0.696581 0.232856
O O8 0.576705 0.918381 0.927567
O O9 0.340921 0.533795 0.834510
O O10 0.066906 0.549190 0.813029
O O11 0.492212 0.588173 0.215951
#
# Coordination Sequence:
#
# PCOD9459119 Si02
#       6
#     8   8   4   8   8   8
#     4   9  22  39  66  92 126 168 220 263 339 391
#     4  11  23  41  61  95 129 161 222 267 333 386
#     4  10  18  40  64  94 118 172 212 262 332 388
#     4  10  21  42  60  93 126 172 209 267 327 399
#     4  11  21  39  65  90 126 165 213 279 313 400
#     4  10  20  42  65  90 126 168 220 259 335 389
#
# _framework density 25.412209000000001
#
# number of rings (size 3 to 8) (size 9 to 14) (size 15 to 20)
#    1.091    0.727    1.818    3.273    0.000    0.727 
#    9.818    0.000    0.000    0.000    0.000    0.000 
#    0.000    0.000    0.000    0.000    0.000    0.000 
#
# Total GULP energy -245280.561919 kJ/mol
# GULP energy per Si atom -5574.558225 kJ/mol
# Density = 2.535437 g / cm^3
# Si number density = 25.412209 Si / 1000 Ang^3
#
#
#
# Elastic Constant Matrix: (Units=GPa)
#
#
# Indices 1 2 3 4 5 6 
#
# 1 75.4220 47.9418 -7.6252 0.0000 0.0000 0.0000
# 2 47.9418 119.7578 8.3495 0.0000 0.0000 0.0000
# 3 -7.6252 8.3495 53.2958 0.0000 0.0000 0.0000
# 4 0.0000 0.0000 0.0000 35.4623 0.0000 0.0000
# 5 0.0000 0.0000 0.0000 0.0000 -8.7575 0.0000
# 6 0.0000 0.0000 0.0000 0.0000 0.0000 33.3000
#
#
#
# Elastic Compliance Matrix: (Units=1/GPa)
#
#
# Indices 1 2 3 4 5 6 
#
# 1 0.018536 -0.007689 0.003857 0.000000 0.000000 0.000000
# 2 -0.007689 0.011632 -0.002922 0.000000 0.000000 0.000000
# 3 0.003857 -0.002922 0.019773 0.000000 0.000000 0.000000
# 4 0.000000 0.000000 0.000000 0.028199 0.000000 0.000000
# 5 0.000000 0.000000 0.000000 0.000000 -0.114188 0.000000
# 6 0.000000 0.000000 0.000000 0.000000 0.000000 0.030030
#
#
# Mechanical properties :
#
#
# Convention : Reuss Voigt Hill
#
# Bulk Modulus (GPa) = 27.44911 38.42308 32.93610
# Shear Modulus (GPa) = 254.62435 25.32158 139.97297
#
# Velocity S-wave (km/s) = 10.02074 3.16006 7.42971
# Velocity P-wave (km/s) = 12.02963 5.33548 9.30535
#
# Compressibility (1/GPa) = 0.03643105
#
# Stress axis : x y z
#
# Youngs Moduli (GPa) = 53.94778 85.96819 50.57439
#
# Poissons Ratio (x) = 0.66105 -0.19505
# Poissons Ratio (y) = 0.41483 0.14780
# Poissons Ratio (z) = -0.20806 0.25124
#
# Static dielectric constant tensor:
#      x y z
#    x 1.909160 0.000000 0.000000 
#    y 0.000000 1.954630 0.000000 
#    z 0.000000 0.000000 1.998790 
# 
# From -- ./inp_files/5664.got.cif
#   From: 2010.05.17/outbox.cif.g08.bks.cpg/sg61_3_cif.got.tgz:5664.got - 2010.06.03 15:17:17.
