data_PCOD9459279
_publ_section_title
;
Structure prediction by ZEFSAII (Michael W. Deem and Ramdas Pophale) SiO2 
 PCOD9459279
Probable space group: P B C A
;
_chemical_formula_sum "Si O2"
_cell_formula_units_Z 48
_cell_length_a 18.998709
_cell_length_b 21.566597
_cell_length_c 5.237338
_cell_angle_alpha 90.000000
_cell_angle_beta 90.000000
_cell_angle_gamma 90.000000
_cell_volume 2145.933782
_symmetry_space_group_name_H-M "P B C A"
_symmetry_group_IT_number 61
_symmetry_cell_setting 'orthorhombic'
loop_
_space_group_symop_operation_xyz
x,y,z
1/2-x,-y,1/2+z
1/2+x,1/2-y,-z
-x,1/2+y,1/2-z
-x,-y,-z
1/2+x,y,1/2-z
1/2-x,1/2+y,z
x,1/2-y,1/2+z
loop_
_atom_site_type_symbol
_atom_site_label
_atom_site_fract_x
_atom_site_fract_y
_atom_site_fract_z
Si Si1 0.922516 0.269559 0.449204
Si Si2 0.919660 0.782655 0.557593
Si Si3 0.589713 0.959335 0.030478
Si Si4 0.022882 0.908113 0.974350
Si Si5 0.884652 0.592215 0.773999
Si Si6 0.243978 0.542188 0.919341
O O1 0.882426 0.253672 0.194445
O O2 0.944800 0.340574 0.468099
O O3 0.995061 0.227907 0.437542
O O4 0.894536 0.765163 0.838811
O O5 0.899538 0.849478 0.454121
O O6 0.542801 0.927521 0.811062
O O7 0.602181 0.029119 0.932986
O O8 0.556336 0.953284 0.310332
O O9 0.667148 0.929096 0.038706
O O10 0.941148 0.905217 0.045063
O O11 0.806587 0.587489 0.660898
O O12 0.236714 0.494582 0.679119
#
# Coordination Sequence:
#
# PCOD9459279 Si02
#       6
#     8   8   8   8   8   8
#     4  10  19  37  58  86 122 162 206 256 321 365
#     4  10  21  36  60  91 120 154 217 266 313 353
#     4  11  25  40  59  99 137 165 202 260 339 393
#     4  12  23  38  65  96 130 158 215 273 314 376
#     4  11  23  41  69  93 126 171 217 271 313 384
#     4  10  23  44  63  87 129 174 202 243 327 401
#
# _framework density 22.367887
#
# number of rings (size 3 to 8) (size 9 to 14) (size 15 to 20)
#    0.000    1.333    3.333    4.000    2.333    6.667 
#    0.000    0.000    0.000    6.000    0.000    0.000 
#    0.000    0.000    0.000    0.000    0.000    0.000 
#
# Total GULP energy -268565.655819 kJ/mol
# GULP energy per Si atom -5595.117830 kJ/mol
# Density = 2.231698 g / cm^3
# Si number density = 22.367887 Si / 1000 Ang^3
#
#
#
# Elastic Constant Matrix: (Units=GPa)
#
#
# Indices 1 2 3 4 5 6 
#
# 1 91.0217 7.6884 12.0909 0.0000 0.0000 0.0000
# 2 7.6884 84.4308 5.3016 0.0000 0.0000 0.0000
# 3 12.0909 5.3016 131.0851 0.0000 0.0000 0.0000
# 4 0.0000 0.0000 0.0000 24.7352 0.0000 0.0000
# 5 0.0000 0.0000 0.0000 0.0000 21.8285 0.0000
# 6 0.0000 0.0000 0.0000 0.0000 0.0000 6.7686
#
#
#
# Elastic Compliance Matrix: (Units=1/GPa)
#
#
# Indices 1 2 3 4 5 6 
#
# 1 0.011199 -0.000957 -0.000994 0.000000 0.000000 0.000000
# 2 -0.000957 0.011956 -0.000395 0.000000 0.000000 0.000000
# 3 -0.000994 -0.000395 0.007736 0.000000 0.000000 0.000000
# 4 0.000000 0.000000 0.000000 0.040428 0.000000 0.000000
# 5 0.000000 0.000000 0.000000 0.000000 0.045812 0.000000
# 6 0.000000 0.000000 0.000000 0.000000 0.000000 0.147742
#
#
# Mechanical properties :
#
#
# Convention : Reuss Voigt Hill
#
# Bulk Modulus (GPa) = 38.17106 39.63328 38.90217
# Shear Modulus (GPa) = 17.96626 29.43024 23.69825
#
# Velocity S-wave (km/s) = 2.83718 3.63124 3.25849
# Velocity P-wave (km/s) = 5.27589 5.94462 5.62021
#
# Compressibility (1/GPa) = 0.02619786
#
# Stress axis : x y z
#
# Youngs Moduli (GPa) = 89.29105 83.63985 129.26037
#
# Poissons Ratio (x) = 0.08008 0.12852
# Poissons Ratio (y) = 0.08549 0.05109
# Poissons Ratio (z) = 0.08878 0.03306
#
# Static dielectric constant tensor:
#      x y z
#    x 1.823410 0.000000 0.000000 
#    y 0.000000 1.850250 0.000000 
#    z 0.000000 0.000000 1.912750 
# 
# From -- ./inp_files/973.got.cif
#   From: 2010.05.17/outbox.cif.g08.bks.cpg/sg61_1_cif.got.tgz:973.got - 2010.06.03 15:17:17.
