data_PCOD9459650
_publ_section_title
;
Structure prediction by ZEFSAII (Michael W. Deem and Ramdas Pophale) SiO2 
 PCOD9459650
Probable space group: P B C A
;
_chemical_formula_sum "Si O2"
_cell_formula_units_Z 64
_cell_length_a 13.567695
_cell_length_b 8.761111
_cell_length_c 21.772040
_cell_angle_alpha 90.000000
_cell_angle_beta 90.000000
_cell_angle_gamma 90.000000
_cell_volume 2588.000634
_symmetry_space_group_name_H-M "P B C A"
_symmetry_group_IT_number 61
_symmetry_cell_setting 'orthorhombic'
loop_
_space_group_symop_operation_xyz
x,y,z
1/2-x,-y,1/2+z
1/2+x,1/2-y,-z
-x,1/2+y,1/2-z
-x,-y,-z
1/2+x,y,1/2-z
1/2-x,1/2+y,z
x,1/2-y,1/2+z
loop_
_atom_site_type_symbol
_atom_site_label
_atom_site_fract_x
_atom_site_fract_y
_atom_site_fract_z
Si Si1 0.637490 0.372910 0.537303
Si Si2 0.490567 0.538241 0.824179
Si Si3 0.714218 0.282813 0.912333
Si Si4 0.564796 0.692088 0.522304
Si Si5 0.305893 0.749710 0.827645
Si Si6 0.874178 0.438947 0.220764
Si Si7 0.615154 0.601960 0.929943
Si Si8 0.466494 0.702086 0.654231
O O1 0.684430 0.293689 0.477613
O O2 0.644050 0.557011 0.530330
O O3 0.518974 0.348866 0.528560
O O4 0.678458 0.308722 0.601799
O O5 0.389623 0.624525 0.811254
O O6 0.587018 0.600126 0.788256
O O7 0.515013 0.566222 0.895396
O O8 0.495717 0.356813 0.813088
O O9 0.683449 0.457564 0.916931
O O10 0.828668 0.250987 0.904832
O O11 0.649691 0.209186 0.857386
O O12 0.602978 0.856289 0.500903
O O13 0.509909 0.706625 0.586056
O O14 0.200185 0.676893 0.812613
O O15 0.325001 0.896823 0.785541
O O16 0.980083 0.438735 0.185838
#
# Coordination Sequence:
#
# PCOD9459650 Si02
#       8
#     8   8   8   8   8   8   8   8
#     4  10  21  39  65 102 135 176 216 277 340 411
#     4  11  26  46  71  95 136 178 230 282 338 407
#     4  10  24  37  66 100 142 178 221 275 338 415
#     4  10  20  39  68  98 138 173 221 277 347 408
#     4  12  26  46  70 101 131 177 230 282 343 411
#     4  12  27  46  70 100 131 182 228 287 339 402
#     4  11  23  40  63 102 135 184 224 276 341 406
#     4  10  23  45  66 100 135 178 228 282 345 399
#
# _framework density 24.729514999999999
#
# number of rings (size 3 to 8) (size 9 to 14) (size 15 to 20)
#    0.000    1.250    2.500    2.250    3.500    6.500 
#    0.000    0.000    0.000    0.000    0.000    0.000 
#    0.000    0.000    0.000    0.000    0.000    0.000 
#
# Total GULP energy -357817.347625 kJ/mol
# GULP energy per Si atom -5590.896057 kJ/mol
# Density = 2.467323 g / cm^3
# Si number density = 24.729515 Si / 1000 Ang^3
#
#
#
# Elastic Constant Matrix: (Units=GPa)
#
#
# Indices 1 2 3 4 5 6 
#
# 1 74.3711 17.9685 16.3228 0.0000 0.0000 0.0000
# 2 17.9685 43.6781 17.1208 0.0000 0.0000 0.0000
# 3 16.3228 17.1208 76.4579 0.0000 0.0000 0.0000
# 4 0.0000 0.0000 0.0000 30.6480 0.0000 0.0000
# 5 0.0000 0.0000 0.0000 0.0000 29.2344 0.0000
# 6 0.0000 0.0000 0.0000 0.0000 0.0000 40.2965
#
#
#
# Elastic Compliance Matrix: (Units=1/GPa)
#
#
# Indices 1 2 3 4 5 6 
#
# 1 0.015210 -0.005464 -0.002024 0.000000 0.000000 0.000000
# 2 -0.005464 0.027061 -0.004893 0.000000 0.000000 0.000000
# 3 -0.002024 -0.004893 0.014607 0.000000 0.000000 0.000000
# 4 0.000000 0.000000 0.000000 0.032629 0.000000 0.000000
# 5 0.000000 0.000000 0.000000 0.000000 0.034206 0.000000
# 6 0.000000 0.000000 0.000000 0.000000 0.000000 0.024816
#
#
# Mechanical properties :
#
#
# Convention : Reuss Voigt Hill
#
# Bulk Modulus (GPa) = 31.13696 33.03683 32.08690
# Shear Modulus (GPa) = 27.17455 29.57543 28.37499
#
# Velocity S-wave (km/s) = 3.31852 3.46201 3.39102
# Velocity P-wave (km/s) = 5.22511 5.41932 5.32310
#
# Compressibility (1/GPa) = 0.03211617
#
# Stress axis : x y z
#
# Youngs Moduli (GPa) = 65.74447 36.95411 68.46132
#
# Poissons Ratio (x) = 0.20192 0.13854
# Poissons Ratio (y) = 0.35923 0.33498
# Poissons Ratio (z) = 0.13305 0.18082
#
# Static dielectric constant tensor:
#      x y z
#    x 1.996930 0.000000 0.000000 
#    y 0.000000 1.985920 0.000000 
#    z 0.000000 0.000000 2.026730 
# 
# From -- ./inp_files/11081.got.cif
#   From: 2010.05.17/outbox.cif.g08.bks.cpg/sg61_6_cif.got.tgz:11081.got - 2010.06.03 15:17:17.
