data_PCOD9459869
_publ_section_title
;
Structure prediction by ZEFSAII (Michael W. Deem and Ramdas Pophale) SiO2 
 PCOD9459869
Probable space group: P B C A
;
_chemical_formula_sum "Si O2"
_cell_formula_units_Z 48
_cell_length_a 27.230021
_cell_length_b 5.641271
_cell_length_c 12.947184
_cell_angle_alpha 90.000000
_cell_angle_beta 90.000000
_cell_angle_gamma 90.000000
_cell_volume 1988.841894
_symmetry_space_group_name_H-M "P B C A"
_symmetry_group_IT_number 61
_symmetry_cell_setting 'orthorhombic'
loop_
_space_group_symop_operation_xyz
x,y,z
1/2-x,-y,1/2+z
1/2+x,1/2-y,-z
-x,1/2+y,1/2-z
-x,-y,-z
1/2+x,y,1/2-z
1/2-x,1/2+y,z
x,1/2-y,1/2+z
loop_
_atom_site_type_symbol
_atom_site_label
_atom_site_fract_x
_atom_site_fract_y
_atom_site_fract_z
Si Si1 0.328697 0.356958 0.537417
Si Si2 0.561032 0.619452 0.533093
Si Si3 0.820108 0.856900 0.964679
Si Si4 0.529733 0.500658 0.751365
Si Si5 0.742118 0.860572 0.151989
Si Si6 0.434483 0.618069 0.029374
O O1 0.387061 0.355355 0.525377
O O2 0.313047 0.603549 0.588945
O O3 0.306912 0.358274 0.419903
O O4 0.313037 0.110489 0.589167
O O5 0.562941 0.542763 0.651490
O O6 0.540568 0.376855 0.480895
O O7 0.543846 0.894427 0.532891
O O8 0.877171 0.853931 0.001004
O O9 0.783717 0.859352 0.061551
O O10 0.500363 0.752049 0.765600
O O11 0.561663 0.455025 0.852079
O O12 0.750240 0.610769 0.207676
#
# Coordination Sequence:
#
# PCOD9459869 Si02
#       6
#     8   8   8   8   8   8
#     4   8  14  25  44  71  99 132 172 209 257 316
#     4  10  21  38  58  81 110 146 184 229 281 332
#     4   8  14  25  44  71  99 132 172 209 257 316
#     4  12  26  40  58  84 110 144 190 236 282 334
#     4   8  12  20  38  68  98 126 168 208 246 312
#     4  10  21  38  58  81 110 146 184 229 281 332
#
# _framework density 24.134647999999999
#
# number of rings (size 3 to 8) (size 9 to 14) (size 15 to 20)
#    0.000    2.667    0.000    2.000    0.000    4.000 
#    0.000    0.000    0.000    0.000    0.000   58.333 
#    0.000    0.000    0.000    0.000    0.000    0.000 
#
# Total GULP energy -267444.304359 kJ/mol
# GULP energy per Si atom -5571.756341 kJ/mol
# Density = 2.407972 g / cm^3
# Si number density = 24.134648 Si / 1000 Ang^3
#
#
#
# Elastic Constant Matrix: (Units=GPa)
#
#
# Indices 1 2 3 4 5 6 
#
# 1 62.2304 19.7169 -3.6212 0.0000 0.0000 0.0000
# 2 19.7169 290.9242 5.1652 0.0000 0.0000 0.0000
# 3 -3.6212 5.1652 64.7251 0.0000 0.0000 0.0000
# 4 0.0000 0.0000 0.0000 42.2272 0.0000 0.0000
# 5 0.0000 0.0000 0.0000 0.0000 8.3100 0.0000
# 6 0.0000 0.0000 0.0000 0.0000 0.0000 33.5972
#
#
#
# Elastic Compliance Matrix: (Units=1/GPa)
#
#
# Indices 1 2 3 4 5 6 
#
# 1 0.016488 -0.001135 0.001013 0.000000 0.000000 0.000000
# 2 -0.001135 0.003520 -0.000344 0.000000 0.000000 0.000000
# 3 0.001013 -0.000344 0.015534 0.000000 0.000000 0.000000
# 4 0.000000 0.000000 0.000000 0.023681 0.000000 0.000000
# 5 0.000000 0.000000 0.000000 0.000000 0.120337 0.000000
# 6 0.000000 0.000000 0.000000 0.000000 0.000000 0.029764
#
#
# Mechanical properties :
#
#
# Convention : Reuss Voigt Hill
#
# Bulk Modulus (GPa) = 28.89433 51.15572 40.02503
# Shear Modulus (GPa) = 22.54333 43.26815 32.90574
#
# Velocity S-wave (km/s) = 3.05956 4.23872 3.69646
# Velocity P-wave (km/s) = 4.94766 6.72292 5.90241
#
# Compressibility (1/GPa) = 0.03460886
#
# Stress axis : x y z
#
# Youngs Moduli (GPa) = 60.65014 284.05947 64.37441
#
# Poissons Ratio (x) = 0.32253 -0.06522
# Poissons Ratio (y) = 0.06886 0.02217
# Poissons Ratio (z) = -0.06144 0.09785
#
# Static dielectric constant tensor:
#      x y z
#    x 1.956040 0.000000 0.000000 
#    y 0.000000 2.122610 0.000000 
#    z 0.000000 0.000000 1.804210 
# 
# From -- ./inp_files/8633.got.cif
#   From: 2010.05.17/outbox.cif.g08.bks.cpg/sg61_5_cif.got.tgz:8633.got - 2010.06.03 15:17:17.
