data_PCOD9459042
_publ_section_title
;
Structure prediction by ZEFSAII (Michael W. Deem and Ramdas Pophale) SiO2 
 PCOD9459042
Probable space group: P B C A
;
_chemical_formula_sum "Si O2"
_cell_formula_units_Z 60
_cell_length_a 13.009499
_cell_length_b 20.555102
_cell_length_c 8.393211
_cell_angle_alpha 90.000000
_cell_angle_beta 90.000000
_cell_angle_gamma 90.000000
_cell_volume 2244.441806
_symmetry_space_group_name_H-M "P B C A"
_symmetry_group_IT_number 61
_symmetry_cell_setting 'orthorhombic'
loop_
_space_group_symop_operation_xyz
x,y,z
1/2-x,-y,1/2+z
1/2+x,1/2-y,-z
-x,1/2+y,1/2-z
-x,-y,-z
1/2+x,y,1/2-z
1/2-x,1/2+y,z
x,1/2-y,1/2+z
loop_
_atom_site_type_symbol
_atom_site_label
_atom_site_fract_x
_atom_site_fract_y
_atom_site_fract_z
Si Si1 0.726866 0.605400 0.985311
Si Si2 0.500000 0.500000 0.000000
Si Si3 0.938555 0.587883 0.813077
Si Si4 0.851642 0.431845 0.037089
Si Si5 0.674785 0.017976 0.341099
Si Si6 0.472300 0.770072 0.101744
Si Si7 0.315413 0.299802 0.290183
Si Si8 0.853370 0.809668 0.702681
O O1 0.681103 0.665684 0.884022
O O2 0.824245 0.581056 0.880604
O O3 0.649347 0.543626 0.972321
O O4 0.782643 0.630855 0.144228
O O5 0.461342 0.544021 0.838463
O O6 0.432558 0.551353 0.122330
O O7 0.025181 0.571580 0.948280
O O8 0.949613 0.665674 0.787781
O O9 0.822496 0.484561 0.171608
O O10 0.781069 0.450140 0.890081
O O11 0.813062 0.361444 0.093335
O O12 0.588403 0.758537 0.149552
O O13 0.408849 0.704622 0.132173
O O14 0.440863 0.797667 0.930325
O O15 0.221850 0.251934 0.301031
#
# Coordination Sequence:
#
# PCOD9459042 Si02
#       8
#     8   4   8   8   8   8   8   8
#     4  10  21  39  61  85 129 163 202 255 321 367
#     4  10  18  32  62  86 114 156 212 236 288 372
#     4   9  18  38  60  86 117 158 198 249 306 365
#     4   9  20  37  61  87 116 158 199 248 304 366
#     4  10  20  36  57  87 118 158 198 246 305 369
#     4  10  23  37  62  90 124 156 212 257 311 374
#     4  10  20  40  63  86 120 169 201 252 317 373
#     4  11  21  40  61  90 116 170 205 260 310 378
#
# _framework density 26.732704999999999
#
# number of rings (size 3 to 8) (size 9 to 14) (size 15 to 20)
#    0.000    2.133    2.667    2.400    1.867    0.533 
#    2.400    0.000    0.000    0.000    0.000    0.000 
#    0.000    0.000    0.000    0.000    0.000    0.000 
#
# Total GULP energy -334354.764070 kJ/mol
# GULP energy per Si atom -5572.579401 kJ/mol
# Density = 2.667186 g / cm^3
# Si number density = 26.732705 Si / 1000 Ang^3
#
#
#
# Elastic Constant Matrix: (Units=GPa)
#
#
# Indices 1 2 3 4 5 6 
#
# 1 52.2173 19.6634 6.4644 0.0000 0.0000 0.0000
# 2 19.6634 90.4284 18.9343 0.0000 0.0000 0.0000
# 3 6.4644 18.9343 70.2749 0.0000 0.0000 0.0000
# 4 0.0000 0.0000 0.0000 26.2897 0.0000 0.0000
# 5 0.0000 0.0000 0.0000 0.0000 23.3924 0.0000
# 6 0.0000 0.0000 0.0000 0.0000 0.0000 20.6494
#
#
#
# Elastic Compliance Matrix: (Units=1/GPa)
#
#
# Indices 1 2 3 4 5 6 
#
# 1 0.020895 -0.004389 -0.000740 0.000000 0.000000 0.000000
# 2 -0.004389 0.012641 -0.003002 0.000000 0.000000 0.000000
# 3 -0.000740 -0.003002 0.015107 0.000000 0.000000 0.000000
# 4 0.000000 0.000000 0.000000 0.038038 0.000000 0.000000
# 5 0.000000 0.000000 0.000000 0.000000 0.042749 0.000000
# 6 0.000000 0.000000 0.000000 0.000000 0.000000 0.048427
#
#
# Mechanical properties :
#
#
# Convention : Reuss Voigt Hill
#
# Bulk Modulus (GPa) = 30.88141 33.67165 32.27653
# Shear Modulus (GPa) = 24.40068 25.25688 24.82878
#
# Velocity S-wave (km/s) = 3.02448 3.07708 3.05089
# Velocity P-wave (km/s) = 4.87582 5.02470 4.95082
#
# Compressibility (1/GPa) = 0.03238194
#
# Stress axis : x y z
#
# Youngs Moduli (GPa) = 47.85845 79.10511 66.19547
#
# Poissons Ratio (x) = 0.34717 0.04896
# Poissons Ratio (y) = 0.21004 0.19874
# Poissons Ratio (z) = 0.03540 0.23750
#
# Static dielectric constant tensor:
#      x y z
#    x 1.808720 0.000000 0.000000 
#    y 0.000000 2.183920 0.000000 
#    z 0.000000 0.000000 2.158650 
# 
# From -- ./inp_files/3157.got.cif
#   From: 2010.05.17/outbox.cif.g08.bks.cpg/sg61_2_cif.got.tgz:3157.got - 2010.06.03 15:17:17.
