data_PCOD9459918
_publ_section_title
;
Structure prediction by ZEFSAII (Michael W. Deem and Ramdas Pophale) SiO2 
 PCOD9459918
Probable space group: P B C A
;
_chemical_formula_sum "Si O2"
_cell_formula_units_Z 64
_cell_length_a 14.512465
_cell_length_b 11.359109
_cell_length_c 15.782154
_cell_angle_alpha 90.000000
_cell_angle_beta 90.000000
_cell_angle_gamma 90.000000
_cell_volume 2601.667125
_symmetry_space_group_name_H-M "P B C A"
_symmetry_group_IT_number 61
_symmetry_cell_setting 'orthorhombic'
loop_
_space_group_symop_operation_xyz
x,y,z
1/2-x,-y,1/2+z
1/2+x,1/2-y,-z
-x,1/2+y,1/2-z
-x,-y,-z
1/2+x,y,1/2-z
1/2-x,1/2+y,z
x,1/2-y,1/2+z
loop_
_atom_site_type_symbol
_atom_site_label
_atom_site_fract_x
_atom_site_fract_y
_atom_site_fract_z
Si Si1 0.356677 0.285025 0.254292
Si Si2 0.494800 0.481691 0.191626
Si Si3 0.910751 0.155261 0.414954
Si Si4 0.778971 0.123836 0.105103
Si Si5 0.655407 0.368976 0.258339
Si Si6 0.595815 0.365368 0.679275
Si Si7 0.690950 0.082659 0.938482
Si Si8 0.889939 0.081138 0.963761
O O1 0.443459 0.371195 0.239882
O O2 0.361964 0.196731 0.173277
O O3 0.339824 0.215108 0.341667
O O4 0.263490 0.359178 0.250245
O O5 0.598802 0.479857 0.225368
O O6 0.446124 0.592960 0.232315
O O7 0.470164 0.471357 0.093036
O O8 0.908145 0.277403 0.467614
O O9 0.015513 0.120663 0.390099
O O10 0.859575 0.042182 0.454131
O O11 0.694809 0.076717 0.161086
O O12 0.714191 0.160520 0.022036
O O13 0.850729 0.042408 0.054603
O O14 0.618752 0.269879 0.194606
O O15 0.639440 0.357350 0.359634
O O16 0.796374 0.056300 0.910209
#
# Coordination Sequence:
#
# PCOD9459918 Si02
#       8
#     8   8   8   8   8   8   8   8
#     4  10  21  40  61  90 126 169 208 264 304 379
#     4  11  21  39  65  93 119 170 215 263 310 375
#     4  11  20  39  67  87 124 167 212 259 309 374
#     4   9  23  39  56  92 127 157 203 254 325 367
#     4  11  20  38  61  90 121 157 221 250 306 367
#     4  11  23  37  65  99 119 162 220 267 304 381
#     4  10  21  39  59  89 123 161 203 257 315 372
#     4   9  21  41  57  88 125 169 192 257 323 366
#
# _framework density 24.599612
#
# number of rings (size 3 to 8) (size 9 to 14) (size 15 to 20)
#    0.750    1.000    6.250    0.000    3.500    1.500 
#    2.250    1.250    0.000    0.750    0.000    0.000 
#    0.000    0.000    0.000    0.000    0.000    0.000 
#
# Total GULP energy -356315.093589 kJ/mol
# GULP energy per Si atom -5567.423337 kJ/mol
# Density = 2.454362 g / cm^3
# Si number density = 24.599612 Si / 1000 Ang^3
#
#
#
# Elastic Constant Matrix: (Units=GPa)
#
#
# Indices 1 2 3 4 5 6 
#
# 1 148.0961 17.1709 2.5102 0.0000 0.0000 0.0000
# 2 17.1709 31.2391 -16.7079 0.0000 0.0000 0.0000
# 3 2.5102 -16.7079 49.6104 0.0000 0.0000 0.0000
# 4 0.0000 0.0000 0.0000 6.9252 0.0000 0.0000
# 5 0.0000 0.0000 0.0000 0.0000 31.9018 0.0000
# 6 0.0000 0.0000 0.0000 0.0000 0.0000 28.9463
#
#
#
# Elastic Compliance Matrix: (Units=1/GPa)
#
#
# Indices 1 2 3 4 5 6 
#
# 1 0.007391 -0.005199 -0.002125 0.000000 0.000000 0.000000
# 2 -0.005199 0.042701 0.014644 0.000000 0.000000 0.000000
# 3 -0.002125 0.014644 0.025196 0.000000 0.000000 0.000000
# 4 0.000000 0.000000 0.000000 0.144399 0.000000 0.000000
# 5 0.000000 0.000000 0.000000 0.000000 0.031346 0.000000
# 6 0.000000 0.000000 0.000000 0.000000 0.000000 0.034547
#
#
# Mechanical properties :
#
#
# Convention : Reuss Voigt Hill
#
# Bulk Modulus (GPa) = 11.11992 26.09913 18.60953
# Shear Modulus (GPa) = 16.61586 28.61950 22.61768
#
# Velocity S-wave (km/s) = 2.60177 3.41458 3.03550
# Velocity P-wave (km/s) = 3.68181 5.11649 4.45725
#
# Compressibility (1/GPa) = 0.08992868
#
# Stress axis : x y z
#
# Youngs Moduli (GPa) = 135.29590 23.41855 39.68814
#
# Poissons Ratio (x) = 0.12176 0.08434
# Poissons Ratio (y) = 0.70343 -0.58120
# Poissons Ratio (z) = 0.28750 -0.34294
#
# Static dielectric constant tensor:
#      x y z
#    x 2.054740 0.000000 0.000000 
#    y 0.000000 2.071380 0.000000 
#    z 0.000000 0.000000 2.042300 
# 
# From -- ./inp_files/9593.got.cif
#   From: 2010.05.17/outbox.cif.g08.bks.cpg/sg61_5_cif.got.tgz:9593.got - 2010.06.03 15:17:17.
