data_PCOD9459122
_publ_section_title
;
Structure prediction by ZEFSAII (Michael W. Deem and Ramdas Pophale) SiO2 
 PCOD9459122
Probable space group: P B C A
;
_chemical_formula_sum "Si O2"
_cell_formula_units_Z 40
_cell_length_a 8.582636
_cell_length_b 9.096270
_cell_length_c 18.250273
_cell_angle_alpha 90.000000
_cell_angle_beta 90.000000
_cell_angle_gamma 90.000000
_cell_volume 1424.798345
_symmetry_space_group_name_H-M "P B C A"
_symmetry_group_IT_number 61
_symmetry_cell_setting 'orthorhombic'
loop_
_space_group_symop_operation_xyz
x,y,z
1/2-x,-y,1/2+z
1/2+x,1/2-y,-z
-x,1/2+y,1/2-z
-x,-y,-z
1/2+x,y,1/2-z
1/2-x,1/2+y,z
x,1/2-y,1/2+z
loop_
_atom_site_type_symbol
_atom_site_label
_atom_site_fract_x
_atom_site_fract_y
_atom_site_fract_z
Si Si1 0.047049 0.357229 0.602233
Si Si2 0.215396 0.916532 0.264556
Si Si3 0.538682 0.862768 0.773561
Si Si4 0.097271 0.154300 0.907512
Si Si5 0.840310 0.292581 0.981459
O O1 0.005150 0.341880 0.686991
O O2 0.037925 0.531968 0.590045
O O3 0.910180 0.300878 0.549064
O O4 0.203361 0.273331 0.578565
O O5 0.121706 0.795418 0.218835
O O6 0.320318 0.842738 0.328442
O O7 0.327506 0.015453 0.215496
O O8 0.106875 0.040543 0.301393
O O9 0.001308 0.300115 0.933704
O O10 0.230190 0.106341 0.965668
#
# Coordination Sequence:
#
# PCOD9459122 Si02
#       5
#     8   8   8   8   8
#     4  10  22  42  68 108 148 201 249 318 388 459
#     4  11  24  49  75 108 153 202 260 325 382 472
#     4  11  24  49  75 107 153 201 266 315 393 460
#     4  10  22  42  70 107 150 197 252 320 388 457
#     4  10  18  40  70 100 154 185 257 302 387 457
#
# _framework density 28.074148999999998
#
# number of rings (size 3 to 8) (size 9 to 14) (size 15 to 20)
#    0.000    1.600    2.000    3.600    0.000    0.000 
#   18.000   18.000    0.000    0.000    0.000    0.000 
#    0.000    0.000    0.000    0.000    0.000    0.000 
#
# Total GULP energy -222751.491474 kJ/mol
# GULP energy per Si atom -5568.787287 kJ/mol
# Density = 2.801025 g / cm^3
# Si number density = 28.074149 Si / 1000 Ang^3
#
#
#
# Elastic Constant Matrix: (Units=GPa)
#
#
# Indices 1 2 3 4 5 6 
#
# 1 183.2290 71.8069 42.4058 0.0000 0.0000 0.0000
# 2 71.8069 95.0716 28.9567 0.0000 0.0000 0.0000
# 3 42.4058 28.9567 88.5821 0.0000 0.0000 0.0000
# 4 0.0000 0.0000 0.0000 35.2216 0.0000 0.0000
# 5 0.0000 0.0000 0.0000 0.0000 61.2122 0.0000
# 6 0.0000 0.0000 0.0000 0.0000 0.0000 46.0472
#
#
#
# Elastic Compliance Matrix: (Units=1/GPa)
#
#
# Indices 1 2 3 4 5 6 
#
# 1 0.008084 -0.005472 -0.002081 0.000000 0.000000 0.000000
# 2 -0.005472 0.015385 -0.002410 0.000000 0.000000 0.000000
# 3 -0.002081 -0.002410 0.013073 0.000000 0.000000 0.000000
# 4 0.000000 0.000000 0.000000 0.028392 0.000000 0.000000
# 5 0.000000 0.000000 0.000000 0.000000 0.016337 0.000000
# 6 0.000000 0.000000 0.000000 0.000000 0.000000 0.021717
#
#
# Mechanical properties :
#
#
# Convention : Reuss Voigt Hill
#
# Bulk Modulus (GPa) = 60.18151 72.58018 66.38085
# Shear Modulus (GPa) = 38.92535 43.41040 41.16788
#
# Velocity S-wave (km/s) = 3.72764 3.93654 3.83351
# Velocity P-wave (km/s) = 6.32536 6.82429 6.57956
#
# Compressibility (1/GPa) = 0.01661640
#
# Stress axis : x y z
#
# Youngs Moduli (GPa) = 123.70696 64.99807 76.49349
#
# Poissons Ratio (x) = 0.35565 0.15919
# Poissons Ratio (y) = 0.67688 0.18434
# Poissons Ratio (z) = 0.25745 0.15664
#
# Static dielectric constant tensor:
#      x y z
#    x 2.225870 0.000000 0.000000 
#    y 0.000000 2.421530 0.000000 
#    z 0.000000 0.000000 2.359350 
# 
# From -- ./inp_files/10054.got.cif
#   From: 2010.05.17/outbox.cif.g08.bks.cpg/sg61_6_cif.got.tgz:10054.got - 2010.06.03 15:17:17.
