data_PCOD9459705
_publ_section_title
;
Structure prediction by ZEFSAII (Michael W. Deem and Ramdas Pophale) SiO2 
 PCOD9459705
Probable space group: P B C A
;
_chemical_formula_sum "Si O2"
_cell_formula_units_Z 56
_cell_length_a 23.767589
_cell_length_b 10.853710
_cell_length_c 11.297349
_cell_angle_alpha 90.000000
_cell_angle_beta 90.000000
_cell_angle_gamma 90.000000
_cell_volume 2914.337789
_symmetry_space_group_name_H-M "P B C A"
_symmetry_group_IT_number 61
_symmetry_cell_setting 'orthorhombic'
loop_
_space_group_symop_operation_xyz
x,y,z
1/2-x,-y,1/2+z
1/2+x,1/2-y,-z
-x,1/2+y,1/2-z
-x,-y,-z
1/2+x,y,1/2-z
1/2-x,1/2+y,z
x,1/2-y,1/2+z
loop_
_atom_site_type_symbol
_atom_site_label
_atom_site_fract_x
_atom_site_fract_y
_atom_site_fract_z
Si Si1 0.140556 0.019247 0.078185
Si Si2 0.172589 0.633391 0.802060
Si Si3 0.303008 0.620451 0.856876
Si Si4 0.922982 0.986965 0.582453
Si Si5 0.100778 0.218501 0.259300
Si Si6 0.962357 0.537486 0.818531
Si Si7 0.881595 0.100128 0.159800
O O1 0.105522 0.115757 0.157045
O O2 0.168164 0.925733 0.171360
O O3 0.182359 0.100841 0.995986
O O4 0.109828 0.936201 0.978411
O O5 0.237549 0.637104 0.837152
O O6 0.137314 0.542158 0.886577
O O7 0.141808 0.764747 0.815578
O O8 0.338099 0.730721 0.797612
O O9 0.331810 0.496426 0.802642
O O10 0.923810 0.845539 0.623752
O O11 0.938603 0.999473 0.446900
O O12 0.971025 0.048200 0.664108
O O13 0.063885 0.333298 0.220123
O O14 0.938243 0.435990 0.728417
#
# Coordination Sequence:
#
# PCOD9459705 Si02
#       7
#     8   8   8   8   8   8   8
#     4   9  22  41  59  96 119 162 212 244 317 368
#     4  11  23  39  65  91 129 158 210 257 301 375
#     4   9  22  39  62  90 124 161 201 249 316 364
#     4  10  24  39  63  95 117 166 208 252 313 365
#     4  10  20  41  66  87 124 160 205 260 304 380
#     4  10  22  42  63  87 126 160 207 258 309 365
#     4   9  23  41  60  92 119 165 203 253 313 360
#
# _framework density 19.215342
#
# number of rings (size 3 to 8) (size 9 to 14) (size 15 to 20)
#    0.857    1.429    0.000    0.857    8.000    3.429 
#    0.000    2.857    0.000    0.000    0.000    0.000 
#    0.000    0.000    0.000    0.000    0.000    0.000 
#
# Total GULP energy -311947.284602 kJ/mol
# GULP energy per Si atom -5570.487225 kJ/mol
# Density = 1.917161 g / cm^3
# Si number density = 19.215342 Si / 1000 Ang^3
#
#
#
# Elastic Constant Matrix: (Units=GPa)
#
#
# Indices 1 2 3 4 5 6 
#
# 1 50.8187 -10.0155 -2.9237 0.0000 0.0000 0.0000
# 2 -10.0155 59.1532 2.0118 0.0000 0.0000 0.0000
# 3 -2.9237 2.0118 66.2792 0.0000 0.0000 0.0000
# 4 0.0000 0.0000 0.0000 35.1446 0.0000 0.0000
# 5 0.0000 0.0000 0.0000 0.0000 23.9176 0.0000
# 6 0.0000 0.0000 0.0000 0.0000 0.0000 16.5287
#
#
#
# Elastic Compliance Matrix: (Units=1/GPa)
#
#
# Indices 1 2 3 4 5 6 
#
# 1 0.020399 0.003427 0.000796 0.000000 0.000000 0.000000
# 2 0.003427 0.017498 -0.000380 0.000000 0.000000 0.000000
# 3 0.000796 -0.000380 0.015134 0.000000 0.000000 0.000000
# 4 0.000000 0.000000 0.000000 0.028454 0.000000 0.000000
# 5 0.000000 0.000000 0.000000 0.000000 0.041810 0.000000
# 6 0.000000 0.000000 0.000000 0.000000 0.000000 0.060501
#
#
# Mechanical properties :
#
#
# Convention : Reuss Voigt Hill
#
# Bulk Modulus (GPa) = 16.46990 17.15516 16.81253
# Shear Modulus (GPa) = 25.46468 27.59675 26.53071
#
# Velocity S-wave (km/s) = 3.64432 3.79381 3.71981
# Velocity P-wave (km/s) = 5.12815 5.30452 5.21708
#
# Compressibility (1/GPa) = 0.06071684
#
# Stress axis : x y z
#
# Youngs Moduli (GPa) = 49.02219 57.14815 66.07497
#
# Poissons Ratio (x) = -0.19583 -0.05258
# Poissons Ratio (y) = -0.16799 0.02511
# Poissons Ratio (z) = -0.03901 0.02172
#
# Static dielectric constant tensor:
#      x y z
#    x 1.650360 0.000000 0.000000 
#    y 0.000000 -3.306740 0.000000 
#    z 0.000000 0.000000 1.672800 
# 
# From -- ./inp_files/6446.got.cif
#   From: 2010.05.17/outbox.cif.g08.bks.cpg/sg61_4_cif.got.tgz:6446.got - 2010.06.03 15:17:17.
