data_PCOD9459914
_publ_section_title
;
Structure prediction by ZEFSAII (Michael W. Deem and Ramdas Pophale) SiO2 
 PCOD9459914
Probable space group: P B C A
;
_chemical_formula_sum "Si O2"
_cell_formula_units_Z 64
_cell_length_a 9.898546
_cell_length_b 21.142166
_cell_length_c 12.118932
_cell_angle_alpha 90.000000
_cell_angle_beta 90.000000
_cell_angle_gamma 90.000000
_cell_volume 2536.210129
_symmetry_space_group_name_H-M "P B C A"
_symmetry_group_IT_number 61
_symmetry_cell_setting 'orthorhombic'
loop_
_space_group_symop_operation_xyz
x,y,z
1/2-x,-y,1/2+z
1/2+x,1/2-y,-z
-x,1/2+y,1/2-z
-x,-y,-z
1/2+x,y,1/2-z
1/2-x,1/2+y,z
x,1/2-y,1/2+z
loop_
_atom_site_type_symbol
_atom_site_label
_atom_site_fract_x
_atom_site_fract_y
_atom_site_fract_z
Si Si1 0.057808 0.482183 0.323662
Si Si2 0.639603 0.515946 0.621571
Si Si3 0.358422 0.152317 0.875852
Si Si4 0.688905 0.380047 0.576908
Si Si5 0.953441 0.216945 0.434573
Si Si6 0.695906 0.327497 0.817465
Si Si7 0.509038 0.604721 0.024621
Si Si8 0.588804 0.194998 0.723317
O O1 0.981007 0.484593 0.208578
O O2 0.020864 0.423325 0.403666
O O3 0.218855 0.484887 0.311854
O O4 0.016489 0.543606 0.394403
O O5 0.641849 0.584568 0.563222
O O6 0.644656 0.452078 0.550235
O O7 0.488342 0.156841 0.799376
O O8 0.226016 0.159614 0.803123
O O9 0.365343 0.213153 0.955259
O O10 0.580331 0.328377 0.539783
O O11 0.689495 0.372137 0.710200
O O12 0.838989 0.368085 0.532280
O O13 0.852238 0.185647 0.345887
O O14 0.009546 0.281486 0.385877
O O15 0.609318 0.354069 0.919503
O O16 0.630593 0.260710 0.782369
#
# Coordination Sequence:
#
# PCOD9459914 Si02
#       8
#     8   8   8   8   8   8   8   8
#     4  10  22  40  62  98 136 179 215 274 341 411
#     4  11  23  42  66  98 144 177 217 278 346 415
#     4  12  27  47  68 101 136 184 228 278 351 403
#     4  10  22  40  69 104 136 175 220 282 346 404
#     4  11  26  44  73 103 130 176 233 288 337 407
#     4  11  21  43  70 100 132 176 226 286 334 407
#     4  10  21  38  67  98 133 173 227 270 338 410
#     4  11  26  48  68  97 138 179 230 285 340 401
#
# _framework density 25.234501999999999
#
# number of rings (size 3 to 8) (size 9 to 14) (size 15 to 20)
#    0.000    1.250    2.500    3.000    5.250    2.500 
#    0.000    0.000    0.000    0.000    0.000    0.000 
#    0.000    0.000    0.000    0.000    0.000    0.000 
#
# Total GULP energy -358697.186093 kJ/mol
# GULP energy per Si atom -5604.643533 kJ/mol
# Density = 2.517707 g / cm^3
# Si number density = 25.234502 Si / 1000 Ang^3
#
#
#
# Elastic Constant Matrix: (Units=GPa)
#
#
# Indices 1 2 3 4 5 6 
#
# 1 137.7205 25.4978 16.3894 0.0000 0.0000 0.0000
# 2 25.4978 115.6554 -5.2490 0.0000 0.0000 0.0000
# 3 16.3894 -5.2490 46.8102 0.0000 0.0000 0.0000
# 4 0.0000 0.0000 0.0000 31.2606 0.0000 0.0000
# 5 0.0000 0.0000 0.0000 0.0000 43.6242 0.0000
# 6 0.0000 0.0000 0.0000 0.0000 0.0000 30.6965
#
#
#
# Elastic Compliance Matrix: (Units=1/GPa)
#
#
# Indices 1 2 3 4 5 6 
#
# 1 0.007969 -0.001893 -0.003002 0.000000 0.000000 0.000000
# 2 -0.001893 0.009140 0.001688 0.000000 0.000000 0.000000
# 3 -0.003002 0.001688 0.022603 0.000000 0.000000 0.000000
# 4 0.000000 0.000000 0.000000 0.031989 0.000000 0.000000
# 5 0.000000 0.000000 0.000000 0.000000 0.022923 0.000000
# 6 0.000000 0.000000 0.000000 0.000000 0.000000 0.032577
#
#
# Mechanical properties :
#
#
# Convention : Reuss Voigt Hill
#
# Bulk Modulus (GPa) = 30.03267 41.49584 35.76426
# Shear Modulus (GPa) = 34.55040 38.68613 36.61826
#
# Velocity S-wave (km/s) = 3.70425 3.91969 3.81349
# Velocity P-wave (km/s) = 5.49750 6.07989 5.79601
#
# Compressibility (1/GPa) = 0.03329707
#
# Stress axis : x y z
#
# Youngs Moduli (GPa) = 125.48822 109.40517 44.24128
#
# Poissons Ratio (x) = 0.20712 0.13283
# Poissons Ratio (y) = 0.23756 -0.07467
# Poissons Ratio (z) = 0.37676 -0.18465
#
# Static dielectric constant tensor:
#      x y z
#    x 1.925340 0.000000 0.000000 
#    y 0.000000 2.016670 0.000000 
#    z 0.000000 0.000000 1.974620 
# 
# From -- ./inp_files/7226.got.cif
#   From: 2010.05.17/outbox.cif.g08.bks.cpg/sg61_4_cif.got.tgz:7226.got - 2010.06.03 15:17:17.
