data_PCOD9459067
_publ_section_title
;
Structure prediction by ZEFSAII (Michael W. Deem and Ramdas Pophale) SiO2 
 PCOD9459067
Probable space group: P B C A
;
_chemical_formula_sum "Si O2"
_cell_formula_units_Z 40
_cell_length_a 8.527298
_cell_length_b 12.645777
_cell_length_c 13.924630
_cell_angle_alpha 90.000000
_cell_angle_beta 90.000000
_cell_angle_gamma 90.000000
_cell_volume 1501.552853
_symmetry_space_group_name_H-M "P B C A"
_symmetry_group_IT_number 61
_symmetry_cell_setting 'orthorhombic'
loop_
_space_group_symop_operation_xyz
x,y,z
1/2-x,-y,1/2+z
1/2+x,1/2-y,-z
-x,1/2+y,1/2-z
-x,-y,-z
1/2+x,y,1/2-z
1/2-x,1/2+y,z
x,1/2-y,1/2+z
loop_
_atom_site_type_symbol
_atom_site_label
_atom_site_fract_x
_atom_site_fract_y
_atom_site_fract_z
Si Si1 0.441313 0.641830 0.790391
Si Si2 0.892423 0.099841 0.611441
Si Si3 0.662392 0.716938 0.415221
Si Si4 0.086413 0.063486 0.121834
Si Si5 0.270012 0.411776 0.961075
O O1 0.266835 0.634463 0.832228
O O2 0.463991 0.637861 0.676857
O O3 0.529010 0.734020 0.848141
O O4 0.539133 0.535139 0.814461
O O5 0.899713 0.150595 0.506228
O O6 0.865624 0.973060 0.596288
O O7 0.779536 0.645685 0.351832
O O8 0.751895 0.812009 0.470983
O O9 0.920248 0.119500 0.103327
O O10 0.157229 0.007127 0.026335
#
# Coordination Sequence:
#
# PCOD9459067 Si02
#       5
#     8   8   8   8   8
#     4  10  22  39  59  86 122 163 204 250 304 362
#     4  10  22  39  59  86 122 163 204 250 304 362
#     4  10  18  34  62  88 114 152 200 246 298 354
#     4   8  16  33  54  77 109 148 189 237 293 350
#     4   8  16  33  54  77 109 148 189 237 293 350
#
# _framework density 26.639089999999999
#
# number of rings (size 3 to 8) (size 9 to 14) (size 15 to 20)
#    0.000    2.800    0.000    3.600    0.000    4.800 
#    0.000    8.000    0.000   18.000    0.000    0.000 
#    0.000    0.000    0.000    0.000    0.000    0.000 
#
# Total GULP energy -223786.858517 kJ/mol
# GULP energy per Si atom -5594.671463 kJ/mol
# Density = 2.657846 g / cm^3
# Si number density = 26.639090 Si / 1000 Ang^3
#
#
#
# Elastic Constant Matrix: (Units=GPa)
#
#
# Indices 1 2 3 4 5 6 
#
# 1 102.3461 28.1145 37.4009 0.0000 0.0000 0.0000
# 2 28.1145 36.9716 -14.0328 0.0000 0.0000 0.0000
# 3 37.4009 -14.0328 82.7394 0.0000 0.0000 0.0000
# 4 0.0000 0.0000 0.0000 27.2572 0.0000 0.0000
# 5 0.0000 0.0000 0.0000 0.0000 42.7365 0.0000
# 6 0.0000 0.0000 0.0000 0.0000 0.0000 23.5704
#
#
#
# Elastic Compliance Matrix: (Units=1/GPa)
#
#
# Indices 1 2 3 4 5 6 
#
# 1 0.019564 -0.019488 -0.012149 0.000000 0.000000 0.000000
# 2 -0.019488 0.048321 0.017005 0.000000 0.000000 0.000000
# 3 -0.012149 0.017005 0.020462 0.000000 0.000000 0.000000
# 4 0.000000 0.000000 0.000000 0.036688 0.000000 0.000000
# 5 0.000000 0.000000 0.000000 0.000000 0.023399 0.000000
# 6 0.000000 0.000000 0.000000 0.000000 0.000000 0.042426
#
#
# Mechanical properties :
#
#
# Convention : Reuss Voigt Hill
#
# Bulk Modulus (GPa) = 16.92540 36.11360 26.51950
# Shear Modulus (GPa) = 20.84915 30.08444 25.46679
#
# Velocity S-wave (km/s) = 2.80063 3.36420 3.09527
# Velocity P-wave (km/s) = 4.10188 5.35505 4.76980
#
# Compressibility (1/GPa) = 0.05908279
#
# Stress axis : x y z
#
# Youngs Moduli (GPa) = 51.11515 20.69476 48.87173
#
# Poissons Ratio (x) = 0.40330 0.59372
# Poissons Ratio (y) = 0.99613 -0.83105
# Poissons Ratio (z) = 0.62098 -0.35191
#
# Static dielectric constant tensor:
#      x y z
#    x 2.077460 0.000000 0.000000 
#    y 0.000000 2.117280 0.000000 
#    z 0.000000 0.000000 2.154080 
# 
# From -- ./inp_files/5109.got.cif
#   From: 2010.05.17/outbox.cif.g08.bks.cpg/sg61_3_cif.got.tgz:5109.got - 2010.06.03 15:17:17.
