data_PCOD9459016
_publ_section_title
;
Structure prediction by ZEFSAII (Michael W. Deem and Ramdas Pophale) SiO2 
 PCOD9459016
Probable space group: P B C A
;
_chemical_formula_sum "Si O2"
_cell_formula_units_Z 56
_cell_length_a 5.437598
_cell_length_b 18.452670
_cell_length_c 25.738061
_cell_angle_alpha 90.000000
_cell_angle_beta 90.000000
_cell_angle_gamma 90.000000
_cell_volume 2582.510750
_symmetry_space_group_name_H-M "P B C A"
_symmetry_group_IT_number 61
_symmetry_cell_setting 'orthorhombic'
loop_
_space_group_symop_operation_xyz
x,y,z
1/2-x,-y,1/2+z
1/2+x,1/2-y,-z
-x,1/2+y,1/2-z
-x,-y,-z
1/2+x,y,1/2-z
1/2-x,1/2+y,z
x,1/2-y,1/2+z
loop_
_atom_site_type_symbol
_atom_site_label
_atom_site_fract_x
_atom_site_fract_y
_atom_site_fract_z
Si Si1 0.809538 0.252017 0.884176
Si Si2 0.768673 0.995581 0.779364
Si Si3 0.289583 0.583854 0.113213
Si Si4 0.880557 0.097241 0.497021
Si Si5 0.220927 0.829903 0.221931
Si Si6 0.182914 0.747480 0.949790
Si Si7 0.876348 0.085364 0.019272
O O1 0.749726 0.334414 0.866578
O O2 0.824748 0.200387 0.835049
O O3 0.562646 0.234147 0.916166
O O4 0.065752 0.245905 0.916192
O O5 0.521668 0.971287 0.748925
O O6 0.762159 0.968581 0.838674
O O7 0.773788 0.082831 0.778921
O O8 0.098887 0.584156 0.064922
O O9 0.539048 0.570691 0.079199
O O10 0.833899 0.181304 0.509798
O O11 0.620432 0.064381 0.513440
O O12 0.137866 0.066210 0.514728
O O13 0.487976 0.806216 0.243131
O O14 0.159276 0.826633 0.975651
#
# Coordination Sequence:
#
# PCOD9459016 Si02
#       7
#     8   8   8   8   8   8   8
#     4  11  22  32  56  83 113 137 180 226 267 313
#     4  10  23  39  61  78 103 139 186 225 273 332
#     4   9  22  32  55  84 111 138 178 226 272 308
#     4  10  18  29  50  75 119 145 176 207 262 318
#     4  10  22  43  59  77 102 145 183 221 274 333
#     4  11  18  31  49  82 114 148 177 212 262 315
#     4   9  17  28  46  75 109 145 171 212 251 314
#
# _framework density 21.684325000000001
#
# number of rings (size 3 to 8) (size 9 to 14) (size 15 to 20)
#    0.857    1.143    1.429    2.571    2.000    1.143 
#    0.000    0.000    0.000    1.714    0.000    0.000 
#    0.000    0.000    0.000    0.000    0.000    0.000 
#
# Total GULP energy -311906.085685 kJ/mol
# GULP energy per Si atom -5569.751530 kJ/mol
# Density = 2.163497 g / cm^3
# Si number density = 21.684325 Si / 1000 Ang^3
#
#
#
# Elastic Constant Matrix: (Units=GPa)
#
#
# Indices 1 2 3 4 5 6 
#
# 1 145.2061 5.3788 27.2631 0.0000 0.0000 0.0000
# 2 5.3788 30.0017 22.6621 0.0000 0.0000 0.0000
# 3 27.2631 22.6621 54.6905 0.0000 0.0000 0.0000
# 4 0.0000 0.0000 0.0000 38.6981 0.0000 0.0000
# 5 0.0000 0.0000 0.0000 0.0000 34.5823 0.0000
# 6 0.0000 0.0000 0.0000 0.0000 0.0000 22.5007
#
#
#
# Elastic Compliance Matrix: (Units=1/GPa)
#
#
# Indices 1 2 3 4 5 6 
#
# 1 0.007697 0.002210 -0.004753 0.000000 0.000000 0.000000
# 2 0.002210 0.049152 -0.021469 0.000000 0.000000 0.000000
# 3 -0.004753 -0.021469 0.029550 0.000000 0.000000 0.000000
# 4 0.000000 0.000000 0.000000 0.025841 0.000000 0.000000
# 5 0.000000 0.000000 0.000000 0.000000 0.028916 0.000000
# 6 0.000000 0.000000 0.000000 0.000000 0.000000 0.044443
#
#
# Mechanical properties :
#
#
# Convention : Reuss Voigt Hill
#
# Bulk Modulus (GPa) = 26.05785 37.83401 31.94593
# Shear Modulus (GPa) = 20.29096 30.79585 25.54340
#
# Velocity S-wave (km/s) = 3.06231 3.77263 3.43587
# Velocity P-wave (km/s) = 4.95446 6.03842 5.52309
#
# Compressibility (1/GPa) = 0.03837615
#
# Stress axis : x y z
#
# Youngs Moduli (GPa) = 129.91619 20.34506 33.84090
#
# Poissons Ratio (x) = -0.04497 0.16084
# Poissons Ratio (y) = -0.28714 0.72653
# Poissons Ratio (z) = 0.61748 0.43679
#
# Static dielectric constant tensor:
#      x y z
#    x 1.967920 0.000000 0.000000 
#    y 0.000000 1.875240 0.000000 
#    z 0.000000 0.000000 1.729100 
# 
# From -- ./inp_files/11290.got.cif
#   From: 2010.05.17/outbox.cif.g08.bks.cpg/sg61_6_cif.got.tgz:11290.got - 2010.06.03 15:17:17.
