data_PCOD9459630
_publ_section_title
;
Structure prediction by ZEFSAII (Michael W. Deem and Ramdas Pophale) SiO2 
 PCOD9459630
Probable space group: P B C A
;
_chemical_formula_sum "Si O2"
_cell_formula_units_Z 48
_cell_length_a 16.071239
_cell_length_b 14.214421
_cell_length_c 8.582639
_cell_angle_alpha 90.000000
_cell_angle_beta 90.000000
_cell_angle_gamma 90.000000
_cell_volume 1960.646866
_symmetry_space_group_name_H-M "P B C A"
_symmetry_group_IT_number 61
_symmetry_cell_setting 'orthorhombic'
loop_
_space_group_symop_operation_xyz
x,y,z
1/2-x,-y,1/2+z
1/2+x,1/2-y,-z
-x,1/2+y,1/2-z
-x,-y,-z
1/2+x,y,1/2-z
1/2-x,1/2+y,z
x,1/2-y,1/2+z
loop_
_atom_site_type_symbol
_atom_site_label
_atom_site_fract_x
_atom_site_fract_y
_atom_site_fract_z
Si Si1 0.664754 0.947145 0.561426
Si Si2 0.734306 0.770719 0.751749
Si Si3 0.089558 0.280483 0.166814
Si Si4 0.981994 0.173264 0.952375
Si Si5 0.358436 0.159707 0.963075
Si Si6 0.164623 0.468185 0.104244
O O1 0.700369 0.852944 0.643272
O O2 0.577071 0.914909 0.488873
O O3 0.738083 0.975227 0.443781
O O4 0.655188 0.016276 0.709439
O O5 0.829762 0.747930 0.734695
O O6 0.676030 0.681680 0.708403
O O7 0.717379 0.806696 0.925326
O O8 0.123359 0.368307 0.065769
O O9 0.018389 0.320161 0.280329
O O10 0.056926 0.189593 0.074272
O O11 0.930781 0.269751 0.985450
O O12 0.377360 0.053472 0.009185
#
# Coordination Sequence:
#
# PCOD9459630 Si02
#       6
#     8   8   8   8   8   8
#     4  10  23  43  65  89 120 163 208 252 306 367
#     4  10  20  39  64  85 116 165 211 245 295 373
#     4  12  23  38  62  93 125 160 205 256 312 368
#     4  11  24  42  62  89 129 168 200 246 318 383
#     4  10  21  41  63  86 119 162 210 251 298 366
#     4  11  23  39  64  93 119 157 212 264 303 353
#
# _framework density 24.481718000000001
#
# number of rings (size 3 to 8) (size 9 to 14) (size 15 to 20)
#    0.000    1.333    0.000    8.000    0.000    4.000 
#    0.000    5.000    0.000    0.000    0.000    0.000 
#    0.000    0.000    0.000    0.000    0.000    0.000 
#
# Total GULP energy -268573.914091 kJ/mol
# GULP energy per Si atom -5595.289877 kJ/mol
# Density = 2.442600 g / cm^3
# Si number density = 24.481718 Si / 1000 Ang^3
#
#
#
# Elastic Constant Matrix: (Units=GPa)
#
#
# Indices 1 2 3 4 5 6 
#
# 1 87.8265 9.7588 1.1067 0.0000 0.0000 0.0000
# 2 9.7588 58.7686 13.9758 0.0000 0.0000 0.0000
# 3 1.1067 13.9758 60.9613 0.0000 0.0000 0.0000
# 4 0.0000 0.0000 0.0000 41.2341 0.0000 0.0000
# 5 0.0000 0.0000 0.0000 0.0000 38.3083 0.0000
# 6 0.0000 0.0000 0.0000 0.0000 0.0000 42.0637
#
#
#
# Elastic Compliance Matrix: (Units=1/GPa)
#
#
# Indices 1 2 3 4 5 6 
#
# 1 0.011604 -0.001985 0.000244 0.000000 0.000000 0.000000
# 2 -0.001985 0.018337 -0.004168 0.000000 0.000000 0.000000
# 3 0.000244 -0.004168 0.017355 0.000000 0.000000 0.000000
# 4 0.000000 0.000000 0.000000 0.024252 0.000000 0.000000
# 5 0.000000 0.000000 0.000000 0.000000 0.026104 0.000000
# 6 0.000000 0.000000 0.000000 0.000000 0.000000 0.023773
#
#
# Mechanical properties :
#
#
# Convention : Reuss Voigt Hill
#
# Bulk Modulus (GPa) = 28.18607 28.58209 28.38408
# Shear Modulus (GPa) = 34.46683 36.50225 35.48454
#
# Velocity S-wave (km/s) = 3.75622 3.86554 3.81127
# Velocity P-wave (km/s) = 5.50911 5.62347 5.56658
#
# Compressibility (1/GPa) = 0.03547852
#
# Stress axis : x y z
#
# Youngs Moduli (GPa) = 86.18045 54.53561 57.62066
#
# Poissons Ratio (x) = 0.10825 -0.01408
# Poissons Ratio (y) = 0.17106 0.24015
# Poissons Ratio (z) = -0.02106 0.22729
#
# Static dielectric constant tensor:
#      x y z
#    x 1.982930 0.000000 0.000000 
#    y 0.000000 1.951130 0.000000 
#    z 0.000000 0.000000 2.020740 
# 
# From -- ./inp_files/3438.got.cif
#   From: 2010.05.17/outbox.cif.g08.bks.cpg/sg61_2_cif.got.tgz:3438.got - 2010.06.03 15:17:17.
