data_PCOD9459602
_publ_section_title
;
Structure prediction by ZEFSAII (Michael W. Deem and Ramdas Pophale) SiO2 
 PCOD9459602
Probable space group: P B C A
;
_chemical_formula_sum "Si O2"
_cell_formula_units_Z 56
_cell_length_a 28.012405
_cell_length_b 5.686614
_cell_length_c 13.732731
_cell_angle_alpha 90.000000
_cell_angle_beta 90.000000
_cell_angle_gamma 90.000000
_cell_volume 2187.565471
_symmetry_space_group_name_H-M "P B C A"
_symmetry_group_IT_number 61
_symmetry_cell_setting 'orthorhombic'
loop_
_space_group_symop_operation_xyz
x,y,z
1/2-x,-y,1/2+z
1/2+x,1/2-y,-z
-x,1/2+y,1/2-z
-x,-y,-z
1/2+x,y,1/2-z
1/2-x,1/2+y,z
x,1/2-y,1/2+z
loop_
_atom_site_type_symbol
_atom_site_label
_atom_site_fract_x
_atom_site_fract_y
_atom_site_fract_z
Si Si1 0.743081 0.617191 0.905173
Si Si2 0.636966 0.829964 0.331254
Si Si3 0.573231 0.791656 0.986966
Si Si4 0.378146 0.484977 0.846033
Si Si5 0.008478 0.061172 0.378505
Si Si6 0.275397 0.861747 0.312887
Si Si7 0.559514 0.212493 0.300610
O O1 0.751210 0.368436 0.957362
O O2 0.689407 0.614164 0.865500
O O3 0.775905 0.626653 0.807071
O O4 0.613085 0.645383 0.406610
O O5 0.636489 0.738629 0.221033
O O6 0.601462 0.048758 0.338126
O O7 0.597372 0.594387 0.054507
O O8 0.555388 0.987864 0.063333
O O9 0.524200 0.737767 0.926874
O O10 0.329068 0.629253 0.854379
O O11 0.416382 0.615673 0.778838
O O12 0.021822 0.076768 0.266630
O O13 0.970721 0.846815 0.380643
O O14 0.249462 0.111539 0.337106
#
# Coordination Sequence:
#
# PCOD9459602 Si02
#       7
#     8   8   8   8   8   8   8
#     4  10  20  38  70 100 136 185 231 290 358 437
#     4  12  24  44  70 100 139 183 238 290 367 435
#     4  11  26  45  64 106 136 184 232 316 350 437
#     4  12  24  44  70 100 139 183 238 290 367 435
#     4  11  24  42  70  97 144 183 252 296 374 437
#     4  10  20  38  70 100 136 185 231 290 358 437
#     4  12  24  44  74  98 132 206 232 304 368 452
#
# _framework density 25.599235
#
# number of rings (size 3 to 8) (size 9 to 14) (size 15 to 20)
#    0.000    0.857    5.714    3.429    0.000    3.429 
#    0.000    1.429    0.000    0.000    0.000    0.000 
#    0.000    0.000    0.000    0.000    0.000    0.000 
#
# Total GULP energy -313256.026888 kJ/mol
# GULP energy per Si atom -5593.857623 kJ/mol
# Density = 2.554097 g / cm^3
# Si number density = 25.599235 Si / 1000 Ang^3
#
#
#
# Elastic Constant Matrix: (Units=GPa)
#
#
# Indices 1 2 3 4 5 6 
#
# 1 108.1194 24.9360 17.0847 0.0000 0.0000 0.0000
# 2 24.9360 122.6803 23.6984 0.0000 0.0000 0.0000
# 3 17.0847 23.6984 95.2741 0.0000 0.0000 0.0000
# 4 0.0000 0.0000 0.0000 34.5328 0.0000 0.0000
# 5 0.0000 0.0000 0.0000 0.0000 18.9381 0.0000
# 6 0.0000 0.0000 0.0000 0.0000 0.0000 51.1269
#
#
#
# Elastic Compliance Matrix: (Units=1/GPa)
#
#
# Indices 1 2 3 4 5 6 
#
# 1 0.009863 -0.001747 -0.001334 0.000000 0.000000 0.000000
# 2 -0.001747 0.008872 -0.001894 0.000000 0.000000 0.000000
# 3 -0.001334 -0.001894 0.011206 0.000000 0.000000 0.000000
# 4 0.000000 0.000000 0.000000 0.028958 0.000000 0.000000
# 5 0.000000 0.000000 0.000000 0.000000 0.052803 0.000000
# 6 0.000000 0.000000 0.000000 0.000000 0.000000 0.019559
#
#
# Mechanical properties :
#
#
# Convention : Reuss Voigt Hill
#
# Bulk Modulus (GPa) = 50.02026 50.83467 50.42746
# Shear Modulus (GPa) = 33.81234 38.27656 36.04445
#
# Velocity S-wave (km/s) = 3.63827 3.87101 3.75644
# Velocity P-wave (km/s) = 6.10176 6.31511 6.20935
#
# Compressibility (1/GPa) = 0.01999190
#
# Stress axis : x y z
#
# Youngs Moduli (GPa) = 101.39157 112.71230 89.23575
#
# Poissons Ratio (x) = 0.19691 0.11905
# Poissons Ratio (y) = 0.17713 0.16897
# Poissons Ratio (z) = 0.13526 0.21343
#
# Static dielectric constant tensor:
#      x y z
#    x 1.984410 0.000000 0.000000 
#    y 0.000000 2.162040 0.000000 
#    z 0.000000 0.000000 2.027550 
# 
# From -- ./inp_files/8660.got.cif
#   From: 2010.05.17/outbox.cif.g08.bks.cpg/sg61_5_cif.got.tgz:8660.got - 2010.06.03 15:17:17.
