data_PCOD9459759
_publ_section_title
;
Structure prediction by ZEFSAII (Michael W. Deem and Ramdas Pophale) SiO2 
 PCOD9459759
Probable space group: P B C A
;
_chemical_formula_sum "Si O2"
_cell_formula_units_Z 56
_cell_length_a 28.411705
_cell_length_b 5.780564
_cell_length_c 13.133392
_cell_angle_alpha 90.000000
_cell_angle_beta 90.000000
_cell_angle_gamma 90.000000
_cell_volume 2156.971554
_symmetry_space_group_name_H-M "P B C A"
_symmetry_group_IT_number 61
_symmetry_cell_setting 'orthorhombic'
loop_
_space_group_symop_operation_xyz
x,y,z
1/2-x,-y,1/2+z
1/2+x,1/2-y,-z
-x,1/2+y,1/2-z
-x,-y,-z
1/2+x,y,1/2-z
1/2-x,1/2+y,z
x,1/2-y,1/2+z
loop_
_atom_site_type_symbol
_atom_site_label
_atom_site_fract_x
_atom_site_fract_y
_atom_site_fract_z
Si Si1 0.971967 0.323839 0.147007
Si Si2 0.677644 0.756700 0.299952
Si Si3 0.241193 0.249546 0.532947
Si Si4 0.863608 0.861664 0.945717
Si Si5 0.367994 0.271968 0.890994
Si Si6 0.399677 0.058367 0.096520
Si Si7 0.996472 0.321032 0.376805
O O1 0.916768 0.281262 0.165285
O O2 0.975967 0.580400 0.096982
O O3 0.999770 0.340598 0.253112
O O4 0.988282 0.083542 0.092402
O O5 0.725635 0.735041 0.364332
O O6 0.676565 0.787155 0.179315
O O7 0.638907 0.554404 0.313516
O O8 0.647770 0.952606 0.358351
O O9 0.245596 0.504332 0.483018
O O10 0.186426 0.233087 0.554595
O O11 0.909225 0.713027 0.917041
O O12 0.868367 0.976192 0.056935
O O13 0.371959 0.118749 0.992569
O O14 0.443103 0.232045 0.101994
#
# Coordination Sequence:
#
# PCOD9459759 Si02
#       7
#     8   8   8   8   8   8   8
#     4  10  23  42  65 100 137 186 242 294 350 431
#     4  10  22  44  70  96 139 191 230 291 356 430
#     4  10  20  43  71  95 133 182 229 280 352 418
#     4  10  24  42  70 101 142 184 234 298 359 428
#     4  11  25  42  68 108 139 182 247 291 355 430
#     4  11  23  42  68  99 138 190 229 295 357 421
#     4  10  23  41  68  95 139 190 237 293 358 423
#
# _framework density 25.962326999999998
#
# number of rings (size 3 to 8) (size 9 to 14) (size 15 to 20)
#    0.000    1.714    2.857    0.000    6.000    3.429 
#    0.000    8.571    0.000    0.000    0.000    0.000 
#    0.000    0.000    0.000    0.000    0.000    0.000 
#
# Total GULP energy -311930.764408 kJ/mol
# GULP energy per Si atom -5570.192222 kJ/mol
# Density = 2.590324 g / cm^3
# Si number density = 25.962327 Si / 1000 Ang^3
#
#
#
# Elastic Constant Matrix: (Units=GPa)
#
#
# Indices 1 2 3 4 5 6 
#
# 1 111.1435 42.4164 5.9989 0.0000 0.0000 0.0000
# 2 42.4164 164.3057 -13.2592 0.0000 0.0000 0.0000
# 3 5.9989 -13.2592 42.2884 0.0000 0.0000 0.0000
# 4 0.0000 0.0000 0.0000 10.6628 0.0000 0.0000
# 5 0.0000 0.0000 0.0000 0.0000 40.5708 0.0000
# 6 0.0000 0.0000 0.0000 0.0000 0.0000 50.8165
#
#
#
# Elastic Compliance Matrix: (Units=1/GPa)
#
#
# Indices 1 2 3 4 5 6 
#
# 1 0.010200 -0.002821 -0.002332 0.000000 0.000000 0.000000
# 2 -0.002821 0.007025 0.002603 0.000000 0.000000 0.000000
# 3 -0.002332 0.002603 0.024794 0.000000 0.000000 0.000000
# 4 0.000000 0.000000 0.000000 0.093784 0.000000 0.000000
# 5 0.000000 0.000000 0.000000 0.000000 0.024648 0.000000
# 6 0.000000 0.000000 0.000000 0.000000 0.000000 0.019679
#
#
# Mechanical properties :
#
#
# Convention : Reuss Voigt Hill
#
# Bulk Modulus (GPa) = 27.08687 43.11663 35.10175
# Shear Modulus (GPa) = 25.31191 39.24880 32.28036
#
# Velocity S-wave (km/s) = 3.12580 3.89235 3.52995
# Velocity P-wave (km/s) = 4.84596 6.06993 5.49214
#
# Compressibility (1/GPa) = 0.03691825
#
# Stress axis : x y z
#
# Youngs Moduli (GPa) = 98.03986 142.35703 40.33240
#
# Poissons Ratio (x) = 0.40163 0.09404
# Poissons Ratio (y) = 0.27660 -0.10497
# Poissons Ratio (z) = 0.22858 -0.37052
#
# Static dielectric constant tensor:
#      x y z
#    x 2.051200 0.000000 0.000000 
#    y 0.000000 2.368690 0.000000 
#    z 0.000000 0.000000 2.125170 
# 
# From -- ./inp_files/8663.got.cif
#   From: 2010.05.17/outbox.cif.g08.bks.cpg/sg61_5_cif.got.tgz:8663.got - 2010.06.03 15:17:17.
