data_PCOD9459544
_publ_section_title
;
Structure prediction by ZEFSAII (Michael W. Deem and Ramdas Pophale) SiO2 
 PCOD9459544
Probable space group: P B C A
;
_chemical_formula_sum "Si O2"
_cell_formula_units_Z 64
_cell_length_a 17.596697
_cell_length_b 15.082067
_cell_length_c 10.946267
_cell_angle_alpha 90.000000
_cell_angle_beta 90.000000
_cell_angle_gamma 90.000000
_cell_volume 2905.079748
_symmetry_space_group_name_H-M "P B C A"
_symmetry_group_IT_number 61
_symmetry_cell_setting 'orthorhombic'
loop_
_space_group_symop_operation_xyz
x,y,z
1/2-x,-y,1/2+z
1/2+x,1/2-y,-z
-x,1/2+y,1/2-z
-x,-y,-z
1/2+x,y,1/2-z
1/2-x,1/2+y,z
x,1/2-y,1/2+z
loop_
_atom_site_type_symbol
_atom_site_label
_atom_site_fract_x
_atom_site_fract_y
_atom_site_fract_z
Si Si1 0.115199 0.229462 0.702002
Si Si2 0.639117 0.089403 0.999030
Si Si3 0.855815 0.417391 0.862092
Si Si4 0.691613 0.661329 0.003245
Si Si5 0.280092 0.260595 0.747214
Si Si6 0.506323 0.303456 0.610085
Si Si7 0.584669 0.521683 0.114451
Si Si8 0.953002 0.640930 0.458164
O O1 0.113984 0.141073 0.623670
O O2 0.193823 0.231799 0.774724
O O3 0.039029 0.248191 0.776297
O O4 0.117078 0.313602 0.609753
O O5 0.647313 0.985123 0.974044
O O6 0.722471 0.127074 0.027191
O O7 0.572416 0.122812 0.088078
O O8 0.786227 0.355944 0.820918
O O9 0.873641 0.474454 0.742081
O O10 0.926683 0.351045 0.877501
O O11 0.678358 0.727382 0.120789
O O12 0.634283 0.579619 0.019669
O O13 0.689972 0.697716 0.864006
O O14 0.502708 0.227834 0.506121
O O15 0.571856 0.423350 0.066947
O O16 0.505770 0.576625 0.122445
#
# Coordination Sequence:
#
# PCOD9459544 Si02
#       8
#     8   8   8   8   8   8   8   8
#     4  10  20  38  58  83 116 160 200 244 307 372
#     4  10  22  37  58  87 120 159 204 250 308 371
#     4  11  22  38  59  88 122 154 201 260 312 359
#     4  10  21  41  62  90 128 162 210 256 310 372
#     4  10  22  40  63  87 124 164 206 254 309 367
#     4  11  20  38  61  84 118 159 202 249 310 370
#     4  10  21  38  59  89 122 153 205 262 305 364
#     4  10  21  36  61  86 115 159 201 248 311 370
#
# _framework density 22.030376
#
# number of rings (size 3 to 8) (size 9 to 14) (size 15 to 20)
#    0.000    1.750    2.500    1.875    1.750    0.000 
#    0.000    1.250    0.000    0.000    0.000    0.000 
#    0.000    0.000    0.000    0.000    0.000    0.000 
#
# Total GULP energy -356842.076712 kJ/mol
# GULP energy per Si atom -5575.657449 kJ/mol
# Density = 2.198023 g / cm^3
# Si number density = 22.030376 Si / 1000 Ang^3
#
#
#
# Elastic Constant Matrix: (Units=GPa)
#
#
# Indices 1 2 3 4 5 6 
#
# 1 51.8430 13.8892 8.6133 0.0000 0.0000 0.0000
# 2 13.8892 71.7612 18.7278 0.0000 0.0000 0.0000
# 3 8.6133 18.7278 57.0580 0.0000 0.0000 0.0000
# 4 0.0000 0.0000 0.0000 33.2493 0.0000 0.0000
# 5 0.0000 0.0000 0.0000 0.0000 19.3782 0.0000
# 6 0.0000 0.0000 0.0000 0.0000 0.0000 18.9902
#
#
#
# Elastic Compliance Matrix: (Units=1/GPa)
#
#
# Indices 1 2 3 4 5 6 
#
# 1 0.020543 -0.003463 -0.001964 0.000000 0.000000 0.000000
# 2 -0.003463 0.015824 -0.004671 0.000000 0.000000 0.000000
# 3 -0.001964 -0.004671 0.019356 0.000000 0.000000 0.000000
# 4 0.000000 0.000000 0.000000 0.030076 0.000000 0.000000
# 5 0.000000 0.000000 0.000000 0.000000 0.051604 0.000000
# 6 0.000000 0.000000 0.000000 0.000000 0.000000 0.052659
#
#
# Mechanical properties :
#
#
# Convention : Reuss Voigt Hill
#
# Bulk Modulus (GPa) = 28.14873 29.23586 28.69230
# Shear Modulus (GPa) = 22.51217 23.61900 23.06559
#
# Velocity S-wave (km/s) = 3.20014 3.27786 3.23923
# Velocity P-wave (km/s) = 5.14388 5.25598 5.20023
#
# Compressibility (1/GPa) = 0.03552558
#
# Stress axis : x y z
#
# Youngs Moduli (GPa) = 48.67782 63.19323 51.66424
#
# Poissons Ratio (x) = 0.21887 0.10149
# Poissons Ratio (y) = 0.16859 0.24133
# Poissons Ratio (z) = 0.09562 0.29518
#
# Static dielectric constant tensor:
#      x y z
#    x 1.815440 0.000000 0.000000 
#    y 0.000000 1.810420 0.000000 
#    z 0.000000 0.000000 1.885880 
# 
# From -- ./inp_files/6304.got.cif
#   From: 2010.05.17/outbox.cif.g08.bks.cpg/sg61_4_cif.got.tgz:6304.got - 2010.06.03 15:17:17.
