data_PCOD9459175
_publ_section_title
;
Structure prediction by ZEFSAII (Michael W. Deem and Ramdas Pophale) SiO2 
 PCOD9459175
Probable space group: P B C A
;
_chemical_formula_sum "Si O2"
_cell_formula_units_Z 44
_cell_length_a 5.463735
_cell_length_b 13.152037
_cell_length_c 20.118502
_cell_angle_alpha 90.000000
_cell_angle_beta 90.000000
_cell_angle_gamma 90.000000
_cell_volume 1445.700362
_symmetry_space_group_name_H-M "P B C A"
_symmetry_group_IT_number 61
_symmetry_cell_setting 'orthorhombic'
loop_
_space_group_symop_operation_xyz
x,y,z
1/2-x,-y,1/2+z
1/2+x,1/2-y,-z
-x,1/2+y,1/2-z
-x,-y,-z
1/2+x,y,1/2-z
1/2-x,1/2+y,z
x,1/2-y,1/2+z
loop_
_atom_site_type_symbol
_atom_site_label
_atom_site_fract_x
_atom_site_fract_y
_atom_site_fract_z
Si Si1 0.939273 0.778477 0.133257
Si Si2 0.545184 0.348215 0.981670
Si Si3 0.301906 0.551931 0.392171
Si Si4 0.430957 0.539117 0.214617
Si Si5 0.940856 0.763526 0.338110
Si Si6 0.000000 0.500000 0.000000
O O1 0.910177 0.654236 0.138331
O O2 0.698401 0.816481 0.170248
O O3 0.181940 0.814932 0.168728
O O4 0.962396 0.801262 0.054689
O O5 0.293537 0.415318 0.968254
O O6 0.544594 0.277932 0.915798
O O7 0.794053 0.410069 0.980495
O O8 0.485797 0.469657 0.418251
O O9 0.061661 0.513703 0.355783
O O10 0.654481 0.511530 0.265069
O O11 0.429299 0.662390 0.206812
#
# Coordination Sequence:
#
# PCOD9459175 Si02
#       6
#     8   8   8   8   8   4
#     4  10  19  34  57  81 119 155 185 229 297 378
#     4  10  21  33  54  82 124 157 188 236 308 375
#     4  10  23  35  56  87 124 152 204 251 310 378
#     4  10  20  35  59  85 116 152 201 260 306 346
#     4  10  19  33  55  84 115 142 200 240 292 360
#     4  12  22  36  54  88 132 156 192 264 306 382
#
# _framework density 30.435075000000001
#
# number of rings (size 3 to 8) (size 9 to 14) (size 15 to 20)
#    0.000    2.182    1.818    4.909    5.091    0.000 
#    0.000    0.000    0.000    0.000    0.000   17.818 
#    0.000    0.000    0.000    0.000    0.000    0.000 
#
# Total GULP energy -245698.824859 kJ/mol
# GULP energy per Si atom -5584.064201 kJ/mol
# Density = 3.036580 g / cm^3
# Si number density = 30.435075 Si / 1000 Ang^3
#
#
#
# Elastic Constant Matrix: (Units=GPa)
#
#
# Indices 1 2 3 4 5 6 
#
# 1 233.4712 37.7086 39.0403 0.0000 0.0000 0.0000
# 2 37.7086 89.4778 12.4995 0.0000 0.0000 0.0000
# 3 39.0403 12.4995 153.4458 0.0000 0.0000 0.0000
# 4 0.0000 0.0000 0.0000 47.4076 0.0000 0.0000
# 5 0.0000 0.0000 0.0000 0.0000 53.0094 0.0000
# 6 0.0000 0.0000 0.0000 0.0000 0.0000 56.8112
#
#
#
# Elastic Compliance Matrix: (Units=1/GPa)
#
#
# Indices 1 2 3 4 5 6 
#
# 1 0.004761 -0.001858 -0.001060 0.000000 0.000000 0.000000
# 2 -0.001858 0.012030 -0.000507 0.000000 0.000000 0.000000
# 3 -0.001060 -0.000507 0.006828 0.000000 0.000000 0.000000
# 4 0.000000 0.000000 0.000000 0.021094 0.000000 0.000000
# 5 0.000000 0.000000 0.000000 0.000000 0.018865 0.000000
# 6 0.000000 0.000000 0.000000 0.000000 0.000000 0.017602
#
#
# Mechanical properties :
#
#
# Convention : Reuss Voigt Hill
#
# Bulk Modulus (GPa) = 59.63748 72.76575 66.20162
# Shear Modulus (GPa) = 53.40829 57.25540 55.33184
#
# Velocity S-wave (km/s) = 4.19361 4.34202 4.26846
# Velocity P-wave (km/s) = 6.56399 7.00699 6.78911
#
# Compressibility (1/GPa) = 0.01676798
#
# Stress axis : x y z
#
# Youngs Moduli (GPa) = 210.06094 83.12623 146.45752
#
# Poissons Ratio (x) = 0.15446 0.15522
# Poissons Ratio (y) = 0.39033 0.07428
# Poissons Ratio (z) = 0.22263 0.04216
#
# Static dielectric constant tensor:
#      x y z
#    x 20.405490 0.000000 0.000000 
#    y 0.000000 10.884580 0.000000 
#    z 0.000000 0.000000 -2.141430 
# 
# From -- ./inp_files/9953.got.cif
#   From: 2010.05.17/outbox.cif.g08.bks.cpg/sg61_5_cif.got.tgz:9953.got - 2010.06.03 15:17:17.
