data_PCOD9459503
_publ_section_title
;
Structure prediction by ZEFSAII (Michael W. Deem and Ramdas Pophale) SiO2 
 PCOD9459503
Probable space group: P B C A
;
_chemical_formula_sum "Si O2"
_cell_formula_units_Z 64
_cell_length_a 8.217849
_cell_length_b 33.974551
_cell_length_c 9.843680
_cell_angle_alpha 90.000000
_cell_angle_beta 90.000000
_cell_angle_gamma 90.000000
_cell_volume 2748.333110
_symmetry_space_group_name_H-M "P B C A"
_symmetry_group_IT_number 61
_symmetry_cell_setting 'orthorhombic'
loop_
_space_group_symop_operation_xyz
x,y,z
1/2-x,-y,1/2+z
1/2+x,1/2-y,-z
-x,1/2+y,1/2-z
-x,-y,-z
1/2+x,y,1/2-z
1/2-x,1/2+y,z
x,1/2-y,1/2+z
loop_
_atom_site_type_symbol
_atom_site_label
_atom_site_fract_x
_atom_site_fract_y
_atom_site_fract_z
Si Si1 0.506124 0.939398 0.598065
Si Si2 0.705831 0.510841 0.908929
Si Si3 0.823976 0.744553 0.364501
Si Si4 0.316564 0.601956 0.871969
Si Si5 0.818939 0.286632 0.591211
Si Si6 0.484252 0.361387 0.778616
Si Si7 0.490520 0.055146 0.828463
Si Si8 0.796350 0.336186 0.949624
O O1 0.639860 0.971417 0.551585
O O2 0.461177 0.910497 0.472961
O O3 0.553637 0.907790 0.710363
O O4 0.346326 0.966143 0.616211
O O5 0.599845 0.533354 0.795203
O O6 0.891539 0.523330 0.895376
O O7 0.793207 0.734457 0.206256
O O8 0.757783 0.782988 0.441322
O O9 0.725286 0.709908 0.441364
O O10 0.010720 0.736610 0.396887
O O11 0.389012 0.589500 0.727299
O O12 0.158709 0.575210 0.904341
O O13 0.253707 0.645265 0.907084
O O14 0.870906 0.330821 0.636084
O O15 0.661338 0.354173 0.844342
O O16 0.464129 0.348398 0.621975
#
# Coordination Sequence:
#
# PCOD9459503 Si02
#       8
#     8   8   8   8   8   8   8   8
#     4   9  18  33  50  72 100 132 173 217 259 309
#     4   9  18  31  48  71 100 132 171 216 261 310
#     4  10  20  37  59  84 114 147 183 225 274 329
#     4   9  18  34  52  72 101 135 173 214 259 311
#     4  10  20  37  59  83 113 146 182 224 274 329
#     4   9  19  34  54  76 105 138 170 215 264 311
#     4   9  18  33  50  69 100 137 169 214 265 308
#     4   9  19  35  54  79 107 136 173 215 260 315
#
# _framework density 23.286843000000001
#
# number of rings (size 3 to 8) (size 9 to 14) (size 15 to 20)
#    0.000    2.750    0.000    0.750    0.000    4.500 
#    0.000   10.000    0.000    0.000    0.000    0.000 
#    0.000    0.000    0.000    0.000    0.000    0.000 
#
# Total GULP energy -356670.740861 kJ/mol
# GULP energy per Si atom -5572.980326 kJ/mol
# Density = 2.323384 g / cm^3
# Si number density = 23.286843 Si / 1000 Ang^3
#
#
#
# Elastic Constant Matrix: (Units=GPa)
#
#
# Indices 1 2 3 4 5 6 
#
# 1 78.0324 -0.3516 14.2650 0.0000 0.0000 0.0000
# 2 -0.3516 56.1215 10.9644 0.0000 0.0000 0.0000
# 3 14.2650 10.9644 29.2724 0.0000 0.0000 0.0000
# 4 0.0000 0.0000 0.0000 19.7998 0.0000 0.0000
# 5 0.0000 0.0000 0.0000 0.0000 27.9323 0.0000
# 6 0.0000 0.0000 0.0000 0.0000 0.0000 17.1999
#
#
#
# Elastic Compliance Matrix: (Units=1/GPa)
#
#
# Indices 1 2 3 4 5 6 
#
# 1 0.014193 0.001554 -0.007499 0.000000 0.000000 0.000000
# 2 0.001554 0.019395 -0.008022 0.000000 0.000000 0.000000
# 3 -0.007499 -0.008022 0.040821 0.000000 0.000000 0.000000
# 4 0.000000 0.000000 0.000000 0.050505 0.000000 0.000000
# 5 0.000000 0.000000 0.000000 0.000000 0.035801 0.000000
# 6 0.000000 0.000000 0.000000 0.000000 0.000000 0.058140
#
#
# Mechanical properties :
#
#
# Convention : Reuss Voigt Hill
#
# Bulk Modulus (GPa) = 21.51654 23.68687 22.60170
# Shear Modulus (GPa) = 19.06354 22.22298 20.64326
#
# Velocity S-wave (km/s) = 2.86429 3.09255 2.98061
# Velocity P-wave (km/s) = 4.49430 4.79017 4.64459
#
# Compressibility (1/GPa) = 0.04647587
#
# Stress axis : x y z
#
# Youngs Moduli (GPa) = 70.45735 51.55836 24.49728
#
# Poissons Ratio (x) = -0.08012 0.18369
# Poissons Ratio (y) = -0.10948 0.19652
# Poissons Ratio (z) = 0.52833 0.41361
#
# Static dielectric constant tensor:
#      x y z
#    x 1.906920 0.000000 0.000000 
#    y 0.000000 1.926940 0.000000 
#    z 0.000000 0.000000 1.948400 
# 
# From -- ./inp_files/4968.got.cif
#   From: 2010.05.17/outbox.cif.g08.bks.cpg/sg61_3_cif.got.tgz:4968.got - 2010.06.03 15:17:17.
