data_PCOD9459837
_publ_section_title
;
Structure prediction by ZEFSAII (Michael W. Deem and Ramdas Pophale) SiO2 
 PCOD9459837
Probable space group: P B C A
;
_chemical_formula_sum "Si O2"
_cell_formula_units_Z 56
_cell_length_a 14.922967
_cell_length_b 30.777020
_cell_length_c 5.492411
_cell_angle_alpha 90.000000
_cell_angle_beta 90.000000
_cell_angle_gamma 90.000000
_cell_volume 2522.578986
_symmetry_space_group_name_H-M "P B C A"
_symmetry_group_IT_number 61
_symmetry_cell_setting 'orthorhombic'
loop_
_space_group_symop_operation_xyz
x,y,z
1/2-x,-y,1/2+z
1/2+x,1/2-y,-z
-x,1/2+y,1/2-z
-x,-y,-z
1/2+x,y,1/2-z
1/2-x,1/2+y,z
x,1/2-y,1/2+z
loop_
_atom_site_type_symbol
_atom_site_label
_atom_site_fract_x
_atom_site_fract_y
_atom_site_fract_z
Si Si1 0.761583 0.148816 0.328386
Si Si2 0.047534 0.075192 0.626336
Si Si3 0.059736 0.369528 0.628010
Si Si4 0.717855 0.758257 0.945558
Si Si5 0.357997 0.088730 0.841747
Si Si6 0.611586 0.826968 0.433286
Si Si7 0.770187 0.974650 0.406093
O O1 0.656746 0.152451 0.370053
O O2 0.804972 0.191198 0.457776
O O3 0.797411 0.103312 0.431351
O O4 0.796321 0.155913 0.057649
O O5 0.053881 0.105803 0.386389
O O6 0.127419 0.041107 0.600455
O O7 0.944600 0.058971 0.616269
O O8 0.060178 0.098347 0.891736
O O9 0.976023 0.336640 0.597403
O O10 0.768629 0.753011 0.691274
O O11 0.634581 0.724370 0.913106
O O12 0.400071 0.135372 0.766761
O O13 0.294890 0.066260 0.645269
O O14 0.747847 0.995886 0.666165
#
# Coordination Sequence:
#
# PCOD9459837 Si02
#       7
#     8   8   8   8   8   8   8
#     4  11  21  40  68  95 135 182 222 273 338 387
#     4  11  24  44  69 102 130 169 228 266 334 410
#     4  11  23  38  70 101 129 178 227 271 317 405
#     4  10  21  37  60  92 133 171 216 270 321 378
#     4  11  23  43  72  93 133 183 217 274 342 402
#     4  10  22  41  66  97 136 176 228 273 332 392
#     4  12  28  45  69 101 136 172 218 288 341 406
#
# _framework density 22.199504999999998
#
# number of rings (size 3 to 8) (size 9 to 14) (size 15 to 20)
#    0.000    1.143    4.286    1.714    2.000    1.143 
#    0.000    5.714    0.000    0.000    0.000    0.000 
#    0.000    0.000    0.000    0.000    0.000    0.000 
#
# Total GULP energy -311809.960848 kJ/mol
# GULP energy per Si atom -5568.035015 kJ/mol
# Density = 2.214898 g / cm^3
# Si number density = 22.199505 Si / 1000 Ang^3
#
#
#
# Elastic Constant Matrix: (Units=GPa)
#
#
# Indices 1 2 3 4 5 6 
#
# 1 79.9324 44.0941 6.4221 0.0000 0.0000 0.0000
# 2 44.0941 79.9019 29.1931 0.0000 0.0000 0.0000
# 3 6.4221 29.1931 114.2263 0.0000 0.0000 0.0000
# 4 0.0000 0.0000 0.0000 43.9780 0.0000 0.0000
# 5 0.0000 0.0000 0.0000 0.0000 20.5261 0.0000
# 6 0.0000 0.0000 0.0000 0.0000 0.0000 27.7331
#
#
#
# Elastic Compliance Matrix: (Units=1/GPa)
#
#
# Indices 1 2 3 4 5 6 
#
# 1 0.018284 -0.010715 0.001710 0.000000 0.000000 0.000000
# 2 -0.010715 0.020084 -0.004530 0.000000 0.000000 0.000000
# 3 0.001710 -0.004530 0.009816 0.000000 0.000000 0.000000
# 4 0.000000 0.000000 0.000000 0.022739 0.000000 0.000000
# 5 0.000000 0.000000 0.000000 0.000000 0.048719 0.000000
# 6 0.000000 0.000000 0.000000 0.000000 0.000000 0.036058
#
#
# Mechanical properties :
#
#
# Convention : Reuss Voigt Hill
#
# Bulk Modulus (GPa) = 47.36188 48.16438 47.76313
# Shear Modulus (GPa) = 26.34253 31.40418 28.87336
#
# Velocity S-wave (km/s) = 3.44848 3.76524 3.61034
# Velocity P-wave (km/s) = 6.10221 6.37542 6.24031
#
# Compressibility (1/GPa) = 0.02111403
#
# Stress axis : x y z
#
# Youngs Moduli (GPa) = 54.69257 49.79155 101.87206
#
# Poissons Ratio (x) = 0.53352 -0.17425
# Poissons Ratio (y) = 0.58603 0.46152
# Poissons Ratio (z) = -0.09355 0.22558
#
# Static dielectric constant tensor:
#      x y z
#    x 1.821870 0.000000 0.000000 
#    y 0.000000 1.921130 0.000000 
#    z 0.000000 0.000000 1.993590 
# 
# From -- ./inp_files/584.got.cif
#   From: 2010.05.17/outbox.cif.g08.bks.cpg/sg61_1_cif.got.tgz:584.got - 2010.06.03 15:17:17.
