data_PCOD9459688
_publ_section_title
;
Structure prediction by ZEFSAII (Michael W. Deem and Ramdas Pophale) SiO2 
 PCOD9459688
Probable space group: P B C A
;
_chemical_formula_sum "Si O2"
_cell_formula_units_Z 44
_cell_length_a 19.652459
_cell_length_b 7.820894
_cell_length_c 12.673424
_cell_angle_alpha 90.000000
_cell_angle_beta 90.000000
_cell_angle_gamma 90.000000
_cell_volume 1947.902717
_symmetry_space_group_name_H-M "P B C A"
_symmetry_group_IT_number 61
_symmetry_cell_setting 'orthorhombic'
loop_
_space_group_symop_operation_xyz
x,y,z
1/2-x,-y,1/2+z
1/2+x,1/2-y,-z
-x,1/2+y,1/2-z
-x,-y,-z
1/2+x,y,1/2-z
1/2-x,1/2+y,z
x,1/2-y,1/2+z
loop_
_atom_site_type_symbol
_atom_site_label
_atom_site_fract_x
_atom_site_fract_y
_atom_site_fract_z
Si Si1 0.657244 0.946551 0.295728
Si Si2 0.213159 0.295849 0.128586
Si Si3 0.031019 0.722868 0.212619
Si Si4 0.353198 0.620813 0.428457
Si Si5 0.500000 0.500000 0.500000
Si Si6 0.602871 0.086766 0.714894
O O1 0.679543 0.109409 0.364183
O O2 0.663094 0.010906 0.175314
O O3 0.711628 0.802031 0.324843
O O4 0.581357 0.878989 0.312522
O O5 0.164928 0.408847 0.204353
O O6 0.207734 0.365469 0.010802
O O7 0.070791 0.600620 0.294404
O O8 0.960373 0.796547 0.256812
O O9 0.015206 0.615421 0.108062
O O10 0.418341 0.539976 0.485501
O O11 0.372481 0.811520 0.387770
#
# Coordination Sequence:
#
# PCOD9459688 Si02
#       6
#     8   8   8   8   4   8
#     4  11  26  44  70 100 144 187 233 295 356 421
#     4  11  23  44  65 101 139 186 237 287 352 433
#     4  11  21  44  67 101 140 182 232 294 357 417
#     4  10  23  43  70 102 135 187 234 289 363 415
#     4  10  20  40  74 100 132 182 226 294 352 428
#     4  10  21  40  66  97 138 177 229 295 344 414
#
# _framework density 22.588397000000001
#
# number of rings (size 3 to 8) (size 9 to 14) (size 15 to 20)
#    0.000    1.455    1.818    4.364    0.000    2.909 
#    6.545    2.727    0.000    0.000    0.000    0.000 
#    0.000    0.000    0.000    0.000    0.000    0.000 
#
# Total GULP energy -244969.818536 kJ/mol
# GULP energy per Si atom -5567.495876 kJ/mol
# Density = 2.253698 g / cm^3
# Si number density = 22.588397 Si / 1000 Ang^3
#
#
#
# Elastic Constant Matrix: (Units=GPa)
#
#
# Indices 1 2 3 4 5 6 
#
# 1 71.3654 0.8956 11.6182 0.0000 0.0000 0.0000
# 2 0.8956 59.2928 12.7903 0.0000 0.0000 0.0000
# 3 11.6182 12.7903 66.7929 0.0000 0.0000 0.0000
# 4 0.0000 0.0000 0.0000 4.0740 0.0000 0.0000
# 5 0.0000 0.0000 0.0000 0.0000 16.9982 0.0000
# 6 0.0000 0.0000 0.0000 0.0000 0.0000 24.8969
#
#
#
# Elastic Compliance Matrix: (Units=1/GPa)
#
#
# Indices 1 2 3 4 5 6 
#
# 1 0.014427 0.000337 -0.002574 0.000000 0.000000 0.000000
# 2 0.000337 0.017600 -0.003429 0.000000 0.000000 0.000000
# 3 -0.002574 -0.003429 0.016076 0.000000 0.000000 0.000000
# 4 0.000000 0.000000 0.000000 0.245462 0.000000 0.000000
# 5 0.000000 0.000000 0.000000 0.000000 0.058830 0.000000
# 6 0.000000 0.000000 0.000000 0.000000 0.000000 0.040166
#
#
# Mechanical properties :
#
#
# Convention : Reuss Voigt Hill
#
# Bulk Modulus (GPa) = 27.19472 27.56214 27.37843
# Shear Modulus (GPa) = 12.01493 20.67028 16.34261
#
# Velocity S-wave (km/s) = 2.30881 3.02832 2.69271
# Velocity P-wave (km/s) = 4.37868 4.94530 4.67059
#
# Compressibility (1/GPa) = 0.03677184
#
# Stress axis : x y z
#
# Youngs Moduli (GPa) = 69.31342 56.81812 62.20443
#
# Poissons Ratio (x) = -0.01917 0.16012
# Poissons Ratio (y) = -0.02338 0.21330
# Poissons Ratio (z) = 0.17842 0.19483
#
# Static dielectric constant tensor:
#      x y z
#    x 1.815230 0.000000 0.000000 
#    y 0.000000 1.920610 0.000000 
#    z 0.000000 0.000000 1.810050 
# 
# From -- ./inp_files/6566.got.cif
#   From: 2010.05.17/outbox.cif.g08.bks.cpg/sg61_4_cif.got.tgz:6566.got - 2010.06.03 15:17:17.
