data_PCOD9459691
_publ_section_title
;
Structure prediction by ZEFSAII (Michael W. Deem and Ramdas Pophale) SiO2 
 PCOD9459691
Probable space group: P B C A
;
_chemical_formula_sum "Si O2"
_cell_formula_units_Z 64
_cell_length_a 25.518429
_cell_length_b 8.718169
_cell_length_c 11.239108
_cell_angle_alpha 90.000000
_cell_angle_beta 90.000000
_cell_angle_gamma 90.000000
_cell_volume 2500.409051
_symmetry_space_group_name_H-M "P B C A"
_symmetry_group_IT_number 61
_symmetry_cell_setting 'orthorhombic'
loop_
_space_group_symop_operation_xyz
x,y,z
1/2-x,-y,1/2+z
1/2+x,1/2-y,-z
-x,1/2+y,1/2-z
-x,-y,-z
1/2+x,y,1/2-z
1/2-x,1/2+y,z
x,1/2-y,1/2+z
loop_
_atom_site_type_symbol
_atom_site_label
_atom_site_fract_x
_atom_site_fract_y
_atom_site_fract_z
Si Si1 0.324756 0.195395 0.651588
Si Si2 0.502980 0.711092 0.368698
Si Si3 0.080203 0.543716 0.526096
Si Si4 0.684632 0.293963 0.140348
Si Si5 0.369385 0.760519 0.611893
Si Si6 0.255288 0.061615 0.245528
Si Si7 0.573059 0.015345 0.006269
Si Si8 0.419319 0.223546 0.325403
O O1 0.364810 0.133213 0.552658
O O2 0.282991 0.333898 0.644218
O O3 0.369209 0.255861 0.742683
O O4 0.289892 0.050887 0.695224
O O5 0.530185 0.854167 0.435863
O O6 0.446161 0.659415 0.412389
O O7 0.532489 0.556360 0.412645
O O8 0.524016 0.739981 0.237399
O O9 0.084459 0.386016 0.595840
O O10 0.079164 0.555415 0.384656
O O11 0.666212 0.301115 0.004289
O O12 0.649124 0.234623 0.252187
O O13 0.703679 0.456190 0.187430
O O14 0.732622 0.176046 0.155133
O O15 0.383262 0.587142 0.577366
O O16 0.585846 0.871262 0.088440
#
# Coordination Sequence:
#
# PCOD9459691 Si02
#       8
#     8   8   8   8   8   8   8   8
#     4  10  20  41  59  90 128 171 222 280 340 408
#     4   9  22  44  65  97 133 174 232 273 350 409
#     4  10  22  40  64  95 130 179 223 277 347 416
#     4  11  26  45  65 103 133 184 228 287 348 410
#     4  12  26  43  69 101 141 177 231 285 349 412
#     4  10  22  43  65  92 133 176 232 286 338 412
#     4  10  23  42  67  99 133 177 226 289 334 420
#     4  10  21  40  68  92 132 180 222 281 353 412
#
# _framework density 25.595813
#
# number of rings (size 3 to 8) (size 9 to 14) (size 15 to 20)
#    0.000    1.750    1.250    1.500    8.750    2.500 
#   13.500    0.000    0.000    0.000    0.000    0.000 
#    0.000    0.000    0.000    0.000    0.000    0.000 
#
# Total GULP energy -357084.738399 kJ/mol
# GULP energy per Si atom -5579.449037 kJ/mol
# Density = 2.553756 g / cm^3
# Si number density = 25.595813 Si / 1000 Ang^3
#
#
#
# Elastic Constant Matrix: (Units=GPa)
#
#
# Indices 1 2 3 4 5 6 
#
# 1 63.0413 28.5067 27.3555 0.0000 0.0000 0.0000
# 2 28.5067 111.6236 16.7181 0.0000 0.0000 0.0000
# 3 27.3555 16.7181 68.9129 0.0000 0.0000 0.0000
# 4 0.0000 0.0000 0.0000 26.8476 0.0000 0.0000
# 5 0.0000 0.0000 0.0000 0.0000 28.0343 0.0000
# 6 0.0000 0.0000 0.0000 0.0000 0.0000 51.1932
#
#
#
# Elastic Compliance Matrix: (Units=1/GPa)
#
#
# Indices 1 2 3 4 5 6 
#
# 1 0.020949 -0.004259 -0.007282 0.000000 0.000000 0.000000
# 2 -0.004259 0.010162 -0.000775 0.000000 0.000000 0.000000
# 3 -0.007282 -0.000775 0.017590 0.000000 0.000000 0.000000
# 4 0.000000 0.000000 0.000000 0.037247 0.000000 0.000000
# 5 0.000000 0.000000 0.000000 0.000000 0.035671 0.000000
# 6 0.000000 0.000000 0.000000 0.000000 0.000000 0.019534
#
#
# Mechanical properties :
#
#
# Convention : Reuss Voigt Hill
#
# Bulk Modulus (GPa) = 41.54848 43.19316 42.37082
# Shear Modulus (GPa) = 28.76736 32.61484 30.69110
#
# Velocity S-wave (km/s) = 3.35611 3.57350 3.46651
# Velocity P-wave (km/s) = 5.59337 5.82566 5.71069
#
# Compressibility (1/GPa) = 0.02406827
#
# Stress axis : x y z
#
# Youngs Moduli (GPa) = 47.73573 98.40164 56.85107
#
# Poissons Ratio (x) = 0.41911 0.41402
# Poissons Ratio (y) = 0.20332 0.04404
# Poissons Ratio (z) = 0.34763 0.07623
#
# Static dielectric constant tensor:
#      x y z
#    x 2.132760 0.000000 0.000000 
#    y 0.000000 2.038550 0.000000 
#    z 0.000000 0.000000 2.083820 
# 
# From -- ./inp_files/6774.got.cif
#   From: 2010.05.17/outbox.cif.g08.bks.cpg/sg61_4_cif.got.tgz:6774.got - 2010.06.03 15:17:17.
