data_PCOD9459476
_publ_section_title
;
Structure prediction by ZEFSAII (Michael W. Deem and Ramdas Pophale) SiO2 
 PCOD9459476
Probable space group: P B C A
;
_chemical_formula_sum "Si O2"
_cell_formula_units_Z 56
_cell_length_a 15.287116
_cell_length_b 8.965031
_cell_length_c 16.338685
_cell_angle_alpha 90.000000
_cell_angle_beta 90.000000
_cell_angle_gamma 90.000000
_cell_volume 2239.208101
_symmetry_space_group_name_H-M "P B C A"
_symmetry_group_IT_number 61
_symmetry_cell_setting 'orthorhombic'
loop_
_space_group_symop_operation_xyz
x,y,z
1/2-x,-y,1/2+z
1/2+x,1/2-y,-z
-x,1/2+y,1/2-z
-x,-y,-z
1/2+x,y,1/2-z
1/2-x,1/2+y,z
x,1/2-y,1/2+z
loop_
_atom_site_type_symbol
_atom_site_label
_atom_site_fract_x
_atom_site_fract_y
_atom_site_fract_z
Si Si1 0.965567 0.163558 0.611754
Si Si2 0.172538 0.944837 0.726848
Si Si3 0.622453 0.635395 0.848771
Si Si4 0.815353 0.270966 0.510345
Si Si5 0.550417 0.338613 0.217606
Si Si6 0.846150 0.570901 0.950229
Si Si7 0.654033 0.431913 0.699014
O O1 0.890202 0.275256 0.579641
O O2 0.907935 0.017347 0.636120
O O3 0.005999 0.213492 0.697975
O O4 0.051285 0.121463 0.556984
O O5 0.170050 0.776697 0.693783
O O6 0.080752 0.996162 0.762483
O O7 0.183585 0.052646 0.646459
O O8 0.243338 0.960862 0.798640
O O9 0.653480 0.616311 0.939733
O O10 0.520823 0.677667 0.851645
O O11 0.630095 0.496527 0.788915
O O12 0.712637 0.317960 0.506890
O O13 0.830043 0.099092 0.480830
O O14 0.633702 0.240656 0.197504
#
# Coordination Sequence:
#
# PCOD9459476 Si02
#       7
#     8   8   8   8   8   8   8
#     4  10  24  42  62  96 130 168 210 269 319 383
#     4  10  20  36  61  92 119 163 210 254 317 380
#     4  10  20  37  62  88 123 166 205 255 320 375
#     4  11  22  43  64  92 125 173 217 252 320 393
#     4  10  21  38  62  90 125 160 209 264 315 372
#     4  10  22  40  68  85 126 171 210 254 324 385
#     4  11  20  38  62  92 122 159 213 265 311 374
#
# _framework density 25.008842999999999
#
# number of rings (size 3 to 8) (size 9 to 14) (size 15 to 20)
#    0.000    1.714    1.429    4.714    6.000    0.000 
#   10.286    2.857    0.000    0.000    0.000    0.000 
#    0.000    0.000    0.000    0.000    0.000    0.000 
#
# Total GULP energy -312443.201349 kJ/mol
# GULP energy per Si atom -5579.342881 kJ/mol
# Density = 2.495192 g / cm^3
# Si number density = 25.008843 Si / 1000 Ang^3
#
#
#
# Elastic Constant Matrix: (Units=GPa)
#
#
# Indices 1 2 3 4 5 6 
#
# 1 153.6707 16.4963 37.1288 0.0000 0.0000 0.0000
# 2 16.4963 48.4381 0.4110 0.0000 0.0000 0.0000
# 3 37.1288 0.4110 41.6804 0.0000 0.0000 0.0000
# 4 0.0000 0.0000 0.0000 19.6323 0.0000 0.0000
# 5 0.0000 0.0000 0.0000 0.0000 36.4196 0.0000
# 6 0.0000 0.0000 0.0000 0.0000 0.0000 43.8959
#
#
#
# Elastic Compliance Matrix: (Units=1/GPa)
#
#
# Indices 1 2 3 4 5 6 
#
# 1 0.008679 -0.002890 -0.007702 0.000000 0.000000 0.000000
# 2 -0.002890 0.021609 0.002362 0.000000 0.000000 0.000000
# 3 -0.007702 0.002362 0.030830 0.000000 0.000000 0.000000
# 4 0.000000 0.000000 0.000000 0.050936 0.000000 0.000000
# 5 0.000000 0.000000 0.000000 0.000000 0.027458 0.000000
# 6 0.000000 0.000000 0.000000 0.000000 0.000000 0.022781
#
#
# Mechanical properties :
#
#
# Convention : Reuss Voigt Hill
#
# Bulk Modulus (GPa) = 22.39355 39.09572 30.74464
# Shear Modulus (GPa) = 25.82098 32.63977 29.23037
#
# Velocity S-wave (km/s) = 3.21670 3.61658 3.42248
# Velocity P-wave (km/s) = 4.77178 5.75380 5.28565
#
# Compressibility (1/GPa) = 0.04465571
#
# Stress axis : x y z
#
# Youngs Moduli (GPa) = 115.22450 46.27657 32.43576
#
# Poissons Ratio (x) = 0.13375 0.24984
# Poissons Ratio (y) = 0.33303 -0.07660
# Poissons Ratio (z) = 0.88751 -0.10929
#
# Static dielectric constant tensor:
#      x y z
#    x 2.077490 0.000000 0.000000 
#    y 0.000000 1.932680 0.000000 
#    z 0.000000 0.000000 2.033460 
# 
# From -- ./inp_files/10465.got.cif
#   From: 2010.05.17/outbox.cif.g08.bks.cpg/sg61_6_cif.got.tgz:10465.got - 2010.06.03 15:17:17.
