data_PCOD9459454
_publ_section_title
;
Structure prediction by ZEFSAII (Michael W. Deem and Ramdas Pophale) SiO2 
 PCOD9459454
Probable space group: P B C A
;
_chemical_formula_sum "Si O2"
_cell_formula_units_Z 60
_cell_length_a 24.728590
_cell_length_b 5.171676
_cell_length_c 22.359671
_cell_angle_alpha 90.000000
_cell_angle_beta 90.000000
_cell_angle_gamma 90.000000
_cell_volume 2859.539316
_symmetry_space_group_name_H-M "P B C A"
_symmetry_group_IT_number 61
_symmetry_cell_setting 'orthorhombic'
loop_
_space_group_symop_operation_xyz
x,y,z
1/2-x,-y,1/2+z
1/2+x,1/2-y,-z
-x,1/2+y,1/2-z
-x,-y,-z
1/2+x,y,1/2-z
1/2-x,1/2+y,z
x,1/2-y,1/2+z
loop_
_atom_site_type_symbol
_atom_site_label
_atom_site_fract_x
_atom_site_fract_y
_atom_site_fract_z
Si Si1 0.610995 0.314836 0.501157
Si Si2 0.108223 0.138902 0.169571
Si Si3 0.729291 0.970014 0.350732
Si Si4 0.541431 0.555739 0.590535
Si Si5 0.000000 0.000000 0.000000
Si Si6 0.571095 0.641573 0.399683
Si Si7 0.269229 0.824510 0.013886
Si Si8 0.467154 0.013650 0.769459
O O1 0.595588 0.427016 0.565722
O O2 0.607119 0.555885 0.455205
O O3 0.670589 0.211184 0.490536
O O4 0.561376 0.125902 0.486664
O O5 0.171838 0.108657 0.157495
O O6 0.083618 0.909221 0.130120
O O7 0.087433 0.074432 0.235843
O O8 0.083343 0.409737 0.147209
O O9 0.729367 0.681345 0.324120
O O10 0.747895 0.900994 0.419067
O O11 0.526381 0.807477 0.552997
O O12 0.490843 0.357337 0.576216
O O13 0.541205 0.583993 0.661423
O O14 0.231566 0.607855 0.985089
O O15 0.493579 0.264339 0.737734
#
# Coordination Sequence:
#
# PCOD9459454 Si02
#       8
#     8   8   8   8   4   8   8   8
#     4  11  25  37  63  95 138 174 215 284 348 413
#     4  12  22  40  65  94 130 174 215 280 330 388
#     4  10  20  36  58  91 121 157 216 277 332 377
#     4  11  25  40  60  94 140 177 227 263 340 421
#     4  10  24  40  64  98 136 184 214 282 348 428
#     4  11  22  36  63  92 132 170 212 262 335 406
#     4  10  21  39  59  89 124 167 217 274 334 398
#     4  12  25  43  64  94 134 181 221 265 327 413
#
# _framework density 20.982400999999999
#
# number of rings (size 3 to 8) (size 9 to 14) (size 15 to 20)
#    0.000    1.067    2.667    5.600   11.200    0.000 
#    0.000    0.000    0.000    1.600    0.000    0.000 
#    0.000    0.000    0.000    0.000    0.000    0.000 
#
# Total GULP energy -334068.865271 kJ/mol
# GULP energy per Si atom -5567.814421 kJ/mol
# Density = 2.093464 g / cm^3
# Si number density = 20.982401 Si / 1000 Ang^3
#
#
#
# Elastic Constant Matrix: (Units=GPa)
#
#
# Indices 1 2 3 4 5 6 
#
# 1 116.4502 23.8614 28.0431 0.0000 0.0000 0.0000
# 2 23.8614 111.3693 7.9280 0.0000 0.0000 0.0000
# 3 28.0431 7.9280 110.7458 0.0000 0.0000 0.0000
# 4 0.0000 0.0000 0.0000 22.8963 0.0000 0.0000
# 5 0.0000 0.0000 0.0000 0.0000 25.8645 0.0000
# 6 0.0000 0.0000 0.0000 0.0000 0.0000 26.4116
#
#
#
# Elastic Compliance Matrix: (Units=1/GPa)
#
#
# Indices 1 2 3 4 5 6 
#
# 1 0.009520 -0.001878 -0.002276 0.000000 0.000000 0.000000
# 2 -0.001878 0.009395 -0.000197 0.000000 0.000000 0.000000
# 3 -0.002276 -0.000197 0.009620 0.000000 0.000000 0.000000
# 4 0.000000 0.000000 0.000000 0.043675 0.000000 0.000000
# 5 0.000000 0.000000 0.000000 0.000000 0.038663 0.000000
# 6 0.000000 0.000000 0.000000 0.000000 0.000000 0.037862
#
#
# Mechanical properties :
#
#
# Convention : Reuss Voigt Hill
#
# Bulk Modulus (GPa) = 50.41931 50.91447 50.66689
# Shear Modulus (GPa) = 30.47855 33.61667 32.04761
#
# Velocity S-wave (km/s) = 3.81540 4.00701 3.91238
# Velocity P-wave (km/s) = 6.59479 6.76211 6.67898
#
# Compressibility (1/GPa) = 0.01983367
#
# Stress axis : x y z
#
# Youngs Moduli (GPa) = 105.03875 106.43414 103.94785
#
# Poissons Ratio (x) = 0.19985 0.23662
# Poissons Ratio (y) = 0.19723 0.02049
# Poissons Ratio (z) = 0.23910 0.02098
#
# Static dielectric constant tensor:
#      x y z
#    x 1.809230 0.000000 0.000000 
#    y 0.000000 1.660920 0.000000 
#    z 0.000000 0.000000 1.710540 
# 
# From -- ./inp_files/1059.got.cif
#   From: 2010.05.17/outbox.cif.g08.bks.cpg/sg61_1_cif.got.tgz:1059.got - 2010.06.03 15:17:17.
