data_PCOD9459971
_publ_section_title
;
Structure prediction by ZEFSAII (Michael W. Deem and Ramdas Pophale) SiO2 
 PCOD9459971
Probable space group: P B C A
;
_chemical_formula_sum "Si O2"
_cell_formula_units_Z 40
_cell_length_a 21.518981
_cell_length_b 5.381844
_cell_length_c 13.198300
_cell_angle_alpha 90.000000
_cell_angle_beta 90.000000
_cell_angle_gamma 90.000000
_cell_volume 1528.518864
_symmetry_space_group_name_H-M "P B C A"
_symmetry_group_IT_number 61
_symmetry_cell_setting 'orthorhombic'
loop_
_space_group_symop_operation_xyz
x,y,z
1/2-x,-y,1/2+z
1/2+x,1/2-y,-z
-x,1/2+y,1/2-z
-x,-y,-z
1/2+x,y,1/2-z
1/2-x,1/2+y,z
x,1/2-y,1/2+z
loop_
_atom_site_type_symbol
_atom_site_label
_atom_site_fract_x
_atom_site_fract_y
_atom_site_fract_z
Si Si1 0.284836 0.364753 0.154093
Si Si2 0.375133 0.624942 0.298848
Si Si3 0.446650 0.260917 0.446367
Si Si4 0.422836 0.624129 0.613387
Si Si5 0.836067 0.899784 0.030388
O O1 0.261810 0.091002 0.177791
O O2 0.345269 0.429705 0.220224
O O3 0.295739 0.403493 0.032632
O O4 0.422246 0.481947 0.372741
O O5 0.408886 0.831102 0.229962
O O6 0.320945 0.742932 0.369986
O O7 0.440854 0.364956 0.561292
O O8 0.517328 0.209443 0.416658
O O9 0.397677 0.044561 0.435220
O O10 0.360343 0.709856 0.555517
#
# Coordination Sequence:
#
# PCOD9459971 Si02
#       5
#     8   8   8   8   8
#     4  11  28  48  71  95 134 180 230 295 353 395
#     4  10  24  40  65 102 129 172 231 282 336 420
#     4  10  21  39  66  93 140 178 217 276 338 417
#     4   9  21  40  60  99 137 179 215 269 346 409
#     4  10  23  41  68  94 132 173 230 283 338 416
#
# _framework density 26.169125000000001
#
# number of rings (size 3 to 8) (size 9 to 14) (size 15 to 20)
#    0.000    2.000    0.000    0.600   14.000    3.200 
#    3.600    0.000    0.000    0.000    0.000    0.000 
#    0.000    0.000    0.000    0.000    0.000    0.000 
#
# Total GULP energy -223747.298753 kJ/mol
# GULP energy per Si atom -5593.682469 kJ/mol
# Density = 2.610956 g / cm^3
# Si number density = 26.169125 Si / 1000 Ang^3
#
#
#
# Elastic Constant Matrix: (Units=GPa)
#
#
# Indices 1 2 3 4 5 6 
#
# 1 52.3601 20.6511 24.6458 0.0000 0.0000 0.0000
# 2 20.6511 79.2394 35.5962 0.0000 0.0000 0.0000
# 3 24.6458 35.5962 139.8388 0.0000 0.0000 0.0000
# 4 0.0000 0.0000 0.0000 29.1854 0.0000 0.0000
# 5 0.0000 0.0000 0.0000 0.0000 39.2430 0.0000
# 6 0.0000 0.0000 0.0000 0.0000 0.0000 44.4703
#
#
#
# Elastic Compliance Matrix: (Units=1/GPa)
#
#
# Indices 1 2 3 4 5 6 
#
# 1 0.022187 -0.004546 -0.002753 0.000000 0.000000 0.000000
# 2 -0.004546 0.015181 -0.003063 0.000000 0.000000 0.000000
# 3 -0.002753 -0.003063 0.008416 0.000000 0.000000 0.000000
# 4 0.000000 0.000000 0.000000 0.034264 0.000000 0.000000
# 5 0.000000 0.000000 0.000000 0.000000 0.025482 0.000000
# 6 0.000000 0.000000 0.000000 0.000000 0.000000 0.022487
#
#
# Mechanical properties :
#
#
# Convention : Reuss Voigt Hill
#
# Bulk Modulus (GPa) = 39.90412 48.13605 44.02008
# Shear Modulus (GPa) = 31.82804 35.28276 33.55540
#
# Velocity S-wave (km/s) = 3.49125 3.67585 3.58474
# Velocity P-wave (km/s) = 5.61546 6.03738 5.83024
#
# Compressibility (1/GPa) = 0.02506007
#
# Stress axis : x y z
#
# Youngs Moduli (GPa) = 45.07085 65.87335 118.82033
#
# Poissons Ratio (x) = 0.29943 0.32715
# Poissons Ratio (y) = 0.20487 0.36396
# Poissons Ratio (z) = 0.12409 0.20178
#
# Static dielectric constant tensor:
#      x y z
#    x 2.075400 0.000000 0.000000 
#    y 0.000000 2.104860 0.000000 
#    z 0.000000 0.000000 2.063750 
# 
# From -- ./inp_files/231.got.cif
#   From: 2010.05.17/outbox.cif.g08.bks.cpg/sg61_1_cif.got.tgz:231.got - 2010.06.03 15:17:17.
