data_PCOD9459672
_publ_section_title
;
Structure prediction by ZEFSAII (Michael W. Deem and Ramdas Pophale) SiO2 
 PCOD9459672
Probable space group: P B C A
;
_chemical_formula_sum "Si O2"
_cell_formula_units_Z 44
_cell_length_a 23.988548
_cell_length_b 5.019050
_cell_length_c 12.920286
_cell_angle_alpha 90.000000
_cell_angle_beta 90.000000
_cell_angle_gamma 90.000000
_cell_volume 1555.598840
_symmetry_space_group_name_H-M "P B C A"
_symmetry_group_IT_number 61
_symmetry_cell_setting 'orthorhombic'
loop_
_space_group_symop_operation_xyz
x,y,z
1/2-x,-y,1/2+z
1/2+x,1/2-y,-z
-x,1/2+y,1/2-z
-x,-y,-z
1/2+x,y,1/2-z
1/2-x,1/2+y,z
x,1/2-y,1/2+z
loop_
_atom_site_type_symbol
_atom_site_label
_atom_site_fract_x
_atom_site_fract_y
_atom_site_fract_z
Si Si1 0.674477 0.831764 0.905899
Si Si2 0.373506 0.120702 0.774356
Si Si3 0.070312 0.202152 0.631860
Si Si4 0.783473 0.607161 0.092347
Si Si5 0.409559 0.449093 0.953320
Si Si6 0.000000 0.000000 0.500000
O O1 0.680607 0.676164 0.799251
O O2 0.624679 0.024117 0.868957
O O3 0.648597 0.615353 0.986737
O O4 0.714177 0.026870 0.969764
O O5 0.398541 0.376727 0.834427
O O6 0.416066 0.951940 0.703744
O O7 0.345431 0.943027 0.864966
O O8 0.064340 0.282918 0.504928
O O9 0.013783 0.042505 0.631380
O O10 0.738472 0.389284 0.126169
O O11 0.452751 0.234026 0.993820
#
# Coordination Sequence:
#
# PCOD9459672 Si02
#       6
#     8   8   8   8   8   4
#     4   9  22  40  66  92 130 178 223 281 354 413
#     4  10  23  42  66  99 133 184 228 286 361 424
#     4  10  21  41  67  93 133 179 228 282 347 428
#     4  11  27  44  69 102 138 182 232 297 356 426
#     4   9  20  40  64  90 134 175 219 281 347 416
#     4  10  20  40  64  96 128 180 222 284 342 412
#
# _framework density 28.284924
#
# number of rings (size 3 to 8) (size 9 to 14) (size 15 to 20)
#    0.000    2.182    0.000    0.545   10.182    4.364 
#    9.818    0.000    0.000    0.000    0.000    0.000 
#    0.000    0.000    0.000    0.000    0.000    0.000 
#
# Total GULP energy -244954.444798 kJ/mol
# GULP energy per Si atom -5567.146473 kJ/mol
# Density = 2.822055 g / cm^3
# Si number density = 28.284924 Si / 1000 Ang^3
#
#
#
# Elastic Constant Matrix: (Units=GPa)
#
#
# Indices 1 2 3 4 5 6 
#
# 1 63.9758 2.4304 27.1289 0.0000 0.0000 0.0000
# 2 2.4304 66.9243 6.2689 0.0000 0.0000 0.0000
# 3 27.1289 6.2689 143.7479 0.0000 0.0000 0.0000
# 4 0.0000 0.0000 0.0000 37.6002 0.0000 0.0000
# 5 0.0000 0.0000 0.0000 0.0000 51.0795 0.0000
# 6 0.0000 0.0000 0.0000 0.0000 0.0000 35.9476
#
#
#
# Elastic Compliance Matrix: (Units=1/GPa)
#
#
# Indices 1 2 3 4 5 6 
#
# 1 0.016997 -0.000318 -0.003194 0.000000 0.000000 0.000000
# 2 -0.000318 0.015009 -0.000595 0.000000 0.000000 0.000000
# 3 -0.003194 -0.000595 0.007585 0.000000 0.000000 0.000000
# 4 0.000000 0.000000 0.000000 0.026596 0.000000 0.000000
# 5 0.000000 0.000000 0.000000 0.000000 0.019577 0.000000
# 6 0.000000 0.000000 0.000000 0.000000 0.000000 0.027818
#
#
# Mechanical properties :
#
#
# Convention : Reuss Voigt Hill
#
# Bulk Modulus (GPa) = 31.86840 38.47826 35.17333
# Shear Modulus (GPa) = 37.80540 40.84679 39.32609
#
# Velocity S-wave (km/s) = 3.65991 3.80428 3.73279
# Velocity P-wave (km/s) = 5.39919 5.73847 5.57142
#
# Compressibility (1/GPa) = 0.03137905
#
# Stress axis : x y z
#
# Youngs Moduli (GPa) = 58.83256 66.62448 131.83331
#
# Poissons Ratio (x) = 0.02119 0.42107
# Poissons Ratio (y) = 0.01871 0.07838
# Poissons Ratio (z) = 0.18791 0.03961
#
# Static dielectric constant tensor:
#      x y z
#    x 0.008410 0.000000 0.000000 
#    y 0.000000 2.017590 0.000000 
#    z 0.000000 0.000000 2.399490 
# 
# From -- ./inp_files/8621.got.cif
#   From: 2010.05.17/outbox.cif.g08.bks.cpg/sg61_5_cif.got.tgz:8621.got - 2010.06.03 15:17:17.
