data_PCOD9459851
_publ_section_title
;
Structure prediction by ZEFSAII (Michael W. Deem and Ramdas Pophale) SiO2 
 PCOD9459851
Probable space group: P B C A
;
_chemical_formula_sum "Si O2"
_cell_formula_units_Z 64
_cell_length_a 18.271148
_cell_length_b 25.193970
_cell_length_c 5.208019
_cell_angle_alpha 90.000000
_cell_angle_beta 90.000000
_cell_angle_gamma 90.000000
_cell_volume 2397.369652
_symmetry_space_group_name_H-M "P B C A"
_symmetry_group_IT_number 61
_symmetry_cell_setting 'orthorhombic'
loop_
_space_group_symop_operation_xyz
x,y,z
1/2-x,-y,1/2+z
1/2+x,1/2-y,-z
-x,1/2+y,1/2-z
-x,-y,-z
1/2+x,y,1/2-z
1/2-x,1/2+y,z
x,1/2-y,1/2+z
loop_
_atom_site_type_symbol
_atom_site_label
_atom_site_fract_x
_atom_site_fract_y
_atom_site_fract_z
Si Si1 0.904783 0.929464 0.311435
Si Si2 0.584366 0.811306 0.046702
Si Si3 0.828836 0.395144 0.762038
Si Si4 0.542812 0.593437 0.928874
Si Si5 0.313349 0.864444 0.557054
Si Si6 0.448442 0.837091 0.823966
Si Si7 0.799303 0.492046 0.071444
Si Si8 0.769447 0.278869 0.247935
O O1 0.916368 0.872286 0.445490
O O2 0.985204 0.945745 0.207826
O O3 0.866909 0.969218 0.507715
O O4 0.851593 0.914926 0.075061
O O5 0.560829 0.859827 0.230145
O O6 0.641862 0.779348 0.218898
O O7 0.633530 0.838986 0.825271
O O8 0.506942 0.793653 0.923440
O O9 0.880952 0.423707 0.556779
O O10 0.743244 0.383278 0.721524
O O11 0.827612 0.433101 0.008872
O O12 0.496406 0.621388 0.156585
O O13 0.377657 0.825469 0.653150
O O14 0.263639 0.833859 0.350325
O O15 0.741059 0.503251 0.841179
O O16 0.746154 0.262829 0.529496
#
# Coordination Sequence:
#
# PCOD9459851 Si02
#       8
#     8   8   8   8   8   8   8   8
#     4  10  21  39  63  91 131 175 220 271 323 388
#     4   9  21  41  66  90 127 168 214 261 330 396
#     4  10  21  37  63  92 126 176 216 269 323 383
#     4   9  20  38  64  93 119 170 221 260 322 387
#     4  10  21  40  66  90 130 174 213 265 331 393
#     4   9  19  38  67  93 121 172 214 259 320 396
#     4  12  26  40  60  97 135 171 229 274 324 377
#     4  11  27  43  66 101 130 164 215 273 323 389
#
# _framework density 26.695926
#
# number of rings (size 3 to 8) (size 9 to 14) (size 15 to 20)
#    0.000    2.000    1.250    0.750   10.500    1.500 
#    0.000    6.875    0.000    0.000    0.000    0.000 
#    0.000    0.000    0.000    0.000    0.000    0.000 
#
# Total GULP energy -357927.701237 kJ/mol
# GULP energy per Si atom -5592.620332 kJ/mol
# Density = 2.663516 g / cm^3
# Si number density = 26.695926 Si / 1000 Ang^3
#
#
#
# Elastic Constant Matrix: (Units=GPa)
#
#
# Indices 1 2 3 4 5 6 
#
# 1 141.7247 21.1384 46.5876 0.0000 0.0000 0.0000
# 2 21.1384 55.5747 2.6615 0.0000 0.0000 0.0000
# 3 46.5876 2.6615 90.1111 0.0000 0.0000 0.0000
# 4 0.0000 0.0000 0.0000 34.6733 0.0000 0.0000
# 5 0.0000 0.0000 0.0000 0.0000 42.8741 0.0000
# 6 0.0000 0.0000 0.0000 0.0000 0.0000 34.1484
#
#
#
# Elastic Compliance Matrix: (Units=1/GPa)
#
#
# Indices 1 2 3 4 5 6 
#
# 1 0.009041 -0.003220 -0.004579 0.000000 0.000000 0.000000
# 2 -0.003220 0.019166 0.001099 0.000000 0.000000 0.000000
# 3 -0.004579 0.001099 0.013433 0.000000 0.000000 0.000000
# 4 0.000000 0.000000 0.000000 0.028841 0.000000 0.000000
# 5 0.000000 0.000000 0.000000 0.000000 0.023324 0.000000
# 6 0.000000 0.000000 0.000000 0.000000 0.000000 0.029284
#
#
# Mechanical properties :
#
#
# Convention : Reuss Voigt Hill
#
# Bulk Modulus (GPa) = 35.41237 47.57617 41.49427
# Shear Modulus (GPa) = 34.26946 36.80737 35.53841
#
# Velocity S-wave (km/s) = 3.58676 3.71720 3.65256
# Velocity P-wave (km/s) = 5.51788 6.02359 5.77627
#
# Compressibility (1/GPa) = 0.02823872
#
# Stress axis : x y z
#
# Youngs Moduli (GPa) = 110.60130 52.17620 74.44620
#
# Poissons Ratio (x) = 0.16799 0.34092
# Poissons Ratio (y) = 0.35610 -0.08178
# Poissons Ratio (z) = 0.50648 -0.05732
#
# Static dielectric constant tensor:
#      x y z
#    x 2.168600 0.000000 0.000000 
#    y 0.000000 2.106660 0.000000 
#    z 0.000000 0.000000 2.116980 
# 
# From -- ./inp_files/860.got.cif
#   From: 2010.05.17/outbox.cif.g08.bks.cpg/sg61_1_cif.got.tgz:860.got - 2010.06.03 15:17:17.
