data_PCOD9459622
_publ_section_title
;
Structure prediction by ZEFSAII (Michael W. Deem and Ramdas Pophale) SiO2 
 PCOD9459622
Probable space group: P B C A
;
_chemical_formula_sum "Si O2"
_cell_formula_units_Z 48
_cell_length_a 17.186656
_cell_length_b 8.012393
_cell_length_c 14.753535
_cell_angle_alpha 90.000000
_cell_angle_beta 90.000000
_cell_angle_gamma 90.000000
_cell_volume 2031.653864
_symmetry_space_group_name_H-M "P B C A"
_symmetry_group_IT_number 61
_symmetry_cell_setting 'orthorhombic'
loop_
_space_group_symop_operation_xyz
x,y,z
1/2-x,-y,1/2+z
1/2+x,1/2-y,-z
-x,1/2+y,1/2-z
-x,-y,-z
1/2+x,y,1/2-z
1/2-x,1/2+y,z
x,1/2-y,1/2+z
loop_
_atom_site_type_symbol
_atom_site_label
_atom_site_fract_x
_atom_site_fract_y
_atom_site_fract_z
Si Si1 0.718374 0.077502 0.370983
Si Si2 0.369737 0.233754 0.175305
Si Si3 0.459051 0.074141 0.819611
Si Si4 0.873099 0.584777 0.543952
Si Si5 0.033924 0.747323 0.998908
Si Si6 0.112588 0.279380 0.261034
O O1 0.806739 0.089593 0.337940
O O2 0.700768 0.104310 0.477610
O O3 0.673707 0.217733 0.312985
O O4 0.677745 0.901944 0.350605
O O5 0.407503 0.281167 0.270699
O O6 0.435575 0.213065 0.099331
O O7 0.455821 0.102593 0.926340
O O8 0.545215 0.105959 0.781065
O O9 0.426650 0.896636 0.790182
O O10 0.912578 0.401969 0.536382
O O11 0.856066 0.636444 0.646996
O O12 0.944165 0.696988 0.504605
#
# Coordination Sequence:
#
# PCOD9459622 Si02
#       6
#     8   8   8   8   8   8
#     4  10  23  41  60  85 122 158 193 242 300 352
#     4  10  23  41  60  85 122 158 193 242 300 352
#     4  11  22  38  61  90 119 155 201 245 293 351
#     4  10  20  39  62  86 119 155 194 244 296 347
#     4  10  20  39  62  86 119 155 194 244 296 347
#     4  11  22  38  61  90 119 155 201 245 293 351
#
# _framework density 23.626071
#
# number of rings (size 3 to 8) (size 9 to 14) (size 15 to 20)
#    0.000    1.667    3.333    1.000    0.000    6.000 
#    0.000    6.667    0.000    0.000    0.000    0.000 
#    0.000    0.000    0.000    0.000    0.000    0.000 
#
# Total GULP energy -268788.554087 kJ/mol
# GULP energy per Si atom -5599.761543 kJ/mol
# Density = 2.357230 g / cm^3
# Si number density = 23.626071 Si / 1000 Ang^3
#
#
#
# Elastic Constant Matrix: (Units=GPa)
#
#
# Indices 1 2 3 4 5 6 
#
# 1 71.6467 -1.3652 14.3952 0.0000 0.0000 0.0000
# 2 -1.3652 83.0867 21.4278 0.0000 0.0000 0.0000
# 3 14.3952 21.4278 127.2474 0.0000 0.0000 0.0000
# 4 0.0000 0.0000 0.0000 41.2561 0.0000 0.0000
# 5 0.0000 0.0000 0.0000 0.0000 18.6701 0.0000
# 6 0.0000 0.0000 0.0000 0.0000 0.0000 39.4948
#
#
#
# Elastic Compliance Matrix: (Units=1/GPa)
#
#
# Indices 1 2 3 4 5 6 
#
# 1 0.014319 0.000683 -0.001735 0.000000 0.000000 0.000000
# 2 0.000683 0.012615 -0.002201 0.000000 0.000000 0.000000
# 3 -0.001735 -0.002201 0.008426 0.000000 0.000000 0.000000
# 4 0.000000 0.000000 0.000000 0.024239 0.000000 0.000000
# 5 0.000000 0.000000 0.000000 0.000000 0.053562 0.000000
# 6 0.000000 0.000000 0.000000 0.000000 0.000000 0.025320
#
#
# Mechanical properties :
#
#
# Convention : Reuss Voigt Hill
#
# Bulk Modulus (GPa) = 34.65965 38.98848 36.82407
# Shear Modulus (GPa) = 32.34070 36.38572 34.36321
#
# Velocity S-wave (km/s) = 3.70382 3.92863 3.81788
# Velocity P-wave (km/s) = 5.74395 6.09237 5.92072
#
# Compressibility (1/GPa) = 0.02885199
#
# Stress axis : x y z
#
# Youngs Moduli (GPa) = 69.83756 79.27327 118.68479
#
# Poissons Ratio (x) = -0.05412 0.20590
# Poissons Ratio (y) = -0.04768 0.26128
# Poissons Ratio (z) = 0.12116 0.17452
#
# Static dielectric constant tensor:
#      x y z
#    x 1.876900 0.000000 0.000000 
#    y 0.000000 1.936410 0.000000 
#    z 0.000000 0.000000 1.829620 
# 
# From -- ./inp_files/2864.got.cif
#   From: 2010.05.17/outbox.cif.g08.bks.cpg/sg61_2_cif.got.tgz:2864.got - 2010.06.03 15:17:17.
