data_PCOD9459850
_publ_section_title
;
Structure prediction by ZEFSAII (Michael W. Deem and Ramdas Pophale) SiO2 
 PCOD9459850
Probable space group: P B C A
;
_chemical_formula_sum "Si O2"
_cell_formula_units_Z 40
_cell_length_a 12.762202
_cell_length_b 4.890480
_cell_length_c 28.358173
_cell_angle_alpha 90.000000
_cell_angle_beta 90.000000
_cell_angle_gamma 90.000000
_cell_volume 1769.926978
_symmetry_space_group_name_H-M "P B C A"
_symmetry_group_IT_number 61
_symmetry_cell_setting 'orthorhombic'
loop_
_space_group_symop_operation_xyz
x,y,z
1/2-x,-y,1/2+z
1/2+x,1/2-y,-z
-x,1/2+y,1/2-z
-x,-y,-z
1/2+x,y,1/2-z
1/2-x,1/2+y,z
x,1/2-y,1/2+z
loop_
_atom_site_type_symbol
_atom_site_label
_atom_site_fract_x
_atom_site_fract_y
_atom_site_fract_z
Si Si1 0.473057 0.018507 0.777519
Si Si2 0.827716 0.760431 0.550325
Si Si3 0.511795 0.965343 0.117311
Si Si4 0.321089 0.769895 0.559154
Si Si5 0.316982 0.349333 0.830916
O O1 0.545485 0.246582 0.752523
O O2 0.512299 0.928359 0.829569
O O3 0.369933 0.208109 0.785270
O O4 0.762799 0.485531 0.558275
O O5 0.857376 0.766889 0.495003
O O6 0.928460 0.831581 0.581781
O O7 0.411929 0.829809 0.093380
O O8 0.597917 0.734972 0.130412
O O9 0.218844 0.577806 0.565803
O O10 0.287548 0.664652 0.835141
#
# Coordination Sequence:
#
# PCOD9459850 Si02
#       5
#     8   8   8   8   8
#     4  10  23  40  60  86 126 156 200 252 303 358
#     4  10  21  38  63  95 125 155 204 255 309 370
#     4  10  23  38  69  84 133 155 212 249 318 353
#     4  10  23  41  59  89 127 167 208 246 301 376
#     4  10  21  37  63  92 117 152 198 253 302 352
#
# _framework density 22.599803000000001
#
# number of rings (size 3 to 8) (size 9 to 14) (size 15 to 20)
#    1.200    0.800    0.000    3.000    0.000    6.400 
#    0.000   12.000    0.000    0.000    0.000    0.000 
#    0.000    0.000    0.000    0.000    0.000    0.000 
#
# Total GULP energy -223234.908284 kJ/mol
# GULP energy per Si atom -5580.872707 kJ/mol
# Density = 2.254836 g / cm^3
# Si number density = 22.599803 Si / 1000 Ang^3
#
#
#
# Elastic Constant Matrix: (Units=GPa)
#
#
# Indices 1 2 3 4 5 6 
#
# 1 50.9567 1.3049 34.7853 0.0000 0.0000 0.0000
# 2 1.3049 100.4420 9.2201 0.0000 0.0000 0.0000
# 3 34.7853 9.2201 102.7065 0.0000 0.0000 0.0000
# 4 0.0000 0.0000 0.0000 17.3619 0.0000 0.0000
# 5 0.0000 0.0000 0.0000 0.0000 36.3145 0.0000
# 6 0.0000 0.0000 0.0000 0.0000 0.0000 19.5664
#
#
#
# Elastic Compliance Matrix: (Units=1/GPa)
#
#
# Indices 1 2 3 4 5 6 
#
# 1 0.025548 0.000466 -0.008695 0.000000 0.000000 0.000000
# 2 0.000466 0.010047 -0.001060 0.000000 0.000000 0.000000
# 3 -0.008695 -0.001060 0.012776 0.000000 0.000000 0.000000
# 4 0.000000 0.000000 0.000000 0.057597 0.000000 0.000000
# 5 0.000000 0.000000 0.000000 0.000000 0.027537 0.000000
# 6 0.000000 0.000000 0.000000 0.000000 0.000000 0.051108
#
#
# Mechanical properties :
#
#
# Convention : Reuss Voigt Hill
#
# Bulk Modulus (GPa) = 33.56264 38.30286 35.93275
# Shear Modulus (GPa) = 23.46074 28.56823 26.01448
#
# Velocity S-wave (km/s) = 3.22544 3.55926 3.39646
# Velocity P-wave (km/s) = 5.36231 5.82033 5.59601
#
# Compressibility (1/GPa) = 0.02979503
#
# Stress axis : x y z
#
# Youngs Moduli (GPa) = 39.14219 99.53000 78.26952
#
# Poissons Ratio (x) = -0.04640 0.68052
# Poissons Ratio (y) = -0.01825 0.08295
# Poissons Ratio (z) = 0.34032 0.10549
#
# Static dielectric constant tensor:
#      x y z
#    x 1.863720 0.000000 0.000000 
#    y 0.000000 1.841420 0.000000 
#    z 0.000000 0.000000 1.955290 
# 
# From -- ./inp_files/11417.got.cif
#   From: 2010.05.17/outbox.cif.g08.bks.cpg/sg61_6_cif.got.tgz:11417.got - 2010.06.03 15:17:17.
