data_PCOD9459329
_publ_section_title
;
Structure prediction by ZEFSAII (Michael W. Deem and Ramdas Pophale) SiO2 
 PCOD9459329
Probable space group: P B C A
;
_chemical_formula_sum "Si O2"
_cell_formula_units_Z 64
_cell_length_a 12.711135
_cell_length_b 11.197951
_cell_length_c 17.358610
_cell_angle_alpha 90.000000
_cell_angle_beta 90.000000
_cell_angle_gamma 90.000000
_cell_volume 2470.801406
_symmetry_space_group_name_H-M "P B C A"
_symmetry_group_IT_number 61
_symmetry_cell_setting 'orthorhombic'
loop_
_space_group_symop_operation_xyz
x,y,z
1/2-x,-y,1/2+z
1/2+x,1/2-y,-z
-x,1/2+y,1/2-z
-x,-y,-z
1/2+x,y,1/2-z
1/2-x,1/2+y,z
x,1/2-y,1/2+z
loop_
_atom_site_type_symbol
_atom_site_label
_atom_site_fract_x
_atom_site_fract_y
_atom_site_fract_z
Si Si1 0.045698 0.694876 0.438315
Si Si2 0.072070 0.436627 0.842561
Si Si3 0.404410 0.697102 0.933765
Si Si4 0.070364 0.038472 0.172725
Si Si5 0.614975 0.407855 0.396550
Si Si6 0.821133 0.200158 0.820780
Si Si7 0.284666 0.168061 0.848640
Si Si8 0.740136 0.612075 0.436120
O O1 0.011828 0.655090 0.524134
O O2 0.021948 0.587259 0.380575
O O3 0.155695 0.753006 0.414361
O O4 0.960494 0.801641 0.424345
O O5 0.082766 0.333823 0.905756
O O6 0.071155 0.394548 0.754238
O O7 0.161306 0.538359 0.848187
O O8 0.962897 0.506061 0.851659
O O9 0.339246 0.648625 0.860611
O O10 0.315037 0.664307 0.998159
O O11 0.176556 0.072868 0.128356
O O12 0.084568 0.896534 0.182421
O O13 0.709021 0.357551 0.344991
O O14 0.672257 0.495491 0.458390
O O15 0.807842 0.235807 0.731795
O O16 0.832740 0.295706 0.889132
#
# Coordination Sequence:
#
# PCOD9459329 Si02
#       8
#     8   8   8   8   8   8   8   8
#     4  10  22  41  63  94 129 173 219 273 331 402
#     4  10  23  39  64  95 122 172 218 273 326 395
#     4  11  23  37  62  93 132 169 214 268 323 401
#     4   9  19  38  59  89 124 158 218 268 322 388
#     4  10  21  38  66  92 122 167 221 263 329 393
#     4  10  19  40  62  93 123 168 216 274 334 381
#     4  10  24  40  65  92 132 167 222 282 328 393
#     4  10  21  36  63  89 126 170 208 263 324 391
#
# _framework density 25.902526999999999
#
# number of rings (size 3 to 8) (size 9 to 14) (size 15 to 20)
#    0.000    2.000    2.500    0.750    5.250    2.000 
#    0.000    0.000    0.000    1.500    0.000    0.000 
#    0.000    0.000    0.000    0.000    0.000    0.000 
#
# Total GULP energy -357490.868260 kJ/mol
# GULP energy per Si atom -5585.794817 kJ/mol
# Density = 2.584357 g / cm^3
# Si number density = 25.902527 Si / 1000 Ang^3
#
#
#
# Elastic Constant Matrix: (Units=GPa)
#
#
# Indices 1 2 3 4 5 6 
#
# 1 86.2597 14.5160 -2.0287 0.0000 0.0000 0.0000
# 2 14.5160 47.5496 -11.2489 0.0000 0.0000 0.0000
# 3 -2.0287 -11.2489 77.1747 0.0000 0.0000 0.0000
# 4 0.0000 0.0000 0.0000 25.9556 0.0000 0.0000
# 5 0.0000 0.0000 0.0000 0.0000 23.8283 0.0000
# 6 0.0000 0.0000 0.0000 0.0000 0.0000 37.8769
#
#
#
# Elastic Compliance Matrix: (Units=1/GPa)
#
#
# Indices 1 2 3 4 5 6 
#
# 1 0.012225 -0.003787 -0.000231 0.000000 0.000000 0.000000
# 2 -0.003787 0.022955 0.003246 0.000000 0.000000 0.000000
# 3 -0.000231 0.003246 0.013425 0.000000 0.000000 0.000000
# 4 0.000000 0.000000 0.000000 0.038527 0.000000 0.000000
# 5 0.000000 0.000000 0.000000 0.000000 0.041967 0.000000
# 6 0.000000 0.000000 0.000000 0.000000 0.000000 0.026401
#
#
# Mechanical properties :
#
#
# Convention : Reuss Voigt Hill
#
# Bulk Modulus (GPa) = 21.24838 23.71789 22.48313
# Shear Modulus (GPa) = 28.94714 31.51519 30.23117
#
# Velocity S-wave (km/s) = 3.34659 3.49188 3.42001
# Velocity P-wave (km/s) = 4.81185 5.04323 4.92890
#
# Compressibility (1/GPa) = 0.04706242
#
# Stress axis : x y z
#
# Youngs Moduli (GPa) = 81.80172 43.56428 74.48940
#
# Poissons Ratio (x) = 0.16496 0.01718
# Poissons Ratio (y) = 0.30974 -0.24181
# Poissons Ratio (z) = 0.01886 -0.14142
#
# Static dielectric constant tensor:
#      x y z
#    x 2.032410 0.000000 0.000000 
#    y 0.000000 2.135700 0.000000 
#    z 0.000000 0.000000 2.107850 
# 
# From -- ./inp_files/9554.got.cif
#   From: 2010.05.17/outbox.cif.g08.bks.cpg/sg61_5_cif.got.tgz:9554.got - 2010.06.03 15:17:17.
