data_PCOD9459770
_publ_section_title
;
Structure prediction by ZEFSAII (Michael W. Deem and Ramdas Pophale) SiO2 
 PCOD9459770
Probable space group: P B C A
;
_chemical_formula_sum "Si O2"
_cell_formula_units_Z 64
_cell_length_a 18.791554
_cell_length_b 11.897434
_cell_length_c 13.962268
_cell_angle_alpha 90.000000
_cell_angle_beta 90.000000
_cell_angle_gamma 90.000000
_cell_volume 3121.562037
_symmetry_space_group_name_H-M "P B C A"
_symmetry_group_IT_number 61
_symmetry_cell_setting 'orthorhombic'
loop_
_space_group_symop_operation_xyz
x,y,z
1/2-x,-y,1/2+z
1/2+x,1/2-y,-z
-x,1/2+y,1/2-z
-x,-y,-z
1/2+x,y,1/2-z
1/2-x,1/2+y,z
x,1/2-y,1/2+z
loop_
_atom_site_type_symbol
_atom_site_label
_atom_site_fract_x
_atom_site_fract_y
_atom_site_fract_z
Si Si1 0.705466 0.051248 0.873133
Si Si2 0.068645 0.573385 0.204565
Si Si3 0.631814 0.645319 0.115041
Si Si4 0.298784 0.347700 0.292909
Si Si5 0.581152 0.996620 0.139932
Si Si6 0.383442 0.800389 0.977798
Si Si7 0.449293 0.316459 0.514003
Si Si8 0.294772 0.572969 0.970694
O O1 0.753211 0.123254 0.799954
O O2 0.641697 0.992520 0.814761
O O3 0.666507 0.132155 0.948859
O O4 0.752870 0.960669 0.932178
O O5 0.069005 0.610658 0.313562
O O6 0.997855 0.504978 0.180844
O O7 0.064951 0.672926 0.126560
O O8 0.684088 0.718430 0.183160
O O9 0.600335 0.725146 0.034182
O O10 0.667836 0.539605 0.066647
O O11 0.371358 0.419370 0.292445
O O12 0.260487 0.392854 0.388408
O O13 0.613961 0.119698 0.117510
O O14 0.572818 0.933540 0.037386
O O15 0.350101 0.676441 0.973427
O O16 0.467123 0.796007 0.004827
#
# Coordination Sequence:
#
# PCOD9459770 Si02
#       8
#     8   8   8   8   8   8   8   8
#     4  12  23  41  70  98 132 176 229 269 337 403
#     4  11  21  43  72  98 128 178 232 271 327 405
#     4  11  26  44  62 101 140 171 219 284 341 389
#     4  11  25  43  68  96 137 178 219 271 339 404
#     4  10  20  46  72  94 129 182 231 269 326 404
#     4  11  22  42  70  96 129 181 225 274 337 400
#     4  10  21  44  72  94 134 179 227 276 330 404
#     4  12  26  42  65 100 140 170 214 291 333 395
#
# _framework density 20.502555999999998
#
# number of rings (size 3 to 8) (size 9 to 14) (size 15 to 20)
#    0.000    1.000    5.000    2.250    3.500    1.500 
#   13.500    0.000    0.000    0.000    0.000    0.000 
#    0.000    0.000    0.000    0.000    0.000    0.000 
#
# Total GULP energy -357563.258751 kJ/mol
# GULP energy per Si atom -5586.925918 kJ/mol
# Density = 2.045589 g / cm^3
# Si number density = 20.502556 Si / 1000 Ang^3
#
#
#
# Elastic Constant Matrix: (Units=GPa)
#
#
# Indices 1 2 3 4 5 6 
#
# 1 91.6306 53.1565 24.1256 0.0000 0.0000 0.0000
# 2 53.1565 117.1838 1.6674 0.0000 0.0000 0.0000
# 3 24.1256 1.6674 24.7874 0.0000 0.0000 0.0000
# 4 0.0000 0.0000 0.0000 18.0925 0.0000 0.0000
# 5 0.0000 0.0000 0.0000 0.0000 1.8554 0.0000
# 6 0.0000 0.0000 0.0000 0.0000 0.0000 11.7699
#
#
#
# Elastic Compliance Matrix: (Units=1/GPa)
#
#
# Indices 1 2 3 4 5 6 
#
# 1 0.021995 -0.009682 -0.020757 0.000000 0.000000 0.000000
# 2 -0.009682 0.012804 0.008562 0.000000 0.000000 0.000000
# 3 -0.020757 0.008562 0.059970 0.000000 0.000000 0.000000
# 4 0.000000 0.000000 0.000000 0.055272 0.000000 0.000000
# 5 0.000000 0.000000 0.000000 0.000000 0.538981 0.000000
# 6 0.000000 0.000000 0.000000 0.000000 0.000000 0.084963
#
#
# Mechanical properties :
#
#
# Convention : Reuss Voigt Hill
#
# Bulk Modulus (GPa) = 19.60184 43.50010 31.55097
# Shear Modulus (GPa) = 5.98988 16.65369 11.32178
#
# Velocity S-wave (km/s) = 1.71110 2.85313 2.35247
# Velocity P-wave (km/s) = 3.67223 5.66717 4.77504
#
# Compressibility (1/GPa) = 0.05101562
#
# Stress axis : x y z
#
# Youngs Moduli (GPa) = 45.46464 78.10254 16.67512
#
# Poissons Ratio (x) = 0.75619 0.34612
# Poissons Ratio (y) = 0.44019 -0.14278
# Poissons Ratio (z) = 0.94369 -0.66873
#
# Static dielectric constant tensor:
#      x y z
#    x 1.738540 0.000000 0.000000 
#    y 0.000000 1.775610 0.000000 
#    z 0.000000 0.000000 1.726330 
# 
# From -- ./inp_files/8218.got.cif
#   From: 2010.05.17/outbox.cif.g08.bks.cpg/sg61_5_cif.got.tgz:8218.got - 2010.06.03 15:17:17.
