data_PCOD9459421
_publ_section_title
;
Structure prediction by ZEFSAII (Michael W. Deem and Ramdas Pophale) SiO2 
 PCOD9459421
Probable space group: P B C A
;
_chemical_formula_sum "Si O2"
_cell_formula_units_Z 48
_cell_length_a 12.988268
_cell_length_b 27.117910
_cell_length_c 5.299762
_cell_angle_alpha 90.000000
_cell_angle_beta 90.000000
_cell_angle_gamma 90.000000
_cell_volume 1866.653991
_symmetry_space_group_name_H-M "P B C A"
_symmetry_group_IT_number 61
_symmetry_cell_setting 'orthorhombic'
loop_
_space_group_symop_operation_xyz
x,y,z
1/2-x,-y,1/2+z
1/2+x,1/2-y,-z
-x,1/2+y,1/2-z
-x,-y,-z
1/2+x,y,1/2-z
1/2-x,1/2+y,z
x,1/2-y,1/2+z
loop_
_atom_site_type_symbol
_atom_site_label
_atom_site_fract_x
_atom_site_fract_y
_atom_site_fract_z
Si Si1 0.433145 0.375822 0.350933
Si Si2 0.789775 0.525165 0.235854
Si Si3 0.267135 0.868570 0.645605
Si Si4 0.763593 0.235958 0.145919
Si Si5 0.525384 0.083570 0.374522
Si Si6 0.033465 0.275224 0.343769
O O1 0.314541 0.365836 0.420546
O O2 0.478505 0.398139 0.610850
O O3 0.488980 0.324723 0.278875
O O4 0.451845 0.412618 0.115833
O O5 0.729838 0.503227 0.477014
O O6 0.748682 0.580936 0.201440
O O7 0.909065 0.533946 0.317702
O O8 0.259374 0.821106 0.819407
O O9 0.382556 0.878121 0.554499
O O10 0.821617 0.253433 0.392015
O O11 0.659872 0.269549 0.149217
O O12 0.008457 0.267531 0.638054
#
# Coordination Sequence:
#
# PCOD9459421 Si02
#       6
#     8   8   8   8   8   8
#     4  12  23  43  66 104 129 187 226 275 342 412
#     4  10  23  46  71  99 136 178 226 286 352 407
#     4  10  26  42  73  97 143 180 232 282 343 410
#     4  10  20  36  59  93 128 175 219 266 333 393
#     4  10  24  42  70  94 139 174 219 289 337 399
#     4  10  20  35  58  87 135 167 224 267 320 397
#
# _framework density 25.714462999999999
#
# number of rings (size 3 to 8) (size 9 to 14) (size 15 to 20)
#    1.000    0.667    0.000    6.000    0.000    6.667 
#    0.000    5.000    0.000    0.000    0.000    0.000 
#    0.000    0.000    0.000    0.000    0.000    0.000 
#
# Total GULP energy -268512.186702 kJ/mol
# GULP energy per Si atom -5594.003890 kJ/mol
# Density = 2.565594 g / cm^3
# Si number density = 25.714463 Si / 1000 Ang^3
#
#
#
# Elastic Constant Matrix: (Units=GPa)
#
#
# Indices 1 2 3 4 5 6 
#
# 1 98.6921 -0.0331 52.4010 0.0000 0.0000 0.0000
# 2 -0.0331 100.8639 13.0784 0.0000 0.0000 0.0000
# 3 52.4010 13.0784 158.3836 0.0000 0.0000 0.0000
# 4 0.0000 0.0000 0.0000 25.4836 0.0000 0.0000
# 5 0.0000 0.0000 0.0000 0.0000 41.6729 0.0000
# 6 0.0000 0.0000 0.0000 0.0000 0.0000 24.1964
#
#
#
# Elastic Compliance Matrix: (Units=1/GPa)
#
#
# Indices 1 2 3 4 5 6 
#
# 1 0.012321 0.000538 -0.004121 0.000000 0.000000 0.000000
# 2 0.000538 0.010045 -0.001008 0.000000 0.000000 0.000000
# 3 -0.004121 -0.001008 0.007760 0.000000 0.000000 0.000000
# 4 0.000000 0.000000 0.000000 0.039241 0.000000 0.000000
# 5 0.000000 0.000000 0.000000 0.000000 0.023996 0.000000
# 6 0.000000 0.000000 0.000000 0.000000 0.000000 0.041328
#
#
# Mechanical properties :
#
#
# Convention : Reuss Voigt Hill
#
# Bulk Modulus (GPa) = 47.74134 54.31470 51.02802
# Shear Modulus (GPa) = 33.14467 37.77014 35.45741
#
# Velocity S-wave (km/s) = 3.59409 3.83669 3.71737
# Velocity P-wave (km/s) = 5.98578 6.38710 6.18969
#
# Compressibility (1/GPa) = 0.02094621
#
# Stress axis : x y z
#
# Youngs Moduli (GPa) = 81.16477 99.55033 128.86071
#
# Poissons Ratio (x) = -0.05359 0.53100
# Poissons Ratio (y) = -0.04370 0.12984
# Poissons Ratio (z) = 0.33446 0.10031
#
# Static dielectric constant tensor:
#      x y z
#    x 2.096620 0.000000 0.000000 
#    y 0.000000 2.040100 0.000000 
#    z 0.000000 0.000000 2.000660 
# 
# From -- ./inp_files/517.got.cif
#   From: 2010.05.17/outbox.cif.g08.bks.cpg/sg61_1_cif.got.tgz:517.got - 2010.06.03 15:17:17.
