data_PCOD9459808
_publ_section_title
;
Structure prediction by ZEFSAII (Michael W. Deem and Ramdas Pophale) SiO2 
 PCOD9459808
Probable space group: P B C A
;
_chemical_formula_sum "Si O2"
_cell_formula_units_Z 40
_cell_length_a 8.955731
_cell_length_b 14.876962
_cell_length_c 13.463486
_cell_angle_alpha 90.000000
_cell_angle_beta 90.000000
_cell_angle_gamma 90.000000
_cell_volume 1793.795033
_symmetry_space_group_name_H-M "P B C A"
_symmetry_group_IT_number 61
_symmetry_cell_setting 'orthorhombic'
loop_
_space_group_symop_operation_xyz
x,y,z
1/2-x,-y,1/2+z
1/2+x,1/2-y,-z
-x,1/2+y,1/2-z
-x,-y,-z
1/2+x,y,1/2-z
1/2-x,1/2+y,z
x,1/2-y,1/2+z
loop_
_atom_site_type_symbol
_atom_site_label
_atom_site_fract_x
_atom_site_fract_y
_atom_site_fract_z
Si Si1 0.950573 0.599943 0.848530
Si Si2 0.590711 0.154355 0.327933
Si Si3 0.603511 0.595988 0.353886
Si Si4 0.939962 0.768482 0.509667
Si Si5 0.769773 0.812940 0.194331
O O1 0.101546 0.654769 0.822804
O O2 0.974966 0.497828 0.879659
O O3 0.872265 0.653200 0.939248
O O4 0.854672 0.604855 0.747849
O O5 0.466114 0.122871 0.251975
O O6 0.718967 0.082486 0.351401
O O7 0.520871 0.192538 0.428978
O O8 0.688273 0.231958 0.270707
O O9 0.565716 0.676902 0.429640
O O10 0.837060 0.721539 0.591171
#
# Coordination Sequence:
#
# PCOD9459808 Si02
#       5
#     8   8   8   8   8
#     4  11  22  39  61  90 121 154 197 251 298 345
#     4  10  21  38  60  85 118 160 200 240 295 359
#     4  11  22  39  61  90 121 154 197 251 298 345
#     4  10  21  36  60  84 114 158 200 236 287 356
#     4  10  21  38  60  85 118 160 200 240 295 359
#
# _framework density 22.299092999999999
#
# number of rings (size 3 to 8) (size 9 to 14) (size 15 to 20)
#    0.000    1.600    0.000    6.600    0.000    3.200 
#    0.000    1.000    0.000    0.000    0.000    0.000 
#    0.000    0.000    0.000    0.000    0.000    0.000 
#
# Total GULP energy -223196.932573 kJ/mol
# GULP energy per Si atom -5579.923314 kJ/mol
# Density = 2.224834 g / cm^3
# Si number density = 22.299093 Si / 1000 Ang^3
#
#
#
# Elastic Constant Matrix: (Units=GPa)
#
#
# Indices 1 2 3 4 5 6 
#
# 1 76.6018 11.4785 41.1130 0.0000 0.0000 0.0000
# 2 11.4785 54.7110 30.8341 0.0000 0.0000 0.0000
# 3 41.1130 30.8341 154.9838 0.0000 0.0000 0.0000
# 4 0.0000 0.0000 0.0000 22.9496 0.0000 0.0000
# 5 0.0000 0.0000 0.0000 0.0000 24.6341 0.0000
# 6 0.0000 0.0000 0.0000 0.0000 0.0000 22.0122
#
#
#
# Elastic Compliance Matrix: (Units=1/GPa)
#
#
# Indices 1 2 3 4 5 6 
#
# 1 0.015274 -0.001037 -0.003845 0.000000 0.000000 0.000000
# 2 -0.001037 0.020657 -0.003834 0.000000 0.000000 0.000000
# 3 -0.003845 -0.003834 0.008235 0.000000 0.000000 0.000000
# 4 0.000000 0.000000 0.000000 0.043574 0.000000 0.000000
# 5 0.000000 0.000000 0.000000 0.000000 0.040594 0.000000
# 6 0.000000 0.000000 0.000000 0.000000 0.000000 0.045429
#
#
# Mechanical properties :
#
#
# Convention : Reuss Voigt Hill
#
# Bulk Modulus (GPa) = 37.40932 50.34974 43.87953
# Shear Modulus (GPa) = 24.98656 27.44390 26.21523
#
# Velocity S-wave (km/s) = 3.35105 3.51197 3.43245
# Velocity P-wave (km/s) = 5.63784 6.25088 5.95226
#
# Compressibility (1/GPa) = 0.02673131
#
# Stress axis : x y z
#
# Youngs Moduli (GPa) = 65.47155 48.41087 121.42972
#
# Poissons Ratio (x) = 0.05022 0.46694
# Poissons Ratio (y) = 0.06792 0.46562
# Poissons Ratio (z) = 0.25176 0.18563
#
# Static dielectric constant tensor:
#      x y z
#    x 1.858740 0.000000 0.000000 
#    y 0.000000 1.888920 0.000000 
#    z 0.000000 0.000000 1.818970 
# 
# From -- ./inp_files/6956.got.cif
#   From: 2010.05.17/outbox.cif.g08.bks.cpg/sg61_4_cif.got.tgz:6956.got - 2010.06.03 15:17:17.
