data_PCOD9459795
_publ_section_title
;
Structure prediction by ZEFSAII (Michael W. Deem and Ramdas Pophale) SiO2 
 PCOD9459795
Probable space group: P B C A
;
_chemical_formula_sum "Si O2"
_cell_formula_units_Z 56
_cell_length_a 15.307146
_cell_length_b 8.338050
_cell_length_c 20.902603
_cell_angle_alpha 90.000000
_cell_angle_beta 90.000000
_cell_angle_gamma 90.000000
_cell_volume 2667.835773
_symmetry_space_group_name_H-M "P B C A"
_symmetry_group_IT_number 61
_symmetry_cell_setting 'orthorhombic'
loop_
_space_group_symop_operation_xyz
x,y,z
1/2-x,-y,1/2+z
1/2+x,1/2-y,-z
-x,1/2+y,1/2-z
-x,-y,-z
1/2+x,y,1/2-z
1/2-x,1/2+y,z
x,1/2-y,1/2+z
loop_
_atom_site_type_symbol
_atom_site_label
_atom_site_fract_x
_atom_site_fract_y
_atom_site_fract_z
Si Si1 0.839564 0.949196 0.395306
Si Si2 0.796843 0.413166 0.222816
Si Si3 0.815537 0.148261 0.133799
Si Si4 0.022852 0.641342 0.049683
Si Si5 0.800076 0.661536 0.316525
Si Si6 0.331443 0.732051 0.472034
Si Si7 0.904171 0.440889 0.515256
O O1 0.855020 0.782050 0.359007
O O2 0.821880 0.890122 0.468336
O O3 0.925874 0.057285 0.393526
O O4 0.763551 0.053789 0.361469
O O5 0.845905 0.304193 0.172109
O O6 0.726580 0.516425 0.181195
O O7 0.846010 0.538235 0.268193
O O8 0.752631 0.283902 0.270264
O O9 0.742289 0.201420 0.081047
O O10 0.892665 0.084483 0.090444
O O11 0.926709 0.711516 0.061191
O O12 0.093066 0.769567 0.020819
O O13 0.000000 0.500000 0.000000
O O14 0.337233 0.914051 0.499215
O O15 0.000000 0.500000 0.500000
#
# Coordination Sequence:
#
# PCOD9459795 Si02
#       7
#     8   8   8   8   8   8   8
#     4  10  21  35  59  85 131 158 204 265 319 379
#     4   9  20  36  57  89 118 159 220 265 303 354
#     4  11  20  35  63  91 123 157 208 268 308 389
#     4   9  21  38  55  87 133 165 188 252 327 393
#     4   9  20  37  56  88 116 164 217 268 301 366
#     4  10  22  35  58  97 123 163 205 249 341 386
#     4  10  22  38  55  94 136 163 197 246 329 392
#
# _framework density 20.990798000000002
#
# number of rings (size 3 to 8) (size 9 to 14) (size 15 to 20)
#    0.000    2.286    1.429    0.000    8.000    1.143 
#    0.000    0.000    0.000    5.143   22.286    0.000 
#    0.000    0.000    0.000    0.000    0.000    0.000 
#
# Total GULP energy -311783.976328 kJ/mol
# GULP energy per Si atom -5567.571006 kJ/mol
# Density = 2.094302 g / cm^3
# Si number density = 20.990798 Si / 1000 Ang^3
#
#
#
# Elastic Constant Matrix: (Units=GPa)
#
#
# Indices 1 2 3 4 5 6 
#
# 1 39.4173 32.7020 35.8617 0.0000 0.0000 0.0000
# 2 32.7020 137.5604 49.6026 0.0000 0.0000 0.0000
# 3 35.8617 49.6026 98.0068 0.0000 0.0000 0.0000
# 4 0.0000 0.0000 0.0000 64.3764 0.0000 0.0000
# 5 0.0000 0.0000 0.0000 0.0000 -0.1615 0.0000
# 6 0.0000 0.0000 0.0000 0.0000 0.0000 10.7404
#
#
#
# Elastic Compliance Matrix: (Units=1/GPa)
#
#
# Indices 1 2 3 4 5 6 
#
# 1 0.040963 -0.005301 -0.012306 0.000000 0.000000 0.000000
# 2 -0.005301 0.009578 -0.002908 0.000000 0.000000 0.000000
# 3 -0.012306 -0.002908 0.016178 0.000000 0.000000 0.000000
# 4 0.000000 0.000000 0.000000 0.015534 0.000000 0.000000
# 5 0.000000 0.000000 0.000000 0.000000 -6.190799 0.000000
# 6 0.000000 0.000000 0.000000 0.000000 0.000000 0.093107
#
#
# Mechanical properties :
#
#
# Convention : Reuss Voigt Hill
#
# Bulk Modulus (GPa) = 38.92594 56.81301 47.86947
# Shear Modulus (GPa) = -0.83810 25.44560 12.30375
#
# Velocity S-wave (km/s) = -0.63257 3.48548 2.42368
# Velocity P-wave (km/s) = 4.24865 6.58199 5.53957
#
# Compressibility (1/GPa) = 0.02568981
#
# Stress axis : x y z
#
# Youngs Moduli (GPa) = 24.41216 104.40272 61.81177
#
# Poissons Ratio (x) = 0.55341 0.76066
# Poissons Ratio (y) = 0.12940 0.17976
# Poissons Ratio (z) = 0.30042 0.30362
#
# Static dielectric constant tensor:
#      x y z
#    x 1.759860 0.000000 0.000000 
#    y 0.000000 1.893010 0.000000 
#    z 0.000000 0.000000 1.808130 
# 
# From -- ./inp_files/10522.got.cif
#   From: 2010.05.17/outbox.cif.g08.bks.cpg/sg61_6_cif.got.tgz:10522.got - 2010.06.03 15:17:17.
