data_PCOD9459589
_publ_section_title
;
Structure prediction by ZEFSAII (Michael W. Deem and Ramdas Pophale) SiO2 
 PCOD9459589
Probable space group: P B C A
;
_chemical_formula_sum "Si O2"
_cell_formula_units_Z 60
_cell_length_a 20.032366
_cell_length_b 12.820903
_cell_length_c 9.529952
_cell_angle_alpha 90.000000
_cell_angle_beta 90.000000
_cell_angle_gamma 90.000000
_cell_volume 2447.606365
_symmetry_space_group_name_H-M "P B C A"
_symmetry_group_IT_number 61
_symmetry_cell_setting 'orthorhombic'
loop_
_space_group_symop_operation_xyz
x,y,z
1/2-x,-y,1/2+z
1/2+x,1/2-y,-z
-x,1/2+y,1/2-z
-x,-y,-z
1/2+x,y,1/2-z
1/2-x,1/2+y,z
x,1/2-y,1/2+z
loop_
_atom_site_type_symbol
_atom_site_label
_atom_site_fract_x
_atom_site_fract_y
_atom_site_fract_z
Si Si1 0.642028 0.325295 0.300746
Si Si2 0.302701 0.393648 0.789075
Si Si3 0.000000 0.500000 0.500000
Si Si4 0.369138 0.187986 0.738607
Si Si5 0.730713 0.543686 0.896507
Si Si6 0.945891 0.014613 0.304218
Si Si7 0.040322 0.793351 0.506191
Si Si8 0.096252 0.160061 0.005394
O O1 0.707576 0.379616 0.358503
O O2 0.579233 0.399472 0.347797
O O3 0.637649 0.318629 0.134029
O O4 0.630203 0.212698 0.364290
O O5 0.313260 0.269944 0.793428
O O6 0.255327 0.433039 0.663395
O O7 0.376470 0.433801 0.748210
O O8 0.281211 0.442934 0.937573
O O9 0.993898 0.493497 0.672146
O O10 0.922393 0.540260 0.491860
O O11 0.330834 0.084238 0.696427
O O12 0.403818 0.233455 0.598756
O O13 0.426640 0.184347 0.855999
O O14 0.973442 0.097196 0.416473
O O15 0.978546 0.712151 0.504954
#
# Coordination Sequence:
#
# PCOD9459589 Si02
#       8
#     8   8   4   8   8   8   8   8
#     4  10  24  41  61  90 132 165 215 269 331 399
#     4  10  23  43  63  94 131 172 219 272 332 402
#     4  10  20  38  64  90 128 172 210 264 332 390
#     4  11  23  40  65  97 127 169 223 280 332 393
#     4  11  25  42  66  95 132 175 221 276 342 405
#     4   9  21  41  64  94 128 165 218 277 327 396
#     4  11  22  41  68  92 127 168 224 277 328 399
#     4  11  22  42  63  93 126 174 212 269 330 395
#
# _framework density 24.513746000000001
#
# number of rings (size 3 to 8) (size 9 to 14) (size 15 to 20)
#    0.000    1.600    1.333    3.200    7.467    0.533 
#    4.800    2.667    0.000    0.000    0.000    0.000 
#    0.000    0.000    0.000    0.000    0.000    0.000 
#
# Total GULP energy -334932.944026 kJ/mol
# GULP energy per Si atom -5582.215734 kJ/mol
# Density = 2.445795 g / cm^3
# Si number density = 24.513746 Si / 1000 Ang^3
#
#
#
# Elastic Constant Matrix: (Units=GPa)
#
#
# Indices 1 2 3 4 5 6 
#
# 1 63.8700 15.6890 31.8109 0.0000 0.0000 0.0000
# 2 15.6890 37.3814 1.8574 0.0000 0.0000 0.0000
# 3 31.8109 1.8574 95.8533 0.0000 0.0000 0.0000
# 4 0.0000 0.0000 0.0000 32.7911 0.0000 0.0000
# 5 0.0000 0.0000 0.0000 0.0000 41.8743 0.0000
# 6 0.0000 0.0000 0.0000 0.0000 0.0000 37.8375
#
#
#
# Elastic Compliance Matrix: (Units=1/GPa)
#
#
# Indices 1 2 3 4 5 6 
#
# 1 0.021173 -0.008545 -0.006861 0.000000 0.000000 0.000000
# 2 -0.008545 0.030226 0.002250 0.000000 0.000000 0.000000
# 3 -0.006861 0.002250 0.012666 0.000000 0.000000 0.000000
# 4 0.000000 0.000000 0.000000 0.030496 0.000000 0.000000
# 5 0.000000 0.000000 0.000000 0.000000 0.023881 0.000000
# 6 0.000000 0.000000 0.000000 0.000000 0.000000 0.026429
#
#
# Mechanical properties :
#
#
# Convention : Reuss Voigt Hill
#
# Bulk Modulus (GPa) = 26.48830 32.86879 29.67855
# Shear Modulus (GPa) = 27.20823 32.35041 29.77932
#
# Velocity S-wave (km/s) = 3.33516 3.63669 3.48918
# Velocity P-wave (km/s) = 5.06557 5.57417 5.32594
#
# Compressibility (1/GPa) = 0.03775252
#
# Stress axis : x y z
#
# Youngs Moduli (GPa) = 47.22960 33.08409 78.95132
#
# Poissons Ratio (x) = 0.28272 0.54170
# Poissons Ratio (y) = 0.40360 -0.17766
# Poissons Ratio (z) = 0.32405 -0.07445
#
# Static dielectric constant tensor:
#      x y z
#    x 1.940140 0.000000 0.000000 
#    y 0.000000 2.079870 0.000000 
#    z 0.000000 0.000000 1.897250 
# 
# From -- ./inp_files/4300.got.cif
#   From: 2010.05.17/outbox.cif.g08.bks.cpg/sg61_3_cif.got.tgz:4300.got - 2010.06.03 15:17:17.
