data_PCOD9459921
_publ_section_title
;
Structure prediction by ZEFSAII (Michael W. Deem and Ramdas Pophale) SiO2 
 PCOD9459921
Probable space group: P B C A
;
_chemical_formula_sum "Si O2"
_cell_formula_units_Z 64
_cell_length_a 24.411105
_cell_length_b 13.550787
_cell_length_c 8.704461
_cell_angle_alpha 90.000000
_cell_angle_beta 90.000000
_cell_angle_gamma 90.000000
_cell_volume 2879.345906
_symmetry_space_group_name_H-M "P B C A"
_symmetry_group_IT_number 61
_symmetry_cell_setting 'orthorhombic'
loop_
_space_group_symop_operation_xyz
x,y,z
1/2-x,-y,1/2+z
1/2+x,1/2-y,-z
-x,1/2+y,1/2-z
-x,-y,-z
1/2+x,y,1/2-z
1/2-x,1/2+y,z
x,1/2-y,1/2+z
loop_
_atom_site_type_symbol
_atom_site_label
_atom_site_fract_x
_atom_site_fract_y
_atom_site_fract_z
Si Si1 0.170916 0.108632 0.036842
Si Si2 0.360473 0.054270 0.732053
Si Si3 0.331716 0.363546 0.678821
Si Si4 0.059065 0.365333 0.029036
Si Si5 0.708053 0.689751 0.986698
Si Si6 0.718938 0.482092 0.497872
Si Si7 0.436355 0.400845 0.505746
Si Si8 0.872105 0.748164 0.221332
O O1 0.223109 0.039222 0.006332
O O2 0.154551 0.169963 0.888045
O O3 0.171495 0.189373 0.174026
O O4 0.126944 0.028903 0.104300
O O5 0.329582 0.141109 0.644101
O O6 0.316546 0.007760 0.852646
O O7 0.409582 0.093769 0.835937
O O8 0.293745 0.303174 0.558441
O O9 0.318609 0.330167 0.848615
O O10 0.314651 0.476704 0.647262
O O11 0.393253 0.350698 0.620531
O O12 0.061087 0.483486 0.053593
O O13 0.095467 0.330477 0.884590
O O14 0.084490 0.303538 0.168665
O O15 0.994811 0.348905 0.997779
O O16 0.765494 0.632409 0.987482
#
# Coordination Sequence:
#
# PCOD9459921 Si02
#       8
#     8   8   8   8   8   8   8   8
#     4  10  21  39  60  94 127 167 208 264 311 373
#     4  10  21  41  63  89 130 166 209 259 315 377
#     4  11  24  41  64  92 125 167 212 257 319 378
#     4  10  22  42  66  94 128 161 217 264 319 375
#     4  11  23  40  61  90 127 165 212 251 310 379
#     4  10  23  41  62  89 127 166 209 260 308 379
#     4  10  22  42  66  91 128 170 203 268 323 369
#     4  10  22  40  66  95 125 168 216 262 312 377
#
# _framework density 22.227270999999998
#
# number of rings (size 3 to 8) (size 9 to 14) (size 15 to 20)
#    0.000    1.750    1.250    3.000    3.500    5.000 
#    2.250    1.875    0.000    0.000    0.000    0.000 
#    0.000    0.000    0.000    0.000    0.000    0.000 
#
# Total GULP energy -357905.162196 kJ/mol
# GULP energy per Si atom -5592.268159 kJ/mol
# Density = 2.217668 g / cm^3
# Si number density = 22.227271 Si / 1000 Ang^3
#
#
#
# Elastic Constant Matrix: (Units=GPa)
#
#
# Indices 1 2 3 4 5 6 
#
# 1 102.8805 18.4552 25.3629 0.0000 0.0000 0.0000
# 2 18.4552 66.9877 22.2644 0.0000 0.0000 0.0000
# 3 25.3629 22.2644 93.4453 0.0000 0.0000 0.0000
# 4 0.0000 0.0000 0.0000 34.4681 0.0000 0.0000
# 5 0.0000 0.0000 0.0000 0.0000 19.7331 0.0000
# 6 0.0000 0.0000 0.0000 0.0000 0.0000 34.4761
#
#
#
# Elastic Compliance Matrix: (Units=1/GPa)
#
#
# Indices 1 2 3 4 5 6 
#
# 1 0.010695 -0.002152 -0.002390 0.000000 0.000000 0.000000
# 2 -0.002152 0.016645 -0.003382 0.000000 0.000000 0.000000
# 3 -0.002390 -0.003382 0.012156 0.000000 0.000000 0.000000
# 4 0.000000 0.000000 0.000000 0.029012 0.000000 0.000000
# 5 0.000000 0.000000 0.000000 0.000000 0.050676 0.000000
# 6 0.000000 0.000000 0.000000 0.000000 0.000000 0.029006
#
#
# Mechanical properties :
#
#
# Convention : Reuss Voigt Hill
#
# Bulk Modulus (GPa) = 42.28659 43.94208 43.11434
# Shear Modulus (GPa) = 29.08309 30.88420 29.98364
#
# Velocity S-wave (km/s) = 3.62116 3.73161 3.67680
# Velocity P-wave (km/s) = 6.04564 6.19507 6.12081
#
# Compressibility (1/GPa) = 0.02364816
#
# Stress axis : x y z
#
# Youngs Moduli (GPa) = 93.49883 60.07807 82.26450
#
# Poissons Ratio (x) = 0.12930 0.19662
# Poissons Ratio (y) = 0.20123 0.27820
# Poissons Ratio (z) = 0.22348 0.20317
#
# Static dielectric constant tensor:
#      x y z
#    x 1.821680 0.000000 0.000000 
#    y 0.000000 1.892230 0.000000 
#    z 0.000000 0.000000 1.811210 
# 
# From -- ./inp_files/4340.got.cif
#   From: 2010.05.17/outbox.cif.g08.bks.cpg/sg61_3_cif.got.tgz:4340.got - 2010.06.03 15:17:17.
