data_PCOD9459137
_publ_section_title
;
Structure prediction by ZEFSAII (Michael W. Deem and Ramdas Pophale) SiO2 
 PCOD9459137
Probable space group: P B C A
;
_chemical_formula_sum "Si O2"
_cell_formula_units_Z 56
_cell_length_a 20.416615
_cell_length_b 26.166589
_cell_length_c 5.149574
_cell_angle_alpha 90.000000
_cell_angle_beta 90.000000
_cell_angle_gamma 90.000000
_cell_volume 2751.073260
_symmetry_space_group_name_H-M "P B C A"
_symmetry_group_IT_number 61
_symmetry_cell_setting 'orthorhombic'
loop_
_space_group_symop_operation_xyz
x,y,z
1/2-x,-y,1/2+z
1/2+x,1/2-y,-z
-x,1/2+y,1/2-z
-x,-y,-z
1/2+x,y,1/2-z
1/2-x,1/2+y,z
x,1/2-y,1/2+z
loop_
_atom_site_type_symbol
_atom_site_label
_atom_site_fract_x
_atom_site_fract_y
_atom_site_fract_z
Si Si1 0.998539 0.222987 0.464228
Si Si2 0.839603 0.219222 0.502569
Si Si3 0.262862 0.532253 0.355863
Si Si4 0.978704 0.951958 0.226415
Si Si5 0.606891 0.994453 0.110139
Si Si6 0.491698 0.113209 0.245580
Si Si7 0.657378 0.895256 0.855585
O O1 0.020500 0.234152 0.757086
O O2 0.014889 0.169500 0.330183
O O3 0.919200 0.222120 0.491340
O O4 0.816513 0.245894 0.764554
O O5 0.823323 0.159525 0.471727
O O6 0.260015 0.510357 0.646806
O O7 0.340208 0.535495 0.295635
O O8 0.215613 0.580194 0.313416
O O9 0.994818 0.919774 0.488814
O O10 0.044696 0.986316 0.204147
O O11 0.919729 0.986931 0.329808
O O12 0.974920 0.912240 0.993787
O O13 0.640636 0.939219 0.067947
O O14 0.412492 0.113406 0.289659
#
# Coordination Sequence:
#
# PCOD9459137 Si02
#       7
#     8   8   8   8   8   8   8
#     4   9  16  27  44  67  94 121 155 203 250 292
#     4   9  18  30  46  70  97 124 157 195 243 298
#     4  10  20  33  50  73 100 130 163 199 241 290
#     4  10  20  32  48  70 102 137 165 200 240 295
#     4   9  20  34  50  73 102 133 169 201 241 294
#     4  10  19  31  48  72  99 130 164 198 249 299
#     4   9  19  33  52  74 102 131 159 203 250 290
#
# _framework density 20.355692999999999
#
# number of rings (size 3 to 8) (size 9 to 14) (size 15 to 20)
#    0.000    2.571    0.000    1.714    0.000   16.571 
#    0.000    0.000    0.000    0.000    0.000    6.000 
#    0.000    2.286    0.000    0.000    0.000    0.000 
#
# Total GULP energy -312275.520313 kJ/mol
# GULP energy per Si atom -5576.348577 kJ/mol
# Density = 2.030936 g / cm^3
# Si number density = 20.355693 Si / 1000 Ang^3
#
#
#
# Elastic Constant Matrix: (Units=GPa)
#
#
# Indices 1 2 3 4 5 6 
#
# 1 49.5354 14.5885 -0.5184 0.0000 0.0000 0.0000
# 2 14.5885 67.2742 -15.1605 0.0000 0.0000 0.0000
# 3 -0.5184 -15.1605 47.4283 0.0000 0.0000 0.0000
# 4 0.0000 0.0000 0.0000 21.8513 0.0000 0.0000
# 5 0.0000 0.0000 0.0000 0.0000 19.1286 0.0000
# 6 0.0000 0.0000 0.0000 0.0000 0.0000 17.1561
#
#
#
# Elastic Compliance Matrix: (Units=1/GPa)
#
#
# Indices 1 2 3 4 5 6 
#
# 1 0.021646 -0.005001 -0.001362 0.000000 0.000000 0.000000
# 2 -0.005001 0.017174 0.005435 0.000000 0.000000 0.000000
# 3 -0.001362 0.005435 0.022807 0.000000 0.000000 0.000000
# 4 0.000000 0.000000 0.000000 0.045764 0.000000 0.000000
# 5 0.000000 0.000000 0.000000 0.000000 0.052278 0.000000
# 6 0.000000 0.000000 0.000000 0.000000 0.000000 0.058288
#
#
# Mechanical properties :
#
#
# Convention : Reuss Voigt Hill
#
# Bulk Modulus (GPa) = 16.73053 18.00633 17.36843
# Shear Modulus (GPa) = 20.85628 22.64910 21.75269
#
# Velocity S-wave (km/s) = 3.20440 3.33928 3.27254
# Velocity P-wave (km/s) = 4.68272 4.87163 4.77811
#
# Compressibility (1/GPa) = 0.05977096
#
# Stress axis : x y z
#
# Youngs Moduli (GPa) = 46.19762 58.22835 43.84651
#
# Poissons Ratio (x) = 0.29119 0.05972
# Poissons Ratio (y) = 0.23103 -0.23830
# Poissons Ratio (z) = 0.06292 -0.31647
#
# Static dielectric constant tensor:
#      x y z
#    x 1.781730 0.000000 0.000000 
#    y 0.000000 1.763790 0.000000 
#    z 0.000000 0.000000 1.777530 
# 
# From -- ./inp_files/1032.got.cif
#   From: 2010.05.17/outbox.cif.g08.bks.cpg/sg61_1_cif.got.tgz:1032.got - 2010.06.03 15:17:17.
