data_PCOD9459237
_publ_section_title
;
Structure prediction by ZEFSAII (Michael W. Deem and Ramdas Pophale) SiO2 
 PCOD9459237
Probable space group: P B C A
;
_chemical_formula_sum "Si O2"
_cell_formula_units_Z 64
_cell_length_a 24.033064
_cell_length_b 13.023791
_cell_length_c 8.197264
_cell_angle_alpha 90.000000
_cell_angle_beta 90.000000
_cell_angle_gamma 90.000000
_cell_volume 2565.756769
_symmetry_space_group_name_H-M "P B C A"
_symmetry_group_IT_number 61
_symmetry_cell_setting 'orthorhombic'
loop_
_space_group_symop_operation_xyz
x,y,z
1/2-x,-y,1/2+z
1/2+x,1/2-y,-z
-x,1/2+y,1/2-z
-x,-y,-z
1/2+x,y,1/2-z
1/2-x,1/2+y,z
x,1/2-y,1/2+z
loop_
_atom_site_type_symbol
_atom_site_label
_atom_site_fract_x
_atom_site_fract_y
_atom_site_fract_z
Si Si1 0.282992 0.602919 0.088334
Si Si2 0.885542 0.461586 0.370014
Si Si3 0.668596 0.246375 0.639041
Si Si4 0.558140 0.123511 0.559476
Si Si5 0.507147 0.298104 0.373845
Si Si6 0.120380 0.776616 0.349230
Si Si7 0.097942 0.072491 0.476726
Si Si8 0.340258 0.096584 0.149247
O O1 0.326308 0.509966 0.079123
O O2 0.309662 0.688376 0.209141
O O3 0.223991 0.565114 0.153001
O O4 0.283668 0.669539 0.922919
O O5 0.929137 0.508984 0.499328
O O6 0.879954 0.344348 0.317853
O O7 0.900348 0.515313 0.195926
O O8 0.613940 0.173511 0.639417
O O9 0.644856 0.338910 0.525821
O O10 0.541368 0.192812 0.402448
O O11 0.513126 0.150091 0.696592
O O12 0.443329 0.277158 0.407522
O O13 0.538212 0.377383 0.492859
O O14 0.155448 0.834919 0.485018
O O15 0.142736 0.665684 0.301322
O O16 0.116088 0.993415 0.616050
#
# Coordination Sequence:
#
# PCOD9459237 Si02
#       8
#     8   8   8   8   8   8   8   8
#     4  10  19  36  60  83 112 148 181 236 293 332
#     4   9  21  39  59  85 117 150 196 245 286 345
#     4   9  17  34  59  86 111 140 187 233 279 342
#     4  10  19  35  61  91 116 148 195 238 288 351
#     4  11  21  36  61  86 118 157 189 240 296 339
#     4  11  25  41  57  85 121 155 196 241 288 351
#     4   9  20  38  58  84 113 152 198 235 284 351
#     4  11  24  40  57  83 116 154 198 239 292 352
#
# _framework density 24.943909999999999
#
# number of rings (size 3 to 8) (size 9 to 14) (size 15 to 20)
#    0.000    2.000    0.000    5.250    0.000    5.500 
#    0.000   10.000    0.000    0.000    0.000    0.000 
#    0.000    0.000    0.000    0.000    0.000    0.000 
#
# Total GULP energy -358055.802623 kJ/mol
# GULP energy per Si atom -5594.621916 kJ/mol
# Density = 2.488714 g / cm^3
# Si number density = 24.943910 Si / 1000 Ang^3
#
#
#
# Elastic Constant Matrix: (Units=GPa)
#
#
# Indices 1 2 3 4 5 6 
#
# 1 102.7958 -4.2707 2.4016 0.0000 0.0000 0.0000
# 2 -4.2707 67.2558 17.6319 0.0000 0.0000 0.0000
# 3 2.4016 17.6319 57.4635 0.0000 0.0000 0.0000
# 4 0.0000 0.0000 0.0000 47.3991 0.0000 0.0000
# 5 0.0000 0.0000 0.0000 0.0000 23.5723 0.0000
# 6 0.0000 0.0000 0.0000 0.0000 0.0000 14.6177
#
#
#
# Elastic Compliance Matrix: (Units=1/GPa)
#
#
# Indices 1 2 3 4 5 6 
#
# 1 0.009776 0.000792 -0.000651 0.000000 0.000000 0.000000
# 2 0.000792 0.016233 -0.005014 0.000000 0.000000 0.000000
# 3 -0.000651 -0.005014 0.018968 0.000000 0.000000 0.000000
# 4 0.000000 0.000000 0.000000 0.021097 0.000000 0.000000
# 5 0.000000 0.000000 0.000000 0.000000 0.042423 0.000000
# 6 0.000000 0.000000 0.000000 0.000000 0.000000 0.068410
#
#
# Mechanical properties :
#
#
# Convention : Reuss Voigt Hill
#
# Bulk Modulus (GPa) = 28.38518 28.78229 28.58373
# Shear Modulus (GPa) = 25.20173 31.23463 28.21818
#
# Velocity S-wave (km/s) = 3.18203 3.54248 3.36708
# Velocity P-wave (km/s) = 4.99046 5.31940 5.15755
#
# Compressibility (1/GPa) = 0.03522966
#
# Stress axis : x y z
#
# Youngs Moduli (GPa) = 102.28994 61.60152 52.72011
#
# Poissons Ratio (x) = -0.04876 0.03434
# Poissons Ratio (y) = -0.08097 0.26434
# Poissons Ratio (z) = 0.06664 0.30887
#
# Static dielectric constant tensor:
#      x y z
#    x 1.928590 0.000000 0.000000 
#    y 0.000000 1.959100 0.000000 
#    z 0.000000 0.000000 2.055140 
# 
# From -- ./inp_files/4337.got.cif
#   From: 2010.05.17/outbox.cif.g08.bks.cpg/sg61_3_cif.got.tgz:4337.got - 2010.06.03 15:17:17.
