data_PCOD9459046
_publ_section_title
;
Structure prediction by ZEFSAII (Michael W. Deem and Ramdas Pophale) SiO2 
 PCOD9459046
Probable space group: P B C A
;
_chemical_formula_sum "Si O2"
_cell_formula_units_Z 64
_cell_length_a 13.396360
_cell_length_b 8.221621
_cell_length_c 25.791578
_cell_angle_alpha 90.000000
_cell_angle_beta 90.000000
_cell_angle_gamma 90.000000
_cell_volume 2840.679106
_symmetry_space_group_name_H-M "P B C A"
_symmetry_group_IT_number 61
_symmetry_cell_setting 'orthorhombic'
loop_
_space_group_symop_operation_xyz
x,y,z
1/2-x,-y,1/2+z
1/2+x,1/2-y,-z
-x,1/2+y,1/2-z
-x,-y,-z
1/2+x,y,1/2-z
1/2-x,1/2+y,z
x,1/2-y,1/2+z
loop_
_atom_site_type_symbol
_atom_site_label
_atom_site_fract_x
_atom_site_fract_y
_atom_site_fract_z
Si Si1 0.185215 0.698378 0.594517
Si Si2 0.297370 0.110502 0.194234
Si Si3 0.812436 0.476231 0.977809
Si Si4 0.697278 0.603002 0.729995
Si Si5 0.076890 0.435078 0.310091
Si Si6 0.893787 0.703395 0.504238
Si Si7 0.004628 0.020178 0.086776
Si Si8 0.991657 0.935527 0.704773
O O1 0.228685 0.789079 0.643808
O O2 0.270105 0.600671 0.564986
O O3 0.102306 0.568767 0.608884
O O4 0.139015 0.828182 0.553663
O O5 0.322258 0.225089 0.243568
O O6 0.209950 0.006544 0.218326
O O7 0.400915 0.019044 0.180343
O O8 0.713814 0.391170 0.002124
O O9 0.876125 0.603070 0.011705
O O10 0.806231 0.593417 0.703751
O O11 0.607438 0.540424 0.694685
O O12 0.064850 0.536752 0.363043
O O13 0.015380 0.526316 0.265082
O O14 0.032130 0.250598 0.310397
O O15 0.955584 0.663254 0.451017
O O16 0.951495 0.609905 0.549263
#
# Coordination Sequence:
#
# PCOD9459046 Si02
#       8
#     8   8   8   8   8   8   8   8
#     4  10  18  33  56  83 112 143 196 238 297 350
#     4  11  21  35  56  83 113 157 193 246 294 345
#     4   9  19  35  57  87 113 143 191 252 293 355
#     4  11  22  37  55  80 118 155 195 244 292 345
#     4  11  23  40  61  86 119 161 203 244 296 360
#     4   9  20  39  61  83 117 150 190 250 303 352
#     4  10  20  40  60  80 117 157 191 243 305 355
#     4  11  21  39  58  81 122 156 198 248 291 346
#
# _framework density 22.529824000000001
#
# number of rings (size 3 to 8) (size 9 to 14) (size 15 to 20)
#    0.000    1.750    3.750    0.750    0.000    2.500 
#    6.750    0.000    0.000    0.000    0.000    0.000 
#    0.000    0.000    0.000    0.000    0.000    0.000 
#
# Total GULP energy -356828.213706 kJ/mol
# GULP energy per Si atom -5575.440839 kJ/mol
# Density = 2.247855 g / cm^3
# Si number density = 22.529824 Si / 1000 Ang^3
#
#
#
# Elastic Constant Matrix: (Units=GPa)
#
#
# Indices 1 2 3 4 5 6 
#
# 1 80.2801 1.7814 -8.0018 0.0000 0.0000 0.0000
# 2 1.7814 45.6178 -9.0464 0.0000 0.0000 0.0000
# 3 -8.0018 -9.0464 28.9604 0.0000 0.0000 0.0000
# 4 0.0000 0.0000 0.0000 15.2530 0.0000 0.0000
# 5 0.0000 0.0000 0.0000 0.0000 13.1707 0.0000
# 6 0.0000 0.0000 0.0000 0.0000 0.0000 26.0116
#
#
#
# Elastic Compliance Matrix: (Units=1/GPa)
#
#
# Indices 1 2 3 4 5 6 
#
# 1 0.012811 0.000215 0.003607 0.000000 0.000000 0.000000
# 2 0.000215 0.023372 0.007360 0.000000 0.000000 0.000000
# 3 0.003607 0.007360 0.037826 0.000000 0.000000 0.000000
# 4 0.000000 0.000000 0.000000 0.065561 0.000000 0.000000
# 5 0.000000 0.000000 0.000000 0.000000 0.075926 0.000000
# 6 0.000000 0.000000 0.000000 0.000000 0.000000 0.038444
#
#
# Mechanical properties :
#
#
# Convention : Reuss Voigt Hill
#
# Bulk Modulus (GPa) = 10.37628 13.81385 12.09507
# Shear Modulus (GPa) = 18.96086 22.22871 20.59478
#
# Velocity S-wave (km/s) = 2.90416 3.14448 3.02671
# Velocity P-wave (km/s) = 3.98260 4.39640 4.19461
#
# Compressibility (1/GPa) = 0.09637363
#
# Stress axis : x y z
#
# Youngs Moduli (GPa) = 78.05711 42.78534 26.43710
#
# Poissons Ratio (x) = -0.00920 -0.09536
# Poissons Ratio (y) = -0.01678 -0.19459
# Poissons Ratio (z) = -0.28154 -0.31491
#
# Static dielectric constant tensor:
#      x y z
#    x 1.891870 0.000000 0.000000 
#    y 0.000000 1.914440 0.000000 
#    z 0.000000 0.000000 1.879980 
# 
# From -- ./inp_files/11078.got.cif
#   From: 2010.05.17/outbox.cif.g08.bks.cpg/sg61_6_cif.got.tgz:11078.got - 2010.06.03 15:17:17.
