data_PCOD9459496
_publ_section_title
;
Structure prediction by ZEFSAII (Michael W. Deem and Ramdas Pophale) SiO2 
 PCOD9459496
Probable space group: P B C A
;
_chemical_formula_sum "Si O2"
_cell_formula_units_Z 48
_cell_length_a 13.968999
_cell_length_b 9.068028
_cell_length_c 16.734488
_cell_angle_alpha 90.000000
_cell_angle_beta 90.000000
_cell_angle_gamma 90.000000
_cell_volume 2119.778916
_symmetry_space_group_name_H-M "P B C A"
_symmetry_group_IT_number 61
_symmetry_cell_setting 'orthorhombic'
loop_
_space_group_symop_operation_xyz
x,y,z
1/2-x,-y,1/2+z
1/2+x,1/2-y,-z
-x,1/2+y,1/2-z
-x,-y,-z
1/2+x,y,1/2-z
1/2-x,1/2+y,z
x,1/2-y,1/2+z
loop_
_atom_site_type_symbol
_atom_site_label
_atom_site_fract_x
_atom_site_fract_y
_atom_site_fract_z
Si Si1 0.246514 0.673968 0.881034
Si Si2 0.052796 0.522117 0.817413
Si Si3 0.343387 0.887066 0.136334
Si Si4 0.449557 0.239345 0.683429
Si Si5 0.680904 0.941157 0.708189
Si Si6 0.211591 0.677774 0.062908
O O1 0.331013 0.557167 0.863638
O O2 0.149133 0.586760 0.855338
O O3 0.250862 0.816612 0.825083
O O4 0.232548 0.717516 0.972279
O O5 0.957261 0.597702 0.855475
O O6 0.039613 0.346775 0.832031
O O7 0.045263 0.581113 0.725470
O O8 0.295506 0.951395 0.217471
O O9 0.302105 0.729163 0.115403
O O10 0.309002 0.004338 0.070146
O O11 0.401017 0.341803 0.752675
O O12 0.379170 0.245589 0.607161
#
# Coordination Sequence:
#
# PCOD9459496 Si02
#       6
#     8   8   8   8   8   8
#     4  11  20  35  56  83 111 141 176 227 273 319
#     4   9  20  35  55  78 105 137 185 227 265 312
#     4  10  20  37  56  79 106 146 187 221 260 323
#     4   9  20  35  52  80 105 142 185 222 264 320
#     4   9  19  34  54  76 104 140 186 214 255 322
#     4  10  21  35  55  80 113 142 177 220 277 326
#
# _framework density 22.643872000000002
#
# number of rings (size 3 to 8) (size 9 to 14) (size 15 to 20)
#    0.000    2.667    0.000    4.000    0.000    9.333 
#    0.000    3.333    0.000    8.000    0.000    0.000 
#    0.000    0.000    0.000    0.000    0.000    0.000 
#
# Total GULP energy -267379.185434 kJ/mol
# GULP energy per Si atom -5570.399697 kJ/mol
# Density = 2.259233 g / cm^3
# Si number density = 22.643872 Si / 1000 Ang^3
#
#
#
# Elastic Constant Matrix: (Units=GPa)
#
#
# Indices 1 2 3 4 5 6 
#
# 1 73.3906 -0.8821 14.7471 0.0000 0.0000 0.0000
# 2 -0.8821 31.3698 6.1611 0.0000 0.0000 0.0000
# 3 14.7471 6.1611 77.2896 0.0000 0.0000 0.0000
# 4 0.0000 0.0000 0.0000 16.2628 0.0000 0.0000
# 5 0.0000 0.0000 0.0000 0.0000 10.7441 0.0000
# 6 0.0000 0.0000 0.0000 0.0000 0.0000 24.3104
#
#
#
# Elastic Compliance Matrix: (Units=1/GPa)
#
#
# Indices 1 2 3 4 5 6 
#
# 1 0.014197 0.000946 -0.002784 0.000000 0.000000 0.000000
# 2 0.000946 0.032448 -0.002767 0.000000 0.000000 0.000000
# 3 -0.002784 -0.002767 0.013690 0.000000 0.000000 0.000000
# 4 0.000000 0.000000 0.000000 0.061490 0.000000 0.000000
# 5 0.000000 0.000000 0.000000 0.000000 0.093074 0.000000
# 6 0.000000 0.000000 0.000000 0.000000 0.000000 0.041135
#
#
# Mechanical properties :
#
#
# Convention : Reuss Voigt Hill
#
# Bulk Modulus (GPa) = 19.56026 24.67806 22.11916
# Shear Modulus (GPa) = 17.71259 21.06505 19.38882
#
# Velocity S-wave (km/s) = 2.79986 3.05335 2.92935
# Velocity P-wave (km/s) = 4.37141 4.83245 4.60770
#
# Compressibility (1/GPa) = 0.05112406
#
# Stress axis : x y z
#
# Youngs Moduli (GPa) = 70.43972 30.81868 73.04523
#
# Poissons Ratio (x) = -0.02915 0.20337
# Poissons Ratio (y) = -0.06664 0.20212
# Poissons Ratio (z) = 0.19612 0.08528
#
# Static dielectric constant tensor:
#      x y z
#    x 1.956900 0.000000 0.000000 
#    y 0.000000 1.911200 0.000000 
#    z 0.000000 0.000000 1.842460 
# 
# From -- ./inp_files/9459.got.cif
#   From: 2010.05.17/outbox.cif.g08.bks.cpg/sg61_5_cif.got.tgz:9459.got - 2010.06.03 15:17:17.
