data_PCOD9459011
_publ_section_title
;
Structure prediction by ZEFSAII (Michael W. Deem and Ramdas Pophale) SiO2 
 PCOD9459011
Probable space group: P B C A
;
_chemical_formula_sum "Si O2"
_cell_formula_units_Z 56
_cell_length_a 8.253979
_cell_length_b 14.347801
_cell_length_c 21.434760
_cell_angle_alpha 90.000000
_cell_angle_beta 90.000000
_cell_angle_gamma 90.000000
_cell_volume 2538.442494
_symmetry_space_group_name_H-M "P B C A"
_symmetry_group_IT_number 61
_symmetry_cell_setting 'orthorhombic'
loop_
_space_group_symop_operation_xyz
x,y,z
1/2-x,-y,1/2+z
1/2+x,1/2-y,-z
-x,1/2+y,1/2-z
-x,-y,-z
1/2+x,y,1/2-z
1/2-x,1/2+y,z
x,1/2-y,1/2+z
loop_
_atom_site_type_symbol
_atom_site_label
_atom_site_fract_x
_atom_site_fract_y
_atom_site_fract_z
Si Si1 0.389505 0.536123 0.555433
Si Si2 0.063302 0.062417 0.056148
Si Si3 0.017178 0.481354 0.814005
Si Si4 0.945214 0.241542 0.323461
Si Si5 0.879906 0.767589 0.407624
Si Si6 0.620696 0.966820 0.682006
Si Si7 0.677205 0.743539 0.686931
O O1 0.500000 0.500000 0.500000
O O2 0.247584 0.463310 0.554855
O O3 0.436040 0.529851 0.627862
O O4 0.356235 0.645352 0.546312
O O5 0.060486 0.174196 0.056770
O O6 0.983257 0.025340 0.119919
O O7 0.000000 0.000000 0.000000
O O8 0.203107 0.509325 0.822152
O O9 0.977059 0.370474 0.820328
O O10 0.964835 0.503133 0.743889
O O11 0.794538 0.255325 0.372001
O O12 0.872997 0.280491 0.258043
O O13 0.133470 0.278773 0.330808
O O14 0.031298 0.784303 0.359738
O O15 0.659602 0.856573 0.688258
#
# Coordination Sequence:
#
# PCOD9459011 Si02
#       7
#     8   8   8   8   8   8   8
#     4  12  27  47  69 100 142 191 243 300 366 438
#     4  11  24  48  73 101 141 190 247 297 362 441
#     4  10  19  39  67 101 139 180 230 298 356 431
#     4  10  17  37  68 101 142 189 229 295 367 431
#     4  11  24  45  70 102 144 191 245 301 368 437
#     4   9  19  36  70 103 136 183 229 291 365 419
#     4   9  18  34  68 105 144 183 235 292 367 436
#
# _framework density 22.060770999999999
#
# number of rings (size 3 to 8) (size 9 to 14) (size 15 to 20)
#    0.000    1.714    2.857    1.714    4.000    1.143 
#   10.286    0.000    0.000    0.000    0.000    0.000 
#    0.000    0.000    0.000    0.000    0.000    0.000 
#
# Total GULP energy -312097.887231 kJ/mol
# GULP energy per Si atom -5573.176558 kJ/mol
# Density = 2.201056 g / cm^3
# Si number density = 22.060771 Si / 1000 Ang^3
#
#
#
# Elastic Constant Matrix: (Units=GPa)
#
#
# Indices 1 2 3 4 5 6 
#
# 1 61.9776 -14.7731 -18.8910 0.0000 0.0000 0.0000
# 2 -14.7731 79.2193 17.5248 0.0000 0.0000 0.0000
# 3 -18.8910 17.5248 56.0743 0.0000 0.0000 0.0000
# 4 0.0000 0.0000 0.0000 21.3759 0.0000 0.0000
# 5 0.0000 0.0000 0.0000 0.0000 35.2171 0.0000
# 6 0.0000 0.0000 0.0000 0.0000 0.0000 12.9365
#
#
#
# Elastic Compliance Matrix: (Units=1/GPa)
#
#
# Indices 1 2 3 4 5 6 
#
# 1 0.018333 0.002205 0.005487 0.000000 0.000000 0.000000
# 2 0.002205 0.013826 -0.003578 0.000000 0.000000 0.000000
# 3 0.005487 -0.003578 0.020800 0.000000 0.000000 0.000000
# 4 0.000000 0.000000 0.000000 0.046782 0.000000 0.000000
# 5 0.000000 0.000000 0.000000 0.000000 0.028395 0.000000
# 6 0.000000 0.000000 0.000000 0.000000 0.000000 0.077300
#
#
# Mechanical properties :
#
#
# Convention : Reuss Voigt Hill
#
# Bulk Modulus (GPa) = 16.34336 18.33251 17.33793
# Shear Modulus (GPa) = 22.97748 28.13328 25.55538
#
# Velocity S-wave (km/s) = 3.23081 3.57496 3.40723
# Velocity P-wave (km/s) = 4.61973 5.03671 4.83272
#
# Compressibility (1/GPa) = 0.06118695
#
# Stress axis : x y z
#
# Youngs Moduli (GPa) = 54.54668 72.32781 48.07615
#
# Poissons Ratio (x) = -0.15948 -0.26380
# Poissons Ratio (y) = -0.12027 0.17202
# Poissons Ratio (z) = -0.29930 0.25880
#
# Static dielectric constant tensor:
#      x y z
#    x 1.848710 0.000000 0.000000 
#    y 0.000000 1.254820 0.000000 
#    z 0.000000 0.000000 1.710790 
# 
# From -- ./inp_files/10119.got.cif
#   From: 2010.05.17/outbox.cif.g08.bks.cpg/sg61_6_cif.got.tgz:10119.got - 2010.06.03 15:17:17.
