data_PCOD9459231
_publ_section_title
;
Structure prediction by ZEFSAII (Michael W. Deem and Ramdas Pophale) SiO2 
 PCOD9459231
Probable space group: P B C A
;
_chemical_formula_sum "Si O2"
_cell_formula_units_Z 64
_cell_length_a 8.984308
_cell_length_b 23.621332
_cell_length_c 14.187285
_cell_angle_alpha 90.000000
_cell_angle_beta 90.000000
_cell_angle_gamma 90.000000
_cell_volume 3010.844379
_symmetry_space_group_name_H-M "P B C A"
_symmetry_group_IT_number 61
_symmetry_cell_setting 'orthorhombic'
loop_
_space_group_symop_operation_xyz
x,y,z
1/2-x,-y,1/2+z
1/2+x,1/2-y,-z
-x,1/2+y,1/2-z
-x,-y,-z
1/2+x,y,1/2-z
1/2-x,1/2+y,z
x,1/2-y,1/2+z
loop_
_atom_site_type_symbol
_atom_site_label
_atom_site_fract_x
_atom_site_fract_y
_atom_site_fract_z
Si Si1 0.909089 0.142817 0.702274
Si Si2 0.869635 0.663557 0.343441
Si Si3 0.173883 0.061722 0.290854
Si Si4 0.326831 0.227721 0.305074
Si Si5 0.115098 0.511084 0.135508
Si Si6 0.329937 0.844001 0.942115
Si Si7 0.838671 0.117703 0.493404
Si Si8 0.723997 0.386985 0.365326
O O1 0.853820 0.206893 0.712305
O O2 0.839087 0.118670 0.605719
O O3 0.859660 0.109105 0.794280
O O4 0.085780 0.141022 0.689470
O O5 0.899267 0.605848 0.284208
O O6 0.739536 0.696367 0.286312
O O7 0.801254 0.648063 0.444368
O O8 0.018038 0.700156 0.338536
O O9 0.296625 0.029852 0.229826
O O10 0.222349 0.104504 0.374023
O O11 0.056312 0.018990 0.336350
O O12 0.208905 0.213083 0.387376
O O13 0.151315 0.555786 0.053428
O O14 0.163871 0.448790 0.106470
O O15 0.505771 0.852195 0.961568
O O16 0.248666 0.850812 0.041444
#
# Coordination Sequence:
#
# PCOD9459231 Si02
#       8
#     8   8   8   8   8   8   8   8
#     4  11  25  40  55  82 115 151 192 233 282 341
#     4  10  19  36  60  88 114 144 190 233 277 338
#     4   9  17  33  58  86 110 140 188 229 275 338
#     4  11  21  36  60  83 114 152 183 234 288 325
#     4  10  19  35  60  83 113 150 179 231 286 325
#     4   9  20  38  58  83 112 149 194 232 275 337
#     4   9  21  38  58  86 114 146 193 233 276 338
#     4  11  24  40  57  83 116 149 191 232 281 342
#
# _framework density 21.256495999999999
#
# number of rings (size 3 to 8) (size 9 to 14) (size 15 to 20)
#    0.000    2.000    0.000    5.250    0.000    9.500 
#    0.000    0.000    0.000    5.250    0.000    0.000 
#    0.000    0.000    0.000    0.000    0.000    0.000 
#
# Total GULP energy -357690.560048 kJ/mol
# GULP energy per Si atom -5588.915001 kJ/mol
# Density = 2.120812 g / cm^3
# Si number density = 21.256496 Si / 1000 Ang^3
#
#
#
# Elastic Constant Matrix: (Units=GPa)
#
#
# Indices 1 2 3 4 5 6 
#
# 1 26.8434 6.4879 -1.2368 0.0000 0.0000 0.0000
# 2 6.4879 41.3251 -35.8701 0.0000 0.0000 0.0000
# 3 -1.2368 -35.8701 47.5758 0.0000 0.0000 0.0000
# 4 0.0000 0.0000 0.0000 11.9488 0.0000 0.0000
# 5 0.0000 0.0000 0.0000 0.0000 29.0435 0.0000
# 6 0.0000 0.0000 0.0000 0.0000 0.0000 24.8954
#
#
#
# Elastic Compliance Matrix: (Units=1/GPa)
#
#
# Indices 1 2 3 4 5 6 
#
# 1 0.040568 -0.015782 -0.010844 0.000000 0.000000 0.000000
# 2 -0.015782 0.076164 0.057014 0.000000 0.000000 0.000000
# 3 -0.010844 0.057014 0.063723 0.000000 0.000000 0.000000
# 4 0.000000 0.000000 0.000000 0.083690 0.000000 0.000000
# 5 0.000000 0.000000 0.000000 0.000000 0.034431 0.000000
# 6 0.000000 0.000000 0.000000 0.000000 0.000000 0.040168
#
#
# Mechanical properties :
#
#
# Convention : Reuss Voigt Hill
#
# Bulk Modulus (GPa) = 4.14538 6.05627 5.10083
# Shear Modulus (GPa) = 13.95172 22.93511 18.44341
#
# Velocity S-wave (km/s) = 2.56471 3.28833 2.94880
# Velocity P-wave (km/s) = 3.27487 4.15606 3.74149
#
# Compressibility (1/GPa) = 0.24123244
#
# Stress axis : x y z
#
# Youngs Moduli (GPa) = 24.65007 13.12952 15.69282
#
# Poissons Ratio (x) = 0.20721 0.17017
# Poissons Ratio (y) = 0.38902 -0.89471
# Poissons Ratio (z) = 0.26731 -0.74857
#
# Static dielectric constant tensor:
#      x y z
#    x 1.760870 0.000000 0.000000 
#    y 0.000000 1.773130 0.000000 
#    z 0.000000 0.000000 1.753950 
# 
# From -- ./inp_files/7229.got.cif
#   From: 2010.05.17/outbox.cif.g08.bks.cpg/sg61_4_cif.got.tgz:7229.got - 2010.06.03 15:17:17.
