data_PCOD9459054
_publ_section_title
;
Structure prediction by ZEFSAII (Michael W. Deem and Ramdas Pophale) SiO2 
 PCOD9459054
Probable space group: P B C A
;
_chemical_formula_sum "Si O2"
_cell_formula_units_Z 52
_cell_length_a 13.583448
_cell_length_b 17.282378
_cell_length_c 8.164076
_cell_angle_alpha 90.000000
_cell_angle_beta 90.000000
_cell_angle_gamma 90.000000
_cell_volume 1916.551807
_symmetry_space_group_name_H-M "P B C A"
_symmetry_group_IT_number 61
_symmetry_cell_setting 'orthorhombic'
loop_
_space_group_symop_operation_xyz
x,y,z
1/2-x,-y,1/2+z
1/2+x,1/2-y,-z
-x,1/2+y,1/2-z
-x,-y,-z
1/2+x,y,1/2-z
1/2-x,1/2+y,z
x,1/2-y,1/2+z
loop_
_atom_site_type_symbol
_atom_site_label
_atom_site_fract_x
_atom_site_fract_y
_atom_site_fract_z
Si Si1 0.349256 0.273005 0.525983
Si Si2 0.633191 0.215819 0.028392
Si Si3 0.773167 0.418703 0.114792
Si Si4 0.415666 0.132516 0.336299
Si Si5 0.793517 0.924525 0.735886
Si Si6 0.000000 0.500000 0.500000
Si Si7 0.575446 0.132858 0.725560
O O1 0.237430 0.241355 0.555589
O O2 0.333381 0.339178 0.388684
O O3 0.406360 0.197967 0.471697
O O4 0.400953 0.318422 0.672328
O O5 0.561671 0.173420 0.900362
O O6 0.656617 0.153036 0.169100
O O7 0.594627 0.294388 0.106636
O O8 0.724984 0.426862 0.931761
O O9 0.831547 0.494949 0.163610
O O10 0.682660 0.408923 0.238590
O O11 0.316777 0.080494 0.344340
O O12 0.500408 0.070960 0.363247
O O13 0.008893 0.432605 0.355707
#
# Coordination Sequence:
#
# PCOD9459054 Si02
#       7
#     8   8   8   8   8   4   8
#     4   9  19  36  63  90 113 141 192 248 302 342
#     4  10  20  37  66  91 117 147 197 254 313 349
#     4  10  18  33  59  95 124 146 190 252 310 350
#     4  10  21  39  58  86 117 157 190 236 293 354
#     4  10  19  33  63  99 120 148 192 255 314 347
#     4  12  26  40  58  78 124 170 200 234 288 360
#     4  11  22  40  60  88 121 162 195 246 298 366
#
# _framework density 27.132062000000001
#
# number of rings (size 3 to 8) (size 9 to 14) (size 15 to 20)
#    0.000    1.846    1.538    5.538    2.154    2.462 
#    0.000    0.000    0.000    2.769    0.000    0.000 
#    0.000    0.000    0.000    0.000    0.000    0.000 
#
# Total GULP energy -290265.553200 kJ/mol
# GULP energy per Si atom -5582.029869 kJ/mol
# Density = 2.707031 g / cm^3
# Si number density = 27.132062 Si / 1000 Ang^3
#
#
#
# Elastic Constant Matrix: (Units=GPa)
#
#
# Indices 1 2 3 4 5 6 
#
# 1 64.4876 45.1889 35.9326 0.0000 0.0000 0.0000
# 2 45.1889 274.3245 83.9875 0.0000 0.0000 0.0000
# 3 35.9326 83.9875 114.2279 0.0000 0.0000 0.0000
# 4 0.0000 0.0000 0.0000 61.7427 0.0000 0.0000
# 5 0.0000 0.0000 0.0000 0.0000 25.8440 0.0000
# 6 0.0000 0.0000 0.0000 0.0000 0.0000 38.9213
#
#
#
# Elastic Compliance Matrix: (Units=1/GPa)
#
#
# Indices 1 2 3 4 5 6 
#
# 1 0.019407 -0.001714 -0.004845 0.000000 0.000000 0.000000
# 2 -0.001714 0.004856 -0.003031 0.000000 0.000000 0.000000
# 3 -0.004845 -0.003031 0.012507 0.000000 0.000000 0.000000
# 4 0.000000 0.000000 0.000000 0.016196 0.000000 0.000000
# 5 0.000000 0.000000 0.000000 0.000000 0.038694 0.000000
# 6 0.000000 0.000000 0.000000 0.000000 0.000000 0.025693
#
#
# Mechanical properties :
#
#
# Convention : Reuss Voigt Hill
#
# Bulk Modulus (GPa) = 56.84831 87.02866 71.93849
# Shear Modulus (GPa) = 35.11343 44.49702 39.80523
#
# Velocity S-wave (km/s) = 3.60136 4.05410 3.83442
# Velocity P-wave (km/s) = 6.18797 7.35255 6.79525
#
# Compressibility (1/GPa) = 0.01759067
#
# Stress axis : x y z
#
# Youngs Moduli (GPa) = 51.52714 205.94808 79.95410
#
# Poissons Ratio (x) = 0.35290 0.38738
# Poissons Ratio (y) = 0.08829 0.24235
# Poissons Ratio (z) = 0.24965 0.62425
#
# Static dielectric constant tensor:
#      x y z
#    x 3.399710 0.000000 0.000000 
#    y 0.000000 2.043790 0.000000 
#    z 0.000000 0.000000 1.970410 
# 
# From -- ./inp_files/3554.got.cif
#   From: 2010.05.17/outbox.cif.g08.bks.cpg/sg61_2_cif.got.tgz:3554.got - 2010.06.03 15:17:17.
