data_PCOD9459473
_publ_section_title
;
Structure prediction by ZEFSAII (Michael W. Deem and Ramdas Pophale) SiO2 
 PCOD9459473
Probable space group: P B C A
;
_chemical_formula_sum "Si O2"
_cell_formula_units_Z 56
_cell_length_a 4.990180
_cell_length_b 27.478800
_cell_length_c 16.361327
_cell_angle_alpha 90.000000
_cell_angle_beta 90.000000
_cell_angle_gamma 90.000000
_cell_volume 2243.533192
_symmetry_space_group_name_H-M "P B C A"
_symmetry_group_IT_number 61
_symmetry_cell_setting 'orthorhombic'
loop_
_space_group_symop_operation_xyz
x,y,z
1/2-x,-y,1/2+z
1/2+x,1/2-y,-z
-x,1/2+y,1/2-z
-x,-y,-z
1/2+x,y,1/2-z
1/2-x,1/2+y,z
x,1/2-y,1/2+z
loop_
_atom_site_type_symbol
_atom_site_label
_atom_site_fract_x
_atom_site_fract_y
_atom_site_fract_z
Si Si1 0.242103 0.094723 0.497734
Si Si2 0.034664 0.368884 0.196185
Si Si3 0.259222 0.555649 0.070376
Si Si4 0.607757 0.745842 0.804878
Si Si5 0.484465 0.515173 0.699251
Si Si6 0.615991 0.657380 0.398655
Si Si7 0.379615 0.669881 0.930184
O O1 0.951042 0.069573 0.501933
O O2 0.167990 0.137855 0.433401
O O3 0.414878 0.123774 0.564621
O O4 0.443132 0.053946 0.463630
O O5 0.827344 0.356912 0.269865
O O6 0.031074 0.427126 0.186302
O O7 0.887969 0.345028 0.119225
O O8 0.138645 0.512953 0.123082
O O9 0.252097 0.605785 0.124112
O O10 0.903476 0.736994 0.769910
O O11 0.590951 0.802067 0.831379
O O12 0.517722 0.714824 0.884230
O O13 0.286980 0.502968 0.775456
O O14 0.777704 0.678379 0.477318
#
# Coordination Sequence:
#
# PCOD9459473 Si02
#       7
#     8   8   8   8   8   8   8
#     4   9  21  38  61  90 120 160 215 249 315 374
#     4  10  23  40  63  95 132 165 221 274 320 377
#     4   9  19  37  59  88 123 157 211 255 306 375
#     4  12  30  43  66 100 133 164 218 275 331 387
#     4  10  20  36  60  91 126 175 211 256 326 390
#     4   9  25  42  66  91 130 167 220 256 328 387
#     4  11  24  44  72  89 130 175 218 261 334 385
#
# _framework density 24.960628
#
# number of rings (size 3 to 8) (size 9 to 14) (size 15 to 20)
#    0.857    1.143    0.000    1.714   10.000    1.143 
#    0.000    3.571    0.000    0.000    0.000    0.000 
#    0.000    0.000    0.000    0.000    0.000    0.000 
#
# Total GULP energy -313069.909511 kJ/mol
# GULP energy per Si atom -5590.534098 kJ/mol
# Density = 2.490382 g / cm^3
# Si number density = 24.960628 Si / 1000 Ang^3
#
#
#
# Elastic Constant Matrix: (Units=GPa)
#
#
# Indices 1 2 3 4 5 6 
#
# 1 139.4267 -5.3132 8.0726 0.0000 0.0000 0.0000
# 2 -5.3132 52.1948 7.4062 0.0000 0.0000 0.0000
# 3 8.0726 7.4062 47.6896 0.0000 0.0000 0.0000
# 4 0.0000 0.0000 0.0000 44.9898 0.0000 0.0000
# 5 0.0000 0.0000 0.0000 0.0000 32.4632 0.0000
# 6 0.0000 0.0000 0.0000 0.0000 0.0000 22.2051
#
#
#
# Elastic Compliance Matrix: (Units=1/GPa)
#
#
# Indices 1 2 3 4 5 6 
#
# 1 0.007288 0.000938 -0.001379 0.000000 0.000000 0.000000
# 2 0.000938 0.019711 -0.003220 0.000000 0.000000 0.000000
# 3 -0.001379 -0.003220 0.021702 0.000000 0.000000 0.000000
# 4 0.000000 0.000000 0.000000 0.022227 0.000000 0.000000
# 5 0.000000 0.000000 0.000000 0.000000 0.030804 0.000000
# 6 0.000000 0.000000 0.000000 0.000000 0.000000 0.045035
#
#
# Mechanical properties :
#
#
# Convention : Reuss Voigt Hill
#
# Bulk Modulus (GPa) = 24.16715 28.84915 26.50815
# Shear Modulus (GPa) = 29.78254 35.20798 32.49526
#
# Velocity S-wave (km/s) = 3.45799 3.75979 3.61204
# Velocity P-wave (km/s) = 5.06426 5.51643 5.29517
#
# Compressibility (1/GPa) = 0.04137848
#
# Stress axis : x y z
#
# Youngs Moduli (GPa) = 137.21540 50.73229 46.07780
#
# Poissons Ratio (x) = -0.04757 0.06355
# Poissons Ratio (y) = -0.12865 0.14836
# Poissons Ratio (z) = 0.18925 0.16335
#
# Static dielectric constant tensor:
#      x y z
#    x 1.975690 0.000000 0.000000 
#    y 0.000000 1.991670 0.000000 
#    z 0.000000 0.000000 2.047750 
# 
# From -- ./inp_files/6869.got.cif
#   From: 2010.05.17/outbox.cif.g08.bks.cpg/sg61_4_cif.got.tgz:6869.got - 2010.06.03 15:17:17.
