data_PCOD9459146
_publ_section_title
;
Structure prediction by ZEFSAII (Michael W. Deem and Ramdas Pophale) SiO2 
 PCOD9459146
Probable space group: P B C A
;
_chemical_formula_sum "Si O2"
_cell_formula_units_Z 64
_cell_length_a 20.859317
_cell_length_b 18.715730
_cell_length_c 7.901887
_cell_angle_alpha 90.000000
_cell_angle_beta 90.000000
_cell_angle_gamma 90.000000
_cell_volume 3084.875705
_symmetry_space_group_name_H-M "P B C A"
_symmetry_group_IT_number 61
_symmetry_cell_setting 'orthorhombic'
loop_
_space_group_symop_operation_xyz
x,y,z
1/2-x,-y,1/2+z
1/2+x,1/2-y,-z
-x,1/2+y,1/2-z
-x,-y,-z
1/2+x,y,1/2-z
1/2-x,1/2+y,z
x,1/2-y,1/2+z
loop_
_atom_site_type_symbol
_atom_site_label
_atom_site_fract_x
_atom_site_fract_y
_atom_site_fract_z
Si Si1 0.918496 0.592065 0.213492
Si Si2 0.835961 0.139805 0.730233
Si Si3 0.831006 0.286946 0.599710
Si Si4 0.228928 0.035215 0.660567
Si Si5 0.914962 0.974091 0.337771
Si Si6 0.446985 0.125370 0.288470
Si Si7 0.774449 0.891793 0.710196
Si Si8 0.954153 0.441732 0.338044
O O1 0.848819 0.624903 0.242983
O O2 0.929199 0.523323 0.334068
O O3 0.980160 0.642494 0.236673
O O4 0.920178 0.557328 0.026202
O O5 0.826080 0.202091 0.596620
O O6 0.781537 0.079652 0.735648
O O7 0.905032 0.102849 0.723145
O O8 0.832584 0.179824 0.912438
O O9 0.895956 0.311574 0.695920
O O10 0.771141 0.323814 0.694064
O O11 0.156410 0.042035 0.727932
O O12 0.229316 0.067958 0.472283
O O13 0.248507 0.952299 0.663470
O O14 0.974016 0.942310 0.232297
O O15 0.923703 0.059864 0.329421
O O16 0.449514 0.090311 0.475561
#
# Coordination Sequence:
#
# PCOD9459146 Si02
#       8
#     8   8   8   8   8   8   8   8
#     4  10  19  31  53  82 109 136 174 222 269 316
#     4  10  22  38  55  78 108 145 185 224 272 328
#     4  10  22  38  55  78 108 145 185 224 272 328
#     4  10  20  35  55  81 110 141 180 226 271 321
#     4  10  19  31  53  82 109 136 174 222 269 316
#     4  10  19  33  53  77 108 140 175 221 267 319
#     4  10  20  35  55  81 110 141 180 226 271 321
#     4  10  19  33  53  77 108 140 175 221 267 319
#
# _framework density 20.746379000000001
#
# number of rings (size 3 to 8) (size 9 to 14) (size 15 to 20)
#    0.000    2.000    2.500    3.000    0.000    4.000 
#    0.000    1.250    0.000    6.000    0.000    0.000 
#    0.000    0.000    0.000    0.000    0.000    0.000 
#
# Total GULP energy -357590.633577 kJ/mol
# GULP energy per Si atom -5587.353650 kJ/mol
# Density = 2.069916 g / cm^3
# Si number density = 20.746379 Si / 1000 Ang^3
#
#
#
# Elastic Constant Matrix: (Units=GPa)
#
#
# Indices 1 2 3 4 5 6 
#
# 1 124.3561 9.7241 26.0417 0.0000 0.0000 0.0000
# 2 9.7241 35.6453 3.5577 0.0000 0.0000 0.0000
# 3 26.0417 3.5577 49.4012 0.0000 0.0000 0.0000
# 4 0.0000 0.0000 0.0000 24.6770 0.0000 0.0000
# 5 0.0000 0.0000 0.0000 0.0000 21.4155 0.0000
# 6 0.0000 0.0000 0.0000 0.0000 0.0000 21.1669
#
#
#
# Elastic Compliance Matrix: (Units=1/GPa)
#
#
# Indices 1 2 3 4 5 6 
#
# 1 0.009184 -0.002037 -0.004695 0.000000 0.000000 0.000000
# 2 -0.002037 0.028709 -0.000994 0.000000 0.000000 0.000000
# 3 -0.004695 -0.000994 0.022789 0.000000 0.000000 0.000000
# 4 0.000000 0.000000 0.000000 0.040524 0.000000 0.000000
# 5 0.000000 0.000000 0.000000 0.000000 0.046695 0.000000
# 6 0.000000 0.000000 0.000000 0.000000 0.000000 0.047243
#
#
# Mechanical properties :
#
#
# Convention : Reuss Voigt Hill
#
# Bulk Modulus (GPa) = 22.10861 32.00550 27.05706
# Shear Modulus (GPa) = 22.15615 24.79050 23.47332
#
# Velocity S-wave (km/s) = 3.27150 3.46053 3.36734
# Velocity P-wave (km/s) = 4.99500 5.60603 5.30931
#
# Compressibility (1/GPa) = 0.04523124
#
# Stress axis : x y z
#
# Youngs Moduli (GPa) = 108.88759 34.83222 43.88138
#
# Poissons Ratio (x) = 0.07095 0.20600
# Poissons Ratio (y) = 0.22178 0.04361
# Poissons Ratio (z) = 0.51117 0.03462
#
# Static dielectric constant tensor:
#      x y z
#    x 1.759330 0.000000 0.000000 
#    y 0.000000 1.699480 0.000000 
#    z 0.000000 0.000000 1.795520 
# 
# From -- ./inp_files/4127.got.cif
#   From: 2010.05.17/outbox.cif.g08.bks.cpg/sg61_3_cif.got.tgz:4127.got - 2010.06.03 15:17:17.
