data_PCOD9459221
_publ_section_title
;
Structure prediction by ZEFSAII (Michael W. Deem and Ramdas Pophale) SiO2 
 PCOD9459221
Probable space group: P B C A
;
_chemical_formula_sum "Si O2"
_cell_formula_units_Z 48
_cell_length_a 8.212715
_cell_length_b 27.761015
_cell_length_c 8.074205
_cell_angle_alpha 90.000000
_cell_angle_beta 90.000000
_cell_angle_gamma 90.000000
_cell_volume 1840.864678
_symmetry_space_group_name_H-M "P B C A"
_symmetry_group_IT_number 61
_symmetry_cell_setting 'orthorhombic'
loop_
_space_group_symop_operation_xyz
x,y,z
1/2-x,-y,1/2+z
1/2+x,1/2-y,-z
-x,1/2+y,1/2-z
-x,-y,-z
1/2+x,y,1/2-z
1/2-x,1/2+y,z
x,1/2-y,1/2+z
loop_
_atom_site_type_symbol
_atom_site_label
_atom_site_fract_x
_atom_site_fract_y
_atom_site_fract_z
Si Si1 0.312870 0.221521 0.356792
Si Si2 0.044729 0.807144 0.515380
Si Si3 0.819454 0.948401 0.074999
Si Si4 0.526079 0.868660 0.549690
Si Si5 0.911332 0.994755 0.745862
Si Si6 0.602257 0.100810 0.087317
O O1 0.333875 0.201450 0.170905
O O2 0.131714 0.213587 0.426134
O O3 0.377469 0.275587 0.370775
O O4 0.435755 0.187667 0.463629
O O5 0.008365 0.863109 0.479247
O O6 0.660307 0.955300 0.181510
O O7 0.806819 0.966653 0.886219
O O8 0.927040 0.990215 0.160344
O O9 0.907874 0.897228 0.072599
O O10 0.707213 0.891766 0.550950
O O11 0.446350 0.878995 0.729831
O O12 0.928579 0.955805 0.600258
#
# Coordination Sequence:
#
# PCOD9459221 Si02
#       6
#     8   8   8   8   8   8
#     4  10  20  37  59  83 113 148 189 235 287 337
#     4  10  20  35  57  84 113 146 188 234 281 340
#     4  10  21  36  55  80 113 144 185 228 273 329
#     4   9  19  36  56  81 111 146 186 232 276 332
#     4  10  19  35  57  82 109 145 183 228 274 326
#     4   9  17  32  56  80 107 143 183 219 271 333
#
# _framework density 26.074705000000002
#
# number of rings (size 3 to 8) (size 9 to 14) (size 15 to 20)
#    0.000    2.333    0.000    4.000    0.000    2.000 
#    0.000   10.000    0.000    0.000    0.000    0.000 
#    0.000    0.000    0.000    0.000    0.000    0.000 
#
# Total GULP energy -268434.137083 kJ/mol
# GULP energy per Si atom -5592.377856 kJ/mol
# Density = 2.601536 g / cm^3
# Si number density = 26.074705 Si / 1000 Ang^3
#
#
#
# Elastic Constant Matrix: (Units=GPa)
#
#
# Indices 1 2 3 4 5 6 
#
# 1 77.1959 10.8055 14.4081 0.0000 0.0000 0.0000
# 2 10.8055 109.6371 11.0238 0.0000 0.0000 0.0000
# 3 14.4081 11.0238 31.8710 0.0000 0.0000 0.0000
# 4 0.0000 0.0000 0.0000 38.1194 0.0000 0.0000
# 5 0.0000 0.0000 0.0000 0.0000 12.7310 0.0000
# 6 0.0000 0.0000 0.0000 0.0000 0.0000 38.9379
#
#
#
# Elastic Compliance Matrix: (Units=1/GPa)
#
#
# Indices 1 2 3 4 5 6 
#
# 1 0.014212 -0.000782 -0.006155 0.000000 0.000000 0.000000
# 2 -0.000782 0.009493 -0.002930 0.000000 0.000000 0.000000
# 3 -0.006155 -0.002930 0.035172 0.000000 0.000000 0.000000
# 4 0.000000 0.000000 0.000000 0.026233 0.000000 0.000000
# 5 0.000000 0.000000 0.000000 0.000000 0.078549 0.000000
# 6 0.000000 0.000000 0.000000 0.000000 0.000000 0.025682
#
#
# Mechanical properties :
#
#
# Convention : Reuss Voigt Hill
#
# Bulk Modulus (GPa) = 25.54644 32.35321 28.94983
# Shear Modulus (GPa) = 22.51015 30.12209 26.31612
#
# Velocity S-wave (km/s) = 2.94138 3.40254 3.18033
# Velocity P-wave (km/s) = 4.62107 5.27932 4.96112
#
# Compressibility (1/GPa) = 0.03914439
#
# Stress axis : x y z
#
# Youngs Moduli (GPa) = 70.36203 105.34460 28.43148
#
# Poissons Ratio (x) = 0.08237 0.17498
# Poissons Ratio (y) = 0.05502 0.08330
# Poissons Ratio (z) = 0.43305 0.30865
#
# Static dielectric constant tensor:
#      x y z
#    x 2.077510 0.000000 0.000000 
#    y 0.000000 2.055760 0.000000 
#    z 0.000000 0.000000 2.076290 
# 
# From -- ./inp_files/1862.got.cif
#   From: 2010.05.17/outbox.cif.g08.bks.cpg/sg61_1_cif.got.tgz:1862.got - 2010.06.03 15:17:17.
