data_PCOD9459191
_publ_section_title
;
Structure prediction by ZEFSAII (Michael W. Deem and Ramdas Pophale) SiO2 
 PCOD9459191
Probable space group: P B C A
;
_chemical_formula_sum "Si O2"
_cell_formula_units_Z 64
_cell_length_a 8.138572
_cell_length_b 22.001839
_cell_length_c 16.623123
_cell_angle_alpha 90.000000
_cell_angle_beta 90.000000
_cell_angle_gamma 90.000000
_cell_volume 2976.595430
_symmetry_space_group_name_H-M "P B C A"
_symmetry_group_IT_number 61
_symmetry_cell_setting 'orthorhombic'
loop_
_space_group_symop_operation_xyz
x,y,z
1/2-x,-y,1/2+z
1/2+x,1/2-y,-z
-x,1/2+y,1/2-z
-x,-y,-z
1/2+x,y,1/2-z
1/2-x,1/2+y,z
x,1/2-y,1/2+z
loop_
_atom_site_type_symbol
_atom_site_label
_atom_site_fract_x
_atom_site_fract_y
_atom_site_fract_z
Si Si1 0.391760 0.194112 0.366988
Si Si2 0.455494 0.595531 0.030667
Si Si3 0.391969 0.655492 0.703238
Si Si4 0.037552 0.281664 0.789790
Si Si5 0.848118 0.318794 0.943970
Si Si6 0.036484 0.475664 0.369611
Si Si7 0.657456 0.935373 0.210643
Si Si8 0.626400 0.209892 0.948291
O O1 0.411596 0.144103 0.436350
O O2 0.502501 0.177231 0.288750
O O3 0.483719 0.253340 0.400530
O O4 0.212213 0.206702 0.331965
O O5 0.277583 0.625920 0.047340
O O6 0.478755 0.535687 0.084288
O O7 0.473293 0.577451 0.937185
O O8 0.461005 0.712384 0.755283
O O9 0.282611 0.616635 0.762056
O O10 0.520490 0.605977 0.668458
O O11 0.289987 0.675206 0.624967
O O12 0.896488 0.297765 0.854074
O O13 0.746266 0.261551 0.980691
O O14 0.022180 0.327323 0.987817
O O15 0.925946 0.464268 0.290128
O O16 0.227656 0.479512 0.341217
#
# Coordination Sequence:
#
# PCOD9459191 Si02
#       8
#     8   8   8   8   8   8   8   8
#     4  10  21  36  57  85 120 164 202 246 308 372
#     4  10  23  43  62  85 123 161 201 261 314 358
#     4  10  19  34  55  82 117 148 188 248 298 353
#     4  11  21  36  56  89 127 161 203 245 304 385
#     4  11  22  35  57  85 121 163 199 245 307 375
#     4  10  23  43  63  87 116 155 212 264 307 353
#     4  10  21  36  63  87 108 153 201 245 299 351
#     4  10  20  33  51  82 116 152 196 238 303 378
#
# _framework density 21.501075
#
# number of rings (size 3 to 8) (size 9 to 14) (size 15 to 20)
#    0.000    1.750    0.000    6.000    0.000   10.000 
#    0.000    1.250    0.000    8.250    0.000    0.000 
#    0.000    0.000    0.000    0.000    0.000    0.000 
#
# Total GULP energy -356822.764780 kJ/mol
# GULP energy per Si atom -5575.355700 kJ/mol
# Density = 2.145214 g / cm^3
# Si number density = 21.501075 Si / 1000 Ang^3
#
#
#
# Elastic Constant Matrix: (Units=GPa)
#
#
# Indices 1 2 3 4 5 6 
#
# 1 61.2890 -8.5049 10.1404 0.0000 0.0000 0.0000
# 2 -8.5049 30.3847 1.7215 0.0000 0.0000 0.0000
# 3 10.1404 1.7215 78.7768 0.0000 0.0000 0.0000
# 4 0.0000 0.0000 0.0000 15.8932 0.0000 0.0000
# 5 0.0000 0.0000 0.0000 0.0000 36.0324 0.0000
# 6 0.0000 0.0000 0.0000 0.0000 0.0000 16.8653
#
#
#
# Elastic Compliance Matrix: (Units=1/GPa)
#
#
# Indices 1 2 3 4 5 6 
#
# 1 0.017399 0.005003 -0.002349 0.000000 0.000000 0.000000
# 2 0.005003 0.034391 -0.001396 0.000000 0.000000 0.000000
# 3 -0.002349 -0.001396 0.013027 0.000000 0.000000 0.000000
# 4 0.000000 0.000000 0.000000 0.062920 0.000000 0.000000
# 5 0.000000 0.000000 0.000000 0.000000 0.027753 0.000000
# 6 0.000000 0.000000 0.000000 0.000000 0.000000 0.059293
#
#
# Mechanical properties :
#
#
# Convention : Reuss Voigt Hill
#
# Bulk Modulus (GPa) = 14.85129 19.68493 17.26811
# Shear Modulus (GPa) = 21.30283 24.89774 23.10029
#
# Velocity S-wave (km/s) = 3.15108 3.40660 3.28133
# Velocity P-wave (km/s) = 4.49013 4.96472 4.73338
#
# Compressibility (1/GPa) = 0.06733422
#
# Stress axis : x y z
#
# Youngs Moduli (GPa) = 57.47433 29.07750 76.76388
#
# Poissons Ratio (x) = -0.14548 0.18032
# Poissons Ratio (y) = -0.28756 0.10713
# Poissons Ratio (z) = 0.13501 0.04058
#
# Static dielectric constant tensor:
#      x y z
#    x 1.841660 0.000000 0.000000 
#    y 0.000000 1.803170 0.000000 
#    z 0.000000 0.000000 1.860800 
# 
# From -- ./inp_files/9062.got.cif
#   From: 2010.05.17/outbox.cif.g08.bks.cpg/sg61_5_cif.got.tgz:9062.got - 2010.06.03 15:17:17.
