data_PCOD9459497
_publ_section_title
;
Structure prediction by ZEFSAII (Michael W. Deem and Ramdas Pophale) SiO2 
 PCOD9459497
Probable space group: P B C A
;
_chemical_formula_sum "Si O2"
_cell_formula_units_Z 64
_cell_length_a 16.962283
_cell_length_b 9.453910
_cell_length_c 20.021535
_cell_angle_alpha 90.000000
_cell_angle_beta 90.000000
_cell_angle_gamma 90.000000
_cell_volume 3210.651288
_symmetry_space_group_name_H-M "P B C A"
_symmetry_group_IT_number 61
_symmetry_cell_setting 'orthorhombic'
loop_
_space_group_symop_operation_xyz
x,y,z
1/2-x,-y,1/2+z
1/2+x,1/2-y,-z
-x,1/2+y,1/2-z
-x,-y,-z
1/2+x,y,1/2-z
1/2-x,1/2+y,z
x,1/2-y,1/2+z
loop_
_atom_site_type_symbol
_atom_site_label
_atom_site_fract_x
_atom_site_fract_y
_atom_site_fract_z
Si Si1 0.566299 0.128507 0.853491
Si Si2 0.708670 0.609796 0.642188
Si Si3 0.789499 0.128028 0.053516
Si Si4 0.852283 0.044722 0.920328
Si Si5 0.996155 0.565432 0.340495
Si Si6 0.438619 0.565247 0.313067
Si Si7 0.714303 0.233786 0.925396
Si Si8 0.375170 0.867541 0.299271
O O1 0.514439 0.271509 0.861242
O O2 0.639968 0.141463 0.902293
O O3 0.602082 0.128435 0.778583
O O4 0.509845 0.993821 0.857787
O O5 0.685034 0.754833 0.606331
O O6 0.743814 0.499413 0.588348
O O7 0.635452 0.537096 0.677605
O O8 0.782032 0.636128 0.691201
O O9 0.854325 0.072635 0.000316
O O10 0.728839 0.209107 0.003709
O O11 0.795060 0.170271 0.894099
O O12 0.935959 0.026255 0.885410
O O13 0.806046 0.895865 0.909802
O O14 0.965315 0.558663 0.264023
O O15 0.082488 0.497290 0.337058
O O16 0.412157 0.723714 0.328254
#
# Coordination Sequence:
#
# PCOD9459497 Si02
#       8
#     8   8   8   8   8   8   8   8
#     4   9  20  39  59  85 112 144 185 231 285 325
#     4  12  22  37  58  81 113 153 185 223 285 328
#     4  10  20  37  56  79 115 147 190 232 264 331
#     4   9  18  35  59  80 109 145 184 232 271 322
#     4   9  20  39  59  85 111 143 188 230 281 329
#     4  10  22  38  57  84 117 144 183 232 277 341
#     4   9  18  35  59  80 110 144 184 233 269 322
#     4  10  22  38  57  84 118 144 182 234 276 339
#
# _framework density 19.93365
#
# number of rings (size 3 to 8) (size 9 to 14) (size 15 to 20)
#    0.750    1.500    2.500    0.000    3.500    1.000 
#    0.000    2.500    0.000    0.000    0.000    0.000 
#    0.000    0.000    0.000    0.000    0.000    0.000 
#
# Total GULP energy -356831.257970 kJ/mol
# GULP energy per Si atom -5575.488406 kJ/mol
# Density = 1.988828 g / cm^3
# Si number density = 19.933650 Si / 1000 Ang^3
#
#
#
# Elastic Constant Matrix: (Units=GPa)
#
#
# Indices 1 2 3 4 5 6 
#
# 1 39.5644 -4.2734 8.1880 0.0000 0.0000 0.0000
# 2 -4.2734 44.1359 9.0205 0.0000 0.0000 0.0000
# 3 8.1880 9.0205 -0.7677 0.0000 0.0000 0.0000
# 4 0.0000 0.0000 0.0000 24.3891 0.0000 0.0000
# 5 0.0000 0.0000 0.0000 0.0000 6.7668 0.0000
# 6 0.0000 0.0000 0.0000 0.0000 0.0000 58.1859
#
#
#
# Elastic Compliance Matrix: (Units=1/GPa)
#
#
# Indices 1 2 3 4 5 6 
#
# 1 0.014166 -0.008675 0.049155 0.000000 0.000000 0.000000
# 2 -0.008675 0.011973 0.048165 0.000000 0.000000 0.000000
# 3 0.049155 0.048165 -0.212377 0.000000 0.000000 0.000000
# 4 0.000000 0.000000 0.000000 0.041002 0.000000 0.000000
# 5 0.000000 0.000000 0.000000 0.000000 0.147781 0.000000
# 6 0.000000 0.000000 0.000000 0.000000 0.000000 0.017186
#
#
# Mechanical properties :
#
#
# Convention : Reuss Voigt Hill
#
# Bulk Modulus (GPa) = -111.75179 12.08920 -49.83129
# Shear Modulus (GPa) = -31.14450 22.53485 -4.30482
#
# Velocity S-wave (km/s) = -3.95702 3.36593 -1.47114
# Velocity P-wave (km/s) = 8.77843 4.60259 5.28569
#
# Compressibility (1/GPa) = -0.00894840
#
# Stress axis : x y z
#
# Youngs Moduli (GPa) = 70.59365 83.51855 -4.70860
#
# Poissons Ratio (x) = 0.72450 0.23145
# Poissons Ratio (y) = 0.61238 0.22679
# Poissons Ratio (z) = -3.47000 -4.02267
#
# Static dielectric constant tensor:
#      x y z
#    x 1.691980 0.000000 0.000000 
#    y 0.000000 1.716710 0.000000 
#    z 0.000000 0.000000 1.691590 
# 
# From -- ./inp_files/11129.got.cif
#   From: 2010.05.17/outbox.cif.g08.bks.cpg/sg61_6_cif.got.tgz:11129.got - 2010.06.03 15:17:17.
