data_PCOD9459484
_publ_section_title
;
Structure prediction by ZEFSAII (Michael W. Deem and Ramdas Pophale) SiO2 
 PCOD9459484
Probable space group: P B C A
;
_chemical_formula_sum "Si O2"
_cell_formula_units_Z 64
_cell_length_a 8.245568
_cell_length_b 12.248895
_cell_length_c 30.580648
_cell_angle_alpha 90.000000
_cell_angle_beta 90.000000
_cell_angle_gamma 90.000000
_cell_volume 3088.617823
_symmetry_space_group_name_H-M "P B C A"
_symmetry_group_IT_number 61
_symmetry_cell_setting 'orthorhombic'
loop_
_space_group_symop_operation_xyz
x,y,z
1/2-x,-y,1/2+z
1/2+x,1/2-y,-z
-x,1/2+y,1/2-z
-x,-y,-z
1/2+x,y,1/2-z
1/2-x,1/2+y,z
x,1/2-y,1/2+z
loop_
_atom_site_type_symbol
_atom_site_label
_atom_site_fract_x
_atom_site_fract_y
_atom_site_fract_z
Si Si1 0.576409 0.736536 0.202910
Si Si2 0.657947 0.354125 0.036381
Si Si3 0.590473 0.733776 0.605415
Si Si4 0.477619 0.523206 0.091655
Si Si5 0.285061 0.865835 0.237340
Si Si6 0.008494 0.488577 0.307412
Si Si7 0.526828 0.854159 0.981575
Si Si8 0.386288 0.544624 0.567979
O O1 0.649003 0.752024 0.154847
O O2 0.437629 0.826684 0.209656
O O3 0.702212 0.759430 0.241346
O O4 0.503598 0.616177 0.204170
O O5 0.590144 0.466165 0.055487
O O6 0.513997 0.271713 0.024776
O O7 0.762194 0.292471 0.073436
O O8 0.788115 0.368607 0.997909
O O9 0.469645 0.631061 0.600180
O O10 0.501465 0.846258 0.591831
O O11 0.526633 0.481618 0.140253
O O12 0.294199 0.485198 0.082221
O O13 0.154846 0.929552 0.208545
O O14 0.347989 0.936055 0.278626
O O15 0.513963 0.931686 0.939276
O O16 0.409776 0.898526 0.020172
#
# Coordination Sequence:
#
# PCOD9459484 Si02
#       8
#     8   8   8   8   8   8   8   8
#     4  10  20  38  59  87 121 155 197 245 293 353
#     4  11  24  41  63  88 120 158 205 249 307 357
#     4  10  24  40  61  89 125 159 200 250 305 359
#     4  11  24  39  64  87 125 160 198 249 306 357
#     4  10  20  36  63  85 120 157 194 246 290 349
#     4  10  21  38  59  91 116 156 200 237 295 357
#     4  10  24  42  64  88 120 157 208 253 301 361
#     4  10  23  42  60  88 121 156 203 246 301 358
#
# _framework density 20.721242
#
# number of rings (size 3 to 8) (size 9 to 14) (size 15 to 20)
#    0.000    1.750    0.000    3.000   10.500    0.500 
#    0.000    0.000    5.500    0.000    0.000    0.000 
#    0.000    0.000    0.000    0.000    0.000    0.000 
#
# Total GULP energy -357549.073555 kJ/mol
# GULP energy per Si atom -5586.704274 kJ/mol
# Density = 2.067408 g / cm^3
# Si number density = 20.721242 Si / 1000 Ang^3
#
#
#
# Elastic Constant Matrix: (Units=GPa)
#
#
# Indices 1 2 3 4 5 6 
#
# 1 29.6125 -8.9059 0.5592 0.0000 0.0000 0.0000
# 2 -8.9059 74.0371 19.6461 0.0000 0.0000 0.0000
# 3 0.5592 19.6461 49.7343 0.0000 0.0000 0.0000
# 4 0.0000 0.0000 0.0000 31.9355 0.0000 0.0000
# 5 0.0000 0.0000 0.0000 0.0000 26.2260 0.0000
# 6 0.0000 0.0000 0.0000 0.0000 0.0000 25.6367
#
#
#
# Elastic Compliance Matrix: (Units=1/GPa)
#
#
# Indices 1 2 3 4 5 6 
#
# 1 0.035274 0.004858 -0.002315 0.000000 0.000000 0.000000
# 2 0.004858 0.015757 -0.006279 0.000000 0.000000 0.000000
# 3 -0.002315 -0.006279 0.022613 0.000000 0.000000 0.000000
# 4 0.000000 0.000000 0.000000 0.031313 0.000000 0.000000
# 5 0.000000 0.000000 0.000000 0.000000 0.038130 0.000000
# 6 0.000000 0.000000 0.000000 0.000000 0.000000 0.039007
#
#
# Mechanical properties :
#
#
# Convention : Reuss Voigt Hill
#
# Bulk Modulus (GPa) = 15.11242 19.55364 17.33303
# Shear Modulus (GPa) = 23.62665 26.23193 24.92929
#
# Velocity S-wave (km/s) = 3.38037 3.56187 3.47231
# Velocity P-wave (km/s) = 4.74815 5.13546 4.94559
#
# Compressibility (1/GPa) = 0.06617072
#
# Stress axis : x y z
#
# Youngs Moduli (GPa) = 28.34933 63.46294 44.22182
#
# Poissons Ratio (x) = -0.30827 0.10239
# Poissons Ratio (y) = -0.13771 0.27767
# Poissons Ratio (z) = 0.06564 0.39849
#
# Static dielectric constant tensor:
#      x y z
#    x 1.729870 0.000000 0.000000 
#    y 0.000000 1.741630 0.000000 
#    z 0.000000 0.000000 1.743670 
# 
# From -- ./inp_files/11742.got.cif
#   From: 2010.05.17/outbox.cif.g08.bks.cpg/sg61_6_cif.got.tgz:11742.got - 2010.06.03 15:17:17.
