data_PCOD9459116
_publ_section_title
;
Structure prediction by ZEFSAII (Michael W. Deem and Ramdas Pophale) SiO2 
 PCOD9459116
Probable space group: P B C A
;
_chemical_formula_sum "Si O2"
_cell_formula_units_Z 48
_cell_length_a 20.015890
_cell_length_b 14.945728
_cell_length_c 7.563340
_cell_angle_alpha 90.000000
_cell_angle_beta 90.000000
_cell_angle_gamma 90.000000
_cell_volume 2262.588648
_symmetry_space_group_name_H-M "P B C A"
_symmetry_group_IT_number 61
_symmetry_cell_setting 'orthorhombic'
loop_
_space_group_symop_operation_xyz
x,y,z
1/2-x,-y,1/2+z
1/2+x,1/2-y,-z
-x,1/2+y,1/2-z
-x,-y,-z
1/2+x,y,1/2-z
1/2-x,1/2+y,z
x,1/2-y,1/2+z
loop_
_atom_site_type_symbol
_atom_site_label
_atom_site_fract_x
_atom_site_fract_y
_atom_site_fract_z
Si Si1 0.881099 0.680715 0.106706
Si Si2 0.828520 0.271741 0.405670
Si Si3 0.376158 0.556199 0.735413
Si Si4 0.403838 0.357733 0.789158
Si Si5 0.766294 0.833017 0.116073
Si Si6 0.953150 0.845917 0.965756
O O1 0.819122 0.749867 0.130340
O O2 0.902742 0.642428 0.297230
O O3 0.869700 0.610248 0.948949
O O4 0.939996 0.745327 0.034729
O O5 0.896794 0.224679 0.345375
O O6 0.845652 0.331844 0.572620
O O7 0.776604 0.190951 0.444837
O O8 0.790856 0.330529 0.263468
O O9 0.388922 0.452772 0.703169
O O10 0.310325 0.579855 0.851048
O O11 0.434397 0.593121 0.865817
O O12 0.473784 0.361348 0.889579
#
# Coordination Sequence:
#
# PCOD9459116 Si02
#       6
#     8   8   8   8   8   8
#     4  11  20  38  72  92 121 168 209 269 306 372
#     4  10  22  40  63  81 131 170 194 259 320 385
#     4  11  23  40  67  96 121 161 220 270 301 376
#     4  11  25  42  58  95 128 167 207 256 330 383
#     4  10  18  40  63  91 116 160 217 246 314 368
#     4  11  21  40  63  95 127 164 207 258 323 381
#
# _framework density 21.214638000000001
#
# number of rings (size 3 to 8) (size 9 to 14) (size 15 to 20)
#    0.000    1.333    5.000    2.500    0.000    2.000 
#    6.000    0.000    0.000    0.000    0.000    0.000 
#    0.000    0.000    0.000    0.000    0.000    0.000 
#
# Total GULP energy -267702.260590 kJ/mol
# GULP energy per Si atom -5577.130429 kJ/mol
# Density = 2.116635 g / cm^3
# Si number density = 21.214638 Si / 1000 Ang^3
#
#
#
# Elastic Constant Matrix: (Units=GPa)
#
#
# Indices 1 2 3 4 5 6 
#
# 1 58.4291 -1.8624 -2.9533 0.0000 0.0000 0.0000
# 2 -1.8624 56.0092 5.0088 0.0000 0.0000 0.0000
# 3 -2.9533 5.0088 77.5934 0.0000 0.0000 0.0000
# 4 0.0000 0.0000 0.0000 18.7963 0.0000 0.0000
# 5 0.0000 0.0000 0.0000 0.0000 21.9992 0.0000
# 6 0.0000 0.0000 0.0000 0.0000 0.0000 8.2157
#
#
#
# Elastic Compliance Matrix: (Units=1/GPa)
#
#
# Indices 1 2 3 4 5 6 
#
# 1 0.017163 0.000515 0.000620 0.000000 0.000000 0.000000
# 2 0.000515 0.017973 -0.001141 0.000000 0.000000 0.000000
# 3 0.000620 -0.001141 0.012985 0.000000 0.000000 0.000000
# 4 0.000000 0.000000 0.000000 0.053202 0.000000 0.000000
# 5 0.000000 0.000000 0.000000 0.000000 0.045456 0.000000
# 6 0.000000 0.000000 0.000000 0.000000 0.000000 0.121718
#
#
# Mechanical properties :
#
#
# Convention : Reuss Voigt Hill
#
# Bulk Modulus (GPa) = 20.78570 21.37976 21.08273
# Shear Modulus (GPa) = 17.57196 22.59148 20.08172
#
# Velocity S-wave (km/s) = 2.88113 3.26682 3.08002
# Velocity P-wave (km/s) = 4.57023 4.93247 4.75480
#
# Compressibility (1/GPa) = 0.04811000
#
# Stress axis : x y z
#
# Youngs Moduli (GPa) = 58.26655 55.63791 77.01244
#
# Poissons Ratio (x) = -0.02867 -0.04775
# Poissons Ratio (y) = -0.03002 0.08784
# Poissons Ratio (z) = -0.03612 0.06346
#
# Static dielectric constant tensor:
#      x y z
#    x 1.796630 0.000000 0.000000 
#    y 0.000000 1.750060 0.000000 
#    z 0.000000 0.000000 1.815270 
# 
# From -- ./inp_files/3856.got.cif
#   From: 2010.05.17/outbox.cif.g08.bks.cpg/sg61_2_cif.got.tgz:3856.got - 2010.06.03 15:17:17.
