data_PCOD9459463
_publ_section_title
;
Structure prediction by ZEFSAII (Michael W. Deem and Ramdas Pophale) SiO2 
 PCOD9459463
Probable space group: P B C A
;
_chemical_formula_sum "Si O2"
_cell_formula_units_Z 48
_cell_length_a 8.894873
_cell_length_b 22.218813
_cell_length_c 8.949189
_cell_angle_alpha 90.000000
_cell_angle_beta 90.000000
_cell_angle_gamma 90.000000
_cell_volume 1768.659722
_symmetry_space_group_name_H-M "P B C A"
_symmetry_group_IT_number 61
_symmetry_cell_setting 'orthorhombic'
loop_
_space_group_symop_operation_xyz
x,y,z
1/2-x,-y,1/2+z
1/2+x,1/2-y,-z
-x,1/2+y,1/2-z
-x,-y,-z
1/2+x,y,1/2-z
1/2-x,1/2+y,z
x,1/2-y,1/2+z
loop_
_atom_site_type_symbol
_atom_site_label
_atom_site_fract_x
_atom_site_fract_y
_atom_site_fract_z
Si Si1 0.184475 0.422402 0.828668
Si Si2 0.407592 0.331740 0.988120
Si Si3 0.471469 0.096218 0.744935
Si Si4 0.791871 0.517684 0.868410
Si Si5 0.462031 0.166156 0.059264
Si Si6 0.167982 0.242179 0.065380
O O1 0.222498 0.454389 0.675269
O O2 0.309136 0.375757 0.887757
O O3 0.187449 0.474048 0.956298
O O4 0.028575 0.387491 0.841614
O O5 0.520904 0.365506 0.100605
O O6 0.288928 0.295985 0.096122
O O7 0.509454 0.288166 0.884456
O O8 0.311004 0.072465 0.690497
O O9 0.557803 0.034481 0.780722
O O10 0.476662 0.138143 0.890633
O O11 0.582759 0.221747 0.070819
O O12 0.291729 0.189117 0.070163
#
# Coordination Sequence:
#
# PCOD9459463 Si02
#       6
#     8   8   8   8   8   8
#     4   9  20  38  59  86 118 155 197 239 288 346
#     4   9  18  33  58  85 111 146 192 239 290 347
#     4  10  20  36  60  82 108 156 198 230 284 364
#     4  10  21  36  59  86 114 154 196 240 287 336
#     4   9  18  33  58  85 111 146 192 239 290 347
#     4   9  17  32  56  82 110 143 185 245 295 338
#
# _framework density 27.139194
#
# number of rings (size 3 to 8) (size 9 to 14) (size 15 to 20)
#    0.000    2.667    0.000    2.000    0.000    5.333 
#    0.000    1.667    0.000   70.000    0.000    0.000 
#    0.000    0.000    0.000    0.000    0.000    0.000 
#
# Total GULP energy -267694.679577 kJ/mol
# GULP energy per Si atom -5576.972491 kJ/mol
# Density = 2.707742 g / cm^3
# Si number density = 27.139194 Si / 1000 Ang^3
#
#
#
# Elastic Constant Matrix: (Units=GPa)
#
#
# Indices 1 2 3 4 5 6 
#
# 1 134.3472 43.4390 15.9204 0.0000 0.0000 0.0000
# 2 43.4390 128.1074 36.6649 0.0000 0.0000 0.0000
# 3 15.9204 36.6649 62.3788 0.0000 0.0000 0.0000
# 4 0.0000 0.0000 0.0000 22.3877 0.0000 0.0000
# 5 0.0000 0.0000 0.0000 0.0000 26.6115 0.0000
# 6 0.0000 0.0000 0.0000 0.0000 0.0000 47.0443
#
#
#
# Elastic Compliance Matrix: (Units=1/GPa)
#
#
# Indices 1 2 3 4 5 6 
#
# 1 0.008376 -0.002679 -0.000563 0.000000 0.000000 0.000000
# 2 -0.002679 0.010242 -0.005336 0.000000 0.000000 0.000000
# 3 -0.000563 -0.005336 0.019311 0.000000 0.000000 0.000000
# 4 0.000000 0.000000 0.000000 0.044667 0.000000 0.000000
# 5 0.000000 0.000000 0.000000 0.000000 0.037578 0.000000
# 6 0.000000 0.000000 0.000000 0.000000 0.000000 0.021257
#
#
# Mechanical properties :
#
#
# Convention : Reuss Voigt Hill
#
# Bulk Modulus (GPa) = 48.14014 57.43133 52.78574
# Shear Modulus (GPa) = 30.20937 34.46264 32.33601
#
# Velocity S-wave (km/s) = 3.33998 3.56736 3.45554
# Velocity P-wave (km/s) = 5.71408 6.17865 5.95090
#
# Compressibility (1/GPa) = 0.02077269
#
# Stress axis : x y z
#
# Youngs Moduli (GPa) = 119.38332 97.64120 51.78351
#
# Poissons Ratio (x) = 0.26159 0.02916
# Poissons Ratio (y) = 0.31984 0.27632
# Poissons Ratio (z) = 0.06722 0.52101
#
# Static dielectric constant tensor:
#      x y z
#    x 2.091950 0.000000 0.000000 
#    y 0.000000 2.217960 0.000000 
#    z 0.000000 0.000000 2.153190 
# 
# From -- ./inp_files/4850.got.cif
#   From: 2010.05.17/outbox.cif.g08.bks.cpg/sg61_3_cif.got.tgz:4850.got - 2010.06.03 15:17:17.
