data_PCOD9459113
_publ_section_title
;
Structure prediction by ZEFSAII (Michael W. Deem and Ramdas Pophale) SiO2 
 PCOD9459113
Probable space group: P B C A
;
_chemical_formula_sum "Si O2"
_cell_formula_units_Z 64
_cell_length_a 13.053897
_cell_length_b 18.205627
_cell_length_c 13.391672
_cell_angle_alpha 90.000000
_cell_angle_beta 90.000000
_cell_angle_gamma 90.000000
_cell_volume 3182.589502
_symmetry_space_group_name_H-M "P B C A"
_symmetry_group_IT_number 61
_symmetry_cell_setting 'orthorhombic'
loop_
_space_group_symop_operation_xyz
x,y,z
1/2-x,-y,1/2+z
1/2+x,1/2-y,-z
-x,1/2+y,1/2-z
-x,-y,-z
1/2+x,y,1/2-z
1/2-x,1/2+y,z
x,1/2-y,1/2+z
loop_
_atom_site_type_symbol
_atom_site_label
_atom_site_fract_x
_atom_site_fract_y
_atom_site_fract_z
Si Si1 0.300676 0.787940 0.252250
Si Si2 0.902875 0.473536 0.115204
Si Si3 0.210018 0.031513 0.025990
Si Si4 0.626066 0.264636 0.448454
Si Si5 0.639195 0.907606 0.325565
Si Si6 0.797641 0.174385 0.368403
Si Si7 0.066337 0.143765 0.925158
Si Si8 0.998144 0.878421 0.548905
O O1 0.220700 0.848659 0.213798
O O2 0.241956 0.709608 0.236066
O O3 0.350994 0.814500 0.354268
O O4 0.388596 0.785516 0.167025
O O5 0.797699 0.484842 0.054835
O O6 0.887337 0.456377 0.229754
O O7 0.971158 0.545961 0.102966
O O8 0.953570 0.404993 0.056438
O O9 0.115911 0.069036 0.967177
O O10 0.252126 0.094724 0.102173
O O11 0.183093 0.959684 0.088057
O O12 0.741029 0.230936 0.445183
O O13 0.553202 0.198465 0.481866
O O14 0.600856 0.330989 0.521334
O O15 0.537121 0.869887 0.366653
O O16 0.917847 0.167493 0.389196
#
# Coordination Sequence:
#
# PCOD9459113 Si02
#       8
#     8   8   8   8   8   8   8   8
#     4  10  21  40  61  91 122 165 210 258 317 388
#     4  10  22  37  65  95 124 174 208 271 317 390
#     4  10  21  42  58  92 137 159 211 270 320 377
#     4   9  20  37  62  86 122 164 202 266 312 375
#     4  12  23  37  69  92 125 171 219 256 327 390
#     4   8  20  36  60  86 126 164 199 266 315 375
#     4  11  22  40  63  92 126 166 213 264 320 383
#     4  10  18  39  62  90 131 159 219 259 323 379
#
# _framework density 20.10941
#
# number of rings (size 3 to 8) (size 9 to 14) (size 15 to 20)
#    0.750    1.250    1.250    2.625    0.000    3.000 
#    0.000    0.000    2.750    0.000    0.000    0.000 
#    0.000    0.000    0.000    0.000    0.000    0.000 
#
# Total GULP energy -356676.227368 kJ/mol
# GULP energy per Si atom -5573.066053 kJ/mol
# Density = 2.006364 g / cm^3
# Si number density = 20.109410 Si / 1000 Ang^3
#
#
#
# Elastic Constant Matrix: (Units=GPa)
#
#
# Indices 1 2 3 4 5 6 
#
# 1 44.1233 12.8374 9.7816 0.0000 0.0000 0.0000
# 2 12.8374 23.0858 -10.6830 0.0000 0.0000 0.0000
# 3 9.7816 -10.6830 40.1776 0.0000 0.0000 0.0000
# 4 0.0000 0.0000 0.0000 20.0510 0.0000 0.0000
# 5 0.0000 0.0000 0.0000 0.0000 22.3951 0.0000
# 6 0.0000 0.0000 0.0000 0.0000 0.0000 21.4814
#
#
#
# Elastic Compliance Matrix: (Units=1/GPa)
#
#
# Indices 1 2 3 4 5 6 
#
# 1 0.033368 -0.025445 -0.014889 0.000000 0.000000 0.000000
# 2 -0.025445 0.068797 0.024488 0.000000 0.000000 0.000000
# 3 -0.014889 0.024488 0.035026 0.000000 0.000000 0.000000
# 4 0.000000 0.000000 0.000000 0.049873 0.000000 0.000000
# 5 0.000000 0.000000 0.000000 0.000000 0.044653 0.000000
# 6 0.000000 0.000000 0.000000 0.000000 0.000000 0.046552
#
#
# Mechanical properties :
#
#
# Convention : Reuss Voigt Hill
#
# Bulk Modulus (GPa) = 9.47886 14.58429 12.03158
# Shear Modulus (GPa) = 14.48743 19.14888 16.81815
#
# Velocity S-wave (km/s) = 2.68700 3.08918 2.89508
# Velocity P-wave (km/s) = 3.78820 4.47127 4.14383
#
# Compressibility (1/GPa) = 0.10549789
#
# Stress axis : x y z
#
# Youngs Moduli (GPa) = 29.96926 14.53542 28.55052
#
# Poissons Ratio (x) = 0.36985 0.42510
# Poissons Ratio (y) = 0.76256 -0.69914
# Poissons Ratio (z) = 0.44622 -0.35594
#
# Static dielectric constant tensor:
#      x y z
#    x 1.717030 0.000000 0.000000 
#    y 0.000000 1.731480 0.000000 
#    z 0.000000 0.000000 1.735630 
# 
# From -- ./inp_files/5976.got.cif
#   From: 2010.05.17/outbox.cif.g08.bks.cpg/sg61_3_cif.got.tgz:5976.got - 2010.06.03 15:17:17.
