data_PCOD9459967
_publ_section_title
;
Structure prediction by ZEFSAII (Michael W. Deem and Ramdas Pophale) SiO2 
 PCOD9459967
Probable space group: P B C A
;
_chemical_formula_sum "Si O2"
_cell_formula_units_Z 56
_cell_length_a 20.484971
_cell_length_b 10.658566
_cell_length_c 11.460943
_cell_angle_alpha 90.000000
_cell_angle_beta 90.000000
_cell_angle_gamma 90.000000
_cell_volume 2502.387056
_symmetry_space_group_name_H-M "P B C A"
_symmetry_group_IT_number 61
_symmetry_cell_setting 'orthorhombic'
loop_
_space_group_symop_operation_xyz
x,y,z
1/2-x,-y,1/2+z
1/2+x,1/2-y,-z
-x,1/2+y,1/2-z
-x,-y,-z
1/2+x,y,1/2-z
1/2-x,1/2+y,z
x,1/2-y,1/2+z
loop_
_atom_site_type_symbol
_atom_site_label
_atom_site_fract_x
_atom_site_fract_y
_atom_site_fract_z
Si Si1 0.059803 0.110677 0.925205
Si Si2 0.204140 0.807888 0.976636
Si Si3 0.126757 0.902119 0.762184
Si Si4 0.067070 0.561419 0.886306
Si Si5 0.693929 0.976115 0.967462
Si Si6 0.092417 0.553688 0.617245
Si Si7 0.985302 0.327196 0.902213
O O1 0.054195 0.254452 0.886246
O O2 0.980447 0.096170 0.921854
O O3 0.091432 0.010593 0.838079
O O4 0.092856 0.080801 0.049745
O O5 0.170832 0.820865 0.849770
O O6 0.221522 0.663032 0.000479
O O7 0.148363 0.859697 0.064028
O O8 0.261210 0.908574 0.995673
O O9 0.174051 0.966992 0.667939
O O10 0.072301 0.819149 0.693948
O O11 0.093063 0.559255 0.755248
O O12 0.005095 0.471485 0.882935
O O13 0.125910 0.513418 0.965126
O O14 0.041230 0.679453 0.963527
#
# Coordination Sequence:
#
# PCOD9459967 Si02
#       7
#     8   8   8   8   8   8   8
#     4  10  21  39  66 101 136 177 222 276 347 420
#     4  11  27  46  71  96 134 182 240 281 345 400
#     4  10  23  45  67 102 140 175 227 284 344 420
#     4  10  22  40  65  98 135 174 222 276 350 411
#     4  11  27  46  70  98 132 188 233 287 340 405
#     4  10  21  40  64  98 132 175 222 276 343 412
#     4  10  21  40  67 101 138 180 216 279 349 419
#
# _framework density 22.378630999999999
#
# number of rings (size 3 to 8) (size 9 to 14) (size 15 to 20)
#    0.000    1.714    1.429    1.714    6.000    3.429 
#    2.571    0.000    0.000    0.000    0.000    0.000 
#    0.000    0.000    0.000    0.000    0.000    0.000 
#
# Total GULP energy -312244.851575 kJ/mol
# GULP energy per Si atom -5575.800921 kJ/mol
# Density = 2.232770 g / cm^3
# Si number density = 22.378631 Si / 1000 Ang^3
#
#
#
# Elastic Constant Matrix: (Units=GPa)
#
#
# Indices 1 2 3 4 5 6 
#
# 1 63.8722 45.2094 16.9842 0.0000 0.0000 0.0000
# 2 45.2094 76.7730 20.4154 0.0000 0.0000 0.0000
# 3 16.9842 20.4154 145.4023 0.0000 0.0000 0.0000
# 4 0.0000 0.0000 0.0000 19.8302 0.0000 0.0000
# 5 0.0000 0.0000 0.0000 0.0000 30.3293 0.0000
# 6 0.0000 0.0000 0.0000 0.0000 0.0000 35.6881
#
#
#
# Elastic Compliance Matrix: (Units=1/GPa)
#
#
# Indices 1 2 3 4 5 6 
#
# 1 0.026973 -0.015629 -0.000956 0.000000 0.000000 0.000000
# 2 -0.015629 0.022587 -0.001346 0.000000 0.000000 0.000000
# 3 -0.000956 -0.001346 0.007178 0.000000 0.000000 0.000000
# 4 0.000000 0.000000 0.000000 0.050428 0.000000 0.000000
# 5 0.000000 0.000000 0.000000 0.000000 0.032971 0.000000
# 6 0.000000 0.000000 0.000000 0.000000 0.000000 0.028021
#
#
# Mechanical properties :
#
#
# Convention : Reuss Voigt Hill
#
# Bulk Modulus (GPa) = 47.90291 50.14058 49.02175
# Shear Modulus (GPa) = 23.69896 30.73210 27.21553
#
# Velocity S-wave (km/s) = 3.25776 3.70980 3.49110
# Velocity P-wave (km/s) = 5.96681 6.38783 6.18090
#
# Compressibility (1/GPa) = 0.02087556
#
# Stress axis : x y z
#
# Youngs Moduli (GPa) = 37.07377 44.27324 139.31241
#
# Poissons Ratio (x) = 0.69197 0.13321
# Poissons Ratio (y) = 0.57944 0.18747
# Poissons Ratio (z) = 0.03545 0.05958
#
# Static dielectric constant tensor:
#      x y z
#    x 1.802450 0.000000 0.000000 
#    y 0.000000 3.691140 0.000000 
#    z 0.000000 0.000000 1.895050 
# 
# From -- ./inp_files/6435.got.cif
#   From: 2010.05.17/outbox.cif.g08.bks.cpg/sg61_4_cif.got.tgz:6435.got - 2010.06.03 15:17:17.
