data_PCOD9459328
_publ_section_title
;
Structure prediction by ZEFSAII (Michael W. Deem and Ramdas Pophale) SiO2 
 PCOD9459328
Probable space group: P B C A
;
_chemical_formula_sum "Si O2"
_cell_formula_units_Z 64
_cell_length_a 17.448911
_cell_length_b 8.369576
_cell_length_c 19.702530
_cell_angle_alpha 90.000000
_cell_angle_beta 90.000000
_cell_angle_gamma 90.000000
_cell_volume 2877.357220
_symmetry_space_group_name_H-M "P B C A"
_symmetry_group_IT_number 61
_symmetry_cell_setting 'orthorhombic'
loop_
_space_group_symop_operation_xyz
x,y,z
1/2-x,-y,1/2+z
1/2+x,1/2-y,-z
-x,1/2+y,1/2-z
-x,-y,-z
1/2+x,y,1/2-z
1/2-x,1/2+y,z
x,1/2-y,1/2+z
loop_
_atom_site_type_symbol
_atom_site_label
_atom_site_fract_x
_atom_site_fract_y
_atom_site_fract_z
Si Si1 0.803811 0.669200 0.337784
Si Si2 0.105153 0.879285 0.341406
Si Si3 0.783429 0.115296 0.202245
Si Si4 0.665380 0.186288 0.617617
Si Si5 0.201701 0.877756 0.476861
Si Si6 0.550735 0.115595 0.809774
Si Si7 0.526860 0.310187 0.679228
Si Si8 0.213659 0.899078 0.067261
O O1 0.759964 0.596119 0.272949
O O2 0.870935 0.792215 0.319786
O O3 0.830599 0.533589 0.390668
O O4 0.742207 0.773328 0.377813
O O5 0.154338 0.756516 0.298034
O O6 0.148884 0.907550 0.411953
O O7 0.018988 0.818624 0.356109
O O8 0.084975 0.042715 0.301441
O O9 0.720722 0.176654 0.148111
O O10 0.822538 0.958183 0.171437
O O11 0.709853 0.140517 0.549361
O O12 0.576369 0.237032 0.616936
O O13 0.175448 0.711703 0.510335
O O14 0.212078 0.017564 0.531497
O O15 0.523716 0.172588 0.734743
O O16 0.548556 0.923466 0.823834
#
# Coordination Sequence:
#
# PCOD9459328 Si02
#       8
#     8   8   8   8   8   8   8   8
#     4  11  23  40  60  94 132 170 208 255 330 388
#     4   9  22  38  64  93 124 166 209 272 319 377
#     4  11  21  33  65 100 122 159 211 264 328 389
#     4  11  20  35  66  96 123 157 208 277 323 363
#     4  10  19  40  61  93 117 160 232 267 306 352
#     4  10  24  39  59  91 139 165 203 252 333 413
#     4  10  22  38  58  92 132 166 195 253 335 394
#     4  10  23  37  63  86 126 170 219 273 296 370
#
# _framework density 22.242632
#
# number of rings (size 3 to 8) (size 9 to 14) (size 15 to 20)
#    0.750    1.000    1.250    4.500    3.500    0.000 
#    0.000    1.250    0.000    0.000    0.000    0.000 
#    0.000    0.000    0.000    0.000    0.000    0.000 
#
# Total GULP energy -356373.785740 kJ/mol
# GULP energy per Si atom -5568.340402 kJ/mol
# Density = 2.219201 g / cm^3
# Si number density = 22.242632 Si / 1000 Ang^3
#
#
#
# Elastic Constant Matrix: (Units=GPa)
#
#
# Indices 1 2 3 4 5 6 
#
# 1 22.6020 1.6763 -4.3861 0.0000 0.0000 0.0000
# 2 1.6763 63.8859 12.5403 0.0000 0.0000 0.0000
# 3 -4.3861 12.5403 57.4608 0.0000 0.0000 0.0000
# 4 0.0000 0.0000 0.0000 33.6853 0.0000 0.0000
# 5 0.0000 0.0000 0.0000 0.0000 8.1377 0.0000
# 6 0.0000 0.0000 0.0000 0.0000 0.0000 29.8831
#
#
#
# Elastic Compliance Matrix: (Units=1/GPa)
#
#
# Indices 1 2 3 4 5 6 
#
# 1 0.045139 -0.001944 0.003870 0.000000 0.000000 0.000000
# 2 -0.001944 0.016437 -0.003736 0.000000 0.000000 0.000000
# 3 0.003870 -0.003736 0.018514 0.000000 0.000000 0.000000
# 4 0.000000 0.000000 0.000000 0.029687 0.000000 0.000000
# 5 0.000000 0.000000 0.000000 0.000000 0.122885 0.000000
# 6 0.000000 0.000000 0.000000 0.000000 0.000000 0.033464
#
#
# Mechanical properties :
#
#
# Convention : Reuss Voigt Hill
#
# Bulk Modulus (GPa) = 13.07695 18.17885 15.62790
# Shear Modulus (GPa) = 16.93568 23.28244 20.10906
#
# Velocity S-wave (km/s) = 2.76235 3.23886 3.01005
# Velocity P-wave (km/s) = 4.00826 4.70932 4.37286
#
# Compressibility (1/GPa) = 0.07647046
#
# Stress axis : x y z
#
# Youngs Moduli (GPa) = 22.15374 60.83763 54.01364
#
# Poissons Ratio (x) = 0.11827 -0.20902
# Poissons Ratio (y) = 0.04307 0.20178
# Poissons Ratio (z) = -0.08573 0.22727
#
# Static dielectric constant tensor:
#      x y z
#    x 1.917430 0.000000 0.000000 
#    y 0.000000 1.924750 0.000000 
#    z 0.000000 0.000000 1.836510 
# 
# From -- ./inp_files/10609.got.cif
#   From: 2010.05.17/outbox.cif.g08.bks.cpg/sg61_6_cif.got.tgz:10609.got - 2010.06.03 15:17:17.
