data_PCOD9459822
_publ_section_title
;
Structure prediction by ZEFSAII (Michael W. Deem and Ramdas Pophale) SiO2 
 PCOD9459822
Probable space group: P B C A
;
_chemical_formula_sum "Si O2"
_cell_formula_units_Z 64
_cell_length_a 8.390845
_cell_length_b 15.899048
_cell_length_c 23.168261
_cell_angle_alpha 90.000000
_cell_angle_beta 90.000000
_cell_angle_gamma 90.000000
_cell_volume 3090.795393
_symmetry_space_group_name_H-M "P B C A"
_symmetry_group_IT_number 61
_symmetry_cell_setting 'orthorhombic'
loop_
_space_group_symop_operation_xyz
x,y,z
1/2-x,-y,1/2+z
1/2+x,1/2-y,-z
-x,1/2+y,1/2-z
-x,-y,-z
1/2+x,y,1/2-z
1/2-x,1/2+y,z
x,1/2-y,1/2+z
loop_
_atom_site_type_symbol
_atom_site_label
_atom_site_fract_x
_atom_site_fract_y
_atom_site_fract_z
Si Si1 0.323714 0.372254 0.039469
Si Si2 0.670375 0.070195 0.067761
Si Si3 0.657837 0.856586 0.679718
Si Si4 0.909577 0.308130 0.117520
Si Si5 0.309890 0.605242 0.975724
Si Si6 0.892984 0.974400 0.374384
Si Si7 0.293315 0.897289 0.697310
Si Si8 0.773165 0.709005 0.412167
O O1 0.500208 0.401045 0.025544
O O2 0.239027 0.434453 0.084026
O O3 0.344252 0.282047 0.069027
O O4 0.205177 0.365314 0.984288
O O5 0.764340 0.101653 0.123565
O O6 0.740001 0.985129 0.040064
O O7 0.498053 0.042597 0.090619
O O8 0.647452 0.756635 0.666537
O O9 0.483213 0.897459 0.687995
O O10 0.755838 0.873998 0.737374
O O11 0.773580 0.333391 0.071595
O O12 0.989153 0.395644 0.139601
O O13 0.052971 0.254472 0.088166
O O14 0.271231 0.638285 0.039303
O O15 0.802644 0.019557 0.321948
O O16 0.239463 0.826684 0.651000
#
# Coordination Sequence:
#
# PCOD9459822 Si02
#       8
#     8   8   8   8   8   8   8   8
#     4  11  21  35  60  91 123 158 199 251 306 363
#     4  11  22  37  59  88 122 160 200 251 307 366
#     4  11  23  43  64  88 121 162 209 257 310 369
#     4   9  22  41  60  88 126 161 202 253 310 369
#     4  11  20  35  60  90 122 158 199 252 307 365
#     4  10  22  41  62  90 124 162 208 254 307 366
#     4  11  23  41  63  86 117 160 208 256 304 365
#     4  10  21  37  57  87 122 159 200 248 305 365
#
# _framework density 20.706645000000002
#
# number of rings (size 3 to 8) (size 9 to 14) (size 15 to 20)
#    0.000    1.500    0.000    6.000    0.000    5.000 
#    0.000   12.500    0.000    0.000    0.000    0.000 
#    0.000    0.000    0.000    0.000    0.000    0.000 
#
# Total GULP energy -357618.867298 kJ/mol
# GULP energy per Si atom -5587.794802 kJ/mol
# Density = 2.065952 g / cm^3
# Si number density = 20.706645 Si / 1000 Ang^3
#
#
#
# Elastic Constant Matrix: (Units=GPa)
#
#
# Indices 1 2 3 4 5 6 
#
# 1 33.1154 19.9916 -10.6832 0.0000 0.0000 0.0000
# 2 19.9916 73.6187 32.9953 0.0000 0.0000 0.0000
# 3 -10.6832 32.9953 102.4451 0.0000 0.0000 0.0000
# 4 0.0000 0.0000 0.0000 33.7097 0.0000 0.0000
# 5 0.0000 0.0000 0.0000 0.0000 23.8313 0.0000
# 6 0.0000 0.0000 0.0000 0.0000 0.0000 22.6513
#
#
#
# Elastic Compliance Matrix: (Units=1/GPa)
#
#
# Indices 1 2 3 4 5 6 
#
# 1 0.042947 -0.015976 0.009624 0.000000 0.000000 0.000000
# 2 -0.015976 0.021818 -0.008693 0.000000 0.000000 0.000000
# 3 0.009624 -0.008693 0.013565 0.000000 0.000000 0.000000
# 4 0.000000 0.000000 0.000000 0.029665 0.000000 0.000000
# 5 0.000000 0.000000 0.000000 0.000000 0.041962 0.000000
# 6 0.000000 0.000000 0.000000 0.000000 0.000000 0.044148
#
#
# Mechanical properties :
#
#
# Convention : Reuss Voigt Hill
#
# Bulk Modulus (GPa) = 20.72978 32.64294 26.68636
# Shear Modulus (GPa) = 20.80960 27.16347 23.98654
#
# Velocity S-wave (km/s) = 3.17357 3.62584 3.40722
# Velocity P-wave (km/s) = 4.84372 5.77301 5.32866
#
# Compressibility (1/GPa) = 0.04823979
#
# Stress axis : x y z
#
# Youngs Moduli (GPa) = 23.28463 45.83370 73.72030
#
# Poissons Ratio (x) = 0.73223 -0.70949
# Poissons Ratio (y) = 0.37199 0.64086
# Poissons Ratio (z) = -0.22409 0.39844
#
# Static dielectric constant tensor:
#      x y z
#    x 1.761190 0.000000 0.000000 
#    y 0.000000 1.803350 0.000000 
#    z 0.000000 0.000000 1.706380 
# 
# From -- ./inp_files/10169.got.cif
#   From: 2010.05.17/outbox.cif.g08.bks.cpg/sg61_6_cif.got.tgz:10169.got - 2010.06.03 15:17:17.
