data_PCOD9459077
_publ_section_title
;
Structure prediction by ZEFSAII (Michael W. Deem and Ramdas Pophale) SiO2 
 PCOD9459077
Probable space group: P B C A
;
_chemical_formula_sum "Si O2"
_cell_formula_units_Z 64
_cell_length_a 15.792417
_cell_length_b 16.140958
_cell_length_c 11.306408
_cell_angle_alpha 90.000000
_cell_angle_beta 90.000000
_cell_angle_gamma 90.000000
_cell_volume 2882.056986
_symmetry_space_group_name_H-M "P B C A"
_symmetry_group_IT_number 61
_symmetry_cell_setting 'orthorhombic'
loop_
_space_group_symop_operation_xyz
x,y,z
1/2-x,-y,1/2+z
1/2+x,1/2-y,-z
-x,1/2+y,1/2-z
-x,-y,-z
1/2+x,y,1/2-z
1/2-x,1/2+y,z
x,1/2-y,1/2+z
loop_
_atom_site_type_symbol
_atom_site_label
_atom_site_fract_x
_atom_site_fract_y
_atom_site_fract_z
Si Si1 0.017539 0.755122 0.358295
Si Si2 0.396210 0.438060 0.085725
Si Si3 0.051536 0.089703 0.233669
Si Si4 0.569694 0.139053 0.664199
Si Si5 0.132292 0.971722 0.810121
Si Si6 0.912169 0.691810 0.043049
Si Si7 0.704915 0.802986 0.695552
Si Si8 0.249743 0.193289 0.583004
O O1 0.960253 0.672736 0.344366
O O2 0.982610 0.824656 0.272766
O O3 0.005779 0.791463 0.489096
O O4 0.108272 0.728220 0.312640
O O5 0.396439 0.518726 0.168250
O O6 0.492046 0.402395 0.091099
O O7 0.321915 0.373457 0.116630
O O8 0.380144 0.459689 0.950178
O O9 0.087980 0.122788 0.356641
O O10 0.956671 0.053311 0.251190
O O11 0.608182 0.218504 0.599496
O O12 0.638547 0.070428 0.700844
O O13 0.201273 0.902217 0.779155
O O14 0.847704 0.668695 0.938986
O O15 0.747215 0.759167 0.809127
O O16 0.731023 0.786842 0.557715
#
# Coordination Sequence:
#
# PCOD9459077 Si02
#       8
#     8   8   8   8   8   8   8   8
#     4  10  20  35  63  88 122 162 219 265 323 383
#     4  10  18  39  62  89 123 167 220 262 329 390
#     4   9  19  34  62  92 119 162 212 272 323 389
#     4  10  18  35  61  91 115 159 212 268 323 376
#     4   9  18  34  65  90 115 158 220 272 310 387
#     4  11  23  36  60  93 132 168 211 272 338 400
#     4  10  22  41  64  91 122 171 222 264 324 395
#     4  11  24  40  63  91 133 171 211 269 334 405
#
# _framework density 22.206363
#
# number of rings (size 3 to 8) (size 9 to 14) (size 15 to 20)
#    0.000    2.000    1.250    4.500    7.000    0.000 
#    0.000    6.250    5.500    0.000    0.000    0.000 
#    0.000    0.000    0.000    0.000    0.000    0.000 
#
# Total GULP energy -356818.326645 kJ/mol
# GULP energy per Si atom -5575.286354 kJ/mol
# Density = 2.215582 g / cm^3
# Si number density = 22.206363 Si / 1000 Ang^3
#
#
#
# Elastic Constant Matrix: (Units=GPa)
#
#
# Indices 1 2 3 4 5 6 
#
# 1 49.2634 -1.4984 18.7362 0.0000 0.0000 0.0000
# 2 -1.4984 60.4600 41.6128 0.0000 0.0000 0.0000
# 3 18.7362 41.6128 88.6970 0.0000 0.0000 0.0000
# 4 0.0000 0.0000 0.0000 35.0619 0.0000 0.0000
# 5 0.0000 0.0000 0.0000 0.0000 32.6059 0.0000
# 6 0.0000 0.0000 0.0000 0.0000 0.0000 0.3793
#
#
#
# Elastic Compliance Matrix: (Units=1/GPa)
#
#
# Indices 1 2 3 4 5 6 
#
# 1 0.023408 0.005883 -0.007705 0.000000 0.000000 0.000000
# 2 0.005883 0.025906 -0.013397 0.000000 0.000000 0.000000
# 3 -0.007705 -0.013397 0.019187 0.000000 0.000000 0.000000
# 4 0.000000 0.000000 0.000000 0.028521 0.000000 0.000000
# 5 0.000000 0.000000 0.000000 0.000000 0.030669 0.000000
# 6 0.000000 0.000000 0.000000 0.000000 0.000000 2.636660
#
#
# Mechanical properties :
#
#
# Convention : Reuss Voigt Hill
#
# Bulk Modulus (GPa) = 26.27107 35.12461 30.69784
# Shear Modulus (GPa) = 1.78096 22.91407 12.34751
#
# Velocity S-wave (km/s) = 0.89652 3.21576 2.36060
# Velocity P-wave (km/s) = 3.59552 5.44425 4.61344
#
# Compressibility (1/GPa) = 0.03806468
#
# Stress axis : x y z
#
# Youngs Moduli (GPa) = 42.71978 38.60065 52.11831
#
# Poissons Ratio (x) = -0.22709 0.40156
# Poissons Ratio (y) = -0.25133 0.69822
# Poissons Ratio (z) = 0.32915 0.51713
#
# Static dielectric constant tensor:
#      x y z
#    x 1.971100 0.000000 0.000000 
#    y 0.000000 1.860990 0.000000 
#    z 0.000000 0.000000 1.848730 
# 
# From -- ./inp_files/6287.got.cif
#   From: 2010.05.17/outbox.cif.g08.bks.cpg/sg61_4_cif.got.tgz:6287.got - 2010.06.03 15:17:17.
