data_PCOD9459649
_publ_section_title
;
Structure prediction by ZEFSAII (Michael W. Deem and Ramdas Pophale) SiO2 
 PCOD9459649
Probable space group: P B C A
;
_chemical_formula_sum "Si O2"
_cell_formula_units_Z 56
_cell_length_a 28.261252
_cell_length_b 5.487701
_cell_length_c 13.971495
_cell_angle_alpha 90.000000
_cell_angle_beta 90.000000
_cell_angle_gamma 90.000000
_cell_volume 2166.829392
_symmetry_space_group_name_H-M "P B C A"
_symmetry_group_IT_number 61
_symmetry_cell_setting 'orthorhombic'
loop_
_space_group_symop_operation_xyz
x,y,z
1/2-x,-y,1/2+z
1/2+x,1/2-y,-z
-x,1/2+y,1/2-z
-x,-y,-z
1/2+x,y,1/2-z
1/2-x,1/2+y,z
x,1/2-y,1/2+z
loop_
_atom_site_type_symbol
_atom_site_label
_atom_site_fract_x
_atom_site_fract_y
_atom_site_fract_z
Si Si1 0.630021 0.435369 0.577015
Si Si2 0.037043 0.684549 0.848918
Si Si3 0.447587 0.931382 0.654988
Si Si4 0.775742 0.120143 0.658908
Si Si5 0.774833 0.080095 0.890602
Si Si6 0.371798 0.220372 0.101193
Si Si7 0.389945 0.937512 0.282784
O O1 0.575737 0.509902 0.602497
O O2 0.670654 0.607084 0.620748
O O3 0.632208 0.483668 0.465024
O O4 0.639372 0.185413 0.632907
O O5 0.027672 0.575729 0.742889
O O6 0.066489 0.930589 0.833193
O O7 0.986541 0.756934 0.892741
O O8 0.420668 0.130864 0.591526
O O9 0.408590 0.771600 0.710804
O O10 0.751519 0.372982 0.627983
O O11 0.774430 0.094743 0.774532
O O12 0.748717 0.328446 0.921496
O O13 0.828904 0.102005 0.921623
O O14 0.367436 0.130702 0.210418
#
# Coordination Sequence:
#
# PCOD9459649 Si02
#       7
#     8   8   8   8   8   8   8
#     4  11  26  42  65 104 140 183 239 295 358 430
#     4  10  20  39  68  96 129 180 234 284 355 428
#     4  10  20  39  68  96 129 180 234 284 355 428
#     4  10  23  43  72 102 137 185 240 297 360 428
#     4  10  23  43  72 102 137 185 240 297 360 428
#     4  11  26  42  65 104 140 183 239 295 358 430
#     4  10  22  42  68  92 136 182 226 288 354 428
#
# _framework density 25.844211999999999
#
# number of rings (size 3 to 8) (size 9 to 14) (size 15 to 20)
#    0.000    1.714    1.429    2.571   10.000    2.857 
#    0.000    1.429    0.000    0.000    0.000    0.000 
#    0.000    0.000    0.000    0.000    0.000    0.000 
#
# Total GULP energy -313414.335451 kJ/mol
# GULP energy per Si atom -5596.684562 kJ/mol
# Density = 2.578539 g / cm^3
# Si number density = 25.844212 Si / 1000 Ang^3
#
#
#
# Elastic Constant Matrix: (Units=GPa)
#
#
# Indices 1 2 3 4 5 6 
#
# 1 101.6689 40.9489 31.4031 0.0000 0.0000 0.0000
# 2 40.9489 108.5916 20.5145 0.0000 0.0000 0.0000
# 3 31.4031 20.5145 69.3798 0.0000 0.0000 0.0000
# 4 0.0000 0.0000 0.0000 24.0641 0.0000 0.0000
# 5 0.0000 0.0000 0.0000 0.0000 10.0603 0.0000
# 6 0.0000 0.0000 0.0000 0.0000 0.0000 41.3346
#
#
#
# Elastic Compliance Matrix: (Units=1/GPa)
#
#
# Indices 1 2 3 4 5 6 
#
# 1 0.012874 -0.003976 -0.004651 0.000000 0.000000 0.000000
# 2 -0.003976 0.010982 -0.001447 0.000000 0.000000 0.000000
# 3 -0.004651 -0.001447 0.016947 0.000000 0.000000 0.000000
# 4 0.000000 0.000000 0.000000 0.041556 0.000000 0.000000
# 5 0.000000 0.000000 0.000000 0.000000 0.099400 0.000000
# 6 0.000000 0.000000 0.000000 0.000000 0.000000 0.024193
#
#
# Mechanical properties :
#
#
# Convention : Reuss Voigt Hill
#
# Bulk Modulus (GPa) = 48.42011 51.70815 50.06413
# Shear Modulus (GPa) = 21.46059 27.54339 24.50199
#
# Velocity S-wave (km/s) = 2.88476 3.26812 3.08241
# Velocity P-wave (km/s) = 5.46552 5.85593 5.66409
#
# Compressibility (1/GPa) = 0.02065258
#
# Stress axis : x y z
#
# Youngs Moduli (GPa) = 77.67631 91.06191 59.00825
#
# Poissons Ratio (x) = 0.36205 0.27447
# Poissons Ratio (y) = 0.30883 0.08541
# Poissons Ratio (z) = 0.36131 0.13181
#
# Static dielectric constant tensor:
#      x y z
#    x 2.023310 0.000000 0.000000 
#    y 0.000000 2.043090 0.000000 
#    z 0.000000 0.000000 2.014840 
# 
# From -- ./inp_files/8667.got.cif
#   From: 2010.05.17/outbox.cif.g08.bks.cpg/sg61_5_cif.got.tgz:8667.got - 2010.06.03 15:17:17.
