data_PCOD9459031
_publ_section_title
;
Structure prediction by ZEFSAII (Michael W. Deem and Ramdas Pophale) SiO2 
 PCOD9459031
Probable space group: P B C A
;
_chemical_formula_sum "Si O2"
_cell_formula_units_Z 64
_cell_length_a 16.633715
_cell_length_b 8.797110
_cell_length_c 22.849528
_cell_angle_alpha 90.000000
_cell_angle_beta 90.000000
_cell_angle_gamma 90.000000
_cell_volume 3343.539913
_symmetry_space_group_name_H-M "P B C A"
_symmetry_group_IT_number 61
_symmetry_cell_setting 'orthorhombic'
loop_
_space_group_symop_operation_xyz
x,y,z
1/2-x,-y,1/2+z
1/2+x,1/2-y,-z
-x,1/2+y,1/2-z
-x,-y,-z
1/2+x,y,1/2-z
1/2-x,1/2+y,z
x,1/2-y,1/2+z
loop_
_atom_site_type_symbol
_atom_site_label
_atom_site_fract_x
_atom_site_fract_y
_atom_site_fract_z
Si Si1 0.758140 0.536763 0.869229
Si Si2 0.379502 0.497084 0.224481
Si Si3 0.502597 0.828210 0.355911
Si Si4 0.079101 0.909585 0.474396
Si Si5 0.990179 0.086969 0.061119
Si Si6 0.573718 0.004962 0.151252
Si Si7 0.419600 0.778054 0.150864
Si Si8 0.837193 0.232632 0.423242
O O1 0.697717 0.545610 0.814382
O O2 0.841937 0.621022 0.859606
O O3 0.710891 0.609297 0.924813
O O4 0.782873 0.363307 0.878791
O O5 0.453759 0.396351 0.200723
O O6 0.370322 0.472215 0.293294
O O7 0.404307 0.668536 0.206009
O O8 0.453397 0.678847 0.342488
O O9 0.575180 0.773233 0.398379
O O10 0.458821 0.963470 0.391657
O O11 0.058650 0.737109 0.455378
O O12 0.145765 0.881448 0.523550
O O13 0.106173 0.988638 0.414587
O O14 0.000000 0.000000 0.500000
O O15 0.065655 0.161746 0.096209
O O16 0.000000 0.000000 0.000000
O O17 0.496665 0.890002 0.154815
#
# Coordination Sequence:
#
# PCOD9459031 Si02
#       8
#     8   8   8   8   8   8   8   8
#     4  11  21  36  57  83 114 156 202 246 288 361
#     4  10  22  35  54  86 117 151 199 248 298 351
#     4  10  19  33  56  86 116 150 190 243 300 351
#     4  11  20  35  59  89 119 154 190 248 312 360
#     4  10  18  31  55  90 122 142 186 244 299 354
#     4  11  20  36  59  86 120 148 195 254 303 358
#     4  10  20  35  56  85 113 155 198 241 301 356
#     4  11  20  35  57  84 114 152 197 241 296 357
#
# _framework density 19.141390000000001
#
# number of rings (size 3 to 8) (size 9 to 14) (size 15 to 20)
#    0.000    1.500    5.000    1.500    0.000    0.000 
#    0.000    0.000    2.750    0.000    0.000    0.000 
#    0.000    0.000    0.000    0.000    0.000    0.000 
#
# Total GULP energy -356494.315190 kJ/mol
# GULP energy per Si atom -5570.223675 kJ/mol
# Density = 1.909782 g / cm^3
# Si number density = 19.141390 Si / 1000 Ang^3
#
#
#
# Elastic Constant Matrix: (Units=GPa)
#
#
# Indices 1 2 3 4 5 6 
#
# 1 40.6169 10.0479 14.2970 0.0000 0.0000 0.0000
# 2 10.0479 87.0855 6.4858 0.0000 0.0000 0.0000
# 3 14.2970 6.4858 98.9256 0.0000 0.0000 0.0000
# 4 0.0000 0.0000 0.0000 15.6050 0.0000 0.0000
# 5 0.0000 0.0000 0.0000 0.0000 16.3661 0.0000
# 6 0.0000 0.0000 0.0000 0.0000 0.0000 22.4909
#
#
#
# Elastic Compliance Matrix: (Units=1/GPa)
#
#
# Indices 1 2 3 4 5 6 
#
# 1 0.026601 -0.002797 -0.003661 0.000000 0.000000 0.000000
# 2 -0.002797 0.011833 -0.000372 0.000000 0.000000 0.000000
# 3 -0.003661 -0.000372 0.010662 0.000000 0.000000 0.000000
# 4 0.000000 0.000000 0.000000 0.064082 0.000000 0.000000
# 5 0.000000 0.000000 0.000000 0.000000 0.061102 0.000000
# 6 0.000000 0.000000 0.000000 0.000000 0.000000 0.044462
#
#
# Mechanical properties :
#
#
# Convention : Reuss Voigt Hill
#
# Bulk Modulus (GPa) = 28.21855 32.03214 30.12535
# Shear Modulus (GPa) = 20.47386 23.94554 22.20970
#
# Velocity S-wave (km/s) = 3.27404 3.54076 3.41001
# Velocity P-wave (km/s) = 5.39135 5.78678 5.59256
#
# Compressibility (1/GPa) = 0.03543768
#
# Stress axis : x y z
#
# Youngs Moduli (GPa) = 37.59284 84.50718 93.79024
#
# Poissons Ratio (x) = 0.23633 0.34337
# Poissons Ratio (y) = 0.10513 0.03486
# Poissons Ratio (z) = 0.13763 0.03141
#
# Static dielectric constant tensor:
#      x y z
#    x 1.658970 0.000000 0.000000 
#    y 0.000000 1.723530 0.000000 
#    z 0.000000 0.000000 1.746690 
# 
# From -- ./inp_files/10622.got.cif
#   From: 2010.05.17/outbox.cif.g08.bks.cpg/sg61_6_cif.got.tgz:10622.got - 2010.06.03 15:17:17.
