data_PCOD9459006
_publ_section_title
;
Structure prediction by ZEFSAII (Michael W. Deem and Ramdas Pophale) SiO2 
 PCOD9459006
Probable space group: P B C A
;
_chemical_formula_sum "Si O2"
_cell_formula_units_Z 64
_cell_length_a 15.868546
_cell_length_b 19.990896
_cell_length_c 10.473442
_cell_angle_alpha 90.000000
_cell_angle_beta 90.000000
_cell_angle_gamma 90.000000
_cell_volume 3322.452854
_symmetry_space_group_name_H-M "P B C A"
_symmetry_group_IT_number 61
_symmetry_cell_setting 'orthorhombic'
loop_
_space_group_symop_operation_xyz
x,y,z
1/2-x,-y,1/2+z
1/2+x,1/2-y,-z
-x,1/2+y,1/2-z
-x,-y,-z
1/2+x,y,1/2-z
1/2-x,1/2+y,z
x,1/2-y,1/2+z
loop_
_atom_site_type_symbol
_atom_site_label
_atom_site_fract_x
_atom_site_fract_y
_atom_site_fract_z
Si Si1 0.529210 0.108772 0.379950
Si Si2 0.586072 0.514114 0.272870
Si Si3 0.332990 0.390693 0.542883
Si Si4 0.325225 0.965872 0.480406
Si Si5 0.483922 0.104013 0.851488
Si Si6 0.368531 0.254076 0.050554
Si Si7 0.620647 0.600387 0.908212
Si Si8 0.980604 0.249791 0.199797
O O1 0.492200 0.059231 0.273425
O O2 0.615774 0.081227 0.433794
O O3 0.458320 0.104728 0.492351
O O4 0.534126 0.184011 0.328675
O O5 0.653133 0.565344 0.331275
O O6 0.626847 0.478542 0.151205
O O7 0.550961 0.455151 0.361522
O O8 0.262830 0.429175 0.462834
O O9 0.423137 0.392440 0.472727
O O10 0.313283 0.312692 0.565249
O O11 0.322952 0.037814 0.550591
O O12 0.422473 0.091425 0.729475
O O13 0.521611 0.177765 0.824138
O O14 0.333400 0.327922 0.080019
O O15 0.442182 0.247098 0.157942
O O16 0.405626 0.253602 0.906629
#
# Coordination Sequence:
#
# PCOD9459006 Si02
#       8
#     8   8   8   8   8   8   8   8
#     4  10  17  35  60  82 102 148 198 236 266 342
#     4  11  20  37  59  80 114 149 198 235 280 343
#     4  11  24  35  55  87 120 149 184 241 306 338
#     4  11  22  35  58  87 115 149 188 242 292 346
#     4  10  19  36  57  85 112 151 193 237 279 348
#     4   9  18  35  56  84 108 151 194 231 279 350
#     4   9  17  34  60  82 105 147 202 224 269 345
#     4   9  18  32  61  83 109 145 202 235 279 332
#
# _framework density 19.262875999999999
#
# number of rings (size 3 to 8) (size 9 to 14) (size 15 to 20)
#    0.000    2.000    3.750    1.125    1.750    0.000 
#    0.000    1.250    0.000    0.000    0.000    0.000 
#    0.000    0.000    0.000    0.000    0.000    0.000 
#
# Total GULP energy -356819.105664 kJ/mol
# GULP energy per Si atom -5575.298526 kJ/mol
# Density = 1.921903 g / cm^3
# Si number density = 19.262876 Si / 1000 Ang^3
#
#
#
# Elastic Constant Matrix: (Units=GPa)
#
#
# Indices 1 2 3 4 5 6 
#
# 1 22.7956 33.0632 -4.4328 0.0000 0.0000 0.0000
# 2 33.0632 160.8744 3.8704 0.0000 0.0000 0.0000
# 3 -4.4328 3.8704 31.4326 0.0000 0.0000 0.0000
# 4 0.0000 0.0000 0.0000 25.8292 0.0000 0.0000
# 5 0.0000 0.0000 0.0000 0.0000 8.4310 0.0000
# 6 0.0000 0.0000 0.0000 0.0000 0.0000 16.9310
#
#
#
# Elastic Compliance Matrix: (Units=1/GPa)
#
#
# Indices 1 2 3 4 5 6 
#
# 1 0.066102 -0.013851 0.011027 0.000000 0.000000 0.000000
# 2 -0.013851 0.009137 -0.003078 0.000000 0.000000 0.000000
# 3 0.011027 -0.003078 0.033748 0.000000 0.000000 0.000000
# 4 0.000000 0.000000 0.000000 0.038716 0.000000 0.000000
# 5 0.000000 0.000000 0.000000 0.000000 0.118610 0.000000
# 6 0.000000 0.000000 0.000000 0.000000 0.000000 0.059063
#
#
# Mechanical properties :
#
#
# Convention : Reuss Voigt Hill
#
# Bulk Modulus (GPa) = 10.28978 31.12268 20.70623
# Shear Modulus (GPa) = 13.52910 22.41170 17.97040
#
# Velocity S-wave (km/s) = 2.65305 3.41466 3.05766
# Velocity P-wave (km/s) = 3.83904 5.63369 4.82062
#
# Compressibility (1/GPa) = 0.09718383
#
# Stress axis : x y z
#
# Youngs Moduli (GPa) = 15.12818 109.44871 29.63114
#
# Poissons Ratio (x) = 1.51594 -0.32676
# Poissons Ratio (y) = 0.20954 0.09121
# Poissons Ratio (z) = -0.16683 0.33692
#
# Static dielectric constant tensor:
#      x y z
#    x 1.638290 0.000000 0.000000 
#    y 0.000000 1.722170 0.000000 
#    z 0.000000 0.000000 1.688060 
# 
# From -- ./inp_files/6347.got.cif
#   From: 2010.05.17/outbox.cif.g08.bks.cpg/sg61_4_cif.got.tgz:6347.got - 2010.06.03 15:17:17.
