data_PCOD9459965
_publ_section_title
;
Structure prediction by ZEFSAII (Michael W. Deem and Ramdas Pophale) SiO2 
 PCOD9459965
Probable space group: P B C A
;
_chemical_formula_sum "Si O2"
_cell_formula_units_Z 64
_cell_length_a 28.301768
_cell_length_b 10.711492
_cell_length_c 8.437283
_cell_angle_alpha 90.000000
_cell_angle_beta 90.000000
_cell_angle_gamma 90.000000
_cell_volume 2557.797453
_symmetry_space_group_name_H-M "P B C A"
_symmetry_group_IT_number 61
_symmetry_cell_setting 'orthorhombic'
loop_
_space_group_symop_operation_xyz
x,y,z
1/2-x,-y,1/2+z
1/2+x,1/2-y,-z
-x,1/2+y,1/2-z
-x,-y,-z
1/2+x,y,1/2-z
1/2-x,1/2+y,z
x,1/2-y,1/2+z
loop_
_atom_site_type_symbol
_atom_site_label
_atom_site_fract_x
_atom_site_fract_y
_atom_site_fract_z
Si Si1 0.035638 0.626377 0.184238
Si Si2 0.274647 0.750534 0.658611
Si Si3 0.581532 0.374202 0.275324
Si Si4 0.874999 0.158713 0.129945
Si Si5 0.475089 0.694923 0.029058
Si Si6 0.753230 0.500204 0.146640
Si Si7 0.340963 0.916603 0.465954
Si Si8 0.818771 0.147561 0.447225
O O1 0.063579 0.500043 0.138022
O O2 0.077621 0.693944 0.278647
O O3 0.011863 0.702093 0.041341
O O4 0.997105 0.615799 0.326914
O O5 0.264890 0.615972 0.740376
O O6 0.321944 0.795438 0.563820
O O7 0.228019 0.767382 0.551352
O O8 0.265142 0.868403 0.775306
O O9 0.569799 0.262650 0.391810
O O10 0.545059 0.368197 0.127629
O O11 0.633098 0.368887 0.194999
O O12 0.837796 0.125151 0.270978
O O13 0.858318 0.277458 0.036987
O O14 0.876820 0.037233 0.013060
O O15 0.708096 0.494720 0.031950
O O16 0.800605 0.467333 0.049923
#
# Coordination Sequence:
#
# PCOD9459965 Si02
#       8
#     8   8   8   8   8   8   8   8
#     4  10  21  39  65  92 124 161 204 262 315 383
#     4  11  23  41  65  87 130 167 218 254 318 370
#     4  10  22  39  64  89 129 161 206 261 307 383
#     4  11  21  40  61  94 124 159 211 261 316 367
#     4  10  21  40  64  91 121 164 207 248 330 371
#     4  11  22  41  62  91 125 171 211 260 312 376
#     4  10  23  37  61  89 126 164 210 258 310 367
#     4  11  21  37  62  87 125 161 204 258 309 363
#
# _framework density 25.021529999999998
#
# number of rings (size 3 to 8) (size 9 to 14) (size 15 to 20)
#    0.000    1.500    2.500    2.250    1.750    3.000 
#    0.000    0.000    2.750    0.000    0.000    0.000 
#    0.000    0.000    0.000    0.000    0.000    0.000 
#
# Total GULP energy -356467.261345 kJ/mol
# GULP energy per Si atom -5569.800959 kJ/mol
# Density = 2.496458 g / cm^3
# Si number density = 25.021530 Si / 1000 Ang^3
#
#
#
# Elastic Constant Matrix: (Units=GPa)
#
#
# Indices 1 2 3 4 5 6 
#
# 1 69.3551 5.0501 6.0756 0.0000 0.0000 0.0000
# 2 5.0501 92.0897 39.6716 0.0000 0.0000 0.0000
# 3 6.0756 39.6716 39.8179 0.0000 0.0000 0.0000
# 4 0.0000 0.0000 0.0000 39.9919 0.0000 0.0000
# 5 0.0000 0.0000 0.0000 0.0000 35.7730 0.0000
# 6 0.0000 0.0000 0.0000 0.0000 0.0000 21.0806
#
#
#
# Elastic Compliance Matrix: (Units=1/GPa)
#
#
# Indices 1 2 3 4 5 6 
#
# 1 0.014618 0.000279 -0.002508 0.000000 0.000000 0.000000
# 2 0.000279 0.019030 -0.019002 0.000000 0.000000 0.000000
# 3 -0.002508 -0.019002 0.044430 0.000000 0.000000 0.000000
# 4 0.000000 0.000000 0.000000 0.025005 0.000000 0.000000
# 5 0.000000 0.000000 0.000000 0.000000 0.027954 0.000000
# 6 0.000000 0.000000 0.000000 0.000000 0.000000 0.047437
#
#
# Mechanical properties :
#
#
# Convention : Reuss Voigt Hill
#
# Bulk Modulus (GPa) = 28.07911 33.65080 30.86495
# Shear Modulus (GPa) = 21.47686 29.40013 25.43850
#
# Velocity S-wave (km/s) = 2.93291 3.43154 3.19198
# Velocity P-wave (km/s) = 4.76609 5.40171 5.09383
#
# Compressibility (1/GPa) = 0.03561367
#
# Stress axis : x y z
#
# Youngs Moduli (GPa) = 68.40895 52.54913 22.50747
#
# Poissons Ratio (x) = -0.01466 0.05646
# Poissons Ratio (y) = -0.01909 0.42770
# Poissons Ratio (z) = 0.17160 0.99856
#
# Static dielectric constant tensor:
#      x y z
#    x 2.026290 0.000000 0.000000 
#    y 0.000000 2.060350 0.000000 
#    z 0.000000 0.000000 2.117880 
# 
# From -- ./inp_files/4633.got.cif
#   From: 2010.05.17/outbox.cif.g08.bks.cpg/sg61_3_cif.got.tgz:4633.got - 2010.06.03 15:17:17.
