data_PCOD9459644
_publ_section_title
;
Structure prediction by ZEFSAII (Michael W. Deem and Ramdas Pophale) SiO2 
 PCOD9459644
Probable space group: P B C A
;
_chemical_formula_sum "Si O2"
_cell_formula_units_Z 64
_cell_length_a 22.839646
_cell_length_b 8.510719
_cell_length_c 13.156510
_cell_angle_alpha 90.000000
_cell_angle_beta 90.000000
_cell_angle_gamma 90.000000
_cell_volume 2557.386216
_symmetry_space_group_name_H-M "P B C A"
_symmetry_group_IT_number 61
_symmetry_cell_setting 'orthorhombic'
loop_
_space_group_symop_operation_xyz
x,y,z
1/2-x,-y,1/2+z
1/2+x,1/2-y,-z
-x,1/2+y,1/2-z
-x,-y,-z
1/2+x,y,1/2-z
1/2-x,1/2+y,z
x,1/2-y,1/2+z
loop_
_atom_site_type_symbol
_atom_site_label
_atom_site_fract_x
_atom_site_fract_y
_atom_site_fract_z
Si Si1 0.315104 0.717230 0.025438
Si Si2 0.771603 0.488291 0.859567
Si Si3 0.996427 0.194289 0.391640
Si Si4 0.536618 0.961604 0.683030
Si Si5 0.334824 0.190409 0.660438
Si Si6 0.389364 0.248955 0.953272
Si Si7 0.121279 0.093477 0.375901
Si Si8 0.088877 0.423662 0.655985
O O1 0.260731 0.605463 0.048594
O O2 0.372253 0.624965 0.062171
O O3 0.308306 0.866748 0.099843
O O4 0.328149 0.796024 0.919116
O O5 0.715360 0.567170 0.805689
O O6 0.812495 0.360478 0.805417
O O7 0.968986 0.083644 0.301974
O O8 0.947618 0.216459 0.478119
O O9 0.021609 0.358571 0.344370
O O10 0.057560 0.117979 0.428487
O O11 0.591327 0.883677 0.626109
O O12 0.477460 0.882767 0.637812
O O13 0.340918 0.204672 0.537215
O O14 0.396887 0.107765 0.681999
O O15 0.368113 0.090897 0.897043
O O16 0.111282 0.147006 0.260623
#
# Coordination Sequence:
#
# PCOD9459644 Si02
#       8
#     8   8   8   8   8   8   8   8
#     4  10  20  40  65  85 127 161 207 265 322 373
#     4   9  20  39  65  90 114 163 206 265 327 371
#     4  11  24  40  61  92 134 170 209 262 312 381
#     4  11  23  40  60  95 132 170 217 259 309 390
#     4  10  20  39  67  86 121 162 204 261 325 373
#     4  12  23  38  66  93 128 176 209 256 325 390
#     4  11  24  40  62  99 127 170 217 258 314 387
#     4  10  22  40  63  89 132 164 209 260 309 382
#
# _framework density 25.025551
#
# number of rings (size 3 to 8) (size 9 to 14) (size 15 to 20)
#    0.000    1.500    2.500    3.000    3.500    2.000 
#    0.000    5.000    0.000    0.000    0.000    0.000 
#    0.000    0.000    0.000    0.000    0.000    0.000 
#
# Total GULP energy -357130.601692 kJ/mol
# GULP energy per Si atom -5580.165651 kJ/mol
# Density = 2.496859 g / cm^3
# Si number density = 25.025551 Si / 1000 Ang^3
#
#
#
# Elastic Constant Matrix: (Units=GPa)
#
#
# Indices 1 2 3 4 5 6 
#
# 1 52.8510 5.0086 2.5115 0.0000 0.0000 0.0000
# 2 5.0086 106.8196 21.0070 0.0000 0.0000 0.0000
# 3 2.5115 21.0070 47.7711 0.0000 0.0000 0.0000
# 4 0.0000 0.0000 0.0000 33.1878 0.0000 0.0000
# 5 0.0000 0.0000 0.0000 0.0000 29.1245 0.0000
# 6 0.0000 0.0000 0.0000 0.0000 0.0000 37.5503
#
#
#
# Elastic Compliance Matrix: (Units=1/GPa)
#
#
# Indices 1 2 3 4 5 6 
#
# 1 0.019025 -0.000761 -0.000665 0.000000 0.000000 0.000000
# 2 -0.000761 0.010278 -0.004480 0.000000 0.000000 0.000000
# 3 -0.000665 -0.004480 0.022938 0.000000 0.000000 0.000000
# 4 0.000000 0.000000 0.000000 0.030132 0.000000 0.000000
# 5 0.000000 0.000000 0.000000 0.000000 0.034335 0.000000
# 6 0.000000 0.000000 0.000000 0.000000 0.000000 0.026631
#
#
# Mechanical properties :
#
#
# Convention : Reuss Voigt Hill
#
# Bulk Modulus (GPa) = 24.73509 29.38841 27.06175
# Shear Modulus (GPa) = 29.65107 31.90017 30.77562
#
# Velocity S-wave (km/s) = 3.44587 3.57417 3.51061
# Velocity P-wave (km/s) = 5.07321 5.36673 5.22203
#
# Compressibility (1/GPa) = 0.04042840
#
# Stress axis : x y z
#
# Youngs Moduli (GPa) = 52.56280 97.29285 43.59558
#
# Poissons Ratio (x) = 0.07406 0.02901
# Poissons Ratio (y) = 0.04001 0.19530
# Poissons Ratio (z) = 0.03498 0.43585
#
# Static dielectric constant tensor:
#      x y z
#    x 2.013780 0.000000 0.000000 
#    y 0.000000 2.059490 0.000000 
#    z 0.000000 0.000000 2.011030 
# 
# From -- ./inp_files/8529.got.cif
#   From: 2010.05.17/outbox.cif.g08.bks.cpg/sg61_5_cif.got.tgz:8529.got - 2010.06.03 15:17:17.
