data_PCOD9459324
_publ_section_title
;
Structure prediction by ZEFSAII (Michael W. Deem and Ramdas Pophale) SiO2 
 PCOD9459324
Probable space group: P B C A
;
_chemical_formula_sum "Si O2"
_cell_formula_units_Z 64
_cell_length_a 14.513123
_cell_length_b 17.219702
_cell_length_c 10.806868
_cell_angle_alpha 90.000000
_cell_angle_beta 90.000000
_cell_angle_gamma 90.000000
_cell_volume 2700.762247
_symmetry_space_group_name_H-M "P B C A"
_symmetry_group_IT_number 61
_symmetry_cell_setting 'orthorhombic'
loop_
_space_group_symop_operation_xyz
x,y,z
1/2-x,-y,1/2+z
1/2+x,1/2-y,-z
-x,1/2+y,1/2-z
-x,-y,-z
1/2+x,y,1/2-z
1/2-x,1/2+y,z
x,1/2-y,1/2+z
loop_
_atom_site_type_symbol
_atom_site_label
_atom_site_fract_x
_atom_site_fract_y
_atom_site_fract_z
Si Si1 0.940682 0.920122 0.654428
Si Si2 0.683313 0.778358 0.113581
Si Si3 0.291678 0.603120 0.757629
Si Si4 0.779411 0.561916 0.343959
Si Si5 0.118195 0.687620 0.147941
Si Si6 0.709344 0.152704 0.009200
Si Si7 0.012490 0.047539 0.802011
Si Si8 0.621554 0.549012 0.012455
O O1 0.864769 0.908899 0.762277
O O2 0.879825 0.899015 0.535581
O O3 0.024894 0.861207 0.659509
O O4 0.975811 0.008257 0.676411
O O5 0.717563 0.864317 0.146730
O O6 0.632830 0.742149 0.232697
O O7 0.623870 0.773235 0.988046
O O8 0.778943 0.732852 0.080844
O O9 0.264927 0.515498 0.717868
O O10 0.281780 0.658148 0.637427
O O11 0.399698 0.601957 0.789663
O O12 0.703244 0.627037 0.355191
O O13 0.824742 0.528490 0.469102
O O14 0.800140 0.106892 0.054906
O O15 0.931549 0.078830 0.889996
O O16 0.050299 0.973670 0.882091
#
# Coordination Sequence:
#
# PCOD9459324 Si02
#       8
#     8   8   8   8   8   8   8   8
#     4  11  23  43  74 107 141 194 244 313 370 439
#     4  12  26  50  74 103 155 204 244 299 390 447
#     4  11  23  45  73 106 147 195 244 318 373 446
#     4  10  21  44  75 105 145 193 245 315 375 425
#     4  12  25  50  73 110 147 203 251 308 367 462
#     4  11  23  45  64  98 149 191 235 298 374 442
#     4  10  19  39  67 108 135 182 251 301 373 433
#     4   9  20  38  68 100 141 185 237 309 363 440
#
# _framework density 23.697015
#
# number of rings (size 3 to 8) (size 9 to 14) (size 15 to 20)
#    0.000    1.250    3.750    2.250    0.000    1.500 
#   13.500    0.000    0.000    0.000    0.000    0.000 
#    0.000    0.000    0.000    0.000    0.000    0.000 
#
# Total GULP energy -357928.459918 kJ/mol
# GULP energy per Si atom -5592.632186 kJ/mol
# Density = 2.364308 g / cm^3
# Si number density = 23.697015 Si / 1000 Ang^3
#
#
#
# Elastic Constant Matrix: (Units=GPa)
#
#
# Indices 1 2 3 4 5 6 
#
# 1 120.2774 19.0742 17.6745 0.0000 0.0000 0.0000
# 2 19.0742 42.2809 24.9362 0.0000 0.0000 0.0000
# 3 17.6745 24.9362 102.4789 0.0000 0.0000 0.0000
# 4 0.0000 0.0000 0.0000 33.0101 0.0000 0.0000
# 5 0.0000 0.0000 0.0000 0.0000 33.9156 0.0000
# 6 0.0000 0.0000 0.0000 0.0000 0.0000 29.1995
#
#
#
# Elastic Compliance Matrix: (Units=1/GPa)
#
#
# Indices 1 2 3 4 5 6 
#
# 1 0.008993 -0.003669 -0.000658 0.000000 0.000000 0.000000
# 2 -0.003669 0.029111 -0.006451 0.000000 0.000000 0.000000
# 3 -0.000658 -0.006451 0.011441 0.000000 0.000000 0.000000
# 4 0.000000 0.000000 0.000000 0.030294 0.000000 0.000000
# 5 0.000000 0.000000 0.000000 0.000000 0.029485 0.000000
# 6 0.000000 0.000000 0.000000 0.000000 0.000000 0.034247
#
#
# Mechanical properties :
#
#
# Convention : Reuss Voigt Hill
#
# Bulk Modulus (GPa) = 35.72780 43.15633 39.44207
# Shear Modulus (GPa) = 28.66056 32.78189 30.72122
#
# Velocity S-wave (km/s) = 3.48150 3.72341 3.60449
# Velocity P-wave (km/s) = 5.59203 6.06105 5.83126
#
# Compressibility (1/GPa) = 0.02798941
#
# Stress axis : x y z
#
# Youngs Moduli (GPa) = 111.20211 34.35143 87.40255
#
# Poissons Ratio (x) = 0.12602 0.05753
# Poissons Ratio (y) = 0.40796 0.56382
# Poissons Ratio (z) = 0.07320 0.22159
#
# Static dielectric constant tensor:
#      x y z
#    x 1.866290 0.000000 0.000000 
#    y 0.000000 1.928240 0.000000 
#    z 0.000000 0.000000 1.981890 
# 
# From -- ./inp_files/6008.got.cif
#   From: 2010.05.17/outbox.cif.g08.bks.cpg/sg61_4_cif.got.tgz:6008.got - 2010.06.03 15:17:17.
