data_PCOD9459285
_publ_section_title
;
Structure prediction by ZEFSAII (Michael W. Deem and Ramdas Pophale) SiO2 
 PCOD9459285
Probable space group: P B C A
;
_chemical_formula_sum "Si O2"
_cell_formula_units_Z 48
_cell_length_a 9.801535
_cell_length_b 8.343341
_cell_length_c 24.943115
_cell_angle_alpha 90.000000
_cell_angle_beta 90.000000
_cell_angle_gamma 90.000000
_cell_volume 2039.786805
_symmetry_space_group_name_H-M "P B C A"
_symmetry_group_IT_number 61
_symmetry_cell_setting 'orthorhombic'
loop_
_space_group_symop_operation_xyz
x,y,z
1/2-x,-y,1/2+z
1/2+x,1/2-y,-z
-x,1/2+y,1/2-z
-x,-y,-z
1/2+x,y,1/2-z
1/2-x,1/2+y,z
x,1/2-y,1/2+z
loop_
_atom_site_type_symbol
_atom_site_label
_atom_site_fract_x
_atom_site_fract_y
_atom_site_fract_z
Si Si1 0.186081 0.526980 0.053288
Si Si2 0.502469 0.450266 0.072914
Si Si3 0.526662 0.735163 0.525296
Si Si4 0.137019 0.545356 0.794703
Si Si5 0.542157 0.805356 0.849687
Si Si6 0.091042 0.611858 0.267066
O O1 0.342935 0.485755 0.060634
O O2 0.140173 0.632797 0.103704
O O3 0.089707 0.370796 0.052562
O O4 0.143597 0.621927 0.999241
O O5 0.575240 0.619204 0.062796
O O6 0.512077 0.365305 0.129965
O O7 0.538911 0.321471 0.027151
O O8 0.293871 0.514080 0.782736
O O9 0.096835 0.729623 0.803108
O O10 0.081647 0.431301 0.841971
O O11 0.052031 0.474178 0.743845
O O12 0.618879 0.815122 0.792910
#
# Coordination Sequence:
#
# PCOD9459285 Si02
#       6
#     8   8   8   8   8   8
#     4  10  19  37  61  91 120 159 208 256 297 390
#     4  10  19  37  61  91 119 158 208 257 294 387
#     4   9  19  34  60  82 123 153 188 252 319 349
#     4  10  22  41  65  90 127 170 215 274 330 385
#     4   9  23  36  62  92 120 160 224 253 316 379
#     4  10  22  41  65  90 127 170 217 270 332 384
#
# _framework density 23.531869
#
# number of rings (size 3 to 8) (size 9 to 14) (size 15 to 20)
#    1.000    1.333    0.000    3.000    2.333    0.000 
#    3.000    0.000   55.000    0.000    0.000    0.000 
#    0.000    0.000    0.000    0.000    0.000    0.000 
#
# Total GULP energy -268029.402329 kJ/mol
# GULP energy per Si atom -5583.945882 kJ/mol
# Density = 2.347831 g / cm^3
# Si number density = 23.531869 Si / 1000 Ang^3
#
#
#
# Elastic Constant Matrix: (Units=GPa)
#
#
# Indices 1 2 3 4 5 6 
#
# 1 66.6321 11.1928 23.4343 0.0000 0.0000 0.0000
# 2 11.1928 88.3085 -7.1718 0.0000 0.0000 0.0000
# 3 23.4343 -7.1718 44.8220 0.0000 0.0000 0.0000
# 4 0.0000 0.0000 0.0000 50.1418 0.0000 0.0000
# 5 0.0000 0.0000 0.0000 0.0000 23.3000 0.0000
# 6 0.0000 0.0000 0.0000 0.0000 0.0000 21.8971
#
#
#
# Elastic Compliance Matrix: (Units=1/GPa)
#
#
# Indices 1 2 3 4 5 6 
#
# 1 0.019298 -0.003308 -0.010619 0.000000 0.000000 0.000000
# 2 -0.003308 0.012040 0.003656 0.000000 0.000000 0.000000
# 3 -0.010619 0.003656 0.028447 0.000000 0.000000 0.000000
# 4 0.000000 0.000000 0.000000 0.019943 0.000000 0.000000
# 5 0.000000 0.000000 0.000000 0.000000 0.042919 0.000000
# 6 0.000000 0.000000 0.000000 0.000000 0.000000 0.045668
#
#
# Mechanical properties :
#
#
# Convention : Reuss Voigt Hill
#
# Bulk Modulus (GPa) = 25.48195 28.29702 26.88949
# Shear Modulus (GPa) = 24.75988 30.55492 27.65740
#
# Velocity S-wave (km/s) = 3.24726 3.60731 3.43201
# Velocity P-wave (km/s) = 4.99117 5.42230 5.21119
#
# Compressibility (1/GPa) = 0.03924346
#
# Stress axis : x y z
#
# Youngs Moduli (GPa) = 51.81823 83.05508 35.15252
#
# Poissons Ratio (x) = 0.27478 0.37329
# Poissons Ratio (y) = 0.17144 -0.12853
# Poissons Ratio (z) = 0.55026 -0.30367
#
# Static dielectric constant tensor:
#      x y z
#    x 1.849570 0.000000 0.000000 
#    y 0.000000 1.954480 0.000000 
#    z 0.000000 0.000000 1.923570 
# 
# From -- ./inp_files/10981.got.cif
#   From: 2010.05.17/outbox.cif.g08.bks.cpg/sg61_6_cif.got.tgz:10981.got - 2010.06.03 15:17:17.
