data_PCOD9459090
_publ_section_title
;
Structure prediction by ZEFSAII (Michael W. Deem and Ramdas Pophale) SiO2 
 PCOD9459090
Probable space group: P B C A
;
_chemical_formula_sum "Si O2"
_cell_formula_units_Z 48
_cell_length_a 13.005756
_cell_length_b 13.453237
_cell_length_c 9.294996
_cell_angle_alpha 90.000000
_cell_angle_beta 90.000000
_cell_angle_gamma 90.000000
_cell_volume 1626.340968
_symmetry_space_group_name_H-M "P B C A"
_symmetry_group_IT_number 61
_symmetry_cell_setting 'orthorhombic'
loop_
_space_group_symop_operation_xyz
x,y,z
1/2-x,-y,1/2+z
1/2+x,1/2-y,-z
-x,1/2+y,1/2-z
-x,-y,-z
1/2+x,y,1/2-z
1/2-x,1/2+y,z
x,1/2-y,1/2+z
loop_
_atom_site_type_symbol
_atom_site_label
_atom_site_fract_x
_atom_site_fract_y
_atom_site_fract_z
Si Si1 0.210389 0.268195 0.713661
Si Si2 0.462953 0.685508 0.040413
Si Si3 0.382597 0.134483 0.683135
Si Si4 0.189052 0.491439 0.445422
Si Si5 0.603103 0.895263 0.807062
Si Si6 0.899767 0.951076 0.620085
O O1 0.118438 0.235723 0.607786
O O2 0.284869 0.180586 0.770953
O O3 0.304841 0.326185 0.639151
O O4 0.159070 0.352340 0.815353
O O5 0.525137 0.697803 0.891541
O O6 0.384379 0.595142 0.003335
O O7 0.539582 0.657123 0.171452
O O8 0.335273 0.088031 0.540150
O O9 0.425435 0.037514 0.763057
O O10 0.157303 0.514775 0.280903
O O11 0.311202 0.493241 0.465868
O O12 0.512962 0.915529 0.920605
#
# Coordination Sequence:
#
# PCOD9459090 Si02
#       6
#     8   8   8   8   8   8
#     4  10  22  35  62  96 123 157 222 266 307 385
#     4  10  19  41  65  84 123 170 206 254 328 377
#     4  11  20  40  63  90 128 177 210 253 338 384
#     4  10  18  36  67  84 117 174 205 250 320 386
#     4   9  17  37  58  84 120 161 202 258 307 368
#     4  10  20  39  63  91 129 166 214 265 317 375
#
# _framework density 29.514105000000001
#
# number of rings (size 3 to 8) (size 9 to 14) (size 15 to 20)
#    0.000    2.000    5.000    1.000    0.000    1.333 
#   15.000    0.833    0.000    0.000    0.000    0.000 
#    0.000    0.000    0.000    0.000    0.000    0.000 
#
# Total GULP energy -267943.850055 kJ/mol
# GULP energy per Si atom -5582.163543 kJ/mol
# Density = 2.944693 g / cm^3
# Si number density = 29.514105 Si / 1000 Ang^3
#
#
#
# Elastic Constant Matrix: (Units=GPa)
#
#
# Indices 1 2 3 4 5 6 
#
# 1 226.2492 41.7317 34.0622 0.0000 0.0000 0.0000
# 2 41.7317 77.7436 18.2998 0.0000 0.0000 0.0000
# 3 34.0622 18.2998 97.4636 0.0000 0.0000 0.0000
# 4 0.0000 0.0000 0.0000 38.1700 0.0000 0.0000
# 5 0.0000 0.0000 0.0000 0.0000 51.4997 0.0000
# 6 0.0000 0.0000 0.0000 0.0000 0.0000 58.8631
#
#
#
# Elastic Compliance Matrix: (Units=1/GPa)
#
#
# Indices 1 2 3 4 5 6 
#
# 1 0.005062 -0.002407 -0.001317 0.000000 0.000000 0.000000
# 2 -0.002407 0.014602 -0.001900 0.000000 0.000000 0.000000
# 3 -0.001317 -0.001900 0.011077 0.000000 0.000000 0.000000
# 4 0.000000 0.000000 0.000000 0.026199 0.000000 0.000000
# 5 0.000000 0.000000 0.000000 0.000000 0.019418 0.000000
# 6 0.000000 0.000000 0.000000 0.000000 0.000000 0.016989
#
#
# Mechanical properties :
#
#
# Convention : Reuss Voigt Hill
#
# Bulk Modulus (GPa) = 51.30267 65.51600 58.40934
# Shear Modulus (GPa) = 45.00697 50.19741 47.60219
#
# Velocity S-wave (km/s) = 3.90927 4.12854 4.02040
# Velocity P-wave (km/s) = 6.14790 6.70618 6.43310
#
# Compressibility (1/GPa) = 0.01949216
#
# Stress axis : x y z
#
# Youngs Moduli (GPa) = 197.54120 68.48220 90.27380
#
# Poissons Ratio (x) = 0.16486 0.11891
# Poissons Ratio (y) = 0.47554 0.17156
# Poissons Ratio (z) = 0.26020 0.13015
#
# Static dielectric constant tensor:
#      x y z
#    x 2.277590 0.000000 0.000000 
#    y 0.000000 2.479010 0.000000 
#    z 0.000000 0.000000 2.313850 
# 
# From -- ./inp_files/5748.got.cif
#   From: 2010.05.17/outbox.cif.g08.bks.cpg/sg61_3_cif.got.tgz:5748.got - 2010.06.03 15:17:17.
