data_PCOD9459382
_publ_section_title
;
Structure prediction by ZEFSAII (Michael W. Deem and Ramdas Pophale) SiO2 
 PCOD9459382
Probable space group: P B C A
;
_chemical_formula_sum "Si O2"
_cell_formula_units_Z 64
_cell_length_a 7.945189
_cell_length_b 32.255046
_cell_length_c 11.128503
_cell_angle_alpha 90.000000
_cell_angle_beta 90.000000
_cell_angle_gamma 90.000000
_cell_volume 2851.928580
_symmetry_space_group_name_H-M "P B C A"
_symmetry_group_IT_number 61
_symmetry_cell_setting 'orthorhombic'
loop_
_space_group_symop_operation_xyz
x,y,z
1/2-x,-y,1/2+z
1/2+x,1/2-y,-z
-x,1/2+y,1/2-z
-x,-y,-z
1/2+x,y,1/2-z
1/2-x,1/2+y,z
x,1/2-y,1/2+z
loop_
_atom_site_type_symbol
_atom_site_label
_atom_site_fract_x
_atom_site_fract_y
_atom_site_fract_z
Si Si1 0.396887 0.462963 0.608071
Si Si2 0.784268 0.585684 0.184671
Si Si3 0.517094 0.945752 0.138408
Si Si4 0.215412 0.607656 0.688709
Si Si5 0.979217 0.638594 0.357037
Si Si6 0.972269 0.248343 0.890109
Si Si7 0.898722 0.844140 0.102274
Si Si8 0.820960 0.224621 0.143346
O O1 0.583711 0.443115 0.617603
O O2 0.276642 0.440267 0.699912
O O3 0.352605 0.453239 0.470404
O O4 0.417578 0.510925 0.641324
O O5 0.883939 0.625095 0.237246
O O6 0.615766 0.601953 0.122149
O O7 0.617655 0.931945 0.256387
O O8 0.381492 0.908716 0.122671
O O9 0.277589 0.635569 0.800673
O O10 0.082460 0.635007 0.617821
O O11 0.849166 0.644833 0.466294
O O12 0.078609 0.681600 0.350825
O O13 0.069353 0.204307 0.879503
O O14 0.123099 0.281083 0.878860
O O15 0.852891 0.253938 0.773620
O O16 0.888264 0.248097 0.022377
#
# Coordination Sequence:
#
# PCOD9459382 Si02
#       8
#     8   8   8   8   8   8   8   8
#     4  10  20  34  53  78 107 140 178 220 268 321
#     4  10  20  35  55  78 107 141 179 222 270 321
#     4  10  20  34  53  78 107 140 178 220 268 321
#     4  10  20  35  55  78 107 141 179 222 270 321
#     4  10  21  37  56  80 109 142 182 225 273 328
#     4  11  23  40  61  87 118 153 194 240 291 346
#     4  10  21  37  56  80 109 142 182 225 273 328
#     4  11  23  40  61  87 118 153 194 240 291 346
#
# _framework density 22.440953
#
# number of rings (size 3 to 8) (size 9 to 14) (size 15 to 20)
#    0.000    1.750    0.000    4.500    0.000    2.000 
#    0.000    6.250    0.000   12.000    0.000    0.000 
#    0.000    0.000    0.000    0.000    0.000    0.000 
#
# Total GULP energy -357411.291513 kJ/mol
# GULP energy per Si atom -5584.551430 kJ/mol
# Density = 2.238988 g / cm^3
# Si number density = 22.440953 Si / 1000 Ang^3
#
#
#
# Elastic Constant Matrix: (Units=GPa)
#
#
# Indices 1 2 3 4 5 6 
#
# 1 43.5586 -17.6641 4.7584 0.0000 0.0000 0.0000
# 2 -17.6641 61.7043 16.1927 0.0000 0.0000 0.0000
# 3 4.7584 16.1927 53.3688 0.0000 0.0000 0.0000
# 4 0.0000 0.0000 0.0000 17.1359 0.0000 0.0000
# 5 0.0000 0.0000 0.0000 0.0000 14.7379 0.0000
# 6 0.0000 0.0000 0.0000 0.0000 0.0000 29.0983
#
#
#
# Elastic Compliance Matrix: (Units=1/GPa)
#
#
# Indices 1 2 3 4 5 6 
#
# 1 0.027244 0.009166 -0.005210 0.000000 0.000000 0.000000
# 2 0.009166 0.020693 -0.007096 0.000000 0.000000 0.000000
# 3 -0.005210 -0.007096 0.021355 0.000000 0.000000 0.000000
# 4 0.000000 0.000000 0.000000 0.058357 0.000000 0.000000
# 5 0.000000 0.000000 0.000000 0.000000 0.067852 0.000000
# 6 0.000000 0.000000 0.000000 0.000000 0.000000 0.034366
#
#
# Mechanical properties :
#
#
# Convention : Reuss Voigt Hill
#
# Bulk Modulus (GPa) = 15.86985 18.35619 17.11302
# Shear Modulus (GPa) = 19.44387 22.55072 20.99730
#
# Velocity S-wave (km/s) = 2.94674 3.17344 3.06219
# Velocity P-wave (km/s) = 4.32029 4.65029 4.48832
#
# Compressibility (1/GPa) = 0.06301257
#
# Stress axis : x y z
#
# Youngs Moduli (GPa) = 36.70528 48.32669 46.82747
#
# Poissons Ratio (x) = -0.44299 0.24399
# Poissons Ratio (y) = -0.33646 0.33227
# Poissons Ratio (z) = 0.19125 0.34291
#
# Static dielectric constant tensor:
#      x y z
#    x 1.809110 0.000000 0.000000 
#    y 0.000000 1.824580 0.000000 
#    z 0.000000 0.000000 1.877460 
# 
# From -- ./inp_files/4958.got.cif
#   From: 2010.05.17/outbox.cif.g08.bks.cpg/sg61_3_cif.got.tgz:4958.got - 2010.06.03 15:17:17.
