data_PCOD9459893
_publ_section_title
;
Structure prediction by ZEFSAII (Michael W. Deem and Ramdas Pophale) SiO2 
 PCOD9459893
Probable space group: P B C A
;
_chemical_formula_sum "Si O2"
_cell_formula_units_Z 40
_cell_length_a 17.015860
_cell_length_b 18.510961
_cell_length_c 4.892135
_cell_angle_alpha 90.000000
_cell_angle_beta 90.000000
_cell_angle_gamma 90.000000
_cell_volume 1540.924295
_symmetry_space_group_name_H-M "P B C A"
_symmetry_group_IT_number 61
_symmetry_cell_setting 'orthorhombic'
loop_
_space_group_symop_operation_xyz
x,y,z
1/2-x,-y,1/2+z
1/2+x,1/2-y,-z
-x,1/2+y,1/2-z
-x,-y,-z
1/2+x,y,1/2-z
1/2-x,1/2+y,z
x,1/2-y,1/2+z
loop_
_atom_site_type_symbol
_atom_site_label
_atom_site_fract_x
_atom_site_fract_y
_atom_site_fract_z
Si Si1 0.917389 0.417380 0.792975
Si Si2 0.198003 0.988953 0.339900
Si Si3 0.821211 0.704996 0.877598
Si Si4 0.633366 0.700729 0.876361
Si Si5 0.574460 0.076816 0.908529
O O1 0.904293 0.368281 0.529307
O O2 0.992857 0.396515 0.972089
O O3 0.841133 0.422038 0.995139
O O4 0.933330 0.502943 0.735530
O O5 0.264745 0.019139 0.545382
O O6 0.128836 0.047314 0.343277
O O7 0.839346 0.726937 0.186402
O O8 0.728016 0.690859 0.872166
O O9 0.873639 0.638888 0.778034
O O10 0.613131 0.767935 0.079842
#
# Coordination Sequence:
#
# PCOD9459893 Si02
#       5
#     8   8   8   8   8
#     4   9  21  42  64  97 131 168 217 272 329 394
#     4  10  21  38  63  88 118 162 208 256 313 372
#     4  10  22  41  64  93 127 167 215 264 318 386
#     4  10  22  41  64  93 127 167 215 264 318 386
#     4   9  21  42  64  97 131 168 217 272 329 394
#
# _framework density 25.958447
#
# number of rings (size 3 to 8) (size 9 to 14) (size 15 to 20)
#    1.200    1.200    0.000    1.200    0.000    9.600 
#    0.000    8.000    0.000    0.000    0.000    0.000 
#    0.000    0.000    0.000    0.000    0.000    0.000 
#
# Total GULP energy -223744.759499 kJ/mol
# GULP energy per Si atom -5593.618987 kJ/mol
# Density = 2.589936 g / cm^3
# Si number density = 25.958447 Si / 1000 Ang^3
#
#
#
# Elastic Constant Matrix: (Units=GPa)
#
#
# Indices 1 2 3 4 5 6 
#
# 1 99.9217 42.6735 33.0767 0.0000 0.0000 0.0000
# 2 42.6735 113.3287 13.7559 0.0000 0.0000 0.0000
# 3 33.0767 13.7559 108.6271 0.0000 0.0000 0.0000
# 4 0.0000 0.0000 0.0000 27.7532 0.0000 0.0000
# 5 0.0000 0.0000 0.0000 0.0000 12.3140 0.0000
# 6 0.0000 0.0000 0.0000 0.0000 0.0000 43.7830
#
#
#
# Elastic Compliance Matrix: (Units=1/GPa)
#
#
# Indices 1 2 3 4 5 6 
#
# 1 0.013059 -0.004504 -0.003406 0.000000 0.000000 0.000000
# 2 -0.004504 0.010515 0.000040 0.000000 0.000000 0.000000
# 3 -0.003406 0.000040 0.010238 0.000000 0.000000 0.000000
# 4 0.000000 0.000000 0.000000 0.036032 0.000000 0.000000
# 5 0.000000 0.000000 0.000000 0.000000 0.081208 0.000000
# 6 0.000000 0.000000 0.000000 0.000000 0.000000 0.022840
#
#
# Mechanical properties :
#
#
# Convention : Reuss Voigt Hill
#
# Bulk Modulus (GPa) = 55.33537 55.65441 55.49489
# Shear Modulus (GPa) = 25.55512 32.26148 28.90830
#
# Velocity S-wave (km/s) = 3.14102 3.52918 3.34074
# Velocity P-wave (km/s) = 5.87519 6.17197 6.02540
#
# Compressibility (1/GPa) = 0.01807162
#
# Stress axis : x y z
#
# Youngs Moduli (GPa) = 76.57705 95.10282 97.67646
#
# Poissons Ratio (x) = 0.42832 0.33269
# Poissons Ratio (y) = 0.34489 -0.00389
# Poissons Ratio (z) = 0.26082 -0.00379
#
# Static dielectric constant tensor:
#      x y z
#    x 2.010180 0.000000 0.000000 
#    y 0.000000 2.136950 0.000000 
#    z 0.000000 0.000000 1.992110 
# 
# From -- ./inp_files/692.got.cif
#   From: 2010.05.17/outbox.cif.g08.bks.cpg/sg61_1_cif.got.tgz:692.got - 2010.06.03 15:17:17.
