data_PCOD9459527
_publ_section_title
;
Structure prediction by ZEFSAII (Michael W. Deem and Ramdas Pophale) SiO2 
 PCOD9459527
Probable space group: P B C A
;
_chemical_formula_sum "Si O2"
_cell_formula_units_Z 48
_cell_length_a 12.384488
_cell_length_b 11.494406
_cell_length_c 13.149203
_cell_angle_alpha 90.000000
_cell_angle_beta 90.000000
_cell_angle_gamma 90.000000
_cell_volume 1871.819726
_symmetry_space_group_name_H-M "P B C A"
_symmetry_group_IT_number 61
_symmetry_cell_setting 'orthorhombic'
loop_
_space_group_symop_operation_xyz
x,y,z
1/2-x,-y,1/2+z
1/2+x,1/2-y,-z
-x,1/2+y,1/2-z
-x,-y,-z
1/2+x,y,1/2-z
1/2-x,1/2+y,z
x,1/2-y,1/2+z
loop_
_atom_site_type_symbol
_atom_site_label
_atom_site_fract_x
_atom_site_fract_y
_atom_site_fract_z
Si Si1 0.217403 0.402665 0.041215
Si Si2 0.414048 0.655227 0.735511
Si Si3 0.942116 0.188140 0.106486
Si Si4 0.080474 0.992876 0.149924
Si Si5 0.754407 0.853389 0.739988
Si Si6 0.804240 0.163270 0.474396
O O1 0.131826 0.404072 0.133580
O O2 0.337785 0.413300 0.088546
O O3 0.206402 0.529340 0.987626
O O4 0.216654 0.267899 0.003198
O O5 0.506454 0.744400 0.701218
O O6 0.475517 0.569019 0.808246
O O7 0.315036 0.730910 0.777357
O O8 0.833482 0.129959 0.152498
O O9 0.034463 0.096336 0.079779
O O10 0.911464 0.283331 0.023481
O O11 0.153095 0.049547 0.240643
O O12 0.700572 0.846030 0.851979
#
# Coordination Sequence:
#
# PCOD9459527 Si02
#       6
#     8   8   8   8   8   8
#     4  10  22  42  62  90 134 164 204 274 322 372
#     4  10  20  37  63  91 123 167 215 263 322 388
#     4  11  23  39  64  92 119 169 219 252 324 400
#     4  10  20  37  63  91 123 167 215 263 322 388
#     4   9  21  41  58  88 133 163 207 276 320 372
#     4  10  22  40  62  90 126 166 208 260 314 374
#
# _framework density 25.643494
#
# number of rings (size 3 to 8) (size 9 to 14) (size 15 to 20)
#    0.000    2.000    0.000    5.000    0.000    5.333 
#    0.000   23.333    0.000    0.000    0.000    0.000 
#    0.000    0.000    0.000    0.000    0.000    0.000 
#
# Total GULP energy -268024.470190 kJ/mol
# GULP energy per Si atom -5583.843129 kJ/mol
# Density = 2.558513 g / cm^3
# Si number density = 25.643494 Si / 1000 Ang^3
#
#
#
# Elastic Constant Matrix: (Units=GPa)
#
#
# Indices 1 2 3 4 5 6 
#
# 1 91.7159 34.4355 15.0232 0.0000 0.0000 0.0000
# 2 34.4355 151.3906 14.0065 0.0000 0.0000 0.0000
# 3 15.0232 14.0065 66.8671 0.0000 0.0000 0.0000
# 4 0.0000 0.0000 0.0000 22.0093 0.0000 0.0000
# 5 0.0000 0.0000 0.0000 0.0000 41.9485 0.0000
# 6 0.0000 0.0000 0.0000 0.0000 0.0000 47.3332
#
#
#
# Elastic Compliance Matrix: (Units=1/GPa)
#
#
# Indices 1 2 3 4 5 6 
#
# 1 0.012233 -0.002578 -0.002208 0.000000 0.000000 0.000000
# 2 -0.002578 0.007279 -0.000946 0.000000 0.000000 0.000000
# 3 -0.002208 -0.000946 0.015649 0.000000 0.000000 0.000000
# 4 0.000000 0.000000 0.000000 0.045435 0.000000 0.000000
# 5 0.000000 0.000000 0.000000 0.000000 0.023839 0.000000
# 6 0.000000 0.000000 0.000000 0.000000 0.000000 0.021127
#
#
# Mechanical properties :
#
#
# Convention : Reuss Voigt Hill
#
# Bulk Modulus (GPa) = 42.19877 48.54487 45.37182
# Shear Modulus (GPa) = 34.50042 38.69209 36.59626
#
# Velocity S-wave (km/s) = 3.67193 3.88860 3.78182
# Velocity P-wave (km/s) = 5.87104 6.25567 6.06640
#
# Compressibility (1/GPa) = 0.02369737
#
# Stress axis : x y z
#
# Youngs Moduli (GPa) = 81.74622 137.37477 63.90083
#
# Poissons Ratio (x) = 0.35418 0.14112
# Poissons Ratio (y) = 0.21076 0.06042
# Poissons Ratio (z) = 0.18052 0.12989
#
# Static dielectric constant tensor:
#      x y z
#    x 1.984290 0.000000 0.000000 
#    y 0.000000 2.102600 0.000000 
#    z 0.000000 0.000000 2.072970 
# 
# From -- ./inp_files/9160.got.cif
#   From: 2010.05.17/outbox.cif.g08.bks.cpg/sg61_5_cif.got.tgz:9160.got - 2010.06.03 15:17:17.
