data_PCOD9459707
_publ_section_title
;
Structure prediction by ZEFSAII (Michael W. Deem and Ramdas Pophale) SiO2 
 PCOD9459707
Probable space group: P B C A
;
_chemical_formula_sum "Si O2"
_cell_formula_units_Z 56
_cell_length_a 21.818874
_cell_length_b 7.913458
_cell_length_c 13.767473
_cell_angle_alpha 90.000000
_cell_angle_beta 90.000000
_cell_angle_gamma 90.000000
_cell_volume 2377.129652
_symmetry_space_group_name_H-M "P B C A"
_symmetry_group_IT_number 61
_symmetry_cell_setting 'orthorhombic'
loop_
_space_group_symop_operation_xyz
x,y,z
1/2-x,-y,1/2+z
1/2+x,1/2-y,-z
-x,1/2+y,1/2-z
-x,-y,-z
1/2+x,y,1/2-z
1/2-x,1/2+y,z
x,1/2-y,1/2+z
loop_
_atom_site_type_symbol
_atom_site_label
_atom_site_fract_x
_atom_site_fract_y
_atom_site_fract_z
Si Si1 0.192759 0.560994 0.845835
Si Si2 0.486537 0.694939 0.631161
Si Si3 0.771173 0.103495 0.865089
Si Si4 0.569077 0.996995 0.693050
Si Si5 0.913309 0.544455 0.035461
Si Si6 0.655800 0.574232 0.361083
Si Si7 0.179319 0.944787 0.924376
O O1 0.192728 0.543068 0.730362
O O2 0.146442 0.431536 0.898133
O O3 0.177699 0.748099 0.888159
O O4 0.262913 0.525882 0.871059
O O5 0.518016 0.874087 0.649396
O O6 0.456849 0.640231 0.734666
O O7 0.536425 0.549985 0.601731
O O8 0.442259 0.685014 0.536404
O O9 0.787717 0.300657 0.865487
O O10 0.697118 0.093889 0.860778
O O11 0.802667 0.041157 0.963509
O O12 0.613185 0.899058 0.769363
O O13 0.616659 0.034974 0.607237
O O14 0.888162 0.415522 0.952855
#
# Coordination Sequence:
#
# PCOD9459707 Si02
#       7
#     8   8   8   8   8   8   8
#     4  12  22  40  67  99 140 179 212 279 351 414
#     4  10  22  41  72  91 134 181 240 268 347 385
#     4  12  20  37  62 102 132 183 203 274 339 431
#     4  11  22  44  63 100 130 187 225 296 319 416
#     4  10  20  41  66  96 126 190 218 278 329 422
#     4  11  21  37  67  93 139 169 225 264 357 401
#     4  12  23  40  68 101 143 173 223 279 352 411
#
# _framework density 23.557825000000001
#
# number of rings (size 3 to 8) (size 9 to 14) (size 15 to 20)
#    0.000    0.857    7.143    0.000    0.000    0.000 
#    2.571    4.286    0.000   11.143    0.000    0.000 
#    0.000    0.000    0.000    0.000    0.000    0.000 
#
# Total GULP energy -312502.434744 kJ/mol
# GULP energy per Si atom -5580.400620 kJ/mol
# Density = 2.350421 g / cm^3
# Si number density = 23.557825 Si / 1000 Ang^3
#
#
#
# Elastic Constant Matrix: (Units=GPa)
#
#
# Indices 1 2 3 4 5 6 
#
# 1 108.1500 25.7981 31.8712 0.0000 0.0000 0.0000
# 2 25.7981 38.0424 14.1577 0.0000 0.0000 0.0000
# 3 31.8712 14.1577 157.8576 0.0000 0.0000 0.0000
# 4 0.0000 0.0000 0.0000 11.7243 0.0000 0.0000
# 5 0.0000 0.0000 0.0000 0.0000 28.3337 0.0000
# 6 0.0000 0.0000 0.0000 0.0000 0.0000 18.9925
#
#
#
# Elastic Compliance Matrix: (Units=1/GPa)
#
#
# Indices 1 2 3 4 5 6 
#
# 1 0.011441 -0.007137 -0.001670 0.000000 0.000000 0.000000
# 2 -0.007137 0.031646 -0.001397 0.000000 0.000000 0.000000
# 3 -0.001670 -0.001397 0.006797 0.000000 0.000000 0.000000
# 4 0.000000 0.000000 0.000000 0.085293 0.000000 0.000000
# 5 0.000000 0.000000 0.000000 0.000000 0.035294 0.000000
# 6 0.000000 0.000000 0.000000 0.000000 0.000000 0.052652
#
#
# Mechanical properties :
#
#
# Convention : Reuss Voigt Hill
#
# Bulk Modulus (GPa) = 33.92564 49.74489 41.83527
# Shear Modulus (GPa) = 19.73493 27.29163 23.51328
#
# Velocity S-wave (km/s) = 2.89748 3.40736 3.16271
# Velocity P-wave (km/s) = 5.06223 6.05327 5.57979
#
# Compressibility (1/GPa) = 0.02947623
#
# Stress axis : x y z
#
# Youngs Moduli (GPa) = 87.40498 31.59907 147.11785
#
# Poissons Ratio (x) = 0.22553 0.24566
# Poissons Ratio (y) = 0.62382 0.20557
# Poissons Ratio (z) = 0.14595 0.04415
#
# Static dielectric constant tensor:
#      x y z
#    x 1.915420 0.000000 0.000000 
#    y 0.000000 2.436500 0.000000 
#    z 0.000000 0.000000 1.953030 
# 
# From -- ./inp_files/8388.got.cif
#   From: 2010.05.17/outbox.cif.g08.bks.cpg/sg61_5_cif.got.tgz:8388.got - 2010.06.03 15:17:17.
