data_PCOD9459552
_publ_section_title
;
Structure prediction by ZEFSAII (Michael W. Deem and Ramdas Pophale) SiO2 
 PCOD9459552
Probable space group: P B C A
;
_chemical_formula_sum "Si O2"
_cell_formula_units_Z 64
_cell_length_a 7.642157
_cell_length_b 24.988429
_cell_length_c 14.104849
_cell_angle_alpha 90.000000
_cell_angle_beta 90.000000
_cell_angle_gamma 90.000000
_cell_volume 2693.539508
_symmetry_space_group_name_H-M "P B C A"
_symmetry_group_IT_number 61
_symmetry_cell_setting 'orthorhombic'
loop_
_space_group_symop_operation_xyz
x,y,z
1/2-x,-y,1/2+z
1/2+x,1/2-y,-z
-x,1/2+y,1/2-z
-x,-y,-z
1/2+x,y,1/2-z
1/2-x,1/2+y,z
x,1/2-y,1/2+z
loop_
_atom_site_type_symbol
_atom_site_label
_atom_site_fract_x
_atom_site_fract_y
_atom_site_fract_z
Si Si1 0.943160 0.042857 0.319296
Si Si2 0.770245 0.033095 0.680892
Si Si3 0.235401 0.774225 0.450067
Si Si4 0.529565 0.894485 0.334149
Si Si5 0.533408 0.290474 0.287145
Si Si6 0.412895 0.164531 0.488498
Si Si7 0.359623 0.886050 0.673070
Si Si8 0.840261 0.219290 0.346840
O O1 0.780745 0.071596 0.369876
O O2 0.057796 0.088133 0.266759
O O3 0.853014 0.009584 0.234026
O O4 0.075435 0.000942 0.368483
O O5 0.638517 0.072645 0.627270
O O6 0.858620 0.068275 0.764468
O O7 0.421690 0.801653 0.468340
O O8 0.130438 0.793288 0.543721
O O9 0.131571 0.792349 0.357510
O O10 0.219717 0.709714 0.452381
O O11 0.460061 0.845812 0.268628
O O12 0.638942 0.872769 0.423534
O O13 0.700378 0.268627 0.343493
O O14 0.497835 0.242942 0.212172
O O15 0.491874 0.130960 0.401553
O O16 0.249251 0.832892 0.695783
#
# Coordination Sequence:
#
# PCOD9459552 Si02
#       8
#     8   8   8   8   8   8   8   8
#     4   9  19  40  62  86 114 149 210 262 309 374
#     4   9  20  38  64  86 113 149 207 264 308 365
#     4  11  22  40  52  88 135 168 205 254 297 364
#     4  11  21  38  62  91 116 166 206 251 313 375
#     4  12  22  37  62  88 126 172 206 245 311 373
#     4  11  23  39  57  87 131 163 208 256 300 377
#     4  10  20  38  60  86 119 162 197 255 316 363
#     4  11  23  36  57  92 125 167 206 249 298 382
#
# _framework density 23.760556999999999
#
# number of rings (size 3 to 8) (size 9 to 14) (size 15 to 20)
#    0.000    1.500    3.750    3.000    0.000    0.000 
#    0.000    6.250    0.000    1.500    0.000    0.000 
#    0.000    0.000    0.000    0.000    0.000    0.000 
#
# Total GULP energy -357646.125669 kJ/mol
# GULP energy per Si atom -5588.220714 kJ/mol
# Density = 2.370648 g / cm^3
# Si number density = 23.760557 Si / 1000 Ang^3
#
#
#
# Elastic Constant Matrix: (Units=GPa)
#
#
# Indices 1 2 3 4 5 6 
#
# 1 49.1522 11.9371 -7.2137 0.0000 0.0000 0.0000
# 2 11.9371 97.4839 12.8570 0.0000 0.0000 0.0000
# 3 -7.2137 12.8570 59.9816 0.0000 0.0000 0.0000
# 4 0.0000 0.0000 0.0000 8.2452 0.0000 0.0000
# 5 0.0000 0.0000 0.0000 0.0000 21.9709 0.0000
# 6 0.0000 0.0000 0.0000 0.0000 0.0000 62.6423
#
#
#
# Elastic Compliance Matrix: (Units=1/GPa)
#
#
# Indices 1 2 3 4 5 6 
#
# 1 0.021568 -0.003070 0.003252 0.000000 0.000000 0.000000
# 2 -0.003070 0.010993 -0.002726 0.000000 0.000000 0.000000
# 3 0.003252 -0.002726 0.017647 0.000000 0.000000 0.000000
# 4 0.000000 0.000000 0.000000 0.121282 0.000000 0.000000
# 5 0.000000 0.000000 0.000000 0.000000 0.045515 0.000000
# 6 0.000000 0.000000 0.000000 0.000000 0.000000 0.015964
#
#
# Mechanical properties :
#
#
# Convention : Reuss Voigt Hill
#
# Bulk Modulus (GPa) = 22.16260 26.86427 24.51343
# Shear Modulus (GPa) = 19.75531 31.17418 25.46475
#
# Velocity S-wave (km/s) = 2.88659 3.62610 3.27727
# Velocity P-wave (km/s) = 4.52300 5.37236 4.96588
#
# Compressibility (1/GPa) = 0.04512106
#
# Stress axis : x y z
#
# Youngs Moduli (GPa) = 46.36542 90.96285 56.66651
#
# Poissons Ratio (x) = 0.27925 -0.18427
# Poissons Ratio (y) = 0.14234 0.15445
# Poissons Ratio (z) = -0.15077 0.24793
#
# Static dielectric constant tensor:
#      x y z
#    x 1.983480 0.000000 0.000000 
#    y 0.000000 1.929810 0.000000 
#    z 0.000000 0.000000 1.908370 
# 
# From -- ./inp_files/4327.got.cif
#   From: 2010.05.17/outbox.cif.g08.bks.cpg/sg61_3_cif.got.tgz:4327.got - 2010.06.03 15:17:17.
