data_PCOD9459364
_publ_section_title
;
Structure prediction by ZEFSAII (Michael W. Deem and Ramdas Pophale) SiO2 
 PCOD9459364
Probable space group: P B C A
;
_chemical_formula_sum "Si O2"
_cell_formula_units_Z 56
_cell_length_a 19.677303
_cell_length_b 13.844238
_cell_length_c 8.779085
_cell_angle_alpha 90.000000
_cell_angle_beta 90.000000
_cell_angle_gamma 90.000000
_cell_volume 2391.574333
_symmetry_space_group_name_H-M "P B C A"
_symmetry_group_IT_number 61
_symmetry_cell_setting 'orthorhombic'
loop_
_space_group_symop_operation_xyz
x,y,z
1/2-x,-y,1/2+z
1/2+x,1/2-y,-z
-x,1/2+y,1/2-z
-x,-y,-z
1/2+x,y,1/2-z
1/2-x,1/2+y,z
x,1/2-y,1/2+z
loop_
_atom_site_type_symbol
_atom_site_label
_atom_site_fract_x
_atom_site_fract_y
_atom_site_fract_z
Si Si1 0.265541 0.907138 0.629222
Si Si2 0.967636 0.180237 0.352392
Si Si3 0.874341 0.238256 0.093145
Si Si4 0.224466 0.809119 0.150638
Si Si5 0.681329 0.038369 0.699411
Si Si6 0.077216 0.172670 0.910909
Si Si7 0.395504 0.862293 0.766511
O O1 0.259895 0.792342 0.611071
O O2 0.283147 0.952052 0.466074
O O3 0.329191 0.927107 0.743934
O O4 0.197425 0.940348 0.713382
O O5 0.926594 0.179239 0.196519
O O6 0.916236 0.184293 0.492323
O O7 0.004162 0.286918 0.362047
O O8 0.033478 0.110332 0.349223
O O9 0.821693 0.292429 0.201387
O O10 0.829876 0.171705 0.981842
O O11 0.279850 0.888244 0.186987
O O12 0.605640 0.077500 0.670459
O O13 0.123715 0.262982 0.853875
O O14 0.083095 0.161716 0.091949
#
# Coordination Sequence:
#
# PCOD9459364 Si02
#       7
#     8   8   8   8   8   8   8
#     4  11  24  39  60  90 121 156 196 246 303 352
#     4   9  15  34  54  92 103 153 204 238 280 351
#     4  10  20  30  62  84 118 154 196 232 298 354
#     4  11  21  40  58  90 119 157 192 240 302 359
#     4  11  24  39  60  90 121 156 196 246 303 352
#     4   9  17  32  58  84 111 143 194 241 280 338
#     4   9  17  32  58  84 111 143 194 241 280 338
#
# _framework density 23.415538999999999
#
# number of rings (size 3 to 8) (size 9 to 14) (size 15 to 20)
#    0.857    1.143    4.286    0.000    2.000    1.143 
#    0.000    0.000    0.000   10.286    0.000    0.000 
#    0.000    0.000    0.000    0.000    0.000    0.000 
#
# Total GULP energy -312402.455358 kJ/mol
# GULP energy per Si atom -5578.615274 kJ/mol
# Density = 2.336224 g / cm^3
# Si number density = 23.415539 Si / 1000 Ang^3
#
#
#
# Elastic Constant Matrix: (Units=GPa)
#
#
# Indices 1 2 3 4 5 6 
#
# 1 82.4972 9.1189 23.3178 0.0000 0.0000 0.0000
# 2 9.1189 36.4493 9.2859 0.0000 0.0000 0.0000
# 3 23.3178 9.2859 71.9573 0.0000 0.0000 0.0000
# 4 0.0000 0.0000 0.0000 17.6306 0.0000 0.0000
# 5 0.0000 0.0000 0.0000 0.0000 45.8386 0.0000
# 6 0.0000 0.0000 0.0000 0.0000 0.0000 16.3304
#
#
#
# Elastic Compliance Matrix: (Units=1/GPa)
#
#
# Indices 1 2 3 4 5 6 
#
# 1 0.013535 -0.002346 -0.004083 0.000000 0.000000 0.000000
# 2 -0.002346 0.028775 -0.002953 0.000000 0.000000 0.000000
# 3 -0.004083 -0.002953 0.015601 0.000000 0.000000 0.000000
# 4 0.000000 0.000000 0.000000 0.056719 0.000000 0.000000
# 5 0.000000 0.000000 0.000000 0.000000 0.021816 0.000000
# 6 0.000000 0.000000 0.000000 0.000000 0.000000 0.061236
#
#
# Mechanical properties :
#
#
# Convention : Reuss Voigt Hill
#
# Bulk Modulus (GPa) = 25.54510 30.48323 28.01416
# Shear Modulus (GPa) = 21.78693 25.90533 23.84613
#
# Velocity S-wave (km/s) = 3.05363 3.32976 3.19468
# Velocity P-wave (km/s) = 4.83384 5.27539 5.05944
#
# Compressibility (1/GPa) = 0.03914645
#
# Stress axis : x y z
#
# Youngs Moduli (GPa) = 73.88211 34.75284 64.09667
#
# Poissons Ratio (x) = 0.08153 0.26173
# Poissons Ratio (y) = 0.17332 0.18928
# Poissons Ratio (z) = 0.30168 0.10263
#
# Static dielectric constant tensor:
#      x y z
#    x 1.925130 0.000000 0.000000 
#    y 0.000000 1.931800 0.000000 
#    z 0.000000 0.000000 1.872670 
# 
# From -- ./inp_files/4362.got.cif
#   From: 2010.05.17/outbox.cif.g08.bks.cpg/sg61_3_cif.got.tgz:4362.got - 2010.06.03 15:17:17.
