data_PCOD9459318
_publ_section_title
;
Structure prediction by ZEFSAII (Michael W. Deem and Ramdas Pophale) SiO2 
 PCOD9459318
Probable space group: P B C A
;
_chemical_formula_sum "Si O2"
_cell_formula_units_Z 56
_cell_length_a 12.590747
_cell_length_b 14.131003
_cell_length_c 13.087721
_cell_angle_alpha 90.000000
_cell_angle_beta 90.000000
_cell_angle_gamma 90.000000
_cell_volume 2328.565797
_symmetry_space_group_name_H-M "P B C A"
_symmetry_group_IT_number 61
_symmetry_cell_setting 'orthorhombic'
loop_
_space_group_symop_operation_xyz
x,y,z
1/2-x,-y,1/2+z
1/2+x,1/2-y,-z
-x,1/2+y,1/2-z
-x,-y,-z
1/2+x,y,1/2-z
1/2-x,1/2+y,z
x,1/2-y,1/2+z
loop_
_atom_site_type_symbol
_atom_site_label
_atom_site_fract_x
_atom_site_fract_y
_atom_site_fract_z
Si Si1 0.268500 0.117421 0.780278
Si Si2 0.931049 0.434501 0.385401
Si Si3 0.859467 0.052083 0.173771
Si Si4 0.211601 0.258692 0.627243
Si Si5 0.365016 0.125948 0.996308
Si Si6 0.517039 0.799476 0.576199
Si Si7 0.219130 0.440634 0.012844
O O1 0.380634 0.103177 0.720883
O O2 0.220143 0.214544 0.738947
O O3 0.282508 0.124780 0.901131
O O4 0.191556 0.028081 0.752408
O O5 0.958640 0.355679 0.470816
O O6 0.827046 0.483103 0.435821
O O7 0.035916 0.495499 0.367563
O O8 0.910377 0.157486 0.167715
O O9 0.755599 0.069465 0.103705
O O10 0.310549 0.320841 0.591098
O O11 0.208250 0.163017 0.558942
O O12 0.102817 0.311480 0.609738
O O13 0.458124 0.190848 0.952395
O O14 0.375332 0.015588 0.022356
#
# Coordination Sequence:
#
# PCOD9459318 Si02
#       7
#     8   8   8   8   8   8   8
#     4  10  23  39  64  93 137 167 218 285 329 388
#     4  10  19  40  67  93 121 171 227 264 331 401
#     4  10  19  39  63  91 120 169 218 266 328 390
#     4  11  22  43  64  98 132 176 225 275 330 395
#     4  11  21  41  65  91 135 167 216 276 329 394
#     4  11  21  38  68  93 125 172 222 261 332 407
#     4   9  19  38  63  89 124 165 207 272 331 380
#
# _framework density 24.049137999999999
#
# number of rings (size 3 to 8) (size 9 to 14) (size 15 to 20)
#    0.000    1.714    4.286    4.286    2.000    0.571 
#    7.714    0.000    0.000    0.000    0.000    0.000 
#    0.000    0.000    0.000    0.000    0.000    0.000 
#
# Total GULP energy -312003.444266 kJ/mol
# GULP energy per Si atom -5571.490076 kJ/mol
# Density = 2.399440 g / cm^3
# Si number density = 24.049138 Si / 1000 Ang^3
#
#
#
# Elastic Constant Matrix: (Units=GPa)
#
#
# Indices 1 2 3 4 5 6 
#
# 1 57.3419 14.2038 -3.4956 0.0000 0.0000 0.0000
# 2 14.2038 66.2090 -8.8850 0.0000 0.0000 0.0000
# 3 -3.4956 -8.8850 50.3161 0.0000 0.0000 0.0000
# 4 0.0000 0.0000 0.0000 37.6983 0.0000 0.0000
# 5 0.0000 0.0000 0.0000 0.0000 9.7031 0.0000
# 6 0.0000 0.0000 0.0000 0.0000 0.0000 42.4176
#
#
#
# Elastic Compliance Matrix: (Units=1/GPa)
#
#
# Indices 1 2 3 4 5 6 
#
# 1 0.018435 -0.003875 0.000597 0.000000 0.000000 0.000000
# 2 -0.003875 0.016285 0.002606 0.000000 0.000000 0.000000
# 3 0.000597 0.002606 0.020376 0.000000 0.000000 0.000000
# 4 0.000000 0.000000 0.000000 0.026526 0.000000 0.000000
# 5 0.000000 0.000000 0.000000 0.000000 0.103060 0.000000
# 6 0.000000 0.000000 0.000000 0.000000 0.000000 0.023575
#
#
# Mechanical properties :
#
#
# Convention : Reuss Voigt Hill
#
# Bulk Modulus (GPa) = 18.60387 19.72373 19.16380
# Shear Modulus (GPa) = 21.97615 29.43337 25.70476
#
# Velocity S-wave (km/s) = 3.02620 3.50220 3.27286
# Velocity P-wave (km/s) = 4.46800 4.95713 4.71891
#
# Compressibility (1/GPa) = 0.05375225
#
# Stress axis : x y z
#
# Youngs Moduli (GPa) = 54.24333 61.40718 49.07720
#
# Poissons Ratio (x) = 0.23795 -0.02927
# Poissons Ratio (y) = 0.21019 -0.12792
# Poissons Ratio (z) = -0.03236 -0.16005
#
# Static dielectric constant tensor:
#      x y z
#    x 1.896600 0.000000 0.000000 
#    y 0.000000 2.008370 0.000000 
#    z 0.000000 0.000000 2.001990 
# 
# From -- ./inp_files/7927.got.cif
#   From: 2010.05.17/outbox.cif.g08.bks.cpg/sg61_4_cif.got.tgz:7927.got - 2010.06.03 15:17:17.
