data_PCOD9459859
_publ_section_title
;
Structure prediction by ZEFSAII (Michael W. Deem and Ramdas Pophale) SiO2 
 PCOD9459859
Probable space group: P B C A
;
_chemical_formula_sum "Si O2"
_cell_formula_units_Z 64
_cell_length_a 30.009625
_cell_length_b 16.782569
_cell_length_c 5.492395
_cell_angle_alpha 90.000000
_cell_angle_beta 90.000000
_cell_angle_gamma 90.000000
_cell_volume 2766.182141
_symmetry_space_group_name_H-M "P B C A"
_symmetry_group_IT_number 61
_symmetry_cell_setting 'orthorhombic'
loop_
_space_group_symop_operation_xyz
x,y,z
1/2-x,-y,1/2+z
1/2+x,1/2-y,-z
-x,1/2+y,1/2-z
-x,-y,-z
1/2+x,y,1/2-z
1/2-x,1/2+y,z
x,1/2-y,1/2+z
loop_
_atom_site_type_symbol
_atom_site_label
_atom_site_fract_x
_atom_site_fract_y
_atom_site_fract_z
Si Si1 0.125922 0.921804 0.981742
Si Si2 0.955621 0.197266 0.062392
Si Si3 0.143869 0.237737 0.440202
Si Si4 0.696283 0.963857 0.901575
Si Si5 0.349122 0.923808 0.714341
Si Si6 0.802480 0.298347 0.363367
Si Si7 0.228536 0.386403 0.366272
Si Si8 0.546010 0.290519 0.073809
O O1 0.082455 0.868572 0.956260
O O2 0.161871 0.870869 0.138521
O O3 0.119129 0.010754 0.090221
O O4 0.151321 0.935355 0.727451
O O5 0.951799 0.257363 0.825601
O O6 0.004823 0.157117 0.021807
O O7 0.167920 0.236805 0.695397
O O8 0.130973 0.145306 0.385279
O O9 0.099619 0.293906 0.448263
O O10 0.722460 0.023737 0.726539
O O11 0.729690 0.891911 0.950054
O O12 0.682506 0.021219 0.121539
O O13 0.317270 0.880141 0.517145
O O14 0.809860 0.255347 0.622932
O O15 0.752124 0.333357 0.341756
O O16 0.539060 0.277881 0.362755
#
# Coordination Sequence:
#
# PCOD9459859 Si02
#       8
#     8   8   8   8   8   8   8   8
#     4  11  24  39  60  96 132 171 225 268 332 397
#     4  10  21  37  66  97 128 170 212 260 321 404
#     4  10  23  43  67  96 128 162 216 271 331 395
#     4  11  21  40  63  84 121 179 222 275 328 391
#     4  11  25  39  68  90 127 180 223 282 328 391
#     4  12  26  40  60  89 129 174 217 283 323 373
#     4  11  22  40  60  83 122 176 229 266 328 389
#     4   8  16  36  64  91 119 164 203 250 321 396
#
# _framework density 23.136583000000002
#
# number of rings (size 3 to 8) (size 9 to 14) (size 15 to 20)
#    0.000    1.500    2.500    2.250    7.000    1.000 
#    0.000    0.000    0.000   13.500    0.000    0.000 
#    0.000    0.000    0.000    0.000    0.000    0.000 
#
# Total GULP energy -356270.499441 kJ/mol
# GULP energy per Si atom -5566.726554 kJ/mol
# Density = 2.308392 g / cm^3
# Si number density = 23.136583 Si / 1000 Ang^3
#
#
#
# Elastic Constant Matrix: (Units=GPa)
#
#
# Indices 1 2 3 4 5 6 
#
# 1 78.4736 0.2921 4.8179 0.0000 0.0000 0.0000
# 2 0.2921 52.8050 44.7387 0.0000 0.0000 0.0000
# 3 4.8179 44.7387 143.4444 0.0000 0.0000 0.0000
# 4 0.0000 0.0000 0.0000 38.8761 0.0000 0.0000
# 5 0.0000 0.0000 0.0000 0.0000 22.8686 0.0000
# 6 0.0000 0.0000 0.0000 0.0000 0.0000 17.8970
#
#
#
# Elastic Compliance Matrix: (Units=1/GPa)
#
#
# Indices 1 2 3 4 5 6 
#
# 1 0.012776 0.000398 -0.000553 0.000000 0.000000 0.000000
# 2 0.000398 0.025751 -0.008045 0.000000 0.000000 0.000000
# 3 -0.000553 -0.008045 0.009499 0.000000 0.000000 0.000000
# 4 0.000000 0.000000 0.000000 0.025723 0.000000 0.000000
# 5 0.000000 0.000000 0.000000 0.000000 0.043728 0.000000
# 6 0.000000 0.000000 0.000000 0.000000 0.000000 0.055875
#
#
# Mechanical properties :
#
#
# Convention : Reuss Voigt Hill
#
# Bulk Modulus (GPa) = 31.61971 41.60226 36.61099
# Shear Modulus (GPa) = 24.96327 30.91998 27.94162
#
# Velocity S-wave (km/s) = 3.28830 3.65966 3.47894
# Velocity P-wave (km/s) = 5.30221 5.98980 5.65646
#
# Compressibility (1/GPa) = 0.03162585
#
# Stress axis : x y z
#
# Youngs Moduli (GPa) = 78.27404 38.83280 105.27360
#
# Poissons Ratio (x) = -0.01546 0.05824
# Poissons Ratio (y) = -0.03116 0.84692
# Poissons Ratio (z) = 0.04331 0.31241
#
# Static dielectric constant tensor:
#      x y z
#    x 1.960880 0.000000 0.000000 
#    y 0.000000 1.965760 0.000000 
#    z 0.000000 0.000000 1.978100 
# 
# From -- ./inp_files/1508.got.cif
#   From: 2010.05.17/outbox.cif.g08.bks.cpg/sg61_1_cif.got.tgz:1508.got - 2010.06.03 15:17:17.
