data_PCOD9459270
_publ_section_title
;
Structure prediction by ZEFSAII (Michael W. Deem and Ramdas Pophale) SiO2 
 PCOD9459270
Probable space group: P B C A
;
_chemical_formula_sum "Si O2"
_cell_formula_units_Z 48
_cell_length_a 8.156568
_cell_length_b 15.710723
_cell_length_c 13.879538
_cell_angle_alpha 90.000000
_cell_angle_beta 90.000000
_cell_angle_gamma 90.000000
_cell_volume 1778.601454
_symmetry_space_group_name_H-M "P B C A"
_symmetry_group_IT_number 61
_symmetry_cell_setting 'orthorhombic'
loop_
_space_group_symop_operation_xyz
x,y,z
1/2-x,-y,1/2+z
1/2+x,1/2-y,-z
-x,1/2+y,1/2-z
-x,-y,-z
1/2+x,y,1/2-z
1/2-x,1/2+y,z
x,1/2-y,1/2+z
loop_
_atom_site_type_symbol
_atom_site_label
_atom_site_fract_x
_atom_site_fract_y
_atom_site_fract_z
Si Si1 0.115868 0.883255 0.130131
Si Si2 0.794731 0.235948 0.120694
Si Si3 0.697286 0.443129 0.607311
Si Si4 0.907641 0.516579 0.777559
Si Si5 0.679583 0.278956 0.838328
Si Si6 0.182378 0.399603 0.499233
O O1 0.272447 0.940103 0.155973
O O2 0.182403 0.787334 0.124369
O O3 0.003340 0.905632 0.223905
O O4 0.003898 0.909776 0.039561
O O5 0.709145 0.225730 0.224793
O O6 0.741162 0.319721 0.065102
O O7 0.990743 0.240341 0.134349
O O8 0.726106 0.151044 0.068974
O O9 0.832654 0.462659 0.689759
O O10 0.528942 0.458144 0.662674
O O11 0.715699 0.519118 0.531983
O O12 0.700591 0.369783 0.891182
#
# Coordination Sequence:
#
# PCOD9459270 Si02
#       6
#     8   8   8   8   8   8
#     4  10  19  36  64  95 129 174 219 269 334 393
#     4  12  25  43  72 103 135 180 226 276 340 402
#     4  10  21  41  66 100 136 174 226 277 332 398
#     4   9  18  36  65  95 132 177 222 274 332 393
#     4  12  24  42  68  99 135 174 226 278 332 403
#     4  11  25  44  67  98 137 177 223 280 336 396
#
# _framework density 26.987497000000001
#
# number of rings (size 3 to 8) (size 9 to 14) (size 15 to 20)
#    0.000    1.333    0.000    8.000    0.000    0.667 
#    0.000    6.667    0.000   12.000    0.000    0.000 
#    0.000    0.000    0.000    0.000    0.000    0.000 
#
# Total GULP energy -269545.555784 kJ/mol
# GULP energy per Si atom -5615.532412 kJ/mol
# Density = 2.692607 g / cm^3
# Si number density = 26.987497 Si / 1000 Ang^3
#
#
#
# Elastic Constant Matrix: (Units=GPa)
#
#
# Indices 1 2 3 4 5 6 
#
# 1 132.3579 41.6300 23.4829 0.0000 0.0000 0.0000
# 2 41.6300 144.3953 41.8183 0.0000 0.0000 0.0000
# 3 23.4829 41.8183 117.9930 0.0000 0.0000 0.0000
# 4 0.0000 0.0000 0.0000 49.6651 0.0000 0.0000
# 5 0.0000 0.0000 0.0000 0.0000 37.1407 0.0000
# 6 0.0000 0.0000 0.0000 0.0000 0.0000 43.4351
#
#
#
# Elastic Compliance Matrix: (Units=1/GPa)
#
#
# Indices 1 2 3 4 5 6 
#
# 1 0.008395 -0.002158 -0.000906 0.000000 0.000000 0.000000
# 2 -0.002158 0.008272 -0.002502 0.000000 0.000000 0.000000
# 3 -0.000906 -0.002502 0.009542 0.000000 0.000000 0.000000
# 4 0.000000 0.000000 0.000000 0.020135 0.000000 0.000000
# 5 0.000000 0.000000 0.000000 0.000000 0.026925 0.000000
# 6 0.000000 0.000000 0.000000 0.000000 0.000000 0.023023
#
#
# Mechanical properties :
#
#
# Convention : Reuss Voigt Hill
#
# Bulk Modulus (GPa) = 66.32656 67.62318 66.97487
# Shear Modulus (GPa) = 44.46440 45.23585 44.85012
#
# Velocity S-wave (km/s) = 4.06346 4.09856 4.08105
# Velocity P-wave (km/s) = 6.82977 6.89269 6.86130
#
# Compressibility (1/GPa) = 0.01507692
#
# Stress axis : x y z
#
# Youngs Moduli (GPa) = 119.12261 120.88590 104.79717
#
# Poissons Ratio (x) = 0.26086 0.09494
# Poissons Ratio (y) = 0.25705 0.26224
# Poissons Ratio (z) = 0.10792 0.30250
#
# Static dielectric constant tensor:
#      x y z
#    x 2.100010 0.000000 0.000000 
#    y 0.000000 2.106500 0.000000 
#    z 0.000000 0.000000 2.124350 
# 
# From -- ./inp_files/7035.got.cif
#   From: 2010.05.17/outbox.cif.g08.bks.cpg/sg61_4_cif.got.tgz:7035.got - 2010.06.03 15:17:17.
