data_PCOD9459852
_publ_section_title
;
Structure prediction by ZEFSAII (Michael W. Deem and Ramdas Pophale) SiO2 
 PCOD9459852
Probable space group: P B C A
;
_chemical_formula_sum "Si O2"
_cell_formula_units_Z 56
_cell_length_a 10.827883
_cell_length_b 12.373933
_cell_length_c 18.878736
_cell_angle_alpha 90.000000
_cell_angle_beta 90.000000
_cell_angle_gamma 90.000000
_cell_volume 2529.439102
_symmetry_space_group_name_H-M "P B C A"
_symmetry_group_IT_number 61
_symmetry_cell_setting 'orthorhombic'
loop_
_space_group_symop_operation_xyz
x,y,z
1/2-x,-y,1/2+z
1/2+x,1/2-y,-z
-x,1/2+y,1/2-z
-x,-y,-z
1/2+x,y,1/2-z
1/2-x,1/2+y,z
x,1/2-y,1/2+z
loop_
_atom_site_type_symbol
_atom_site_label
_atom_site_fract_x
_atom_site_fract_y
_atom_site_fract_z
Si Si1 0.315331 0.473837 0.006774
Si Si2 0.579290 0.059445 0.344312
Si Si3 0.111565 0.156436 0.556276
Si Si4 0.888714 0.280731 0.591016
Si Si5 0.136469 0.312965 0.424053
Si Si6 0.483387 0.166159 0.707866
Si Si7 0.784534 0.744065 0.799582
O O1 0.380109 0.513867 0.078724
O O2 0.171468 0.451265 0.024599
O O3 0.368236 0.360140 0.977037
O O4 0.336160 0.563956 0.946757
O O5 0.468917 0.144296 0.357452
O O6 0.690158 0.129116 0.311338
O O7 0.538107 0.962162 0.294853
O O8 0.122619 0.248494 0.496758
O O9 0.196073 0.188431 0.623302
O O10 0.969916 0.172842 0.578239
O O11 0.754316 0.241971 0.613311
O O12 0.021405 0.302654 0.372348
O O13 0.352492 0.218701 0.726765
O O14 0.601932 0.197720 0.753789
#
# Coordination Sequence:
#
# PCOD9459852 Si02
#       7
#     8   8   8   8   8   8   8
#     4  11  19  39  70 106 136 187 228 289 364 425
#     4  11  22  44  74  96 137 189 231 288 361 420
#     4  10  22  39  69 104 140 178 233 298 340 424
#     4  10  21  37  65 106 145 175 230 290 352 421
#     4  11  23  39  73 107 141 183 238 287 360 421
#     4  12  27  49  74 102 143 195 237 296 360 435
#     4  11  27  46  71 104 143 186 246 290 355 424
#
# _framework density 22.139295000000001
#
# number of rings (size 3 to 8) (size 9 to 14) (size 15 to 20)
#    0.000    1.143    5.714    1.286    6.000    1.714 
#    0.000    1.429    0.000    0.000    0.000    0.000 
#    0.000    0.000    0.000    0.000    0.000    0.000 
#
# Total GULP energy -312836.171063 kJ/mol
# GULP energy per Si atom -5586.360198 kJ/mol
# Density = 2.208891 g / cm^3
# Si number density = 22.139295 Si / 1000 Ang^3
#
#
#
# Elastic Constant Matrix: (Units=GPa)
#
#
# Indices 1 2 3 4 5 6 
#
# 1 155.6338 51.8294 35.5782 0.0000 0.0000 0.0000
# 2 51.8294 67.5911 32.5152 0.0000 0.0000 0.0000
# 3 35.5782 32.5152 80.2984 0.0000 0.0000 0.0000
# 4 0.0000 0.0000 0.0000 22.8187 0.0000 0.0000
# 5 0.0000 0.0000 0.0000 0.0000 33.7074 0.0000
# 6 0.0000 0.0000 0.0000 0.0000 0.0000 33.9443
#
#
#
# Elastic Compliance Matrix: (Units=1/GPa)
#
#
# Indices 1 2 3 4 5 6 
#
# 1 0.008761 -0.006024 -0.001442 0.000000 0.000000 0.000000
# 2 -0.006024 0.022516 -0.006448 0.000000 0.000000 0.000000
# 3 -0.001442 -0.006448 0.015704 0.000000 0.000000 0.000000
# 4 0.000000 0.000000 0.000000 0.043824 0.000000 0.000000
# 5 0.000000 0.000000 0.000000 0.000000 0.029667 0.000000
# 6 0.000000 0.000000 0.000000 0.000000 0.000000 0.029460
#
#
# Mechanical properties :
#
#
# Convention : Reuss Voigt Hill
#
# Bulk Modulus (GPa) = 52.21604 60.37432 56.29518
# Shear Modulus (GPa) = 27.15231 30.33411 28.74321
#
# Velocity S-wave (km/s) = 3.50584 3.70557 3.60709
# Velocity P-wave (km/s) = 6.32648 6.75557 6.54454
#
# Compressibility (1/GPa) = 0.01915120
#
# Stress axis : x y z
#
# Youngs Moduli (GPa) = 114.13793 44.41214 63.67894
#
# Poissons Ratio (x) = 0.26755 0.09186
# Poissons Ratio (y) = 0.68761 0.41062
# Poissons Ratio (z) = 0.16464 0.28638
#
# Static dielectric constant tensor:
#      x y z
#    x 1.852050 0.000000 0.000000 
#    y 0.000000 1.796040 0.000000 
#    z 0.000000 0.000000 1.845950 
# 
# From -- ./inp_files/10295.got.cif
#   From: 2010.05.17/outbox.cif.g08.bks.cpg/sg61_6_cif.got.tgz:10295.got - 2010.06.03 15:17:17.
