data_PCOD9459047
_publ_section_title
;
Structure prediction by ZEFSAII (Michael W. Deem and Ramdas Pophale) SiO2 
 PCOD9459047
Probable space group: P B C A
;
_chemical_formula_sum "Si O2"
_cell_formula_units_Z 64
_cell_length_a 19.694640
_cell_length_b 8.762480
_cell_length_c 20.582770
_cell_angle_alpha 90.000000
_cell_angle_beta 90.000000
_cell_angle_gamma 90.000000
_cell_volume 3552.048667
_symmetry_space_group_name_H-M "P B C A"
_symmetry_group_IT_number 61
_symmetry_cell_setting 'orthorhombic'
loop_
_space_group_symop_operation_xyz
x,y,z
1/2-x,-y,1/2+z
1/2+x,1/2-y,-z
-x,1/2+y,1/2-z
-x,-y,-z
1/2+x,y,1/2-z
1/2-x,1/2+y,z
x,1/2-y,1/2+z
loop_
_atom_site_type_symbol
_atom_site_label
_atom_site_fract_x
_atom_site_fract_y
_atom_site_fract_z
Si Si1 0.421555 0.969098 0.387427
Si Si2 0.002103 0.821546 0.581105
Si Si3 0.843659 0.347391 0.870414
Si Si4 0.008240 0.579087 0.828049
Si Si5 0.161367 0.380665 0.504995
Si Si6 0.527470 0.291355 0.938078
Si Si7 0.583240 0.643079 0.240649
Si Si8 0.737208 0.386783 0.431863
O O1 0.475116 0.830521 0.382779
O O2 0.361596 0.906456 0.431852
O O3 0.462187 0.103809 0.424542
O O4 0.396711 0.039637 0.320461
O O5 0.083175 0.836126 0.592888
O O6 0.984568 0.801852 0.504986
O O7 0.964528 0.964187 0.615828
O O8 0.860221 0.328126 0.794646
O O9 0.809667 0.510222 0.885765
O O10 0.789745 0.222550 0.894427
O O11 0.054186 0.697789 0.787958
O O12 0.962145 0.689280 0.873828
O O13 0.971812 0.462530 0.778825
O O14 0.092851 0.395099 0.547867
O O15 0.190255 0.215402 0.522070
O O16 0.217239 0.500488 0.525847
#
# Coordination Sequence:
#
# PCOD9459047 Si02
#       8
#     8   8   8   8   8   8   8   8
#     4  10  20  34  56  82 111 137 167 218 277 327
#     4  10  18  33  56  84 110 134 168 222 280 321
#     4  10  20  36  54  75 105 139 179 222 256 314
#     4  10  20  31  51  80 111 136 165 209 263 328
#     4  10  19  35  54  79 105 134 175 220 264 313
#     4  10  19  33  57  85 107 134 173 224 279 319
#     4  10  20  35  50  75 107 140 170 204 260 320
#     4  10  21  35  55  76 100 140 184 221 259 298
#
# _framework density 18.017772000000001
#
# number of rings (size 3 to 8) (size 9 to 14) (size 15 to 20)
#    0.000    2.000    0.000    6.375    0.000    2.000 
#    0.000    6.250    0.000    0.000    0.000    0.000 
#    0.000    0.000    0.000    0.000    0.000    0.000 
#
# Total GULP energy -356670.399283 kJ/mol
# GULP energy per Si atom -5572.974989 kJ/mol
# Density = 1.797676 g / cm^3
# Si number density = 18.017772 Si / 1000 Ang^3
#
#
#
# Elastic Constant Matrix: (Units=GPa)
#
#
# Indices 1 2 3 4 5 6 
#
# 1 65.0702 18.5589 36.0487 0.0000 0.0000 0.0000
# 2 18.5589 89.5790 31.4601 0.0000 0.0000 0.0000
# 3 36.0487 31.4601 82.5175 0.0000 0.0000 0.0000
# 4 0.0000 0.0000 0.0000 33.3858 0.0000 0.0000
# 5 0.0000 0.0000 0.0000 0.0000 25.7253 0.0000
# 6 0.0000 0.0000 0.0000 0.0000 0.0000 20.9960
#
#
#
# Elastic Compliance Matrix: (Units=1/GPa)
#
#
# Indices 1 2 3 4 5 6 
#
# 1 0.020399 -0.001266 -0.008429 0.000000 0.000000 0.000000
# 2 -0.001266 0.012968 -0.004391 0.000000 0.000000 0.000000
# 3 -0.008429 -0.004391 0.017475 0.000000 0.000000 0.000000
# 4 0.000000 0.000000 0.000000 0.029953 0.000000 0.000000
# 5 0.000000 0.000000 0.000000 0.000000 0.038872 0.000000
# 6 0.000000 0.000000 0.000000 0.000000 0.000000 0.047628
#
#
# Mechanical properties :
#
#
# Convention : Reuss Voigt Hill
#
# Bulk Modulus (GPa) = 44.11129 45.47801 44.79465
# Shear Modulus (GPa) = 24.62786 26.09469 25.36127
#
# Velocity S-wave (km/s) = 3.70112 3.80975 3.75583
# Velocity P-wave (km/s) = 6.54215 6.68189 6.61239
#
# Compressibility (1/GPa) = 0.02266993
#
# Stress axis : x y z
#
# Youngs Moduli (GPa) = 49.02309 77.11465 57.22510
#
# Poissons Ratio (x) = 0.09763 0.48233
# Poissons Ratio (y) = 0.06206 0.25127
# Poissons Ratio (z) = 0.41320 0.33860
#
# Static dielectric constant tensor:
#      x y z
#    x 1.605480 0.000000 0.000000 
#    y 0.000000 1.661750 0.000000 
#    z 0.000000 0.000000 1.622620 
# 
# From -- ./inp_files/10530.got.cif
#   From: 2010.05.17/outbox.cif.g08.bks.cpg/sg61_6_cif.got.tgz:10530.got - 2010.06.03 15:17:17.
