data_PCOD9459741
_publ_section_title
;
Structure prediction by ZEFSAII (Michael W. Deem and Ramdas Pophale) SiO2 
 PCOD9459741
Probable space group: P B C A
;
_chemical_formula_sum "Si O2"
_cell_formula_units_Z 48
_cell_length_a 12.438330
_cell_length_b 13.479265
_cell_length_c 11.432442
_cell_angle_alpha 90.000000
_cell_angle_beta 90.000000
_cell_angle_gamma 90.000000
_cell_volume 1916.758038
_symmetry_space_group_name_H-M "P B C A"
_symmetry_group_IT_number 61
_symmetry_cell_setting 'orthorhombic'
loop_
_space_group_symop_operation_xyz
x,y,z
1/2-x,-y,1/2+z
1/2+x,1/2-y,-z
-x,1/2+y,1/2-z
-x,-y,-z
1/2+x,y,1/2-z
1/2-x,1/2+y,z
x,1/2-y,1/2+z
loop_
_atom_site_type_symbol
_atom_site_label
_atom_site_fract_x
_atom_site_fract_y
_atom_site_fract_z
Si Si1 0.669172 0.430521 0.510553
Si Si2 0.209315 0.215878 0.686591
Si Si3 0.963554 0.867137 0.884916
Si Si4 0.514135 0.513001 0.334325
Si Si5 0.617372 0.807992 0.136695
Si Si6 0.679443 0.413870 0.095788
O O1 0.707864 0.336675 0.438514
O O2 0.623215 0.503342 0.408070
O O3 0.565080 0.414893 0.591061
O O4 0.762604 0.479782 0.587105
O O5 0.136731 0.312965 0.680320
O O6 0.326883 0.228317 0.742193
O O7 0.156426 0.135277 0.778455
O O8 0.015262 0.945955 0.796366
O O9 0.045703 0.779006 0.912043
O O10 0.914773 0.909506 0.003379
O O11 0.451964 0.407159 0.340772
O O12 0.719354 0.842355 0.060838
#
# Coordination Sequence:
#
# PCOD9459741 Si02
#       6
#     8   8   8   8   8   8
#     4  10  20  42  69  90 137 175 227 277 338 410
#     4  10  23  41  64  96 132 173 227 275 332 410
#     4  12  23  42  72  97 137 177 228 281 338 409
#     4  10  22  39  72  95 128 189 215 274 354 386
#     4   9  22  46  61 101 134 170 224 276 338 398
#     4   9  24  40  65  99 127 174 227 274 344 396
#
# _framework density 25.042285
#
# number of rings (size 3 to 8) (size 9 to 14) (size 15 to 20)
#    1.000    1.000    1.667    1.000    4.667    0.000 
#    0.000    2.500    0.000    0.000    0.000    0.000 
#    0.000    0.000    0.000    0.000    0.000    0.000 
#
# Total GULP energy -268319.244737 kJ/mol
# GULP energy per Si atom -5589.984265 kJ/mol
# Density = 2.498529 g / cm^3
# Si number density = 25.042285 Si / 1000 Ang^3
#
#
#
# Elastic Constant Matrix: (Units=GPa)
#
#
# Indices 1 2 3 4 5 6 
#
# 1 79.9375 12.6168 19.4888 0.0000 0.0000 0.0000
# 2 12.6168 58.9704 26.6539 0.0000 0.0000 0.0000
# 3 19.4888 26.6539 88.1582 0.0000 0.0000 0.0000
# 4 0.0000 0.0000 0.0000 29.5141 0.0000 0.0000
# 5 0.0000 0.0000 0.0000 0.0000 42.3559 0.0000
# 6 0.0000 0.0000 0.0000 0.0000 0.0000 30.6889
#
#
#
# Elastic Compliance Matrix: (Units=1/GPa)
#
#
# Indices 1 2 3 4 5 6 
#
# 1 0.013380 -0.001767 -0.002423 0.000000 0.000000 0.000000
# 2 -0.001767 0.019875 -0.005618 0.000000 0.000000 0.000000
# 3 -0.002423 -0.005618 0.013578 0.000000 0.000000 0.000000
# 4 0.000000 0.000000 0.000000 0.033882 0.000000 0.000000
# 5 0.000000 0.000000 0.000000 0.000000 0.023609 0.000000
# 6 0.000000 0.000000 0.000000 0.000000 0.000000 0.032585
#
#
# Mechanical properties :
#
#
# Convention : Reuss Voigt Hill
#
# Bulk Modulus (GPa) = 36.74547 38.28724 37.51635
# Shear Modulus (GPa) = 30.19347 31.73221 30.96284
#
# Velocity S-wave (km/s) = 3.47609 3.56356 3.52009
# Velocity P-wave (km/s) = 5.55123 5.67928 5.61562
#
# Compressibility (1/GPa) = 0.02721424
#
# Stress axis : x y z
#
# Youngs Moduli (GPa) = 74.74096 50.31389 73.65024
#
# Poissons Ratio (x) = 0.08891 0.17849
# Poissons Ratio (y) = 0.13208 0.41380
# Poissons Ratio (z) = 0.18113 0.28269
#
# Static dielectric constant tensor:
#      x y z
#    x 1.983120 0.000000 0.000000 
#    y 0.000000 1.997970 0.000000 
#    z 0.000000 0.000000 1.997770 
# 
# From -- ./inp_files/5746.got.cif
#   From: 2010.05.17/outbox.cif.g08.bks.cpg/sg61_3_cif.got.tgz:5746.got - 2010.06.03 15:17:17.
