data_PCOD9459740
_publ_section_title
;
Structure prediction by ZEFSAII (Michael W. Deem and Ramdas Pophale) SiO2 
 PCOD9459740
Probable space group: P B C A
;
_chemical_formula_sum "Si O2"
_cell_formula_units_Z 48
_cell_length_a 12.157166
_cell_length_b 17.807804
_cell_length_c 9.544006
_cell_angle_alpha 90.000000
_cell_angle_beta 90.000000
_cell_angle_gamma 90.000000
_cell_volume 2066.205044
_symmetry_space_group_name_H-M "P B C A"
_symmetry_group_IT_number 61
_symmetry_cell_setting 'orthorhombic'
loop_
_space_group_symop_operation_xyz
x,y,z
1/2-x,-y,1/2+z
1/2+x,1/2-y,-z
-x,1/2+y,1/2-z
-x,-y,-z
1/2+x,y,1/2-z
1/2-x,1/2+y,z
x,1/2-y,1/2+z
loop_
_atom_site_type_symbol
_atom_site_label
_atom_site_fract_x
_atom_site_fract_y
_atom_site_fract_z
Si Si1 0.739004 0.003182 0.319680
Si Si2 0.409557 0.214707 0.308460
Si Si3 0.256289 0.096050 0.437155
Si Si4 0.108106 0.889441 0.559316
Si Si5 0.932177 0.663781 0.872421
Si Si6 0.261040 0.652175 0.839157
O O1 0.701890 0.065967 0.207724
O O2 0.861207 0.034380 0.360898
O O3 0.699620 0.974986 0.472290
O O4 0.731843 0.926758 0.233131
O O5 0.354754 0.151150 0.402307
O O6 0.511278 0.255415 0.380760
O O7 0.315792 0.279112 0.286263
O O8 0.437959 0.172400 0.165141
O O9 0.169138 0.143177 0.527732
O O10 0.225128 0.858426 0.499873
O O11 0.027012 0.892557 0.427331
O O12 0.885308 0.661584 0.714280
#
# Coordination Sequence:
#
# PCOD9459740 Si02
#       6
#     8   8   8   8   8   8
#     4  10  20  42  69 100 134 187 224 293 358 413
#     4  10  24  42  66 102 139 181 237 290 346 436
#     4  10  22  42  73 101 142 181 234 292 355 416
#     4  10  22  42  67  95 141 175 238 290 349 435
#     4  10  24  40  70  98 133 185 233 284 359 419
#     4  10  22  39  66  98 133 177 229 288 352 409
#
# _framework density 23.230995
#
# number of rings (size 3 to 8) (size 9 to 14) (size 15 to 20)
#    0.000    2.000    1.667    0.000   11.667    2.667 
#    0.000    0.000    0.000    6.000    0.000    0.000 
#    0.000    0.000    0.000    0.000    0.000    0.000 
#
# Total GULP energy -267250.259977 kJ/mol
# GULP energy per Si atom -5567.713750 kJ/mol
# Density = 2.317812 g / cm^3
# Si number density = 23.230995 Si / 1000 Ang^3
#
#
#
# Elastic Constant Matrix: (Units=GPa)
#
#
# Indices 1 2 3 4 5 6 
#
# 1 44.2370 33.5403 43.8001 0.0000 0.0000 0.0000
# 2 33.5403 69.5153 34.4341 0.0000 0.0000 0.0000
# 3 43.8001 34.4341 107.9817 0.0000 0.0000 0.0000
# 4 0.0000 0.0000 0.0000 48.5091 0.0000 0.0000
# 5 0.0000 0.0000 0.0000 0.0000 34.6453 0.0000
# 6 0.0000 0.0000 0.0000 0.0000 0.0000 21.0692
#
#
#
# Elastic Compliance Matrix: (Units=1/GPa)
#
#
# Indices 1 2 3 4 5 6 
#
# 1 0.050187 -0.016782 -0.015006 0.000000 0.000000 0.000000
# 2 -0.016782 0.022695 -0.000430 0.000000 0.000000 0.000000
# 3 -0.015006 -0.000430 0.015485 0.000000 0.000000 0.000000
# 4 0.000000 0.000000 0.000000 0.020615 0.000000 0.000000
# 5 0.000000 0.000000 0.000000 0.000000 0.028864 0.000000
# 6 0.000000 0.000000 0.000000 0.000000 0.000000 0.047463
#
#
# Mechanical properties :
#
#
# Convention : Reuss Voigt Hill
#
# Bulk Modulus (GPa) = 41.78513 49.47589 45.63051
# Shear Modulus (GPa) = 19.40092 28.17536 23.78814
#
# Velocity S-wave (km/s) = 2.89300 3.48636 3.20344
# Velocity P-wave (km/s) = 5.40232 6.12779 5.77646
#
# Compressibility (1/GPa) = 0.02393196
#
# Stress axis : x y z
#
# Youngs Moduli (GPa) = 19.92564 44.06194 64.58007
#
# Poissons Ratio (x) = 0.73943 0.96906
# Poissons Ratio (y) = 0.33438 0.02779
# Poissons Ratio (z) = 0.29899 0.01896
#
# Static dielectric constant tensor:
#      x y z
#    x 1.894280 0.000000 0.000000 
#    y 0.000000 1.895470 0.000000 
#    z 0.000000 0.000000 1.980110 
# 
# From -- ./inp_files/5880.got.cif
#   From: 2010.05.17/outbox.cif.g08.bks.cpg/sg61_3_cif.got.tgz:5880.got - 2010.06.03 15:17:17.
