data_PCOD9459720
_publ_section_title
;
Structure prediction by ZEFSAII (Michael W. Deem and Ramdas Pophale) SiO2 
 PCOD9459720
Probable space group: P B C A
;
_chemical_formula_sum "Si O2"
_cell_formula_units_Z 40
_cell_length_a 20.452321
_cell_length_b 7.582427
_cell_length_c 12.760736
_cell_angle_alpha 90.000000
_cell_angle_beta 90.000000
_cell_angle_gamma 90.000000
_cell_volume 1978.912365
_symmetry_space_group_name_H-M "P B C A"
_symmetry_group_IT_number 61
_symmetry_cell_setting 'orthorhombic'
loop_
_space_group_symop_operation_xyz
x,y,z
1/2-x,-y,1/2+z
1/2+x,1/2-y,-z
-x,1/2+y,1/2-z
-x,-y,-z
1/2+x,y,1/2-z
1/2-x,1/2+y,z
x,1/2-y,1/2+z
loop_
_atom_site_type_symbol
_atom_site_label
_atom_site_fract_x
_atom_site_fract_y
_atom_site_fract_z
Si Si1 0.337537 0.731429 0.140360
Si Si2 0.112668 0.951594 0.538496
Si Si3 0.449333 0.924849 0.243031
Si Si4 0.808313 0.168867 0.839568
Si Si5 0.918449 0.226887 0.675293
O O1 0.141629 0.349919 0.040010
O O2 0.327493 0.526039 0.122449
O O3 0.268648 0.811045 0.178517
O O4 0.394623 0.773548 0.225310
O O5 0.061309 0.965040 0.634287
O O6 0.168212 0.816353 0.578095
O O7 0.083796 0.876703 0.433053
O O8 0.433115 0.064163 0.333359
O O9 0.521801 0.851755 0.242962
O O10 0.850148 0.203648 0.735028
#
# Coordination Sequence:
#
# PCOD9459720 Si02
#       5
#     8   8   8   8   8
#     4  10  20  42  57  84 124 159 192 265 301 345
#     4   9  22  39  61  88 121 154 209 246 298 368
#     4   9  21  38  59  87 124 154 200 258 291 357
#     4  11  20  41  61  85 127 156 200 258 305 356
#     4  11  20  41  62  92 120 167 202 245 311 369
#
# _framework density 20.213124000000001
#
# number of rings (size 3 to 8) (size 9 to 14) (size 15 to 20)
#    1.200    0.800    2.000    1.800    0.000    0.000 
#   14.400    3.000    0.000    0.000    0.000    0.000 
#    0.000    0.000    0.000    0.000    0.000    0.000 
#
# Total GULP energy -222814.389006 kJ/mol
# GULP energy per Si atom -5570.359725 kJ/mol
# Density = 2.016712 g / cm^3
# Si number density = 20.213124 Si / 1000 Ang^3
#
#
#
# Elastic Constant Matrix: (Units=GPa)
#
#
# Indices 1 2 3 4 5 6 
#
# 1 72.2778 -20.4857 0.8361 0.0000 0.0000 0.0000
# 2 -20.4857 72.8724 -9.4382 0.0000 0.0000 0.0000
# 3 0.8361 -9.4382 9.0251 0.0000 0.0000 0.0000
# 4 0.0000 0.0000 0.0000 19.6419 0.0000 0.0000
# 5 0.0000 0.0000 0.0000 0.0000 9.8511 0.0000
# 6 0.0000 0.0000 0.0000 0.0000 0.0000 37.6197
#
#
#
# Elastic Compliance Matrix: (Units=1/GPa)
#
#
# Indices 1 2 3 4 5 6 
#
# 1 0.015130 0.004710 0.003523 0.000000 0.000000 0.000000
# 2 0.004710 0.017338 0.017696 0.000000 0.000000 0.000000
# 3 0.003523 0.017696 0.128981 0.000000 0.000000 0.000000
# 4 0.000000 0.000000 0.000000 0.050911 0.000000 0.000000
# 5 0.000000 0.000000 0.000000 0.000000 0.101511 0.000000
# 6 0.000000 0.000000 0.000000 0.000000 0.000000 0.026582
#
#
# Mechanical properties :
#
#
# Convention : Reuss Voigt Hill
#
# Bulk Modulus (GPa) = 4.68811 10.66664 7.67737
# Shear Modulus (GPa) = 13.90055 25.64008 19.77032
#
# Velocity S-wave (km/s) = 2.62525 3.56545 3.13084
# Velocity P-wave (km/s) = 3.39317 4.71576 4.10804
#
# Compressibility (1/GPa) = 0.21330569
#
# Stress axis : x y z
#
# Youngs Moduli (GPa) = 66.09566 57.67541 7.75310
#
# Poissons Ratio (x) = -0.27162 -0.02732
# Poissons Ratio (y) = -0.31128 -0.13720
# Poissons Ratio (z) = -0.23288 -1.02060
#
# Static dielectric constant tensor:
#      x y z
#    x 1.715640 0.000000 0.000000 
#    y 0.000000 1.771330 0.000000 
#    z 0.000000 0.000000 1.708600 
# 
# From -- ./inp_files/2739.got.cif
#   From: 2010.05.17/outbox.cif.g08.bks.cpg/sg61_2_cif.got.tgz:2739.got - 2010.06.03 15:17:17.
