data_PCOD9459939
_publ_section_title
;
Structure prediction by ZEFSAII (Michael W. Deem and Ramdas Pophale) SiO2 
 PCOD9459939
Probable space group: P B C A
;
_chemical_formula_sum "Si O2"
_cell_formula_units_Z 48
_cell_length_a 9.168622
_cell_length_b 27.726710
_cell_length_c 7.264400
_cell_angle_alpha 90.000000
_cell_angle_beta 90.000000
_cell_angle_gamma 90.000000
_cell_volume 1846.724700
_symmetry_space_group_name_H-M "P B C A"
_symmetry_group_IT_number 61
_symmetry_cell_setting 'orthorhombic'
loop_
_space_group_symop_operation_xyz
x,y,z
1/2-x,-y,1/2+z
1/2+x,1/2-y,-z
-x,1/2+y,1/2-z
-x,-y,-z
1/2+x,y,1/2-z
1/2-x,1/2+y,z
x,1/2-y,1/2+z
loop_
_atom_site_type_symbol
_atom_site_label
_atom_site_fract_x
_atom_site_fract_y
_atom_site_fract_z
Si Si1 0.315005 0.561974 0.122286
Si Si2 0.045726 0.918996 0.189310
Si Si3 0.440023 0.816013 0.322921
Si Si4 0.832306 0.960189 0.454274
Si Si5 0.821838 0.163496 0.447453
Si Si6 0.445143 0.707185 0.223804
O O1 0.348349 0.557256 0.337723
O O2 0.240996 0.512574 0.057466
O O3 0.210030 0.607407 0.085905
O O4 0.459457 0.571187 0.001433
O O5 0.002130 0.865600 0.256079
O O6 0.978889 0.956299 0.335892
O O7 0.785337 0.073543 0.848773
O O8 0.266665 0.821487 0.368369
O O9 0.462942 0.764300 0.234273
O O10 0.506592 0.812321 0.529822
O O11 0.723765 0.192719 0.295229
O O12 0.981299 0.180592 0.394064
#
# Coordination Sequence:
#
# PCOD9459939 Si02
#       6
#     8   8   8   8   8   8
#     4  11  24  45  71 102 142 183 232 289 351 412
#     4  11  26  49  65 109 140 183 241 285 349 424
#     4   9  23  40  63  91 135 164 229 274 336 410
#     4  12  26  44  77  99 145 188 230 296 348 420
#     4   9  23  39  65  89 135 166 221 279 336 409
#     4  10  21  39  63  89 122 176 206 280 334 398
#
# _framework density 25.991963999999999
#
# number of rings (size 3 to 8) (size 9 to 14) (size 15 to 20)
#    1.000    0.667    1.667    1.500    2.333    4.667 
#    6.000    0.000    0.000    0.000    0.000    0.000 
#    0.000    0.000    0.000    0.000    0.000    0.000 
#
# Total GULP energy -269059.140136 kJ/mol
# GULP energy per Si atom -5605.398753 kJ/mol
# Density = 2.593280 g / cm^3
# Si number density = 25.991964 Si / 1000 Ang^3
#
#
#
# Elastic Constant Matrix: (Units=GPa)
#
#
# Indices 1 2 3 4 5 6 
#
# 1 75.4441 -8.1715 18.6470 0.0000 0.0000 0.0000
# 2 -8.1715 141.0644 11.2468 0.0000 0.0000 0.0000
# 3 18.6470 11.2468 108.1989 0.0000 0.0000 0.0000
# 4 0.0000 0.0000 0.0000 46.5051 0.0000 0.0000
# 5 0.0000 0.0000 0.0000 0.0000 23.4598 0.0000
# 6 0.0000 0.0000 0.0000 0.0000 0.0000 21.4152
#
#
#
# Elastic Compliance Matrix: (Units=1/GPa)
#
#
# Indices 1 2 3 4 5 6 
#
# 1 0.013986 0.001011 -0.002515 0.000000 0.000000 0.000000
# 2 0.001011 0.007221 -0.000925 0.000000 0.000000 0.000000
# 3 -0.002515 -0.000925 0.009772 0.000000 0.000000 0.000000
# 4 0.000000 0.000000 0.000000 0.021503 0.000000 0.000000
# 5 0.000000 0.000000 0.000000 0.000000 0.042626 0.000000
# 6 0.000000 0.000000 0.000000 0.000000 0.000000 0.046696
#
#
# Mechanical properties :
#
#
# Convention : Reuss Voigt Hill
#
# Bulk Modulus (GPa) = 38.28460 40.90577 39.59518
# Shear Modulus (GPa) = 32.18127 38.47501 35.32814
#
# Velocity S-wave (km/s) = 3.52252 3.85160 3.69073
# Velocity P-wave (km/s) = 5.59513 5.96253 5.78175
#
# Compressibility (1/GPa) = 0.02612017
#
# Stress axis : x y z
#
# Youngs Moduli (GPa) = 71.49983 138.48029 102.33445
#
# Poissons Ratio (x) = -0.13997 0.25741
# Poissons Ratio (y) = -0.07227 0.09464
# Poissons Ratio (z) = 0.17985 0.12807
#
# Static dielectric constant tensor:
#      x y z
#    x 2.053780 0.000000 0.000000 
#    y 0.000000 1.977340 0.000000 
#    z 0.000000 0.000000 2.044970 
# 
# From -- ./inp_files/2315.got.cif
#   From: 2010.05.17/outbox.cif.g08.bks.cpg/sg61_2_cif.got.tgz:2315.got - 2010.06.03 15:17:17.
