data_PCOD9459570
_publ_section_title
;
Structure prediction by ZEFSAII (Michael W. Deem and Ramdas Pophale) SiO2 
 PCOD9459570
Probable space group: P B C A
;
_chemical_formula_sum "Si O2"
_cell_formula_units_Z 64
_cell_length_a 5.110125
_cell_length_b 25.213536
_cell_length_c 19.416286
_cell_angle_alpha 90.000000
_cell_angle_beta 90.000000
_cell_angle_gamma 90.000000
_cell_volume 2501.678179
_symmetry_space_group_name_H-M "P B C A"
_symmetry_group_IT_number 61
_symmetry_cell_setting 'orthorhombic'
loop_
_space_group_symop_operation_xyz
x,y,z
1/2-x,-y,1/2+z
1/2+x,1/2-y,-z
-x,1/2+y,1/2-z
-x,-y,-z
1/2+x,y,1/2-z
1/2-x,1/2+y,z
x,1/2-y,1/2+z
loop_
_atom_site_type_symbol
_atom_site_label
_atom_site_fract_x
_atom_site_fract_y
_atom_site_fract_z
Si Si1 0.731016 0.524846 0.294863
Si Si2 0.597510 0.635281 0.298163
Si Si3 0.754027 0.484479 0.544650
Si Si4 0.550199 0.567956 0.636688
Si Si5 0.545278 0.779209 0.017992
Si Si6 0.674358 0.752551 0.297638
Si Si7 0.237643 0.879281 0.010022
Si Si8 0.641400 0.163079 0.621670
O O1 0.021258 0.528374 0.266857
O O2 0.663057 0.579321 0.336551
O O3 0.667425 0.466823 0.324993
O O4 0.807960 0.634534 0.234681
O O5 0.638626 0.693695 0.330424
O O6 0.500000 0.500000 0.500000
O O7 0.740666 0.521278 0.610638
O O8 0.783634 0.421695 0.550295
O O9 0.000000 0.500000 0.500000
O O10 0.409966 0.594522 0.571079
O O11 0.722177 0.616546 0.666091
O O12 0.394054 0.828553 0.985147
O O13 0.644146 0.795872 0.093412
O O14 0.310680 0.737218 0.019917
O O15 0.960012 0.755279 0.264249
O O16 0.586081 0.802499 0.343791
O O17 0.976817 0.863771 0.051951
#
# Coordination Sequence:
#
# PCOD9459570 Si02
#       8
#     8   8   8   8   8   8   8   8
#     4  10  22  38  61  86 124 162 205 262 313 365
#     4   8  16  37  58  76 110 156 201 252 302 345
#     4  10  20  38  62  85 118 163 206 252 310 376
#     4  10  23  38  61  92 125 166 211 252 321 386
#     4  11  23  42  64  89 125 163 207 263 327 383
#     4  10  23  39  63  91 125 169 216 256 306 380
#     4  10  22  41  65  89 129 168 205 269 321 381
#     4  11  23  40  66  92 134 166 208 264 326 377
#
# _framework density 25.582825
#
# number of rings (size 3 to 8) (size 9 to 14) (size 15 to 20)
#    0.000    2.000    2.500    0.000    5.250    1.000 
#    2.250    0.000    8.250    0.000    0.000    0.000 
#    0.000    0.000    0.000    0.000    0.000    0.000 
#
# Total GULP energy -357605.205403 kJ/mol
# GULP energy per Si atom -5587.581334 kJ/mol
# Density = 2.552460 g / cm^3
# Si number density = 25.582825 Si / 1000 Ang^3
#
#
#
# Elastic Constant Matrix: (Units=GPa)
#
#
# Indices 1 2 3 4 5 6 
#
# 1 135.7642 13.2570 22.0975 0.0000 0.0000 0.0000
# 2 13.2570 135.0454 26.8932 0.0000 0.0000 0.0000
# 3 22.0975 26.8932 29.9855 0.0000 0.0000 0.0000
# 4 0.0000 0.0000 0.0000 19.6586 0.0000 0.0000
# 5 0.0000 0.0000 0.0000 0.0000 28.5982 0.0000
# 6 0.0000 0.0000 0.0000 0.0000 0.0000 35.5281
#
#
#
# Elastic Compliance Matrix: (Units=1/GPa)
#
#
# Indices 1 2 3 4 5 6 
#
# 1 0.008397 0.000497 -0.006633 0.000000 0.000000 0.000000
# 2 0.000497 0.009044 -0.008478 0.000000 0.000000 0.000000
# 3 -0.006633 -0.008478 0.045841 0.000000 0.000000 0.000000
# 4 0.000000 0.000000 0.000000 0.050868 0.000000 0.000000
# 5 0.000000 0.000000 0.000000 0.000000 0.034967 0.000000
# 6 0.000000 0.000000 0.000000 0.000000 0.000000 0.028147
#
#
# Mechanical properties :
#
#
# Convention : Reuss Voigt Hill
#
# Bulk Modulus (GPa) = 29.36544 47.25448 38.30996
# Shear Modulus (GPa) = 22.95210 32.66017 27.80614
#
# Velocity S-wave (km/s) = 2.99853 3.57689 3.30040
# Velocity P-wave (km/s) = 4.84682 5.96407 5.43424
#
# Compressibility (1/GPa) = 0.03405363
#
# Stress axis : x y z
#
# Youngs Moduli (GPa) = 119.09165 110.56538 21.81441
#
# Poissons Ratio (x) = -0.05492 0.14471
# Poissons Ratio (y) = -0.05915 0.18494
# Poissons Ratio (z) = 0.78999 0.93734
#
# Static dielectric constant tensor:
#      x y z
#    x 1.972950 0.000000 0.000000 
#    y 0.000000 2.161610 0.000000 
#    z 0.000000 0.000000 2.094010 
# 
# From -- ./inp_files/10775.got.cif
#   From: 2010.05.17/outbox.cif.g08.bks.cpg/sg61_6_cif.got.tgz:10775.got - 2010.06.03 15:17:17.
