data_PCOD9459168
_publ_section_title
;
Structure prediction by ZEFSAII (Michael W. Deem and Ramdas Pophale) SiO2 
 PCOD9459168
Probable space group: P B C A
;
_chemical_formula_sum "Si O2"
_cell_formula_units_Z 56
_cell_length_a 5.244840
_cell_length_b 32.436776
_cell_length_c 15.998705
_cell_angle_alpha 90.000000
_cell_angle_beta 90.000000
_cell_angle_gamma 90.000000
_cell_volume 2721.790891
_symmetry_space_group_name_H-M "P B C A"
_symmetry_group_IT_number 61
_symmetry_cell_setting 'orthorhombic'
loop_
_space_group_symop_operation_xyz
x,y,z
1/2-x,-y,1/2+z
1/2+x,1/2-y,-z
-x,1/2+y,1/2-z
-x,-y,-z
1/2+x,y,1/2-z
1/2-x,1/2+y,z
x,1/2-y,1/2+z
loop_
_atom_site_type_symbol
_atom_site_label
_atom_site_fract_x
_atom_site_fract_y
_atom_site_fract_z
Si Si1 0.214747 0.845114 0.976656
Si Si2 0.273102 0.104341 0.015001
Si Si3 0.769761 0.016313 0.731780
Si Si4 0.250533 0.484082 0.454848
Si Si5 0.286430 0.925568 0.701888
Si Si6 0.100795 0.793785 0.808929
Si Si7 0.528120 0.235101 0.955149
O O1 0.440508 0.878712 0.975630
O O2 0.153246 0.826499 0.884229
O O3 0.946080 0.863057 0.008143
O O4 0.338123 0.809045 0.033314
O O5 0.197808 0.087486 0.106812
O O6 0.258943 0.065241 0.954470
O O7 0.522125 0.041208 0.753439
O O8 0.758135 0.999901 0.638759
O O9 0.776556 0.975548 0.789831
O O10 0.500000 0.500000 0.500000
O O11 0.000000 0.500000 0.500000
O O12 0.528538 0.910569 0.754279
O O13 0.344336 0.797061 0.747048
O O14 0.059075 0.751986 0.864643
O O15 0.266816 0.236674 0.010733
#
# Coordination Sequence:
#
# PCOD9459168 Si02
#       7
#     8   8   8   8   8   8   8
#     4  11  24  40  59  90 130 163 194 247 318 379
#     4  12  24  37  59  88 121 162 204 256 318 379
#     4  10  20  36  57  79 107 146 196 258 312 354
#     4  12  23  40  62  86 117 162 224 270 302 377
#     4  10  19  33  50  76 110 147 187 234 306 368
#     4  11  22  38  64  98 127 162 208 252 298 365
#     4  10  20  40  65  87 124 172 209 241 293 372
#
# _framework density 20.574687000000001
#
# number of rings (size 3 to 8) (size 9 to 14) (size 15 to 20)
#    0.000    1.143    0.000   10.286    0.000    3.429 
#    0.000    0.000    0.000    5.143    0.000    0.000 
#    0.000    0.000    0.000    0.000    0.000    0.000 
#
# Total GULP energy -312591.146530 kJ/mol
# GULP energy per Si atom -5581.984759 kJ/mol
# Density = 2.052786 g / cm^3
# Si number density = 20.574687 Si / 1000 Ang^3
#
#
#
# Elastic Constant Matrix: (Units=GPa)
#
#
# Indices 1 2 3 4 5 6 
#
# 1 193.1708 13.8238 31.8803 0.0000 0.0000 0.0000
# 2 13.8238 65.5214 3.3822 0.0000 0.0000 0.0000
# 3 31.8803 3.3822 31.3687 0.0000 0.0000 0.0000
# 4 0.0000 0.0000 0.0000 24.8237 0.0000 0.0000
# 5 0.0000 0.0000 0.0000 0.0000 34.8050 0.0000
# 6 0.0000 0.0000 0.0000 0.0000 0.0000 30.7004
#
#
#
# Elastic Compliance Matrix: (Units=1/GPa)
#
#
# Indices 1 2 3 4 5 6 
#
# 1 0.006285 -0.001002 -0.006279 0.000000 0.000000 0.000000
# 2 -0.001002 0.015507 -0.000654 0.000000 0.000000 0.000000
# 3 -0.006279 -0.000654 0.038331 0.000000 0.000000 0.000000
# 4 0.000000 0.000000 0.000000 0.040284 0.000000 0.000000
# 5 0.000000 0.000000 0.000000 0.000000 0.028732 0.000000
# 6 0.000000 0.000000 0.000000 0.000000 0.000000 0.032573
#
#
# Mechanical properties :
#
#
# Convention : Reuss Voigt Hill
#
# Bulk Modulus (GPa) = 22.59716 43.13706 32.86711
# Shear Modulus (GPa) = 25.99662 34.13077 30.06370
#
# Velocity S-wave (km/s) = 3.55847 4.07734 3.82671
# Velocity P-wave (km/s) = 5.28114 6.57099 5.96105
#
# Compressibility (1/GPa) = 0.04425335
#
# Stress axis : x y z
#
# Youngs Moduli (GPa) = 159.11484 64.48571 26.08847
#
# Poissons Ratio (x) = 0.06460 0.16382
# Poissons Ratio (y) = 0.15941 0.01706
# Poissons Ratio (z) = 0.99912 0.04216
#
# Static dielectric constant tensor:
#      x y z
#    x 1.818020 0.000000 0.000000 
#    y 0.000000 1.780200 0.000000 
#    z 0.000000 0.000000 2.030280 
# 
# From -- ./inp_files/6881.got.cif
#   From: 2010.05.17/outbox.cif.g08.bks.cpg/sg61_4_cif.got.tgz:6881.got - 2010.06.03 15:17:17.
