data_PCOD9459670
_publ_section_title
;
Structure prediction by ZEFSAII (Michael W. Deem and Ramdas Pophale) SiO2 
 PCOD9459670
Probable space group: P B C A
;
_chemical_formula_sum "Si O2"
_cell_formula_units_Z 56
_cell_length_a 11.838017
_cell_length_b 14.247875
_cell_length_c 14.968308
_cell_angle_alpha 90.000000
_cell_angle_beta 90.000000
_cell_angle_gamma 90.000000
_cell_volume 2524.653415
_symmetry_space_group_name_H-M "P B C A"
_symmetry_group_IT_number 61
_symmetry_cell_setting 'orthorhombic'
loop_
_space_group_symop_operation_xyz
x,y,z
1/2-x,-y,1/2+z
1/2+x,1/2-y,-z
-x,1/2+y,1/2-z
-x,-y,-z
1/2+x,y,1/2-z
1/2-x,1/2+y,z
x,1/2-y,1/2+z
loop_
_atom_site_type_symbol
_atom_site_label
_atom_site_fract_x
_atom_site_fract_y
_atom_site_fract_z
Si Si1 0.325960 0.874357 0.311943
Si Si2 0.648558 0.728444 0.133798
Si Si3 0.046648 0.058006 0.392552
Si Si4 0.803471 0.029910 0.053628
Si Si5 0.541600 0.370125 0.415202
Si Si6 0.031916 0.745269 0.191822
Si Si7 0.209265 0.885250 0.124420
O O1 0.253976 0.798673 0.369107
O O2 0.434999 0.818116 0.276551
O O3 0.245401 0.906274 0.228338
O O4 0.362041 0.954089 0.382379
O O5 0.659946 0.634057 0.080222
O O6 0.538522 0.785505 0.106577
O O7 0.624916 0.709817 0.237790
O O8 0.173369 0.024515 0.413334
O O9 0.002529 0.096095 0.487086
O O10 0.034248 0.150922 0.334272
O O11 0.978362 0.966954 0.359877
O O12 0.814428 0.029318 0.945440
O O13 0.672928 0.344668 0.414530
O O14 0.108453 0.809252 0.125512
#
# Coordination Sequence:
#
# PCOD9459670 Si02
#       7
#     8   8   8   8   8   8   8
#     4  11  23  43  65  93 136 172 215 285 329 388
#     4  11  22  39  65  92 129 170 213 270 331 392
#     4  10  21  38  67  92 123 170 220 267 322 393
#     4  11  23  42  68 100 130 173 230 268 334 403
#     4  10  20  40  64  94 125 169 219 268 323 389
#     4  11  23  41  64  95 139 171 214 273 335 398
#     4  10  24  43  62  98 132 174 221 272 334 394
#
# _framework density 22.181262
#
# number of rings (size 3 to 8) (size 9 to 14) (size 15 to 20)
#    0.000    1.429    4.286    0.857    2.000    0.571 
#    0.000    1.429    0.000    0.000    0.000    0.000 
#    0.000    0.000    0.000    0.000    0.000    0.000 
#
# Total GULP energy -312116.619018 kJ/mol
# GULP energy per Si atom -5573.511054 kJ/mol
# Density = 2.213078 g / cm^3
# Si number density = 22.181262 Si / 1000 Ang^3
#
#
#
# Elastic Constant Matrix: (Units=GPa)
#
#
# Indices 1 2 3 4 5 6 
#
# 1 46.0653 3.0179 -11.4753 0.0000 0.0000 0.0000
# 2 3.0179 75.4948 30.1243 0.0000 0.0000 0.0000
# 3 -11.4753 30.1243 53.0394 0.0000 0.0000 0.0000
# 4 0.0000 0.0000 0.0000 22.0268 0.0000 0.0000
# 5 0.0000 0.0000 0.0000 0.0000 24.3801 0.0000
# 6 0.0000 0.0000 0.0000 0.0000 0.0000 22.2269
#
#
#
# Elastic Compliance Matrix: (Units=1/GPa)
#
#
# Indices 1 2 3 4 5 6 
#
# 1 0.023795 -0.003886 0.007355 0.000000 0.000000 0.000000
# 2 -0.003886 0.017762 -0.010929 0.000000 0.000000 0.000000
# 3 0.007355 -0.010929 0.026653 0.000000 0.000000 0.000000
# 4 0.000000 0.000000 0.000000 0.045399 0.000000 0.000000
# 5 0.000000 0.000000 0.000000 0.000000 0.041017 0.000000
# 6 0.000000 0.000000 0.000000 0.000000 0.000000 0.044991
#
#
# Mechanical properties :
#
#
# Convention : Reuss Voigt Hill
#
# Bulk Modulus (GPa) = 18.76517 24.21484 21.49000
# Shear Modulus (GPa) = 21.52389 23.92227 22.72308
#
# Velocity S-wave (km/s) = 3.11845 3.28760 3.20414
# Velocity P-wave (km/s) = 4.63083 5.03504 4.83715
#
# Compressibility (1/GPa) = 0.05329023
#
# Stress axis : x y z
#
# Youngs Moduli (GPa) = 42.02531 56.29905 37.51983
#
# Poissons Ratio (x) = 0.21879 -0.27597
# Poissons Ratio (y) = 0.16332 0.41006
# Poissons Ratio (z) = -0.30911 0.61530
#
# Static dielectric constant tensor:
#      x y z
#    x 1.798460 0.000000 0.000000 
#    y 0.000000 1.854300 0.000000 
#    z 0.000000 0.000000 1.982770 
# 
# From -- ./inp_files/7535.got.cif
#   From: 2010.05.17/outbox.cif.g08.bks.cpg/sg61_4_cif.got.tgz:7535.got - 2010.06.03 15:17:17.
