data_PCOD9459565
_publ_section_title
;
Structure prediction by ZEFSAII (Michael W. Deem and Ramdas Pophale) SiO2 
 PCOD9459565
Probable space group: P B C A
;
_chemical_formula_sum "Si O2"
_cell_formula_units_Z 48
_cell_length_a 14.859097
_cell_length_b 13.788984
_cell_length_c 9.074697
_cell_angle_alpha 90.000000
_cell_angle_beta 90.000000
_cell_angle_gamma 90.000000
_cell_volume 1859.331464
_symmetry_space_group_name_H-M "P B C A"
_symmetry_group_IT_number 61
_symmetry_cell_setting 'orthorhombic'
loop_
_space_group_symop_operation_xyz
x,y,z
1/2-x,-y,1/2+z
1/2+x,1/2-y,-z
-x,1/2+y,1/2-z
-x,-y,-z
1/2+x,y,1/2-z
1/2-x,1/2+y,z
x,1/2-y,1/2+z
loop_
_atom_site_type_symbol
_atom_site_label
_atom_site_fract_x
_atom_site_fract_y
_atom_site_fract_z
Si Si1 0.809565 0.121229 0.873436
Si Si2 0.986375 0.545090 0.676998
Si Si3 0.597896 0.375477 0.900189
Si Si4 0.749616 0.543576 0.186110
Si Si5 0.496388 0.812339 0.077060
Si Si6 0.112717 0.688128 0.202163
O O1 0.916653 0.091957 0.877941
O O2 0.812482 0.237042 0.865931
O O3 0.770223 0.067802 0.728307
O O4 0.758396 0.075853 0.015515
O O5 0.010608 0.432978 0.662868
O O6 0.975372 0.589599 0.837463
O O7 0.908367 0.582123 0.567262
O O8 0.672959 0.403845 0.783171
O O9 0.586156 0.261446 0.915348
O O10 0.660360 0.588320 0.257757
O O11 0.573961 0.752556 0.164187
O O12 0.534314 0.824722 0.916160
#
# Coordination Sequence:
#
# PCOD9459565 Si02
#       6
#     8   8   8   8   8   8
#     4  10  22  40  60  92 122 166 202 250 319 370
#     4   9  20  39  64  85 121 170 193 249 318 370
#     4  10  20  38  61  89 122 155 205 250 307 360
#     4  11  24  37  66  93 127 158 209 267 300 373
#     4  11  20  41  67  84 119 168 209 242 312 381
#     4  11  22  41  64  87 121 170 206 247 311 380
#
# _framework density 25.815731
#
# number of rings (size 3 to 8) (size 9 to 14) (size 15 to 20)
#    0.000    1.667    5.000    0.000    7.000    1.333 
#    0.000    4.167    0.000    0.000    0.000    0.000 
#    0.000    0.000    0.000    0.000    0.000    0.000 
#
# Total GULP energy -268377.572214 kJ/mol
# GULP energy per Si atom -5591.199421 kJ/mol
# Density = 2.575697 g / cm^3
# Si number density = 25.815731 Si / 1000 Ang^3
#
#
#
# Elastic Constant Matrix: (Units=GPa)
#
#
# Indices 1 2 3 4 5 6 
#
# 1 84.1230 -27.0168 5.6359 0.0000 0.0000 0.0000
# 2 -27.0168 76.1666 8.3273 0.0000 0.0000 0.0000
# 3 5.6359 8.3273 111.4403 0.0000 0.0000 0.0000
# 4 0.0000 0.0000 0.0000 44.1980 0.0000 0.0000
# 5 0.0000 0.0000 0.0000 0.0000 43.9198 0.0000
# 6 0.0000 0.0000 0.0000 0.0000 0.0000 17.2020
#
#
#
# Elastic Compliance Matrix: (Units=1/GPa)
#
#
# Indices 1 2 3 4 5 6 
#
# 1 0.013537 0.004917 -0.001052 0.000000 0.000000 0.000000
# 2 0.004917 0.015023 -0.001371 0.000000 0.000000 0.000000
# 3 -0.001052 -0.001371 0.009129 0.000000 0.000000 0.000000
# 4 0.000000 0.000000 0.000000 0.022625 0.000000 0.000000
# 5 0.000000 0.000000 0.000000 0.000000 0.022769 0.000000
# 6 0.000000 0.000000 0.000000 0.000000 0.000000 0.058133
#
#
# Mechanical properties :
#
#
# Convention : Reuss Voigt Hill
#
# Bulk Modulus (GPa) = 23.43252 27.29140 25.36196
# Shear Modulus (GPa) = 33.23265 40.04952 36.64109
#
# Velocity S-wave (km/s) = 3.59179 3.94301 3.77149
# Velocity P-wave (km/s) = 5.12814 5.59681 5.36759
#
# Compressibility (1/GPa) = 0.04267574
#
# Stress axis : x y z
#
# Youngs Moduli (GPa) = 73.87238 66.56465 109.54002
#
# Poissons Ratio (x) = -0.32727 0.11524
# Poissons Ratio (y) = -0.36320 0.15021
# Poissons Ratio (z) = 0.07771 0.09128
#
# Static dielectric constant tensor:
#      x y z
#    x 2.122130 0.000000 0.000000 
#    y 0.000000 2.102950 0.000000 
#    z 0.000000 0.000000 2.015070 
# 
# From -- ./inp_files/3408.got.cif
#   From: 2010.05.17/outbox.cif.g08.bks.cpg/sg61_2_cif.got.tgz:3408.got - 2010.06.03 15:17:17.
