data_PCOD9459669
_publ_section_title
;
Structure prediction by ZEFSAII (Michael W. Deem and Ramdas Pophale) SiO2 
 PCOD9459669
Probable space group: P B C A
;
_chemical_formula_sum "Si O2"
_cell_formula_units_Z 56
_cell_length_a 11.800719
_cell_length_b 10.889908
_cell_length_c 17.289782
_cell_angle_alpha 90.000000
_cell_angle_beta 90.000000
_cell_angle_gamma 90.000000
_cell_volume 2221.888173
_symmetry_space_group_name_H-M "P B C A"
_symmetry_group_IT_number 61
_symmetry_cell_setting 'orthorhombic'
loop_
_space_group_symop_operation_xyz
x,y,z
1/2-x,-y,1/2+z
1/2+x,1/2-y,-z
-x,1/2+y,1/2-z
-x,-y,-z
1/2+x,y,1/2-z
1/2-x,1/2+y,z
x,1/2-y,1/2+z
loop_
_atom_site_type_symbol
_atom_site_label
_atom_site_fract_x
_atom_site_fract_y
_atom_site_fract_z
Si Si1 0.641418 0.648980 0.115404
Si Si2 0.951234 0.302655 0.359300
Si Si3 0.278533 0.764793 0.185313
Si Si4 0.781174 0.459926 0.180563
Si Si5 0.900162 0.567588 0.395100
Si Si6 0.997407 0.871305 0.314858
Si Si7 0.674600 0.301442 0.046863
O O1 0.706054 0.582315 0.186062
O O2 0.535275 0.569500 0.088530
O O3 0.573111 0.768171 0.143331
O O4 0.737240 0.689415 0.055069
O O5 0.842506 0.217530 0.346813
O O6 0.882438 0.424272 0.386504
O O7 0.007982 0.338148 0.276611
O O8 0.051698 0.268691 0.417112
O O9 0.358633 0.642737 0.180802
O O10 0.372876 0.861117 0.149759
O O11 0.242683 0.851354 0.257980
O O12 0.916104 0.484673 0.177779
O O13 0.731562 0.405344 0.100796
O O14 0.841372 0.641284 0.463437
#
# Coordination Sequence:
#
# PCOD9459669 Si02
#       7
#     8   8   8   8   8   8   8
#     4  10  22  41  66  90 132 170 212 269 331 381
#     4  11  22  40  66  91 129 168 220 261 329 396
#     4  10  22  40  60  95 128 159 217 278 315 394
#     4  10  20  40  64  90 126 169 214 268 327 394
#     4  11  24  41  66  90 131 174 211 273 330 381
#     4   9  20  39  60  92 125 159 211 269 317 385
#     4  11  23  39  64  95 120 170 224 254 322 405
#
# _framework density 25.203789
#
# number of rings (size 3 to 8) (size 9 to 14) (size 15 to 20)
#    0.000    1.714    2.857    0.429    2.000    6.857 
#    5.143    0.000    0.000    5.143    0.000    0.000 
#    0.000    0.000    0.000    0.000    0.000    0.000 
#
# Total GULP energy -312214.454207 kJ/mol
# GULP energy per Si atom -5575.258111 kJ/mol
# Density = 2.514642 g / cm^3
# Si number density = 25.203789 Si / 1000 Ang^3
#
#
#
# Elastic Constant Matrix: (Units=GPa)
#
#
# Indices 1 2 3 4 5 6 
#
# 1 155.1489 -15.4788 16.8593 0.0000 0.0000 0.0000
# 2 -15.4788 29.7077 -1.3447 0.0000 0.0000 0.0000
# 3 16.8593 -1.3447 74.1770 0.0000 0.0000 0.0000
# 4 0.0000 0.0000 0.0000 24.6265 0.0000 0.0000
# 5 0.0000 0.0000 0.0000 0.0000 23.4652 0.0000
# 6 0.0000 0.0000 0.0000 0.0000 0.0000 23.7902
#
#
#
# Elastic Compliance Matrix: (Units=1/GPa)
#
#
# Indices 1 2 3 4 5 6 
#
# 1 0.006966 0.003561 -0.001519 0.000000 0.000000 0.000000
# 2 0.003561 0.035509 -0.000166 0.000000 0.000000 0.000000
# 3 -0.001519 -0.000166 0.013823 0.000000 0.000000 0.000000
# 4 0.000000 0.000000 0.000000 0.040607 0.000000 0.000000
# 5 0.000000 0.000000 0.000000 0.000000 0.042616 0.000000
# 6 0.000000 0.000000 0.000000 0.000000 0.000000 0.042034
#
#
# Mechanical properties :
#
#
# Convention : Reuss Voigt Hill
#
# Bulk Modulus (GPa) = 16.65249 28.78946 22.72098
# Shear Modulus (GPa) = 25.27558 31.64291 28.45925
#
# Velocity S-wave (km/s) = 3.17021 3.54712 3.36395
# Velocity P-wave (km/s) = 4.47458 5.31259 4.91149
#
# Compressibility (1/GPa) = 0.06005106
#
# Stress axis : x y z
#
# Youngs Moduli (GPa) = 143.56098 28.16180 72.34093
#
# Poissons Ratio (x) = -0.10027 0.10986
# Poissons Ratio (y) = -0.51117 0.01198
# Poissons Ratio (z) = 0.21802 0.00466
#
# Static dielectric constant tensor:
#      x y z
#    x 2.114900 0.000000 0.000000 
#    y 0.000000 2.196540 0.000000 
#    z 0.000000 0.000000 2.076090 
# 
# From -- ./inp_files/10308.got.cif
#   From: 2010.05.17/outbox.cif.g08.bks.cpg/sg61_6_cif.got.tgz:10308.got - 2010.06.03 15:17:17.
