data_PCOD9459798
_publ_section_title
;
Structure prediction by ZEFSAII (Michael W. Deem and Ramdas Pophale) SiO2 
 PCOD9459798
Probable space group: P B C A
;
_chemical_formula_sum "Si O2"
_cell_formula_units_Z 56
_cell_length_a 13.181684
_cell_length_b 16.847496
_cell_length_c 9.190955
_cell_angle_alpha 90.000000
_cell_angle_beta 90.000000
_cell_angle_gamma 90.000000
_cell_volume 2041.112291
_symmetry_space_group_name_H-M "P B C A"
_symmetry_group_IT_number 61
_symmetry_cell_setting 'orthorhombic'
loop_
_space_group_symop_operation_xyz
x,y,z
1/2-x,-y,1/2+z
1/2+x,1/2-y,-z
-x,1/2+y,1/2-z
-x,-y,-z
1/2+x,y,1/2-z
1/2-x,1/2+y,z
x,1/2-y,1/2+z
loop_
_atom_site_type_symbol
_atom_site_label
_atom_site_fract_x
_atom_site_fract_y
_atom_site_fract_z
Si Si1 0.296033 0.501755 0.571601
Si Si2 0.408792 0.433342 0.183656
Si Si3 0.662955 0.834086 0.771437
Si Si4 0.014915 0.106608 0.122900
Si Si5 0.320837 0.612711 0.904091
Si Si6 0.730019 0.270843 0.507038
Si Si7 0.555911 0.375994 0.385864
O O1 0.211835 0.555721 0.655097
O O2 0.324103 0.420687 0.655311
O O3 0.235203 0.468250 0.434745
O O4 0.395963 0.549976 0.528663
O O5 0.460548 0.521028 0.192542
O O6 0.439930 0.383802 0.330389
O O7 0.449911 0.402914 0.026204
O O8 0.543656 0.833529 0.727776
O O9 0.696953 0.763293 0.879414
O O10 0.725079 0.834357 0.620405
O O11 0.122709 0.131199 0.058694
O O12 0.268004 0.695447 0.885608
O O13 0.396994 0.606781 0.773140
O O14 0.619282 0.302268 0.452326
#
# Coordination Sequence:
#
# PCOD9459798 Si02
#       7
#     8   8   8   8   8   8   8
#     4  10  21  35  65  88 120 152 207 256 303 360
#     4   9  18  35  59  96 113 156 205 253 307 362
#     4  11  22  41  61  90 120 169 203 254 305 369
#     4   9  17  36  63  84 120 155 208 243 307 370
#     4   9  21  40  57  88 122 164 204 251 303 372
#     4  11  23  40  58  86 127 164 202 245 315 358
#     4  11  20  37  65  85 122 161 209 254 304 363
#
# _framework density 27.436021
#
# number of rings (size 3 to 8) (size 9 to 14) (size 15 to 20)
#    0.000    2.000    2.857    1.714    2.000    0.000 
#    7.714    0.714    0.000    0.000    0.000    0.000 
#    0.000    0.000    0.000    0.000    0.000    0.000 
#
# Total GULP energy -312597.055531 kJ/mol
# GULP energy per Si atom -5582.090277 kJ/mol
# Density = 2.737358 g / cm^3
# Si number density = 27.436021 Si / 1000 Ang^3
#
#
#
# Elastic Constant Matrix: (Units=GPa)
#
#
# Indices 1 2 3 4 5 6 
#
# 1 60.2064 -0.1513 -3.8666 0.0000 0.0000 0.0000
# 2 -0.1513 101.3569 18.9856 0.0000 0.0000 0.0000
# 3 -3.8666 18.9856 56.1751 0.0000 0.0000 0.0000
# 4 0.0000 0.0000 0.0000 26.9970 0.0000 0.0000
# 5 0.0000 0.0000 0.0000 0.0000 42.9516 0.0000
# 6 0.0000 0.0000 0.0000 0.0000 0.0000 31.5279
#
#
#
# Elastic Compliance Matrix: (Units=1/GPa)
#
#
# Indices 1 2 3 4 5 6 
#
# 1 0.016687 -0.000203 0.001217 0.000000 0.000000 0.000000
# 2 -0.000203 0.010535 -0.003575 0.000000 0.000000 0.000000
# 3 0.001217 -0.003575 0.019093 0.000000 0.000000 0.000000
# 4 0.000000 0.000000 0.000000 0.037041 0.000000 0.000000
# 5 0.000000 0.000000 0.000000 0.000000 0.023282 0.000000
# 6 0.000000 0.000000 0.000000 0.000000 0.000000 0.031718
#
#
# Mechanical properties :
#
#
# Convention : Reuss Voigt Hill
#
# Bulk Modulus (GPa) = 24.27480 27.51931 25.89705
# Shear Modulus (GPa) = 31.80463 33.81334 32.80898
#
# Velocity S-wave (km/s) = 3.40844 3.51443 3.46184
# Velocity P-wave (km/s) = 4.93527 5.14979 5.04367
#
# Compressibility (1/GPa) = 0.04119498
#
# Stress axis : x y z
#
# Youngs Moduli (GPa) = 59.92620 94.91805 52.37412
#
# Poissons Ratio (x) = 0.01928 -0.06375
# Poissons Ratio (y) = 0.01217 0.18722
# Poissons Ratio (z) = -0.07294 0.33930
#
# Static dielectric constant tensor:
#      x y z
#    x 2.368870 0.000000 0.000000 
#    y 0.000000 2.241510 0.000000 
#    z 0.000000 0.000000 2.247350 
# 
# From -- ./inp_files/3071.got.cif
#   From: 2010.05.17/outbox.cif.g08.bks.cpg/sg61_2_cif.got.tgz:3071.got - 2010.06.03 15:17:17.
