data_PCOD9459954
_publ_section_title
;
Structure prediction by ZEFSAII (Michael W. Deem and Ramdas Pophale) SiO2 
 PCOD9459954
Probable space group: P B C A
;
_chemical_formula_sum "Si O2"
_cell_formula_units_Z 48
_cell_length_a 27.183094
_cell_length_b 9.135594
_cell_length_c 8.882043
_cell_angle_alpha 90.000000
_cell_angle_beta 90.000000
_cell_angle_gamma 90.000000
_cell_volume 2205.710695
_symmetry_space_group_name_H-M "P B C A"
_symmetry_group_IT_number 61
_symmetry_cell_setting 'orthorhombic'
loop_
_space_group_symop_operation_xyz
x,y,z
1/2-x,-y,1/2+z
1/2+x,1/2-y,-z
-x,1/2+y,1/2-z
-x,-y,-z
1/2+x,y,1/2-z
1/2-x,1/2+y,z
x,1/2-y,1/2+z
loop_
_atom_site_type_symbol
_atom_site_label
_atom_site_fract_x
_atom_site_fract_y
_atom_site_fract_z
Si Si1 0.789763 0.577665 0.615997
Si Si2 0.151010 0.624462 0.559236
Si Si3 0.405582 0.171301 0.852437
Si Si4 0.257514 0.300152 0.682946
Si Si5 0.955569 0.591761 0.070720
Si Si6 0.992901 0.645792 0.402727
O O1 0.838674 0.528042 0.525439
O O2 0.786456 0.708088 0.737668
O O3 0.755361 0.628973 0.477943
O O4 0.772813 0.430306 0.703310
O O5 0.136947 0.736746 0.428842
O O6 0.107480 0.634437 0.680768
O O7 0.199380 0.682791 0.646404
O O8 0.455641 0.266984 0.870567
O O9 0.410065 0.017359 0.939540
O O10 0.969439 0.610364 0.243565
O O11 0.000000 0.500000 0.000000
O O12 0.956451 0.745914 0.990524
O O13 0.000000 0.500000 0.500000
#
# Coordination Sequence:
#
# PCOD9459954 Si02
#       6
#     8   8   8   8   8   8
#     4  12  23  43  69  99 129 180 230 275 333 419
#     4  12  23  40  68  98 134 172 218 286 344 383
#     4  11  23  41  64  97 132 168 219 273 337 391
#     4  12  23  43  72  95 132 178 234 270 332 418
#     4  10  21  39  64  94 123 175 220 254 317 409
#     4  11  21  40  70  93 131 175 221 267 322 402
#
# _framework density 21.761693999999999
#
# number of rings (size 3 to 8) (size 9 to 14) (size 15 to 20)
#    0.000    0.667    5.000    5.000    0.000    0.000 
#    0.000    3.333    0.000    0.000    0.000    0.000 
#    0.000    0.000    0.000    0.000    0.000    0.000 
#
# Total GULP energy -268001.687015 kJ/mol
# GULP energy per Si atom -5583.368479 kJ/mol
# Density = 2.171216 g / cm^3
# Si number density = 21.761694 Si / 1000 Ang^3
#
#
#
# Elastic Constant Matrix: (Units=GPa)
#
#
# Indices 1 2 3 4 5 6 
#
# 1 40.0582 9.6572 4.8263 0.0000 0.0000 0.0000
# 2 9.6572 77.2229 3.7528 0.0000 0.0000 0.0000
# 3 4.8263 3.7528 78.4572 0.0000 0.0000 0.0000
# 4 0.0000 0.0000 0.0000 44.6925 0.0000 0.0000
# 5 0.0000 0.0000 0.0000 0.0000 34.7641 0.0000
# 6 0.0000 0.0000 0.0000 0.0000 0.0000 34.8049
#
#
#
# Elastic Compliance Matrix: (Units=1/GPa)
#
#
# Indices 1 2 3 4 5 6 
#
# 1 0.025901 -0.003169 -0.001442 0.000000 0.000000 0.000000
# 2 -0.003169 0.013367 -0.000444 0.000000 0.000000 0.000000
# 3 -0.001442 -0.000444 0.012856 0.000000 0.000000 0.000000
# 4 0.000000 0.000000 0.000000 0.022375 0.000000 0.000000
# 5 0.000000 0.000000 0.000000 0.000000 0.028765 0.000000
# 6 0.000000 0.000000 0.000000 0.000000 0.000000 0.028732
#
#
# Mechanical properties :
#
#
# Convention : Reuss Voigt Hill
#
# Bulk Modulus (GPa) = 23.80156 25.80120 24.80138
# Shear Modulus (GPa) = 32.02833 34.68576 33.35705
#
# Velocity S-wave (km/s) = 3.84053 3.99669 3.91939
# Velocity P-wave (km/s) = 5.53420 5.76021 5.64834
#
# Compressibility (1/GPa) = 0.04201406
#
# Stress axis : x y z
#
# Youngs Moduli (GPa) = 38.60801 74.80863 77.78616
#
# Poissons Ratio (x) = 0.23707 0.11215
# Poissons Ratio (y) = 0.12235 0.03457
# Poissons Ratio (z) = 0.05566 0.03325
#
# Static dielectric constant tensor:
#      x y z
#    x 1.865600 0.000000 0.000000 
#    y 0.000000 1.815190 0.000000 
#    z 0.000000 0.000000 1.842750 
# 
# From -- ./inp_files/1850.got.cif
#   From: 2010.05.17/outbox.cif.g08.bks.cpg/sg61_1_cif.got.tgz:1850.got - 2010.06.03 15:17:17.
