data_PCOD9459614
_publ_section_title
;
Structure prediction by ZEFSAII (Michael W. Deem and Ramdas Pophale) SiO2 
 PCOD9459614
Probable space group: P B C A
;
_chemical_formula_sum "Si O2"
_cell_formula_units_Z 48
_cell_length_a 10.691460
_cell_length_b 21.436523
_cell_length_c 8.777212
_cell_angle_alpha 90.000000
_cell_angle_beta 90.000000
_cell_angle_gamma 90.000000
_cell_volume 2011.629278
_symmetry_space_group_name_H-M "P B C A"
_symmetry_group_IT_number 61
_symmetry_cell_setting 'orthorhombic'
loop_
_space_group_symop_operation_xyz
x,y,z
1/2-x,-y,1/2+z
1/2+x,1/2-y,-z
-x,1/2+y,1/2-z
-x,-y,-z
1/2+x,y,1/2-z
1/2-x,1/2+y,z
x,1/2-y,1/2+z
loop_
_atom_site_type_symbol
_atom_site_label
_atom_site_fract_x
_atom_site_fract_y
_atom_site_fract_z
Si Si1 0.206665 0.473277 0.458008
Si Si2 0.171782 0.578085 0.228244
Si Si3 0.959852 0.081320 0.977877
Si Si4 0.512852 0.226560 0.970895
Si Si5 0.857552 0.193553 0.800458
Si Si6 0.670853 0.202766 0.244970
O O1 0.237790 0.521906 0.324781
O O2 0.320730 0.446583 0.555444
O O3 0.112921 0.516998 0.558148
O O4 0.102571 0.420315 0.417568
O O5 0.050793 0.587804 0.336771
O O6 0.241370 0.644192 0.226340
O O7 0.870262 0.132145 0.899751
O O8 0.447765 0.185367 0.843764
O O9 0.573569 0.284964 0.881160
O O10 0.412206 0.253956 0.086592
O O11 0.610917 0.193050 0.079344
O O12 0.735202 0.228308 0.739135
#
# Coordination Sequence:
#
# PCOD9459614 Si02
#       6
#     8   8   8   8   8   8
#     4   9  21  40  61  84 119 165 203 253 304 354
#     4  10  20  39  61  85 119 159 209 254 301 363
#     4   9  20  40  62  83 123 158 206 248 308 364
#     4  10  23  37  58  94 118 163 198 241 323 361
#     4  11  21  41  63  87 130 159 201 254 315 362
#     4  11  22  39  60  91 123 156 203 255 305 373
#
# _framework density 23.861256000000001
#
# number of rings (size 3 to 8) (size 9 to 14) (size 15 to 20)
#    1.000    1.000    0.000    4.000    0.000    2.667 
#    9.000    0.833    0.000    0.000    0.000    0.000 
#    0.000    0.000    0.000    0.000    0.000    0.000 
#
# Total GULP energy -267368.247583 kJ/mol
# GULP energy per Si atom -5570.171825 kJ/mol
# Density = 2.380695 g / cm^3
# Si number density = 23.861256 Si / 1000 Ang^3
#
#
#
# Elastic Constant Matrix: (Units=GPa)
#
#
# Indices 1 2 3 4 5 6 
#
# 1 27.4811 10.0360 15.6877 0.0000 0.0000 0.0000
# 2 10.0360 48.0890 11.0950 0.0000 0.0000 0.0000
# 3 15.6877 11.0950 78.7203 0.0000 0.0000 0.0000
# 4 0.0000 0.0000 0.0000 25.9403 0.0000 0.0000
# 5 0.0000 0.0000 0.0000 0.0000 25.4933 0.0000
# 6 0.0000 0.0000 0.0000 0.0000 0.0000 0.5173
#
#
#
# Elastic Compliance Matrix: (Units=1/GPa)
#
#
# Indices 1 2 3 4 5 6 
#
# 1 0.043405 -0.007300 -0.007621 0.000000 0.000000 0.000000
# 2 -0.007300 0.022722 -0.001748 0.000000 0.000000 0.000000
# 3 -0.007621 -0.001748 0.014468 0.000000 0.000000 0.000000
# 4 0.000000 0.000000 0.000000 0.038550 0.000000 0.000000
# 5 0.000000 0.000000 0.000000 0.000000 0.039226 0.000000
# 6 0.000000 0.000000 0.000000 0.000000 0.000000 1.932959
#
#
# Mechanical properties :
#
#
# Convention : Reuss Voigt Hill
#
# Bulk Modulus (GPa) = 21.16078 25.32532 23.24305
# Shear Modulus (GPa) = 2.33599 18.22164 10.27881
#
# Velocity S-wave (km/s) = 0.99051 2.76642 2.07776
# Velocity P-wave (km/s) = 3.19307 4.56516 3.93931
#
# Compressibility (1/GPa) = 0.04725723
#
# Stress axis : x y z
#
# Youngs Moduli (GPa) = 23.03872 44.01113 69.11678
#
# Poissons Ratio (x) = 0.32129 0.52674
# Poissons Ratio (y) = 0.16819 0.12079
# Poissons Ratio (z) = 0.17558 0.07691
#
# Static dielectric constant tensor:
#      x y z
#    x 2.045250 0.000000 0.000000 
#    y 0.000000 1.953250 0.000000 
#    z 0.000000 0.000000 1.897930 
# 
# From -- ./inp_files/2248.got.cif
#   From: 2010.05.17/outbox.cif.g08.bks.cpg/sg61_2_cif.got.tgz:2248.got - 2010.06.03 15:17:17.
