data_PCOD9459907
_publ_section_title
;
Structure prediction by ZEFSAII (Michael W. Deem and Ramdas Pophale) SiO2 
 PCOD9459907
Probable space group: P B C A
;
_chemical_formula_sum "Si O2"
_cell_formula_units_Z 56
_cell_length_a 9.845244
_cell_length_b 23.371600
_cell_length_c 11.160196
_cell_angle_alpha 90.000000
_cell_angle_beta 90.000000
_cell_angle_gamma 90.000000
_cell_volume 2567.951108
_symmetry_space_group_name_H-M "P B C A"
_symmetry_group_IT_number 61
_symmetry_cell_setting 'orthorhombic'
loop_
_space_group_symop_operation_xyz
x,y,z
1/2-x,-y,1/2+z
1/2+x,1/2-y,-z
-x,1/2+y,1/2-z
-x,-y,-z
1/2+x,y,1/2-z
1/2-x,1/2+y,z
x,1/2-y,1/2+z
loop_
_atom_site_type_symbol
_atom_site_label
_atom_site_fract_x
_atom_site_fract_y
_atom_site_fract_z
Si Si1 0.774594 0.371710 0.040196
Si Si2 0.599224 0.661414 0.765776
Si Si3 0.348258 0.436889 0.066045
Si Si4 0.930334 0.873633 0.448783
Si Si5 0.563482 0.337307 0.704330
Si Si6 0.431887 0.939895 0.622545
Si Si7 0.792405 0.281324 0.845989
O O1 0.661912 0.409010 0.977273
O O2 0.777091 0.308948 0.977564
O O3 0.777132 0.361193 0.181289
O O4 0.922790 0.400455 0.016886
O O5 0.574675 0.613622 0.864087
O O6 0.477172 0.662721 0.668046
O O7 0.645982 0.718706 0.831339
O O8 0.191680 0.417583 0.066463
O O9 0.377068 0.496056 0.133799
O O10 0.417053 0.442063 0.934816
O O11 0.895721 0.835554 0.564791
O O12 0.581163 0.399987 0.761626
O O13 0.653107 0.292545 0.777712
O O14 0.406066 0.321517 0.715216
#
# Coordination Sequence:
#
# PCOD9459907 Si02
#       7
#     8   8   8   8   8   8   8
#     4   8  21  41  61  92 127 165 209 259 322 383
#     4  10  24  41  63  95 129 169 212 260 320 384
#     4  11  24  41  65  95 128 170 215 272 316 380
#     4   9  22  43  61  94 124 166 215 252 326 381
#     4  10  21  43  64  96 123 171 209 264 317 388
#     4  10  23  43  64  95 129 165 217 266 324 377
#     4  10  21  38  66  91 128 163 209 261 316 378
#
# _framework density 21.807269000000002
#
# number of rings (size 3 to 8) (size 9 to 14) (size 15 to 20)
#    0.857    1.429    0.000    0.857    4.000    4.000 
#   12.857    0.000    0.000    0.000    0.000    0.000 
#    0.000    0.000    0.000    0.000    0.000    0.000 
#
# Total GULP energy -312149.698740 kJ/mol
# GULP energy per Si atom -5574.101763 kJ/mol
# Density = 2.175764 g / cm^3
# Si number density = 21.807269 Si / 1000 Ang^3
#
#
#
# Elastic Constant Matrix: (Units=GPa)
#
#
# Indices 1 2 3 4 5 6 
#
# 1 61.2887 -6.0370 -0.8458 0.0000 0.0000 0.0000
# 2 -6.0370 86.6420 -11.8999 0.0000 0.0000 0.0000
# 3 -0.8458 -11.8999 22.3935 0.0000 0.0000 0.0000
# 4 0.0000 0.0000 0.0000 -0.3719 0.0000 0.0000
# 5 0.0000 0.0000 0.0000 0.0000 20.2597 0.0000
# 6 0.0000 0.0000 0.0000 0.0000 0.0000 -7.8283
#
#
#
# Elastic Compliance Matrix: (Units=1/GPa)
#
#
# Indices 1 2 3 4 5 6 
#
# 1 0.016466 0.001330 0.001329 0.000000 0.000000 0.000000
# 2 0.001330 0.012558 0.006723 0.000000 0.000000 0.000000
# 3 0.001329 0.006723 0.048279 0.000000 0.000000 0.000000
# 4 0.000000 0.000000 0.000000 -2.688697 0.000000 0.000000
# 5 0.000000 0.000000 0.000000 0.000000 0.049359 0.000000
# 6 0.000000 0.000000 0.000000 0.000000 0.000000 -0.127742
#
#
# Mechanical properties :
#
#
# Convention : Reuss Voigt Hill
#
# Bulk Modulus (GPa) = 10.40955 14.75098 12.58026
# Shear Modulus (GPa) = -1.86810 15.01902 6.57546
#
# Velocity S-wave (km/s) = -0.92655 2.62719 1.73833
# Velocity P-wave (km/s) = 1.90765 3.99772 3.13216
#
# Compressibility (1/GPa) = 0.09606568
#
# Stress axis : x y z
#
# Youngs Moduli (GPa) = 60.73287 79.63152 20.71301
#
# Poissons Ratio (x) = -0.10589 -0.02752
# Poissons Ratio (y) = -0.08076 -0.13926
# Poissons Ratio (z) = -0.08068 -0.53540
#
# Static dielectric constant tensor:
#      x y z
#    x 1.858460 0.000000 0.000000 
#    y 0.000000 1.772080 0.000000 
#    z 0.000000 0.000000 1.790540 
# 
# From -- ./inp_files/5327.got.cif
#   From: 2010.05.17/outbox.cif.g08.bks.cpg/sg61_3_cif.got.tgz:5327.got - 2010.06.03 15:17:17.
