data_PCOD9459940
_publ_section_title
;
Structure prediction by ZEFSAII (Michael W. Deem and Ramdas Pophale) SiO2 
 PCOD9459940
Probable space group: P B C A
;
_chemical_formula_sum "Si O2"
_cell_formula_units_Z 48
_cell_length_a 15.232110
_cell_length_b 5.008787
_cell_length_c 27.546408
_cell_angle_alpha 90.000000
_cell_angle_beta 90.000000
_cell_angle_gamma 90.000000
_cell_volume 2101.636520
_symmetry_space_group_name_H-M "P B C A"
_symmetry_group_IT_number 61
_symmetry_cell_setting 'orthorhombic'
loop_
_space_group_symop_operation_xyz
x,y,z
1/2-x,-y,1/2+z
1/2+x,1/2-y,-z
-x,1/2+y,1/2-z
-x,-y,-z
1/2+x,y,1/2-z
1/2-x,1/2+y,z
x,1/2-y,1/2+z
loop_
_atom_site_type_symbol
_atom_site_label
_atom_site_fract_x
_atom_site_fract_y
_atom_site_fract_z
Si Si1 0.375184 0.237681 0.172889
Si Si2 0.600900 0.216240 0.388899
Si Si3 0.309905 0.634332 0.404015
Si Si4 0.195550 0.732961 0.779425
Si Si5 0.307605 0.611025 0.515996
Si Si6 0.444425 0.966534 0.343241
O O1 0.348790 0.455705 0.132049
O O2 0.321917 0.248406 0.222103
O O3 0.475835 0.322834 0.185056
O O4 0.376515 0.952199 0.148085
O O5 0.625422 0.302058 0.442617
O O6 0.498545 0.142984 0.382250
O O7 0.272557 0.337383 0.396213
O O8 0.337142 0.652897 0.460565
O O9 0.387100 0.749137 0.371350
O O10 0.224011 0.432901 0.790837
O O11 0.113348 0.849988 0.808395
O O12 0.276163 0.307489 0.521945
#
# Coordination Sequence:
#
# PCOD9459940 Si02
#       6
#     8   8   8   8   8   8
#     4  10  25  41  62  92 124 162 205 258 313 370
#     4  10  23  39  64  92 123 170 196 262 309 376
#     4  10  22  40  64  92 123 163 210 257 307 369
#     4  12  27  42  67  93 122 165 212 260 315 376
#     4  10  21  39  63  91 126 164 208 256 306 368
#     4  10  26  41  66  88 130 161 208 258 317 370
#
# _framework density 22.839345000000002
#
# number of rings (size 3 to 8) (size 9 to 14) (size 15 to 20)
#    1.000    0.667    0.000    3.000    7.000    4.667 
#    0.000    0.833    0.000    0.000    0.000    0.000 
#    0.000    0.000    0.000    0.000    0.000    0.000 
#
# Total GULP energy -268609.566205 kJ/mol
# GULP energy per Si atom -5596.032629 kJ/mol
# Density = 2.278736 g / cm^3
# Si number density = 22.839345 Si / 1000 Ang^3
#
#
#
# Elastic Constant Matrix: (Units=GPa)
#
#
# Indices 1 2 3 4 5 6 
#
# 1 58.4895 10.0830 25.2240 0.0000 0.0000 0.0000
# 2 10.0830 81.2569 17.8324 0.0000 0.0000 0.0000
# 3 25.2240 17.8324 87.3767 0.0000 0.0000 0.0000
# 4 0.0000 0.0000 0.0000 35.9051 0.0000 0.0000
# 5 0.0000 0.0000 0.0000 0.0000 -48.2296 0.0000
# 6 0.0000 0.0000 0.0000 0.0000 0.0000 18.1488
#
#
#
# Elastic Compliance Matrix: (Units=1/GPa)
#
#
# Indices 1 2 3 4 5 6 
#
# 1 0.019649 -0.001249 -0.005417 0.000000 0.000000 0.000000
# 2 -0.001249 0.012963 -0.002285 0.000000 0.000000 0.000000
# 3 -0.005417 -0.002285 0.013475 0.000000 0.000000 0.000000
# 4 0.000000 0.000000 0.000000 0.027851 0.000000 0.000000
# 5 0.000000 0.000000 0.000000 0.000000 -0.020734 0.000000
# 6 0.000000 0.000000 0.000000 0.000000 0.000000 0.055100
#
#
# Mechanical properties :
#
#
# Convention : Reuss Voigt Hill
#
# Bulk Modulus (GPa) = 35.48152 37.04467 36.26310
# Shear Modulus (GPa) = 36.87280 12.76377 24.81829
#
# Velocity S-wave (km/s) = 4.02237 2.36657 3.30001
# Velocity P-wave (km/s) = 6.09439 4.87056 5.51652
#
# Compressibility (1/GPa) = 0.02818368
#
# Stress axis : x y z
#
# Youngs Moduli (GPa) = 50.89402 77.14193 74.21220
#
# Poissons Ratio (x) = 0.09637 0.40203
# Poissons Ratio (y) = 0.06358 0.16957
# Poissons Ratio (z) = 0.27570 0.17627
#
# Static dielectric constant tensor:
#      x y z
#    x 1.867240 0.000000 0.000000 
#    y 0.000000 1.828380 0.000000 
#    z 0.000000 0.000000 1.823410 
# 
# From -- ./inp_files/11494.got.cif
#   From: 2010.05.17/outbox.cif.g08.bks.cpg/sg61_6_cif.got.tgz:11494.got - 2010.06.03 15:17:17.
