data_PCOD9459796
_publ_section_title
;
Structure prediction by ZEFSAII (Michael W. Deem and Ramdas Pophale) SiO2 
 PCOD9459796
Probable space group: P B C A
;
_chemical_formula_sum "Si O2"
_cell_formula_units_Z 64
_cell_length_a 19.469898
_cell_length_b 17.616724
_cell_length_c 7.889113
_cell_angle_alpha 90.000000
_cell_angle_beta 90.000000
_cell_angle_gamma 90.000000
_cell_volume 2705.932778
_symmetry_space_group_name_H-M "P B C A"
_symmetry_group_IT_number 61
_symmetry_cell_setting 'orthorhombic'
loop_
_space_group_symop_operation_xyz
x,y,z
1/2-x,-y,1/2+z
1/2+x,1/2-y,-z
-x,1/2+y,1/2-z
-x,-y,-z
1/2+x,y,1/2-z
1/2-x,1/2+y,z
x,1/2-y,1/2+z
loop_
_atom_site_type_symbol
_atom_site_label
_atom_site_fract_x
_atom_site_fract_y
_atom_site_fract_z
Si Si1 0.037677 0.150491 0.824056
Si Si2 0.253171 0.600264 0.705055
Si Si3 0.653095 0.814842 0.854865
Si Si4 0.621095 0.103548 0.369940
Si Si5 0.606376 0.838099 0.200121
Si Si6 0.705714 0.256105 0.428200
Si Si7 0.921933 0.818757 0.563516
Si Si8 0.254509 0.444531 0.816039
O O1 0.043834 0.237614 0.893563
O O2 0.062087 0.153948 0.627116
O O3 0.957453 0.131874 0.806004
O O4 0.077946 0.096282 0.955780
O O5 0.175090 0.617698 0.752100
O O6 0.289936 0.681491 0.722960
O O7 0.281963 0.530560 0.810254
O O8 0.257932 0.576574 0.509692
O O9 0.601120 0.844417 0.997290
O O10 0.715650 0.730764 0.450164
O O11 0.616831 0.751404 0.741252
O O12 0.692446 0.883016 0.760409
O O13 0.661676 0.182028 0.401492
O O14 0.568797 0.121169 0.214273
O O15 0.683448 0.053205 0.293730
O O16 0.660207 0.301600 0.562227
#
# Coordination Sequence:
#
# PCOD9459796 Si02
#       8
#     8   8   8   8   8   8   8   8
#     4  11  22  36  58  95 122 166 206 253 311 359
#     4  11  23  39  63  86 126 163 198 259 312 387
#     4  10  21  35  62  88 123 161 192 257 306 375
#     4  10  22  39  64  93 123 157 207 267 302 365
#     4  11  23  39  59  93 130 163 203 247 312 375
#     4   9  19  33  60  91 117 150 202 251 320 353
#     4  11  19  33  60  89 121 155 202 261 295 358
#     4  11  23  42  61  93 121 160 210 251 324 371
#
# _framework density 23.651733
#
# number of rings (size 3 to 8) (size 9 to 14) (size 15 to 20)
#    0.000    1.500    3.750    3.000    3.500    3.000 
#    2.250    0.625    0.000    0.750    0.000    2.625 
#    0.000    0.000    0.000    0.000    0.000    0.000 
#
# Total GULP energy -357322.739388 kJ/mol
# GULP energy per Si atom -5583.167803 kJ/mol
# Density = 2.359790 g / cm^3
# Si number density = 23.651733 Si / 1000 Ang^3
#
#
#
# Elastic Constant Matrix: (Units=GPa)
#
#
# Indices 1 2 3 4 5 6 
#
# 1 46.3068 3.0396 11.5466 0.0000 0.0000 0.0000
# 2 3.0396 63.8822 -7.0795 0.0000 0.0000 0.0000
# 3 11.5466 -7.0795 110.1515 0.0000 0.0000 0.0000
# 4 0.0000 0.0000 0.0000 26.5687 0.0000 0.0000
# 5 0.0000 0.0000 0.0000 0.0000 23.5816 0.0000
# 6 0.0000 0.0000 0.0000 0.0000 0.0000 13.8781
#
#
#
# Elastic Compliance Matrix: (Units=1/GPa)
#
#
# Indices 1 2 3 4 5 6 
#
# 1 0.022286 -0.001329 -0.002422 0.000000 0.000000 0.000000
# 2 -0.001329 0.015845 0.001158 0.000000 0.000000 0.000000
# 3 -0.002422 0.001158 0.009407 0.000000 0.000000 0.000000
# 4 0.000000 0.000000 0.000000 0.037638 0.000000 0.000000
# 5 0.000000 0.000000 0.000000 0.000000 0.042406 0.000000
# 6 0.000000 0.000000 0.000000 0.000000 0.000000 0.072056
#
#
# Mechanical properties :
#
#
# Convention : Reuss Voigt Hill
#
# Bulk Modulus (GPa) = 23.61114 26.15043 24.88079
# Shear Modulus (GPa) = 22.83718 26.99459 24.91589
#
# Velocity S-wave (km/s) = 3.11072 3.38203 3.24921
# Velocity P-wave (km/s) = 4.78608 5.13141 4.96175
#
# Compressibility (1/GPa) = 0.04235288
#
# Stress axis : x y z
#
# Youngs Moduli (GPa) = 44.87094 63.11008 106.30785
#
# Poissons Ratio (x) = 0.08386 0.25743
# Poissons Ratio (y) = 0.05962 -0.12307
# Poissons Ratio (z) = 0.10866 -0.07306
#
# Static dielectric constant tensor:
#      x y z
#    x 1.962420 0.000000 0.000000 
#    y 0.000000 1.928670 0.000000 
#    z 0.000000 0.000000 1.973930 
# 
# From -- ./inp_files/4120.got.cif
#   From: 2010.05.17/outbox.cif.g08.bks.cpg/sg61_3_cif.got.tgz:4120.got - 2010.06.03 15:17:17.
