data_PCOD9459820
_publ_section_title
;
Structure prediction by ZEFSAII (Michael W. Deem and Ramdas Pophale) SiO2 
 PCOD9459820
Probable space group: P B C A
;
_chemical_formula_sum "Si O2"
_cell_formula_units_Z 56
_cell_length_a 34.467850
_cell_length_b 5.119498
_cell_length_c 15.006374
_cell_angle_alpha 90.000000
_cell_angle_beta 90.000000
_cell_angle_gamma 90.000000
_cell_volume 2647.996081
_symmetry_space_group_name_H-M "P B C A"
_symmetry_group_IT_number 61
_symmetry_cell_setting 'orthorhombic'
loop_
_space_group_symop_operation_xyz
x,y,z
1/2-x,-y,1/2+z
1/2+x,1/2-y,-z
-x,1/2+y,1/2-z
-x,-y,-z
1/2+x,y,1/2-z
1/2-x,1/2+y,z
x,1/2-y,1/2+z
loop_
_atom_site_type_symbol
_atom_site_label
_atom_site_fract_x
_atom_site_fract_y
_atom_site_fract_z
Si Si1 0.724827 0.829825 0.929594
Si Si2 0.556132 0.063235 0.704744
Si Si3 0.338157 0.155187 0.428838
Si Si4 0.020160 0.834485 0.635456
Si Si5 0.609821 0.159503 0.091456
Si Si6 0.774839 0.179055 0.218340
Si Si7 0.542184 0.681149 0.547192
O O1 0.758964 0.619038 0.949262
O O2 0.688645 0.736585 0.987851
O O3 0.716080 0.827821 0.823798
O O4 0.513649 0.192304 0.690744
O O5 0.590732 0.263678 0.686929
O O6 0.553779 0.919829 0.798258
O O7 0.559605 0.867126 0.621961
O O8 0.363071 0.409298 0.405021
O O9 0.310186 0.104015 0.344868
O O10 0.365434 0.903785 0.444330
O O11 0.035305 0.686813 0.548045
O O12 0.997733 0.078012 0.590351
O O13 0.571784 0.062378 0.036696
O O14 0.759091 0.469188 0.199598
#
# Coordination Sequence:
#
# PCOD9459820 Si02
#       7
#     8   8   8   8   8   8   8
#     4  10  21  39  66  95 119 153 211 262 296 357
#     4  11  20  41  62  93 124 160 217 264 317 374
#     4  12  22  42  62  89 129 173 194 248 319 368
#     4  10  21  36  70  90 116 163 208 276 318 352
#     4  11  25  41  58  87 135 167 204 249 300 400
#     4  10  21  39  66  97 121 155 212 261 298 357
#     4  10  21  42  59  95 120 161 213 263 312 371
#
# _framework density 21.148067999999999
#
# number of rings (size 3 to 8) (size 9 to 14) (size 15 to 20)
#    0.000    1.429    2.857    3.000    0.000    0.000 
#    5.143    0.000    0.000    0.000    0.000    0.000 
#    0.000    0.000    0.000    0.000    0.000    0.000 
#
# Total GULP energy -312694.596228 kJ/mol
# GULP energy per Si atom -5583.832075 kJ/mol
# Density = 2.109993 g / cm^3
# Si number density = 21.148068 Si / 1000 Ang^3
#
#
#
# Elastic Constant Matrix: (Units=GPa)
#
#
# Indices 1 2 3 4 5 6 
#
# 1 63.4263 9.6803 13.5474 0.0000 0.0000 0.0000
# 2 9.6803 79.3174 3.3644 0.0000 0.0000 0.0000
# 3 13.5474 3.3644 64.1159 0.0000 0.0000 0.0000
# 4 0.0000 0.0000 0.0000 16.2989 0.0000 0.0000
# 5 0.0000 0.0000 0.0000 0.0000 0.9984 0.0000
# 6 0.0000 0.0000 0.0000 0.0000 0.0000 43.5577
#
#
#
# Elastic Compliance Matrix: (Units=1/GPa)
#
#
# Indices 1 2 3 4 5 6 
#
# 1 0.016793 -0.001903 -0.003448 0.000000 0.000000 0.000000
# 2 -0.001903 0.012851 -0.000272 0.000000 0.000000 0.000000
# 3 -0.003448 -0.000272 0.016340 0.000000 0.000000 0.000000
# 4 0.000000 0.000000 0.000000 0.061354 0.000000 0.000000
# 5 0.000000 0.000000 0.000000 0.000000 1.001639 0.000000
# 6 0.000000 0.000000 0.000000 0.000000 0.000000 0.022958
#
#
# Mechanical properties :
#
#
# Convention : Reuss Voigt Hill
#
# Bulk Modulus (GPa) = 28.78812 28.89373 28.84092
# Shear Modulus (GPa) = 4.32990 24.18883 14.25936
#
# Velocity S-wave (km/s) = 1.43243 3.38566 2.59947
# Velocity P-wave (km/s) = 4.04698 5.38292 4.76203
#
# Compressibility (1/GPa) = 0.03473656
#
# Stress axis : x y z
#
# Youngs Moduli (GPa) = 59.54729 77.81250 61.20066
#
# Poissons Ratio (x) = 0.14810 0.21105
# Poissons Ratio (y) = 0.11333 0.01666
# Poissons Ratio (z) = 0.20535 0.02118
#
# Static dielectric constant tensor:
#      x y z
#    x 1.843820 0.000000 0.000000 
#    y 0.000000 1.814150 0.000000 
#    z 0.000000 0.000000 1.864160 
# 
# From -- ./inp_files/8669.got.cif
#   From: 2010.05.17/outbox.cif.g08.bks.cpg/sg61_5_cif.got.tgz:8669.got - 2010.06.03 15:17:17.
