data_PCOD9459711
_publ_section_title
;
Structure prediction by ZEFSAII (Michael W. Deem and Ramdas Pophale) SiO2 
 PCOD9459711
Probable space group: P B C A
;
_chemical_formula_sum "Si O2"
_cell_formula_units_Z 56
_cell_length_a 11.694492
_cell_length_b 17.726396
_cell_length_c 10.853479
_cell_angle_alpha 90.000000
_cell_angle_beta 90.000000
_cell_angle_gamma 90.000000
_cell_volume 2249.939180
_symmetry_space_group_name_H-M "P B C A"
_symmetry_group_IT_number 61
_symmetry_cell_setting 'orthorhombic'
loop_
_space_group_symop_operation_xyz
x,y,z
1/2-x,-y,1/2+z
1/2+x,1/2-y,-z
-x,1/2+y,1/2-z
-x,-y,-z
1/2+x,y,1/2-z
1/2-x,1/2+y,z
x,1/2-y,1/2+z
loop_
_atom_site_type_symbol
_atom_site_label
_atom_site_fract_x
_atom_site_fract_y
_atom_site_fract_z
Si Si1 0.315750 0.313502 0.610914
Si Si2 0.039275 0.875990 0.912262
Si Si3 0.522463 0.369556 0.479891
Si Si4 0.127052 0.286241 0.430058
Si Si5 0.827193 0.556775 0.307260
Si Si6 0.461613 0.280506 0.268463
Si Si7 0.234506 0.468226 0.960220
O O1 0.424309 0.366594 0.582587
O O2 0.251892 0.300857 0.481285
O O3 0.229300 0.359108 0.698478
O O4 0.366705 0.235318 0.663481
O O5 0.962592 0.931403 0.827154
O O6 0.056137 0.795834 0.846194
O O7 0.158636 0.910788 0.950972
O O8 0.953634 0.854643 0.023334
O O9 0.589759 0.291247 0.504550
O O10 0.461979 0.355678 0.348911
O O11 0.614884 0.433714 0.493008
O O12 0.088585 0.277492 0.290531
O O13 0.791608 0.512599 0.183689
O O14 0.775905 0.524669 0.434074
#
# Coordination Sequence:
#
# PCOD9459711 Si02
#       7
#     8   8   8   8   8   8   8
#     4  10  21  42  66  94 139 183 230 293 363 440
#     4  10  22  45  67  96 137 188 234 295 369 432
#     4  10  24  38  65 104 135 177 230 299 363 429
#     4   9  21  37  66 101 135 174 233 289 372 435
#     4  11  25  46  72  96 137 196 247 298 363 425
#     4  10  20  41  68 102 138 180 230 294 369 435
#     4  12  26  45  69 101 141 186 250 299 359 433
#
# _framework density 24.889562000000002
#
# number of rings (size 3 to 8) (size 9 to 14) (size 15 to 20)
#    0.000    1.714    1.429    2.143    6.000    6.286 
#    2.571    0.000    0.000    0.000    0.000    0.000 
#    0.000    0.000    0.000    0.000    0.000    0.000 
#
# Total GULP energy -312867.817236 kJ/mol
# GULP energy per Si atom -5586.925308 kJ/mol
# Density = 2.483291 g / cm^3
# Si number density = 24.889562 Si / 1000 Ang^3
#
#
#
# Elastic Constant Matrix: (Units=GPa)
#
#
# Indices 1 2 3 4 5 6 
#
# 1 129.2103 21.1381 27.3099 0.0000 0.0000 0.0000
# 2 21.1381 30.5914 30.1647 0.0000 0.0000 0.0000
# 3 27.3099 30.1647 111.2486 0.0000 0.0000 0.0000
# 4 0.0000 0.0000 0.0000 33.5641 0.0000 0.0000
# 5 0.0000 0.0000 0.0000 0.0000 31.9866 0.0000
# 6 0.0000 0.0000 0.0000 0.0000 0.0000 45.8328
#
#
#
# Elastic Compliance Matrix: (Units=1/GPa)
#
#
# Indices 1 2 3 4 5 6 
#
# 1 0.008765 -0.005371 -0.000695 0.000000 0.000000 0.000000
# 2 -0.005371 0.047909 -0.011672 0.000000 0.000000 0.000000
# 3 -0.000695 -0.011672 0.012324 0.000000 0.000000 0.000000
# 4 0.000000 0.000000 0.000000 0.029794 0.000000 0.000000
# 5 0.000000 0.000000 0.000000 0.000000 0.031263 0.000000
# 6 0.000000 0.000000 0.000000 0.000000 0.000000 0.021818
#
#
# Mechanical properties :
#
#
# Convention : Reuss Voigt Hill
#
# Bulk Modulus (GPa) = 29.83087 47.58617 38.70852
# Shear Modulus (GPa) = 25.18588 35.10588 30.14588
#
# Velocity S-wave (km/s) = 3.18450 3.75969 3.48398
# Velocity P-wave (km/s) = 5.05299 6.16502 5.63649
#
# Compressibility (1/GPa) = 0.03352232
#
# Stress axis : x y z
#
# Youngs Moduli (GPa) = 114.09119 20.87285 81.13984
#
# Poissons Ratio (x) = 0.11210 0.05643
# Poissons Ratio (y) = 0.61275 0.94706
# Poissons Ratio (z) = 0.07934 0.24363
#
# Static dielectric constant tensor:
#      x y z
#    x 1.984930 0.000000 0.000000 
#    y 0.000000 1.963480 0.000000 
#    z 0.000000 0.000000 2.115640 
# 
# From -- ./inp_files/5333.got.cif
#   From: 2010.05.17/outbox.cif.g08.bks.cpg/sg61_3_cif.got.tgz:5333.got - 2010.06.03 15:17:17.
