data_PCOD9459948
_publ_section_title
;
Structure prediction by ZEFSAII (Michael W. Deem and Ramdas Pophale) SiO2 
 PCOD9459948
Probable space group: P B C A
;
_chemical_formula_sum "Si O2"
_cell_formula_units_Z 56
_cell_length_a 15.942479
_cell_length_b 19.788671
_cell_length_c 8.142179
_cell_angle_alpha 90.000000
_cell_angle_beta 90.000000
_cell_angle_gamma 90.000000
_cell_volume 2568.698473
_symmetry_space_group_name_H-M "P B C A"
_symmetry_group_IT_number 61
_symmetry_cell_setting 'orthorhombic'
loop_
_space_group_symop_operation_xyz
x,y,z
1/2-x,-y,1/2+z
1/2+x,1/2-y,-z
-x,1/2+y,1/2-z
-x,-y,-z
1/2+x,y,1/2-z
1/2-x,1/2+y,z
x,1/2-y,1/2+z
loop_
_atom_site_type_symbol
_atom_site_label
_atom_site_fract_x
_atom_site_fract_y
_atom_site_fract_z
Si Si1 0.383038 0.352744 0.509646
Si Si2 0.276022 0.820751 0.121145
Si Si3 0.179439 0.722596 0.318150
Si Si4 0.287436 0.452736 0.308197
Si Si5 0.427171 0.546929 0.160050
Si Si6 0.391722 0.517343 0.809808
Si Si7 0.073481 0.389248 0.002528
O O1 0.370545 0.322304 0.689912
O O2 0.365478 0.290140 0.385996
O O3 0.323591 0.416991 0.471927
O O4 0.476274 0.376535 0.481734
O O5 0.259377 0.753502 0.223371
O O6 0.252999 0.888132 0.218803
O O7 0.369962 0.827299 0.059721
O O8 0.211016 0.818504 0.972161
O O9 0.365697 0.483725 0.207708
O O10 0.207041 0.502331 0.326432
O O11 0.527407 0.531627 0.169626
O O12 0.407009 0.595117 0.312927
O O13 0.405164 0.565396 0.971962
O O14 0.405342 0.550604 0.630773
#
# Coordination Sequence:
#
# PCOD9459948 Si02
#       7
#     8   8   8   8   8   8   8
#     4  10  21  39  64  89 121 157 205 260 311 374
#     4   9  21  39  62  90 120 157 207 258 311 377
#     4   9  20  41  62  88 117 159 204 259 320 367
#     4  10  22  39  63  90 124 164 206 254 308 373
#     4  11  24  41  60  92 130 169 205 250 309 372
#     4  10  24  40  57  90 130 160 205 254 291 370
#     4  11  23  41  61  94 125 162 207 254 307 374
#
# _framework density 21.800923999999998
#
# number of rings (size 3 to 8) (size 9 to 14) (size 15 to 20)
#    0.000    2.000    1.429    0.429    6.000    3.429 
#    2.571    0.000    0.000    0.000    0.000    0.000 
#    0.000    0.000    0.000    0.000    0.000    0.000 
#
# Total GULP energy -312280.401025 kJ/mol
# GULP energy per Si atom -5576.435733 kJ/mol
# Density = 2.175130 g / cm^3
# Si number density = 21.800924 Si / 1000 Ang^3
#
#
#
# Elastic Constant Matrix: (Units=GPa)
#
#
# Indices 1 2 3 4 5 6 
#
# 1 100.3810 20.8877 -6.9053 0.0000 0.0000 0.0000
# 2 20.8877 20.5499 8.5477 0.0000 0.0000 0.0000
# 3 -6.9053 8.5477 87.4479 0.0000 0.0000 0.0000
# 4 0.0000 0.0000 0.0000 2.5372 0.0000 0.0000
# 5 0.0000 0.0000 0.0000 0.0000 4.7684 0.0000
# 6 0.0000 0.0000 0.0000 0.0000 0.0000 13.8130
#
#
#
# Elastic Compliance Matrix: (Units=1/GPa)
#
#
# Indices 1 2 3 4 5 6 
#
# 1 0.013114 -0.014344 0.002438 0.000000 0.000000 0.000000
# 2 -0.014344 0.066413 -0.007624 0.000000 0.000000 0.000000
# 3 0.002438 -0.007624 0.012373 0.000000 0.000000 0.000000
# 4 0.000000 0.000000 0.000000 0.394131 0.000000 0.000000
# 5 0.000000 0.000000 0.000000 0.000000 0.209712 0.000000
# 6 0.000000 0.000000 0.000000 0.000000 0.000000 0.072396
#
#
# Mechanical properties :
#
#
# Convention : Reuss Voigt Hill
#
# Bulk Modulus (GPa) = 18.92526 28.15989 23.54257
# Shear Modulus (GPa) = 6.06197 16.61365 11.33781
#
# Velocity S-wave (km/s) = 1.66932 2.76354 2.28296
# Velocity P-wave (km/s) = 3.52354 4.80913 4.21563
#
# Compressibility (1/GPa) = 0.05283943
#
# Stress axis : x y z
#
# Youngs Moduli (GPa) = 76.25162 15.05729 80.82042
#
# Poissons Ratio (x) = 0.21598 -0.19701
# Poissons Ratio (y) = 1.09375 0.61620
# Poissons Ratio (z) = -0.18587 0.11480
#
# Static dielectric constant tensor:
#      x y z
#    x 1.817620 0.000000 0.000000 
#    y 0.000000 1.823190 0.000000 
#    z 0.000000 0.000000 1.849180 
# 
# From -- ./inp_files/3051.got.cif
#   From: 2010.05.17/outbox.cif.g08.bks.cpg/sg61_2_cif.got.tgz:3051.got - 2010.06.03 15:17:17.
