data_PCOD9459733
_publ_section_title
;
Structure prediction by ZEFSAII (Michael W. Deem and Ramdas Pophale) SiO2 
 PCOD9459733
Probable space group: P B C A
;
_chemical_formula_sum "Si O2"
_cell_formula_units_Z 60
_cell_length_a 11.457742
_cell_length_b 12.058006
_cell_length_c 19.267942
_cell_angle_alpha 90.000000
_cell_angle_beta 90.000000
_cell_angle_gamma 90.000000
_cell_volume 2662.011117
_symmetry_space_group_name_H-M "P B C A"
_symmetry_group_IT_number 61
_symmetry_cell_setting 'orthorhombic'
loop_
_space_group_symop_operation_xyz
x,y,z
1/2-x,-y,1/2+z
1/2+x,1/2-y,-z
-x,1/2+y,1/2-z
-x,-y,-z
1/2+x,y,1/2-z
1/2-x,1/2+y,z
x,1/2-y,1/2+z
loop_
_atom_site_type_symbol
_atom_site_label
_atom_site_fract_x
_atom_site_fract_y
_atom_site_fract_z
Si Si1 0.924606 0.940687 0.647093
Si Si2 0.745479 0.763098 0.628239
Si Si3 0.513369 0.196980 0.365266
Si Si4 0.465443 0.517902 0.775469
Si Si5 0.500000 0.500000 0.500000
Si Si6 0.570294 0.238048 0.511482
Si Si7 0.566822 0.786784 0.362353
Si Si8 0.201130 0.166706 0.719821
O O1 0.797981 0.887774 0.634632
O O2 0.013973 0.834876 0.654959
O O3 0.934384 0.007586 0.717646
O O4 0.969347 0.009351 0.582184
O O5 0.610402 0.753062 0.612098
O O6 0.823398 0.714910 0.565046
O O7 0.762528 0.714088 0.705258
O O8 0.581815 0.179934 0.437455
O O9 0.590401 0.269629 0.313239
O O10 0.476407 0.087749 0.323754
O O11 0.488771 0.623764 0.822791
O O12 0.345774 0.542186 0.733935
O O13 0.556474 0.370642 0.501038
O O14 0.455637 0.201578 0.555480
O O15 0.694968 0.810815 0.334065
#
# Coordination Sequence:
#
# PCOD9459733 Si02
#       8
#     8   8   8   8   4   8   8   8
#     4  10  20  42  66  98 136 175 238 283 350 413
#     4  10  22  45  66  96 140 173 225 293 335 417
#     4  12  27  42  74 102 140 188 233 287 361 418
#     4  12  22  40  66 107 131 183 232 285 351 426
#     4   8  18  38  70  90 126 178 226 274 334 422
#     4  10  23  48  65 101 140 183 232 293 347 419
#     4  10  24  43  66  96 145 178 228 297 340 420
#     4  12  23  43  70 100 139 183 230 290 354 412
#
# _framework density 22.539349000000001
#
# number of rings (size 3 to 8) (size 9 to 14) (size 15 to 20)
#    0.000    1.600    4.000    2.400    3.733    1.600 
#    2.400    0.000    0.000    0.000    0.000    0.000 
#    0.000    0.000    0.000    0.000    0.000    0.000 
#
# Total GULP energy -334082.528704 kJ/mol
# GULP energy per Si atom -5568.042145 kJ/mol
# Density = 2.248805 g / cm^3
# Si number density = 22.539349 Si / 1000 Ang^3
#
#
#
# Elastic Constant Matrix: (Units=GPa)
#
#
# Indices 1 2 3 4 5 6 
#
# 1 92.6941 10.2030 16.5624 0.0000 0.0000 0.0000
# 2 10.2030 55.7226 21.4452 0.0000 0.0000 0.0000
# 3 16.5624 21.4452 146.4747 0.0000 0.0000 0.0000
# 4 0.0000 0.0000 0.0000 29.2916 0.0000 0.0000
# 5 0.0000 0.0000 0.0000 0.0000 28.1647 0.0000
# 6 0.0000 0.0000 0.0000 0.0000 0.0000 12.9364
#
#
#
# Elastic Compliance Matrix: (Units=1/GPa)
#
#
# Indices 1 2 3 4 5 6 
#
# 1 0.011152 -0.001650 -0.001019 0.000000 0.000000 0.000000
# 2 -0.001650 0.019262 -0.002634 0.000000 0.000000 0.000000
# 3 -0.001019 -0.002634 0.007328 0.000000 0.000000 0.000000
# 4 0.000000 0.000000 0.000000 0.034139 0.000000 0.000000
# 5 0.000000 0.000000 0.000000 0.000000 0.035505 0.000000
# 6 0.000000 0.000000 0.000000 0.000000 0.000000 0.077301
#
#
# Mechanical properties :
#
#
# Convention : Reuss Voigt Hill
#
# Bulk Modulus (GPa) = 36.85107 43.47917 40.16512
# Shear Modulus (GPa) = 24.46921 30.52393 27.49657
#
# Velocity S-wave (km/s) = 3.29845 3.68401 3.49655
# Velocity P-wave (km/s) = 5.55802 6.11785 5.84464
#
# Compressibility (1/GPa) = 0.02713625
#
# Stress axis : x y z
#
# Youngs Moduli (GPa) = 89.67078 51.91675 136.46355
#
# Poissons Ratio (x) = 0.08564 0.13912
# Poissons Ratio (y) = 0.14792 0.35938
# Poissons Ratio (z) = 0.09142 0.13672
#
# Static dielectric constant tensor:
#      x y z
#    x 1.899500 0.000000 0.000000 
#    y 0.000000 1.868710 0.000000 
#    z 0.000000 0.000000 1.839770 
# 
# From -- ./inp_files/10324.got.cif
#   From: 2010.05.17/outbox.cif.g08.bks.cpg/sg61_6_cif.got.tgz:10324.got - 2010.06.03 15:17:17.
