data_PCOD9459896
_publ_section_title
;
Structure prediction by ZEFSAII (Michael W. Deem and Ramdas Pophale) SiO2 
 PCOD9459896
Probable space group: P B C A
;
_chemical_formula_sum "Si O2"
_cell_formula_units_Z 40
_cell_length_a 10.384054
_cell_length_b 27.575872
_cell_length_c 5.153063
_cell_angle_alpha 90.000000
_cell_angle_beta 90.000000
_cell_angle_gamma 90.000000
_cell_volume 1475.576209
_symmetry_space_group_name_H-M "P B C A"
_symmetry_group_IT_number 61
_symmetry_cell_setting 'orthorhombic'
loop_
_space_group_symop_operation_xyz
x,y,z
1/2-x,-y,1/2+z
1/2+x,1/2-y,-z
-x,1/2+y,1/2-z
-x,-y,-z
1/2+x,y,1/2-z
1/2-x,1/2+y,z
x,1/2-y,1/2+z
loop_
_atom_site_type_symbol
_atom_site_label
_atom_site_fract_x
_atom_site_fract_y
_atom_site_fract_z
Si Si1 0.900162 0.642524 0.170670
Si Si2 0.650322 0.840455 0.004489
Si Si3 0.314969 0.782083 0.208501
Si Si4 0.842510 0.958644 0.489011
Si Si5 0.915021 0.057156 0.764699
O O1 0.786151 0.657093 0.358683
O O2 0.041577 0.663433 0.216137
O O3 0.869728 0.665692 0.885921
O O4 0.901378 0.584402 0.162795
O O5 0.668018 0.797167 0.210942
O O6 0.617739 0.890484 0.147546
O O7 0.348860 0.750098 0.458119
O O8 0.690185 0.948308 0.490182
O O9 0.930582 0.950563 0.228940
O O10 0.868387 0.012470 0.584483
#
# Coordination Sequence:
#
# PCOD9459896 Si02
#       5
#     8   8   8   8   8
#     4  11  25  46  74 109 148 192 245 308 375 447
#     4  11  25  46  74 109 148 192 245 308 375 447
#     4  12  26  50  74 106 142 196 252 310 372 440
#     4  10  21  38  63  98 140 187 238 294 364 444
#     4  10  21  38  63  98 140 187 238 294 364 444
#
# _framework density 27.108056000000001
#
# number of rings (size 3 to 8) (size 9 to 14) (size 15 to 20)
#    0.000    1.200    4.000    1.200    0.000    5.600 
#    0.000    0.000    0.000    0.000    0.000    0.000 
#    0.000    0.000    0.000    0.000    0.000    0.000 
#
# Total GULP energy -223235.851619 kJ/mol
# GULP energy per Si atom -5580.896290 kJ/mol
# Density = 2.704636 g / cm^3
# Si number density = 27.108056 Si / 1000 Ang^3
#
#
#
# Elastic Constant Matrix: (Units=GPa)
#
#
# Indices 1 2 3 4 5 6 
#
# 1 44.6986 38.1719 35.1814 0.0000 0.0000 0.0000
# 2 38.1719 125.1329 34.5692 0.0000 0.0000 0.0000
# 3 35.1814 34.5692 116.2105 0.0000 0.0000 0.0000
# 4 0.0000 0.0000 0.0000 33.3020 0.0000 0.0000
# 5 0.0000 0.0000 0.0000 0.0000 31.7383 0.0000
# 6 0.0000 0.0000 0.0000 0.0000 0.0000 43.7549
#
#
#
# Elastic Compliance Matrix: (Units=1/GPa)
#
#
# Indices 1 2 3 4 5 6 
#
# 1 0.036545 -0.008816 -0.008441 0.000000 0.000000 0.000000
# 2 -0.008816 0.010834 -0.000554 0.000000 0.000000 0.000000
# 3 -0.008441 -0.000554 0.011325 0.000000 0.000000 0.000000
# 4 0.000000 0.000000 0.000000 0.030028 0.000000 0.000000
# 5 0.000000 0.000000 0.000000 0.000000 0.031508 0.000000
# 6 0.000000 0.000000 0.000000 0.000000 0.000000 0.022855
#
#
# Mechanical properties :
#
#
# Convention : Reuss Voigt Hill
#
# Bulk Modulus (GPa) = 43.32373 55.76522 49.54447
# Shear Modulus (GPa) = 26.82266 33.63367 30.22816
#
# Velocity S-wave (km/s) = 3.14900 3.52622 3.34293
# Velocity P-wave (km/s) = 5.40723 6.09877 5.76338
#
# Compressibility (1/GPa) = 0.02308204
#
# Stress axis : x y z
#
# Youngs Moduli (GPa) = 27.36389 92.30348 88.29864
#
# Poissons Ratio (x) = 0.81375 0.74532
# Poissons Ratio (y) = 0.24124 0.04890
# Poissons Ratio (z) = 0.23098 0.05112
#
# Static dielectric constant tensor:
#      x y z
#    x 2.293930 0.000000 0.000000 
#    y 0.000000 2.109200 0.000000 
#    z 0.000000 0.000000 2.295400 
# 
# From -- ./inp_files/243.got.cif
#   From: 2010.05.17/outbox.cif.g08.bks.cpg/sg61_1_cif.got.tgz:243.got - 2010.06.03 15:17:17.
