data_PCOD9459805
_publ_section_title
;
Structure prediction by ZEFSAII (Michael W. Deem and Ramdas Pophale) SiO2 
 PCOD9459805
Probable space group: P B C A
;
_chemical_formula_sum "Si O2"
_cell_formula_units_Z 64
_cell_length_a 21.177848
_cell_length_b 17.138076
_cell_length_c 10.157714
_cell_angle_alpha 90.000000
_cell_angle_beta 90.000000
_cell_angle_gamma 90.000000
_cell_volume 3686.717598
_symmetry_space_group_name_H-M "P B C A"
_symmetry_group_IT_number 61
_symmetry_cell_setting 'orthorhombic'
loop_
_space_group_symop_operation_xyz
x,y,z
1/2-x,-y,1/2+z
1/2+x,1/2-y,-z
-x,1/2+y,1/2-z
-x,-y,-z
1/2+x,y,1/2-z
1/2-x,1/2+y,z
x,1/2-y,1/2+z
loop_
_atom_site_type_symbol
_atom_site_label
_atom_site_fract_x
_atom_site_fract_y
_atom_site_fract_z
Si Si1 0.738174 0.384918 0.002402
Si Si2 0.406793 0.823554 0.787972
Si Si3 0.165416 0.938385 0.292740
Si Si4 0.532282 0.490082 0.640781
Si Si5 0.947905 0.517232 0.609236
Si Si6 0.325540 0.058369 0.490835
Si Si7 0.269590 0.890320 0.790424
Si Si8 0.396519 0.815789 0.478097
O O1 0.793188 0.384560 0.110612
O O2 0.679813 0.326400 0.026808
O O3 0.707214 0.472253 0.003334
O O4 0.760701 0.374388 0.852176
O O5 0.443379 0.902168 0.829262
O O6 0.331910 0.838958 0.804446
O O7 0.415743 0.808003 0.631889
O O8 0.421300 0.753298 0.886391
O O9 0.163321 0.913929 0.139894
O O10 0.094871 0.956344 0.343033
O O11 0.202294 0.021508 0.290821
O O12 0.500000 0.500000 0.500000
O O13 0.480738 0.511057 0.750570
O O14 0.890541 0.457390 0.585678
O O15 0.922461 0.603255 0.579096
O O16 0.000000 0.500000 0.500000
O O17 0.279629 0.113656 0.408402
#
# Coordination Sequence:
#
# PCOD9459805 Si02
#       8
#     8   8   8   8   8   8   8   8
#     4   8  16  30  47  74 104 130 166 217 272 319
#     4  10  21  38  55  82 113 143 186 235 287 342
#     4   9  16  30  48  76 106 130 169 223 267 313
#     4  11  23  35  54  85 115 148 195 243 273 333
#     4  11  19  37  56  79 113 151 189 231 282 331
#     4   9  16  28  51  76 100 134 172 216 270 320
#     4   8  16  30  49  73 103 131 167 217 269 322
#     4  10  21  36  58  80 110 149 184 232 290 344
#
# _framework density 17.359615000000002
#
# number of rings (size 3 to 8) (size 9 to 14) (size 15 to 20)
#    0.000    2.500    2.500    1.500    3.500    1.000 
#    4.500    0.000    0.000    3.000    0.000    0.000 
#    0.000    0.000    0.000    0.000    0.000    0.000 
#
# Total GULP energy -356559.228299 kJ/mol
# GULP energy per Si atom -5571.237942 kJ/mol
# Density = 1.732010 g / cm^3
# Si number density = 17.359615 Si / 1000 Ang^3
#
#
#
# Elastic Constant Matrix: (Units=GPa)
#
#
# Indices 1 2 3 4 5 6 
#
# 1 87.3591 12.6552 81.3128 0.0000 0.0000 0.0000
# 2 12.6552 43.6538 39.5590 0.0000 0.0000 0.0000
# 3 81.3128 39.5590 181.1521 0.0000 0.0000 0.0000
# 4 0.0000 0.0000 0.0000 22.2535 0.0000 0.0000
# 5 0.0000 0.0000 0.0000 0.0000 39.0842 0.0000
# 6 0.0000 0.0000 0.0000 0.0000 0.0000 12.3571
#
#
#
# Elastic Compliance Matrix: (Units=1/GPa)
#
#
# Indices 1 2 3 4 5 6 
#
# 1 0.019953 0.002907 -0.009591 0.000000 0.000000 0.000000
# 2 0.002907 0.028983 -0.007634 0.000000 0.000000 0.000000
# 3 -0.009591 -0.007634 0.011492 0.000000 0.000000 0.000000
# 4 0.000000 0.000000 0.000000 0.044937 0.000000 0.000000
# 5 0.000000 0.000000 0.000000 0.000000 0.025586 0.000000
# 6 0.000000 0.000000 0.000000 0.000000 0.000000 0.080925
#
#
# Mechanical properties :
#
#
# Convention : Reuss Voigt Hill
#
# Bulk Modulus (GPa) = 31.45429 64.35768 47.90598
# Shear Modulus (GPa) = 19.91165 26.64815 23.27990
#
# Velocity S-wave (km/s) = 3.39043 3.92224 3.66599
# Velocity P-wave (km/s) = 5.78664 7.59379 6.75096
#
# Compressibility (1/GPa) = 0.03179217
#
# Stress axis : x y z
#
# Youngs Moduli (GPa) = 50.11736 34.50344 87.01411
#
# Poissons Ratio (x) = -0.10030 0.83456
# Poissons Ratio (y) = -0.14569 0.66426
# Poissons Ratio (z) = 0.48068 0.26340
#
# Static dielectric constant tensor:
#      x y z
#    x 1.582210 0.000000 0.000000 
#    y 0.000000 1.599910 0.000000 
#    z 0.000000 0.000000 1.571950 
# 
# From -- ./inp_files/4086.got.cif
#   From: 2010.05.17/outbox.cif.g08.bks.cpg/sg61_3_cif.got.tgz:4086.got - 2010.06.03 15:17:17.
