data_PCOD9459411
_publ_section_title
;
Structure prediction by ZEFSAII (Michael W. Deem and Ramdas Pophale) SiO2 
 PCOD9459411
Probable space group: P B C A
;
_chemical_formula_sum "Si O2"
_cell_formula_units_Z 64
_cell_length_a 14.193842
_cell_length_b 15.473982
_cell_length_c 12.193311
_cell_angle_alpha 90.000000
_cell_angle_beta 90.000000
_cell_angle_gamma 90.000000
_cell_volume 2678.080978
_symmetry_space_group_name_H-M "P B C A"
_symmetry_group_IT_number 61
_symmetry_cell_setting 'orthorhombic'
loop_
_space_group_symop_operation_xyz
x,y,z
1/2-x,-y,1/2+z
1/2+x,1/2-y,-z
-x,1/2+y,1/2-z
-x,-y,-z
1/2+x,y,1/2-z
1/2-x,1/2+y,z
x,1/2-y,1/2+z
loop_
_atom_site_type_symbol
_atom_site_label
_atom_site_fract_x
_atom_site_fract_y
_atom_site_fract_z
Si Si1 0.093290 0.961268 0.363455
Si Si2 0.000663 0.801898 0.777616
Si Si3 0.516639 0.136797 0.045460
Si Si4 0.695626 0.821525 0.617616
Si Si5 0.772158 0.625055 0.581886
Si Si6 0.933692 0.606111 0.739361
Si Si7 0.293374 0.654537 0.164123
Si Si8 0.689837 0.160568 0.922402
O O1 0.054949 0.890773 0.451864
O O2 0.023291 0.954063 0.260179
O O3 0.200327 0.935370 0.351160
O O4 0.075145 0.052031 0.419998
O O5 0.031114 0.830405 0.655293
O O6 0.972093 0.702551 0.760267
O O7 0.904815 0.850361 0.811006
O O8 0.084767 0.814110 0.862517
O O9 0.599629 0.194986 0.994523
O O10 0.739798 0.724334 0.606468
O O11 0.738934 0.867224 0.724851
O O12 0.730165 0.867737 0.506711
O O13 0.875933 0.606179 0.628042
O O14 0.767627 0.610986 0.450981
O O15 0.857673 0.593592 0.838563
O O16 0.273309 0.757142 0.144429
#
# Coordination Sequence:
#
# PCOD9459411 Si02
#       8
#     8   8   8   8   8   8   8   8
#     4  10  22  39  60  87 113 165 199 234 298 357
#     4  11  19  35  58  89 115 150 191 247 292 339
#     4  10  20  39  61  82 120 153 202 243 281 360
#     4  11  19  33  57  88 114 148 190 239 299 344
#     4  11  20  38  55  83 120 151 191 240 294 349
#     4  10  20  38  59  85 121 149 193 250 293 338
#     4  10  20  35  56  88 117 142 193 248 290 346
#     4   9  18  35  54  80 115 143 191 241 281 342
#
# _framework density 23.897708999999999
#
# number of rings (size 3 to 8) (size 9 to 14) (size 15 to 20)
#    0.000    1.750    5.000    1.500    0.000    0.000 
#    9.000    2.500    0.000    0.750    0.000    0.000 
#    0.000    0.000    0.000    0.000    0.000    0.000 
#
# Total GULP energy -357753.577413 kJ/mol
# GULP energy per Si atom -5589.899647 kJ/mol
# Density = 2.384332 g / cm^3
# Si number density = 23.897709 Si / 1000 Ang^3
#
#
#
# Elastic Constant Matrix: (Units=GPa)
#
#
# Indices 1 2 3 4 5 6 
#
# 1 95.2779 9.1130 16.1483 0.0000 0.0000 0.0000
# 2 9.1130 36.3895 8.7628 0.0000 0.0000 0.0000
# 3 16.1483 8.7628 85.3787 0.0000 0.0000 0.0000
# 4 0.0000 0.0000 0.0000 19.2618 0.0000 0.0000
# 5 0.0000 0.0000 0.0000 0.0000 31.8964 0.0000
# 6 0.0000 0.0000 0.0000 0.0000 0.0000 11.8160
#
#
#
# Elastic Compliance Matrix: (Units=1/GPa)
#
#
# Indices 1 2 3 4 5 6 
#
# 1 0.011031 -0.002317 -0.001848 0.000000 0.000000 0.000000
# 2 -0.002317 0.028664 -0.002504 0.000000 0.000000 0.000000
# 3 -0.001848 -0.002504 0.012319 0.000000 0.000000 0.000000
# 4 0.000000 0.000000 0.000000 0.051916 0.000000 0.000000
# 5 0.000000 0.000000 0.000000 0.000000 0.031352 0.000000
# 6 0.000000 0.000000 0.000000 0.000000 0.000000 0.084631
#
#
# Mechanical properties :
#
#
# Convention : Reuss Voigt Hill
#
# Bulk Modulus (GPa) = 25.85673 31.67715 28.76694
# Shear Modulus (GPa) = 20.31344 24.79629 22.55486
#
# Velocity S-wave (km/s) = 2.91867 3.22468 3.07548
# Velocity P-wave (km/s) = 4.71184 5.21045 4.96740
#
# Compressibility (1/GPa) = 0.03867465
#
# Stress axis : x y z
#
# Youngs Moduli (GPa) = 90.65733 34.88737 81.17476
#
# Poissons Ratio (x) = 0.08084 0.15005
# Poissons Ratio (y) = 0.21008 0.20323
# Poissons Ratio (z) = 0.16758 0.08734
#
# Static dielectric constant tensor:
#      x y z
#    x 1.924310 0.000000 0.000000 
#    y 0.000000 1.923540 0.000000 
#    z 0.000000 0.000000 1.948200 
# 
# From -- ./inp_files/5993.got.cif
#   From: 2010.05.17/outbox.cif.g08.bks.cpg/sg61_3_cif.got.tgz:5993.got - 2010.06.03 15:17:17.
