data_PCOD9459218
_publ_section_title
;
Structure prediction by ZEFSAII (Michael W. Deem and Ramdas Pophale) SiO2 
 PCOD9459218
Probable space group: P B C A
;
_chemical_formula_sum "Si O2"
_cell_formula_units_Z 48
_cell_length_a 27.345512
_cell_length_b 8.111522
_cell_length_c 10.840571
_cell_angle_alpha 90.000000
_cell_angle_beta 90.000000
_cell_angle_gamma 90.000000
_cell_volume 2404.587404
_symmetry_space_group_name_H-M "P B C A"
_symmetry_group_IT_number 61
_symmetry_cell_setting 'orthorhombic'
loop_
_space_group_symop_operation_xyz
x,y,z
1/2-x,-y,1/2+z
1/2+x,1/2-y,-z
-x,1/2+y,1/2-z
-x,-y,-z
1/2+x,y,1/2-z
1/2-x,1/2+y,z
x,1/2-y,1/2+z
loop_
_atom_site_type_symbol
_atom_site_label
_atom_site_fract_x
_atom_site_fract_y
_atom_site_fract_z
Si Si1 0.764704 0.203898 0.576704
Si Si2 0.678970 0.007085 0.689860
Si Si3 0.533449 0.958080 0.379726
Si Si4 0.992435 0.881119 0.618177
Si Si5 0.399323 0.829897 0.468179
Si Si6 0.810343 0.599309 0.958064
O O1 0.717930 0.152210 0.658157
O O2 0.799153 0.343031 0.631171
O O3 0.737026 0.279343 0.456386
O O4 0.795234 0.038876 0.556106
O O5 0.627039 0.054002 0.631739
O O6 0.678621 0.000527 0.835053
O O7 0.534341 0.759727 0.373328
O O8 0.500000 0.000000 0.500000
O O9 0.513068 0.024648 0.248781
O O10 0.581846 0.058246 0.418024
O O11 0.943170 0.775732 0.591208
O O12 0.000000 0.000000 0.500000
O O13 0.357782 0.705028 0.512465
#
# Coordination Sequence:
#
# PCOD9459218 Si02
#       6
#     8   8   8   8   8   8
#     4   9  20  34  54  83 109 151 198 232 286 344
#     4  10  19  35  56  79 114 150 189 240 287 340
#     4  10  21  40  63  88 117 152 194 240 295 355
#     4  11  23  42  65  88 117 155 195 243 300 358
#     4  10  22  37  58  89 117 148 192 240 293 353
#     4  10  19  36  57  81 116 152 192 241 288 340
#
# _framework density 19.961845
#
# number of rings (size 3 to 8) (size 9 to 14) (size 15 to 20)
#    0.000    2.000    0.000    4.000    0.000    2.667 
#    0.000    8.333    0.000    0.000    0.000    0.000 
#    0.000    0.000    0.000    0.000    0.000    0.000 
#
# Total GULP energy -267587.495312 kJ/mol
# GULP energy per Si atom -5574.739486 kJ/mol
# Density = 1.991641 g / cm^3
# Si number density = 19.961845 Si / 1000 Ang^3
#
#
#
# Elastic Constant Matrix: (Units=GPa)
#
#
# Indices 1 2 3 4 5 6 
#
# 1 71.5509 39.0717 8.6805 0.0000 0.0000 0.0000
# 2 39.0717 113.4126 21.6157 0.0000 0.0000 0.0000
# 3 8.6805 21.6157 78.6023 0.0000 0.0000 0.0000
# 4 0.0000 0.0000 0.0000 25.7953 0.0000 0.0000
# 5 0.0000 0.0000 0.0000 0.0000 16.1351 0.0000
# 6 0.0000 0.0000 0.0000 0.0000 0.0000 30.0881
#
#
#
# Elastic Compliance Matrix: (Units=1/GPa)
#
#
# Indices 1 2 3 4 5 6 
#
# 1 0.017221 -0.005878 -0.000285 0.000000 0.000000 0.000000
# 2 -0.005878 0.011312 -0.002462 0.000000 0.000000 0.000000
# 3 -0.000285 -0.002462 0.013431 0.000000 0.000000 0.000000
# 4 0.000000 0.000000 0.000000 0.038767 0.000000 0.000000
# 5 0.000000 0.000000 0.000000 0.000000 0.061977 0.000000
# 6 0.000000 0.000000 0.000000 0.000000 0.000000 0.033236
#
#
# Mechanical properties :
#
#
# Convention : Reuss Voigt Hill
#
# Bulk Modulus (GPa) = 40.46480 44.70016 42.58248
# Shear Modulus (GPa) = 24.82251 27.35021 26.08636
#
# Velocity S-wave (km/s) = 3.53015 3.70553 3.61891
# Velocity P-wave (km/s) = 6.07709 6.38353 6.23219
#
# Compressibility (1/GPa) = 0.02471284
#
# Stress axis : x y z
#
# Youngs Moduli (GPa) = 58.06989 88.40451 74.45626
#
# Poissons Ratio (x) = 0.51967 0.02124
# Poissons Ratio (y) = 0.34135 0.18328
# Poissons Ratio (z) = 0.01656 0.21761
#
# Static dielectric constant tensor:
#      x y z
#    x 1.734270 0.000000 0.000000 
#    y 0.000000 1.497300 0.000000 
#    z 0.000000 0.000000 1.723290 
# 
# From -- ./inp_files/2317.got.cif
#   From: 2010.05.17/outbox.cif.g08.bks.cpg/sg61_2_cif.got.tgz:2317.got - 2010.06.03 15:17:17.
