data_PCOD9459004
_publ_section_title
;
Structure prediction by ZEFSAII (Michael W. Deem and Ramdas Pophale) SiO2 
 PCOD9459004
Probable space group: P B C A
;
_chemical_formula_sum "Si O2"
_cell_formula_units_Z 64
_cell_length_a 10.777356
_cell_length_b 16.505087
_cell_length_c 20.278475
_cell_angle_alpha 90.000000
_cell_angle_beta 90.000000
_cell_angle_gamma 90.000000
_cell_volume 3607.159435
_symmetry_space_group_name_H-M "P B C A"
_symmetry_group_IT_number 61
_symmetry_cell_setting 'orthorhombic'
loop_
_space_group_symop_operation_xyz
x,y,z
1/2-x,-y,1/2+z
1/2+x,1/2-y,-z
-x,1/2+y,1/2-z
-x,-y,-z
1/2+x,y,1/2-z
1/2-x,1/2+y,z
x,1/2-y,1/2+z
loop_
_atom_site_type_symbol
_atom_site_label
_atom_site_fract_x
_atom_site_fract_y
_atom_site_fract_z
Si Si1 0.054575 0.837444 0.982648
Si Si2 0.444696 0.186705 0.072093
Si Si3 0.928328 0.447049 0.386585
Si Si4 0.789647 0.953664 0.109615
Si Si5 0.717186 0.212050 0.694221
Si Si6 0.206748 0.373630 0.893303
Si Si7 0.702540 0.412462 0.954156
Si Si8 0.935100 0.199869 0.797690
O O1 0.171951 0.860046 0.938477
O O2 0.919312 0.854994 0.952536
O O3 0.061793 0.747050 0.010055
O O4 0.060624 0.893881 0.047131
O O5 0.575845 0.140986 0.070582
O O6 0.327053 0.129659 0.068181
O O7 0.435498 0.239190 0.139573
O O8 0.831655 0.515356 0.404823
O O9 0.899131 0.387652 0.327144
O O10 0.067795 0.478036 0.375461
O O11 0.766584 0.866675 0.145448
O O12 0.711224 0.032755 0.130347
O O13 0.780808 0.941038 0.030356
O O14 0.712602 0.298672 0.657490
O O15 0.832160 0.218083 0.743695
O O16 0.579257 0.199398 0.725252
#
# Coordination Sequence:
#
# PCOD9459004 Si02
#       8
#     8   8   8   8   8   8   8   8
#     4  10  17  34  58  79 109 153 184 212 278 343
#     4  10  22  33  53  85 118 145 175 239 280 326
#     4   9  17  35  59  79 110 144 184 234 266 336
#     4  10  19  37  60  86 111 149 189 224 284 340
#     4  10  22  41  60  79 109 152 192 239 274 333
#     4  11  20  37  57  82 118 146 183 230 282 333
#     4  11  18  34  57  88 115 141 186 224 278 349
#     4   9  21  42  56  76 109 148 196 230 281 320
#
# _framework density 17.742493
#
# number of rings (size 3 to 8) (size 9 to 14) (size 15 to 20)
#    0.000    2.000    2.500    4.500    0.000    1.500 
#    4.500    3.750    0.000    0.000    0.000    0.000 
#    0.000    0.000    0.000    0.000    0.000    0.000 
#
# Total GULP energy -356544.031267 kJ/mol
# GULP energy per Si atom -5571.000489 kJ/mol
# Density = 1.770211 g / cm^3
# Si number density = 17.742493 Si / 1000 Ang^3
#
#
#
# Elastic Constant Matrix: (Units=GPa)
#
#
# Indices 1 2 3 4 5 6 
#
# 1 110.7554 36.9840 29.1303 0.0000 0.0000 0.0000
# 2 36.9840 78.3812 -18.6320 0.0000 0.0000 0.0000
# 3 29.1303 -18.6320 -48.0334 0.0000 0.0000 0.0000
# 4 0.0000 0.0000 0.0000 9.7731 0.0000 0.0000
# 5 0.0000 0.0000 0.0000 0.0000 27.3614 0.0000
# 6 0.0000 0.0000 0.0000 0.0000 0.0000 33.3624
#
#
#
# Elastic Compliance Matrix: (Units=1/GPa)
#
#
# Indices 1 2 3 4 5 6 
#
# 1 0.008284 -0.002485 0.005988 0.000000 0.000000 0.000000
# 2 -0.002485 0.012427 -0.006328 0.000000 0.000000 0.000000
# 3 0.005988 -0.006328 -0.014733 0.000000 0.000000 0.000000
# 4 0.000000 0.000000 0.000000 0.102321 0.000000 0.000000
# 5 0.000000 0.000000 0.000000 0.000000 0.036548 0.000000
# 6 0.000000 0.000000 0.000000 0.000000 0.000000 0.029974
#
#
# Mechanical properties :
#
#
# Convention : Reuss Voigt Hill
#
# Bulk Modulus (GPa) = 3051.90240 26.22974 1539.06607
# Shear Modulus (GPa) = 27.68855 20.34079 24.01467
#
# Velocity S-wave (km/s) = 3.95470 3.38959 3.68300
# Velocity P-wave (km/s) = 41.76956 5.48951 29.78952
#
# Compressibility (1/GPa) = 0.00032766
#
# Stress axis : x y z
#
# Youngs Moduli (GPa) = 120.71581 80.47164 -67.87494
#
# Poissons Ratio (x) = 0.20000 0.40643
# Poissons Ratio (y) = 0.30002 -0.42948
# Poissons Ratio (z) = -0.72284 0.50919
#
# Static dielectric constant tensor:
#      x y z
#    x 1.597690 0.000000 0.000000 
#    y 0.000000 1.648250 0.000000 
#    z 0.000000 0.000000 1.606400 
# 
# From -- ./inp_files/10913.got.cif
#   From: 2010.05.17/outbox.cif.g08.bks.cpg/sg61_6_cif.got.tgz:10913.got - 2010.06.03 15:17:17.
