data_PCOD9459096
_publ_section_title
;
Structure prediction by ZEFSAII (Michael W. Deem and Ramdas Pophale) SiO2 
 PCOD9459096
Probable space group: P B C A
;
_chemical_formula_sum "Si O2"
_cell_formula_units_Z 64
_cell_length_a 18.219660
_cell_length_b 14.074112
_cell_length_c 14.052112
_cell_angle_alpha 90.000000
_cell_angle_beta 90.000000
_cell_angle_gamma 90.000000
_cell_volume 3603.320344
_symmetry_space_group_name_H-M "P B C A"
_symmetry_group_IT_number 61
_symmetry_cell_setting 'orthorhombic'
loop_
_space_group_symop_operation_xyz
x,y,z
1/2-x,-y,1/2+z
1/2+x,1/2-y,-z
-x,1/2+y,1/2-z
-x,-y,-z
1/2+x,y,1/2-z
1/2-x,1/2+y,z
x,1/2-y,1/2+z
loop_
_atom_site_type_symbol
_atom_site_label
_atom_site_fract_x
_atom_site_fract_y
_atom_site_fract_z
Si Si1 0.918808 0.811379 0.779629
Si Si2 0.571672 0.784413 0.189877
Si Si3 0.622122 0.506496 0.704089
Si Si4 0.805028 0.822029 0.183870
Si Si5 0.192835 0.760891 0.667458
Si Si6 0.797929 0.576664 0.373580
Si Si7 0.695895 0.715240 0.052448
Si Si8 0.766781 0.000166 0.083818
O O1 0.877004 0.732819 0.716574
O O2 0.864232 0.845498 0.865139
O O3 0.993732 0.766366 0.815269
O O4 0.922931 0.908168 0.716329
O O5 0.573879 0.898962 0.198196
O O6 0.614602 0.744886 0.282340
O O7 0.623653 0.757839 0.101336
O O8 0.672102 0.502618 0.800491
O O9 0.681931 0.503915 0.619012
O O10 0.746743 0.802950 0.267945
O O11 0.765682 0.772247 0.093698
O O12 0.811023 0.931143 0.154953
O O13 0.228364 0.866139 0.667649
O O14 0.192128 0.725508 0.560007
O O15 0.779345 0.537819 0.476873
O O16 0.706232 0.607569 0.085581
#
# Coordination Sequence:
#
# PCOD9459096 Si02
#       8
#     8   8   8   8   8   8   8   8
#     4   9  22  40  55  87 127 158 192 250 301 367
#     4  11  21  39  58  81 127 159 195 241 303 374
#     4  10  19  36  62  88 114 160 198 251 301 354
#     4  10  20  37  59  88 114 157 197 254 306 345
#     4  10  18  37  61  88 115 155 203 250 301 352
#     4   9  20  37  61  89 117 149 206 253 299 352
#     4  11  21  35  61  92 114 158 203 250 303 357
#     4  12  19  35  64  90 117 148 207 259 295 351
#
# _framework density 17.761396999999999
#
# number of rings (size 3 to 8) (size 9 to 14) (size 15 to 20)
#    0.750    1.000    5.000    1.500    0.000    1.000 
#    2.250    0.625    0.000    1.500    0.000    0.000 
#    0.000    0.000    0.000    0.000    0.000    0.000 
#
# Total GULP energy -356530.097262 kJ/mol
# GULP energy per Si atom -5570.782770 kJ/mol
# Density = 1.772097 g / cm^3
# Si number density = 17.761397 Si / 1000 Ang^3
#
#
#
# Elastic Constant Matrix: (Units=GPa)
#
#
# Indices 1 2 3 4 5 6 
#
# 1 36.6619 9.1649 -0.1854 0.0000 0.0000 0.0000
# 2 9.1649 99.1998 2.0905 0.0000 0.0000 0.0000
# 3 -0.1854 2.0905 88.1035 0.0000 0.0000 0.0000
# 4 0.0000 0.0000 0.0000 25.2631 0.0000 0.0000
# 5 0.0000 0.0000 0.0000 0.0000 7.2207 0.0000
# 6 0.0000 0.0000 0.0000 0.0000 0.0000 22.9014
#
#
#
# Elastic Compliance Matrix: (Units=1/GPa)
#
#
# Indices 1 2 3 4 5 6 
#
# 1 0.027922 -0.002582 0.000120 0.000000 0.000000 0.000000
# 2 -0.002582 0.010325 -0.000250 0.000000 0.000000 0.000000
# 3 0.000120 -0.000250 0.011356 0.000000 0.000000 0.000000
# 4 0.000000 0.000000 0.000000 0.039583 0.000000 0.000000
# 5 0.000000 0.000000 0.000000 0.000000 0.138490 0.000000
# 6 0.000000 0.000000 0.000000 0.000000 0.000000 0.043665
#
#
# Mechanical properties :
#
#
# Convention : Reuss Voigt Hill
#
# Bulk Modulus (GPa) = 22.63561 27.34502 24.99031
# Shear Modulus (GPa) = 17.15305 25.27007 21.21156
#
# Velocity S-wave (km/s) = 3.11102 3.77603 3.45954
# Velocity P-wave (km/s) = 5.06720 5.86859 5.48256
#
# Compressibility (1/GPa) = 0.04417818
#
# Stress axis : x y z
#
# Youngs Moduli (GPa) = 35.81351 96.85692 88.05549
#
# Poissons Ratio (x) = 0.25011 -0.01057
# Poissons Ratio (y) = 0.09248 0.02205
# Poissons Ratio (z) = -0.00430 0.02425
#
# Static dielectric constant tensor:
#      x y z
#    x 1.590130 0.000000 0.000000 
#    y 0.000000 1.648970 0.000000 
#    z 0.000000 0.000000 1.608700 
# 
# From -- ./inp_files/8270.got.cif
#   From: 2010.05.17/outbox.cif.g08.bks.cpg/sg61_5_cif.got.tgz:8270.got - 2010.06.03 15:17:17.
