data_PCOD9459160
_publ_section_title
;
Structure prediction by ZEFSAII (Michael W. Deem and Ramdas Pophale) SiO2 
 PCOD9459160
Probable space group: P B C A
;
_chemical_formula_sum "Si O2"
_cell_formula_units_Z 64
_cell_length_a 5.519848
_cell_length_b 24.105602
_cell_length_c 25.864464
_cell_angle_alpha 90.000000
_cell_angle_beta 90.000000
_cell_angle_gamma 90.000000
_cell_volume 3441.506414
_symmetry_space_group_name_H-M "P B C A"
_symmetry_group_IT_number 61
_symmetry_cell_setting 'orthorhombic'
loop_
_space_group_symop_operation_xyz
x,y,z
1/2-x,-y,1/2+z
1/2+x,1/2-y,-z
-x,1/2+y,1/2-z
-x,-y,-z
1/2+x,y,1/2-z
1/2-x,1/2+y,z
x,1/2-y,1/2+z
loop_
_atom_site_type_symbol
_atom_site_label
_atom_site_fract_x
_atom_site_fract_y
_atom_site_fract_z
Si Si1 0.778483 0.307954 0.460404
Si Si2 0.603473 0.732126 0.620747
Si Si3 0.545082 0.941059 0.281528
Si Si4 0.717579 0.334347 0.849960
Si Si5 0.483808 0.845333 0.359100
Si Si6 0.020228 0.303433 0.943050
Si Si7 0.029575 0.427951 0.719169
Si Si8 0.108106 0.748100 0.718475
O O1 0.551854 0.294398 0.424481
O O2 0.689045 0.333034 0.514635
O O3 0.879688 0.246203 0.472374
O O4 0.950637 0.341136 0.420226
O O5 0.461372 0.781554 0.647938
O O6 0.714211 0.679044 0.649131
O O7 0.823165 0.767010 0.596387
O O8 0.300370 0.929166 0.247902
O O9 0.527531 0.903683 0.332627
O O10 0.541519 0.006629 0.293512
O O11 0.842962 0.338500 0.906219
O O12 0.584287 0.388200 0.829233
O O13 0.900460 0.309512 0.807125
O O14 0.629361 0.799421 0.325637
O O15 0.261407 0.417905 0.757282
O O16 0.348263 0.742054 0.753412
#
# Coordination Sequence:
#
# PCOD9459160 Si02
#       8
#     8   8   8   8   8   8   8   8
#     4  10  19  32  53  78 114 153 190 231 285 354
#     4  10  19  33  52  80 116 146 183 225 292 342
#     4  10  23  42  62  83 112 156 202 240 282 341
#     4  11  22  34  54  83 115 149 190 237 290 346
#     4  11  22  34  54  83 115 149 190 237 290 346
#     4  10  19  32  53  78 114 153 190 231 285 354
#     4  10  23  42  62  83 112 156 202 240 282 341
#     4  12  23  31  48  78 114 146 173 221 288 342
#
# _framework density 18.596506999999999
#
# number of rings (size 3 to 8) (size 9 to 14) (size 15 to 20)
#    0.000    1.500    5.000    2.250    3.500    0.000 
#    0.000    0.000    0.000    0.750    0.000    1.750 
#    0.000    0.000    0.000    0.000    0.000    0.000 
#
# Total GULP energy -356411.425135 kJ/mol
# GULP energy per Si atom -5568.928518 kJ/mol
# Density = 1.855418 g / cm^3
# Si number density = 18.596507 Si / 1000 Ang^3
#
#
#
# Elastic Constant Matrix: (Units=GPa)
#
#
# Indices 1 2 3 4 5 6 
#
# 1 80.7398 8.2770 14.2310 0.0000 0.0000 0.0000
# 2 8.2770 50.5084 21.9514 0.0000 0.0000 0.0000
# 3 14.2310 21.9514 64.1845 0.0000 0.0000 0.0000
# 4 0.0000 0.0000 0.0000 20.3894 0.0000 0.0000
# 5 0.0000 0.0000 0.0000 0.0000 29.5478 0.0000
# 6 0.0000 0.0000 0.0000 0.0000 0.0000 16.2838
#
#
#
# Elastic Compliance Matrix: (Units=1/GPa)
#
#
# Indices 1 2 3 4 5 6 
#
# 1 0.012934 -0.001026 -0.002517 0.000000 0.000000 0.000000
# 2 -0.001026 0.023337 -0.007754 0.000000 0.000000 0.000000
# 3 -0.002517 -0.007754 0.018790 0.000000 0.000000 0.000000
# 4 0.000000 0.000000 0.000000 0.049045 0.000000 0.000000
# 5 0.000000 0.000000 0.000000 0.000000 0.033843 0.000000
# 6 0.000000 0.000000 0.000000 0.000000 0.000000 0.061411
#
#
# Mechanical properties :
#
#
# Convention : Reuss Voigt Hill
#
# Bulk Modulus (GPa) = 30.79967 31.59462 31.19715
# Shear Modulus (GPa) = 21.47991 23.30910 22.39451
#
# Velocity S-wave (km/s) = 3.40229 3.54420 3.47397
# Velocity P-wave (km/s) = 5.65969 5.81162 5.73616
#
# Compressibility (1/GPa) = 0.03246789
#
# Stress axis : x y z
#
# Youngs Moduli (GPa) = 77.31407 42.85104 53.21982
#
# Poissons Ratio (x) = 0.04395 0.13395
# Poissons Ratio (y) = 0.07930 0.41266
# Poissons Ratio (z) = 0.19460 0.33226
#
# Static dielectric constant tensor:
#      x y z
#    x 1.821460 0.000000 0.000000 
#    y 0.000000 1.616210 0.000000 
#    z 0.000000 0.000000 1.718940 
# 
# From -- ./inp_files/11299.got.cif
#   From: 2010.05.17/outbox.cif.g08.bks.cpg/sg61_6_cif.got.tgz:11299.got - 2010.06.03 15:17:17.
