data_PCOD9459080
_publ_section_title
;
Structure prediction by ZEFSAII (Michael W. Deem and Ramdas Pophale) SiO2 
 PCOD9459080
Probable space group: P B C A
;
_chemical_formula_sum "Si O2"
_cell_formula_units_Z 40
_cell_length_a 13.462459
_cell_length_b 19.847064
_cell_length_c 5.492646
_cell_angle_alpha 90.000000
_cell_angle_beta 90.000000
_cell_angle_gamma 90.000000
_cell_volume 1467.581652
_symmetry_space_group_name_H-M "P B C A"
_symmetry_group_IT_number 61
_symmetry_cell_setting 'orthorhombic'
loop_
_space_group_symop_operation_xyz
x,y,z
1/2-x,-y,1/2+z
1/2+x,1/2-y,-z
-x,1/2+y,1/2-z
-x,-y,-z
1/2+x,y,1/2-z
1/2-x,1/2+y,z
x,1/2-y,1/2+z
loop_
_atom_site_type_symbol
_atom_site_label
_atom_site_fract_x
_atom_site_fract_y
_atom_site_fract_z
Si Si1 0.932060 0.233817 0.697531
Si Si2 0.201711 0.084209 0.386146
Si Si3 0.104885 0.969104 0.693999
Si Si4 0.468280 0.899061 0.178225
Si Si5 0.842604 0.715166 0.368346
O O1 0.883240 0.232934 0.431445
O O2 0.960279 0.157808 0.769545
O O3 0.037812 0.271220 0.651178
O O4 0.141496 0.124509 0.596520
O O5 0.176820 0.134706 0.162023
O O6 0.162849 0.008397 0.467222
O O7 0.317940 0.070896 0.356812
O O8 0.021888 0.923629 0.571111
O O9 0.054654 0.033409 0.822678
O O10 0.807416 0.746804 0.622946
#
# Coordination Sequence:
#
# PCOD9459080 Si02
#       5
#     8   8   8   8   8
#     4  10  18  35  63  88 119 172 209 259 330 381
#     4  10  19  36  61  87 125 167 211 263 323 386
#     4   9  20  37  58  88 125 167 211 261 326 386
#     4   9  19  39  58  85 131 166 209 268 326 387
#     4  10  19  35  63  90 120 171 213 260 328 382
#
# _framework density 27.255723
#
# number of rings (size 3 to 8) (size 9 to 14) (size 15 to 20)
#    1.200    1.200    4.000    0.000    0.000    4.800 
#    0.000    5.000    0.000    0.000    0.000    0.000 
#    0.000    0.000    0.000    0.000    0.000    0.000 
#
# Total GULP energy -222770.588093 kJ/mol
# GULP energy per Si atom -5569.264702 kJ/mol
# Density = 2.719369 g / cm^3
# Si number density = 27.255723 Si / 1000 Ang^3
#
#
#
# Elastic Constant Matrix: (Units=GPa)
#
#
# Indices 1 2 3 4 5 6 
#
# 1 62.9844 20.2417 52.0094 0.0000 0.0000 0.0000
# 2 20.2417 120.6740 51.1462 0.0000 0.0000 0.0000
# 3 52.0094 51.1462 165.1194 0.0000 0.0000 0.0000
# 4 0.0000 0.0000 0.0000 17.4566 0.0000 0.0000
# 5 0.0000 0.0000 0.0000 0.0000 15.3252 0.0000
# 6 0.0000 0.0000 0.0000 0.0000 0.0000 -28.1915
#
#
#
# Elastic Compliance Matrix: (Units=1/GPa)
#
#
# Indices 1 2 3 4 5 6 
#
# 1 0.021533 -0.000849 -0.006520 0.000000 0.000000 0.000000
# 2 -0.000849 0.009573 -0.002698 0.000000 0.000000 0.000000
# 3 -0.006520 -0.002698 0.008945 0.000000 0.000000 0.000000
# 4 0.000000 0.000000 0.000000 0.057285 0.000000 0.000000
# 5 0.000000 0.000000 0.000000 0.000000 0.065252 0.000000
# 6 0.000000 0.000000 0.000000 0.000000 0.000000 -0.035472
#
#
# Mechanical properties :
#
#
# Convention : Reuss Voigt Hill
#
# Bulk Modulus (GPa) = 50.20332 66.17469 58.18901
# Shear Modulus (GPa) = 32.49099 15.94342 24.21721
#
# Velocity S-wave (km/s) = 3.45640 2.42121 2.98404
# Velocity P-wave (km/s) = 5.86415 5.66994 5.76786
#
# Compressibility (1/GPa) = 0.01991900
#
# Stress axis : x y z
#
# Youngs Moduli (GPa) = 46.43955 104.46503 111.78845
#
# Poissons Ratio (x) = 0.08866 0.72883
# Poissons Ratio (y) = 0.03941 0.30158
# Poissons Ratio (z) = 0.30277 0.28183
#
# Static dielectric constant tensor:
#      x y z
#    x 2.115630 0.000000 0.000000 
#    y 0.000000 2.180960 0.000000 
#    z 0.000000 0.000000 2.159290 
# 
# From -- ./inp_files/437.got.cif
#   From: 2010.05.17/outbox.cif.g08.bks.cpg/sg61_1_cif.got.tgz:437.got - 2010.06.03 15:17:17.
