data_PCOD9459716
_publ_section_title
;
Structure prediction by ZEFSAII (Michael W. Deem and Ramdas Pophale) SiO2 
 PCOD9459716
Probable space group: P B C A
;
_chemical_formula_sum "Si O2"
_cell_formula_units_Z 32
_cell_length_a 14.163759
_cell_length_b 18.960940
_cell_length_c 5.044700
_cell_angle_alpha 90.000000
_cell_angle_beta 90.000000
_cell_angle_gamma 90.000000
_cell_volume 1354.795474
_symmetry_space_group_name_H-M "P B C A"
_symmetry_group_IT_number 61
_symmetry_cell_setting 'orthorhombic'
loop_
_space_group_symop_operation_xyz
x,y,z
1/2-x,-y,1/2+z
1/2+x,1/2-y,-z
-x,1/2+y,1/2-z
-x,-y,-z
1/2+x,y,1/2-z
1/2-x,1/2+y,z
x,1/2-y,1/2+z
loop_
_atom_site_type_symbol
_atom_site_label
_atom_site_fract_x
_atom_site_fract_y
_atom_site_fract_z
Si Si1 0.281451 0.894921 0.746580
Si Si2 0.417436 0.796631 0.040682
Si Si3 0.412118 0.095671 0.993946
Si Si4 0.632272 0.988046 0.526651
O O1 0.325612 0.839368 0.944653
O O2 0.189540 0.871049 0.581400
O O3 0.358741 0.931147 0.556364
O O4 0.239011 0.960412 0.915006
O O5 0.419581 0.730245 0.840719
O O6 0.506350 0.847246 0.991172
O O7 0.423556 0.032879 0.209621
O O8 0.404441 0.061554 0.706794
#
# Coordination Sequence:
#
# PCOD9459716 Si02
#       4
#     8   8   8   8
#     4  10  23  42  71  96 130 159 217 270 327 376
#     4  12  29  43  61  95 132 179 223 249 307 395
#     4  10  22  42  64  95 129 165 205 271 319 383
#     4  10  20  41  69  99 123 159 211 270 343 365
#
# _framework density 23.619799
#
# number of rings (size 3 to 8) (size 9 to 14) (size 15 to 20)
#    1.500    0.000    2.500    1.500    3.500    4.000 
#    0.000    0.000    0.000    0.000    0.000    0.000 
#    0.000    0.000    0.000    0.000    0.000    0.000 
#
# Total GULP energy -178982.134967 kJ/mol
# GULP energy per Si atom -5593.191718 kJ/mol
# Density = 2.356604 g / cm^3
# Si number density = 23.619799 Si / 1000 Ang^3
#
#
#
# Elastic Constant Matrix: (Units=GPa)
#
#
# Indices 1 2 3 4 5 6 
#
# 1 75.5812 18.9768 -8.4768 0.0000 0.0000 0.0000
# 2 18.9768 53.9200 5.5031 0.0000 0.0000 0.0000
# 3 -8.4768 5.5031 104.2956 0.0000 0.0000 0.0000
# 4 0.0000 0.0000 0.0000 43.3753 0.0000 0.0000
# 5 0.0000 0.0000 0.0000 0.0000 13.5382 0.0000
# 6 0.0000 0.0000 0.0000 0.0000 0.0000 22.8092
#
#
#
# Elastic Compliance Matrix: (Units=1/GPa)
#
#
# Indices 1 2 3 4 5 6 
#
# 1 0.014737 -0.005338 0.001479 0.000000 0.000000 0.000000
# 2 -0.005338 0.020580 -0.001520 0.000000 0.000000 0.000000
# 3 0.001479 -0.001520 0.009789 0.000000 0.000000 0.000000
# 4 0.000000 0.000000 0.000000 0.023055 0.000000 0.000000
# 5 0.000000 0.000000 0.000000 0.000000 0.073865 0.000000
# 6 0.000000 0.000000 0.000000 0.000000 0.000000 0.043842
#
#
# Mechanical properties :
#
#
# Convention : Reuss Voigt Hill
#
# Bulk Modulus (GPa) = 29.11263 29.53368 29.32315
# Shear Modulus (GPa) = 24.03012 30.46412 27.24712
#
# Velocity S-wave (km/s) = 3.19309 3.59523 3.40011
# Velocity P-wave (km/s) = 5.09379 5.45575 5.27787
#
# Compressibility (1/GPa) = 0.03434935
#
# Stress axis : x y z
#
# Youngs Moduli (GPa) = 67.85703 48.59182 102.16006
#
# Poissons Ratio (x) = 0.25936 -0.15114
# Poissons Ratio (y) = 0.36219 0.15525
# Poissons Ratio (z) = -0.10039 0.07384
#
# Static dielectric constant tensor:
#      x y z
#    x 1.969540 0.000000 0.000000 
#    y 0.000000 1.874380 0.000000 
#    z 0.000000 0.000000 1.918940 
# 
# From -- ./inp_files/342.got.cif
#   From: 2010.05.17/outbox.cif.g08.bks.cpg/sg61_1_cif.got.tgz:342.got - 2010.06.03 15:17:17.
