data_PCOD9459919
_publ_section_title
;
Structure prediction by ZEFSAII (Michael W. Deem and Ramdas Pophale) SiO2 
 PCOD9459919
Probable space group: P B C A
;
_chemical_formula_sum "Si O2"
_cell_formula_units_Z 40
_cell_length_a 15.082541
_cell_length_b 18.623462
_cell_length_c 5.471748
_cell_angle_alpha 90.000000
_cell_angle_beta 90.000000
_cell_angle_gamma 90.000000
_cell_volume 1536.954531
_symmetry_space_group_name_H-M "P B C A"
_symmetry_group_IT_number 61
_symmetry_cell_setting 'orthorhombic'
loop_
_space_group_symop_operation_xyz
x,y,z
1/2-x,-y,1/2+z
1/2+x,1/2-y,-z
-x,1/2+y,1/2-z
-x,-y,-z
1/2+x,y,1/2-z
1/2-x,1/2+y,z
x,1/2-y,1/2+z
loop_
_atom_site_type_symbol
_atom_site_label
_atom_site_fract_x
_atom_site_fract_y
_atom_site_fract_z
Si Si1 0.666531 0.917256 0.742566
Si Si2 0.828999 0.922547 0.044623
Si Si3 0.787973 0.281923 0.529225
Si Si4 0.482948 0.956482 0.754296
Si Si5 0.088370 0.274356 0.372196
O O1 0.730174 0.900569 0.969665
O O2 0.700944 0.867285 0.525594
O O3 0.562868 0.900378 0.767799
O O4 0.674256 0.002129 0.685466
O O5 0.882132 0.933431 0.786437
O O6 0.886429 0.858351 0.161165
O O7 0.825653 0.247195 0.285454
O O8 0.683869 0.236643 0.069692
O O9 0.500000 0.000000 0.500000
O O10 0.500000 0.000000 0.000000
O O11 0.043634 0.241599 0.133066
#
# Coordination Sequence:
#
# PCOD9459919 Si02
#       5
#     8   8   8   8   8
#     4  11  23  39  70  98 127 177 223 270 337 397
#     4  11  23  39  70  98 127 177 223 270 337 397
#     4  10  21  39  60  90 133 164 209 274 320 386
#     4  10  24  44  60  98 138 160 217 284 319 390
#     4  10  21  39  60  90 133 164 209 274 320 386
#
# _framework density 26.025493999999998
#
# number of rings (size 3 to 8) (size 9 to 14) (size 15 to 20)
#    0.000    1.600    4.000    1.200    5.600    6.400 
#    0.000    2.000    0.000    0.000    0.000    0.000 
#    0.000    0.000    0.000    0.000    0.000    0.000 
#
# Total GULP energy -223506.061069 kJ/mol
# GULP energy per Si atom -5587.651527 kJ/mol
# Density = 2.596626 g / cm^3
# Si number density = 26.025494 Si / 1000 Ang^3
#
#
#
# Elastic Constant Matrix: (Units=GPa)
#
#
# Indices 1 2 3 4 5 6 
#
# 1 56.4884 -1.6468 7.4029 0.0000 0.0000 0.0000
# 2 -1.6468 145.1052 45.9795 0.0000 0.0000 0.0000
# 3 7.4029 45.9795 183.7811 0.0000 0.0000 0.0000
# 4 0.0000 0.0000 0.0000 35.1460 0.0000 0.0000
# 5 0.0000 0.0000 0.0000 0.0000 16.2252 0.0000
# 6 0.0000 0.0000 0.0000 0.0000 0.0000 25.4454
#
#
#
# Elastic Compliance Matrix: (Units=1/GPa)
#
#
# Indices 1 2 3 4 5 6 
#
# 1 0.017826 0.000467 -0.000835 0.000000 0.000000 0.000000
# 2 0.000467 0.007497 -0.001894 0.000000 0.000000 0.000000
# 3 -0.000835 -0.001894 0.005949 0.000000 0.000000 0.000000
# 4 0.000000 0.000000 0.000000 0.028453 0.000000 0.000000
# 5 0.000000 0.000000 0.000000 0.000000 0.061633 0.000000
# 6 0.000000 0.000000 0.000000 0.000000 0.000000 0.039300
#
#
# Mechanical properties :
#
#
# Convention : Reuss Voigt Hill
#
# Bulk Modulus (GPa) = 37.38762 54.31619 45.85191
# Shear Modulus (GPa) = 28.71954 37.60593 33.16273
#
# Velocity S-wave (km/s) = 3.32552 3.80539 3.57352
# Velocity P-wave (km/s) = 5.39837 6.34222 5.88923
#
# Compressibility (1/GPa) = 0.02674682
#
# Stress axis : x y z
#
# Youngs Moduli (GPa) = 56.09856 133.38392 168.09944
#
# Poissons Ratio (x) = -0.06227 0.14034
# Poissons Ratio (y) = -0.02619 0.31846
# Poissons Ratio (z) = 0.04683 0.25269
#
# Static dielectric constant tensor:
#      x y z
#    x 2.122780 0.000000 0.000000 
#    y 0.000000 2.119380 0.000000 
#    z 0.000000 0.000000 2.274410 
# 
# From -- ./inp_files/694.got.cif
#   From: 2010.05.17/outbox.cif.g08.bks.cpg/sg61_1_cif.got.tgz:694.got - 2010.06.03 15:17:17.
