data_PCOD9459350
_publ_section_title
;
Structure prediction by ZEFSAII (Michael W. Deem and Ramdas Pophale) SiO2 
 PCOD9459350
Probable space group: P B C A
;
_chemical_formula_sum "Si O2"
_cell_formula_units_Z 48
_cell_length_a 13.364192
_cell_length_b 14.233477
_cell_length_c 9.619938
_cell_angle_alpha 90.000000
_cell_angle_beta 90.000000
_cell_angle_gamma 90.000000
_cell_volume 1829.894212
_symmetry_space_group_name_H-M "P B C A"
_symmetry_group_IT_number 61
_symmetry_cell_setting 'orthorhombic'
loop_
_space_group_symop_operation_xyz
x,y,z
1/2-x,-y,1/2+z
1/2+x,1/2-y,-z
-x,1/2+y,1/2-z
-x,-y,-z
1/2+x,y,1/2-z
1/2-x,1/2+y,z
x,1/2-y,1/2+z
loop_
_atom_site_type_symbol
_atom_site_label
_atom_site_fract_x
_atom_site_fract_y
_atom_site_fract_z
Si Si1 0.204803 0.751929 0.138727
Si Si2 0.471475 0.156189 0.534627
Si Si3 0.211758 0.438879 0.255922
Si Si4 0.014409 0.951474 0.320753
Si Si5 0.160585 0.079436 0.073379
Si Si6 0.479174 0.351956 0.596459
O O1 0.141896 0.806499 0.016090
O O2 0.248036 0.833034 0.235385
O O3 0.114152 0.683055 0.189548
O O4 0.289837 0.680869 0.094989
O O5 0.288581 0.989484 0.684487
O O6 0.463507 0.098208 0.676605
O O7 0.540534 0.097160 0.432917
O O8 0.106825 0.448113 0.174051
O O9 0.189605 0.456505 0.418230
O O10 0.058145 0.890689 0.447102
O O11 0.039499 0.060194 0.347071
O O12 0.031879 0.252985 0.932347
#
# Coordination Sequence:
#
# PCOD9459350 Si02
#       6
#     8   8   8   8   8   8
#     4  10  23  41  67 101 139 185 235 293 354 426
#     4   9  22  40  65 102 134 178 234 293 346 423
#     4  11  24  42  73 101 144 184 238 294 362 425
#     4  10  19  41  68  97 132 184 232 285 359 418
#     4  11  24  47  69 106 143 188 241 298 362 432
#     4   9  20  39  68  92 134 177 233 282 347 425
#
# _framework density 26.231023
#
# number of rings (size 3 to 8) (size 9 to 14) (size 15 to 20)
#    1.000    1.000    1.667    1.000    2.333    2.000 
#    6.000    5.000    0.000    0.000    0.000    0.000 
#    0.000    0.000    0.000    0.000    0.000    0.000 
#
# Total GULP energy -268183.981173 kJ/mol
# GULP energy per Si atom -5587.166274 kJ/mol
# Density = 2.617132 g / cm^3
# Si number density = 26.231023 Si / 1000 Ang^3
#
#
#
# Elastic Constant Matrix: (Units=GPa)
#
#
# Indices 1 2 3 4 5 6 
#
# 1 70.8284 13.6644 -21.3735 0.0000 0.0000 0.0000
# 2 13.6644 169.1280 25.0593 0.0000 0.0000 0.0000
# 3 -21.3735 25.0593 77.1164 0.0000 0.0000 0.0000
# 4 0.0000 0.0000 0.0000 20.6363 0.0000 0.0000
# 5 0.0000 0.0000 0.0000 0.0000 23.5789 0.0000
# 6 0.0000 0.0000 0.0000 0.0000 0.0000 43.6295
#
#
#
# Elastic Compliance Matrix: (Units=1/GPa)
#
#
# Indices 1 2 3 4 5 6 
#
# 1 0.016060 -0.002056 0.005119 0.000000 0.000000 0.000000
# 2 -0.002056 0.006475 -0.002674 0.000000 0.000000 0.000000
# 3 0.005119 -0.002674 0.015255 0.000000 0.000000 0.000000
# 4 0.000000 0.000000 0.000000 0.048458 0.000000 0.000000
# 5 0.000000 0.000000 0.000000 0.000000 0.042411 0.000000
# 6 0.000000 0.000000 0.000000 0.000000 0.000000 0.022920
#
#
# Mechanical properties :
#
#
# Convention : Reuss Voigt Hill
#
# Bulk Modulus (GPa) = 25.92757 39.08591 32.50674
# Shear Modulus (GPa) = 30.55165 37.55045 34.05105
#
# Velocity S-wave (km/s) = 3.41649 3.78766 3.60685
# Velocity P-wave (km/s) = 5.04668 5.83622 5.45575
#
# Compressibility (1/GPa) = 0.03856899
#
# Stress axis : x y z
#
# Youngs Moduli (GPa) = 62.26595 154.44044 65.55147
#
# Poissons Ratio (x) = 0.31754 -0.33558
# Poissons Ratio (y) = 0.12802 0.17528
# Poissons Ratio (z) = -0.31876 0.41296
#
# Static dielectric constant tensor:
#      x y z
#    x 2.081040 0.000000 0.000000 
#    y 0.000000 2.079000 0.000000 
#    z 0.000000 0.000000 2.072760 
# 
# From -- ./inp_files/5874.got.cif
#   From: 2010.05.17/outbox.cif.g08.bks.cpg/sg61_3_cif.got.tgz:5874.got - 2010.06.03 15:17:17.
