data_PCOD9459683
_publ_section_title
;
Structure prediction by ZEFSAII (Michael W. Deem and Ramdas Pophale) SiO2 
 PCOD9459683
Probable space group: P B C A
;
_chemical_formula_sum "Si O2"
_cell_formula_units_Z 64
_cell_length_a 28.562678
_cell_length_b 8.484872
_cell_length_c 11.929974
_cell_angle_alpha 90.000000
_cell_angle_beta 90.000000
_cell_angle_gamma 90.000000
_cell_volume 2891.237154
_symmetry_space_group_name_H-M "P B C A"
_symmetry_group_IT_number 61
_symmetry_cell_setting 'orthorhombic'
loop_
_space_group_symop_operation_xyz
x,y,z
1/2-x,-y,1/2+z
1/2+x,1/2-y,-z
-x,1/2+y,1/2-z
-x,-y,-z
1/2+x,y,1/2-z
1/2-x,1/2+y,z
x,1/2-y,1/2+z
loop_
_atom_site_type_symbol
_atom_site_label
_atom_site_fract_x
_atom_site_fract_y
_atom_site_fract_z
Si Si1 0.554872 0.445466 0.617611
Si Si2 0.875420 0.914482 0.240761
Si Si3 0.704955 0.362756 0.400629
Si Si4 0.193276 0.511904 0.644065
Si Si5 0.062349 0.331246 0.644892
Si Si6 0.981607 0.246883 0.002094
Si Si7 0.657455 0.406842 0.624295
Si Si8 0.110570 0.556350 0.492004
O O1 0.563915 0.444738 0.749164
O O2 0.530109 0.596043 0.569661
O O3 0.520241 0.298917 0.590139
O O4 0.607303 0.446556 0.569196
O O5 0.835197 0.953729 0.329647
O O6 0.919980 0.837668 0.306799
O O7 0.852448 0.767086 0.173680
O O8 0.887263 0.038051 0.142612
O O9 0.698301 0.174314 0.386183
O O10 0.755889 0.411507 0.359195
O O11 0.696860 0.404392 0.530406
O O12 0.171143 0.513066 0.768884
O O13 0.159239 0.594267 0.552908
O O14 0.097546 0.388391 0.549040
O O15 0.011615 0.350563 0.591311
O O16 0.932909 0.166330 0.972520
#
# Coordination Sequence:
#
# PCOD9459683 Si02
#       8
#     8   8   8   8   8   8   8   8
#     4  10  23  43  60  96 136 172 218 280 341 396
#     4  10  20  40  67  93 127 174 223 273 343 408
#     4  11  23  42  67  97 127 184 224 280 345 415
#     4  11  25  41  67  99 133 175 228 283 345 411
#     4  11  21  40  68  89 127 179 220 273 335 401
#     4  11  26  38  64  98 132 173 224 278 336 411
#     4  10  20  43  68  87 134 174 216 278 342 402
#     4  12  23  43  65 101 133 176 229 280 345 415
#
# _framework density 22.135853000000001
#
# number of rings (size 3 to 8) (size 9 to 14) (size 15 to 20)
#    0.000    1.250    5.000    2.625    5.250    1.000 
#    2.250    0.000    0.000    0.000    0.000    0.000 
#    0.000    0.000    0.000    0.000    0.000    0.000 
#
# Total GULP energy -357200.896391 kJ/mol
# GULP energy per Si atom -5581.264006 kJ/mol
# Density = 2.208547 g / cm^3
# Si number density = 22.135853 Si / 1000 Ang^3
#
#
#
# Elastic Constant Matrix: (Units=GPa)
#
#
# Indices 1 2 3 4 5 6 
#
# 1 118.8158 15.0333 29.9142 0.0000 0.0000 0.0000
# 2 15.0333 15.9415 4.5876 0.0000 0.0000 0.0000
# 3 29.9142 4.5876 86.0773 0.0000 0.0000 0.0000
# 4 0.0000 0.0000 0.0000 -37.9609 0.0000 0.0000
# 5 0.0000 0.0000 0.0000 0.0000 41.2618 0.0000
# 6 0.0000 0.0000 0.0000 0.0000 0.0000 38.5917
#
#
#
# Elastic Compliance Matrix: (Units=1/GPa)
#
#
# Indices 1 2 3 4 5 6 
#
# 1 0.010318 -0.008834 -0.003115 0.000000 0.000000 0.000000
# 2 -0.008834 0.071270 -0.000728 0.000000 0.000000 0.000000
# 3 -0.003115 -0.000728 0.012739 0.000000 0.000000 0.000000
# 4 0.000000 0.000000 0.000000 -0.026343 0.000000 0.000000
# 5 0.000000 0.000000 0.000000 0.000000 0.024235 0.000000
# 6 0.000000 0.000000 0.000000 0.000000 0.000000 0.025912
#
#
# Mechanical properties :
#
#
# Convention : Reuss Voigt Hill
#
# Bulk Modulus (GPa) = 14.49864 35.54498 25.02181
# Shear Modulus (GPa) = 30.03406 19.79849 24.91627
#
# Velocity S-wave (km/s) = 3.68748 2.99391 3.35865
# Velocity P-wave (km/s) = 4.96931 5.29564 5.13507
#
# Compressibility (1/GPa) = 0.06897198
#
# Stress axis : x y z
#
# Youngs Moduli (GPa) = 96.91400 14.03119 78.49989
#
# Poissons Ratio (x) = 0.12395 0.24454
# Poissons Ratio (y) = 0.85615 0.05717
# Poissons Ratio (z) = 0.30190 0.01022
#
# Static dielectric constant tensor:
#      x y z
#    x 1.833820 0.000000 0.000000 
#    y 0.000000 1.876920 0.000000 
#    z 0.000000 0.000000 1.849780 
# 
# From -- ./inp_files/6766.got.cif
#   From: 2010.05.17/outbox.cif.g08.bks.cpg/sg61_4_cif.got.tgz:6766.got - 2010.06.03 15:17:17.
