data_PCOD9459095
_publ_section_title
;
Structure prediction by ZEFSAII (Michael W. Deem and Ramdas Pophale) SiO2 
 PCOD9459095
Probable space group: P B C A
;
_chemical_formula_sum "Si O2"
_cell_formula_units_Z 48
_cell_length_a 12.927006
_cell_length_b 17.377586
_cell_length_c 9.742977
_cell_angle_alpha 90.000000
_cell_angle_beta 90.000000
_cell_angle_gamma 90.000000
_cell_volume 2188.663897
_symmetry_space_group_name_H-M "P B C A"
_symmetry_group_IT_number 61
_symmetry_cell_setting 'orthorhombic'
loop_
_space_group_symop_operation_xyz
x,y,z
1/2-x,-y,1/2+z
1/2+x,1/2-y,-z
-x,1/2+y,1/2-z
-x,-y,-z
1/2+x,y,1/2-z
1/2-x,1/2+y,z
x,1/2-y,1/2+z
loop_
_atom_site_type_symbol
_atom_site_label
_atom_site_fract_x
_atom_site_fract_y
_atom_site_fract_z
Si Si1 0.615432 0.166509 0.390326
Si Si2 0.046930 0.271857 0.345705
Si Si3 0.065583 0.947923 0.827847
Si Si4 0.207385 0.045898 0.306254
Si Si5 0.503448 0.105220 0.049286
Si Si6 0.570129 0.585429 0.759295
O O1 0.627302 0.189351 0.547952
O O2 0.602100 0.240853 0.292015
O O3 0.505349 0.121452 0.380409
O O4 0.694516 0.107612 0.318240
O O5 0.005232 0.195860 0.420872
O O6 0.952801 0.329960 0.315082
O O7 0.181946 0.951090 0.876735
O O8 0.069894 0.933404 0.663223
O O9 0.003181 0.026848 0.844128
O O10 0.116712 0.072951 0.409696
O O11 0.177946 0.960782 0.250937
O O12 0.470948 0.088745 0.896459
#
# Coordination Sequence:
#
# PCOD9459095 Si02
#       6
#     8   8   8   8   8   8
#     4   9  20  37  59  80 114 148 182 233 278 328
#     4  10  18  37  61  79 110 148 186 227 281 322
#     4   9  19  36  57  85 111 142 186 232 276 330
#     4   9  19  36  57  85 111 142 186 232 276 330
#     4   9  19  38  60  76 113 153 180 225 284 340
#     4  10  19  37  59  81 109 151 186 223 283 335
#
# _framework density 21.931189
#
# number of rings (size 3 to 8) (size 9 to 14) (size 15 to 20)
#    0.000    3.333    1.667    2.000    0.000    2.667 
#   12.000   13.333    0.000    0.000    0.000    0.000 
#    0.000    0.000    0.000    0.000    0.000    0.000 
#
# Total GULP energy -267721.563288 kJ/mol
# GULP energy per Si atom -5577.532568 kJ/mol
# Density = 2.188127 g / cm^3
# Si number density = 21.931189 Si / 1000 Ang^3
#
#
#
# Elastic Constant Matrix: (Units=GPa)
#
#
# Indices 1 2 3 4 5 6 
#
# 1 75.3361 2.5536 -17.3253 0.0000 0.0000 0.0000
# 2 2.5536 66.4955 -3.3652 0.0000 0.0000 0.0000
# 3 -17.3253 -3.3652 80.5311 0.0000 0.0000 0.0000
# 4 0.0000 0.0000 0.0000 23.9607 0.0000 0.0000
# 5 0.0000 0.0000 0.0000 0.0000 2.5875 0.0000
# 6 0.0000 0.0000 0.0000 0.0000 0.0000 -0.6941
#
#
#
# Elastic Compliance Matrix: (Units=1/GPa)
#
#
# Indices 1 2 3 4 5 6 
#
# 1 0.013975 -0.000385 0.002990 0.000000 0.000000 0.000000
# 2 -0.000385 0.015081 0.000547 0.000000 0.000000 0.000000
# 3 0.002990 0.000547 0.013084 0.000000 0.000000 0.000000
# 4 0.000000 0.000000 0.000000 0.041735 0.000000 0.000000
# 5 0.000000 0.000000 0.000000 0.000000 0.386473 0.000000
# 6 0.000000 0.000000 0.000000 0.000000 0.000000 -1.440622
#
#
# Mechanical properties :
#
#
# Convention : Reuss Voigt Hill
#
# Bulk Modulus (GPa) = 20.64229 20.67652 20.65940
# Shear Modulus (GPa) = -5.20599 21.20412 7.99906
#
# Velocity S-wave (km/s) = -1.54238 3.11279 1.91187
# Velocity P-wave (km/s) = 2.50216 4.72945 3.78342
#
# Compressibility (1/GPa) = 0.04844425
#
# Stress axis : x y z
#
# Youngs Moduli (GPa) = 71.55832 66.30811 76.43048
#
# Poissons Ratio (x) = 0.02555 -0.22856
# Poissons Ratio (y) = 0.02757 -0.04183
# Poissons Ratio (z) = -0.21399 -0.03629
#
# Static dielectric constant tensor:
#      x y z
#    x 1.805600 0.000000 0.000000 
#    y 0.000000 1.846940 0.000000 
#    z 0.000000 0.000000 1.867080 
# 
# From -- ./inp_files/5882.got.cif
#   From: 2010.05.17/outbox.cif.g08.bks.cpg/sg61_3_cif.got.tgz:5882.got - 2010.06.03 15:17:17.
