data_PCOD9459987
_publ_section_title
;
Structure prediction by ZEFSAII (Michael W. Deem and Ramdas Pophale) SiO2 
 PCOD9459987
Probable space group: P B C A
;
_chemical_formula_sum "Si O2"
_cell_formula_units_Z 64
_cell_length_a 8.372460
_cell_length_b 22.671597
_cell_length_c 14.771679
_cell_angle_alpha 90.000000
_cell_angle_beta 90.000000
_cell_angle_gamma 90.000000
_cell_volume 2803.916369
_symmetry_space_group_name_H-M "P B C A"
_symmetry_group_IT_number 61
_symmetry_cell_setting 'orthorhombic'
loop_
_space_group_symop_operation_xyz
x,y,z
1/2-x,-y,1/2+z
1/2+x,1/2-y,-z
-x,1/2+y,1/2-z
-x,-y,-z
1/2+x,y,1/2-z
1/2-x,1/2+y,z
x,1/2-y,1/2+z
loop_
_atom_site_type_symbol
_atom_site_label
_atom_site_fract_x
_atom_site_fract_y
_atom_site_fract_z
Si Si1 0.685716 0.556599 0.268435
Si Si2 0.955552 0.727954 0.111519
Si Si3 0.623212 0.473591 0.621713
Si Si4 0.653994 0.959593 0.386411
Si Si5 0.317582 0.942677 0.455289
Si Si6 0.284077 0.692432 0.203999
Si Si7 0.461086 0.831424 0.530351
Si Si8 0.818987 0.625893 0.993918
O O1 0.706376 0.547407 0.162252
O O2 0.514888 0.544638 0.310360
O O3 0.791164 0.503403 0.308965
O O4 0.743404 0.622862 0.285661
O O5 0.837507 0.716774 0.197553
O O6 0.923668 0.679743 0.031755
O O7 0.129518 0.721713 0.157507
O O8 0.941941 0.788107 0.055188
O O9 0.656116 0.541185 0.597751
O O10 0.595693 0.430184 0.539212
O O11 0.470268 0.940048 0.388707
O O12 0.768070 0.902337 0.397074
O O13 0.668686 0.002270 0.475091
O O14 0.334221 0.884047 0.513820
O O15 0.422732 0.696733 0.127926
O O16 0.640530 0.856694 0.529043
#
# Coordination Sequence:
#
# PCOD9459987 Si02
#       8
#     8   8   8   8   8   8   8   8
#     4  12  21  37  59  98 126 165 211 272 322 385
#     4  12  25  44  65  97 127 172 225 275 322 382
#     4  11  23  34  61  91 133 157 208 267 326 384
#     4   9  19  34  63  88 127 156 200 256 323 384
#     4   9  19  38  57  90 121 165 196 251 323 387
#     4  12  24  41  66  96 124 170 220 274 322 385
#     4  11  24  43  69  91 132 171 221 269 327 388
#     4  10  21  40  62  94 125 167 208 266 326 389
#
# _framework density 22.825218
#
# number of rings (size 3 to 8) (size 9 to 14) (size 15 to 20)
#    0.000    1.250    3.750    3.000    1.750    3.000 
#    0.000    5.000    0.000    0.000    0.000    0.000 
#    0.000    0.000    0.000    0.000    0.000    0.000 
#
# Total GULP energy -356761.208388 kJ/mol
# GULP energy per Si atom -5574.393881 kJ/mol
# Density = 2.277327 g / cm^3
# Si number density = 22.825218 Si / 1000 Ang^3
#
#
#
# Elastic Constant Matrix: (Units=GPa)
#
#
# Indices 1 2 3 4 5 6 
#
# 1 54.1332 11.8523 10.1366 0.0000 0.0000 0.0000
# 2 11.8523 59.8067 27.8553 0.0000 0.0000 0.0000
# 3 10.1366 27.8553 48.9862 0.0000 0.0000 0.0000
# 4 0.0000 0.0000 0.0000 42.6435 0.0000 0.0000
# 5 0.0000 0.0000 0.0000 0.0000 36.3564 0.0000
# 6 0.0000 0.0000 0.0000 0.0000 0.0000 19.9458
#
#
#
# Elastic Compliance Matrix: (Units=1/GPa)
#
#
# Indices 1 2 3 4 5 6 
#
# 1 0.019534 -0.002705 -0.002504 0.000000 0.000000 0.000000
# 2 -0.002705 0.023119 -0.012586 0.000000 0.000000 0.000000
# 3 -0.002504 -0.012586 0.028089 0.000000 0.000000 0.000000
# 4 0.000000 0.000000 0.000000 0.023450 0.000000 0.000000
# 5 0.000000 0.000000 0.000000 0.000000 0.027506 0.000000
# 6 0.000000 0.000000 0.000000 0.000000 0.000000 0.050136
#
#
# Mechanical properties :
#
#
# Convention : Reuss Voigt Hill
#
# Bulk Modulus (GPa) = 28.44851 29.17939 28.81395
# Shear Modulus (GPa) = 22.81631 27.32793 25.07212
#
# Velocity S-wave (km/s) = 3.16509 3.46391 3.31787
# Velocity P-wave (km/s) = 5.08407 5.36748 5.22769
#
# Compressibility (1/GPa) = 0.03515123
#
# Stress axis : x y z
#
# Youngs Moduli (GPa) = 51.19255 43.25487 35.60096
#
# Poissons Ratio (x) = 0.11700 0.08915
# Poissons Ratio (y) = 0.13847 0.44809
# Poissons Ratio (z) = 0.12819 0.54442
#
# Static dielectric constant tensor:
#      x y z
#    x 1.944010 0.000000 0.000000 
#    y 0.000000 1.862700 0.000000 
#    z 0.000000 0.000000 1.987790 
# 
# From -- ./inp_files/7234.got.cif
#   From: 2010.05.17/outbox.cif.g08.bks.cpg/sg61_4_cif.got.tgz:7234.got - 2010.06.03 15:17:17.
