data_PCOD9459093
_publ_section_title
;
Structure prediction by ZEFSAII (Michael W. Deem and Ramdas Pophale) SiO2 
 PCOD9459093
Probable space group: P B C A
;
_chemical_formula_sum "Si O2"
_cell_formula_units_Z 56
_cell_length_a 12.084287
_cell_length_b 12.193373
_cell_length_c 14.354062
_cell_angle_alpha 90.000000
_cell_angle_beta 90.000000
_cell_angle_gamma 90.000000
_cell_volume 2115.045469
_symmetry_space_group_name_H-M "P B C A"
_symmetry_group_IT_number 61
_symmetry_cell_setting 'orthorhombic'
loop_
_space_group_symop_operation_xyz
x,y,z
1/2-x,-y,1/2+z
1/2+x,1/2-y,-z
-x,1/2+y,1/2-z
-x,-y,-z
1/2+x,y,1/2-z
1/2-x,1/2+y,z
x,1/2-y,1/2+z
loop_
_atom_site_type_symbol
_atom_site_label
_atom_site_fract_x
_atom_site_fract_y
_atom_site_fract_z
Si Si1 0.741634 0.806664 0.370048
Si Si2 0.402878 0.505534 0.660793
Si Si3 0.024832 0.760750 0.672568
Si Si4 0.730804 0.222377 0.158597
Si Si5 0.062257 0.824365 0.384622
Si Si6 0.586457 0.348019 0.962449
Si Si7 0.101351 0.520634 0.372759
O O1 0.802628 0.923653 0.381023
O O2 0.610108 0.823033 0.376268
O O3 0.761023 0.755551 0.267138
O O4 0.803699 0.717217 0.432839
O O5 0.398394 0.532029 0.770978
O O6 0.513785 0.555247 0.616959
O O7 0.412331 0.376103 0.656761
O O8 0.027691 0.727317 0.782754
O O9 0.399126 0.776691 0.859739
O O10 0.807551 0.314213 0.111069
O O11 0.798799 0.111219 0.131404
O O12 0.981395 0.921753 0.887090
O O13 0.001806 0.753325 0.462904
O O14 0.607927 0.431795 0.045952
#
# Coordination Sequence:
#
# PCOD9459093 Si02
#       7
#     8   8   8   8   8   8   8
#     4  10  20  36  60  87 122 152 212 260 295 364
#     4  11  19  36  64  91 111 170 208 251 313 364
#     4  11  20  38  59  92 124 156 214 257 311 360
#     4  10  18  37  55  88 123 155 199 265 297 364
#     4   9  19  35  57  92 121 151 210 261 292 370
#     4   9  17  37  58  90 126 160 204 265 304 373
#     4  10  19  33  65  89 118 168 211 243 324 376
#
# _framework density 26.476973000000001
#
# number of rings (size 3 to 8) (size 9 to 14) (size 15 to 20)
#    0.000    2.000    7.143    0.000    0.000    2.286 
#    5.143    0.714    6.286   13.714    0.000    0.000 
#    0.000    0.000    0.000    0.000    0.000    0.000 
#
# Total GULP energy -313159.170874 kJ/mol
# GULP energy per Si atom -5592.128051 kJ/mol
# Density = 2.641671 g / cm^3
# Si number density = 26.476973 Si / 1000 Ang^3
#
#
#
# Elastic Constant Matrix: (Units=GPa)
#
#
# Indices 1 2 3 4 5 6 
#
# 1 223.6967 34.2369 42.4312 0.0000 0.0000 0.0000
# 2 34.2369 115.6605 0.4118 0.0000 0.0000 0.0000
# 3 42.4312 0.4118 52.2699 0.0000 0.0000 0.0000
# 4 0.0000 0.0000 0.0000 30.0345 0.0000 0.0000
# 5 0.0000 0.0000 0.0000 0.0000 35.9587 0.0000
# 6 0.0000 0.0000 0.0000 0.0000 0.0000 32.5817
#
#
#
# Elastic Compliance Matrix: (Units=1/GPa)
#
#
# Indices 1 2 3 4 5 6 
#
# 1 0.005577 -0.001635 -0.004514 0.000000 0.000000 0.000000
# 2 -0.001635 0.009125 0.001255 0.000000 0.000000 0.000000
# 3 -0.004514 0.001255 0.022786 0.000000 0.000000 0.000000
# 4 0.000000 0.000000 0.000000 0.033295 0.000000 0.000000
# 5 0.000000 0.000000 0.000000 0.000000 0.027810 0.000000
# 6 0.000000 0.000000 0.000000 0.000000 0.000000 0.030692
#
#
# Mechanical properties :
#
#
# Convention : Reuss Voigt Hill
#
# Bulk Modulus (GPa) = 36.10017 60.64299 48.37158
# Shear Modulus (GPa) = 33.71404 40.68481 37.19942
#
# Velocity S-wave (km/s) = 3.57225 3.92422 3.75236
# Velocity P-wave (km/s) = 5.53884 6.59442 6.08955
#
# Compressibility (1/GPa) = 0.02770070
#
# Stress axis : x y z
#
# Youngs Moduli (GPa) = 179.31442 109.58398 43.88648
#
# Poissons Ratio (x) = 0.17914 0.19811
# Poissons Ratio (y) = 0.29313 -0.05508
# Poissons Ratio (z) = 0.80946 -0.13754
#
# Static dielectric constant tensor:
#      x y z
#    x 2.089710 0.000000 0.000000 
#    y 0.000000 2.076500 0.000000 
#    z 0.000000 0.000000 2.159670 
# 
# From -- ./inp_files/8000.got.cif
#   From: 2010.05.17/outbox.cif.g08.bks.cpg/sg61_4_cif.got.tgz:8000.got - 2010.06.03 15:17:17.
