data_PCOD9459002
_publ_section_title
;
Structure prediction by ZEFSAII (Michael W. Deem and Ramdas Pophale) SiO2 
 PCOD9459002
Probable space group: P B C A
;
_chemical_formula_sum "Si O2"
_cell_formula_units_Z 64
_cell_length_a 9.119045
_cell_length_b 20.307454
_cell_length_c 14.992089
_cell_angle_alpha 90.000000
_cell_angle_beta 90.000000
_cell_angle_gamma 90.000000
_cell_volume 2776.303808
_symmetry_space_group_name_H-M "P B C A"
_symmetry_group_IT_number 61
_symmetry_cell_setting 'orthorhombic'
loop_
_space_group_symop_operation_xyz
x,y,z
1/2-x,-y,1/2+z
1/2+x,1/2-y,-z
-x,1/2+y,1/2-z
-x,-y,-z
1/2+x,y,1/2-z
1/2-x,1/2+y,z
x,1/2-y,1/2+z
loop_
_atom_site_type_symbol
_atom_site_label
_atom_site_fract_x
_atom_site_fract_y
_atom_site_fract_z
Si Si1 0.803121 0.512811 0.208512
Si Si2 0.541422 0.227554 0.317093
Si Si3 0.053718 0.895463 0.754929
Si Si4 0.523978 0.680772 0.425532
Si Si5 0.124298 0.900467 0.413989
Si Si6 0.265237 0.795399 0.316531
Si Si7 0.203502 0.400015 0.162314
Si Si8 0.252455 0.794424 0.034807
O O1 0.699789 0.576387 0.202407
O O2 0.805764 0.468357 0.119507
O O3 0.754173 0.468687 0.294237
O O4 0.962830 0.541515 0.225004
O O5 0.542802 0.149167 0.320989
O O6 0.599605 0.255514 0.222514
O O7 0.374644 0.249345 0.323712
O O8 0.635605 0.260684 0.394238
O O9 0.073214 0.846851 0.670473
O O10 0.562971 0.618410 0.489715
O O11 0.614208 0.745674 0.457926
O O12 0.352451 0.697617 0.446377
O O13 0.249778 0.844627 0.399099
O O14 0.973574 0.895984 0.353420
O O15 0.244574 0.848816 0.237529
O O16 0.274608 0.368201 0.073324
#
# Coordination Sequence:
#
# PCOD9459002 Si02
#       8
#     8   8   8   8   8   8   8   8
#     4  11  23  42  61  92 121 173 227 251 302 384
#     4  11  21  37  61  93 128 161 206 265 322 382
#     4  12  25  39  65  94 131 174 215 272 310 386
#     4  11  24  42  65  99 133 164 207 275 343 389
#     4  10  20  40  64  90 123 169 208 268 314 386
#     4  10  17  33  61  92 117 152 207 263 316 370
#     4   9  18  38  62  87 120 158 212 269 292 367
#     4  10  22  43  62  98 132 160 209 267 336 392
#
# _framework density 23.052230999999999
#
# number of rings (size 3 to 8) (size 9 to 14) (size 15 to 20)
#    0.000    1.500    5.000    3.000    1.750    1.500 
#    2.250    0.000    0.000    1.500    0.000    0.000 
#    0.000    0.000    0.000    0.000    0.000    0.000 
#
# Total GULP energy -356846.670020 kJ/mol
# GULP energy per Si atom -5575.729219 kJ/mol
# Density = 2.299976 g / cm^3
# Si number density = 23.052231 Si / 1000 Ang^3
#
#
#
# Elastic Constant Matrix: (Units=GPa)
#
#
# Indices 1 2 3 4 5 6 
#
# 1 73.6674 15.0970 -1.3163 0.0000 0.0000 0.0000
# 2 15.0970 81.6663 -3.8994 0.0000 0.0000 0.0000
# 3 -1.3163 -3.8994 36.0338 0.0000 0.0000 0.0000
# 4 0.0000 0.0000 0.0000 22.2430 0.0000 0.0000
# 5 0.0000 0.0000 0.0000 0.0000 26.8836 0.0000
# 6 0.0000 0.0000 0.0000 0.0000 0.0000 41.5299
#
#
#
# Elastic Compliance Matrix: (Units=1/GPa)
#
#
# Indices 1 2 3 4 5 6 
#
# 1 0.014111 -0.002597 0.000234 0.000000 0.000000 0.000000
# 2 -0.002597 0.012787 0.001289 0.000000 0.000000 0.000000
# 3 0.000234 0.001289 0.027900 0.000000 0.000000 0.000000
# 4 0.000000 0.000000 0.000000 0.044958 0.000000 0.000000
# 5 0.000000 0.000000 0.000000 0.000000 0.037197 0.000000
# 6 0.000000 0.000000 0.000000 0.000000 0.000000 0.024079
#
#
# Mechanical properties :
#
#
# Convention : Reuss Voigt Hill
#
# Bulk Modulus (GPa) = 18.99367 23.45887 21.22627
# Shear Modulus (GPa) = 27.66560 30.23039 28.94799
#
# Velocity S-wave (km/s) = 3.46804 3.62524 3.54751
# Velocity P-wave (km/s) = 4.92887 5.26513 5.09977
#
# Compressibility (1/GPa) = 0.05264912
#
# Stress axis : x y z
#
# Youngs Moduli (GPa) = 70.86662 78.20650 35.84259
#
# Poissons Ratio (x) = 0.20313 -0.00840
# Poissons Ratio (y) = 0.18407 -0.04620
# Poissons Ratio (z) = -0.01661 -0.10080
#
# Static dielectric constant tensor:
#      x y z
#    x 1.912310 0.000000 0.000000 
#    y 0.000000 1.958670 0.000000 
#    z 0.000000 0.000000 1.960450 
# 
# From -- ./inp_files/9056.got.cif
#   From: 2010.05.17/outbox.cif.g08.bks.cpg/sg61_5_cif.got.tgz:9056.got - 2010.06.03 15:17:17.
