data_PCOD9459522
_publ_section_title
;
Structure prediction by ZEFSAII (Michael W. Deem and Ramdas Pophale) SiO2 
 PCOD9459522
Probable space group: P B C A
;
_chemical_formula_sum "Si O2"
_cell_formula_units_Z 48
_cell_length_a 14.895148
_cell_length_b 17.853203
_cell_length_c 8.087532
_cell_angle_alpha 90.000000
_cell_angle_beta 90.000000
_cell_angle_gamma 90.000000
_cell_volume 2150.685851
_symmetry_space_group_name_H-M "P B C A"
_symmetry_group_IT_number 61
_symmetry_cell_setting 'orthorhombic'
loop_
_space_group_symop_operation_xyz
x,y,z
1/2-x,-y,1/2+z
1/2+x,1/2-y,-z
-x,1/2+y,1/2-z
-x,-y,-z
1/2+x,y,1/2-z
1/2-x,1/2+y,z
x,1/2-y,1/2+z
loop_
_atom_site_type_symbol
_atom_site_label
_atom_site_fract_x
_atom_site_fract_y
_atom_site_fract_z
Si Si1 0.130502 0.786092 0.291934
Si Si2 0.744186 0.967921 0.914723
Si Si3 0.086518 0.861801 0.640751
Si Si4 0.490776 0.895999 0.342439
Si Si5 0.708989 0.113469 0.759796
Si Si6 0.565351 0.443537 0.787518
O O1 0.107792 0.819644 0.470775
O O2 0.114093 0.698431 0.278196
O O3 0.230618 0.812415 0.243286
O O4 0.060586 0.829117 0.174032
O O5 0.651404 0.933414 0.850332
O O6 0.828009 0.942294 0.802532
O O7 0.736313 0.057396 0.906671
O O8 0.764058 0.934075 0.094927
O O9 0.985122 0.890246 0.659364
O O10 0.397060 0.875028 0.255235
O O11 0.470529 0.917356 0.532174
O O12 0.534377 0.970610 0.262509
#
# Coordination Sequence:
#
# PCOD9459522 Si02
#       6
#     8   8   8   8   8   8
#     4  11  24  40  59  86 121 156 196 243 295 349
#     4  10  21  37  60  89 118 153 196 240 290 349
#     4  11  24  40  59  86 121 156 196 243 295 349
#     4  10  20  37  62  89 119 154 194 241 293 348
#     4  10  21  37  60  89 118 153 196 240 290 349
#     4  10  20  37  62  89 119 154 194 241 293 348
#
# _framework density 22.318463000000001
#
# number of rings (size 3 to 8) (size 9 to 14) (size 15 to 20)
#    0.000    1.667    3.333    1.000    0.000    4.667 
#    0.000    3.333    0.000    0.000    0.000    0.000 
#    0.000    0.000    0.000    0.000    0.000    0.000 
#
# Total GULP energy -268479.993242 kJ/mol
# GULP energy per Si atom -5593.333193 kJ/mol
# Density = 2.226767 g / cm^3
# Si number density = 22.318463 Si / 1000 Ang^3
#
#
#
# Elastic Constant Matrix: (Units=GPa)
#
#
# Indices 1 2 3 4 5 6 
#
# 1 78.4619 -9.4896 14.5836 0.0000 0.0000 0.0000
# 2 -9.4896 37.2142 2.0029 0.0000 0.0000 0.0000
# 3 14.5836 2.0029 35.7616 0.0000 0.0000 0.0000
# 4 0.0000 0.0000 0.0000 24.4619 0.0000 0.0000
# 5 0.0000 0.0000 0.0000 0.0000 23.9974 0.0000
# 6 0.0000 0.0000 0.0000 0.0000 0.0000 22.3904
#
#
#
# Elastic Compliance Matrix: (Units=1/GPa)
#
#
# Indices 1 2 3 4 5 6 
#
# 1 0.014357 0.003988 -0.006078 0.000000 0.000000 0.000000
# 2 0.003988 0.028061 -0.003198 0.000000 0.000000 0.000000
# 3 -0.006078 -0.003198 0.030621 0.000000 0.000000 0.000000
# 4 0.000000 0.000000 0.000000 0.040880 0.000000 0.000000
# 5 0.000000 0.000000 0.000000 0.000000 0.041671 0.000000
# 6 0.000000 0.000000 0.000000 0.000000 0.000000 0.044662
#
#
# Mechanical properties :
#
#
# Convention : Reuss Voigt Hill
#
# Bulk Modulus (GPa) = 16.00962 18.40351 17.20657
# Shear Modulus (GPa) = 21.58444 23.79266 22.68855
#
# Velocity S-wave (km/s) = 3.11322 3.26859 3.19185
# Velocity P-wave (km/s) = 4.48460 4.74433 4.61629
#
# Compressibility (1/GPa) = 0.06246243
#
# Stress axis : x y z
#
# Youngs Moduli (GPa) = 69.65172 35.63721 32.65756
#
# Poissons Ratio (x) = -0.14213 0.19850
# Poissons Ratio (y) = -0.27778 0.10444
# Poissons Ratio (z) = 0.42336 0.11397
#
# Static dielectric constant tensor:
#      x y z
#    x 1.793130 0.000000 0.000000 
#    y 0.000000 1.785860 0.000000 
#    z 0.000000 0.000000 1.913750 
# 
# From -- ./inp_files/2855.got.cif
#   From: 2010.05.17/outbox.cif.g08.bks.cpg/sg61_2_cif.got.tgz:2855.got - 2010.06.03 15:17:17.
