data_PCOD9459594
_publ_section_title
;
Structure prediction by ZEFSAII (Michael W. Deem and Ramdas Pophale) SiO2 
 PCOD9459594
Probable space group: P B C A
;
_chemical_formula_sum "Si O2"
_cell_formula_units_Z 60
_cell_length_a 23.173965
_cell_length_b 11.585571
_cell_length_c 8.386801
_cell_angle_alpha 90.000000
_cell_angle_beta 90.000000
_cell_angle_gamma 90.000000
_cell_volume 2251.718666
_symmetry_space_group_name_H-M "P B C A"
_symmetry_group_IT_number 61
_symmetry_cell_setting 'orthorhombic'
loop_
_space_group_symop_operation_xyz
x,y,z
1/2-x,-y,1/2+z
1/2+x,1/2-y,-z
-x,1/2+y,1/2-z
-x,-y,-z
1/2+x,y,1/2-z
1/2-x,1/2+y,z
x,1/2-y,1/2+z
loop_
_atom_site_type_symbol
_atom_site_label
_atom_site_fract_x
_atom_site_fract_y
_atom_site_fract_z
Si Si1 0.000000 0.500000 0.500000
Si Si2 0.883784 0.609898 0.096548
Si Si3 0.432336 0.790617 0.590993
Si Si4 0.573817 0.810467 0.860782
Si Si5 0.654138 0.655720 0.092489
Si Si6 0.272804 0.778848 0.772295
Si Si7 0.316664 0.596002 0.966263
Si Si8 0.458499 0.409527 0.333534
O O1 0.986916 0.638910 0.471165
O O2 0.990921 0.478294 0.305526
O O3 0.918726 0.685581 0.225988
O O4 0.914308 0.657842 0.938366
O O5 0.817258 0.644671 0.118853
O O6 0.897946 0.479702 0.144422
O O7 0.381373 0.863332 0.503076
O O8 0.618469 0.734965 0.970537
O O9 0.532094 0.881779 0.978523
O O10 0.611783 0.884607 0.735994
O O11 0.546273 0.715310 0.746295
O O12 0.707565 0.720360 0.171233
O O13 0.681230 0.540487 0.017518
O O14 0.296272 0.648912 0.798201
O O15 0.279162 0.837947 0.600502
#
# Coordination Sequence:
#
# PCOD9459594 Si02
#       8
#     4   8   8   8   8   8   8   8
#     4  10  20  38  66  86 110 150 196 240 304 374
#     4   9  19  36  56  83 121 153 193 252 310 352
#     4   9  19  36  59  85 114 151 193 247 306 365
#     4  10  23  40  58  87 124 159 204 251 309 368
#     4  11  22  38  60  84 120 167 207 249 302 368
#     4  10  21  35  57  87 117 160 213 253 296 366
#     4  10  22  39  58  86 124 158 201 260 313 357
#     4  10  22  40  61  86 119 159 199 255 312 371
#
# _framework density 26.646312000000002
#
# number of rings (size 3 to 8) (size 9 to 14) (size 15 to 20)
#    0.000    2.133    0.000    3.200    0.000   11.733 
#    0.000    0.000    0.000   11.200    0.000    0.000 
#    0.000    0.000    0.000    0.000    0.000    0.000 
#
# Total GULP energy -334213.172874 kJ/mol
# GULP energy per Si atom -5570.219548 kJ/mol
# Density = 2.658566 g / cm^3
# Si number density = 26.646312 Si / 1000 Ang^3
#
#
#
# Elastic Constant Matrix: (Units=GPa)
#
#
# Indices 1 2 3 4 5 6 
#
# 1 74.8856 3.8463 7.1433 0.0000 0.0000 0.0000
# 2 3.8463 53.9266 11.1835 0.0000 0.0000 0.0000
# 3 7.1433 11.1835 123.3936 0.0000 0.0000 0.0000
# 4 0.0000 0.0000 0.0000 38.9533 0.0000 0.0000
# 5 0.0000 0.0000 0.0000 0.0000 24.4353 0.0000
# 6 0.0000 0.0000 0.0000 0.0000 0.0000 15.0168
#
#
#
# Elastic Compliance Matrix: (Units=1/GPa)
#
#
# Indices 1 2 3 4 5 6 
#
# 1 0.013463 -0.000814 -0.000706 0.000000 0.000000 0.000000
# 2 -0.000814 0.018948 -0.001670 0.000000 0.000000 0.000000
# 3 -0.000706 -0.001670 0.008296 0.000000 0.000000 0.000000
# 4 0.000000 0.000000 0.000000 0.025672 0.000000 0.000000
# 5 0.000000 0.000000 0.000000 0.000000 0.040924 0.000000
# 6 0.000000 0.000000 0.000000 0.000000 0.000000 0.066592
#
#
# Mechanical properties :
#
#
# Convention : Reuss Voigt Hill
#
# Bulk Modulus (GPa) = 29.13083 32.95025 31.04054
# Shear Modulus (GPa) = 26.08000 31.01658 28.54829
#
# Velocity S-wave (km/s) = 3.13189 3.41546 3.27674
# Velocity P-wave (km/s) = 4.90249 5.28644 5.09808
#
# Compressibility (1/GPa) = 0.03432790
#
# Stress axis : x y z
#
# Youngs Moduli (GPa) = 74.27872 52.77555 120.53461
#
# Poissons Ratio (x) = 0.04295 0.08505
# Poissons Ratio (y) = 0.06046 0.20132
# Poissons Ratio (z) = 0.05241 0.08815
#
# Static dielectric constant tensor:
#      x y z
#    x 2.054700 0.000000 0.000000 
#    y 0.000000 2.124550 0.000000 
#    z 0.000000 0.000000 2.109920 
# 
# From -- ./inp_files/4612.got.cif
#   From: 2010.05.17/outbox.cif.g08.bks.cpg/sg61_3_cif.got.tgz:4612.got - 2010.06.03 15:17:17.
