data_PCOD9459392
_publ_section_title
;
Structure prediction by ZEFSAII (Michael W. Deem and Ramdas Pophale) SiO2 
 PCOD9459392
Probable space group: P B C A
;
_chemical_formula_sum "Si O2"
_cell_formula_units_Z 48
_cell_length_a 16.182936
_cell_length_b 17.763916
_cell_length_c 8.516537
_cell_angle_alpha 90.000000
_cell_angle_beta 90.000000
_cell_angle_gamma 90.000000
_cell_volume 2448.268613
_symmetry_space_group_name_H-M "P B C A"
_symmetry_group_IT_number 61
_symmetry_cell_setting 'orthorhombic'
loop_
_space_group_symop_operation_xyz
x,y,z
1/2-x,-y,1/2+z
1/2+x,1/2-y,-z
-x,1/2+y,1/2-z
-x,-y,-z
1/2+x,y,1/2-z
1/2-x,1/2+y,z
x,1/2-y,1/2+z
loop_
_atom_site_type_symbol
_atom_site_label
_atom_site_fract_x
_atom_site_fract_y
_atom_site_fract_z
Si Si1 0.858416 0.001286 0.173686
Si Si2 0.062680 0.155024 0.759618
Si Si3 0.248385 0.582681 0.063862
Si Si4 0.915957 0.082462 0.613182
Si Si5 0.112939 0.304958 0.608917
Si Si6 0.013117 0.071362 0.283462
O O1 0.891281 0.925219 0.259087
O O2 0.795458 0.044985 0.286801
O O3 0.941915 0.049946 0.157604
O O4 0.814610 0.973803 0.015614
O O5 0.104135 0.218472 0.653177
O O6 0.967006 0.141385 0.717239
O O7 0.074893 0.179750 0.938227
O O8 0.295846 0.659194 0.105858
O O9 0.178192 0.597092 0.932379
O O10 0.965328 0.081776 0.447484
O O11 0.927417 0.000235 0.690538
O O12 0.061848 0.355433 0.731979
#
# Coordination Sequence:
#
# PCOD9459392 Si02
#       6
#     8   8   8   8   8   8
#     4   9  20  36  56  84 110 144 183 223 274 326
#     4  10  22  37  55  78 111 149 185 222 277 334
#     4  10  20  34  57  85 111 139 184 231 273 319
#     4   9  18  36  57  80 108 143 183 224 269 325
#     4  11  22  37  57  82 111 146 185 228 276 327
#     4   9  18  34  58  79 107 147 182 217 269 331
#
# _framework density 19.605691
#
# number of rings (size 3 to 8) (size 9 to 14) (size 15 to 20)
#    0.000    2.333    0.000    3.000    0.000    8.667 
#    0.000   11.667    0.000    0.000    0.000    0.000 
#    0.000    0.000    0.000    0.000    0.000    0.000 
#
# Total GULP energy -267995.328493 kJ/mol
# GULP energy per Si atom -5583.236010 kJ/mol
# Density = 1.956107 g / cm^3
# Si number density = 19.605691 Si / 1000 Ang^3
#
#
#
# Elastic Constant Matrix: (Units=GPa)
#
#
# Indices 1 2 3 4 5 6 
#
# 1 66.8057 13.1722 -1.2845 0.0000 0.0000 0.0000
# 2 13.1722 58.9851 -2.5312 0.0000 0.0000 0.0000
# 3 -1.2845 -2.5312 35.1935 0.0000 0.0000 0.0000
# 4 0.0000 0.0000 0.0000 22.2491 0.0000 0.0000
# 5 0.0000 0.0000 0.0000 0.0000 28.7990 0.0000
# 6 0.0000 0.0000 0.0000 0.0000 0.0000 13.6027
#
#
#
# Elastic Compliance Matrix: (Units=1/GPa)
#
#
# Indices 1 2 3 4 5 6 
#
# 1 0.015662 -0.003484 0.000321 0.000000 0.000000 0.000000
# 2 -0.003484 0.017781 0.001152 0.000000 0.000000 0.000000
# 3 0.000321 0.001152 0.028509 0.000000 0.000000 0.000000
# 4 0.000000 0.000000 0.000000 0.044946 0.000000 0.000000
# 5 0.000000 0.000000 0.000000 0.000000 0.034723 0.000000
# 6 0.000000 0.000000 0.000000 0.000000 0.000000 0.073515
#
#
# Mechanical properties :
#
#
# Convention : Reuss Voigt Hill
#
# Bulk Modulus (GPa) = 17.26234 19.96637 18.61436
# Shear Modulus (GPa) = 20.96722 23.03866 22.00294
#
# Velocity S-wave (km/s) = 3.27379 3.43169 3.35367
# Velocity P-wave (km/s) = 4.80771 5.09000 4.95087
#
# Compressibility (1/GPa) = 0.05792959
#
# Stress axis : x y z
#
# Youngs Moduli (GPa) = 63.84940 56.24037 35.07679
#
# Poissons Ratio (x) = 0.19593 -0.01126
# Poissons Ratio (y) = 0.22243 -0.04040
# Poissons Ratio (z) = -0.02050 -0.06477
#
# Static dielectric constant tensor:
#      x y z
#    x 1.704270 0.000000 0.000000 
#    y 0.000000 1.663950 0.000000 
#    z 0.000000 0.000000 1.705080 
# 
# From -- ./inp_files/2866.got.cif
#   From: 2010.05.17/outbox.cif.g08.bks.cpg/sg61_2_cif.got.tgz:2866.got - 2010.06.03 15:17:17.
