data_PCOD9459211
_publ_section_title
;
Structure prediction by ZEFSAII (Michael W. Deem and Ramdas Pophale) SiO2 
 PCOD9459211
Probable space group: P B C A
;
_chemical_formula_sum "Si O2"
_cell_formula_units_Z 56
_cell_length_a 19.064582
_cell_length_b 26.058543
_cell_length_c 5.582031
_cell_angle_alpha 90.000000
_cell_angle_beta 90.000000
_cell_angle_gamma 90.000000
_cell_volume 2773.126374
_symmetry_space_group_name_H-M "P B C A"
_symmetry_group_IT_number 61
_symmetry_cell_setting 'orthorhombic'
loop_
_space_group_symop_operation_xyz
x,y,z
1/2-x,-y,1/2+z
1/2+x,1/2-y,-z
-x,1/2+y,1/2-z
-x,-y,-z
1/2+x,y,1/2-z
1/2-x,1/2+y,z
x,1/2-y,1/2+z
loop_
_atom_site_type_symbol
_atom_site_label
_atom_site_fract_x
_atom_site_fract_y
_atom_site_fract_z
Si Si1 0.667336 0.938121 0.279118
Si Si2 0.889275 0.615901 0.834426
Si Si3 0.281146 0.953180 0.874338
Si Si4 0.492304 0.032966 0.748115
Si Si5 0.738185 0.764210 0.893054
Si Si6 0.102114 0.274307 0.024558
Si Si7 0.730002 0.371976 0.006336
O O1 0.701231 0.945983 0.541185
O O2 0.584806 0.942095 0.261830
O O3 0.704918 0.888034 0.172944
O O4 0.696581 0.988442 0.142094
O O5 0.841953 0.643650 0.633932
O O6 0.951509 0.579115 0.752513
O O7 0.832660 0.577195 0.949461
O O8 0.910724 0.664417 0.995401
O O9 0.290565 0.923372 0.629933
O O10 0.500000 0.000000 0.500000
O O11 0.500000 0.000000 0.000000
O O12 0.703772 0.759779 0.157139
O O13 0.813868 0.737674 0.949060
O O14 0.748379 0.824564 0.843748
O O15 0.074889 0.247614 0.780275
#
# Coordination Sequence:
#
# PCOD9459211 Si02
#       7
#     8   8   8   8   8   8   8
#     4  11  24  38  59  90 128 168 213 260 312 384
#     4  11  23  38  65  93 125 172 210 264 322 378
#     4  11  21  37  61  90 125 165 214 254 317 376
#     4  12  28  45  63  89 133 172 219 261 318 384
#     4  10  19  35  56  92 125 149 201 265 312 362
#     4  10  19  34  60  93 124 150 208 266 312 360
#     4  11  22  36  64  92 126 165 209 267 323 368
#
# _framework density 20.193815000000001
#
# number of rings (size 3 to 8) (size 9 to 14) (size 15 to 20)
#    0.000    1.143    5.714    2.571    6.000    0.000 
#    0.000    0.000    0.000    1.714    0.000    0.000 
#    0.000    0.000    0.000    0.000    0.000    0.000 
#
# Total GULP energy -312033.283611 kJ/mol
# GULP energy per Si atom -5572.022922 kJ/mol
# Density = 2.014785 g / cm^3
# Si number density = 20.193815 Si / 1000 Ang^3
#
#
#
# Elastic Constant Matrix: (Units=GPa)
#
#
# Indices 1 2 3 4 5 6 
#
# 1 90.0223 12.9817 10.6934 0.0000 0.0000 0.0000
# 2 12.9817 109.8297 15.0329 0.0000 0.0000 0.0000
# 3 10.6934 15.0329 90.3437 0.0000 0.0000 0.0000
# 4 0.0000 0.0000 0.0000 19.3153 0.0000 0.0000
# 5 0.0000 0.0000 0.0000 0.0000 9.2427 0.0000
# 6 0.0000 0.0000 0.0000 0.0000 0.0000 13.5825
#
#
#
# Elastic Compliance Matrix: (Units=1/GPa)
#
#
# Indices 1 2 3 4 5 6 
#
# 1 0.011417 -0.001192 -0.001153 0.000000 0.000000 0.000000
# 2 -0.001192 0.009442 -0.001430 0.000000 0.000000 0.000000
# 3 -0.001153 -0.001430 0.011443 0.000000 0.000000 0.000000
# 4 0.000000 0.000000 0.000000 0.051772 0.000000 0.000000
# 5 0.000000 0.000000 0.000000 0.000000 0.108193 0.000000
# 6 0.000000 0.000000 0.000000 0.000000 0.000000 0.073624
#
#
# Mechanical properties :
#
#
# Convention : Reuss Voigt Hill
#
# Bulk Modulus (GPa) = 40.39991 40.84574 40.62282
# Shear Modulus (GPa) = 17.74985 25.19395 21.47190
#
# Velocity S-wave (km/s) = 2.96797 3.53598 3.26435
# Velocity P-wave (km/s) = 5.63867 6.07796 5.86243
#
# Compressibility (1/GPa) = 0.02475253
#
# Stress axis : x y z
#
# Youngs Moduli (GPa) = 87.58739 105.91436 87.38757
#
# Poissons Ratio (x) = 0.12621 0.10077
# Poissons Ratio (y) = 0.10437 0.12496
# Poissons Ratio (z) = 0.10100 0.15146
#
# Static dielectric constant tensor:
#      x y z
#    x 1.694420 0.000000 0.000000 
#    y 0.000000 1.722400 0.000000 
#    z 0.000000 0.000000 1.887910 
# 
# From -- ./inp_files/1048.got.cif
#   From: 2010.05.17/outbox.cif.g08.bks.cpg/sg61_1_cif.got.tgz:1048.got - 2010.06.03 15:17:17.
