data_PCOD9459036
_publ_section_title
;
Structure prediction by ZEFSAII (Michael W. Deem and Ramdas Pophale) SiO2 
 PCOD9459036
Probable space group: P B C A
;
_chemical_formula_sum "Si O2"
_cell_formula_units_Z 48
_cell_length_a 12.766161
_cell_length_b 24.924460
_cell_length_c 5.437819
_cell_angle_alpha 90.000000
_cell_angle_beta 90.000000
_cell_angle_gamma 90.000000
_cell_volume 1730.257829
_symmetry_space_group_name_H-M "P B C A"
_symmetry_group_IT_number 61
_symmetry_cell_setting 'orthorhombic'
loop_
_space_group_symop_operation_xyz
x,y,z
1/2-x,-y,1/2+z
1/2+x,1/2-y,-z
-x,1/2+y,1/2-z
-x,-y,-z
1/2+x,y,1/2-z
1/2-x,1/2+y,z
x,1/2-y,1/2+z
loop_
_atom_site_type_symbol
_atom_site_label
_atom_site_fract_x
_atom_site_fract_y
_atom_site_fract_z
Si Si1 0.374761 0.043227 0.107328
Si Si2 0.106744 0.596911 0.605685
Si Si3 0.139368 0.082414 0.589009
Si Si4 0.455837 0.219772 0.596528
Si Si5 0.290275 0.776826 0.419012
Si Si6 0.326009 0.887743 0.591822
O O1 0.421578 0.060227 0.369606
O O2 0.252775 0.061967 0.115754
O O3 0.380250 0.980381 0.059564
O O4 0.422936 0.074438 0.875235
O O5 0.234566 0.591459 0.610234
O O6 0.082793 0.659182 0.565526
O O7 0.113068 0.116766 0.347819
O O8 0.102655 0.101713 0.855886
O O9 0.425073 0.256536 0.363335
O O10 0.582693 0.220231 0.586585
O O11 0.263299 0.765544 0.134451
O O12 0.260135 0.834428 0.533353
#
# Coordination Sequence:
#
# PCOD9459036 Si02
#       6
#     8   8   8   8   8   8
#     4  10  19  33  53  76 105 134 160 200 253 302
#     4  10  18  32  53  76  98 133 171 200 245 301
#     4  10  19  33  53  76 105 134 160 200 253 302
#     4  10  21  37  54  72  99 135 171 208 249 292
#     4  10  21  37  54  72  99 135 171 208 249 292
#     4  10  18  32  53  76  98 133 171 200 245 301
#
# _framework density 27.741533
#
# number of rings (size 3 to 8) (size 9 to 14) (size 15 to 20)
#    0.000    2.000    0.000    7.000    0.000    0.000 
#    0.000   20.000    0.000   11.000    0.000    0.000 
#    0.000    0.000    0.000    0.000    0.000    0.000 
#
# Total GULP energy -269277.121827 kJ/mol
# GULP energy per Si atom -5609.940038 kJ/mol
# Density = 2.767839 g / cm^3
# Si number density = 27.741533 Si / 1000 Ang^3
#
#
#
# Elastic Constant Matrix: (Units=GPa)
#
#
# Indices 1 2 3 4 5 6 
#
# 1 58.9852 7.7277 15.0213 0.0000 0.0000 0.0000
# 2 7.7277 171.0085 75.6235 0.0000 0.0000 0.0000
# 3 15.0213 75.6235 268.6066 0.0000 0.0000 0.0000
# 4 0.0000 0.0000 0.0000 53.6683 0.0000 0.0000
# 5 0.0000 0.0000 0.0000 0.0000 55.2690 0.0000
# 6 0.0000 0.0000 0.0000 0.0000 0.0000 45.2504
#
#
#
# Elastic Compliance Matrix: (Units=1/GPa)
#
#
# Indices 1 2 3 4 5 6 
#
# 1 0.017223 -0.000402 -0.000850 0.000000 0.000000 0.000000
# 2 -0.000402 0.006689 -0.001861 0.000000 0.000000 0.000000
# 3 -0.000850 -0.001861 0.004294 0.000000 0.000000 0.000000
# 4 0.000000 0.000000 0.000000 0.018633 0.000000 0.000000
# 5 0.000000 0.000000 0.000000 0.000000 0.018093 0.000000
# 6 0.000000 0.000000 0.000000 0.000000 0.000000 0.022099
#
#
# Mechanical properties :
#
#
# Convention : Reuss Voigt Hill
#
# Bulk Modulus (GPa) = 45.49656 77.26059 61.37857
# Shear Modulus (GPa) = 49.70998 57.51939 53.61468
#
# Velocity S-wave (km/s) = 4.23767 4.55840 4.40096
# Velocity P-wave (km/s) = 6.35449 7.45761 6.92804
#
# Compressibility (1/GPa) = 0.02197969
#
# Stress axis : x y z
#
# Youngs Moduli (GPa) = 58.06337 149.50692 232.86794
#
# Poissons Ratio (x) = 0.06017 0.19790
# Poissons Ratio (y) = 0.02337 0.43328
# Poissons Ratio (z) = 0.04934 0.27818
#
# Static dielectric constant tensor:
#      x y z
#    x 2.369890 0.000000 0.000000 
#    y 0.000000 2.014790 0.000000 
#    z 0.000000 0.000000 2.235160 
# 
# From -- ./inp_files/745.got.cif
#   From: 2010.05.17/outbox.cif.g08.bks.cpg/sg61_1_cif.got.tgz:745.got - 2010.06.03 15:17:17.
