data_PCOD9459244
_publ_section_title
;
Structure prediction by ZEFSAII (Michael W. Deem and Ramdas Pophale) SiO2 
 PCOD9459244
Probable space group: P B C A
;
_chemical_formula_sum "Si O2"
_cell_formula_units_Z 64
_cell_length_a 7.671732
_cell_length_b 15.223183
_cell_length_c 21.747676
_cell_angle_alpha 90.000000
_cell_angle_beta 90.000000
_cell_angle_gamma 90.000000
_cell_volume 2539.871503
_symmetry_space_group_name_H-M "P B C A"
_symmetry_group_IT_number 61
_symmetry_cell_setting 'orthorhombic'
loop_
_space_group_symop_operation_xyz
x,y,z
1/2-x,-y,1/2+z
1/2+x,1/2-y,-z
-x,1/2+y,1/2-z
-x,-y,-z
1/2+x,y,1/2-z
1/2-x,1/2+y,z
x,1/2-y,1/2+z
loop_
_atom_site_type_symbol
_atom_site_label
_atom_site_fract_x
_atom_site_fract_y
_atom_site_fract_z
Si Si1 0.371559 0.416564 0.680474
Si Si2 0.778072 0.266895 0.597068
Si Si3 0.745251 0.877194 0.479856
Si Si4 0.553146 0.527644 0.589215
Si Si5 0.947421 0.472477 0.287932
Si Si6 0.306980 0.704330 0.098719
Si Si7 0.230070 0.862435 0.312654
Si Si8 0.346770 0.596884 0.980943
O O1 0.506448 0.442491 0.627751
O O2 0.464982 0.452319 0.742990
O O3 0.294074 0.321905 0.661261
O O4 0.200961 0.478499 0.674715
O O5 0.719523 0.339787 0.548154
O O6 0.725961 0.236881 0.666712
O O7 0.712891 0.181650 0.559008
O O8 0.985238 0.282795 0.604104
O O9 0.901213 0.934465 0.452892
O O10 0.735605 0.790663 0.435087
O O11 0.551764 0.916182 0.475710
O O12 0.580642 0.600889 0.642310
O O13 0.270993 0.476718 0.449831
O O14 0.103775 0.425397 0.322610
O O15 0.847506 0.392940 0.252390
O O16 0.292248 0.624147 0.049678
#
# Coordination Sequence:
#
# PCOD9459244 Si02
#       8
#     8   8   8   8   8   8   8   8
#     4  10  22  39  65  87 121 165 210 263 324 371
#     4   9  18  34  57  88 125 158 201 249 303 372
#     4  10  19  35  64  87 130 167 192 250 306 375
#     4  10  20  36  62  92 124 160 205 250 297 390
#     4   9  20  39  62  83 116 163 211 265 316 356
#     4  10  19  37  59  89 127 165 199 254 314 376
#     4   9  17  36  60  85 109 152 215 253 297 367
#     4   9  19  34  59  88 125 164 202 234 301 378
#
# _framework density 25.198126999999999
#
# number of rings (size 3 to 8) (size 9 to 14) (size 15 to 20)
#    0.000    2.500    2.500    0.000    5.250    0.500 
#    0.000    7.500    0.000    0.000    0.000    0.000 
#    0.000    0.000    0.000    0.000    0.000    0.000 
#
# Total GULP energy -357237.933549 kJ/mol
# GULP energy per Si atom -5581.842712 kJ/mol
# Density = 2.514078 g / cm^3
# Si number density = 25.198127 Si / 1000 Ang^3
#
#
#
# Elastic Constant Matrix: (Units=GPa)
#
#
# Indices 1 2 3 4 5 6 
#
# 1 51.1342 -2.6068 23.5059 0.0000 0.0000 0.0000
# 2 -2.6068 63.1215 30.3958 0.0000 0.0000 0.0000
# 3 23.5059 30.3958 69.3082 0.0000 0.0000 0.0000
# 4 0.0000 0.0000 0.0000 30.7605 0.0000 0.0000
# 5 0.0000 0.0000 0.0000 0.0000 32.2949 0.0000
# 6 0.0000 0.0000 0.0000 0.0000 0.0000 24.4834
#
#
#
# Elastic Compliance Matrix: (Units=1/GPa)
#
#
# Indices 1 2 3 4 5 6 
#
# 1 0.025118 0.006516 -0.011376 0.000000 0.000000 0.000000
# 2 0.006516 0.021774 -0.011759 0.000000 0.000000 0.000000
# 3 -0.011376 -0.011759 0.023444 0.000000 0.000000 0.000000
# 4 0.000000 0.000000 0.000000 0.032509 0.000000 0.000000
# 5 0.000000 0.000000 0.000000 0.000000 0.030965 0.000000
# 6 0.000000 0.000000 0.000000 0.000000 0.000000 0.040844
#
#
# Mechanical properties :
#
#
# Convention : Reuss Voigt Hill
#
# Bulk Modulus (GPa) = 26.95685 31.79483 29.37584
# Shear Modulus (GPa) = 22.70060 26.32568 24.51314
#
# Velocity S-wave (km/s) = 3.00473 3.23576 3.12238
# Velocity P-wave (km/s) = 4.77064 5.15806 4.96813
#
# Compressibility (1/GPa) = 0.03709632
#
# Stress axis : x y z
#
# Youngs Moduli (GPa) = 39.81192 45.92629 42.65559
#
# Poissons Ratio (x) = -0.29923 0.48526
# Poissons Ratio (y) = -0.25940 0.50159
# Poissons Ratio (z) = 0.45291 0.54005
#
# Static dielectric constant tensor:
#      x y z
#    x 1.951440 0.000000 0.000000 
#    y 0.000000 2.102340 0.000000 
#    z 0.000000 0.000000 2.037170 
# 
# From -- ./inp_files/10943.got.cif
#   From: 2010.05.17/outbox.cif.g08.bks.cpg/sg61_6_cif.got.tgz:10943.got - 2010.06.03 15:17:17.
