data_PCOD9459603
_publ_section_title
;
Structure prediction by ZEFSAII (Michael W. Deem and Ramdas Pophale) SiO2 
 PCOD9459603
Probable space group: P B C A
;
_chemical_formula_sum "Si O2"
_cell_formula_units_Z 64
_cell_length_a 8.452166
_cell_length_b 26.755525
_cell_length_c 10.995831
_cell_angle_alpha 90.000000
_cell_angle_beta 90.000000
_cell_angle_gamma 90.000000
_cell_volume 2486.620739
_symmetry_space_group_name_H-M "P B C A"
_symmetry_group_IT_number 61
_symmetry_cell_setting 'orthorhombic'
loop_
_space_group_symop_operation_xyz
x,y,z
1/2-x,-y,1/2+z
1/2+x,1/2-y,-z
-x,1/2+y,1/2-z
-x,-y,-z
1/2+x,y,1/2-z
1/2-x,1/2+y,z
x,1/2-y,1/2+z
loop_
_atom_site_type_symbol
_atom_site_label
_atom_site_fract_x
_atom_site_fract_y
_atom_site_fract_z
Si Si1 0.819525 0.877840 0.838996
Si Si2 0.410040 0.397100 0.325427
Si Si3 0.033261 0.754292 0.518280
Si Si4 0.236255 0.916416 0.077703
Si Si5 0.057563 0.950085 0.717806
Si Si6 0.245375 0.323008 0.906762
Si Si7 0.798656 0.681541 0.559741
Si Si8 0.781662 0.002918 0.592665
O O1 0.649948 0.904470 0.843707
O O2 0.810625 0.837478 0.728913
O O3 0.935958 0.921985 0.804015
O O4 0.868103 0.858376 0.968934
O O5 0.590495 0.403703 0.366265
O O6 0.390018 0.408792 0.183593
O O7 0.324779 0.343946 0.350233
O O8 0.306573 0.438488 0.397401
O O9 0.106700 0.716227 0.414925
O O10 0.191685 0.786010 0.535887
O O11 0.896420 0.796737 0.515679
O O12 0.942195 0.715520 0.608018
O O13 0.219630 0.876237 0.969343
O O14 0.225837 0.972678 0.025497
O O15 0.167824 0.985416 0.797737
O O16 0.953605 0.979986 0.622887
#
# Coordination Sequence:
#
# PCOD9459603 Si02
#       8
#     8   8   8   8   8   8   8   8
#     4  11  21  40  76  98 139 183 239 302 361 419
#     4  12  28  47  74 105 148 203 234 297 375 428
#     4  10  24  45  68  98 140 187 239 302 367 432
#     4  12  26  50  73 103 155 193 240 300 362 442
#     4  10  20  38  71 105 136 187 228 287 356 411
#     4  11  22  48  68 106 142 185 243 308 374 433
#     4  11  24  46  67 103 138 184 250 295 364 441
#     4  11  24  46  72 109 149 188 246 291 356 443
#
# _framework density 25.737742999999998
#
# number of rings (size 3 to 8) (size 9 to 14) (size 15 to 20)
#    0.000    1.000    3.750    3.375    1.750    2.000 
#   13.500    1.875    0.000    0.000    0.000    0.000 
#    0.000    0.000    0.000    0.000    0.000    0.000 
#
# Total GULP energy -357726.423524 kJ/mol
# GULP energy per Si atom -5589.475368 kJ/mol
# Density = 2.567916 g / cm^3
# Si number density = 25.737743 Si / 1000 Ang^3
#
#
#
# Elastic Constant Matrix: (Units=GPa)
#
#
# Indices 1 2 3 4 5 6 
#
# 1 81.3358 21.8488 17.3872 0.0000 0.0000 0.0000
# 2 21.8488 81.0769 7.1021 0.0000 0.0000 0.0000
# 3 17.3872 7.1021 82.5874 0.0000 0.0000 0.0000
# 4 0.0000 0.0000 0.0000 11.7652 0.0000 0.0000
# 5 0.0000 0.0000 0.0000 0.0000 26.3482 0.0000
# 6 0.0000 0.0000 0.0000 0.0000 0.0000 47.4019
#
#
#
# Elastic Compliance Matrix: (Units=1/GPa)
#
#
# Indices 1 2 3 4 5 6 
#
# 1 0.013788 -0.003488 -0.002603 0.000000 0.000000 0.000000
# 2 -0.003488 0.013310 -0.000410 0.000000 0.000000 0.000000
# 3 -0.002603 -0.000410 0.012692 0.000000 0.000000 0.000000
# 4 0.000000 0.000000 0.000000 0.084996 0.000000 0.000000
# 5 0.000000 0.000000 0.000000 0.000000 0.037953 0.000000
# 6 0.000000 0.000000 0.000000 0.000000 0.000000 0.021096
#
#
# Mechanical properties :
#
#
# Convention : Reuss Voigt Hill
#
# Bulk Modulus (GPa) = 37.33046 37.51959 37.42502
# Shear Modulus (GPa) = 24.29944 30.34720 27.32332
#
# Velocity S-wave (km/s) = 3.07598 3.43752 3.26176
# Velocity P-wave (km/s) = 5.21068 5.51041 5.36264
#
# Compressibility (1/GPa) = 0.02678777
#
# Stress axis : x y z
#
# Youngs Moduli (GPa) = 72.52693 75.13283 78.79189
#
# Poissons Ratio (x) = 0.26203 0.20509
# Poissons Ratio (y) = 0.25295 0.03233
# Poissons Ratio (z) = 0.18878 0.03083
#
# Static dielectric constant tensor:
#      x y z
#    x 2.043030 0.000000 0.000000 
#    y 0.000000 2.097330 0.000000 
#    z 0.000000 0.000000 2.011300 
# 
# From -- ./inp_files/4949.got.cif
#   From: 2010.05.17/outbox.cif.g08.bks.cpg/sg61_3_cif.got.tgz:4949.got - 2010.06.03 15:17:17.
