data_PCOD9459745
_publ_section_title
;
Structure prediction by ZEFSAII (Michael W. Deem and Ramdas Pophale) SiO2 
 PCOD9459745
Probable space group: P B C A
;
_chemical_formula_sum "Si O2"
_cell_formula_units_Z 56
_cell_length_a 29.503305
_cell_length_b 5.071732
_cell_length_c 14.544648
_cell_angle_alpha 90.000000
_cell_angle_beta 90.000000
_cell_angle_gamma 90.000000
_cell_volume 2176.357221
_symmetry_space_group_name_H-M "P B C A"
_symmetry_group_IT_number 61
_symmetry_cell_setting 'orthorhombic'
loop_
_space_group_symop_operation_xyz
x,y,z
1/2-x,-y,1/2+z
1/2+x,1/2-y,-z
-x,1/2+y,1/2-z
-x,-y,-z
1/2+x,y,1/2-z
1/2-x,1/2+y,z
x,1/2-y,1/2+z
loop_
_atom_site_type_symbol
_atom_site_label
_atom_site_fract_x
_atom_site_fract_y
_atom_site_fract_z
Si Si1 0.608165 0.762679 0.220326
Si Si2 0.646274 0.476701 0.377396
Si Si3 0.278302 0.855031 0.686696
Si Si4 0.986509 0.001997 0.196647
Si Si5 0.572741 0.099268 0.394187
Si Si6 0.219788 0.248480 0.404461
Si Si7 0.858087 0.359450 0.533391
O O1 0.646484 0.615557 0.279013
O O2 0.565991 0.574936 0.192998
O O3 0.630014 0.820553 0.122205
O O4 0.589835 0.969726 0.296427
O O5 0.676722 0.219970 0.367619
O O6 0.594038 0.390880 0.392885
O O7 0.661799 0.663725 0.457585
O O8 0.259336 0.137883 0.663433
O O9 0.285790 0.803041 0.794791
O O10 0.018835 0.076125 0.111451
O O11 0.005300 0.199521 0.276473
O O12 0.596839 0.965997 0.481140
O O13 0.241770 0.966711 0.430511
O O14 0.173884 0.397051 0.437000
#
# Coordination Sequence:
#
# PCOD9459745 Si02
#       7
#     8   8   8   8   8   8   8
#     4  10  22  43  68  93 134 182 215 276 339 396
#     4  11  23  42  65  96 134 171 227 274 333 403
#     4  10  23  41  68  94 127 176 225 274 333 398
#     4  10  20  42  70  97 133 182 226 270 337 399
#     4  10  24  41  67  99 133 174 227 277 332 407
#     4  10  23  42  64  94 130 174 222 271 332 405
#     4  11  25  41  65 102 132 175 222 279 338 406
#
# _framework density 25.731071
#
# number of rings (size 3 to 8) (size 9 to 14) (size 15 to 20)
#    0.000    1.714    2.857    0.000    6.000    4.000 
#    0.000    0.714    0.000    0.000    0.000    0.000 
#    0.000    0.000    0.000    0.000    0.000    0.000 
#
# Total GULP energy -313262.201979 kJ/mol
# GULP energy per Si atom -5593.967892 kJ/mol
# Density = 2.567251 g / cm^3
# Si number density = 25.731071 Si / 1000 Ang^3
#
#
#
# Elastic Constant Matrix: (Units=GPa)
#
#
# Indices 1 2 3 4 5 6 
#
# 1 69.7026 5.1074 28.9702 0.0000 0.0000 0.0000
# 2 5.1074 73.8279 27.3113 0.0000 0.0000 0.0000
# 3 28.9702 27.3113 145.7830 0.0000 0.0000 0.0000
# 4 0.0000 0.0000 0.0000 24.6580 0.0000 0.0000
# 5 0.0000 0.0000 0.0000 0.0000 31.3073 0.0000
# 6 0.0000 0.0000 0.0000 0.0000 0.0000 45.0666
#
#
#
# Elastic Compliance Matrix: (Units=1/GPa)
#
#
# Indices 1 2 3 4 5 6 
#
# 1 0.015639 0.000073 -0.003121 0.000000 0.000000 0.000000
# 2 0.000073 0.014554 -0.002741 0.000000 0.000000 0.000000
# 3 -0.003121 -0.002741 0.007993 0.000000 0.000000 0.000000
# 4 0.000000 0.000000 0.000000 0.040555 0.000000 0.000000
# 5 0.000000 0.000000 0.000000 0.000000 0.031941 0.000000
# 6 0.000000 0.000000 0.000000 0.000000 0.000000 0.022189
#
#
# Mechanical properties :
#
#
# Convention : Reuss Voigt Hill
#
# Bulk Modulus (GPa) = 37.58445 45.78791 41.68618
# Shear Modulus (GPa) = 32.61160 35.40136 34.00648
#
# Velocity S-wave (km/s) = 3.56392 3.71323 3.63934
# Velocity P-wave (km/s) = 5.61905 6.01810 5.82200
#
# Compressibility (1/GPa) = 0.02660675
#
# Stress axis : x y z
#
# Youngs Moduli (GPa) = 63.94410 68.70968 125.10462
#
# Poissons Ratio (x) = -0.00500 0.39050
# Poissons Ratio (y) = -0.00466 0.34292
# Poissons Ratio (z) = 0.19959 0.18834
#
# Static dielectric constant tensor:
#      x y z
#    x 2.044710 0.000000 0.000000 
#    y 0.000000 2.045560 0.000000 
#    z 0.000000 0.000000 2.010850 
# 
# From -- ./inp_files/595.got.cif
#   From: 2010.05.17/outbox.cif.g08.bks.cpg/sg61_1_cif.got.tgz:595.got - 2010.06.03 15:17:17.
