data_PCOD9459909
_publ_section_title
;
Structure prediction by ZEFSAII (Michael W. Deem and Ramdas Pophale) SiO2 
 PCOD9459909
Probable space group: P B C A
;
_chemical_formula_sum "Si O2"
_cell_formula_units_Z 40
_cell_length_a 14.527429
_cell_length_b 9.420211
_cell_length_c 15.103502
_cell_angle_alpha 90.000000
_cell_angle_beta 90.000000
_cell_angle_gamma 90.000000
_cell_volume 2066.936095
_symmetry_space_group_name_H-M "P B C A"
_symmetry_group_IT_number 61
_symmetry_cell_setting 'orthorhombic'
loop_
_space_group_symop_operation_xyz
x,y,z
1/2-x,-y,1/2+z
1/2+x,1/2-y,-z
-x,1/2+y,1/2-z
-x,-y,-z
1/2+x,y,1/2-z
1/2-x,1/2+y,z
x,1/2-y,1/2+z
loop_
_atom_site_type_symbol
_atom_site_label
_atom_site_fract_x
_atom_site_fract_y
_atom_site_fract_z
Si Si1 0.445295 0.344497 0.158469
Si Si2 0.333611 0.257243 0.329064
Si Si3 0.843401 0.577033 0.640722
Si Si4 0.536528 0.657217 0.516210
Si Si5 0.085079 0.089546 0.044348
O O1 0.398808 0.287483 0.246050
O O2 0.553678 0.379030 0.170564
O O3 0.394973 0.490962 0.127723
O O4 0.439388 0.232066 0.077508
O O5 0.234086 0.326523 0.316072
O O6 0.379605 0.328993 0.415707
O O7 0.328217 0.088835 0.342763
O O8 0.841478 0.598133 0.533791
O O9 0.500000 0.500000 0.500000
O O10 0.456406 0.755811 0.559660
O O11 0.000000 0.000000 0.000000
#
# Coordination Sequence:
#
# PCOD9459909 Si02
#       5
#     8   8   8   8   8
#     4  10  22  45  65  87 132 177 209 262 326 377
#     4  12  24  41  65  97 131 164 221 265 319 387
#     4  10  23  42  61  93 127 168 211 267 319 380
#     4  10  21  38  66  94 118 164 216 261 317 382
#     4   8  16  43  63  79 122 168 202 256 320 368
#
# _framework density 19.352315000000001
#
# number of rings (size 3 to 8) (size 9 to 14) (size 15 to 20)
#    0.000    2.400    6.000    0.000    8.400    0.000 
#    3.600    2.000    0.000    0.000    0.000    0.000 
#    0.000    0.000    0.000    0.000    0.000    0.000 
#
# Total GULP energy -223061.352558 kJ/mol
# GULP energy per Si atom -5576.533814 kJ/mol
# Density = 1.930827 g / cm^3
# Si number density = 19.352315 Si / 1000 Ang^3
#
#
#
# Elastic Constant Matrix: (Units=GPa)
#
#
# Indices 1 2 3 4 5 6 
#
# 1 73.9691 13.8550 47.8749 0.0000 0.0000 0.0000
# 2 13.8550 64.8837 16.7870 0.0000 0.0000 0.0000
# 3 47.8749 16.7870 56.8675 0.0000 0.0000 0.0000
# 4 0.0000 0.0000 0.0000 12.8984 0.0000 0.0000
# 5 0.0000 0.0000 0.0000 0.0000 21.7559 0.0000
# 6 0.0000 0.0000 0.0000 0.0000 0.0000 19.5284
#
#
#
# Elastic Compliance Matrix: (Units=1/GPa)
#
#
# Indices 1 2 3 4 5 6 
#
# 1 0.029706 0.000138 -0.025049 0.000000 0.000000 0.000000
# 2 0.000138 0.016687 -0.005042 0.000000 0.000000 0.000000
# 3 -0.025049 -0.005042 0.040161 0.000000 0.000000 0.000000
# 4 0.000000 0.000000 0.000000 0.077529 0.000000 0.000000
# 5 0.000000 0.000000 0.000000 0.000000 0.045965 0.000000
# 6 0.000000 0.000000 0.000000 0.000000 0.000000 0.051207
#
#
# Mechanical properties :
#
#
# Convention : Reuss Voigt Hill
#
# Bulk Modulus (GPa) = 37.52683 39.19490 38.36087
# Shear Modulus (GPa) = 15.14949 18.65011 16.89980
#
# Velocity S-wave (km/s) = 2.80094 3.10774 2.95832
# Velocity P-wave (km/s) = 5.46752 5.75975 5.61554
#
# Compressibility (1/GPa) = 0.02664760
#
# Stress axis : x y z
#
# Youngs Moduli (GPa) = 33.66337 59.92601 24.89972
#
# Poissons Ratio (x) = -0.00824 0.62371
# Poissons Ratio (y) = -0.00463 0.12554
# Poissons Ratio (z) = 0.84324 0.30213
#
# Static dielectric constant tensor:
#      x y z
#    x 1.715680 0.000000 0.000000 
#    y 0.000000 1.684090 0.000000 
#    z 0.000000 0.000000 1.722450 
# 
# From -- ./inp_files/7716.got.cif
#   From: 2010.05.17/outbox.cif.g08.bks.cpg/sg61_4_cif.got.tgz:7716.got - 2010.06.03 15:17:17.
