data_PCOD9459791
_publ_section_title
;
Structure prediction by ZEFSAII (Michael W. Deem and Ramdas Pophale) SiO2 
 PCOD9459791
Probable space group: P B C A
;
_chemical_formula_sum "Si O2"
_cell_formula_units_Z 56
_cell_length_a 29.535875
_cell_length_b 16.612776
_cell_length_c 5.204992
_cell_angle_alpha 90.000000
_cell_angle_beta 90.000000
_cell_angle_gamma 90.000000
_cell_volume 2553.948391
_symmetry_space_group_name_H-M "P B C A"
_symmetry_group_IT_number 61
_symmetry_cell_setting 'orthorhombic'
loop_
_space_group_symop_operation_xyz
x,y,z
1/2-x,-y,1/2+z
1/2+x,1/2-y,-z
-x,1/2+y,1/2-z
-x,-y,-z
1/2+x,y,1/2-z
1/2-x,1/2+y,z
x,1/2-y,1/2+z
loop_
_atom_site_type_symbol
_atom_site_label
_atom_site_fract_x
_atom_site_fract_y
_atom_site_fract_z
Si Si1 0.483442 0.601238 0.743625
Si Si2 0.280963 0.984856 0.018195
Si Si3 0.443177 0.954682 0.739696
Si Si4 0.566625 0.702258 0.668781
Si Si5 0.363760 0.067401 0.774412
Si Si6 0.789061 0.800428 0.518774
Si Si7 0.820141 0.199965 0.038849
O O1 0.520105 0.527980 0.764238
O O2 0.447782 0.581282 0.522502
O O3 0.514692 0.674567 0.657172
O O4 0.459376 0.605476 0.017848
O O5 0.300917 0.894187 0.012424
O O6 0.245503 0.997063 0.782080
O O7 0.322540 0.044286 0.958837
O O8 0.393772 0.991374 0.691327
O O9 0.574194 0.771858 0.462919
O O10 0.599549 0.628219 0.603942
O O11 0.341948 0.115551 0.536939
O O12 0.802932 0.744297 0.280194
O O13 0.734133 0.805343 0.526144
O O14 0.832542 0.261638 0.809344
#
# Coordination Sequence:
#
# PCOD9459791 Si02
#       7
#     8   8   8   8   8   8   8
#     4   9  18  36  57  83 119 155 199 232 298 388
#     4  12  26  42  63  94 127 172 229 280 325 386
#     4   9  19  34  58  84 113 159 196 249 304 361
#     4  11  23  39  63  97 134 167 199 254 330 401
#     4  11  24  39  61  94 133 162 215 276 320 376
#     4  10  21  41  62  82 114 166 215 261 323 387
#     4  10  21  35  56  84 122 163 200 252 324 387
#
# _framework density 21.926831
#
# number of rings (size 3 to 8) (size 9 to 14) (size 15 to 20)
#    0.000    1.714    1.429    2.571    4.000    6.857 
#    0.000    0.000    0.000    5.143    0.000    0.000 
#    0.000    0.000    0.000    0.000    0.000    0.000 
#
# Total GULP energy -313061.602260 kJ/mol
# GULP energy per Si atom -5590.385755 kJ/mol
# Density = 2.187692 g / cm^3
# Si number density = 21.926831 Si / 1000 Ang^3
#
#
#
# Elastic Constant Matrix: (Units=GPa)
#
#
# Indices 1 2 3 4 5 6 
#
# 1 48.8661 9.9454 10.7781 0.0000 0.0000 0.0000
# 2 9.9454 66.7564 18.9943 0.0000 0.0000 0.0000
# 3 10.7781 18.9943 97.0359 0.0000 0.0000 0.0000
# 4 0.0000 0.0000 0.0000 27.0136 0.0000 0.0000
# 5 0.0000 0.0000 0.0000 0.0000 13.4675 0.0000
# 6 0.0000 0.0000 0.0000 0.0000 0.0000 39.0486
#
#
#
# Elastic Compliance Matrix: (Units=1/GPa)
#
#
# Indices 1 2 3 4 5 6 
#
# 1 0.021416 -0.002662 -0.001858 0.000000 0.000000 0.000000
# 2 -0.002662 0.016194 -0.002874 0.000000 0.000000 0.000000
# 3 -0.001858 -0.002874 0.011074 0.000000 0.000000 0.000000
# 4 0.000000 0.000000 0.000000 0.037018 0.000000 0.000000
# 5 0.000000 0.000000 0.000000 0.000000 0.074253 0.000000
# 6 0.000000 0.000000 0.000000 0.000000 0.000000 0.025609
#
#
# Mechanical properties :
#
#
# Convention : Reuss Voigt Hill
#
# Bulk Modulus (GPa) = 29.50158 32.45491 30.97824
# Shear Modulus (GPa) = 23.62380 27.43533 25.52957
#
# Velocity S-wave (km/s) = 3.28593 3.54110 3.41590
# Velocity P-wave (km/s) = 5.28017 5.61718 5.45128
#
# Compressibility (1/GPa) = 0.03389650
#
# Stress axis : x y z
#
# Youngs Moduli (GPa) = 46.69500 61.75042 90.29815
#
# Poissons Ratio (x) = 0.16438 0.16774
# Poissons Ratio (y) = 0.12430 0.25954
# Poissons Ratio (z) = 0.08674 0.17749
#
# Static dielectric constant tensor:
#      x y z
#    x 1.809720 0.000000 0.000000 
#    y 0.000000 1.852830 0.000000 
#    z 0.000000 0.000000 1.766200 
# 
# From -- ./inp_files/1467.got.cif
#   From: 2010.05.17/outbox.cif.g08.bks.cpg/sg61_1_cif.got.tgz:1467.got - 2010.06.03 15:17:17.
