data_PCOD9459656
_publ_section_title
;
Structure prediction by ZEFSAII (Michael W. Deem and Ramdas Pophale) SiO2 
 PCOD9459656
Probable space group: P B C A
;
_chemical_formula_sum "Si O2"
_cell_formula_units_Z 64
_cell_length_a 22.353756
_cell_length_b 8.984017
_cell_length_c 15.144343
_cell_angle_alpha 90.000000
_cell_angle_beta 90.000000
_cell_angle_gamma 90.000000
_cell_volume 3041.385762
_symmetry_space_group_name_H-M "P B C A"
_symmetry_group_IT_number 61
_symmetry_cell_setting 'orthorhombic'
loop_
_space_group_symop_operation_xyz
x,y,z
1/2-x,-y,1/2+z
1/2+x,1/2-y,-z
-x,1/2+y,1/2-z
-x,-y,-z
1/2+x,y,1/2-z
1/2-x,1/2+y,z
x,1/2-y,1/2+z
loop_
_atom_site_type_symbol
_atom_site_label
_atom_site_fract_x
_atom_site_fract_y
_atom_site_fract_z
Si Si1 0.114551 0.063785 0.403589
Si Si2 0.729895 0.176970 0.172417
Si Si3 0.922435 0.256952 0.005873
Si Si4 0.329581 0.979968 0.261480
Si Si5 0.789440 0.249922 0.484305
Si Si6 0.818481 0.917477 0.430641
Si Si7 0.044840 0.933452 0.836921
Si Si8 0.000305 0.234962 0.334736
O O1 0.174742 0.063926 0.345104
O O2 0.136174 0.142075 0.495130
O O3 0.063289 0.155686 0.355750
O O4 0.091556 0.902023 0.433617
O O5 0.700317 0.330304 0.202152
O O6 0.778546 0.105797 0.236794
O O7 0.763984 0.207762 0.080336
O O8 0.958662 0.144738 0.068028
O O9 0.857400 0.193239 0.977866
O O10 0.957396 0.300351 0.917613
O O11 0.385562 0.029088 0.319335
O O12 0.349691 0.948474 0.161712
O O13 0.739780 0.316172 0.419192
O O14 0.794566 0.073954 0.469157
O O15 0.024120 0.826398 0.757667
O O16 0.009363 0.087877 0.831943
#
# Coordination Sequence:
#
# PCOD9459656 Si02
#       8
#     8   8   8   8   8   8   8   8
#     4  10  22  44  66  94 130 180 221 272 351 415
#     4  11  22  40  69  93 138 171 219 277 354 410
#     4  11  23  43  71  97 132 185 226 287 347 406
#     4  12  23  41  64 102 133 174 222 290 339 415
#     4  10  20  40  60  96 125 173 214 268 340 413
#     4  10  22  36  63  92 131 168 217 271 345 404
#     4  12  26  45  69 100 141 181 240 290 340 413
#     4  12  26  47  68  99 138 184 237 285 340 410
#
# _framework density 21.043039
#
# number of rings (size 3 to 8) (size 9 to 14) (size 15 to 20)
#    0.000    1.000    2.500    6.000    0.000    1.000 
#    2.250    0.000    0.000    0.000    0.000    0.000 
#    0.000    0.000    0.000    0.000    0.000    0.000 
#
# Total GULP energy -357767.198676 kJ/mol
# GULP energy per Si atom -5590.112479 kJ/mol
# Density = 2.099514 g / cm^3
# Si number density = 21.043039 Si / 1000 Ang^3
#
#
#
# Elastic Constant Matrix: (Units=GPa)
#
#
# Indices 1 2 3 4 5 6 
#
# 1 58.5996 1.4712 1.5639 0.0000 0.0000 0.0000
# 2 1.4712 51.9148 -19.6549 0.0000 0.0000 0.0000
# 3 1.5639 -19.6549 38.9453 0.0000 0.0000 0.0000
# 4 0.0000 0.0000 0.0000 17.8780 0.0000 0.0000
# 5 0.0000 0.0000 0.0000 0.0000 20.6470 0.0000
# 6 0.0000 0.0000 0.0000 0.0000 0.0000 30.9808
#
#
#
# Elastic Compliance Matrix: (Units=1/GPa)
#
#
# Indices 1 2 3 4 5 6 
#
# 1 0.017119 -0.000921 -0.001152 0.000000 0.000000 0.000000
# 2 -0.000921 0.023862 0.012080 0.000000 0.000000 0.000000
# 3 -0.001152 0.012080 0.031820 0.000000 0.000000 0.000000
# 4 0.000000 0.000000 0.000000 0.055935 0.000000 0.000000
# 5 0.000000 0.000000 0.000000 0.000000 0.048433 0.000000
# 6 0.000000 0.000000 0.000000 0.000000 0.000000 0.032278
#
#
# Mechanical properties :
#
#
# Convention : Reuss Voigt Hill
#
# Bulk Modulus (GPa) = 10.77454 12.91336 11.84395
# Shear Modulus (GPa) = 22.68892 24.97314 23.83103
#
# Velocity S-wave (km/s) = 3.28718 3.44868 3.36890
# Velocity P-wave (km/s) = 4.42027 4.69125 4.55777
#
# Compressibility (1/GPa) = 0.09281135
#
# Stress axis : x y z
#
# Youngs Moduli (GPa) = 58.41517 41.90812 31.42717
#
# Poissons Ratio (x) = 0.03862 0.03622
# Poissons Ratio (y) = 0.05383 -0.37962
# Poissons Ratio (z) = 0.06732 -0.50623
#
# Static dielectric constant tensor:
#      x y z
#    x 1.767910 0.000000 0.000000 
#    y 0.000000 1.751370 0.000000 
#    z 0.000000 0.000000 1.749340 
# 
# From -- ./inp_files/8502.got.cif
#   From: 2010.05.17/outbox.cif.g08.bks.cpg/sg61_5_cif.got.tgz:8502.got - 2010.06.03 15:17:17.
