data_PCOD9459404
_publ_section_title
;
Structure prediction by ZEFSAII (Michael W. Deem and Ramdas Pophale) SiO2 
 PCOD9459404
Probable space group: P B C A
;
_chemical_formula_sum "Si O2"
_cell_formula_units_Z 48
_cell_length_a 8.384164
_cell_length_b 14.337458
_cell_length_c 17.227117
_cell_angle_alpha 90.000000
_cell_angle_beta 90.000000
_cell_angle_gamma 90.000000
_cell_volume 2070.830376
_symmetry_space_group_name_H-M "P B C A"
_symmetry_group_IT_number 61
_symmetry_cell_setting 'orthorhombic'
loop_
_space_group_symop_operation_xyz
x,y,z
1/2-x,-y,1/2+z
1/2+x,1/2-y,-z
-x,1/2+y,1/2-z
-x,-y,-z
1/2+x,y,1/2-z
1/2-x,1/2+y,z
x,1/2-y,1/2+z
loop_
_atom_site_type_symbol
_atom_site_label
_atom_site_fract_x
_atom_site_fract_y
_atom_site_fract_z
Si Si1 0.300920 0.409635 0.219999
Si Si2 0.351747 0.708147 0.496740
Si Si3 0.737600 0.988469 0.537149
Si Si4 0.396894 0.859685 0.364902
Si Si5 0.327821 0.147478 0.072742
Si Si6 0.995482 0.482461 0.832640
O O1 0.428743 0.352230 0.171700
O O2 0.230762 0.359420 0.295755
O O3 0.396390 0.498802 0.257159
O O4 0.146532 0.443346 0.173816
O O5 0.234488 0.620186 0.484234
O O6 0.348923 0.781121 0.425549
O O7 0.298589 0.769505 0.569950
O O8 0.533350 0.673648 0.489720
O O9 0.895182 0.996490 0.591686
O O10 0.607956 0.039877 0.590867
O O11 0.751827 0.053288 0.462014
O O12 0.414109 0.117734 0.152194
#
# Coordination Sequence:
#
# PCOD9459404 Si02
#       6
#     8   8   8   8   8   8
#     4   9  18  34  55  77 108 146 181 218 259 314
#     4  10  20  35  54  82 109 134 177 223 268 321
#     4   9  19  37  58  79 108 140 174 225 272 317
#     4   9  19  35  55  79 108 141 178 219 264 312
#     4  10  21  36  57  82 108 140 176 223 276 321
#     4   9  17  33  55  77 105 145 178 212 268 317
#
# _framework density 23.179109
#
# number of rings (size 3 to 8) (size 9 to 14) (size 15 to 20)
#    0.000    2.667    0.000    2.000    0.000    4.000 
#    0.000   18.333    0.000    0.000    0.000    0.000 
#    0.000    0.000    0.000    0.000    0.000    0.000 
#
# Total GULP energy -267925.506054 kJ/mol
# GULP energy per Si atom -5581.781376 kJ/mol
# Density = 2.312635 g / cm^3
# Si number density = 23.179109 Si / 1000 Ang^3
#
#
#
# Elastic Constant Matrix: (Units=GPa)
#
#
# Indices 1 2 3 4 5 6 
#
# 1 57.2214 10.4321 4.6171 0.0000 0.0000 0.0000
# 2 10.4321 111.4404 16.0488 0.0000 0.0000 0.0000
# 3 4.6171 16.0488 49.0306 0.0000 0.0000 0.0000
# 4 0.0000 0.0000 0.0000 34.3761 0.0000 0.0000
# 5 0.0000 0.0000 0.0000 0.0000 22.5696 0.0000
# 6 0.0000 0.0000 0.0000 0.0000 0.0000 28.6790
#
#
#
# Elastic Compliance Matrix: (Units=1/GPa)
#
#
# Indices 1 2 3 4 5 6 
#
# 1 0.017845 -0.001499 -0.001190 0.000000 0.000000 0.000000
# 2 -0.001499 0.009543 -0.002983 0.000000 0.000000 0.000000
# 3 -0.001190 -0.002983 0.021484 0.000000 0.000000 0.000000
# 4 0.000000 0.000000 0.000000 0.029090 0.000000 0.000000
# 5 0.000000 0.000000 0.000000 0.000000 0.044307 0.000000
# 6 0.000000 0.000000 0.000000 0.000000 0.000000 0.034869
#
#
# Mechanical properties :
#
#
# Convention : Reuss Voigt Hill
#
# Bulk Modulus (GPa) = 26.64579 31.09870 28.87225
# Shear Modulus (GPa) = 27.62566 29.56457 28.59511
#
# Velocity S-wave (km/s) = 3.45604 3.57527 3.51616
# Velocity P-wave (km/s) = 5.23891 5.52170 5.38216
#
# Compressibility (1/GPa) = 0.03752938
#
# Stress axis : x y z
#
# Youngs Moduli (GPa) = 56.03716 104.78586 46.54685
#
# Poissons Ratio (x) = 0.15709 0.05538
# Poissons Ratio (y) = 0.08401 0.13883
# Poissons Ratio (z) = 0.06667 0.31253
#
# Static dielectric constant tensor:
#      x y z
#    x 1.912570 0.000000 0.000000 
#    y 0.000000 1.920180 0.000000 
#    z 0.000000 0.000000 1.872840 
# 
# From -- ./inp_files/2912.got.cif
#   From: 2010.05.17/outbox.cif.g08.bks.cpg/sg61_2_cif.got.tgz:2912.got - 2010.06.03 15:17:17.
