data_PCOD9459662
_publ_section_title
;
Structure prediction by ZEFSAII (Michael W. Deem and Ramdas Pophale) SiO2 
 PCOD9459662
Probable space group: P B C A
;
_chemical_formula_sum "Si O2"
_cell_formula_units_Z 56
_cell_length_a 15.305064
_cell_length_b 13.758513
_cell_length_c 13.084201
_cell_angle_alpha 90.000000
_cell_angle_beta 90.000000
_cell_angle_gamma 90.000000
_cell_volume 2755.204605
_symmetry_space_group_name_H-M "P B C A"
_symmetry_group_IT_number 61
_symmetry_cell_setting 'orthorhombic'
loop_
_space_group_symop_operation_xyz
x,y,z
1/2-x,-y,1/2+z
1/2+x,1/2-y,-z
-x,1/2+y,1/2-z
-x,-y,-z
1/2+x,y,1/2-z
1/2-x,1/2+y,z
x,1/2-y,1/2+z
loop_
_atom_site_type_symbol
_atom_site_label
_atom_site_fract_x
_atom_site_fract_y
_atom_site_fract_z
Si Si1 0.867138 0.868958 0.295491
Si Si2 0.557675 0.070591 0.597988
Si Si3 0.865811 0.231218 0.480483
Si Si4 0.734596 0.223014 0.159477
Si Si5 0.073578 0.228231 0.494903
Si Si6 0.782549 0.427012 0.830876
Si Si7 0.865404 0.456672 0.446156
O O1 0.938003 0.875467 0.205708
O O2 0.791182 0.808662 0.238647
O O3 0.895343 0.814242 0.397373
O O4 0.845953 0.981306 0.315608
O O5 0.572705 0.155276 0.514761
O O6 0.463025 0.024984 0.592583
O O7 0.629503 0.991228 0.564992
O O8 0.813380 0.238617 0.587811
O O9 0.820755 0.152160 0.408816
O O10 0.852694 0.341246 0.438701
O O11 0.969655 0.205898 0.483015
O O12 0.648628 0.199736 0.088642
O O13 0.759101 0.130347 0.227802
O O14 0.700635 0.479580 0.883096
#
# Coordination Sequence:
#
# PCOD9459662 Si02
#       7
#     8   8   8   8   8   8   8
#     4  11  23  39  61  92 125 164 214 260 318 384
#     4   9  20  39  65  89 117 164 212 261 317 378
#     4  11  25  43  65  94 129 168 214 269 328 387
#     4  11  23  41  64  92 127 168 213 265 323 387
#     4  10  23  42  65  94 132 169 212 270 325 387
#     4  12  24  38  63  92 125 166 209 262 324 391
#     4  10  20  40  63  88 121 160 210 261 317 382
#
# _framework density 20.32517
#
# number of rings (size 3 to 8) (size 9 to 14) (size 15 to 20)
#    0.000    1.429    0.000    6.000    0.000    7.429 
#    0.000    0.000    0.000    0.000    0.000    0.000 
#    0.000    0.000    0.000    0.000    0.000    0.000 
#
# Total GULP energy -312204.055772 kJ/mol
# GULP energy per Si atom -5575.072424 kJ/mol
# Density = 2.027891 g / cm^3
# Si number density = 20.325170 Si / 1000 Ang^3
#
#
#
# Elastic Constant Matrix: (Units=GPa)
#
#
# Indices 1 2 3 4 5 6 
#
# 1 65.9416 38.3608 38.4309 0.0000 0.0000 0.0000
# 2 38.3608 129.7715 73.4222 0.0000 0.0000 0.0000
# 3 38.4309 73.4222 123.0008 0.0000 0.0000 0.0000
# 4 0.0000 0.0000 0.0000 5.6539 0.0000 0.0000
# 5 0.0000 0.0000 0.0000 0.0000 6.6595 0.0000
# 6 0.0000 0.0000 0.0000 0.0000 0.0000 37.5663
#
#
#
# Elastic Compliance Matrix: (Units=1/GPa)
#
#
# Indices 1 2 3 4 5 6 
#
# 1 0.019544 -0.003507 -0.004013 0.000000 0.000000 0.000000
# 2 -0.003507 0.012265 -0.006225 0.000000 0.000000 0.000000
# 3 -0.004013 -0.006225 0.013100 0.000000 0.000000 0.000000
# 4 0.000000 0.000000 0.000000 0.176870 0.000000 0.000000
# 5 0.000000 0.000000 0.000000 0.000000 0.150161 0.000000
# 6 0.000000 0.000000 0.000000 0.000000 0.000000 0.026620
#
#
# Mechanical properties :
#
#
# Convention : Reuss Voigt Hill
#
# Bulk Modulus (GPa) = 57.41183 68.79349 63.10266
# Shear Modulus (GPa) = 11.57796 21.20928 16.39362
#
# Velocity S-wave (km/s) = 2.38929 3.23383 2.84309
# Velocity P-wave (km/s) = 5.99330 6.91834 6.47237
#
# Compressibility (1/GPa) = 0.01741801
#
# Stress axis : x y z
#
# Youngs Moduli (GPa) = 51.16729 81.53512 76.33571
#
# Poissons Ratio (x) = 0.28591 0.30635
# Poissons Ratio (y) = 0.17942 0.47522
# Poissons Ratio (z) = 0.20534 0.50759
#
# Static dielectric constant tensor:
#      x y z
#    x 1.854770 0.000000 0.000000 
#    y 0.000000 1.725300 0.000000 
#    z 0.000000 0.000000 1.949400 
# 
# From -- ./inp_files/5810.got.cif
#   From: 2010.05.17/outbox.cif.g08.bks.cpg/sg61_3_cif.got.tgz:5810.got - 2010.06.03 15:17:17.
