data_PCOD9459045
_publ_section_title
;
Structure prediction by ZEFSAII (Michael W. Deem and Ramdas Pophale) SiO2 
 PCOD9459045
Probable space group: P B C A
;
_chemical_formula_sum "Si O2"
_cell_formula_units_Z 56
_cell_length_a 17.874014
_cell_length_b 6.989955
_cell_length_c 18.470684
_cell_angle_alpha 90.000000
_cell_angle_beta 90.000000
_cell_angle_gamma 90.000000
_cell_volume 2307.700542
_symmetry_space_group_name_H-M "P B C A"
_symmetry_group_IT_number 61
_symmetry_cell_setting 'orthorhombic'
loop_
_space_group_symop_operation_xyz
x,y,z
1/2-x,-y,1/2+z
1/2+x,1/2-y,-z
-x,1/2+y,1/2-z
-x,-y,-z
1/2+x,y,1/2-z
1/2-x,1/2+y,z
x,1/2-y,1/2+z
loop_
_atom_site_type_symbol
_atom_site_label
_atom_site_fract_x
_atom_site_fract_y
_atom_site_fract_z
Si Si1 0.650227 0.015200 0.917894
Si Si2 0.184149 0.454062 0.564469
Si Si3 0.116931 0.564467 0.705755
Si Si4 0.059667 0.795083 0.000071
Si Si5 0.064070 0.899170 0.349579
Si Si6 0.960956 0.825627 0.127767
Si Si7 0.095806 0.390369 0.228077
O O1 0.728366 0.942261 0.950438
O O2 0.649404 0.242851 0.930422
O O3 0.646483 0.997391 0.829921
O O4 0.583703 0.902544 0.957205
O O5 0.177192 0.565213 0.641760
O O6 0.132990 0.574565 0.510907
O O7 0.123444 0.650046 0.786206
O O8 0.041716 0.648171 0.668427
O O9 0.109097 0.337104 0.721500
O O10 0.988336 0.867659 0.046631
O O11 0.051562 0.740673 0.916489
O O12 0.986291 0.915475 0.306184
O O13 0.075056 0.114956 0.377448
O O14 0.908292 0.933546 0.186350
#
# Coordination Sequence:
#
# PCOD9459045 Si02
#       7
#     8   8   8   8   8   8   8
#     4  11  20  36  61  81 107 150 198 234 279 336
#     4  10  21  38  59  81 107 149 203 234 269 342
#     4   8  18  34  54  81 112 144 188 239 271 329
#     4  11  21  35  60  84 115 155 182 234 292 341
#     4  10  18  33  56  82 119 143 181 229 292 342
#     4   9  17  32  53  82 111 141 183 225 283 338
#     4   9  18  32  54  82 109 143 182 235 276 335
#
# _framework density 24.266582
#
# number of rings (size 3 to 8) (size 9 to 14) (size 15 to 20)
#    0.000    2.286    2.857    0.429    0.000    0.000 
#    2.571    2.143    9.429    0.000    0.000    0.000 
#    0.000    0.000    0.000    0.000    0.000    0.000 
#
# Total GULP energy -312540.933436 kJ/mol
# GULP energy per Si atom -5581.088097 kJ/mol
# Density = 2.421135 g / cm^3
# Si number density = 24.266582 Si / 1000 Ang^3
#
#
#
# Elastic Constant Matrix: (Units=GPa)
#
#
# Indices 1 2 3 4 5 6 
#
# 1 50.8305 -0.4520 6.9904 0.0000 0.0000 0.0000
# 2 -0.4520 82.4735 30.1555 0.0000 0.0000 0.0000
# 3 6.9904 30.1555 134.3706 0.0000 0.0000 0.0000
# 4 0.0000 0.0000 0.0000 43.9818 0.0000 0.0000
# 5 0.0000 0.0000 0.0000 0.0000 22.5471 0.0000
# 6 0.0000 0.0000 0.0000 0.0000 0.0000 19.7639
#
#
#
# Elastic Compliance Matrix: (Units=1/GPa)
#
#
# Indices 1 2 3 4 5 6 
#
# 1 0.019836 0.000529 -0.001151 0.000000 0.000000 0.000000
# 2 0.000529 0.013223 -0.002995 0.000000 0.000000 0.000000
# 3 -0.001151 -0.002995 0.008174 0.000000 0.000000 0.000000
# 4 0.000000 0.000000 0.000000 0.022737 0.000000 0.000000
# 5 0.000000 0.000000 0.000000 0.000000 0.044352 0.000000
# 6 0.000000 0.000000 0.000000 0.000000 0.000000 0.050597
#
#
# Mechanical properties :
#
#
# Convention : Reuss Voigt Hill
#
# Bulk Modulus (GPa) = 29.41114 37.89582 33.65348
# Shear Modulus (GPa) = 28.17132 32.65726 30.41429
#
# Velocity S-wave (km/s) = 3.41091 3.67246 3.54410
# Velocity P-wave (km/s) = 5.25916 5.79939 5.53587
#
# Compressibility (1/GPa) = 0.03400072
#
# Stress axis : x y z
#
# Youngs Moduli (GPa) = 50.41285 75.62505 122.33720
#
# Poissons Ratio (x) = -0.04004 0.14078
# Poissons Ratio (y) = -0.02669 0.36641
# Poissons Ratio (z) = 0.05801 0.22650
#
# Static dielectric constant tensor:
#      x y z
#    x 1.910320 0.000000 0.000000 
#    y 0.000000 2.046510 0.000000 
#    z 0.000000 0.000000 2.009610 
# 
# From -- ./inp_files/9762.got.cif
#   From: 2010.05.17/outbox.cif.g08.bks.cpg/sg61_5_cif.got.tgz:9762.got - 2010.06.03 15:17:17.
