data_PCOD9459276
_publ_section_title
;
Structure prediction by ZEFSAII (Michael W. Deem and Ramdas Pophale) SiO2 
 PCOD9459276
Probable space group: P B C A
;
_chemical_formula_sum "Si O2"
_cell_formula_units_Z 60
_cell_length_a 5.292839
_cell_length_b 22.439372
_cell_length_c 22.673717
_cell_angle_alpha 90.000000
_cell_angle_beta 90.000000
_cell_angle_gamma 90.000000
_cell_volume 2692.911641
_symmetry_space_group_name_H-M "P B C A"
_symmetry_group_IT_number 61
_symmetry_cell_setting 'orthorhombic'
loop_
_space_group_symop_operation_xyz
x,y,z
1/2-x,-y,1/2+z
1/2+x,1/2-y,-z
-x,1/2+y,1/2-z
-x,-y,-z
1/2+x,y,1/2-z
1/2-x,1/2+y,z
x,1/2-y,1/2+z
loop_
_atom_site_type_symbol
_atom_site_label
_atom_site_fract_x
_atom_site_fract_y
_atom_site_fract_z
Si Si1 0.773513 0.545021 0.266926
Si Si2 0.548183 0.114662 0.604731
Si Si3 0.788593 0.000424 0.394776
Si Si4 0.500000 0.000000 0.000000
Si Si5 0.770320 0.231717 0.922295
Si Si6 0.824034 0.408847 0.218716
Si Si7 0.535118 0.587207 0.023897
Si Si8 0.270995 0.294608 0.936233
O O1 0.541354 0.576369 0.236067
O O2 0.702499 0.535149 0.334532
O O3 0.814828 0.481038 0.232182
O O4 0.378445 0.173805 0.610232
O O5 0.770617 0.110138 0.651988
O O6 0.605132 0.112126 0.534536
O O7 0.376742 0.057048 0.618552
O O8 0.664727 0.041785 0.446850
O O9 0.048704 0.988090 0.428001
O O10 0.289551 0.944895 0.997962
O O11 0.988276 0.281874 0.914483
O O12 0.486195 0.252180 0.908626
O O13 0.764911 0.217322 0.992817
O O14 0.588048 0.386575 0.256905
O O15 0.622315 0.638658 0.067618
#
# Coordination Sequence:
#
# PCOD9459276 Si02
#       8
#     8   8   8   4   8   8   8   8
#     4  10  21  37  57  78 114 157 199 245 289 370
#     4  10  19  37  55  87 123 151 202 244 316 369
#     4  11  22  37  54  89 124 160 196 243 316 372
#     4  10  22  34  54  88 120 166 190 240 314 360
#     4   9  19  35  57  81 105 156 188 248 277 355
#     4  10  20  35  54  80 115 153 188 246 298 364
#     4  10  23  37  55  86 126 168 193 255 297 386
#     4   9  19  38  55  78 115 149 206 224 293 343
#
# _framework density 22.280716999999999
#
# number of rings (size 3 to 8) (size 9 to 14) (size 15 to 20)
#    0.000    2.133    2.667    1.600    3.733    3.200 
#   16.800    0.000    0.000    0.000    0.000    5.600 
#    0.000    0.000    0.000    0.000    0.000    0.000 
#
# Total GULP energy -334030.539065 kJ/mol
# GULP energy per Si atom -5567.175651 kJ/mol
# Density = 2.223000 g / cm^3
# Si number density = 22.280717 Si / 1000 Ang^3
#
#
#
# Elastic Constant Matrix: (Units=GPa)
#
#
# Indices 1 2 3 4 5 6 
#
# 1 56.7938 -17.0965 9.6130 0.0000 0.0000 0.0000
# 2 -17.0965 29.8590 5.3185 0.0000 0.0000 0.0000
# 3 9.6130 5.3185 64.7273 0.0000 0.0000 0.0000
# 4 0.0000 0.0000 0.0000 2.9564 0.0000 0.0000
# 5 0.0000 0.0000 0.0000 0.0000 27.0219 0.0000
# 6 0.0000 0.0000 0.0000 0.0000 0.0000 16.1443
#
#
#
# Elastic Compliance Matrix: (Units=1/GPa)
#
#
# Indices 1 2 3 4 5 6 
#
# 1 0.022476 0.013664 -0.004461 0.000000 0.000000 0.000000
# 2 0.013664 0.042295 -0.005504 0.000000 0.000000 0.000000
# 3 -0.004461 -0.005504 0.016564 0.000000 0.000000 0.000000
# 4 0.000000 0.000000 0.000000 0.338250 0.000000 0.000000
# 5 0.000000 0.000000 0.000000 0.000000 0.037007 0.000000
# 6 0.000000 0.000000 0.000000 0.000000 0.000000 0.061941
#
#
# Mechanical properties :
#
#
# Convention : Reuss Voigt Hill
#
# Bulk Modulus (GPa) = 11.26999 16.33890 13.80445
# Shear Modulus (GPa) = 9.24704 19.46085 14.35394
#
# Velocity S-wave (km/s) = 2.03942 2.95861 2.54093
# Velocity P-wave (km/s) = 3.25804 4.36122 3.84936
#
# Compressibility (1/GPa) = 0.08873120
#
# Stress axis : x y z
#
# Youngs Moduli (GPa) = 44.49254 23.64369 60.37110
#
# Poissons Ratio (x) = -0.32306 0.26930
# Poissons Ratio (y) = -0.60793 0.33231
# Poissons Ratio (z) = 0.19847 0.13015
#
# Static dielectric constant tensor:
#      x y z
#    x 1.598400 0.000000 0.000000 
#    y 0.000000 1.820360 0.000000 
#    z 0.000000 0.000000 1.752610 
# 
# From -- ./inp_files/10755.got.cif
#   From: 2010.05.17/outbox.cif.g08.bks.cpg/sg61_6_cif.got.tgz:10755.got - 2010.06.03 15:17:17.
