data_PCOD9459268
_publ_section_title
;
Structure prediction by ZEFSAII (Michael W. Deem and Ramdas Pophale) SiO2 
 PCOD9459268
Probable space group: P B C A
;
_chemical_formula_sum "Si O2"
_cell_formula_units_Z 64
_cell_length_a 19.764880
_cell_length_b 8.154887
_cell_length_c 16.996465
_cell_angle_alpha 90.000000
_cell_angle_beta 90.000000
_cell_angle_gamma 90.000000
_cell_volume 2739.496398
_symmetry_space_group_name_H-M "P B C A"
_symmetry_group_IT_number 61
_symmetry_cell_setting 'orthorhombic'
loop_
_space_group_symop_operation_xyz
x,y,z
1/2-x,-y,1/2+z
1/2+x,1/2-y,-z
-x,1/2+y,1/2-z
-x,-y,-z
1/2+x,y,1/2-z
1/2-x,1/2+y,z
x,1/2-y,1/2+z
loop_
_atom_site_type_symbol
_atom_site_label
_atom_site_fract_x
_atom_site_fract_y
_atom_site_fract_z
Si Si1 0.338358 0.334509 0.741606
Si Si2 0.760440 0.820664 0.632230
Si Si3 0.614648 0.326280 0.179462
Si Si4 0.669878 0.596678 0.562422
Si Si5 0.487125 0.984888 0.676329
Si Si6 0.705978 0.030204 0.892542
Si Si7 0.446326 0.365191 0.327714
Si Si8 0.155423 0.381913 0.665755
O O1 0.265924 0.293078 0.779212
O O2 0.361023 0.499339 0.786980
O O3 0.336687 0.391168 0.653310
O O4 0.387471 0.191546 0.767257
O O5 0.831165 0.729952 0.614667
O O6 0.698873 0.779613 0.573438
O O7 0.782228 0.007939 0.626256
O O8 0.538706 0.368808 0.151726
O O9 0.627292 0.191381 0.249027
O O10 0.693380 0.515916 0.482400
O O11 0.593639 0.579214 0.594238
O O12 0.514763 0.803477 0.657110
O O13 0.412538 0.977051 0.639029
O O14 0.488108 0.011552 0.772666
O O15 0.780817 0.001871 0.854279
O O16 0.677952 0.212125 0.876625
#
# Coordination Sequence:
#
# PCOD9459268 Si02
#       8
#     8   8   8   8   8   8   8   8
#     4   9  20  35  63  93 125 164 222 274 333 395
#     4  11  19  38  63  98 125 171 225 285 339 387
#     4  10  19  36  63  97 128 165 221 280 334 392
#     4  11  24  39  64  98 139 174 225 289 349 399
#     4  11  22  42  65 101 133 172 232 277 340 415
#     4  11  24  41  63  97 134 180 221 286 349 415
#     4  10  23  39  67  98 129 174 221 286 333 405
#     4  11  23  40  67  95 134 176 227 282 348 411
#
# _framework density 23.361957
#
# number of rings (size 3 to 8) (size 9 to 14) (size 15 to 20)
#    0.000    1.500    3.750    1.500    1.750    0.000 
#    0.000    0.625    0.000    3.750    0.000    0.000 
#    0.000    0.000    0.000    0.000    0.000    0.000 
#
# Total GULP energy -356525.859291 kJ/mol
# GULP energy per Si atom -5570.716551 kJ/mol
# Density = 2.330878 g / cm^3
# Si number density = 23.361957 Si / 1000 Ang^3
#
#
#
# Elastic Constant Matrix: (Units=GPa)
#
#
# Indices 1 2 3 4 5 6 
#
# 1 118.0540 18.7125 14.7982 0.0000 0.0000 0.0000
# 2 18.7125 66.3142 8.2206 0.0000 0.0000 0.0000
# 3 14.7982 8.2206 60.2511 0.0000 0.0000 0.0000
# 4 0.0000 0.0000 0.0000 18.5851 0.0000 0.0000
# 5 0.0000 0.0000 0.0000 0.0000 15.7980 0.0000
# 6 0.0000 0.0000 0.0000 0.0000 0.0000 50.4336
#
#
#
# Elastic Compliance Matrix: (Units=1/GPa)
#
#
# Indices 1 2 3 4 5 6 
#
# 1 0.009079 -0.002325 -0.001913 0.000000 0.000000 0.000000
# 2 -0.002325 0.015934 -0.001603 0.000000 0.000000 0.000000
# 3 -0.001913 -0.001603 0.017286 0.000000 0.000000 0.000000
# 4 0.000000 0.000000 0.000000 0.053806 0.000000 0.000000
# 5 0.000000 0.000000 0.000000 0.000000 0.063299 0.000000
# 6 0.000000 0.000000 0.000000 0.000000 0.000000 0.019828
#
#
# Mechanical properties :
#
#
# Convention : Reuss Voigt Hill
#
# Bulk Modulus (GPa) = 32.66053 36.45355 34.55704
# Shear Modulus (GPa) = 24.86080 30.48922 27.67501
#
# Velocity S-wave (km/s) = 3.26568 3.61651 3.44556
# Velocity P-wave (km/s) = 5.31320 5.75122 5.53654
#
# Compressibility (1/GPa) = 0.03061800
#
# Stress axis : x y z
#
# Youngs Moduli (GPa) = 110.14481 62.75707 57.85131
#
# Poissons Ratio (x) = 0.14590 0.11065
# Poissons Ratio (y) = 0.25606 0.09274
# Poissons Ratio (z) = 0.21067 0.10060
#
# Static dielectric constant tensor:
#      x y z
#    x 2.045820 0.000000 0.000000 
#    y 0.000000 1.939980 0.000000 
#    z 0.000000 0.000000 1.866790 
# 
# From -- ./inp_files/9786.got.cif
#   From: 2010.05.17/outbox.cif.g08.bks.cpg/sg61_5_cif.got.tgz:9786.got - 2010.06.03 15:17:17.
