data_PCOD9459357
_publ_section_title
;
Structure prediction by ZEFSAII (Michael W. Deem and Ramdas Pophale) SiO2 
 PCOD9459357
Probable space group: P B C A
;
_chemical_formula_sum "Si O2"
_cell_formula_units_Z 40
_cell_length_a 15.131407
_cell_length_b 9.044158
_cell_length_c 14.568934
_cell_angle_alpha 90.000000
_cell_angle_beta 90.000000
_cell_angle_gamma 90.000000
_cell_volume 1993.770793
_symmetry_space_group_name_H-M "P B C A"
_symmetry_group_IT_number 61
_symmetry_cell_setting 'orthorhombic'
loop_
_space_group_symop_operation_xyz
x,y,z
1/2-x,-y,1/2+z
1/2+x,1/2-y,-z
-x,1/2+y,1/2-z
-x,-y,-z
1/2+x,y,1/2-z
1/2-x,1/2+y,z
x,1/2-y,1/2+z
loop_
_atom_site_type_symbol
_atom_site_label
_atom_site_fract_x
_atom_site_fract_y
_atom_site_fract_z
Si Si1 0.878053 0.572014 0.742880
Si Si2 0.072068 0.414554 0.058678
Si Si3 0.922067 0.899958 0.038641
Si Si4 0.734491 0.702670 0.184355
Si Si5 0.217849 0.538717 0.947612
O O1 0.937382 0.585766 0.832432
O O2 0.929579 0.610961 0.649172
O O3 0.694484 0.689587 0.605711
O O4 0.835500 0.407310 0.731591
O O5 0.204391 0.310857 0.254616
O O6 0.162497 0.501329 0.036348
O O7 0.000000 0.500000 0.000000
O O8 0.923859 0.748258 0.983046
O O9 0.821828 0.960520 0.029651
O O10 0.000000 0.000000 0.000000
O O11 0.796751 0.590973 0.126819
#
# Coordination Sequence:
#
# PCOD9459357 Si02
#       5
#     8   8   8   8   8
#     4  10  22  42  65 102 132 176 230 271 342 400
#     4  12  27  40  64 104 136 173 231 274 332 404
#     4  10  24  46  67  94 138 182 218 275 342 402
#     4   8  18  39  68  89 126 173 224 265 333 399
#     4  10  19  43  66  92 131 171 224 276 330 396
#
# _framework density 20.062486
#
# number of rings (size 3 to 8) (size 9 to 14) (size 15 to 20)
#    0.000    2.400    4.000    0.000    8.400    1.600 
#    0.000    0.000    0.000    0.000    0.000    0.000 
#    0.000    0.000    0.000    0.000    0.000    0.000 
#
# Total GULP energy -222988.187786 kJ/mol
# GULP energy per Si atom -5574.704695 kJ/mol
# Density = 2.001682 g / cm^3
# Si number density = 20.062486 Si / 1000 Ang^3
#
#
#
# Elastic Constant Matrix: (Units=GPa)
#
#
# Indices 1 2 3 4 5 6 
#
# 1 74.4468 30.4417 45.4564 0.0000 0.0000 0.0000
# 2 30.4417 133.0317 36.8239 0.0000 0.0000 0.0000
# 3 45.4564 36.8239 140.1982 0.0000 0.0000 0.0000
# 4 0.0000 0.0000 0.0000 23.1886 0.0000 0.0000
# 5 0.0000 0.0000 0.0000 0.0000 30.8237 0.0000
# 6 0.0000 0.0000 0.0000 0.0000 0.0000 19.7105
#
#
#
# Elastic Compliance Matrix: (Units=1/GPa)
#
#
# Indices 1 2 3 4 5 6 
#
# 1 0.017564 -0.002634 -0.005003 0.000000 0.000000 0.000000
# 2 -0.002634 0.008502 -0.001379 0.000000 0.000000 0.000000
# 3 -0.005003 -0.001379 0.009117 0.000000 0.000000 0.000000
# 4 0.000000 0.000000 0.000000 0.043125 0.000000 0.000000
# 5 0.000000 0.000000 0.000000 0.000000 0.032443 0.000000
# 6 0.000000 0.000000 0.000000 0.000000 0.000000 0.050734
#
#
# Mechanical properties :
#
#
# Convention : Reuss Voigt Hill
#
# Bulk Modulus (GPa) = 58.30717 63.68006 60.99362
# Shear Modulus (GPa) = 26.99293 30.40821 28.70057
#
# Velocity S-wave (km/s) = 3.67201 3.89739 3.78638
# Velocity P-wave (km/s) = 6.86324 7.21544 7.04154
#
# Compressibility (1/GPa) = 0.01715055
#
# Stress axis : x y z
#
# Youngs Moduli (GPa) = 56.93337 117.62627 109.68506
#
# Poissons Ratio (x) = 0.30988 0.54875
# Poissons Ratio (y) = 0.14999 0.15123
# Poissons Ratio (z) = 0.28483 0.16218
#
# Static dielectric constant tensor:
#      x y z
#    x 1.751610 0.000000 0.000000 
#    y 0.000000 1.711030 0.000000 
#    z 0.000000 0.000000 2.625790 
# 
# From -- ./inp_files/5587.got.cif
#   From: 2010.05.17/outbox.cif.g08.bks.cpg/sg61_3_cif.got.tgz:5587.got - 2010.06.03 15:17:17.
