data_PCOD9459976
_publ_section_title
;
Structure prediction by ZEFSAII (Michael W. Deem and Ramdas Pophale) SiO2 
 PCOD9459976
Probable space group: P B C A
;
_chemical_formula_sum "Si O2"
_cell_formula_units_Z 48
_cell_length_a 17.176832
_cell_length_b 13.701025
_cell_length_c 8.697958
_cell_angle_alpha 90.000000
_cell_angle_beta 90.000000
_cell_angle_gamma 90.000000
_cell_volume 2046.979216
_symmetry_space_group_name_H-M "P B C A"
_symmetry_group_IT_number 61
_symmetry_cell_setting 'orthorhombic'
loop_
_space_group_symop_operation_xyz
x,y,z
1/2-x,-y,1/2+z
1/2+x,1/2-y,-z
-x,1/2+y,1/2-z
-x,-y,-z
1/2+x,y,1/2-z
1/2-x,1/2+y,z
x,1/2-y,1/2+z
loop_
_atom_site_type_symbol
_atom_site_label
_atom_site_fract_x
_atom_site_fract_y
_atom_site_fract_z
Si Si1 0.694215 0.688382 0.738711
Si Si2 0.011479 0.563837 0.224814
Si Si3 0.898430 0.346994 0.539088
Si Si4 0.548955 0.226936 0.638124
Si Si5 0.647642 0.174510 0.894906
Si Si6 0.875176 0.024205 0.556623
O O1 0.644073 0.777482 0.666398
O O2 0.781094 0.712092 0.792825
O O3 0.686586 0.603302 0.612028
O O4 0.659513 0.645695 0.897175
O O5 0.066281 0.559421 0.373722
O O6 0.972381 0.670996 0.219442
O O7 0.937517 0.495372 0.193681
O O8 0.069306 0.561245 0.079664
O O9 0.973687 0.301111 0.457449
O O10 0.577266 0.156270 0.773764
O O11 0.617292 0.247160 0.516697
O O12 0.661376 0.075655 0.991238
#
# Coordination Sequence:
#
# PCOD9459976 Si02
#       6
#     8   8   8   8   8   8
#     4  12  24  43  66  98 138 170 220 271 338 391
#     4  10  21  39  68  92 129 164 228 277 314 376
#     4  12  22  40  71 100 119 175 231 274 311 393
#     4  11  20  42  67  99 120 174 229 268 313 388
#     4  11  25  42  66  94 138 174 210 272 338 389
#     4  10  24  44  60  95 139 175 209 277 332 391
#
# _framework density 23.449189000000001
#
# number of rings (size 3 to 8) (size 9 to 14) (size 15 to 20)
#    0.000    1.000    5.000    1.000    4.667    2.000 
#    3.000    1.667    0.000    0.000    0.000    0.000 
#    0.000    0.000    0.000    0.000    0.000    0.000 
#
# Total GULP energy -268148.499653 kJ/mol
# GULP energy per Si atom -5586.427076 kJ/mol
# Density = 2.339582 g / cm^3
# Si number density = 23.449189 Si / 1000 Ang^3
#
#
#
# Elastic Constant Matrix: (Units=GPa)
#
#
# Indices 1 2 3 4 5 6 
#
# 1 88.5978 -4.4166 32.1542 0.0000 0.0000 0.0000
# 2 -4.4166 25.2537 6.7259 0.0000 0.0000 0.0000
# 3 32.1542 6.7259 82.9104 0.0000 0.0000 0.0000
# 4 0.0000 0.0000 0.0000 40.0446 0.0000 0.0000
# 5 0.0000 0.0000 0.0000 0.0000 56.2985 0.0000
# 6 0.0000 0.0000 0.0000 0.0000 0.0000 13.9296
#
#
#
# Elastic Compliance Matrix: (Units=1/GPa)
#
#
# Indices 1 2 3 4 5 6 
#
# 1 0.013490 0.003835 -0.005543 0.000000 0.000000 0.000000
# 2 0.003835 0.041563 -0.004859 0.000000 0.000000 0.000000
# 3 -0.005543 -0.004859 0.014605 0.000000 0.000000 0.000000
# 4 0.000000 0.000000 0.000000 0.024972 0.000000 0.000000
# 5 0.000000 0.000000 0.000000 0.000000 0.017762 0.000000
# 6 0.000000 0.000000 0.000000 0.000000 0.000000 0.071790
#
#
# Mechanical properties :
#
#
# Convention : Reuss Voigt Hill
#
# Bulk Modulus (GPa) = 17.69131 29.52099 23.60615
# Shear Modulus (GPa) = 23.13135 32.87442 28.00288
#
# Velocity S-wave (km/s) = 3.14418 3.74831 3.45946
# Velocity P-wave (km/s) = 4.55435 5.59909 5.10352
#
# Compressibility (1/GPa) = 0.05652492
#
# Stress axis : x y z
#
# Youngs Moduli (GPa) = 74.13040 24.05978 68.46977
#
# Poissons Ratio (x) = -0.09228 0.37951
# Poissons Ratio (y) = -0.28432 0.33271
# Poissons Ratio (z) = 0.41088 0.11691
#
# Static dielectric constant tensor:
#      x y z
#    x 1.923370 0.000000 0.000000 
#    y 0.000000 1.896590 0.000000 
#    z 0.000000 0.000000 1.904030 
# 
# From -- ./inp_files/3520.got.cif
#   From: 2010.05.17/outbox.cif.g08.bks.cpg/sg61_2_cif.got.tgz:3520.got - 2010.06.03 15:17:17.
