data_PCOD9459652
_publ_section_title
;
Structure prediction by ZEFSAII (Michael W. Deem and Ramdas Pophale) SiO2 
 PCOD9459652
Probable space group: P B C A
;
_chemical_formula_sum "Si O2"
_cell_formula_units_Z 40
_cell_length_a 18.470962
_cell_length_b 8.616042
_cell_length_c 14.040517
_cell_angle_alpha 90.000000
_cell_angle_beta 90.000000
_cell_angle_gamma 90.000000
_cell_volume 2234.500323
_symmetry_space_group_name_H-M "P B C A"
_symmetry_group_IT_number 61
_symmetry_cell_setting 'orthorhombic'
loop_
_space_group_symop_operation_xyz
x,y,z
1/2-x,-y,1/2+z
1/2+x,1/2-y,-z
-x,1/2+y,1/2-z
-x,-y,-z
1/2+x,y,1/2-z
1/2-x,1/2+y,z
x,1/2-y,1/2+z
loop_
_atom_site_type_symbol
_atom_site_label
_atom_site_fract_x
_atom_site_fract_y
_atom_site_fract_z
Si Si1 0.528390 0.260419 0.055649
Si Si2 0.588640 0.603001 0.086938
Si Si3 0.151338 0.421052 0.049891
Si Si4 0.201408 0.742999 0.545256
Si Si5 0.594201 0.850794 0.808414
O O1 0.564684 0.424198 0.081516
O O2 0.481676 0.194578 0.143062
O O3 0.470899 0.297375 0.971425
O O4 0.588618 0.143279 0.017133
O O5 0.593101 0.653472 0.195971
O O6 0.663186 0.631640 0.030788
O O7 0.215664 0.298594 0.061050
O O8 0.187190 0.580544 0.011491
O O9 0.116879 0.480388 0.149484
O O10 0.154680 0.738507 0.643251
#
# Coordination Sequence:
#
# PCOD9459652 Si02
#       5
#     8   8   8   8   8
#     4  10  21  37  63  85 120 151 186 255 280 348
#     4  10  21  39  60  91 115 150 197 233 300 337
#     4  10  20  40  58  80 118 156 190 232 301 322
#     4   9  21  38  58  80 120 153 186 245 274 353
#     4   9  22  36  61  86 115 152 197 231 291 351
#
# _framework density 17.901092999999999
#
# number of rings (size 3 to 8) (size 9 to 14) (size 15 to 20)
#    1.200    1.200    0.000    1.800    2.800    0.000 
#    7.200    0.000    0.000    0.000    0.000    0.000 
#    0.000    0.000    0.000    0.000    0.000    0.000 
#
# Total GULP energy -222772.413816 kJ/mol
# GULP energy per Si atom -5569.310345 kJ/mol
# Density = 1.786035 g / cm^3
# Si number density = 17.901093 Si / 1000 Ang^3
#
#
#
# Elastic Constant Matrix: (Units=GPa)
#
#
# Indices 1 2 3 4 5 6 
#
# 1 29.8115 19.9154 9.8062 0.0000 0.0000 0.0000
# 2 19.9154 53.4362 15.4928 0.0000 0.0000 0.0000
# 3 9.8062 15.4928 124.0816 0.0000 0.0000 0.0000
# 4 0.0000 0.0000 0.0000 12.3043 0.0000 0.0000
# 5 0.0000 0.0000 0.0000 0.0000 1.4049 0.0000
# 6 0.0000 0.0000 0.0000 0.0000 0.0000 37.2267
#
#
#
# Elastic Compliance Matrix: (Units=1/GPa)
#
#
# Indices 1 2 3 4 5 6 
#
# 1 0.044937 -0.016309 -0.001515 0.000000 0.000000 0.000000
# 2 -0.016309 0.025336 -0.001875 0.000000 0.000000 0.000000
# 3 -0.001515 -0.001875 0.008413 0.000000 0.000000 0.000000
# 4 0.000000 0.000000 0.000000 0.081272 0.000000 0.000000
# 5 0.000000 0.000000 0.000000 0.000000 0.711793 0.000000
# 6 0.000000 0.000000 0.000000 0.000000 0.000000 0.026862
#
#
# Mechanical properties :
#
#
# Convention : Reuss Voigt Hill
#
# Bulk Modulus (GPa) = 25.45215 33.08421 29.26818
# Shear Modulus (GPa) = 5.25703 20.99484 13.12594
#
# Velocity S-wave (km/s) = 1.71554 3.42837 2.71079
# Velocity P-wave (km/s) = 4.26300 5.84751 5.11696
#
# Compressibility (1/GPa) = 0.03928941
#
# Stress axis : x y z
#
# Youngs Moduli (GPa) = 22.25317 39.47028 118.86358
#
# Poissons Ratio (x) = 0.64371 0.18009
# Poissons Ratio (y) = 0.36292 0.22281
# Poissons Ratio (z) = 0.03372 0.07399
#
# Static dielectric constant tensor:
#      x y z
#    x 1.614210 0.000000 0.000000 
#    y 0.000000 1.638760 0.000000 
#    z 0.000000 0.000000 1.571690 
# 
# From -- ./inp_files/2160.got.cif
#   From: 2010.05.17/outbox.cif.g08.bks.cpg/sg61_2_cif.got.tgz:2160.got - 2010.06.03 15:17:17.
