data_PCOD9459431
_publ_section_title
;
Structure prediction by ZEFSAII (Michael W. Deem and Ramdas Pophale) SiO2 
 PCOD9459431
Probable space group: P B C A
;
_chemical_formula_sum "Si O2"
_cell_formula_units_Z 64
_cell_length_a 19.413536
_cell_length_b 8.221854
_cell_length_c 16.269783
_cell_angle_alpha 90.000000
_cell_angle_beta 90.000000
_cell_angle_gamma 90.000000
_cell_volume 2596.905621
_symmetry_space_group_name_H-M "P B C A"
_symmetry_group_IT_number 61
_symmetry_cell_setting 'orthorhombic'
loop_
_space_group_symop_operation_xyz
x,y,z
1/2-x,-y,1/2+z
1/2+x,1/2-y,-z
-x,1/2+y,1/2-z
-x,-y,-z
1/2+x,y,1/2-z
1/2-x,1/2+y,z
x,1/2-y,1/2+z
loop_
_atom_site_type_symbol
_atom_site_label
_atom_site_fract_x
_atom_site_fract_y
_atom_site_fract_z
Si Si1 0.314149 0.172275 0.564171
Si Si2 0.928373 0.560463 0.409960
Si Si3 0.184049 0.294285 0.180643
Si Si4 0.641980 0.438911 0.681460
Si Si5 0.582367 0.156100 0.014924
Si Si6 0.714741 0.990413 0.033028
Si Si7 0.434514 0.491936 0.654020
Si Si8 0.466802 0.362960 0.221120
O O1 0.259626 0.187828 0.639695
O O2 0.313692 0.337320 0.514328
O O3 0.390350 0.111406 0.579616
O O4 0.287632 0.034570 0.501174
O O5 0.867919 0.673159 0.369545
O O6 0.947605 0.669743 0.488285
O O7 0.986459 0.501772 0.346558
O O8 0.175840 0.211275 0.269990
O O9 0.145289 0.467363 0.175125
O O10 0.584230 0.388565 0.611781
O O11 0.702037 0.524350 0.629013
O O12 0.603510 0.564768 0.739902
O O13 0.522782 0.375244 0.293386
O O14 0.556492 0.031481 0.943448
O O15 0.666254 0.143185 0.007299
O O16 0.455697 0.317030 0.687546
#
# Coordination Sequence:
#
# PCOD9459431 Si02
#       8
#     8   8   8   8   8   8   8   8
#     4  12  19  37  64  86 118 171 213 246 305 391
#     4  10  20  35  62  85 118 162 214 245 303 378
#     4  10  20  39  60  92 120 161 207 265 305 365
#     4   9  22  42  56  93 132 154 206 264 320 358
#     4   9  19  41  60  88 121 169 200 258 316 382
#     4  10  20  37  58  88 123 162 202 247 311 377
#     4  11  21  41  68  90 122 166 216 256 322 381
#     4  11  23  40  65  95 122 164 213 272 304 378
#
# _framework density 24.644715999999999
#
# number of rings (size 3 to 8) (size 9 to 14) (size 15 to 20)
#    0.750    1.000    3.750    3.000    0.000    0.500 
#    6.750    0.000    0.000    3.000    0.000    0.000 
#    0.000    0.000    0.000    0.000    0.000    0.000 
#
# Total GULP energy -356807.439652 kJ/mol
# GULP energy per Si atom -5575.116245 kJ/mol
# Density = 2.458862 g / cm^3
# Si number density = 24.644716 Si / 1000 Ang^3
#
#
#
# Elastic Constant Matrix: (Units=GPa)
#
#
# Indices 1 2 3 4 5 6 
#
# 1 39.2376 18.0173 25.7421 0.0000 0.0000 0.0000
# 2 18.0173 127.0521 59.2576 0.0000 0.0000 0.0000
# 3 25.7421 59.2576 132.3549 0.0000 0.0000 0.0000
# 4 0.0000 0.0000 0.0000 17.4271 0.0000 0.0000
# 5 0.0000 0.0000 0.0000 0.0000 29.6424 0.0000
# 6 0.0000 0.0000 0.0000 0.0000 0.0000 32.8546
#
#
#
# Elastic Compliance Matrix: (Units=1/GPa)
#
#
# Indices 1 2 3 4 5 6 
#
# 1 0.029576 -0.001910 -0.004897 0.000000 0.000000 0.000000
# 2 -0.001910 0.010071 -0.004138 0.000000 0.000000 0.000000
# 3 -0.004897 -0.004138 0.010360 0.000000 0.000000 0.000000
# 4 0.000000 0.000000 0.000000 0.057382 0.000000 0.000000
# 5 0.000000 0.000000 0.000000 0.000000 0.033735 0.000000
# 6 0.000000 0.000000 0.000000 0.000000 0.000000 0.030437
#
#
# Mechanical properties :
#
#
# Convention : Reuss Voigt Hill
#
# Bulk Modulus (GPa) = 35.56464 56.07538 45.82001
# Shear Modulus (GPa) = 24.65189 29.02667 26.83928
#
# Velocity S-wave (km/s) = 3.16617 3.43564 3.30365
# Velocity P-wave (km/s) = 5.27527 6.20815 5.76062
#
# Compressibility (1/GPa) = 0.02811781
#
# Stress axis : x y z
#
# Youngs Moduli (GPa) = 33.81162 99.29014 96.52145
#
# Poissons Ratio (x) = 0.18966 0.47267
# Poissons Ratio (y) = 0.06458 0.39937
# Poissons Ratio (z) = 0.16558 0.41083
#
# Static dielectric constant tensor:
#      x y z
#    x 2.064670 0.000000 0.000000 
#    y 0.000000 1.972920 0.000000 
#    z 0.000000 0.000000 2.113900 
# 
# From -- ./inp_files/8516.got.cif
#   From: 2010.05.17/outbox.cif.g08.bks.cpg/sg61_5_cif.got.tgz:8516.got - 2010.06.03 15:17:17.
