data_PCOD9459730
_publ_section_title
;
Structure prediction by ZEFSAII (Michael W. Deem and Ramdas Pophale) SiO2 
 PCOD9459730
Probable space group: P B C A
;
_chemical_formula_sum "Si O2"
_cell_formula_units_Z 40
_cell_length_a 11.304920
_cell_length_b 17.382429
_cell_length_c 7.583237
_cell_angle_alpha 90.000000
_cell_angle_beta 90.000000
_cell_angle_gamma 90.000000
_cell_volume 1490.158920
_symmetry_space_group_name_H-M "P B C A"
_symmetry_group_IT_number 61
_symmetry_cell_setting 'orthorhombic'
loop_
_space_group_symop_operation_xyz
x,y,z
1/2-x,-y,1/2+z
1/2+x,1/2-y,-z
-x,1/2+y,1/2-z
-x,-y,-z
1/2+x,y,1/2-z
1/2-x,1/2+y,z
x,1/2-y,1/2+z
loop_
_atom_site_type_symbol
_atom_site_label
_atom_site_fract_x
_atom_site_fract_y
_atom_site_fract_z
Si Si1 0.390512 0.602797 0.613810
Si Si2 0.183703 0.104498 0.980098
Si Si3 0.433055 0.980165 0.763519
Si Si4 0.121408 0.652636 0.256780
Si Si5 0.505958 0.739232 0.002433
O O1 0.511861 0.560417 0.679101
O O2 0.363711 0.559783 0.428189
O O3 0.428250 0.690096 0.582594
O O4 0.296995 0.592074 0.772552
O O5 0.137995 0.029347 0.083715
O O6 0.282645 0.138904 0.107698
O O7 0.079920 0.167116 0.985070
O O8 0.548329 0.925759 0.737861
O O9 0.132591 0.696559 0.442198
O O10 0.035656 0.719223 0.181554
#
# Coordination Sequence:
#
# PCOD9459730 Si02
#       5
#     8   8   8   8   8
#     4  10  20  42  66  84 126 167 196 264 315 356
#     4  11  22  40  66  89 122 169 202 248 327 368
#     4   9  22  43  61  92 126 155 212 262 303 377
#     4  10  22  38  59  94 122 157 211 254 303 376
#     4  10  21  39  60  91 125 154 208 260 296 374
#
# _framework density 26.842772
#
# number of rings (size 3 to 8) (size 9 to 14) (size 15 to 20)
#    0.000    2.000    2.000    0.600    2.800    0.000 
#   10.800    0.000    0.000    0.000    0.000    0.000 
#    0.000    0.000    0.000    0.000    0.000    0.000 
#
# Total GULP energy -223323.796441 kJ/mol
# GULP energy per Si atom -5583.094911 kJ/mol
# Density = 2.678168 g / cm^3
# Si number density = 26.842772 Si / 1000 Ang^3
#
#
#
# Elastic Constant Matrix: (Units=GPa)
#
#
# Indices 1 2 3 4 5 6 
#
# 1 33.6162 16.8353 0.6579 0.0000 0.0000 0.0000
# 2 16.8353 66.4668 37.4864 0.0000 0.0000 0.0000
# 3 0.6579 37.4864 86.0991 0.0000 0.0000 0.0000
# 4 0.0000 0.0000 0.0000 42.5998 0.0000 0.0000
# 5 0.0000 0.0000 0.0000 0.0000 30.2267 0.0000
# 6 0.0000 0.0000 0.0000 0.0000 0.0000 28.4126
#
#
#
# Elastic Compliance Matrix: (Units=1/GPa)
#
#
# Indices 1 2 3 4 5 6 
#
# 1 0.035524 -0.011724 0.004833 0.000000 0.000000 0.000000
# 2 -0.011724 0.023811 -0.010277 0.000000 0.000000 0.000000
# 3 0.004833 -0.010277 0.016052 0.000000 0.000000 0.000000
# 4 0.000000 0.000000 0.000000 0.023474 0.000000 0.000000
# 5 0.000000 0.000000 0.000000 0.000000 0.033083 0.000000
# 6 0.000000 0.000000 0.000000 0.000000 0.000000 0.035196
#
#
# Mechanical properties :
#
#
# Convention : Reuss Voigt Hill
#
# Bulk Modulus (GPa) = 24.35983 32.90459 28.63221
# Shear Modulus (GPa) = 23.23848 28.99465 26.11657
#
# Velocity S-wave (km/s) = 2.94551 3.29015 3.12259
# Velocity P-wave (km/s) = 4.54563 5.16898 4.86730
#
# Compressibility (1/GPa) = 0.04105119
#
# Stress axis : x y z
#
# Youngs Moduli (GPa) = 28.14979 41.99771 62.29671
#
# Poissons Ratio (x) = 0.49236 -0.30107
# Poissons Ratio (y) = 0.33002 0.64024
# Poissons Ratio (z) = -0.13604 0.43162
#
# Static dielectric constant tensor:
#      x y z
#    x 2.145670 0.000000 0.000000 
#    y 0.000000 1.894410 0.000000 
#    z 0.000000 0.000000 2.412390 
# 
# From -- ./inp_files/2099.got.cif
#   From: 2010.05.17/outbox.cif.g08.bks.cpg/sg61_2_cif.got.tgz:2099.got - 2010.06.03 15:17:17.
