data_PCOD9459181
_publ_section_title
;
Structure prediction by ZEFSAII (Michael W. Deem and Ramdas Pophale) SiO2 
 PCOD9459181
Probable space group: P B C A
;
_chemical_formula_sum "Si O2"
_cell_formula_units_Z 64
_cell_length_a 15.881592
_cell_length_b 23.089815
_cell_length_c 7.047612
_cell_angle_alpha 90.000000
_cell_angle_beta 90.000000
_cell_angle_gamma 90.000000
_cell_volume 2584.380613
_symmetry_space_group_name_H-M "P B C A"
_symmetry_group_IT_number 61
_symmetry_cell_setting 'orthorhombic'
loop_
_space_group_symop_operation_xyz
x,y,z
1/2-x,-y,1/2+z
1/2+x,1/2-y,-z
-x,1/2+y,1/2-z
-x,-y,-z
1/2+x,y,1/2-z
1/2-x,1/2+y,z
x,1/2-y,1/2+z
loop_
_atom_site_type_symbol
_atom_site_label
_atom_site_fract_x
_atom_site_fract_y
_atom_site_fract_z
Si Si1 0.839762 0.622971 0.818954
Si Si2 0.891263 0.476006 0.189830
Si Si3 0.664327 0.845638 0.271037
Si Si4 0.033671 0.169247 0.177564
Si Si5 0.307390 0.909247 0.756148
Si Si6 0.084635 0.006144 0.757524
Si Si7 0.508842 0.199223 0.757230
Si Si8 0.134912 0.616886 0.316473
O O1 0.763885 0.660773 0.730962
O O2 0.867788 0.566286 0.702027
O O3 0.922864 0.660295 0.866915
O O4 0.803966 0.597970 0.015373
O O5 0.860532 0.411108 0.216640
O O6 0.828418 0.523828 0.276314
O O7 0.984770 0.484571 0.275078
O O8 0.900477 0.490172 0.965036
O O9 0.589637 0.805821 0.187095
O O10 0.654060 0.843545 0.500789
O O11 0.038448 0.234858 0.246851
O O12 0.952266 0.138913 0.270093
O O13 0.115853 0.131025 0.198731
O O14 0.016714 0.173531 0.953332
O O15 0.217554 0.886225 0.687170
O O16 0.117144 0.950206 0.869267
#
# Coordination Sequence:
#
# PCOD9459181 Si02
#       8
#     8   8   8   8   8   8   8   8
#     4  10  21  39  60  86 120 153 190 235 284 342
#     4  10  19  33  58  89 120 155 189 231 287 341
#     4  10  22  38  59  87 118 152 191 236 285 341
#     4  11  24  41  60  83 111 149 194 240 289 338
#     4  10  21  39  60  86 120 153 190 235 284 342
#     4  10  19  33  58  89 120 155 189 231 287 341
#     4  11  24  41  60  83 111 149 194 240 289 338
#     4  10  22  38  59  87 118 152 191 236 285 341
#
# _framework density 24.764154999999999
#
# number of rings (size 3 to 8) (size 9 to 14) (size 15 to 20)
#    0.000    1.750    2.500    1.500    0.000    4.500 
#    0.000    2.500    0.000    0.000    0.000    0.000 
#    0.000    0.000    0.000    0.000    0.000    0.000 
#
# Total GULP energy -358106.415142 kJ/mol
# GULP energy per Si atom -5595.412737 kJ/mol
# Density = 2.470779 g / cm^3
# Si number density = 24.764155 Si / 1000 Ang^3
#
#
#
# Elastic Constant Matrix: (Units=GPa)
#
#
# Indices 1 2 3 4 5 6 
#
# 1 132.1513 -3.0072 3.2211 0.0000 0.0000 0.0000
# 2 -3.0072 63.7292 -14.0146 0.0000 0.0000 0.0000
# 3 3.2211 -14.0146 52.7488 0.0000 0.0000 0.0000
# 4 0.0000 0.0000 0.0000 25.4754 0.0000 0.0000
# 5 0.0000 0.0000 0.0000 0.0000 10.8764 0.0000
# 6 0.0000 0.0000 0.0000 0.0000 0.0000 5.0458
#
#
#
# Elastic Compliance Matrix: (Units=1/GPa)
#
#
# Indices 1 2 3 4 5 6 
#
# 1 0.007583 0.000272 -0.000391 0.000000 0.000000 0.000000
# 2 0.000272 0.016675 0.004414 0.000000 0.000000 0.000000
# 3 -0.000391 0.004414 0.020154 0.000000 0.000000 0.000000
# 4 0.000000 0.000000 0.000000 0.039254 0.000000 0.000000
# 5 0.000000 0.000000 0.000000 0.000000 0.091942 0.000000
# 6 0.000000 0.000000 0.000000 0.000000 0.000000 0.198186
#
#
# Mechanical properties :
#
#
# Convention : Reuss Voigt Hill
#
# Bulk Modulus (GPa) = 18.86745 24.55866 21.71305
# Shear Modulus (GPa) = 13.05922 25.77484 19.41703
#
# Velocity S-wave (km/s) = 2.29889 3.22966 2.80318
# Velocity P-wave (km/s) = 3.83170 4.88325 4.38908
#
# Compressibility (1/GPa) = 0.05300134
#
# Stress axis : x y z
#
# Youngs Moduli (GPa) = 131.87747 59.97066 49.61720
#
# Poissons Ratio (x) = -0.01630 0.01939
# Poissons Ratio (y) = -0.03585 -0.21899
# Poissons Ratio (z) = 0.05154 -0.26469
#
# Static dielectric constant tensor:
#      x y z
#    x 2.012130 0.000000 0.000000 
#    y 0.000000 1.887640 0.000000 
#    z 0.000000 0.000000 2.045950 
# 
# From -- ./inp_files/3189.got.cif
#   From: 2010.05.17/outbox.cif.g08.bks.cpg/sg61_2_cif.got.tgz:3189.got - 2010.06.03 15:17:17.
