data_PCOD9459322
_publ_section_title
;
Structure prediction by ZEFSAII (Michael W. Deem and Ramdas Pophale) SiO2 
 PCOD9459322
Probable space group: P B C A
;
_chemical_formula_sum "Si O2"
_cell_formula_units_Z 48
_cell_length_a 13.734485
_cell_length_b 26.323896
_cell_length_c 5.306612
_cell_angle_alpha 90.000000
_cell_angle_beta 90.000000
_cell_angle_gamma 90.000000
_cell_volume 1918.579857
_symmetry_space_group_name_H-M "P B C A"
_symmetry_group_IT_number 61
_symmetry_cell_setting 'orthorhombic'
loop_
_space_group_symop_operation_xyz
x,y,z
1/2-x,-y,1/2+z
1/2+x,1/2-y,-z
-x,1/2+y,1/2-z
-x,-y,-z
1/2+x,y,1/2-z
1/2-x,1/2+y,z
x,1/2-y,1/2+z
loop_
_atom_site_type_symbol
_atom_site_label
_atom_site_fract_x
_atom_site_fract_y
_atom_site_fract_z
Si Si1 0.572948 0.576571 0.894175
Si Si2 0.977930 0.881308 0.608879
Si Si3 0.805267 0.514769 0.518209
Si Si4 0.050280 0.765369 0.602646
Si Si5 0.165280 0.276502 0.413916
Si Si6 0.213016 0.383426 0.181674
O O1 0.508470 0.596146 0.124360
O O2 0.739784 0.514237 0.264694
O O3 0.602068 0.517907 0.934007
O O4 0.676455 0.606419 0.899407
O O5 0.315072 0.929566 0.367879
O O6 0.016774 0.823449 0.598538
O O7 0.026830 0.912022 0.377527
O O8 0.863376 0.617600 0.048115
O O9 0.105372 0.749048 0.851224
O O10 0.953586 0.729109 0.591196
O O11 0.193823 0.237303 0.195092
O O12 0.198786 0.331264 0.328401
#
# Coordination Sequence:
#
# PCOD9459322 Si02
#       6
#     8   8   8   8   8   8
#     4  11  27  45  67 113 142 177 256 285 349 459
#     4  12  25  43  74 101 144 189 230 303 356 420
#     4  10  23  46  72 102 148 188 231 303 359 417
#     4  10  19  39  65  93 136 179 225 286 349 406
#     4  10  21  38  68  99 131 178 238 277 342 433
#     4  11  25  47  78  98 145 200 224 304 372 400
#
# _framework density 25.018505999999999
#
# number of rings (size 3 to 8) (size 9 to 14) (size 15 to 20)
#    0.000    1.333    3.333    3.000    2.333    9.333 
#    0.000    5.000    0.000    0.000    0.000    0.000 
#    0.000    0.000    0.000    0.000    0.000    0.000 
#
# Total GULP energy -269074.162100 kJ/mol
# GULP energy per Si atom -5605.711710 kJ/mol
# Density = 2.496156 g / cm^3
# Si number density = 25.018506 Si / 1000 Ang^3
#
#
#
# Elastic Constant Matrix: (Units=GPa)
#
#
# Indices 1 2 3 4 5 6 
#
# 1 100.0280 13.6458 41.8006 0.0000 0.0000 0.0000
# 2 13.6458 106.8605 13.6386 0.0000 0.0000 0.0000
# 3 41.8006 13.6386 164.5352 0.0000 0.0000 0.0000
# 4 0.0000 0.0000 0.0000 41.6390 0.0000 0.0000
# 5 0.0000 0.0000 0.0000 0.0000 39.2969 0.0000
# 6 0.0000 0.0000 0.0000 0.0000 0.0000 19.0204
#
#
#
# Elastic Compliance Matrix: (Units=1/GPa)
#
#
# Indices 1 2 3 4 5 6 
#
# 1 0.011309 -0.001089 -0.002783 0.000000 0.000000 0.000000
# 2 -0.001089 0.009563 -0.000516 0.000000 0.000000 0.000000
# 3 -0.002783 -0.000516 0.006827 0.000000 0.000000 0.000000
# 4 0.000000 0.000000 0.000000 0.024016 0.000000 0.000000
# 5 0.000000 0.000000 0.000000 0.000000 0.025447 0.000000
# 6 0.000000 0.000000 0.000000 0.000000 0.000000 0.052575
#
#
# Mechanical properties :
#
#
# Convention : Reuss Voigt Hill
#
# Bulk Modulus (GPa) = 52.84401 56.62152 54.73276
# Shear Modulus (GPa) = 34.52544 40.14716 37.33630
#
# Velocity S-wave (km/s) = 3.71886 4.01021 3.86728
# Velocity P-wave (km/s) = 6.29347 6.64255 6.47036
#
# Compressibility (1/GPa) = 0.01892362
#
# Stress axis : x y z
#
# Youngs Moduli (GPa) = 88.42809 104.57065 146.46730
#
# Poissons Ratio (x) = 0.11387 0.40758
# Poissons Ratio (y) = 0.09629 0.07558
# Poissons Ratio (z) = 0.24607 0.05396
#
# Static dielectric constant tensor:
#      x y z
#    x 2.018690 0.000000 0.000000 
#    y 0.000000 1.935740 0.000000 
#    z 0.000000 0.000000 1.999210 
# 
# From -- ./inp_files/509.got.cif
#   From: 2010.05.17/outbox.cif.g08.bks.cpg/sg61_1_cif.got.tgz:509.got - 2010.06.03 15:17:17.
