data_PCOD9459038
_publ_section_title
;
Structure prediction by ZEFSAII (Michael W. Deem and Ramdas Pophale) SiO2 
 PCOD9459038
Probable space group: P B C A
;
_chemical_formula_sum "Si O2"
_cell_formula_units_Z 48
_cell_length_a 8.880160
_cell_length_b 22.897796
_cell_length_c 8.702431
_cell_angle_alpha 90.000000
_cell_angle_beta 90.000000
_cell_angle_gamma 90.000000
_cell_volume 1769.518312
_symmetry_space_group_name_H-M "P B C A"
_symmetry_group_IT_number 61
_symmetry_cell_setting 'orthorhombic'
loop_
_space_group_symop_operation_xyz
x,y,z
1/2-x,-y,1/2+z
1/2+x,1/2-y,-z
-x,1/2+y,1/2-z
-x,-y,-z
1/2+x,y,1/2-z
1/2-x,1/2+y,z
x,1/2-y,1/2+z
loop_
_atom_site_type_symbol
_atom_site_label
_atom_site_fract_x
_atom_site_fract_y
_atom_site_fract_z
Si Si1 0.998796 0.799726 0.076727
Si Si2 0.258555 0.362923 0.592590
Si Si3 0.857937 0.422784 0.395577
Si Si4 0.264243 0.712367 0.369962
Si Si5 0.034657 0.457255 0.698019
Si Si6 0.046262 0.107906 0.517236
O O1 0.884117 0.761883 0.180000
O O2 0.071119 0.859518 0.138906
O O3 0.134457 0.767102 0.988344
O O4 0.883100 0.824030 0.952489
O O5 0.317629 0.326295 0.739198
O O6 0.183602 0.424417 0.635867
O O7 0.375531 0.372065 0.455378
O O8 0.930755 0.474483 0.298952
O O9 0.677563 0.420960 0.382617
O O10 0.906211 0.440660 0.572298
O O11 0.367089 0.665757 0.458963
O O12 0.014742 0.432180 0.867287
#
# Coordination Sequence:
#
# PCOD9459038 Si02
#       6
#     8   8   8   8   8   8
#     4  10  20  34  55  82 112 144 183 233 282 329
#     4  10  19  33  56  82 106 142 188 230 275 332
#     4   9  19  33  53  81 111 145 182 227 279 326
#     4  10  19  32  53  80 109 143 183 226 276 336
#     4   9  17  32  53  78 110 146 182 221 272 333
#     4  10  18  32  56  82 106 142 188 226 270 331
#
# _framework density 27.126028000000002
#
# number of rings (size 3 to 8) (size 9 to 14) (size 15 to 20)
#    0.000    2.333    0.000    6.000    0.000    0.667 
#    0.000    0.000    0.000   34.000    0.000    2.333 
#    0.000    0.000    0.000    0.000    0.000    0.000 
#
# Total GULP energy -268458.437844 kJ/mol
# GULP energy per Si atom -5592.884122 kJ/mol
# Density = 2.706429 g / cm^3
# Si number density = 27.126028 Si / 1000 Ang^3
#
#
#
# Elastic Constant Matrix: (Units=GPa)
#
#
# Indices 1 2 3 4 5 6 
#
# 1 186.2705 55.5810 35.8790 0.0000 0.0000 0.0000
# 2 55.5810 140.1998 35.3700 0.0000 0.0000 0.0000
# 3 35.8790 35.3700 45.9521 0.0000 0.0000 0.0000
# 4 0.0000 0.0000 0.0000 22.0491 0.0000 0.0000
# 5 0.0000 0.0000 0.0000 0.0000 29.0134 0.0000
# 6 0.0000 0.0000 0.0000 0.0000 0.0000 3.4157
#
#
#
# Elastic Compliance Matrix: (Units=1/GPa)
#
#
# Indices 1 2 3 4 5 6 
#
# 1 0.006608 -0.001636 -0.003900 0.000000 0.000000 0.000000
# 2 -0.001636 0.009256 -0.005848 0.000000 0.000000 0.000000
# 3 -0.003900 -0.005848 0.029308 0.000000 0.000000 0.000000
# 4 0.000000 0.000000 0.000000 0.045353 0.000000 0.000000
# 5 0.000000 0.000000 0.000000 0.000000 0.034467 0.000000
# 6 0.000000 0.000000 0.000000 0.000000 0.000000 0.292764
#
#
# Mechanical properties :
#
#
# Convention : Reuss Voigt Hill
#
# Bulk Modulus (GPa) = 44.63277 69.56472 57.09874
# Shear Modulus (GPa) = 11.16090 27.26847 19.21468
#
# Velocity S-wave (km/s) = 2.03061 3.17401 2.66437
# Velocity P-wave (km/s) = 4.68908 6.25565 5.52814
#
# Compressibility (1/GPa) = 0.02240506
#
# Stress axis : x y z
#
# Youngs Moduli (GPa) = 151.33456 108.03353 34.12005
#
# Poissons Ratio (x) = 0.17670 0.13308
# Poissons Ratio (y) = 0.24753 0.19952
# Poissons Ratio (z) = 0.59027 0.63175
#
# Static dielectric constant tensor:
#      x y z
#    x 2.088430 0.000000 0.000000 
#    y 0.000000 2.136430 0.000000 
#    z 0.000000 0.000000 2.169730 
# 
# From -- ./inp_files/4854.got.cif
#   From: 2010.05.17/outbox.cif.g08.bks.cpg/sg61_3_cif.got.tgz:4854.got - 2010.06.03 15:17:17.
