data_PCOD9459848
_publ_section_title
;
Structure prediction by ZEFSAII (Michael W. Deem and Ramdas Pophale) SiO2 
 PCOD9459848
Probable space group: P B C A
;
_chemical_formula_sum "Si O2"
_cell_formula_units_Z 40
_cell_length_a 12.461721
_cell_length_b 22.305603
_cell_length_c 5.302092
_cell_angle_alpha 90.000000
_cell_angle_beta 90.000000
_cell_angle_gamma 90.000000
_cell_volume 1473.802372
_symmetry_space_group_name_H-M "P B C A"
_symmetry_group_IT_number 61
_symmetry_cell_setting 'orthorhombic'
loop_
_space_group_symop_operation_xyz
x,y,z
1/2-x,-y,1/2+z
1/2+x,1/2-y,-z
-x,1/2+y,1/2-z
-x,-y,-z
1/2+x,y,1/2-z
1/2-x,1/2+y,z
x,1/2-y,1/2+z
loop_
_atom_site_type_symbol
_atom_site_label
_atom_site_fract_x
_atom_site_fract_y
_atom_site_fract_z
Si Si1 0.056285 0.596050 0.849910
Si Si2 0.363651 0.824348 0.100319
Si Si3 0.918865 0.221540 0.731907
Si Si4 0.738819 0.360458 0.894840
Si Si5 0.317898 0.512482 0.177907
O O1 0.084457 0.653022 0.669798
O O2 0.083279 0.531908 0.737463
O O3 0.936659 0.614574 0.921278
O O4 0.142949 0.609540 0.072699
O O5 0.453978 0.774520 0.156804
O O6 0.290930 0.828127 0.345515
O O7 0.293648 0.823638 0.850109
O O8 0.877125 0.235821 0.450168
O O9 0.661222 0.419262 0.893909
O O10 0.247407 0.512744 0.435931
#
# Coordination Sequence:
#
# PCOD9459848 Si02
#       5
#     8   8   8   8   8
#     4   9  24  41  65  91 131 162 207 256 308 367
#     4  10  24  38  65  90 123 164 208 255 306 365
#     4  10  22  43  63  86 124 161 207 267 313 352
#     4  11  21  41  63  95 127 163 206 248 310 384
#     4  10  21  37  62  94 131 167 196 254 306 368
#
# _framework density 27.14068
#
# number of rings (size 3 to 8) (size 9 to 14) (size 15 to 20)
#    1.200    0.800    0.000    3.600    0.000   11.200 
#    0.000    6.000    0.000    0.000    0.000    0.000 
#    0.000    0.000    0.000    0.000    0.000    0.000 
#
# Total GULP energy -223272.944666 kJ/mol
# GULP energy per Si atom -5581.823617 kJ/mol
# Density = 2.707891 g / cm^3
# Si number density = 27.140680 Si / 1000 Ang^3
#
#
#
# Elastic Constant Matrix: (Units=GPa)
#
#
# Indices 1 2 3 4 5 6 
#
# 1 99.8872 -13.0998 74.2602 0.0000 0.0000 0.0000
# 2 -13.0998 69.5865 16.3261 0.0000 0.0000 0.0000
# 3 74.2602 16.3261 200.4200 0.0000 0.0000 0.0000
# 4 0.0000 0.0000 0.0000 31.6596 0.0000 0.0000
# 5 0.0000 0.0000 0.0000 0.0000 42.7974 0.0000
# 6 0.0000 0.0000 0.0000 0.0000 0.0000 45.5185
#
#
#
# Elastic Compliance Matrix: (Units=1/GPa)
#
#
# Indices 1 2 3 4 5 6 
#
# 1 0.014925 0.004187 -0.005871 0.000000 0.000000 0.000000
# 2 0.004187 0.015825 -0.002841 0.000000 0.000000 0.000000
# 3 -0.005871 -0.002841 0.007396 0.000000 0.000000 0.000000
# 4 0.000000 0.000000 0.000000 0.031586 0.000000 0.000000
# 5 0.000000 0.000000 0.000000 0.000000 0.023366 0.000000
# 6 0.000000 0.000000 0.000000 0.000000 0.000000 0.021969
#
#
# Mechanical properties :
#
#
# Convention : Reuss Voigt Hill
#
# Bulk Modulus (GPa) = 34.36690 58.31854 46.34272
# Shear Modulus (GPa) = 37.36456 43.48890 40.42673
#
# Velocity S-wave (km/s) = 3.71442 4.00728 3.86362
# Velocity P-wave (km/s) = 5.57547 6.55326 6.08404
#
# Compressibility (1/GPa) = 0.02909777
#
# Stress axis : x y z
#
# Youngs Moduli (GPa) = 66.99991 63.18994 135.20162
#
# Poissons Ratio (x) = -0.26459 0.79381
# Poissons Ratio (y) = -0.28054 0.38405
# Poissons Ratio (z) = 0.39338 0.17950
#
# Static dielectric constant tensor:
#      x y z
#    x 2.207250 0.000000 0.000000 
#    y 0.000000 2.181570 0.000000 
#    z 0.000000 0.000000 2.056690 
# 
# From -- ./inp_files/444.got.cif
#   From: 2010.05.17/outbox.cif.g08.bks.cpg/sg61_1_cif.got.tgz:444.got - 2010.06.03 15:17:17.
