data_PCOD9459881
_publ_section_title
;
Structure prediction by ZEFSAII (Michael W. Deem and Ramdas Pophale) SiO2 
 PCOD9459881
Probable space group: P B C A
;
_chemical_formula_sum "Si O2"
_cell_formula_units_Z 64
_cell_length_a 19.436404
_cell_length_b 7.880481
_cell_length_c 16.079449
_cell_angle_alpha 90.000000
_cell_angle_beta 90.000000
_cell_angle_gamma 90.000000
_cell_volume 2462.860460
_symmetry_space_group_name_H-M "P B C A"
_symmetry_group_IT_number 61
_symmetry_cell_setting 'orthorhombic'
loop_
_space_group_symop_operation_xyz
x,y,z
1/2-x,-y,1/2+z
1/2+x,1/2-y,-z
-x,1/2+y,1/2-z
-x,-y,-z
1/2+x,y,1/2-z
1/2-x,1/2+y,z
x,1/2-y,1/2+z
loop_
_atom_site_type_symbol
_atom_site_label
_atom_site_fract_x
_atom_site_fract_y
_atom_site_fract_z
Si Si1 0.730714 0.224686 0.194448
Si Si2 0.472632 0.889814 0.328225
Si Si3 0.937030 0.345717 0.080953
Si Si4 0.908784 0.544781 0.244509
Si Si5 0.152817 0.542279 0.244726
Si Si6 0.697316 0.735133 0.019868
Si Si7 0.305656 0.587000 0.566202
Si Si8 0.430843 0.725340 0.498581
O O1 0.670350 0.108340 0.235470
O O2 0.697778 0.409736 0.200859
O O3 0.753726 0.199218 0.098953
O O4 0.801302 0.209045 0.245859
O O5 0.452316 0.714699 0.280013
O O6 0.422656 0.025580 0.282512
O O7 0.549440 0.343818 0.078090
O O8 0.551291 0.952570 0.320043
O O9 0.919658 0.407809 0.171950
O O10 0.881242 0.213024 0.046342
O O11 0.011725 0.267079 0.069113
O O12 0.934422 0.527557 0.032260
O O13 0.160163 0.476547 0.150856
O O14 0.727489 0.649314 0.937353
O O15 0.697617 0.932424 0.997586
O O16 0.354260 0.739278 0.533711
#
# Coordination Sequence:
#
# PCOD9459881 Si02
#       8
#     8   8   8   8   8   8   8   8
#     4  11  23  41  64  93 132 173 218 273 334 394
#     4  10  22  39  62  91 128 170 213 260 323 389
#     4   9  18  35  59  86 117 158 212 259 315 382
#     4  10  21  38  61  90 126 170 217 270 324 386
#     4  11  23  40  63  94 130 169 217 275 329 389
#     4  11  22  39  64  92 125 171 217 267 330 399
#     4  11  22  39  63  91 126 166 215 268 329 392
#     4   9  19  37  60  87 122 164 207 262 318 380
#
# _framework density 25.986042999999999
#
# number of rings (size 3 to 8) (size 9 to 14) (size 15 to 20)
#    0.000    1.750    0.000    6.000    0.000    4.000 
#    0.000    0.000    0.000    6.750    0.000    0.000 
#    0.000    0.000    0.000    0.000    0.000    0.000 
#
# Total GULP energy -357694.150382 kJ/mol
# GULP energy per Si atom -5588.971100 kJ/mol
# Density = 2.592690 g / cm^3
# Si number density = 25.986043 Si / 1000 Ang^3
#
#
#
# Elastic Constant Matrix: (Units=GPa)
#
#
# Indices 1 2 3 4 5 6 
#
# 1 144.5566 48.1242 39.2292 0.0000 0.0000 0.0000
# 2 48.1242 59.4773 9.4972 0.0000 0.0000 0.0000
# 3 39.2292 9.4972 83.0913 0.0000 0.0000 0.0000
# 4 0.0000 0.0000 0.0000 16.3652 0.0000 0.0000
# 5 0.0000 0.0000 0.0000 0.0000 5.4255 0.0000
# 6 0.0000 0.0000 0.0000 0.0000 0.0000 42.5084
#
#
#
# Elastic Compliance Matrix: (Units=1/GPa)
#
#
# Indices 1 2 3 4 5 6 
#
# 1 0.010704 -0.008000 -0.004139 0.000000 0.000000 0.000000
# 2 -0.008000 0.023105 0.001136 0.000000 0.000000 0.000000
# 3 -0.004139 0.001136 0.013859 0.000000 0.000000 0.000000
# 4 0.000000 0.000000 0.000000 0.061105 0.000000 0.000000
# 5 0.000000 0.000000 0.000000 0.000000 0.184314 0.000000
# 6 0.000000 0.000000 0.000000 0.000000 0.000000 0.023525
#
#
# Mechanical properties :
#
#
# Convention : Reuss Voigt Hill
#
# Bulk Modulus (GPa) = 38.96824 53.42514 46.19669
# Shear Modulus (GPa) = 14.40205 25.54480 19.97343
#
# Velocity S-wave (km/s) = 2.35675 3.13872 2.77541
# Velocity P-wave (km/s) = 4.73646 5.80854 5.29968
#
# Compressibility (1/GPa) = 0.02566192
#
# Stress axis : x y z
#
# Youngs Moduli (GPa) = 93.42014 43.28114 72.15342
#
# Poissons Ratio (x) = 0.34625 0.29867
# Poissons Ratio (y) = 0.74737 -0.08198
# Poissons Ratio (z) = 0.38670 -0.04918
#
# Static dielectric constant tensor:
#      x y z
#    x 2.073660 0.000000 0.000000 
#    y 0.000000 2.105350 0.000000 
#    z 0.000000 0.000000 2.042810 
# 
# From -- ./inp_files/9778.got.cif
#   From: 2010.05.17/outbox.cif.g08.bks.cpg/sg61_5_cif.got.tgz:9778.got - 2010.06.03 15:17:17.
