data_PCOD9459920
_publ_section_title
;
Structure prediction by ZEFSAII (Michael W. Deem and Ramdas Pophale) SiO2 
 PCOD9459920
Probable space group: P B C A
;
_chemical_formula_sum "Si O2"
_cell_formula_units_Z 56
_cell_length_a 12.805901
_cell_length_b 9.600287
_cell_length_c 20.123934
_cell_angle_alpha 90.000000
_cell_angle_beta 90.000000
_cell_angle_gamma 90.000000
_cell_volume 2474.042984
_symmetry_space_group_name_H-M "P B C A"
_symmetry_group_IT_number 61
_symmetry_cell_setting 'orthorhombic'
loop_
_space_group_symop_operation_xyz
x,y,z
1/2-x,-y,1/2+z
1/2+x,1/2-y,-z
-x,1/2+y,1/2-z
-x,-y,-z
1/2+x,y,1/2-z
1/2-x,1/2+y,z
x,1/2-y,1/2+z
loop_
_atom_site_type_symbol
_atom_site_label
_atom_site_fract_x
_atom_site_fract_y
_atom_site_fract_z
Si Si1 0.285586 0.093196 0.200195
Si Si2 0.324959 0.676592 0.618169
Si Si3 0.664372 0.571693 0.684666
Si Si4 0.381769 0.400482 0.066643
Si Si5 0.533341 0.814848 0.292631
Si Si6 0.829212 0.781298 0.632615
Si Si7 0.580603 0.303313 0.992698
O O1 0.317707 0.976492 0.147561
O O2 0.238012 0.003979 0.260102
O O3 0.200138 0.204120 0.172380
O O4 0.388504 0.183640 0.214310
O O5 0.225093 0.682780 0.569039
O O6 0.420883 0.700208 0.569786
O O7 0.556675 0.604470 0.724010
O O8 0.722123 0.709303 0.657431
O O9 0.661184 0.448227 0.631669
O O10 0.423456 0.399405 0.142977
O O11 0.465198 0.327478 0.019954
O O12 0.373886 0.555352 0.039109
O O13 0.418105 0.771202 0.314844
O O14 0.855780 0.731915 0.558833
#
# Coordination Sequence:
#
# PCOD9459920 Si02
#       7
#     8   8   8   8   8   8   8
#     4  11  20  38  65  91 117 156 223 256 301 362
#     4  11  19  36  66  91 116 159 205 266 302 363
#     4  12  22  42  63  90 127 170 212 260 315 377
#     4   9  19  38  63  87 122 166 204 257 309 377
#     4  10  22  42  63  93 126 162 222 262 311 379
#     4  11  27  39  64  93 134 168 205 262 327 390
#     4  10  21  39  60  92 129 161 203 250 327 381
#
# _framework density 22.635014000000002
#
# number of rings (size 3 to 8) (size 9 to 14) (size 15 to 20)
#    0.000    1.429    5.714    0.000    4.000    0.000 
#    0.000    7.857    0.000    0.000    0.000    0.000 
#    0.000    0.000    0.000    0.000    0.000    0.000 
#
# Total GULP energy -312807.715998 kJ/mol
# GULP energy per Si atom -5585.852071 kJ/mol
# Density = 2.258350 g / cm^3
# Si number density = 22.635014 Si / 1000 Ang^3
#
#
#
# Elastic Constant Matrix: (Units=GPa)
#
#
# Indices 1 2 3 4 5 6 
#
# 1 12.6127 -9.2816 0.7873 0.0000 0.0000 0.0000
# 2 -9.2816 78.4207 25.0998 0.0000 0.0000 0.0000
# 3 0.7873 25.0998 44.8167 0.0000 0.0000 0.0000
# 4 0.0000 0.0000 0.0000 38.6731 0.0000 0.0000
# 5 0.0000 0.0000 0.0000 0.0000 28.0326 0.0000
# 6 0.0000 0.0000 0.0000 0.0000 0.0000 24.3144
#
#
#
# Elastic Compliance Matrix: (Units=1/GPa)
#
#
# Indices 1 2 3 4 5 6 
#
# 1 0.089845 0.013572 -0.009179 0.000000 0.000000 0.000000
# 2 0.013572 0.017587 -0.010088 0.000000 0.000000 0.000000
# 3 -0.009179 -0.010088 0.028124 0.000000 0.000000 0.000000
# 4 0.000000 0.000000 0.000000 0.025858 0.000000 0.000000
# 5 0.000000 0.000000 0.000000 0.000000 0.035673 0.000000
# 6 0.000000 0.000000 0.000000 0.000000 0.000000 0.041128
#
#
# Mechanical properties :
#
#
# Convention : Reuss Voigt Hill
#
# Bulk Modulus (GPa) = 8.05378 18.78459 13.41918
# Shear Modulus (GPa) = 17.18244 26.15365 21.66804
#
# Velocity S-wave (km/s) = 2.75818 3.40288 3.09735
# Velocity P-wave (km/s) = 3.70260 4.87405 4.32814
#
# Compressibility (1/GPa) = 0.12416533
#
# Stress axis : x y z
#
# Youngs Moduli (GPa) = 11.13022 56.86054 35.55648
#
# Poissons Ratio (x) = -0.77170 0.32638
# Poissons Ratio (y) = -0.15106 0.35870
# Poissons Ratio (z) = 0.10217 0.57361
#
# Static dielectric constant tensor:
#      x y z
#    x 1.875510 0.000000 0.000000 
#    y 0.000000 1.889370 0.000000 
#    z 0.000000 0.000000 1.851190 
# 
# From -- ./inp_files/10466.got.cif
#   From: 2010.05.17/outbox.cif.g08.bks.cpg/sg61_6_cif.got.tgz:10466.got - 2010.06.03 15:17:17.
