data_PCOD9459104
_publ_section_title
;
Structure prediction by ZEFSAII (Michael W. Deem and Ramdas Pophale) SiO2 
 PCOD9459104
Probable space group: P B C A
;
_chemical_formula_sum "Si O2"
_cell_formula_units_Z 52
_cell_length_a 20.179638
_cell_length_b 14.722178
_cell_length_c 8.057189
_cell_angle_alpha 90.000000
_cell_angle_beta 90.000000
_cell_angle_gamma 90.000000
_cell_volume 2393.695959
_symmetry_space_group_name_H-M "P B C A"
_symmetry_group_IT_number 61
_symmetry_cell_setting 'orthorhombic'
loop_
_space_group_symop_operation_xyz
x,y,z
1/2-x,-y,1/2+z
1/2+x,1/2-y,-z
-x,1/2+y,1/2-z
-x,-y,-z
1/2+x,y,1/2-z
1/2-x,1/2+y,z
x,1/2-y,1/2+z
loop_
_atom_site_type_symbol
_atom_site_label
_atom_site_fract_x
_atom_site_fract_y
_atom_site_fract_z
Si Si1 0.215365 0.000423 0.602237
Si Si2 0.420176 0.168247 0.593016
Si Si3 0.116145 0.862994 0.473423
Si Si4 0.000000 0.000000 0.500000
Si Si5 0.389584 0.632035 0.479183
Si Si6 0.351888 0.502720 0.961548
Si Si7 0.425235 0.822954 0.357456
O O1 0.184893 0.912405 0.512339
O O2 0.186722 0.999516 0.787082
O O3 0.181553 0.086779 0.510637
O O4 0.293976 0.001676 0.596890
O O5 0.400320 0.143148 0.779639
O O6 0.385348 0.261243 0.541757
O O7 0.399257 0.083493 0.480397
O O8 0.498709 0.184709 0.589993
O O9 0.056742 0.923609 0.550703
O O10 0.940696 0.941006 0.594394
O O11 0.389868 0.726911 0.385298
O O12 0.421320 0.648064 0.664012
O O13 0.391450 0.596692 0.961081
#
# Coordination Sequence:
#
# PCOD9459104 Si02
#       7
#     8   8   8   4   8   8   8
#     4  10  24  45  63  94 124 180 213 271 317 384
#     4  12  22  41  64 101 127 171 206 272 320 392
#     4  11  23  39  67  93 133 165 216 260 329 376
#     4  10  18  38  58  92 124 164 194 260 308 384
#     4  10  22  39  65  90 131 159 213 256 323 373
#     4  11  25  43  65  91 134 167 227 260 324 382
#     4  11  22  41  62 101 124 168 205 269 315 391
#
# _framework density 21.723727
#
# number of rings (size 3 to 8) (size 9 to 14) (size 15 to 20)
#    0.000    1.231    3.077    2.308    0.000    4.923 
#    5.538    3.077    0.000    0.000    0.000    0.000 
#    0.000    0.000    0.000    0.000    0.000    0.000 
#
# Total GULP energy -289904.166528 kJ/mol
# GULP energy per Si atom -5575.080126 kJ/mol
# Density = 2.167428 g / cm^3
# Si number density = 21.723727 Si / 1000 Ang^3
#
#
#
# Elastic Constant Matrix: (Units=GPa)
#
#
# Indices 1 2 3 4 5 6 
#
# 1 35.9727 12.5855 7.4471 0.0000 0.0000 0.0000
# 2 12.5855 121.9554 4.3485 0.0000 0.0000 0.0000
# 3 7.4471 4.3485 40.7533 0.0000 0.0000 0.0000
# 4 0.0000 0.0000 0.0000 0.9727 0.0000 0.0000
# 5 0.0000 0.0000 0.0000 0.0000 21.7731 0.0000
# 6 0.0000 0.0000 0.0000 0.0000 0.0000 -209.4462
#
#
#
# Elastic Compliance Matrix: (Units=1/GPa)
#
#
# Indices 1 2 3 4 5 6 
#
# 1 0.029880 -0.002900 -0.005151 0.000000 0.000000 0.000000
# 2 -0.002900 0.008512 -0.000378 0.000000 0.000000 0.000000
# 3 -0.005151 -0.000378 0.025519 0.000000 0.000000 0.000000
# 4 0.000000 0.000000 0.000000 1.028053 0.000000 0.000000
# 5 0.000000 0.000000 0.000000 0.000000 0.045928 0.000000
# 6 0.000000 0.000000 0.000000 0.000000 0.000000 -0.004774
#
#
# Mechanical properties :
#
#
# Convention : Reuss Voigt Hill
#
# Bulk Modulus (GPa) = 21.25228 27.49373 24.37301
# Shear Modulus (GPa) = 4.28941 -25.72004 -10.71531
#
# Velocity S-wave (km/s) = 1.40670 -3.44461 -2.22334
# Velocity P-wave (km/s) = 3.52741 1.77112 2.15706
#
# Compressibility (1/GPa) = 0.04705378
#
# Stress axis : x y z
#
# Youngs Moduli (GPa) = 33.46754 117.47474 39.18579
#
# Poissons Ratio (x) = 0.34066 0.20183
# Poissons Ratio (y) = 0.09705 0.01483
# Poissons Ratio (z) = 0.17238 0.04445
#
# Static dielectric constant tensor:
#      x y z
#    x 1.760060 0.000000 0.000000 
#    y 0.000000 1.799810 0.000000 
#    z 0.000000 0.000000 1.872720 
# 
# From -- ./inp_files/3893.got.cif
#   From: 2010.05.17/outbox.cif.g08.bks.cpg/sg61_2_cif.got.tgz:3893.got - 2010.06.03 15:17:17.
