data_PCOD9459084
_publ_section_title
;
Structure prediction by ZEFSAII (Michael W. Deem and Ramdas Pophale) SiO2 
 PCOD9459084
Probable space group: P B C A
;
_chemical_formula_sum "Si O2"
_cell_formula_units_Z 64
_cell_length_a 18.891024
_cell_length_b 15.759697
_cell_length_c 9.544813
_cell_angle_alpha 90.000000
_cell_angle_beta 90.000000
_cell_angle_gamma 90.000000
_cell_volume 2841.651319
_symmetry_space_group_name_H-M "P B C A"
_symmetry_group_IT_number 61
_symmetry_cell_setting 'orthorhombic'
loop_
_space_group_symop_operation_xyz
x,y,z
1/2-x,-y,1/2+z
1/2+x,1/2-y,-z
-x,1/2+y,1/2-z
-x,-y,-z
1/2+x,y,1/2-z
1/2-x,1/2+y,z
x,1/2-y,1/2+z
loop_
_atom_site_type_symbol
_atom_site_label
_atom_site_fract_x
_atom_site_fract_y
_atom_site_fract_z
Si Si1 0.750227 0.225370 0.172903
Si Si2 0.958312 0.127359 0.439764
Si Si3 0.840569 0.113588 0.951487
Si Si4 0.886871 0.885557 0.634424
Si Si5 0.803876 0.973055 0.380570
Si Si6 0.441476 0.057037 0.751265
Si Si7 0.305834 0.170372 0.043938
Si Si8 0.584197 0.505244 0.178638
O O1 0.804932 0.171124 0.074396
O O2 0.673461 0.181483 0.176695
O O3 0.759158 0.313264 0.092628
O O4 0.776638 0.227838 0.330617
O O5 0.960144 0.076471 0.586371
O O6 0.890317 0.187190 0.464744
O O7 0.937300 0.070516 0.304641
O O8 0.037931 0.156784 0.406331
O O9 0.772778 0.066122 0.889229
O O10 0.893078 0.053437 0.040611
O O11 0.890292 0.127813 0.815276
O O12 0.852686 0.931473 0.499806
O O13 0.904003 0.963539 0.741125
O O14 0.797468 0.073145 0.410216
O O15 0.845679 0.960332 0.236863
O O16 0.515416 0.052594 0.669079
#
# Coordination Sequence:
#
# PCOD9459084 Si02
#       8
#     8   8   8   8   8   8   8   8
#     4  11  25  41  60  83 126 159 210 243 304 356
#     4  10  19  37  66  86 120 157 198 238 308 366
#     4  11  23  34  61  94 123 156 194 263 301 355
#     4  10  19  39  65  94 113 160 200 252 297 366
#     4  10  19  36  63  86 120 154 200 244 313 347
#     4  11  19  33  63  99 117 152 197 250 309 360
#     4  11  23  42  58  86 120 166 200 253 293 370
#     4  10  18  36  55  91 125 148 191 252 299 358
#
# _framework density 22.522116
#
# number of rings (size 3 to 8) (size 9 to 14) (size 15 to 20)
#    0.000    1.500    6.250    1.875    3.500    0.000 
#    2.250    1.250    5.500    0.000    0.000    0.000 
#    0.000    0.000    0.000    0.000    0.000    0.000 
#
# Total GULP energy -357082.358936 kJ/mol
# GULP energy per Si atom -5579.411858 kJ/mol
# Density = 2.247085 g / cm^3
# Si number density = 22.522116 Si / 1000 Ang^3
#
#
#
# Elastic Constant Matrix: (Units=GPa)
#
#
# Indices 1 2 3 4 5 6 
#
# 1 130.2966 25.1191 36.2222 0.0000 0.0000 0.0000
# 2 25.1191 19.7201 -2.6657 0.0000 0.0000 0.0000
# 3 36.2222 -2.6657 77.0650 0.0000 0.0000 0.0000
# 4 0.0000 0.0000 0.0000 21.2567 0.0000 0.0000
# 5 0.0000 0.0000 0.0000 0.0000 29.4657 0.0000
# 6 0.0000 0.0000 0.0000 0.0000 0.0000 26.1258
#
#
#
# Elastic Compliance Matrix: (Units=1/GPa)
#
#
# Indices 1 2 3 4 5 6 
#
# 1 0.012847 -0.017262 -0.006636 0.000000 0.000000 0.000000
# 2 -0.017262 0.074141 0.010678 0.000000 0.000000 0.000000
# 3 -0.006636 0.010678 0.016464 0.000000 0.000000 0.000000
# 4 0.000000 0.000000 0.000000 0.047044 0.000000 0.000000
# 5 0.000000 0.000000 0.000000 0.000000 0.033938 0.000000
# 6 0.000000 0.000000 0.000000 0.000000 0.000000 0.038276
#
#
# Mechanical properties :
#
#
# Convention : Reuss Voigt Hill
#
# Bulk Modulus (GPa) = 12.98474 38.27032 25.62753
# Shear Modulus (GPa) = 18.19375 26.59672 22.39523
#
# Velocity S-wave (km/s) = 2.84530 3.44017 3.15678
# Velocity P-wave (km/s) = 4.07089 5.72791 4.96896
#
# Compressibility (1/GPa) = 0.07701350
#
# Stress axis : x y z
#
# Youngs Moduli (GPa) = 77.83783 13.48790 60.73760
#
# Poissons Ratio (x) = 0.23282 0.40303
# Poissons Ratio (y) = 1.34360 -0.64855
# Poissons Ratio (z) = 0.51650 -0.14402
#
# Static dielectric constant tensor:
#      x y z
#    x 1.839710 0.000000 0.000000 
#    y 0.000000 1.960080 0.000000 
#    z 0.000000 0.000000 1.855840 
# 
# From -- ./inp_files/3707.got.cif
#   From: 2010.05.17/outbox.cif.g08.bks.cpg/sg61_2_cif.got.tgz:3707.got - 2010.06.03 15:17:17.
