data_PCOD9459968
_publ_section_title
;
Structure prediction by ZEFSAII (Michael W. Deem and Ramdas Pophale) SiO2 
 PCOD9459968
Probable space group: P B C A
;
_chemical_formula_sum "Si O2"
_cell_formula_units_Z 48
_cell_length_a 15.976223
_cell_length_b 16.522110
_cell_length_c 9.327690
_cell_angle_alpha 90.000000
_cell_angle_beta 90.000000
_cell_angle_gamma 90.000000
_cell_volume 2462.145576
_symmetry_space_group_name_H-M "P B C A"
_symmetry_group_IT_number 61
_symmetry_cell_setting 'orthorhombic'
loop_
_space_group_symop_operation_xyz
x,y,z
1/2-x,-y,1/2+z
1/2+x,1/2-y,-z
-x,1/2+y,1/2-z
-x,-y,-z
1/2+x,y,1/2-z
1/2-x,1/2+y,z
x,1/2-y,1/2+z
loop_
_atom_site_type_symbol
_atom_site_label
_atom_site_fract_x
_atom_site_fract_y
_atom_site_fract_z
Si Si1 0.997344 0.423885 0.397984
Si Si2 0.589906 0.671555 0.432798
Si Si3 0.923030 0.509399 0.891403
Si Si4 0.416866 0.762091 0.398458
Si Si5 0.167561 0.169418 0.621408
Si Si6 0.349887 0.175050 0.737080
O O1 0.907665 0.388992 0.349050
O O2 0.000000 0.500000 0.500000
O O3 0.041804 0.456330 0.256051
O O4 0.046883 0.346371 0.460378
O O5 0.610270 0.581467 0.379181
O O6 0.491344 0.696152 0.417338
O O7 0.619335 0.676205 0.598393
O O8 0.633802 0.738137 0.334870
O O9 0.859890 0.580699 0.933693
O O10 0.000000 0.500000 0.000000
O O11 0.395228 0.786457 0.235118
O O12 0.337063 0.728118 0.483756
O O13 0.253164 0.158067 0.707579
#
# Coordination Sequence:
#
# PCOD9459968 Si02
#       6
#     8   8   8   8   8   8
#     4  10  23  39  62  93 123 166 222 258 304 387
#     4  11  22  42  68  90 125 172 217 257 320 394
#     4  11  21  42  65  89 123 171 215 256 314 387
#     4  10  21  39  66  87 124 168 216 252 315 396
#     4  11  23  42  61  97 129 164 212 268 323 372
#     4  11  24  42  61  96 133 163 212 272 326 373
#
# _framework density 19.495190999999998
#
# number of rings (size 3 to 8) (size 9 to 14) (size 15 to 20)
#    0.000    1.333    3.333    3.000    7.000    0.000 
#    9.000    0.000    0.000    0.000    0.000    0.000 
#    0.000    0.000    0.000    0.000    0.000    0.000 
#
# Total GULP energy -267714.087141 kJ/mol
# GULP energy per Si atom -5577.376815 kJ/mol
# Density = 1.945082 g / cm^3
# Si number density = 19.495191 Si / 1000 Ang^3
#
#
#
# Elastic Constant Matrix: (Units=GPa)
#
#
# Indices 1 2 3 4 5 6 
#
# 1 58.6784 38.8727 16.3679 0.0000 0.0000 0.0000
# 2 38.8727 159.7207 51.6818 0.0000 0.0000 0.0000
# 3 16.3679 51.6818 52.4917 0.0000 0.0000 0.0000
# 4 0.0000 0.0000 0.0000 37.3973 0.0000 0.0000
# 5 0.0000 0.0000 0.0000 0.0000 22.6531 0.0000
# 6 0.0000 0.0000 0.0000 0.0000 0.0000 19.6670
#
#
#
# Elastic Compliance Matrix: (Units=1/GPa)
#
#
# Indices 1 2 3 4 5 6 
#
# 1 0.020485 -0.004283 -0.002170 0.000000 0.000000 0.000000
# 2 -0.004283 0.010084 -0.008593 0.000000 0.000000 0.000000
# 3 -0.002170 -0.008593 0.028187 0.000000 0.000000 0.000000
# 4 0.000000 0.000000 0.000000 0.026740 0.000000 0.000000
# 5 0.000000 0.000000 0.000000 0.000000 0.044144 0.000000
# 6 0.000000 0.000000 0.000000 0.000000 0.000000 0.050847
#
#
# Mechanical properties :
#
#
# Convention : Reuss Voigt Hill
#
# Bulk Modulus (GPa) = 34.88739 53.85950 44.37344
# Shear Modulus (GPa) = 22.71344 26.87468 24.79406
#
# Velocity S-wave (km/s) = 3.41703 3.71688 3.57011
# Velocity P-wave (km/s) = 5.78812 6.79024 6.30911
#
# Compressibility (1/GPa) = 0.02866365
#
# Stress axis : x y z
#
# Youngs Moduli (GPa) = 48.81605 99.16947 35.47689
#
# Poissons Ratio (x) = 0.42478 0.07700
# Poissons Ratio (y) = 0.20910 0.30484
# Poissons Ratio (z) = 0.10595 0.85212
#
# Static dielectric constant tensor:
#      x y z
#    x 1.763890 0.000000 0.000000 
#    y 0.000000 1.707040 0.000000 
#    z 0.000000 0.000000 1.662730 
# 
# From -- ./inp_files/3439.got.cif
#   From: 2010.05.17/outbox.cif.g08.bks.cpg/sg61_2_cif.got.tgz:3439.got - 2010.06.03 15:17:17.
