data_PCOD9459625
_publ_section_title
;
Structure prediction by ZEFSAII (Michael W. Deem and Ramdas Pophale) SiO2 
 PCOD9459625
Probable space group: P B C A
;
_chemical_formula_sum "Si O2"
_cell_formula_units_Z 64
_cell_length_a 13.624253
_cell_length_b 19.717619
_cell_length_c 9.410216
_cell_angle_alpha 90.000000
_cell_angle_beta 90.000000
_cell_angle_gamma 90.000000
_cell_volume 2527.940004
_symmetry_space_group_name_H-M "P B C A"
_symmetry_group_IT_number 61
_symmetry_cell_setting 'orthorhombic'
loop_
_space_group_symop_operation_xyz
x,y,z
1/2-x,-y,1/2+z
1/2+x,1/2-y,-z
-x,1/2+y,1/2-z
-x,-y,-z
1/2+x,y,1/2-z
1/2-x,1/2+y,z
x,1/2-y,1/2+z
loop_
_atom_site_type_symbol
_atom_site_label
_atom_site_fract_x
_atom_site_fract_y
_atom_site_fract_z
Si Si1 0.948255 0.242642 0.658418
Si Si2 0.812093 0.273446 0.909131
Si Si3 0.678529 0.921874 0.890002
Si Si4 0.042589 0.888357 0.959898
Si Si5 0.734895 0.364397 0.436628
Si Si6 0.233727 0.530766 0.802236
Si Si7 0.491152 0.479275 0.215805
Si Si8 0.969135 0.608125 0.971358
O O1 0.909136 0.251797 0.818258
O O2 0.848430 0.226013 0.571169
O O3 0.987913 0.315172 0.602447
O O4 0.011439 0.176771 0.619794
O O5 0.778590 0.347114 0.862338
O O6 0.733661 0.214731 0.900724
O O7 0.702086 0.969797 0.758566
O O8 0.565057 0.903752 0.932052
O O9 0.728671 0.955105 0.030110
O O10 0.020282 0.950052 0.853975
O O11 0.159023 0.879788 0.994131
O O12 0.993877 0.917638 0.103794
O O13 0.732672 0.403930 0.287394
O O14 0.640696 0.384793 0.530515
O O15 0.535432 0.454998 0.364210
O O16 0.376289 0.482710 0.250198
#
# Coordination Sequence:
#
# PCOD9459625 Si02
#       8
#     8   8   8   8   8   8   8   8
#     4  10  20  39  63  91 131 176 220 276 338 403
#     4  10  21  41  65  92 131 173 221 278 336 400
#     4  10  23  42  66  97 134 176 224 281 338 399
#     4   9  19  37  63  95 128 173 228 278 333 406
#     4  10  21  37  62  94 132 173 219 275 336 404
#     4  10  22  41  64  95 131 174 225 275 337 404
#     4   9  19  38  63  91 128 174 226 283 339 399
#     4  10  21  39  62  94 135 175 215 276 345 404
#
# _framework density 25.317059
#
# number of rings (size 3 to 8) (size 9 to 14) (size 15 to 20)
#    0.000    2.250    0.000    3.750    0.000    8.500 
#    0.000   13.750    0.000    4.500    0.000    5.250 
#    0.000    0.000    0.000    0.000    0.000    0.000 
#
# Total GULP energy -358167.461083 kJ/mol
# GULP energy per Si atom -5596.366579 kJ/mol
# Density = 2.525944 g / cm^3
# Si number density = 25.317059 Si / 1000 Ang^3
#
#
#
# Elastic Constant Matrix: (Units=GPa)
#
#
# Indices 1 2 3 4 5 6 
#
# 1 73.2691 33.7549 7.6175 0.0000 0.0000 0.0000
# 2 33.7549 184.0121 28.0287 0.0000 0.0000 0.0000
# 3 7.6175 28.0287 83.2401 0.0000 0.0000 0.0000
# 4 0.0000 0.0000 0.0000 35.6627 0.0000 0.0000
# 5 0.0000 0.0000 0.0000 0.0000 24.4110 0.0000
# 6 0.0000 0.0000 0.0000 0.0000 0.0000 31.6794
#
#
#
# Elastic Compliance Matrix: (Units=1/GPa)
#
#
# Indices 1 2 3 4 5 6 
#
# 1 0.014925 -0.002667 -0.000468 0.000000 0.000000 0.000000
# 2 -0.002667 0.006205 -0.001845 0.000000 0.000000 0.000000
# 3 -0.000468 -0.001845 0.012678 0.000000 0.000000 0.000000
# 4 0.000000 0.000000 0.000000 0.028040 0.000000 0.000000
# 5 0.000000 0.000000 0.000000 0.000000 0.040965 0.000000
# 6 0.000000 0.000000 0.000000 0.000000 0.000000 0.031566
#
#
# Mechanical properties :
#
#
# Convention : Reuss Voigt Hill
#
# Bulk Modulus (GPa) = 41.93200 53.25816 47.59508
# Shear Modulus (GPa) = 32.83240 36.42530 34.62885
#
# Velocity S-wave (km/s) = 3.60509 3.79722 3.70240
# Velocity P-wave (km/s) = 5.82474 6.34880 6.09241
#
# Compressibility (1/GPa) = 0.02384814
#
# Stress axis : x y z
#
# Youngs Moduli (GPa) = 66.99950 161.16937 78.87943
#
# Poissons Ratio (x) = 0.42978 0.03691
# Poissons Ratio (y) = 0.17866 0.14555
# Poissons Ratio (z) = 0.03135 0.29739
#
# Static dielectric constant tensor:
#      x y z
#    x 2.073720 0.000000 0.000000 
#    y 0.000000 2.022100 0.000000 
#    z 0.000000 0.000000 1.988090 
# 
# From -- ./inp_files/4396.got.cif
#   From: 2010.05.17/outbox.cif.g08.bks.cpg/sg61_3_cif.got.tgz:4396.got - 2010.06.03 15:17:17.
