data_PCOD9459734
_publ_section_title
;
Structure prediction by ZEFSAII (Michael W. Deem and Ramdas Pophale) SiO2 
 PCOD9459734
Probable space group: P B C A
;
_chemical_formula_sum "Si O2"
_cell_formula_units_Z 64
_cell_length_a 24.162025
_cell_length_b 8.695810
_cell_length_c 13.068045
_cell_angle_alpha 90.000000
_cell_angle_beta 90.000000
_cell_angle_gamma 90.000000
_cell_volume 2745.705747
_symmetry_space_group_name_H-M "P B C A"
_symmetry_group_IT_number 61
_symmetry_cell_setting 'orthorhombic'
loop_
_space_group_symop_operation_xyz
x,y,z
1/2-x,-y,1/2+z
1/2+x,1/2-y,-z
-x,1/2+y,1/2-z
-x,-y,-z
1/2+x,y,1/2-z
1/2-x,1/2+y,z
x,1/2-y,1/2+z
loop_
_atom_site_type_symbol
_atom_site_label
_atom_site_fract_x
_atom_site_fract_y
_atom_site_fract_z
Si Si1 0.689107 0.294150 0.170639
Si Si2 0.302978 0.069060 0.802531
Si Si3 0.822767 0.555270 0.894478
Si Si4 0.924064 0.594007 0.653599
Si Si5 0.552034 0.429010 0.378645
Si Si6 0.517795 0.760299 0.952123
Si Si7 0.284804 0.204665 0.574991
Si Si8 0.875897 0.203730 0.078159
O O1 0.748166 0.365601 0.140117
O O2 0.678537 0.389170 0.276728
O O3 0.630684 0.317524 0.113535
O O4 0.696215 0.114102 0.193067
O O5 0.299062 0.124267 0.684197
O O6 0.355070 0.148372 0.858945
O O7 0.886485 0.558016 0.926566
O O8 0.779360 0.669380 0.947856
O O9 0.799110 0.383834 0.908474
O O10 0.940237 0.642152 0.767586
O O11 0.903536 0.418660 0.653386
O O12 0.978679 0.626528 0.588725
O O13 0.513216 0.329792 0.449978
O O14 0.524974 0.598449 0.373215
O O15 0.578883 0.722002 0.989558
O O16 0.322319 0.142911 0.482817
#
# Coordination Sequence:
#
# PCOD9459734 Si02
#       8
#     8   8   8   8   8   8   8   8
#     4  10  22  42  69 102 133 185 233 285 343 425
#     4  11  23  42  67  99 143 181 228 287 357 408
#     4  10  20  42  67 101 135 181 228 283 355 405
#     4  11  26  46  71 103 139 182 238 302 350 419
#     4  10  24  46  72  97 142 182 236 303 350 421
#     4  11  26  46  69 101 133 188 246 282 362 425
#     4  11  23  41  69 100 140 180 223 290 349 420
#     4  12  27  43  67 107 137 185 232 292 348 435
#
# _framework density 23.309124000000001
#
# number of rings (size 3 to 8) (size 9 to 14) (size 15 to 20)
#    0.000    1.250    1.250    5.625    5.250    6.000 
#    0.000    0.000    0.000    0.000    0.000    0.000 
#    0.000    0.000    0.000    0.000    0.000    0.000 
#
# Total GULP energy -357873.722740 kJ/mol
# GULP energy per Si atom -5591.776918 kJ/mol
# Density = 2.325607 g / cm^3
# Si number density = 23.309124 Si / 1000 Ang^3
#
#
#
# Elastic Constant Matrix: (Units=GPa)
#
#
# Indices 1 2 3 4 5 6 
#
# 1 104.6556 3.9605 11.4200 0.0000 0.0000 0.0000
# 2 3.9605 78.4215 2.9432 0.0000 0.0000 0.0000
# 3 11.4200 2.9432 48.9069 0.0000 0.0000 0.0000
# 4 0.0000 0.0000 0.0000 21.9441 0.0000 0.0000
# 5 0.0000 0.0000 0.0000 0.0000 44.6178 0.0000
# 6 0.0000 0.0000 0.0000 0.0000 0.0000 34.1047
#
#
#
# Elastic Compliance Matrix: (Units=1/GPa)
#
#
# Indices 1 2 3 4 5 6 
#
# 1 0.009818 -0.000411 -0.002268 0.000000 0.000000 0.000000
# 2 -0.000411 0.012798 -0.000674 0.000000 0.000000 0.000000
# 3 -0.002268 -0.000674 0.021017 0.000000 0.000000 0.000000
# 4 0.000000 0.000000 0.000000 0.045570 0.000000 0.000000
# 5 0.000000 0.000000 0.000000 0.000000 0.022413 0.000000
# 6 0.000000 0.000000 0.000000 0.000000 0.000000 0.029321
#
#
# Mechanical properties :
#
#
# Convention : Reuss Voigt Hill
#
# Bulk Modulus (GPa) = 27.08027 29.84794 28.46410
# Shear Modulus (GPa) = 31.25936 34.37735 32.81835
#
# Velocity S-wave (km/s) = 3.66605 3.84454 3.75635
# Velocity P-wave (km/s) = 5.43718 5.70441 5.57240
#
# Compressibility (1/GPa) = 0.03692726
#
# Stress axis : x y z
#
# Youngs Moduli (GPa) = 101.85206 78.13935 47.58017
#
# Poissons Ratio (x) = 0.03209 0.10791
# Poissons Ratio (y) = 0.04183 0.03208
# Poissons Ratio (z) = 0.23099 0.05269
#
# Static dielectric constant tensor:
#      x y z
#    x 1.897150 0.000000 0.000000 
#    y 0.000000 1.864700 0.000000 
#    z 0.000000 0.000000 1.910500 
# 
# From -- ./inp_files/8533.got.cif
#   From: 2010.05.17/outbox.cif.g08.bks.cpg/sg61_5_cif.got.tgz:8533.got - 2010.06.03 15:17:17.
