data_PCOD9459081
_publ_section_title
;
Structure prediction by ZEFSAII (Michael W. Deem and Ramdas Pophale) SiO2 
 PCOD9459081
Probable space group: P B C A
;
_chemical_formula_sum "Si O2"
_cell_formula_units_Z 64
_cell_length_a 8.672328
_cell_length_b 23.939721
_cell_length_c 12.968888
_cell_angle_alpha 90.000000
_cell_angle_beta 90.000000
_cell_angle_gamma 90.000000
_cell_volume 2692.511206
_symmetry_space_group_name_H-M "P B C A"
_symmetry_group_IT_number 61
_symmetry_cell_setting 'orthorhombic'
loop_
_space_group_symop_operation_xyz
x,y,z
1/2-x,-y,1/2+z
1/2+x,1/2-y,-z
-x,1/2+y,1/2-z
-x,-y,-z
1/2+x,y,1/2-z
1/2-x,1/2+y,z
x,1/2-y,1/2+z
loop_
_atom_site_type_symbol
_atom_site_label
_atom_site_fract_x
_atom_site_fract_y
_atom_site_fract_z
Si Si1 0.511838 0.168525 0.359244
Si Si2 0.303484 0.614154 0.315122
Si Si3 0.456514 0.288576 0.453575
Si Si4 0.348976 0.032931 0.652919
Si Si5 0.974522 0.885527 0.049804
Si Si6 0.434640 0.464047 0.691550
Si Si7 0.775176 0.208976 0.913759
Si Si8 0.225209 0.642329 0.786545
O O1 0.592587 0.156780 0.251325
O O2 0.335867 0.147588 0.366050
O O3 0.505383 0.232898 0.389481
O O4 0.601395 0.128852 0.440933
O O5 0.194118 0.575278 0.243186
O O6 0.433000 0.572938 0.365037
O O7 0.343279 0.268175 0.545029
O O8 0.627339 0.307944 0.482725
O O9 0.384501 0.331669 0.373673
O O10 0.430175 0.057426 0.551154
O O11 0.330380 0.089178 0.721661
O O12 0.467301 0.994415 0.717455
O O13 0.179001 0.007471 0.634376
O O14 0.862266 0.882739 0.145880
O O15 0.082631 0.832000 0.066589
O O16 0.737785 0.192558 0.794461
#
# Coordination Sequence:
#
# PCOD9459081 Si02
#       8
#     8   8   8   8   8   8   8   8
#     4  10  22  41  60  84 121 167 210 256 307 372
#     4   9  20  41  60  83 118 164 213 255 314 378
#     4  11  23  38  60  89 128 170 208 253 308 380
#     4  10  18  35  65  94 118 159 199 259 330 372
#     4  10  21  39  61  94 127 157 211 262 312 373
#     4   9  18  36  65  84 116 164 203 258 320 385
#     4  10  22  39  58  90 129 168 206 253 304 369
#     4  11  22  39  63  96 131 162 208 260 313 380
#
# _framework density 23.769632000000001
#
# number of rings (size 3 to 8) (size 9 to 14) (size 15 to 20)
#    0.000    2.000    1.250    3.000    3.500    0.000 
#    2.250    8.750    0.000    0.000    0.000    0.000 
#    0.000    0.000    0.000    0.000    0.000    0.000 
#
# Total GULP energy -356665.216758 kJ/mol
# GULP energy per Si atom -5572.894012 kJ/mol
# Density = 2.371553 g / cm^3
# Si number density = 23.769632 Si / 1000 Ang^3
#
#
#
# Elastic Constant Matrix: (Units=GPa)
#
#
# Indices 1 2 3 4 5 6 
#
# 1 105.0129 18.2942 2.8651 0.0000 0.0000 0.0000
# 2 18.2942 64.4899 7.0912 0.0000 0.0000 0.0000
# 3 2.8651 7.0912 36.3870 0.0000 0.0000 0.0000
# 4 0.0000 0.0000 0.0000 -25.8137 0.0000 0.0000
# 5 0.0000 0.0000 0.0000 0.0000 35.2291 0.0000
# 6 0.0000 0.0000 0.0000 0.0000 0.0000 48.1552
#
#
#
# Elastic Compliance Matrix: (Units=1/GPa)
#
#
# Indices 1 2 3 4 5 6 
#
# 1 0.010020 -0.002816 -0.000240 0.000000 0.000000 0.000000
# 2 -0.002816 0.016637 -0.003021 0.000000 0.000000 0.000000
# 3 -0.000240 -0.003021 0.028090 0.000000 0.000000 0.000000
# 4 0.000000 0.000000 0.000000 -0.038739 0.000000 0.000000
# 5 0.000000 0.000000 0.000000 0.000000 0.028386 0.000000
# 6 0.000000 0.000000 0.000000 0.000000 0.000000 0.020766
#
#
# Mechanical properties :
#
#
# Convention : Reuss Voigt Hill
#
# Bulk Modulus (GPa) = 23.47776 29.15455 26.31615
# Shear Modulus (GPa) = 54.63825 23.35673 38.99749
#
# Velocity S-wave (km/s) = 4.79963 3.13809 4.05488
# Velocity P-wave (km/s) = 6.37291 5.04205 5.74614
#
# Compressibility (1/GPa) = 0.04259351
#
# Stress axis : x y z
#
# Youngs Moduli (GPa) = 99.80277 60.10599 35.59993
#
# Poissons Ratio (x) = 0.16926 0.00855
# Poissons Ratio (y) = 0.28104 0.10753
# Poissons Ratio (z) = 0.02397 0.18156
#
# Static dielectric constant tensor:
#      x y z
#    x 1.973910 0.000000 0.000000 
#    y 0.000000 1.979950 0.000000 
#    z 0.000000 0.000000 2.010380 
# 
# From -- ./inp_files/7232.got.cif
#   From: 2010.05.17/outbox.cif.g08.bks.cpg/sg61_4_cif.got.tgz:7232.got - 2010.06.03 15:17:17.
