data_PCOD9459905
_publ_section_title
;
Structure prediction by ZEFSAII (Michael W. Deem and Ramdas Pophale) SiO2 
 PCOD9459905
Probable space group: P B C A
;
_chemical_formula_sum "Si O2"
_cell_formula_units_Z 64
_cell_length_a 13.380007
_cell_length_b 15.271171
_cell_length_c 12.929727
_cell_angle_alpha 90.000000
_cell_angle_beta 90.000000
_cell_angle_gamma 90.000000
_cell_volume 2641.910106
_symmetry_space_group_name_H-M "P B C A"
_symmetry_group_IT_number 61
_symmetry_cell_setting 'orthorhombic'
loop_
_space_group_symop_operation_xyz
x,y,z
1/2-x,-y,1/2+z
1/2+x,1/2-y,-z
-x,1/2+y,1/2-z
-x,-y,-z
1/2+x,y,1/2-z
1/2-x,1/2+y,z
x,1/2-y,1/2+z
loop_
_atom_site_type_symbol
_atom_site_label
_atom_site_fract_x
_atom_site_fract_y
_atom_site_fract_z
Si Si1 0.507070 0.135400 0.159708
Si Si2 0.621651 0.867938 0.416220
Si Si3 0.577384 0.170389 0.463498
Si Si4 0.835072 0.789928 0.166165
Si Si5 0.361462 0.965740 0.706690
Si Si6 0.498931 0.643778 0.571973
Si Si7 0.129470 0.742280 0.273970
Si Si8 0.683522 0.070489 0.850028
O O1 0.570103 0.226432 0.168675
O O2 0.586693 0.060268 0.186883
O O3 0.427762 0.152086 0.251317
O O4 0.463688 0.128913 0.044466
O O5 0.537026 0.851733 0.501234
O O6 0.634634 0.785361 0.340377
O O7 0.735899 0.897952 0.437793
O O8 0.585879 0.948960 0.344088
O O9 0.650497 0.157396 0.560415
O O10 0.616477 0.114226 0.369447
O O11 0.576532 0.272912 0.437862
O O12 0.736882 0.731100 0.175304
O O13 0.826544 0.857905 0.259187
O O14 0.244839 0.990877 0.701551
O O15 0.576902 0.683764 0.653540
O O16 0.427717 0.564701 0.607176
#
# Coordination Sequence:
#
# PCOD9459905 Si02
#       8
#     8   8   8   8   8   8   8   8
#     4  11  22  42  64  96 123 163 217 270 305 393
#     4   9  20  37  63  88 122 169 198 253 324 382
#     4  11  19  37  62  92 120 161 211 261 306 380
#     4  10  21  38  66  88 119 170 211 256 323 376
#     4  10  22  38  63  91 133 157 213 260 323 381
#     4  11  21  38  67  90 124 165 217 260 312 373
#     4  11  20  42  63  87 128 166 209 261 322 378
#     4   9  20  37  59  87 126 163 199 258 317 375
#
# _framework density 24.224896999999999
#
# number of rings (size 3 to 8) (size 9 to 14) (size 15 to 20)
#    0.750    1.000    5.000    0.375    0.000    3.000 
#    2.250    3.125    0.000    0.000    0.000    0.000 
#    0.000    0.000    0.000    0.000    0.000    0.000 
#
# Total GULP energy -357112.576411 kJ/mol
# GULP energy per Si atom -5579.884006 kJ/mol
# Density = 2.416976 g / cm^3
# Si number density = 24.224897 Si / 1000 Ang^3
#
#
#
# Elastic Constant Matrix: (Units=GPa)
#
#
# Indices 1 2 3 4 5 6 
#
# 1 101.1258 -6.0953 20.9682 0.0000 0.0000 0.0000
# 2 -6.0953 47.6226 -7.4964 0.0000 0.0000 0.0000
# 3 20.9682 -7.4964 79.7704 0.0000 0.0000 0.0000
# 4 0.0000 0.0000 0.0000 16.6043 0.0000 0.0000
# 5 0.0000 0.0000 0.0000 0.0000 7.0266 0.0000
# 6 0.0000 0.0000 0.0000 0.0000 0.0000 38.8622
#
#
#
# Elastic Compliance Matrix: (Units=1/GPa)
#
#
# Indices 1 2 3 4 5 6 
#
# 1 0.010499 0.000923 -0.002673 0.000000 0.000000 0.000000
# 2 0.000923 0.021395 0.001768 0.000000 0.000000 0.000000
# 3 -0.002673 0.001768 0.013405 0.000000 0.000000 0.000000
# 4 0.000000 0.000000 0.000000 0.060226 0.000000 0.000000
# 5 0.000000 0.000000 0.000000 0.000000 0.142316 0.000000
# 6 0.000000 0.000000 0.000000 0.000000 0.000000 0.025732
#
#
# Mechanical properties :
#
#
# Convention : Reuss Voigt Hill
#
# Bulk Modulus (GPa) = 22.05837 27.03019 24.54428
# Shear Modulus (GPa) = 17.32219 27.24142 22.28181
#
# Velocity S-wave (km/s) = 2.67696 3.35703 3.03609
# Velocity P-wave (km/s) = 4.32206 5.11942 4.73754
#
# Compressibility (1/GPa) = 0.04533426
#
# Stress axis : x y z
#
# Youngs Moduli (GPa) = 95.25150 46.74017 74.60065
#
# Poissons Ratio (x) = -0.04314 0.19940
# Poissons Ratio (y) = -0.08792 -0.13189
# Poissons Ratio (z) = 0.25460 -0.08263
#
# Static dielectric constant tensor:
#      x y z
#    x 1.972150 0.000000 0.000000 
#    y 0.000000 1.990420 0.000000 
#    z 0.000000 0.000000 1.980910 
# 
# From -- ./inp_files/8018.got.cif
#   From: 2010.05.17/outbox.cif.g08.bks.cpg/sg61_5_cif.got.tgz:8018.got - 2010.06.03 15:17:17.
