data_PCOD9459901
_publ_section_title
;
Structure prediction by ZEFSAII (Michael W. Deem and Ramdas Pophale) SiO2 
 PCOD9459901
Probable space group: P B C A
;
_chemical_formula_sum "Si O2"
_cell_formula_units_Z 32
_cell_length_a 16.807167
_cell_length_b 5.031220
_cell_length_c 16.446827
_cell_angle_alpha 90.000000
_cell_angle_beta 90.000000
_cell_angle_gamma 90.000000
_cell_volume 1390.752815
_symmetry_space_group_name_H-M "P B C A"
_symmetry_group_IT_number 61
_symmetry_cell_setting 'orthorhombic'
loop_
_space_group_symop_operation_xyz
x,y,z
1/2-x,-y,1/2+z
1/2+x,1/2-y,-z
-x,1/2+y,1/2-z
-x,-y,-z
1/2+x,y,1/2-z
1/2-x,1/2+y,z
x,1/2-y,1/2+z
loop_
_atom_site_type_symbol
_atom_site_label
_atom_site_fract_x
_atom_site_fract_y
_atom_site_fract_z
Si Si1 0.700588 0.322623 0.825512
Si Si2 0.462487 0.063132 0.718654
Si Si3 0.699540 0.147542 0.520818
Si Si4 0.975256 0.750229 0.552711
O O1 0.726237 0.022250 0.808056
O O2 0.624594 0.435703 0.779102
O O3 0.684217 0.337875 0.922977
O O4 0.481150 0.300148 0.781851
O O5 0.477406 0.225203 0.635958
O O6 0.770379 0.352831 0.539089
O O7 0.619326 0.234063 0.565020
O O8 0.000000 0.500000 0.500000
O O9 0.000000 0.000000 0.500000
#
# Coordination Sequence:
#
# PCOD9459901 Si02
#       4
#     8   8   8   8
#     4  10  21  39  66  94 126 170 222 267 321 398
#     4  12  26  44  65  99 138 176 220 271 336 401
#     4  10  21  38  64  99 128 162 219 279 325 382
#     4  12  24  42  69  97 130 171 225 275 332 389
#
# _framework density 23.009122000000001
#
# number of rings (size 3 to 8) (size 9 to 14) (size 15 to 20)
#    0.000    1.000    2.500    4.500    7.000    0.000 
#    0.000    7.500    0.000    0.000    0.000    0.000 
#    0.000    0.000    0.000    0.000    0.000    0.000 
#
# Total GULP energy -179073.433976 kJ/mol
# GULP energy per Si atom -5596.044812 kJ/mol
# Density = 2.295675 g / cm^3
# Si number density = 23.009122 Si / 1000 Ang^3
#
#
#
# Elastic Constant Matrix: (Units=GPa)
#
#
# Indices 1 2 3 4 5 6 
#
# 1 78.0067 -3.9112 3.7480 0.0000 0.0000 0.0000
# 2 -3.9112 123.6027 12.3881 0.0000 0.0000 0.0000
# 3 3.7480 12.3881 23.9781 0.0000 0.0000 0.0000
# 4 0.0000 0.0000 0.0000 30.4119 0.0000 0.0000
# 5 0.0000 0.0000 0.0000 0.0000 22.2294 0.0000
# 6 0.0000 0.0000 0.0000 0.0000 0.0000 35.8148
#
#
#
# Elastic Compliance Matrix: (Units=1/GPa)
#
#
# Indices 1 2 3 4 5 6 
#
# 1 0.012965 0.000647 -0.002361 0.000000 0.000000 0.000000
# 2 0.000647 0.008565 -0.004526 0.000000 0.000000 0.000000
# 3 -0.002361 -0.004526 0.044412 0.000000 0.000000 0.000000
# 4 0.000000 0.000000 0.000000 0.032882 0.000000 0.000000
# 5 0.000000 0.000000 0.000000 0.000000 0.044985 0.000000
# 6 0.000000 0.000000 0.000000 0.000000 0.000000 0.027921
#
#
# Mechanical properties :
#
#
# Convention : Reuss Voigt Hill
#
# Bulk Modulus (GPa) = 18.70486 27.78195 23.24340
# Shear Modulus (GPa) = 24.74869 31.91539 28.33204
#
# Velocity S-wave (km/s) = 3.28320 3.72839 3.51285
# Velocity P-wave (km/s) = 4.74547 5.53489 5.15531
#
# Compressibility (1/GPa) = 0.05346205
#
# Stress axis : x y z
#
# Youngs Moduli (GPa) = 77.12910 116.76080 22.51645
#
# Poissons Ratio (x) = -0.07553 0.05316
# Poissons Ratio (y) = -0.04989 0.10191
# Poissons Ratio (z) = 0.18209 0.52845
#
# Static dielectric constant tensor:
#      x y z
#    x 1.873610 0.000000 0.000000 
#    y 0.000000 1.807740 0.000000 
#    z 0.000000 0.000000 1.838270 
# 
# From -- ./inp_files/648.got.cif
#   From: 2010.05.17/outbox.cif.g08.bks.cpg/sg61_1_cif.got.tgz:648.got - 2010.06.03 15:17:17.
