data_PCOD9459423
_publ_section_title
;
Structure prediction by ZEFSAII (Michael W. Deem and Ramdas Pophale) SiO2 
 PCOD9459423
Probable space group: P B C A
;
_chemical_formula_sum "Si O2"
_cell_formula_units_Z 64
_cell_length_a 20.435844
_cell_length_b 5.057503
_cell_length_c 25.797555
_cell_angle_alpha 90.000000
_cell_angle_beta 90.000000
_cell_angle_gamma 90.000000
_cell_volume 2666.289331
_symmetry_space_group_name_H-M "P B C A"
_symmetry_group_IT_number 61
_symmetry_cell_setting 'orthorhombic'
loop_
_space_group_symop_operation_xyz
x,y,z
1/2-x,-y,1/2+z
1/2+x,1/2-y,-z
-x,1/2+y,1/2-z
-x,-y,-z
1/2+x,y,1/2-z
1/2-x,1/2+y,z
x,1/2-y,1/2+z
loop_
_atom_site_type_symbol
_atom_site_label
_atom_site_fract_x
_atom_site_fract_y
_atom_site_fract_z
Si Si1 0.707792 0.283422 0.926718
Si Si2 0.501648 0.186366 0.680447
Si Si3 0.430738 0.808517 0.207552
Si Si4 0.577852 0.505977 0.439262
Si Si5 0.792307 0.659962 0.631061
Si Si6 0.132192 0.251881 0.471391
Si Si7 0.509779 0.993800 0.573978
Si Si8 0.794969 0.860640 0.250080
O O1 0.735449 0.571974 0.912586
O O2 0.639393 0.137992 0.910210
O O3 0.689555 0.330609 0.988205
O O4 0.541687 0.173741 0.733628
O O5 0.473587 0.481452 0.675383
O O6 0.537475 0.058795 0.631460
O O7 0.441274 0.987467 0.688708
O O8 0.355560 0.870396 0.212085
O O9 0.604486 0.503746 0.498586
O O10 0.550403 0.794441 0.427477
O O11 0.518798 0.296513 0.433552
O O12 0.770298 0.355516 0.625930
O O13 0.838328 0.760668 0.585364
O O14 0.817476 0.678719 0.690024
O O15 0.067153 0.430738 0.465540
O O16 0.746468 0.620728 0.257871
#
# Coordination Sequence:
#
# PCOD9459423 Si02
#       8
#     8   8   8   8   8   8   8   8
#     4  10  21  37  58  81 106 150 194 232 281 331
#     4  10  22  36  66  81 121 148 191 245 280 354
#     4  10  20  40  58  94 111 154 191 226 301 354
#     4  10  25  36  62  79 121 151 197 236 279 341
#     4  10  21  35  54  88 121 151 190 230 289 351
#     4  10  23  35  62  82 122 154 189 243 278 361
#     4  12  22  42  55  92 114 154 193 242 298 322
#     4  10  20  35  59  87 120 150 181 234 286 352
#
# _framework density 24.003398000000001
#
# number of rings (size 3 to 8) (size 9 to 14) (size 15 to 20)
#    0.750    1.000    0.000    4.500    0.000    3.000 
#    0.000    5.000    0.000   15.000    0.000    0.000 
#    0.000    0.000    0.000    0.000    0.000    0.000 
#
# Total GULP energy -357156.313864 kJ/mol
# GULP energy per Si atom -5580.567404 kJ/mol
# Density = 2.394877 g / cm^3
# Si number density = 24.003398 Si / 1000 Ang^3
#
#
#
# Elastic Constant Matrix: (Units=GPa)
#
#
# Indices 1 2 3 4 5 6 
#
# 1 56.4927 14.2417 6.7781 0.0000 0.0000 0.0000
# 2 14.2417 100.9068 3.3424 0.0000 0.0000 0.0000
# 3 6.7781 3.3424 64.7060 0.0000 0.0000 0.0000
# 4 0.0000 0.0000 0.0000 22.8863 0.0000 0.0000
# 5 0.0000 0.0000 0.0000 0.0000 26.3488 0.0000
# 6 0.0000 0.0000 0.0000 0.0000 0.0000 12.5791
#
#
#
# Elastic Compliance Matrix: (Units=1/GPa)
#
#
# Indices 1 2 3 4 5 6 
#
# 1 0.018564 -0.002560 -0.001812 0.000000 0.000000 0.000000
# 2 -0.002560 0.010280 -0.000263 0.000000 0.000000 0.000000
# 3 -0.001812 -0.000263 0.015658 0.000000 0.000000 0.000000
# 4 0.000000 0.000000 0.000000 0.043694 0.000000 0.000000
# 5 0.000000 0.000000 0.000000 0.000000 0.037952 0.000000
# 6 0.000000 0.000000 0.000000 0.000000 0.000000 0.079497
#
#
# Mechanical properties :
#
#
# Convention : Reuss Voigt Hill
#
# Bulk Modulus (GPa) = 28.38351 30.09219 29.23785
# Shear Modulus (GPa) = 22.05941 25.54573 23.80257
#
# Velocity S-wave (km/s) = 3.03481 3.26583 3.15244
# Velocity P-wave (km/s) = 4.91229 5.17540 5.04556
#
# Compressibility (1/GPa) = 0.03523173
#
# Stress axis : x y z
#
# Youngs Moduli (GPa) = 53.86703 97.27473 63.86529
#
# Poissons Ratio (x) = 0.24903 0.11575
# Poissons Ratio (y) = 0.13790 0.01679
# Poissons Ratio (z) = 0.09763 0.02557
#
# Static dielectric constant tensor:
#      x y z
#    x 1.921090 0.000000 0.000000 
#    y 0.000000 1.825100 0.000000 
#    z 0.000000 0.000000 2.009400 
# 
# From -- ./inp_files/11855.got.cif
#   From: 2010.05.17/outbox.cif.g08.bks.cpg/sg61_6_cif.got.tgz:11855.got - 2010.06.03 15:17:17.
