data_PCOD9459663
_publ_section_title
;
Structure prediction by ZEFSAII (Michael W. Deem and Ramdas Pophale) SiO2 
 PCOD9459663
Probable space group: P B C A
;
_chemical_formula_sum "Si O2"
_cell_formula_units_Z 64
_cell_length_a 14.657283
_cell_length_b 17.214190
_cell_length_c 9.776889
_cell_angle_alpha 90.000000
_cell_angle_beta 90.000000
_cell_angle_gamma 90.000000
_cell_volume 2466.838682
_symmetry_space_group_name_H-M "P B C A"
_symmetry_group_IT_number 61
_symmetry_cell_setting 'orthorhombic'
loop_
_space_group_symop_operation_xyz
x,y,z
1/2-x,-y,1/2+z
1/2+x,1/2-y,-z
-x,1/2+y,1/2-z
-x,-y,-z
1/2+x,y,1/2-z
1/2-x,1/2+y,z
x,1/2-y,1/2+z
loop_
_atom_site_type_symbol
_atom_site_label
_atom_site_fract_x
_atom_site_fract_y
_atom_site_fract_z
Si Si1 0.612635 0.602671 0.350981
Si Si2 0.036185 0.902433 0.247129
Si Si3 0.603194 0.899078 0.549731
Si Si4 0.742172 0.479462 0.410844
Si Si5 0.168787 0.346916 0.227679
Si Si6 0.922223 0.939064 0.613372
Si Si7 0.120479 0.271592 0.953127
Si Si8 0.912184 0.269913 0.045599
O O1 0.710283 0.561152 0.352417
O O2 0.526541 0.571654 0.440992
O O3 0.625097 0.687351 0.411350
O O4 0.568904 0.589093 0.202227
O O5 0.041870 0.896510 0.083702
O O6 0.085141 0.830573 0.327517
O O7 0.929296 0.890599 0.278675
O O8 0.075092 0.987319 0.285862
O O9 0.673555 0.966408 0.509472
O O10 0.639859 0.810734 0.567092
O O11 0.743538 0.414025 0.292731
O O12 0.655615 0.459461 0.505282
O O13 0.166113 0.295242 0.362974
O O14 0.173017 0.294840 0.091016
O O15 0.895307 0.848465 0.643002
O O16 0.018650 0.251716 0.009864
#
# Coordination Sequence:
#
# PCOD9459663 Si02
#       8
#     8   8   8   8   8   8   8   8
#     4  11  23  43  73  97 128 185 232 271 339 408
#     4  11  21  41  71  94 133 175 229 274 333 405
#     4  12  27  40  64 106 138 171 230 281 337 413
#     4  11  24  45  65  97 139 179 218 282 345 410
#     4  10  20  40  63  92 130 172 219 276 324 389
#     4  10  21  42  70  95 126 178 230 269 332 413
#     4   9  20  34  65  94 122 167 219 274 323 385
#     4  10  21  41  69  93 130 180 224 266 336 413
#
# _framework density 25.944134999999999
#
# number of rings (size 3 to 8) (size 9 to 14) (size 15 to 20)
#    0.000    1.500    3.750    1.875    7.000    0.500 
#   11.250    0.000    0.000    0.000    0.000    0.000 
#    0.000    0.000    0.000    0.000    0.000    0.000 
#
# Total GULP energy -357473.938592 kJ/mol
# GULP energy per Si atom -5585.530290 kJ/mol
# Density = 2.588509 g / cm^3
# Si number density = 25.944135 Si / 1000 Ang^3
#
#
#
# Elastic Constant Matrix: (Units=GPa)
#
#
# Indices 1 2 3 4 5 6 
#
# 1 38.7394 -0.9937 17.6498 0.0000 0.0000 0.0000
# 2 -0.9937 53.5754 12.0286 0.0000 0.0000 0.0000
# 3 17.6498 12.0286 101.0000 0.0000 0.0000 0.0000
# 4 0.0000 0.0000 0.0000 39.0947 0.0000 0.0000
# 5 0.0000 0.0000 0.0000 0.0000 24.5728 0.0000
# 6 0.0000 0.0000 0.0000 0.0000 0.0000 8.7806
#
#
#
# Elastic Compliance Matrix: (Units=1/GPa)
#
#
# Indices 1 2 3 4 5 6 
#
# 1 0.028192 0.001674 -0.005126 0.000000 0.000000 0.000000
# 2 0.001674 0.019277 -0.002588 0.000000 0.000000 0.000000
# 3 -0.005126 -0.002588 0.011105 0.000000 0.000000 0.000000
# 4 0.000000 0.000000 0.000000 0.025579 0.000000 0.000000
# 5 0.000000 0.000000 0.000000 0.000000 0.040695 0.000000
# 6 0.000000 0.000000 0.000000 0.000000 0.000000 0.113888
#
#
# Mechanical properties :
#
#
# Convention : Reuss Voigt Hill
#
# Bulk Modulus (GPa) = 21.50846 27.85381 24.68114
# Shear Modulus (GPa) = 18.77475 25.46494 22.11985
#
# Velocity S-wave (km/s) = 2.69301 3.13634 2.92309
# Velocity P-wave (km/s) = 4.24005 4.88619 4.57454
#
# Compressibility (1/GPa) = 0.04649333
#
# Stress axis : x y z
#
# Youngs Moduli (GPa) = 35.47125 51.87411 90.04953
#
# Poissons Ratio (x) = -0.08682 0.46158
# Poissons Ratio (y) = -0.05937 0.23308
# Poissons Ratio (z) = 0.18182 0.13427
#
# Static dielectric constant tensor:
#      x y z
#    x 2.067620 0.000000 0.000000 
#    y 0.000000 2.197900 0.000000 
#    z 0.000000 0.000000 2.072530 
# 
# From -- ./inp_files/4071.got.cif
#   From: 2010.05.17/outbox.cif.g08.bks.cpg/sg61_3_cif.got.tgz:4071.got - 2010.06.03 15:17:17.
