data_PCOD9459153
_publ_section_title
;
Structure prediction by ZEFSAII (Michael W. Deem and Ramdas Pophale) SiO2 
 PCOD9459153
Probable space group: P B C A
;
_chemical_formula_sum "Si O2"
_cell_formula_units_Z 48
_cell_length_a 24.705317
_cell_length_b 19.420287
_cell_length_c 5.030068
_cell_angle_alpha 90.000000
_cell_angle_beta 90.000000
_cell_angle_gamma 90.000000
_cell_volume 2413.347889
_symmetry_space_group_name_H-M "P B C A"
_symmetry_group_IT_number 61
_symmetry_cell_setting 'orthorhombic'
loop_
_space_group_symop_operation_xyz
x,y,z
1/2-x,-y,1/2+z
1/2+x,1/2-y,-z
-x,1/2+y,1/2-z
-x,-y,-z
1/2+x,y,1/2-z
1/2-x,1/2+y,z
x,1/2-y,1/2+z
loop_
_atom_site_type_symbol
_atom_site_label
_atom_site_fract_x
_atom_site_fract_y
_atom_site_fract_z
Si Si1 0.938863 0.799492 0.950062
Si Si2 0.847464 0.913854 0.966026
Si Si3 0.943579 0.296084 0.443148
Si Si4 0.178997 0.004884 0.555624
Si Si5 0.762776 0.399894 0.224944
Si Si6 0.673360 0.796518 0.561004
O O1 0.933919 0.739035 0.168941
O O2 0.893825 0.857330 0.984340
O O3 0.999346 0.830464 0.988558
O O4 0.853376 0.975991 0.179470
O O5 0.789682 0.879544 0.051291
O O6 0.844046 0.947596 0.678025
O O7 0.943643 0.228988 0.638716
O O8 0.886006 0.329297 0.510452
O O9 0.239481 0.033827 0.617405
O O10 0.188460 0.927639 0.457825
O O11 0.781529 0.346408 0.444353
O O12 0.677020 0.769529 0.860898
#
# Coordination Sequence:
#
# PCOD9459153 Si02
#       6
#     8   8   8   8   8   8
#     4  10  19  32  52  73 103 137 161 203 259 302
#     4  10  20  32  49  76  99 128 172 209 232 298
#     4   8  16  33  49  69  97 132 170 193 241 310
#     4  10  20  35  51  72  95 139 176 193 239 300
#     4  10  21  35  55  69 105 135 169 200 247 297
#     4  10  22  33  52  79 102 128 162 212 254 289
#
# _framework density 19.889384
#
# number of rings (size 3 to 8) (size 9 to 14) (size 15 to 20)
#    1.000    1.333    1.667    1.000    2.333    1.333 
#    0.000    0.000    0.000    2.000    0.000    0.000 
#    0.000    0.000    0.000    0.000    0.000    0.000 
#
# Total GULP energy -267410.924447 kJ/mol
# GULP energy per Si atom -5571.060926 kJ/mol
# Density = 1.984412 g / cm^3
# Si number density = 19.889384 Si / 1000 Ang^3
#
#
#
# Elastic Constant Matrix: (Units=GPa)
#
#
# Indices 1 2 3 4 5 6 
#
# 1 41.3265 3.1857 -7.1700 0.0000 0.0000 0.0000
# 2 3.1857 25.7609 -2.5181 0.0000 0.0000 0.0000
# 3 -7.1700 -2.5181 85.1949 0.0000 0.0000 0.0000
# 4 0.0000 0.0000 0.0000 21.0705 0.0000 0.0000
# 5 0.0000 0.0000 0.0000 0.0000 18.5652 0.0000
# 6 0.0000 0.0000 0.0000 0.0000 0.0000 -22.1904
#
#
#
# Elastic Compliance Matrix: (Units=1/GPa)
#
#
# Indices 1 2 3 4 5 6 
#
# 1 0.024765 -0.002867 0.002000 0.000000 0.000000 0.000000
# 2 -0.002867 0.039263 0.000919 0.000000 0.000000 0.000000
# 3 0.002000 0.000919 0.011933 0.000000 0.000000 0.000000
# 4 0.000000 0.000000 0.000000 0.047460 0.000000 0.000000
# 5 0.000000 0.000000 0.000000 0.000000 0.053864 0.000000
# 6 0.000000 0.000000 0.000000 0.000000 0.000000 -0.045065
#
#
# Mechanical properties :
#
#
# Convention : Reuss Voigt Hill
#
# Bulk Modulus (GPa) = 13.14668 15.47527 14.31097
# Shear Modulus (GPa) = 31.75150 14.07470 22.91310
#
# Velocity S-wave (km/s) = 3.99984 2.66305 3.39783
# Velocity P-wave (km/s) = 5.28733 4.15372 4.75443
#
# Compressibility (1/GPa) = 0.07606482
#
# Stress axis : x y z
#
# Youngs Moduli (GPa) = 40.37880 25.46935 83.79950
#
# Poissons Ratio (x) = 0.07302 -0.16756
# Poissons Ratio (y) = 0.11577 -0.07703
# Poissons Ratio (z) = -0.08074 -0.02341
#
# Static dielectric constant tensor:
#      x y z
#    x 1.740810 0.000000 0.000000 
#    y 0.000000 1.702700 0.000000 
#    z 0.000000 0.000000 1.745760 
# 
# From -- ./inp_files/1184.got.cif
#   From: 2010.05.17/outbox.cif.g08.bks.cpg/sg61_1_cif.got.tgz:1184.got - 2010.06.03 15:17:17.
