data_PCOD9459148
_publ_section_title
;
Structure prediction by ZEFSAII (Michael W. Deem and Ramdas Pophale) SiO2 
 PCOD9459148
Probable space group: P B C A
;
_chemical_formula_sum "Si O2"
_cell_formula_units_Z 64
_cell_length_a 17.540842
_cell_length_b 5.479165
_cell_length_c 28.728648
_cell_angle_alpha 90.000000
_cell_angle_beta 90.000000
_cell_angle_gamma 90.000000
_cell_volume 2761.086444
_symmetry_space_group_name_H-M "P B C A"
_symmetry_group_IT_number 61
_symmetry_cell_setting 'orthorhombic'
loop_
_space_group_symop_operation_xyz
x,y,z
1/2-x,-y,1/2+z
1/2+x,1/2-y,-z
-x,1/2+y,1/2-z
-x,-y,-z
1/2+x,y,1/2-z
1/2-x,1/2+y,z
x,1/2-y,1/2+z
loop_
_atom_site_type_symbol
_atom_site_label
_atom_site_fract_x
_atom_site_fract_y
_atom_site_fract_z
Si Si1 0.412120 0.523918 0.207628
Si Si2 0.095500 0.399514 0.024393
Si Si3 0.079303 0.385717 0.606053
Si Si4 0.937443 0.469631 0.759474
Si Si5 0.295197 0.230021 0.975568
Si Si6 0.704491 0.737263 0.635118
Si Si7 0.452622 0.450064 0.345727
Si Si8 0.969217 0.783660 0.565496
O O1 0.386658 0.505179 0.153819
O O2 0.505526 0.532016 0.215434
O O3 0.389834 0.275685 0.233549
O O4 0.390947 0.782957 0.231019
O O5 0.130734 0.257966 0.068624
O O6 0.014180 0.481519 0.045378
O O7 0.135308 0.647481 0.007748
O O8 0.086716 0.235801 0.977722
O O9 0.017584 0.207130 0.629299
O O10 0.031055 0.580213 0.576802
O O11 0.001725 0.457681 0.801005
O O12 0.241252 0.992667 0.984419
O O13 0.313983 0.228723 0.920500
O O14 0.742719 0.999664 0.644738
O O15 0.624962 0.695772 0.661182
O O16 0.432127 0.656073 0.384667
#
# Coordination Sequence:
#
# PCOD9459148 Si02
#       8
#     8   8   8   8   8   8   8   8
#     4   9  17  30  46  74 103 130 164 195 251 304
#     4  10  21  33  47  77 101 139 177 207 258 308
#     4  10  20  30  51  75 106 142 165 214 258 315
#     4   9  17  29  49  71 101 133 160 201 243 312
#     4  10  22  37  53  69  96 136 177 219 251 291
#     4  10  22  35  50  71  97 135 175 218 251 297
#     4  10  19  32  50  74 103 137 173 205 264 315
#     4  10  19  32  49  74 108 136 167 209 256 315
#
# _framework density 23.179283000000002
#
# number of rings (size 3 to 8) (size 9 to 14) (size 15 to 20)
#    0.000    2.250    2.500    0.375    3.500    1.000 
#    0.000    0.000    0.000    0.000    0.000    1.750 
#    0.000    0.000    0.000    0.000    0.000    0.000 
#
# Total GULP energy -356601.882975 kJ/mol
# GULP energy per Si atom -5571.904421 kJ/mol
# Density = 2.312653 g / cm^3
# Si number density = 23.179283 Si / 1000 Ang^3
#
#
#
# Elastic Constant Matrix: (Units=GPa)
#
#
# Indices 1 2 3 4 5 6 
#
# 1 29.9735 -9.5983 2.9562 0.0000 0.0000 0.0000
# 2 -9.5983 104.0723 12.4577 0.0000 0.0000 0.0000
# 3 2.9562 12.4577 111.5562 0.0000 0.0000 0.0000
# 4 0.0000 0.0000 0.0000 29.5306 0.0000 0.0000
# 5 0.0000 0.0000 0.0000 0.0000 14.2074 0.0000
# 6 0.0000 0.0000 0.0000 0.0000 0.0000 21.4409
#
#
#
# Elastic Compliance Matrix: (Units=1/GPa)
#
#
# Indices 1 2 3 4 5 6 
#
# 1 0.034560 0.003342 -0.001289 0.000000 0.000000 0.000000
# 2 0.003342 0.010062 -0.001212 0.000000 0.000000 0.000000
# 3 -0.001289 -0.001212 0.009134 0.000000 0.000000 0.000000
# 4 0.000000 0.000000 0.000000 0.033863 0.000000 0.000000
# 5 0.000000 0.000000 0.000000 0.000000 0.070386 0.000000
# 6 0.000000 0.000000 0.000000 0.000000 0.000000 0.046640
#
#
# Mechanical properties :
#
#
# Convention : Reuss Voigt Hill
#
# Bulk Modulus (GPa) = 18.03863 28.58148 23.31005
# Shear Modulus (GPa) = 22.57926 29.02155 25.80041
#
# Velocity S-wave (km/s) = 3.12447 3.54227 3.33991
# Velocity P-wave (km/s) = 4.56240 5.39329 4.99515
#
# Compressibility (1/GPa) = 0.05543659
#
# Stress axis : x y z
#
# Youngs Moduli (GPa) = 28.93514 99.38382 109.48564
#
# Poissons Ratio (x) = -0.33211 0.14113
# Poissons Ratio (y) = -0.09669 0.13272
# Poissons Ratio (z) = 0.03730 0.12047
#
# Static dielectric constant tensor:
#      x y z
#    x 1.861250 0.000000 0.000000 
#    y 0.000000 2.004750 0.000000 
#    z 0.000000 0.000000 2.036870 
# 
# From -- ./inp_files/11844.got.cif
#   From: 2010.05.17/outbox.cif.g08.bks.cpg/sg61_6_cif.got.tgz:11844.got - 2010.06.03 15:17:17.
