data_PCOD9459360
_publ_section_title
;
Structure prediction by ZEFSAII (Michael W. Deem and Ramdas Pophale) SiO2 
 PCOD9459360
Probable space group: P B C A
;
_chemical_formula_sum "Si O2"
_cell_formula_units_Z 48
_cell_length_a 8.676582
_cell_length_b 13.875991
_cell_length_c 19.197894
_cell_angle_alpha 90.000000
_cell_angle_beta 90.000000
_cell_angle_gamma 90.000000
_cell_volume 2311.352982
_symmetry_space_group_name_H-M "P B C A"
_symmetry_group_IT_number 61
_symmetry_cell_setting 'orthorhombic'
loop_
_space_group_symop_operation_xyz
x,y,z
1/2-x,-y,1/2+z
1/2+x,1/2-y,-z
-x,1/2+y,1/2-z
-x,-y,-z
1/2+x,y,1/2-z
1/2-x,1/2+y,z
x,1/2-y,1/2+z
loop_
_atom_site_type_symbol
_atom_site_label
_atom_site_fract_x
_atom_site_fract_y
_atom_site_fract_z
Si Si1 0.789659 0.856516 0.316276
Si Si2 0.479055 0.839926 0.490421
Si Si3 0.174134 0.522083 0.415980
Si Si4 0.518863 0.990708 0.874543
Si Si5 0.697582 0.802659 0.909896
Si Si6 0.517008 0.466901 0.218382
O O1 0.744525 0.750193 0.338153
O O2 0.640073 0.924594 0.311869
O O3 0.900723 0.904391 0.374804
O O4 0.878441 0.875921 0.243985
O O5 0.398986 0.922963 0.444418
O O6 0.345521 0.801484 0.540476
O O7 0.560924 0.759919 0.443822
O O8 0.609421 0.892613 0.536670
O O9 0.357976 0.515374 0.413920
O O10 0.106984 0.529296 0.337862
O O11 0.488913 0.978193 0.791235
O O12 0.362495 0.089637 0.100629
#
# Coordination Sequence:
#
# PCOD9459360 Si02
#       6
#     8   8   8   8   8   8
#     4  10  22  43  68  98 131 170 219 287 328 400
#     4  11  27  40  67  94 140 177 224 277 326 412
#     4  11  22  45  67  93 132 183 219 274 339 396
#     4  10  23  42  71  95 130 174 225 278 337 402
#     4  12  25  45  63 106 132 178 231 274 332 410
#     4  10  19  43  68  94 128 170 219 273 348 379
#
# _framework density 20.767056
#
# number of rings (size 3 to 8) (size 9 to 14) (size 15 to 20)
#    1.000    0.333    3.333    2.000    4.667    0.667 
#    9.000    0.000    0.000    0.000    0.000    0.000 
#    0.000    0.000    0.000    0.000    0.000    0.000 
#
# Total GULP energy -267984.121136 kJ/mol
# GULP energy per Si atom -5583.002524 kJ/mol
# Density = 2.071979 g / cm^3
# Si number density = 20.767056 Si / 1000 Ang^3
#
#
#
# Elastic Constant Matrix: (Units=GPa)
#
#
# Indices 1 2 3 4 5 6 
#
# 1 99.4649 0.5241 3.7946 0.0000 0.0000 0.0000
# 2 0.5241 26.5558 3.7478 0.0000 0.0000 0.0000
# 3 3.7946 3.7478 47.0784 0.0000 0.0000 0.0000
# 4 0.0000 0.0000 0.0000 14.6737 0.0000 0.0000
# 5 0.0000 0.0000 0.0000 0.0000 28.8693 0.0000
# 6 0.0000 0.0000 0.0000 0.0000 0.0000 3.8681
#
#
#
# Elastic Compliance Matrix: (Units=1/GPa)
#
#
# Indices 1 2 3 4 5 6 
#
# 1 0.010085 -0.000085 -0.000806 0.000000 0.000000 0.000000
# 2 -0.000085 0.038085 -0.003025 0.000000 0.000000 0.000000
# 3 -0.000806 -0.003025 0.021547 0.000000 0.000000 0.000000
# 4 0.000000 0.000000 0.000000 0.068149 0.000000 0.000000
# 5 0.000000 0.000000 0.000000 0.000000 0.034639 0.000000
# 6 0.000000 0.000000 0.000000 0.000000 0.000000 0.258522
#
#
# Mechanical properties :
#
#
# Convention : Reuss Voigt Hill
#
# Bulk Modulus (GPa) = 16.15919 21.02580 18.59249
# Shear Modulus (GPa) = 10.88168 20.48441 15.68304
#
# Velocity S-wave (km/s) = 2.29156 3.14409 2.75105
# Velocity P-wave (km/s) = 3.84704 4.82980 4.36616
#
# Compressibility (1/GPa) = 0.06188431
#
# Stress axis : x y z
#
# Youngs Moduli (GPa) = 99.15718 26.25699 46.41031
#
# Poissons Ratio (x) = 0.00224 0.03741
# Poissons Ratio (y) = 0.00846 0.14039
# Poissons Ratio (z) = 0.07993 0.07943
#
# Static dielectric constant tensor:
#      x y z
#    x 1.737140 0.000000 0.000000 
#    y 0.000000 1.715670 0.000000 
#    z 0.000000 0.000000 1.770460 
# 
# From -- ./inp_files/10148.got.cif
#   From: 2010.05.17/outbox.cif.g08.bks.cpg/sg61_6_cif.got.tgz:10148.got - 2010.06.03 15:17:17.
