data_PCOD9459429
_publ_section_title
;
Structure prediction by ZEFSAII (Michael W. Deem and Ramdas Pophale) SiO2 
 PCOD9459429
Probable space group: P B C A
;
_chemical_formula_sum "Si O2"
_cell_formula_units_Z 56
_cell_length_a 19.495045
_cell_length_b 9.033988
_cell_length_c 15.206526
_cell_angle_alpha 90.000000
_cell_angle_beta 90.000000
_cell_angle_gamma 90.000000
_cell_volume 2678.142985
_symmetry_space_group_name_H-M "P B C A"
_symmetry_group_IT_number 61
_symmetry_cell_setting 'orthorhombic'
loop_
_space_group_symop_operation_xyz
x,y,z
1/2-x,-y,1/2+z
1/2+x,1/2-y,-z
-x,1/2+y,1/2-z
-x,-y,-z
1/2+x,y,1/2-z
1/2-x,1/2+y,z
x,1/2-y,1/2+z
loop_
_atom_site_type_symbol
_atom_site_label
_atom_site_fract_x
_atom_site_fract_y
_atom_site_fract_z
Si Si1 0.301216 0.950898 0.956061
Si Si2 0.870896 0.592121 0.215094
Si Si3 0.838759 0.288690 0.519815
Si Si4 0.488013 0.775403 0.337735
Si Si5 0.052603 0.709212 0.838987
Si Si6 0.089465 0.989892 0.104148
Si Si7 0.563302 0.283625 0.481414
O O1 0.308130 0.915991 0.851504
O O2 0.226686 0.894500 0.980269
O O3 0.310971 0.122419 0.977483
O O4 0.365875 0.870116 0.003399
O O5 0.916723 0.453576 0.180330
O O6 0.865258 0.560266 0.318126
O O7 0.911841 0.744316 0.198865
O O8 0.892042 0.295267 0.601548
O O9 0.879609 0.339256 0.433469
O O10 0.535444 0.723244 0.256607
O O11 0.515494 0.940198 0.357978
O O12 0.483550 0.694936 0.432129
O O13 0.983382 0.688249 0.896103
O O14 0.081586 0.109997 0.028156
#
# Coordination Sequence:
#
# PCOD9459429 Si02
#       7
#     8   8   8   8   8   8   8
#     4  10  24  43  64  87 126 174 210 265 324 389
#     4   9  21  39  62  91 133 165 211 266 321 380
#     4  11  23  42  64  89 127 171 215 260 324 385
#     4  10  20  35  61  97 131 159 208 266 323 376
#     4  10  21  36  63  93 127 162 211 264 325 376
#     4  11  21  37  66  96 130 166 216 267 322 391
#     4  11  21  38  66  97 129 166 210 269 322 385
#
# _framework density 20.910011000000001
#
# number of rings (size 3 to 8) (size 9 to 14) (size 15 to 20)
#    0.000    1.714    2.857    1.286    2.000    1.714 
#    0.000    8.571    3.143    0.000    0.000    0.000 
#    0.000    0.000    0.000    0.000    0.000    0.000 
#
# Total GULP energy -312097.329064 kJ/mol
# GULP energy per Si atom -5573.166590 kJ/mol
# Density = 2.086242 g / cm^3
# Si number density = 20.910011 Si / 1000 Ang^3
#
#
#
# Elastic Constant Matrix: (Units=GPa)
#
#
# Indices 1 2 3 4 5 6 
#
# 1 70.6556 14.3724 35.4325 0.0000 0.0000 0.0000
# 2 14.3724 59.6386 20.7421 0.0000 0.0000 0.0000
# 3 35.4325 20.7421 113.6585 0.0000 0.0000 0.0000
# 4 0.0000 0.0000 0.0000 23.3397 0.0000 0.0000
# 5 0.0000 0.0000 0.0000 0.0000 15.8900 0.0000
# 6 0.0000 0.0000 0.0000 0.0000 0.0000 27.2875
#
#
#
# Elastic Compliance Matrix: (Units=1/GPa)
#
#
# Indices 1 2 3 4 5 6 
#
# 1 0.017097 -0.002420 -0.004888 0.000000 0.000000 0.000000
# 2 -0.002420 0.018247 -0.002575 0.000000 0.000000 0.000000
# 3 -0.004888 -0.002575 0.010792 0.000000 0.000000 0.000000
# 4 0.000000 0.000000 0.000000 0.042845 0.000000 0.000000
# 5 0.000000 0.000000 0.000000 0.000000 0.062933 0.000000
# 6 0.000000 0.000000 0.000000 0.000000 0.000000 0.036647
#
#
# Mechanical properties :
#
#
# Convention : Reuss Voigt Hill
#
# Bulk Modulus (GPa) = 37.92462 42.78297 40.35380
# Shear Modulus (GPa) = 23.02903 24.86382 23.94643
#
# Velocity S-wave (km/s) = 3.32224 3.45206 3.38777
# Velocity P-wave (km/s) = 5.73523 6.03273 5.88586
#
# Compressibility (1/GPa) = 0.02636809
#
# Stress axis : x y z
#
# Youngs Moduli (GPa) = 58.49053 54.80472 92.65980
#
# Poissons Ratio (x) = 0.13263 0.45294
# Poissons Ratio (y) = 0.14155 0.23864
# Poissons Ratio (z) = 0.28591 0.14115
#
# Static dielectric constant tensor:
#      x y z
#    x 1.778640 0.000000 0.000000 
#    y 0.000000 1.756270 0.000000 
#    z 0.000000 0.000000 1.815740 
# 
# From -- ./inp_files/8379.got.cif
#   From: 2010.05.17/outbox.cif.g08.bks.cpg/sg61_5_cif.got.tgz:8379.got - 2010.06.03 15:17:17.
