data_PCOD9459103
_publ_section_title
;
Structure prediction by ZEFSAII (Michael W. Deem and Ramdas Pophale) SiO2 
 PCOD9459103
Probable space group: P B C A
;
_chemical_formula_sum "Si O2"
_cell_formula_units_Z 36
_cell_length_a 5.111098
_cell_length_b 24.545982
_cell_length_c 9.518611
_cell_angle_alpha 90.000000
_cell_angle_beta 90.000000
_cell_angle_gamma 90.000000
_cell_volume 1194.175614
_symmetry_space_group_name_H-M "P B C A"
_symmetry_group_IT_number 61
_symmetry_cell_setting 'orthorhombic'
loop_
_space_group_symop_operation_xyz
x,y,z
1/2-x,-y,1/2+z
1/2+x,1/2-y,-z
-x,1/2+y,1/2-z
-x,-y,-z
1/2+x,y,1/2-z
1/2-x,1/2+y,z
x,1/2-y,1/2+z
loop_
_atom_site_type_symbol
_atom_site_label
_atom_site_fract_x
_atom_site_fract_y
_atom_site_fract_z
Si Si1 0.535191 0.350391 0.119596
Si Si2 0.464224 0.869254 0.938863
Si Si3 0.998370 0.967552 0.230068
Si Si4 0.000000 0.000000 0.500000
Si Si5 0.108680 0.739890 0.095713
O O1 0.517155 0.402864 0.217232
O O2 0.816950 0.351034 0.050172
O O3 0.441755 0.294141 0.186158
O O4 0.327551 0.363006 0.995341
O O5 0.525299 0.817892 0.835500
O O6 0.510622 0.933395 0.921280
O O7 0.226608 0.982648 0.363616
O O8 0.268993 0.980390 0.133305
O O9 0.391948 0.747177 0.026264
#
# Coordination Sequence:
#
# PCOD9459103 Si02
#       5
#     8   8   8   4   8
#     4  10  18  38  57  84 119 156 204 262 312 368
#     4  10  20  34  58  91 116 160 199 257 314 374
#     4  12  24  40  59  90 126 172 216 268 314 386
#     4  12  24  38  64  92 132 168 220 254 326 394
#     4   8  16  30  56  83 111 143 193 243 307 369
#
# _framework density 30.146324
#
# number of rings (size 3 to 8) (size 9 to 14) (size 15 to 20)
#    0.000    1.778    4.444    0.000    0.000    3.556 
#    0.000    0.000    0.000    2.667    0.000    0.000 
#    0.000    0.000    0.000    0.000    0.000    0.000 
#
# Total GULP energy -200500.789863 kJ/mol
# GULP energy per Si atom -5569.466385 kJ/mol
# Density = 3.007771 g / cm^3
# Si number density = 30.146324 Si / 1000 Ang^3
#
#
#
# Elastic Constant Matrix: (Units=GPa)
#
#
# Indices 1 2 3 4 5 6 
#
# 1 324.9986 19.1316 41.9096 0.0000 0.0000 0.0000
# 2 19.1316 287.8882 40.4241 0.0000 0.0000 0.0000
# 3 41.9096 40.4241 113.2919 0.0000 0.0000 0.0000
# 4 0.0000 0.0000 0.0000 28.0471 0.0000 0.0000
# 5 0.0000 0.0000 0.0000 0.0000 65.5359 0.0000
# 6 0.0000 0.0000 0.0000 0.0000 0.0000 53.2851
#
#
#
# Elastic Compliance Matrix: (Units=1/GPa)
#
#
# Indices 1 2 3 4 5 6 
#
# 1 0.003232 -0.000049 -0.001178 0.000000 0.000000 0.000000
# 2 -0.000049 0.003658 -0.001287 0.000000 0.000000 0.000000
# 3 -0.001178 -0.001287 0.009722 0.000000 0.000000 0.000000
# 4 0.000000 0.000000 0.000000 0.035654 0.000000 0.000000
# 5 0.000000 0.000000 0.000000 0.000000 0.015259 0.000000
# 6 0.000000 0.000000 0.000000 0.000000 0.000000 0.018767
#
#
# Mechanical properties :
#
#
# Convention : Reuss Voigt Hill
#
# Bulk Modulus (GPa) = 86.33492 103.23437 94.78464
# Shear Modulus (GPa) = 52.53200 71.02118 61.77659
#
# Velocity S-wave (km/s) = 4.17894 4.85901 4.53175
# Velocity P-wave (km/s) = 7.21009 8.11164 7.67412
#
# Compressibility (1/GPa) = 0.01158280
#
# Stress axis : x y z
#
# Youngs Moduli (GPa) = 309.43136 273.40792 102.86338
#
# Poissons Ratio (x) = 0.01350 0.12116
# Poissons Ratio (y) = 0.01528 0.13236
# Poissons Ratio (z) = 0.36447 0.35182
#
# Static dielectric constant tensor:
#      x y z
#    x 2.390760 0.000000 0.000000 
#    y 0.000000 2.420780 0.000000 
#    z 0.000000 0.000000 2.403180 
# 
# From -- ./inp_files/1133.got.cif
#   From: 2010.05.17/outbox.cif.g08.bks.cpg/sg61_1_cif.got.tgz:1133.got - 2010.06.03 15:17:17.
