data_PCOD9459196
_publ_section_title
;
Structure prediction by ZEFSAII (Michael W. Deem and Ramdas Pophale) SiO2 
 PCOD9459196
Probable space group: P B C A
;
_chemical_formula_sum "Si O2"
_cell_formula_units_Z 64
_cell_length_a 8.063090
_cell_length_b 19.706050
_cell_length_c 19.126460
_cell_angle_alpha 90.000000
_cell_angle_beta 90.000000
_cell_angle_gamma 90.000000
_cell_volume 3039.034878
_symmetry_space_group_name_H-M "P B C A"
_symmetry_group_IT_number 61
_symmetry_cell_setting 'orthorhombic'
loop_
_space_group_symop_operation_xyz
x,y,z
1/2-x,-y,1/2+z
1/2+x,1/2-y,-z
-x,1/2+y,1/2-z
-x,-y,-z
1/2+x,y,1/2-z
1/2-x,1/2+y,z
x,1/2-y,1/2+z
loop_
_atom_site_type_symbol
_atom_site_label
_atom_site_fract_x
_atom_site_fract_y
_atom_site_fract_z
Si Si1 0.144509 0.018835 0.693210
Si Si2 0.397708 0.362628 0.704027
Si Si3 0.798075 0.289145 0.930482
Si Si4 0.258856 0.468851 0.344087
Si Si5 0.724580 0.874184 0.650245
Si Si6 0.722833 0.548266 0.949333
Si Si7 0.344817 0.827895 0.988351
Si Si8 0.352187 0.590986 0.983250
O O1 0.174207 0.047472 0.770187
O O2 0.258654 0.050593 0.633725
O O3 0.954906 0.026595 0.669415
O O4 0.180520 0.938014 0.697211
O O5 0.308543 0.311880 0.650244
O O6 0.387659 0.347696 0.786445
O O7 0.587353 0.368775 0.679340
O O8 0.982390 0.298263 0.961967
O O9 0.730830 0.215226 0.948706
O O10 0.687200 0.341257 0.975314
O O11 0.195342 0.545347 0.364316
O O12 0.220036 0.416535 0.405334
O O13 0.724461 0.831688 0.579191
O O14 0.546852 0.576991 0.974461
O O15 0.861516 0.594573 0.985910
O O16 0.729100 0.470743 0.973295
#
# Coordination Sequence:
#
# PCOD9459196 Si02
#       8
#     8   8   8   8   8   8   8   8
#     4  10  19  34  56  85 118 151 189 239 293 345
#     4   9  19  34  56  83 113 147 188 233 285 344
#     4  11  23  40  59  85 118 155 195 241 293 349
#     4  10  19  34  56  85 118 151 189 239 293 345
#     4   9  19  34  56  83 113 147 188 233 285 344
#     4  11  22  36  58  87 116 150 193 239 287 343
#     4  11  23  40  59  85 118 155 195 241 293 349
#     4  11  22  36  58  87 116 150 193 239 287 343
#
# _framework density 21.059315999999999
#
# number of rings (size 3 to 8) (size 9 to 14) (size 15 to 20)
#    0.000    1.750    2.500    2.250    0.000    4.000 
#    0.000    1.250    0.000    3.000    0.000    0.000 
#    0.000    0.000    0.000    0.000    0.000    0.000 
#
# Total GULP energy -357709.988081 kJ/mol
# GULP energy per Si atom -5589.218564 kJ/mol
# Density = 2.101138 g / cm^3
# Si number density = 21.059316 Si / 1000 Ang^3
#
#
#
# Elastic Constant Matrix: (Units=GPa)
#
#
# Indices 1 2 3 4 5 6 
#
# 1 36.8736 5.4126 4.8041 0.0000 0.0000 0.0000
# 2 5.4126 31.3802 -1.5147 0.0000 0.0000 0.0000
# 3 4.8041 -1.5147 70.7134 0.0000 0.0000 0.0000
# 4 0.0000 0.0000 0.0000 29.7039 0.0000 0.0000
# 5 0.0000 0.0000 0.0000 0.0000 33.7744 0.0000
# 6 0.0000 0.0000 0.0000 0.0000 0.0000 23.5337
#
#
#
# Elastic Compliance Matrix: (Units=1/GPa)
#
#
# Indices 1 2 3 4 5 6 
#
# 1 0.028108 -0.004946 -0.002016 0.000000 0.000000 0.000000
# 2 -0.004946 0.032770 0.001038 0.000000 0.000000 0.000000
# 3 -0.002016 0.001038 0.014301 0.000000 0.000000 0.000000
# 4 0.000000 0.000000 0.000000 0.033666 0.000000 0.000000
# 5 0.000000 0.000000 0.000000 0.000000 0.029608 0.000000
# 6 0.000000 0.000000 0.000000 0.000000 0.000000 0.042492
#
#
# Mechanical properties :
#
#
# Convention : Reuss Voigt Hill
#
# Bulk Modulus (GPa) = 15.78956 17.37459 16.58207
# Shear Modulus (GPa) = 23.37513 26.08676 24.73094
#
# Velocity S-wave (km/s) = 3.33523 3.52337 3.43059
# Velocity P-wave (km/s) = 4.72711 4.98201 4.85624
#
# Compressibility (1/GPa) = 0.06333301
#
# Stress axis : x y z
#
# Youngs Moduli (GPa) = 35.57678 30.51541 69.92636
#
# Poissons Ratio (x) = 0.15092 0.14094
# Poissons Ratio (y) = 0.17595 -0.07258
# Poissons Ratio (z) = 0.07171 -0.03167
#
# Static dielectric constant tensor:
#      x y z
#    x 1.782770 0.000000 0.000000 
#    y 0.000000 1.732350 0.000000 
#    z 0.000000 0.000000 1.769040 
# 
# From -- ./inp_files/9034.got.cif
#   From: 2010.05.17/outbox.cif.g08.bks.cpg/sg61_5_cif.got.tgz:9034.got - 2010.06.03 15:17:17.
