data_PCOD9459397
_publ_section_title
;
Structure prediction by ZEFSAII (Michael W. Deem and Ramdas Pophale) SiO2 
 PCOD9459397
Probable space group: P B C A
;
_chemical_formula_sum "Si O2"
_cell_formula_units_Z 60
_cell_length_a 17.872494
_cell_length_b 21.031138
_cell_length_c 5.313129
_cell_angle_alpha 90.000000
_cell_angle_beta 90.000000
_cell_angle_gamma 90.000000
_cell_volume 1997.093019
_symmetry_space_group_name_H-M "P B C A"
_symmetry_group_IT_number 61
_symmetry_cell_setting 'orthorhombic'
loop_
_space_group_symop_operation_xyz
x,y,z
1/2-x,-y,1/2+z
1/2+x,1/2-y,-z
-x,1/2+y,1/2-z
-x,-y,-z
1/2+x,y,1/2-z
1/2-x,1/2+y,z
x,1/2-y,1/2+z
loop_
_atom_site_type_symbol
_atom_site_label
_atom_site_fract_x
_atom_site_fract_y
_atom_site_fract_z
Si Si1 0.000000 0.500000 0.000000
Si Si2 0.721395 0.394223 0.515339
Si Si3 0.010771 0.092942 0.987183
Si Si4 0.384879 0.441425 0.671780
Si Si5 0.326663 0.952409 0.489607
Si Si6 0.910576 0.709112 0.010546
Si Si7 0.574071 0.824332 0.142106
Si Si8 0.794578 0.227370 0.136572
O O1 0.097584 0.499423 0.990699
O O2 0.998939 0.448369 0.238550
O O3 0.851611 0.475261 0.580352
O O4 0.720506 0.428874 0.250388
O O5 0.648767 0.347922 0.516304
O O6 0.720805 0.436985 0.764964
O O7 0.099248 0.092014 0.011319
O O8 0.959884 0.152643 0.911072
O O9 0.975622 0.063795 0.244526
O O10 0.377038 0.377221 0.512880
O O11 0.290382 0.344756 0.954497
O O12 0.901088 0.753125 0.251687
O O13 0.997517 0.687536 0.010261
O O14 0.627331 0.763923 0.179989
O O15 0.756810 0.233501 0.409478
#
# Coordination Sequence:
#
# PCOD9459397 Si02
#       8
#     4   8   8   8   8   8   8   8
#     4   8  16  30  50  96 146 196 228 272 360 452
#     4  12  25  46  72 106 147 203 256 310 374 453
#     4  10  20  34  62 104 156 199 233 302 382 462
#     4  10  22  35  66 107 158 200 238 306 382 467
#     4  11  23  40  72 110 155 195 247 305 373 465
#     4  12  25  42  66 103 147 187 245 307 368 437
#     4  11  25  42  70 109 150 194 253 311 388 454
#     4  12  28  52  77 102 140 205 264 317 381 455
#
# _framework density 30.043665000000001
#
# number of rings (size 3 to 8) (size 9 to 14) (size 15 to 20)
#    0.000    1.067    1.333    5.600   13.067    0.000 
#    0.000    0.000    0.000    3.200    0.000    0.000 
#    0.000    0.000    0.000    0.267    0.000    0.000 
#
# Total GULP energy -335790.792451 kJ/mol
# GULP energy per Si atom -5596.513208 kJ/mol
# Density = 2.997528 g / cm^3
# Si number density = 30.043665 Si / 1000 Ang^3
#
#
#
# Elastic Constant Matrix: (Units=GPa)
#
#
# Indices 1 2 3 4 5 6 
#
# 1 140.2532 56.0452 39.9525 0.0000 0.0000 0.0000
# 2 56.0452 158.0709 65.6124 0.0000 0.0000 0.0000
# 3 39.9525 65.6124 219.5869 0.0000 0.0000 0.0000
# 4 0.0000 0.0000 0.0000 69.1176 0.0000 0.0000
# 5 0.0000 0.0000 0.0000 0.0000 43.3240 0.0000
# 6 0.0000 0.0000 0.0000 0.0000 0.0000 69.4879
#
#
#
# Elastic Compliance Matrix: (Units=1/GPa)
#
#
# Indices 1 2 3 4 5 6 
#
# 1 0.008408 -0.002678 -0.000730 0.000000 0.000000 0.000000
# 2 -0.002678 0.008075 -0.001926 0.000000 0.000000 0.000000
# 3 -0.000730 -0.001926 0.005262 0.000000 0.000000 0.000000
# 4 0.000000 0.000000 0.000000 0.014468 0.000000 0.000000
# 5 0.000000 0.000000 0.000000 0.000000 0.023082 0.000000
# 6 0.000000 0.000000 0.000000 0.000000 0.000000 0.014391
#
#
# Mechanical properties :
#
#
# Convention : Reuss Voigt Hill
#
# Bulk Modulus (GPa) = 90.26479 93.45901 91.86190
# Shear Modulus (GPa) = 56.78857 60.13926 58.46392
#
# Velocity S-wave (km/s) = 4.35236 4.47892 4.41609
# Velocity P-wave (km/s) = 7.44091 7.61071 7.52629
#
# Compressibility (1/GPa) = 0.01107852
#
# Stress axis : x y z
#
# Youngs Moduli (GPa) = 118.93393 123.83661 190.03860
#
# Poissons Ratio (x) = 0.33167 0.13863
# Poissons Ratio (y) = 0.31854 0.36593
# Poissons Ratio (z) = 0.08676 0.23845
#
# Static dielectric constant tensor:
#      x y z
#    x 2.555070 0.000000 0.000000 
#    y 0.000000 2.601300 0.000000 
#    z 0.000000 0.000000 2.476030 
# 
# From -- ./inp_files/1225.got.cif
#   From: 2010.05.17/outbox.cif.g08.bks.cpg/sg61_1_cif.got.tgz:1225.got - 2010.06.03 15:17:17.
