data_PCOD9459066
_publ_section_title
;
Structure prediction by ZEFSAII (Michael W. Deem and Ramdas Pophale) SiO2 
 PCOD9459066
Probable space group: P B C A
;
_chemical_formula_sum "Si O2"
_cell_formula_units_Z 48
_cell_length_a 15.040665
_cell_length_b 7.714527
_cell_length_c 14.662251
_cell_angle_alpha 90.000000
_cell_angle_beta 90.000000
_cell_angle_gamma 90.000000
_cell_volume 1701.284681
_symmetry_space_group_name_H-M "P B C A"
_symmetry_group_IT_number 61
_symmetry_cell_setting 'orthorhombic'
loop_
_space_group_symop_operation_xyz
x,y,z
1/2-x,-y,1/2+z
1/2+x,1/2-y,-z
-x,1/2+y,1/2-z
-x,-y,-z
1/2+x,y,1/2-z
1/2-x,1/2+y,z
x,1/2-y,1/2+z
loop_
_atom_site_type_symbol
_atom_site_label
_atom_site_fract_x
_atom_site_fract_y
_atom_site_fract_z
Si Si1 0.538442 0.402538 0.339097
Si Si2 0.897023 0.627752 0.463348
Si Si3 0.404215 0.000535 0.342345
Si Si4 0.747513 0.281689 0.705566
Si Si5 0.862842 0.517307 0.070108
Si Si6 0.714947 0.598837 0.399720
O O1 0.548168 0.207579 0.378074
O O2 0.524061 0.434988 0.232214
O O3 0.462946 0.488551 0.399844
O O4 0.630748 0.502642 0.355618
O O5 0.931761 0.532938 0.553690
O O6 0.812263 0.522499 0.425963
O O7 0.859450 0.808710 0.507844
O O8 0.325320 0.860783 0.321888
O O9 0.349828 0.181588 0.328006
O O10 0.693175 0.444647 0.660778
O O11 0.756490 0.280118 0.814977
O O12 0.823516 0.371563 0.002187
#
# Coordination Sequence:
#
# PCOD9459066 Si02
#       6
#     8   8   8   8   8   8
#     4  10  21  38  61  90 126 166 208 261 329 375
#     4  10  18  34  62  87 117 163 207 256 301 384
#     4  10  20  36  61  91 122 161 211 259 309 383
#     4  10  20  36  61  92 121 162 208 261 308 381
#     4  10  21  38  61  89 126 163 209 261 325 375
#     4  10  18  34  62  87 114 159 208 254 307 381
#
# _framework density 28.213974
#
# number of rings (size 3 to 8) (size 9 to 14) (size 15 to 20)
#    0.000    2.000    3.333    2.000    0.000    0.000 
#    0.000    8.333    0.000    1.000    0.000    0.000 
#    0.000    0.000    0.000    0.000    0.000    0.000 
#
# Total GULP energy -267742.258069 kJ/mol
# GULP energy per Si atom -5577.963710 kJ/mol
# Density = 2.814976 g / cm^3
# Si number density = 28.213974 Si / 1000 Ang^3
#
#
#
# Elastic Constant Matrix: (Units=GPa)
#
#
# Indices 1 2 3 4 5 6 
#
# 1 73.3885 30.5459 66.1654 0.0000 0.0000 0.0000
# 2 30.5459 48.7629 47.2318 0.0000 0.0000 0.0000
# 3 66.1654 47.2318 209.8645 0.0000 0.0000 0.0000
# 4 0.0000 0.0000 0.0000 41.4703 0.0000 0.0000
# 5 0.0000 0.0000 0.0000 0.0000 57.2117 0.0000
# 6 0.0000 0.0000 0.0000 0.0000 0.0000 37.2916
#
#
#
# Elastic Compliance Matrix: (Units=1/GPa)
#
#
# Indices 1 2 3 4 5 6 
#
# 1 0.021691 -0.008905 -0.004835 0.000000 0.000000 0.000000
# 2 -0.008905 0.029880 -0.003917 0.000000 0.000000 0.000000
# 3 -0.004835 -0.003917 0.007171 0.000000 0.000000 0.000000
# 4 0.000000 0.000000 0.000000 0.024114 0.000000 0.000000
# 5 0.000000 0.000000 0.000000 0.000000 0.017479 0.000000
# 6 0.000000 0.000000 0.000000 0.000000 0.000000 0.026816
#
#
# Mechanical properties :
#
#
# Convention : Reuss Voigt Hill
#
# Bulk Modulus (GPa) = 42.68326 68.87798 55.78062
# Shear Modulus (GPa) = 29.36455 39.73292 34.54873
#
# Velocity S-wave (km/s) = 3.22961 3.75676 3.50312
# Velocity P-wave (km/s) = 5.39152 6.57901 6.01464
#
# Compressibility (1/GPa) = 0.02342839
#
# Stress axis : x y z
#
# Youngs Moduli (GPa) = 46.10125 33.46741 139.45409
#
# Poissons Ratio (x) = 0.29803 0.67421
# Poissons Ratio (y) = 0.41053 0.54626
# Poissons Ratio (z) = 0.22288 0.13110
#
# Static dielectric constant tensor:
#      x y z
#    x 2.186140 0.000000 0.000000 
#    y 0.000000 2.503280 0.000000 
#    z 0.000000 0.000000 2.235730 
# 
# From -- ./inp_files/8137.got.cif
#   From: 2010.05.17/outbox.cif.g08.bks.cpg/sg61_5_cif.got.tgz:8137.got - 2010.06.03 15:17:17.
