data_PCOD9459562
_publ_section_title
;
Structure prediction by ZEFSAII (Michael W. Deem and Ramdas Pophale) SiO2 
 PCOD9459562
Probable space group: P B C A
;
_chemical_formula_sum "Si O2"
_cell_formula_units_Z 48
_cell_length_a 4.807445
_cell_length_b 16.656837
_cell_length_c 28.617993
_cell_angle_alpha 90.000000
_cell_angle_beta 90.000000
_cell_angle_gamma 90.000000
_cell_volume 2291.638096
_symmetry_space_group_name_H-M "P B C A"
_symmetry_group_IT_number 61
_symmetry_cell_setting 'orthorhombic'
loop_
_space_group_symop_operation_xyz
x,y,z
1/2-x,-y,1/2+z
1/2+x,1/2-y,-z
-x,1/2+y,1/2-z
-x,-y,-z
1/2+x,y,1/2-z
1/2-x,1/2+y,z
x,1/2-y,1/2+z
loop_
_atom_site_type_symbol
_atom_site_label
_atom_site_fract_x
_atom_site_fract_y
_atom_site_fract_z
Si Si1 0.706534 0.409790 0.094938
Si Si2 0.775117 0.727630 0.529338
Si Si3 0.787458 0.653389 0.851360
Si Si4 0.067782 0.817324 0.616101
Si Si5 0.944327 0.471503 0.282274
Si Si6 0.067107 0.923469 0.870027
O O1 0.782790 0.361970 0.048290
O O2 0.389573 0.386296 0.106516
O O3 0.709168 0.505176 0.099806
O O4 0.897850 0.370652 0.136026
O O5 0.491820 0.768191 0.512886
O O6 0.919143 0.776407 0.571593
O O7 0.717182 0.746910 0.854391
O O8 0.665023 0.610842 0.805680
O O9 0.314646 0.878864 0.604370
O O10 0.816013 0.862631 0.641903
O O11 0.755163 0.479650 0.236656
O O12 0.930623 0.535849 0.324146
#
# Coordination Sequence:
#
# PCOD9459562 Si02
#       6
#     8   8   8   8   8   8
#     4  10  20  38  61  84 116 163 200 233 296 378
#     4  11  22  39  61  88 118 156 206 260 302 350
#     4  10  20  38  61  84 113 159 206 236 282 364
#     4  11  22  39  62  88 118 158 203 248 302 366
#     4  11  22  39  61  88 118 155 197 243 291 349
#     4  11  22  39  61  88 122 161 198 242 309 377
#
# _framework density 20.945715
#
# number of rings (size 3 to 8) (size 9 to 14) (size 15 to 20)
#    0.000    1.333    0.000   10.000    0.000    0.000 
#    0.000   10.000    0.000    0.000    0.000    0.000 
#    0.000    0.000    0.000    0.000    0.000    0.000 
#
# Total GULP energy -267823.396148 kJ/mol
# GULP energy per Si atom -5579.654086 kJ/mol
# Density = 2.089804 g / cm^3
# Si number density = 20.945715 Si / 1000 Ang^3
#
#
#
# Elastic Constant Matrix: (Units=GPa)
#
#
# Indices 1 2 3 4 5 6 
#
# 1 89.2338 24.0457 0.4391 0.0000 0.0000 0.0000
# 2 24.0457 106.4044 18.6428 0.0000 0.0000 0.0000
# 3 0.4391 18.6428 44.8452 0.0000 0.0000 0.0000
# 4 0.0000 0.0000 0.0000 25.3621 0.0000 0.0000
# 5 0.0000 0.0000 0.0000 0.0000 43.7125 0.0000
# 6 0.0000 0.0000 0.0000 0.0000 0.0000 -19.8512
#
#
#
# Elastic Compliance Matrix: (Units=1/GPa)
#
#
# Indices 1 2 3 4 5 6 
#
# 1 0.011982 -0.002898 0.001088 0.000000 0.000000 0.000000
# 2 -0.002898 0.010837 -0.004477 0.000000 0.000000 0.000000
# 3 0.001088 -0.004477 0.024149 0.000000 0.000000 0.000000
# 4 0.000000 0.000000 0.000000 0.039429 0.000000 0.000000
# 5 0.000000 0.000000 0.000000 0.000000 0.022877 0.000000
# 6 0.000000 0.000000 0.000000 0.000000 0.000000 -0.050375
#
#
# Mechanical properties :
#
#
# Convention : Reuss Voigt Hill
#
# Bulk Modulus (GPa) = 29.07513 36.30430 32.68972
# Shear Modulus (GPa) = 60.28460 23.00173 41.64316
#
# Velocity S-wave (km/s) = 5.37065 3.31744 4.46370
# Velocity P-wave (km/s) = 7.23670 5.66075 6.49669
#
# Compressibility (1/GPa) = 0.03439366
#
# Stress axis : x y z
#
# Youngs Moduli (GPa) = 83.45727 92.27243 41.40888
#
# Poissons Ratio (x) = 0.26744 -0.04503
# Poissons Ratio (y) = 0.24189 0.18538
# Poissons Ratio (z) = -0.09076 0.41310
#
# Static dielectric constant tensor:
#      x y z
#    x 1.736090 0.000000 0.000000 
#    y 0.000000 1.797900 0.000000 
#    z 0.000000 0.000000 1.761040 
# 
# From -- ./inp_files/11237.got.cif
#   From: 2010.05.17/outbox.cif.g08.bks.cpg/sg61_6_cif.got.tgz:11237.got - 2010.06.03 15:17:17.
