data_PCOD9459226
_publ_section_title
;
Structure prediction by ZEFSAII (Michael W. Deem and Ramdas Pophale) SiO2 
 PCOD9459226
Probable space group: P B C A
;
_chemical_formula_sum "Si O2"
_cell_formula_units_Z 44
_cell_length_a 13.406782
_cell_length_b 13.629755
_cell_length_c 9.729338
_cell_angle_alpha 90.000000
_cell_angle_beta 90.000000
_cell_angle_gamma 90.000000
_cell_volume 1777.853160
_symmetry_space_group_name_H-M "P B C A"
_symmetry_group_IT_number 61
_symmetry_cell_setting 'orthorhombic'
loop_
_space_group_symop_operation_xyz
x,y,z
1/2-x,-y,1/2+z
1/2+x,1/2-y,-z
-x,1/2+y,1/2-z
-x,-y,-z
1/2+x,y,1/2-z
1/2-x,1/2+y,z
x,1/2-y,1/2+z
loop_
_atom_site_type_symbol
_atom_site_label
_atom_site_fract_x
_atom_site_fract_y
_atom_site_fract_z
Si Si1 0.698626 0.629461 0.313219
Si Si2 0.233101 0.733345 0.446878
Si Si3 0.429463 0.597161 0.272812
Si Si4 0.562661 0.314657 0.172895
Si Si5 0.377763 0.927725 0.070421
Si Si6 0.000000 0.500000 0.500000
O O1 0.681640 0.698029 0.443514
O O2 0.669514 0.683916 0.172896
O O3 0.818231 0.615037 0.288761
O O4 0.656581 0.523193 0.347336
O O5 0.321369 0.798553 0.376431
O O6 0.284850 0.643146 0.528385
O O7 0.472749 0.702946 0.313966
O O8 0.419795 0.544414 0.420303
O O9 0.485167 0.539329 0.156207
O O10 0.559963 0.361321 0.324674
O O11 0.514020 0.385962 0.062145
#
# Coordination Sequence:
#
# PCOD9459226 Si02
#       6
#     8   8   8   8   8   4
#     4  10  20  34  63  89 115 158 194 245 311 379
#     4  10  19  35  58  92 116 154 194 243 300 370
#     4  10  22  39  64  93 120 161 214 257 310 374
#     4  10  20  39  63  90 116 161 210 255 305 368
#     4  10  20  36  61  89 124 151 195 253 313 380
#     4  12  22  38  74  82 116 174 224 256 302 378
#
# _framework density 24.748951000000002
#
# number of rings (size 3 to 8) (size 9 to 14) (size 15 to 20)
#    0.000    2.182    5.455    1.091    5.091    0.727 
#    0.000    0.000   20.000    0.000    0.000    0.000 
#    0.000    0.000    0.000    0.000    0.000    0.000 
#
# Total GULP energy -245202.987884 kJ/mol
# GULP energy per Si atom -5572.795179 kJ/mol
# Density = 2.469262 g / cm^3
# Si number density = 24.748951 Si / 1000 Ang^3
#
#
#
# Elastic Constant Matrix: (Units=GPa)
#
#
# Indices 1 2 3 4 5 6 
#
# 1 55.9569 25.8502 36.9384 0.0000 0.0000 0.0000
# 2 25.8502 128.0887 53.2050 0.0000 0.0000 0.0000
# 3 36.9384 53.2050 149.5100 0.0000 0.0000 0.0000
# 4 0.0000 0.0000 0.0000 69.4477 0.0000 0.0000
# 5 0.0000 0.0000 0.0000 0.0000 25.4181 0.0000
# 6 0.0000 0.0000 0.0000 0.0000 0.0000 10.9880
#
#
#
# Elastic Compliance Matrix: (Units=1/GPa)
#
#
# Indices 1 2 3 4 5 6 
#
# 1 0.022050 -0.002567 -0.004534 0.000000 0.000000 0.000000
# 2 -0.002567 0.009460 -0.002732 0.000000 0.000000 0.000000
# 3 -0.004534 -0.002732 0.008781 0.000000 0.000000 0.000000
# 4 0.000000 0.000000 0.000000 0.014399 0.000000 0.000000
# 5 0.000000 0.000000 0.000000 0.000000 0.039342 0.000000
# 6 0.000000 0.000000 0.000000 0.000000 0.000000 0.091008
#
#
# Mechanical properties :
#
#
# Convention : Reuss Voigt Hill
#
# Bulk Modulus (GPa) = 48.48616 62.83811 55.66213
# Shear Modulus (GPa) = 23.63151 35.67487 29.65319
#
# Velocity S-wave (km/s) = 3.09342 3.80079 3.46520
# Velocity P-wave (km/s) = 5.69146 6.68630 6.20884
#
# Compressibility (1/GPa) = 0.02062444
#
# Stress axis : x y z
#
# Youngs Moduli (GPa) = 45.35190 105.70806 113.88047
#
# Poissons Ratio (x) = 0.27130 0.51638
# Poissons Ratio (y) = 0.11640 0.31116
# Poissons Ratio (z) = 0.20564 0.28883
#
# Static dielectric constant tensor:
#      x y z
#    x 2.098870 0.000000 0.000000 
#    y 0.000000 1.935610 0.000000 
#    z 0.000000 0.000000 1.887640 
# 
# From -- ./inp_files/4190.got.cif
#   From: 2010.05.17/outbox.cif.g08.bks.cpg/sg61_3_cif.got.tgz:4190.got - 2010.06.03 15:17:17.
