data_PCOD9459372
_publ_section_title
;
Structure prediction by ZEFSAII (Michael W. Deem and Ramdas Pophale) SiO2 
 PCOD9459372
Probable space group: P B C A
;
_chemical_formula_sum "Si O2"
_cell_formula_units_Z 48
_cell_length_a 20.364872
_cell_length_b 5.008483
_cell_length_c 25.518876
_cell_angle_alpha 90.000000
_cell_angle_beta 90.000000
_cell_angle_gamma 90.000000
_cell_volume 2602.851735
_symmetry_space_group_name_H-M "P B C A"
_symmetry_group_IT_number 61
_symmetry_cell_setting 'orthorhombic'
loop_
_space_group_symop_operation_xyz
x,y,z
1/2-x,-y,1/2+z
1/2+x,1/2-y,-z
-x,1/2+y,1/2-z
-x,-y,-z
1/2+x,y,1/2-z
1/2-x,1/2+y,z
x,1/2-y,1/2+z
loop_
_atom_site_type_symbol
_atom_site_label
_atom_site_fract_x
_atom_site_fract_y
_atom_site_fract_z
Si Si1 0.546429 0.220723 0.311548
Si Si2 0.006823 0.234826 0.570857
Si Si3 0.710735 0.991597 0.195143
Si Si4 0.911716 0.225737 0.252724
Si Si5 0.709395 0.479554 0.569153
Si Si6 0.572221 0.221724 0.537614
O O1 0.540593 0.267989 0.372959
O O2 0.473313 0.237309 0.287001
O O3 0.589282 0.433330 0.278480
O O4 0.572186 0.926682 0.299905
O O5 0.055967 0.314790 0.523824
O O6 0.946483 0.447214 0.567132
O O7 0.978554 0.943340 0.558756
O O8 0.771506 0.795233 0.208843
O O9 0.649496 0.851534 0.222484
O O10 0.701726 0.002137 0.132294
O O11 0.731353 0.777407 0.554252
O O12 0.643488 0.347570 0.547010
#
# Coordination Sequence:
#
# PCOD9459372 Si02
#       6
#     8   8   8   8   8   8
#     4  10  20  33  52  77 103 133 167 210 258 305
#     4  10  20  34  54  79 104 134 170 213 264 312
#     4  10  20  33  51  74 101 134 169 208 253 302
#     4  10  20  33  51  75 103 134 168 209 257 304
#     4  10  20  33  52  77 104 136 171 212 261 310
#     4  10  20  34  54  78 105 135 169 214 263 313
#
# _framework density 18.441310000000001
#
# number of rings (size 3 to 8) (size 9 to 14) (size 15 to 20)
#    0.000    2.000    0.000    4.000    0.000    5.333 
#    0.000    0.000    0.000    6.000    0.000    0.000 
#    0.000    0.000    0.000    0.000    0.000    0.000 
#
# Total GULP energy -267710.998809 kJ/mol
# GULP energy per Si atom -5577.312475 kJ/mol
# Density = 1.839934 g / cm^3
# Si number density = 18.441310 Si / 1000 Ang^3
#
#
#
# Elastic Constant Matrix: (Units=GPa)
#
#
# Indices 1 2 3 4 5 6 
#
# 1 53.5596 -6.4349 13.0697 0.0000 0.0000 0.0000
# 2 -6.4349 66.3180 18.1225 0.0000 0.0000 0.0000
# 3 13.0697 18.1225 57.2078 0.0000 0.0000 0.0000
# 4 0.0000 0.0000 0.0000 17.0667 0.0000 0.0000
# 5 0.0000 0.0000 0.0000 0.0000 14.8339 0.0000
# 6 0.0000 0.0000 0.0000 0.0000 0.0000 25.0324
#
#
#
# Elastic Compliance Matrix: (Units=1/GPa)
#
#
# Indices 1 2 3 4 5 6 
#
# 1 0.020522 0.003583 -0.005823 0.000000 0.000000 0.000000
# 2 0.003583 0.017133 -0.006246 0.000000 0.000000 0.000000
# 3 -0.005823 -0.006246 0.020789 0.000000 0.000000 0.000000
# 4 0.000000 0.000000 0.000000 0.058594 0.000000 0.000000
# 5 0.000000 0.000000 0.000000 0.000000 0.067413 0.000000
# 6 0.000000 0.000000 0.000000 0.000000 0.000000 0.039948
#
#
# Mechanical properties :
#
#
# Convention : Reuss Voigt Hill
#
# Bulk Modulus (GPa) = 24.11318 25.17778 24.64548
# Shear Modulus (GPa) = 19.59269 21.54180 20.56725
#
# Velocity S-wave (km/s) = 3.26304 3.42150 3.34321
# Velocity P-wave (km/s) = 5.22499 5.41215 5.31940
#
# Compressibility (1/GPa) = 0.04147110
#
# Stress axis : x y z
#
# Youngs Moduli (GPa) = 48.72756 58.36574 48.10185
#
# Poissons Ratio (x) = -0.20910 0.28012
# Poissons Ratio (y) = -0.17457 0.30045
# Poissons Ratio (z) = 0.28376 0.36456
#
# Static dielectric constant tensor:
#      x y z
#    x 1.652860 0.000000 0.000000 
#    y 0.000000 1.638720 0.000000 
#    z 0.000000 0.000000 1.606990 
# 
# From -- ./inp_files/9954.got.cif
#   From: 2010.05.17/outbox.cif.g08.bks.cpg/sg61_5_cif.got.tgz:9954.got - 2010.06.03 15:17:17.
