data_PCOD9459934
_publ_section_title
;
Structure prediction by ZEFSAII (Michael W. Deem and Ramdas Pophale) SiO2 
 PCOD9459934
Probable space group: P B C A
;
_chemical_formula_sum "Si O2"
_cell_formula_units_Z 40
_cell_length_a 12.433001
_cell_length_b 7.363606
_cell_length_c 16.720422
_cell_angle_alpha 90.000000
_cell_angle_beta 90.000000
_cell_angle_gamma 90.000000
_cell_volume 1530.783406
_symmetry_space_group_name_H-M "P B C A"
_symmetry_group_IT_number 61
_symmetry_cell_setting 'orthorhombic'
loop_
_space_group_symop_operation_xyz
x,y,z
1/2-x,-y,1/2+z
1/2+x,1/2-y,-z
-x,1/2+y,1/2-z
-x,-y,-z
1/2+x,y,1/2-z
1/2-x,1/2+y,z
x,1/2-y,1/2+z
loop_
_atom_site_type_symbol
_atom_site_label
_atom_site_fract_x
_atom_site_fract_y
_atom_site_fract_z
Si Si1 0.100450 0.012280 0.875921
Si Si2 0.831136 0.891585 0.650816
Si Si3 0.648125 0.237269 0.983953
Si Si4 0.826889 0.080262 0.383197
Si Si5 0.388317 0.067722 0.697207
O O1 0.129782 0.192391 0.823982
O O2 0.103146 0.085422 0.968252
O O3 0.982829 0.959986 0.847976
O O4 0.201684 0.889058 0.855841
O O5 0.860635 0.902689 0.558197
O O6 0.884765 0.033898 0.709107
O O7 0.765964 0.305502 0.954071
O O8 0.613258 0.100075 0.913594
O O9 0.893806 0.225691 0.333328
O O10 0.725680 0.011812 0.331682
#
# Coordination Sequence:
#
# PCOD9459934 Si02
#       5
#     8   8   8   8   8
#     4  10  22  41  68  87 121 168 212 245 317 367
#     4  10  21  42  62  88 124 161 209 260 298 367
#     4   9  18  41  60  87 125 168 196 255 307 364
#     4  10  21  39  62  93 134 157 203 265 303 360
#     4  11  24  39  65  96 124 164 210 256 312 364
#
# _framework density 26.130412
#
# number of rings (size 3 to 8) (size 9 to 14) (size 15 to 20)
#    1.200    0.800    2.000    1.200    0.000    4.800 
#    0.000    4.000    0.000    0.000    0.000    0.000 
#    0.000    0.000    0.000    0.000    0.000    0.000 
#
# Total GULP energy -223006.158648 kJ/mol
# GULP energy per Si atom -5575.153966 kJ/mol
# Density = 2.607094 g / cm^3
# Si number density = 26.130412 Si / 1000 Ang^3
#
#
#
# Elastic Constant Matrix: (Units=GPa)
#
#
# Indices 1 2 3 4 5 6 
#
# 1 92.8871 14.4369 20.1374 0.0000 0.0000 0.0000
# 2 14.4369 72.2855 42.9505 0.0000 0.0000 0.0000
# 3 20.1374 42.9505 85.5705 0.0000 0.0000 0.0000
# 4 0.0000 0.0000 0.0000 10.0244 0.0000 0.0000
# 5 0.0000 0.0000 0.0000 0.0000 23.1498 0.0000
# 6 0.0000 0.0000 0.0000 0.0000 0.0000 26.6855
#
#
#
# Elastic Compliance Matrix: (Units=1/GPa)
#
#
# Indices 1 2 3 4 5 6 
#
# 1 0.011392 -0.000972 -0.002193 0.000000 0.000000 0.000000
# 2 -0.000972 0.019796 -0.009708 0.000000 0.000000 0.000000
# 3 -0.002193 -0.009708 0.017075 0.000000 0.000000 0.000000
# 4 0.000000 0.000000 0.000000 0.099756 0.000000 0.000000
# 5 0.000000 0.000000 0.000000 0.000000 0.043197 0.000000
# 6 0.000000 0.000000 0.000000 0.000000 0.000000 0.037474
#
#
# Mechanical properties :
#
#
# Convention : Reuss Voigt Hill
#
# Bulk Modulus (GPa) = 44.40921 45.08809 44.74865
# Shear Modulus (GPa) = 19.08824 23.51983 21.30403
#
# Velocity S-wave (km/s) = 2.70571 3.00341 2.85844
# Velocity P-wave (km/s) = 5.17622 5.41478 5.29684
#
# Compressibility (1/GPa) = 0.02251785
#
# Stress axis : x y z
#
# Youngs Moduli (GPa) = 87.77860 50.51465 58.56565
#
# Poissons Ratio (x) = 0.04911 0.12843
# Poissons Ratio (y) = 0.08535 0.56853
# Poissons Ratio (z) = 0.19249 0.49037
#
# Static dielectric constant tensor:
#      x y z
#    x 2.093700 0.000000 0.000000 
#    y 0.000000 2.095450 0.000000 
#    z 0.000000 0.000000 2.086530 
# 
# From -- ./inp_files/9111.got.cif
#   From: 2010.05.17/outbox.cif.g08.bks.cpg/sg61_5_cif.got.tgz:9111.got - 2010.06.03 15:17:17.
