data_PCOD9459855
_publ_section_title
;
Structure prediction by ZEFSAII (Michael W. Deem and Ramdas Pophale) SiO2 
 PCOD9459855
Probable space group: P B C A
;
_chemical_formula_sum "Si O2"
_cell_formula_units_Z 32
_cell_length_a 7.783442
_cell_length_b 17.055738
_cell_length_c 9.050423
_cell_angle_alpha 90.000000
_cell_angle_beta 90.000000
_cell_angle_gamma 90.000000
_cell_volume 1201.464899
_symmetry_space_group_name_H-M "P B C A"
_symmetry_group_IT_number 61
_symmetry_cell_setting 'orthorhombic'
loop_
_space_group_symop_operation_xyz
x,y,z
1/2-x,-y,1/2+z
1/2+x,1/2-y,-z
-x,1/2+y,1/2-z
-x,-y,-z
1/2+x,y,1/2-z
1/2-x,1/2+y,z
x,1/2-y,1/2+z
loop_
_atom_site_type_symbol
_atom_site_label
_atom_site_fract_x
_atom_site_fract_y
_atom_site_fract_z
Si Si1 0.595841 0.688600 0.472958
Si Si2 0.510428 0.071996 0.794856
Si Si3 0.189997 0.074543 0.407792
Si Si4 0.970642 0.638504 0.478243
O O1 0.575471 0.651160 0.637041
O O2 0.437781 0.648338 0.387493
O O3 0.566802 0.780511 0.479753
O O4 0.782883 0.661391 0.418765
O O5 0.556395 0.088930 0.627631
O O6 0.385334 0.999251 0.823475
O O7 0.662585 0.058249 0.915421
O O8 0.387719 0.092985 0.383141
#
# Coordination Sequence:
#
# PCOD9459855 Si02
#       4
#     8   8   8   8
#     4  10  21  37  66 100 131 170 222 275 320 407
#     4   9  21  42  64  96 139 172 213 277 329 396
#     4   9  21  42  62  99 139 166 229 270 318 417
#     4  12  20  39  72  97 137 177 214 279 341 374
#
# _framework density 26.634153000000001
#
# number of rings (size 3 to 8) (size 9 to 14) (size 15 to 20)
#    1.500    0.500    2.500    1.500    0.000    1.000 
#    0.000    2.500    5.500    3.000    0.000    0.000 
#    0.000    0.000    0.000    0.000    0.000    0.000 
#
# Total GULP energy -179200.058904 kJ/mol
# GULP energy per Si atom -5600.001841 kJ/mol
# Density = 2.657353 g / cm^3
# Si number density = 26.634153 Si / 1000 Ang^3
#
#
#
# Elastic Constant Matrix: (Units=GPa)
#
#
# Indices 1 2 3 4 5 6 
#
# 1 184.1673 24.9941 49.5729 0.0000 0.0000 0.0000
# 2 24.9941 145.5700 29.9806 0.0000 0.0000 0.0000
# 3 49.5729 29.9806 99.7814 0.0000 0.0000 0.0000
# 4 0.0000 0.0000 0.0000 21.3133 0.0000 0.0000
# 5 0.0000 0.0000 0.0000 0.0000 29.9866 0.0000
# 6 0.0000 0.0000 0.0000 0.0000 0.0000 53.3831
#
#
#
# Elastic Compliance Matrix: (Units=1/GPa)
#
#
# Indices 1 2 3 4 5 6 
#
# 1 0.006298 -0.000466 -0.002989 0.000000 0.000000 0.000000
# 2 -0.000466 0.007357 -0.001979 0.000000 0.000000 0.000000
# 3 -0.002989 -0.001979 0.012101 0.000000 0.000000 0.000000
# 4 0.000000 0.000000 0.000000 0.046919 0.000000 0.000000
# 5 0.000000 0.000000 0.000000 0.000000 0.033348 0.000000
# 6 0.000000 0.000000 0.000000 0.000000 0.000000 0.018733
#
#
# Mechanical properties :
#
#
# Convention : Reuss Voigt Hill
#
# Bulk Modulus (GPa) = 67.16467 70.95708 69.06087
# Shear Modulus (GPa) = 35.56534 42.60133 39.08334
#
# Velocity S-wave (km/s) = 3.65818 4.00371 3.83484
# Velocity P-wave (km/s) = 6.56622 6.93341 6.75231
#
# Compressibility (1/GPa) = 0.01488878
#
# Stress axis : x y z
#
# Youngs Moduli (GPa) = 158.79180 135.92262 82.63470
#
# Poissons Ratio (x) = 0.06330 0.24698
# Poissons Ratio (y) = 0.07395 0.16355
# Poissons Ratio (z) = 0.47460 0.26901
#
# Static dielectric constant tensor:
#      x y z
#    x 2.082760 0.000000 0.000000 
#    y 0.000000 1.993110 0.000000 
#    z 0.000000 0.000000 2.102310 
# 
# From -- ./inp_files/1670.got.cif
#   From: 2010.05.17/outbox.cif.g08.bks.cpg/sg61_1_cif.got.tgz:1670.got - 2010.06.03 15:17:17.
