data_PCOD9459627
_publ_section_title
;
Structure prediction by ZEFSAII (Michael W. Deem and Ramdas Pophale) SiO2 
 PCOD9459627
Probable space group: P B C A
;
_chemical_formula_sum "Si O2"
_cell_formula_units_Z 64
_cell_length_a 14.849820
_cell_length_b 22.341797
_cell_length_c 7.962821
_cell_angle_alpha 90.000000
_cell_angle_beta 90.000000
_cell_angle_gamma 90.000000
_cell_volume 2641.838373
_symmetry_space_group_name_H-M "P B C A"
_symmetry_group_IT_number 61
_symmetry_cell_setting 'orthorhombic'
loop_
_space_group_symop_operation_xyz
x,y,z
1/2-x,-y,1/2+z
1/2+x,1/2-y,-z
-x,1/2+y,1/2-z
-x,-y,-z
1/2+x,y,1/2-z
1/2-x,1/2+y,z
x,1/2-y,1/2+z
loop_
_atom_site_type_symbol
_atom_site_label
_atom_site_fract_x
_atom_site_fract_y
_atom_site_fract_z
Si Si1 0.268333 0.138193 0.698295
Si Si2 0.143485 0.840737 0.751289
Si Si3 0.601713 0.779287 0.105751
Si Si4 0.075248 0.343111 0.094152
Si Si5 0.352230 0.462807 0.000697
Si Si6 0.541164 0.402307 0.745967
Si Si7 0.520777 0.028767 0.744982
Si Si8 0.214976 0.416883 0.555248
O O1 0.346978 0.181251 0.757335
O O2 0.174952 0.170430 0.656146
O O3 0.299109 0.098164 0.540312
O O4 0.247504 0.100740 0.869701
O O5 0.144152 0.786196 0.880164
O O6 0.119210 0.807384 0.575875
O O7 0.224971 0.882494 0.691957
O O8 0.057535 0.880807 0.798509
O O9 0.495499 0.790580 0.135250
O O10 0.043382 0.407894 0.169853
O O11 0.075404 0.357555 0.896478
O O12 0.443445 0.456832 0.109182
O O13 0.283126 0.512069 0.076238
O O14 0.390140 0.498970 0.838119
O O15 0.526787 0.469735 0.671384
O O16 0.611220 0.401927 0.898807
#
# Coordination Sequence:
#
# PCOD9459627 Si02
#       8
#     8   8   8   8   8   8   8   8
#     4  11  23  40  67  96 135 172 219 279 331 399
#     4  10  24  44  67  88 128 175 220 282 332 392
#     4  10  24  45  63  94 126 173 228 275 335 394
#     4  11  22  41  65  96 133 175 218 280 333 396
#     4  10  21  37  65  99 132 173 218 265 332 399
#     4  10  24  40  64  97 133 171 221 270 338 405
#     4  10  20  39  63  97 136 172 215 267 329 401
#     4  10  23  42  62  97 135 171 221 274 333 403
#
# _framework density 24.225553000000001
#
# number of rings (size 3 to 8) (size 9 to 14) (size 15 to 20)
#    0.000    1.750    2.500    0.375    1.750    7.000 
#    0.000    5.000    0.000    0.000    0.000    0.000 
#    0.000    0.000    0.000    0.000    0.000    0.000 
#
# Total GULP energy -357467.658775 kJ/mol
# GULP energy per Si atom -5585.432168 kJ/mol
# Density = 2.417042 g / cm^3
# Si number density = 24.225553 Si / 1000 Ang^3
#
#
#
# Elastic Constant Matrix: (Units=GPa)
#
#
# Indices 1 2 3 4 5 6 
#
# 1 82.9300 2.1900 -1.0066 0.0000 0.0000 0.0000
# 2 2.1900 81.0179 -4.5936 0.0000 0.0000 0.0000
# 3 -1.0066 -4.5936 70.5983 0.0000 0.0000 0.0000
# 4 0.0000 0.0000 0.0000 33.0166 0.0000 0.0000
# 5 0.0000 0.0000 0.0000 0.0000 32.5603 0.0000
# 6 0.0000 0.0000 0.0000 0.0000 0.0000 28.8912
#
#
#
# Elastic Compliance Matrix: (Units=1/GPa)
#
#
# Indices 1 2 3 4 5 6 
#
# 1 0.012069 -0.000318 0.000151 0.000000 0.000000 0.000000
# 2 -0.000318 0.012397 0.000802 0.000000 0.000000 0.000000
# 3 0.000151 0.000802 0.014219 0.000000 0.000000 0.000000
# 4 0.000000 0.000000 0.000000 0.030288 0.000000 0.000000
# 5 0.000000 0.000000 0.000000 0.000000 0.030712 0.000000
# 6 0.000000 0.000000 0.000000 0.000000 0.000000 0.034613
#
#
# Mechanical properties :
#
#
# Convention : Reuss Voigt Hill
#
# Bulk Modulus (GPa) = 25.02733 25.30288 25.16511
# Shear Modulus (GPa) = 34.16599 34.75737 34.46168
#
# Velocity S-wave (km/s) = 3.75951 3.79191 3.77574
# Velocity P-wave (km/s) = 5.40357 5.44415 5.42390
#
# Compressibility (1/GPa) = 0.03995631
#
# Stress axis : x y z
#
# Youngs Moduli (GPa) = 82.85969 80.66460 70.32844
#
# Poissons Ratio (x) = 0.02562 -0.01065
# Poissons Ratio (y) = 0.02632 -0.05641
# Poissons Ratio (z) = -0.01254 -0.06470
#
# Static dielectric constant tensor:
#      x y z
#    x 1.898020 0.000000 0.000000 
#    y 0.000000 1.981660 0.000000 
#    z 0.000000 0.000000 1.990020 
# 
# From -- ./inp_files/3186.got.cif
#   From: 2010.05.17/outbox.cif.g08.bks.cpg/sg61_2_cif.got.tgz:3186.got - 2010.06.03 15:17:17.
