data_PCOD9459304
_publ_section_title
;
Structure prediction by ZEFSAII (Michael W. Deem and Ramdas Pophale) SiO2 
 PCOD9459304
Probable space group: P B C A
;
_chemical_formula_sum "Si O2"
_cell_formula_units_Z 64
_cell_length_a 23.939198
_cell_length_b 12.527134
_cell_length_c 8.419122
_cell_angle_alpha 90.000000
_cell_angle_beta 90.000000
_cell_angle_gamma 90.000000
_cell_volume 2524.806634
_symmetry_space_group_name_H-M "P B C A"
_symmetry_group_IT_number 61
_symmetry_cell_setting 'orthorhombic'
loop_
_space_group_symop_operation_xyz
x,y,z
1/2-x,-y,1/2+z
1/2+x,1/2-y,-z
-x,1/2+y,1/2-z
-x,-y,-z
1/2+x,y,1/2-z
1/2-x,1/2+y,z
x,1/2-y,1/2+z
loop_
_atom_site_type_symbol
_atom_site_label
_atom_site_fract_x
_atom_site_fract_y
_atom_site_fract_z
Si Si1 0.387797 0.813569 0.597279
Si Si2 0.918942 0.473876 0.926879
Si Si3 0.569065 0.692728 0.670298
Si Si4 0.795964 0.368068 0.932374
Si Si5 0.356408 0.346878 0.038962
Si Si6 0.844791 0.635258 0.092334
Si Si7 0.735739 0.973351 0.606286
Si Si8 0.955526 0.641940 0.692862
O O1 0.351055 0.877865 0.720571
O O2 0.347801 0.753515 0.474754
O O3 0.435218 0.866054 0.488615
O O4 0.416168 0.724508 0.710939
O O5 0.951486 0.388458 0.032531
O O6 0.900015 0.574784 0.030939
O O7 0.859646 0.412842 0.911073
O O8 0.947710 0.525516 0.774128
O O9 0.598370 0.794563 0.585376
O O10 0.515506 0.697139 0.783791
O O11 0.615663 0.642455 0.788086
O O12 0.767501 0.417922 0.777343
O O13 0.808115 0.243068 0.943636
O O14 0.759847 0.407785 0.083726
O O15 0.324258 0.449148 0.970855
O O16 0.788550 0.585381 0.024797
#
# Coordination Sequence:
#
# PCOD9459304 Si02
#       8
#     8   8   8   8   8   8   8   8
#     4   9  19  36  59  90 123 153 210 267 318 388
#     4   9  21  40  58  88 126 162 215 272 323 384
#     4  11  22  40  63  86 125 168 214 267 324 388
#     4  10  24  42  62  95 127 173 215 269 329 393
#     4  11  24  42  62  96 132 169 222 269 322 397
#     4   9  20  36  57  89 120 160 202 263 322 380
#     4  11  24  40  65  92 129 174 216 262 329 391
#     4  10  19  38  63  90 121 170 213 266 333 386
#
# _framework density 25.348474
#
# number of rings (size 3 to 8) (size 9 to 14) (size 15 to 20)
#    0.000    2.000    1.250    1.125    7.000    1.000 
#    4.500    0.625    0.000    0.000    0.000    0.000 
#    0.000    0.000    0.000    0.000    0.000    0.000 
#
# Total GULP energy -357182.397323 kJ/mol
# GULP energy per Si atom -5580.974958 kJ/mol
# Density = 2.529078 g / cm^3
# Si number density = 25.348474 Si / 1000 Ang^3
#
#
#
# Elastic Constant Matrix: (Units=GPa)
#
#
# Indices 1 2 3 4 5 6 
#
# 1 74.2890 8.7052 11.0197 0.0000 0.0000 0.0000
# 2 8.7052 36.7174 2.2989 0.0000 0.0000 0.0000
# 3 11.0197 2.2989 73.2131 0.0000 0.0000 0.0000
# 4 0.0000 0.0000 0.0000 23.9778 0.0000 0.0000
# 5 0.0000 0.0000 0.0000 0.0000 38.3520 0.0000
# 6 0.0000 0.0000 0.0000 0.0000 0.0000 12.4899
#
#
#
# Elastic Compliance Matrix: (Units=1/GPa)
#
#
# Indices 1 2 3 4 5 6 
#
# 1 0.014140 -0.003225 -0.002027 0.000000 0.000000 0.000000
# 2 -0.003225 0.028024 -0.000394 0.000000 0.000000 0.000000
# 3 -0.002027 -0.000394 0.013976 0.000000 0.000000 0.000000
# 4 0.000000 0.000000 0.000000 0.041705 0.000000 0.000000
# 5 0.000000 0.000000 0.000000 0.000000 0.026074 0.000000
# 6 0.000000 0.000000 0.000000 0.000000 0.000000 0.080065
#
#
# Mechanical properties :
#
#
# Convention : Reuss Voigt Hill
#
# Bulk Modulus (GPa) = 22.29823 25.36299 23.83061
# Shear Modulus (GPa) = 21.71770 25.77698 23.74734
#
# Velocity S-wave (km/s) = 2.93023 3.19235 3.06410
# Velocity P-wave (km/s) = 4.50157 4.85959 4.68400
#
# Compressibility (1/GPa) = 0.04484662
#
# Stress axis : x y z
#
# Youngs Moduli (GPa) = 70.72355 35.68311 71.55002
#
# Poissons Ratio (x) = 0.11509 0.14503
# Poissons Ratio (y) = 0.22811 0.02823
# Poissons Ratio (z) = 0.14335 0.01408
#
# Static dielectric constant tensor:
#      x y z
#    x 2.026490 0.000000 0.000000 
#    y 0.000000 2.128490 0.000000 
#    z 0.000000 0.000000 2.060210 
# 
# From -- ./inp_files/4341.got.cif
#   From: 2010.05.17/outbox.cif.g08.bks.cpg/sg61_3_cif.got.tgz:4341.got - 2010.06.03 15:17:17.
