data_PCOD9459056
_publ_section_title
;
Structure prediction by ZEFSAII (Michael W. Deem and Ramdas Pophale) SiO2 
 PCOD9459056
Probable space group: P B C A
;
_chemical_formula_sum "Si O2"
_cell_formula_units_Z 56
_cell_length_a 5.331423
_cell_length_b 21.943381
_cell_length_c 17.782295
_cell_angle_alpha 90.000000
_cell_angle_beta 90.000000
_cell_angle_gamma 90.000000
_cell_volume 2080.340844
_symmetry_space_group_name_H-M "P B C A"
_symmetry_group_IT_number 61
_symmetry_cell_setting 'orthorhombic'
loop_
_space_group_symop_operation_xyz
x,y,z
1/2-x,-y,1/2+z
1/2+x,1/2-y,-z
-x,1/2+y,1/2-z
-x,-y,-z
1/2+x,y,1/2-z
1/2-x,1/2+y,z
x,1/2-y,1/2+z
loop_
_atom_site_type_symbol
_atom_site_label
_atom_site_fract_x
_atom_site_fract_y
_atom_site_fract_z
Si Si1 0.046471 0.057379 0.901784
Si Si2 0.600499 0.107219 0.154330
Si Si3 0.439595 0.757264 0.063860
Si Si4 0.435005 0.764307 0.889160
Si Si5 0.792698 0.363751 0.282898
Si Si6 0.597887 0.110212 0.435517
Si Si7 0.929061 0.514692 0.828604
O O1 0.051484 0.074362 0.988525
O O2 0.934229 0.116857 0.859724
O O3 0.819321 0.010941 0.881516
O O4 0.328122 0.038531 0.875926
O O5 0.876686 0.096177 0.123481
O O6 0.382967 0.102818 0.091361
O O7 0.587435 0.179836 0.169285
O O8 0.513195 0.050502 0.205213
O O9 0.200182 0.767842 0.115798
O O10 0.688674 0.775657 0.106761
O O11 0.433854 0.784093 0.979751
O O12 0.439474 0.683672 0.054400
O O13 0.522047 0.334256 0.263926
O O14 0.666737 0.433966 0.270407
#
# Coordination Sequence:
#
# PCOD9459056 Si02
#       7
#     8   8   8   8   8   8   8
#     4  10  20  30  43  64  83 112 143 172 200 255
#     4  10  19  28  41  61  91 120 140 166 197 240
#     4   8  14  25  39  55  77 111 146 169 193 225
#     4   8  14  25  39  55  77 111 146 169 193 225
#     4  10  18  34  48  58  76 106 138 184 222 240
#     4  10  19  28  41  61  91 120 140 166 197 240
#     4  10  20  30  43  64  83 112 143 172 200 255
#
# _framework density 26.918669000000001
#
# number of rings (size 3 to 8) (size 9 to 14) (size 15 to 20)
#    0.857    1.714    1.429    1.714    0.000    3.429 
#    0.000    0.000    0.000    0.000    0.000    0.000 
#    0.000    2.286    0.000    0.286    0.000    0.000 
#
# Total GULP energy -311828.770062 kJ/mol
# GULP energy per Si atom -5568.370894 kJ/mol
# Density = 2.685740 g / cm^3
# Si number density = 26.918669 Si / 1000 Ang^3
#
#
#
# Elastic Constant Matrix: (Units=GPa)
#
#
# Indices 1 2 3 4 5 6 
#
# 1 237.3101 27.4324 19.2647 0.0000 0.0000 0.0000
# 2 27.4324 62.1264 4.2224 0.0000 0.0000 0.0000
# 3 19.2647 4.2224 50.0632 0.0000 0.0000 0.0000
# 4 0.0000 0.0000 0.0000 22.3286 0.0000 0.0000
# 5 0.0000 0.0000 0.0000 0.0000 36.5142 0.0000
# 6 0.0000 0.0000 0.0000 0.0000 0.0000 27.3873
#
#
#
# Elastic Compliance Matrix: (Units=1/GPa)
#
#
# Indices 1 2 3 4 5 6 
#
# 1 0.004564 -0.001907 -0.001595 0.000000 0.000000 0.000000
# 2 -0.001907 0.016986 -0.000699 0.000000 0.000000 0.000000
# 3 -0.001595 -0.000699 0.020648 0.000000 0.000000 0.000000
# 4 0.000000 0.000000 0.000000 0.044786 0.000000 0.000000
# 5 0.000000 0.000000 0.000000 0.000000 0.027387 0.000000
# 6 0.000000 0.000000 0.000000 0.000000 0.000000 0.036513
#
#
# Mechanical properties :
#
#
# Convention : Reuss Voigt Hill
#
# Bulk Modulus (GPa) = 29.59008 50.14874 39.86941
# Shear Modulus (GPa) = 29.31699 37.15138 33.23419
#
# Velocity S-wave (km/s) = 3.30372 3.71905 3.51752
# Velocity P-wave (km/s) = 5.05659 6.09195 5.59826
#
# Compressibility (1/GPa) = 0.03379511
#
# Stress axis : x y z
#
# Youngs Moduli (GPa) = 219.11457 58.87322 48.43173
#
# Poissons Ratio (x) = 0.11226 0.07727
# Poissons Ratio (y) = 0.41780 0.03385
# Poissons Ratio (z) = 0.34957 0.04114
#
# Static dielectric constant tensor:
#      x y z
#    x 2.238540 0.000000 0.000000 
#    y 0.000000 2.395390 0.000000 
#    z 0.000000 0.000000 2.136460 
# 
# From -- ./inp_files/10785.got.cif
#   From: 2010.05.17/outbox.cif.g08.bks.cpg/sg61_6_cif.got.tgz:10785.got - 2010.06.03 15:17:17.
