data_PCOD9459323
_publ_section_title
;
Structure prediction by ZEFSAII (Michael W. Deem and Ramdas Pophale) SiO2 
 PCOD9459323
Probable space group: P B C A
;
_chemical_formula_sum "Si O2"
_cell_formula_units_Z 60
_cell_length_a 15.997324
_cell_length_b 17.055200
_cell_length_c 8.180182
_cell_angle_alpha 90.000000
_cell_angle_beta 90.000000
_cell_angle_gamma 90.000000
_cell_volume 2231.860900
_symmetry_space_group_name_H-M "P B C A"
_symmetry_group_IT_number 61
_symmetry_cell_setting 'orthorhombic'
loop_
_space_group_symop_operation_xyz
x,y,z
1/2-x,-y,1/2+z
1/2+x,1/2-y,-z
-x,1/2+y,1/2-z
-x,-y,-z
1/2+x,y,1/2-z
1/2-x,1/2+y,z
x,1/2-y,1/2+z
loop_
_atom_site_type_symbol
_atom_site_label
_atom_site_fract_x
_atom_site_fract_y
_atom_site_fract_z
Si Si1 0.000000 0.500000 0.000000
Si Si2 0.064093 0.369829 0.210576
Si Si3 0.747468 0.139740 0.753162
Si Si4 0.164801 0.428496 0.812544
Si Si5 0.832279 0.027492 0.986492
Si Si6 0.569243 0.287384 0.629232
Si Si7 0.686276 0.778035 0.942286
Si Si8 0.418227 0.157108 0.346366
O O1 0.992829 0.558042 0.838065
O O2 0.087691 0.461785 0.922460
O O3 0.158131 0.400179 0.236350
O O4 0.057420 0.305833 0.354711
O O5 0.053502 0.312273 0.055758
O O6 0.774083 0.167892 0.577675
O O7 0.815833 0.085214 0.832888
O O8 0.749104 0.217006 0.865641
O O9 0.249944 0.460725 0.898628
O O10 0.158605 0.449153 0.619559
O O11 0.155176 0.333889 0.829869
O O12 0.907692 0.070038 0.081325
O O13 0.503898 0.327456 0.753558
O O14 0.614067 0.723454 0.026179
O O15 0.647257 0.831560 0.802445
#
# Coordination Sequence:
#
# PCOD9459323 Si02
#       8
#     4   8   8   8   8   8   8   8
#     4  10  24  48  78 106 158 204 258 328 412 482
#     4  11  23  43  75 105 154 200 256 325 394 478
#     4  10  19  39  66 105 138 193 251 318 383 461
#     4  11  27  49  74 107 152 210 262 332 399 492
#     4  11  25  48  71 102 150 198 264 317 398 476
#     4  11  24  44  72 109 152 194 262 319 394 478
#     4   9  20  35  69 107 149 191 253 323 381 465
#     4  10  22  41  68 108 152 197 256 319 393 465
#
# _framework density 26.883396000000001
#
# number of rings (size 3 to 8) (size 9 to 14) (size 15 to 20)
#    0.000    1.600    2.667    1.600    3.733   10.133 
#    2.400    0.000    0.000    0.000    0.000    0.000 
#    0.000    0.000    0.000    0.000    0.000    0.000 
#
# Total GULP energy -334829.562847 kJ/mol
# GULP energy per Si atom -5580.492714 kJ/mol
# Density = 2.682221 g / cm^3
# Si number density = 26.883396 Si / 1000 Ang^3
#
#
#
# Elastic Constant Matrix: (Units=GPa)
#
#
# Indices 1 2 3 4 5 6 
#
# 1 82.2589 23.8375 13.2965 0.0000 0.0000 0.0000
# 2 23.8375 65.5907 27.4927 0.0000 0.0000 0.0000
# 3 13.2965 27.4927 94.0617 0.0000 0.0000 0.0000
# 4 0.0000 0.0000 0.0000 29.1860 0.0000 0.0000
# 5 0.0000 0.0000 0.0000 0.0000 36.7501 0.0000
# 6 0.0000 0.0000 0.0000 0.0000 0.0000 45.2351
#
#
#
# Elastic Compliance Matrix: (Units=1/GPa)
#
#
# Indices 1 2 3 4 5 6 
#
# 1 0.013612 -0.004719 -0.000545 0.000000 0.000000 0.000000
# 2 -0.004719 0.019010 -0.004889 0.000000 0.000000 0.000000
# 3 -0.000545 -0.004889 0.012137 0.000000 0.000000 0.000000
# 4 0.000000 0.000000 0.000000 0.034263 0.000000 0.000000
# 5 0.000000 0.000000 0.000000 0.000000 0.027211 0.000000
# 6 0.000000 0.000000 0.000000 0.000000 0.000000 0.022107
#
#
# Mechanical properties :
#
#
# Convention : Reuss Voigt Hill
#
# Bulk Modulus (GPa) = 40.89317 41.24049 41.06683
# Shear Modulus (GPa) = 31.88816 34.05320 32.97068
#
# Velocity S-wave (km/s) = 3.44781 3.56293 3.50585
# Velocity P-wave (km/s) = 5.57622 5.68329 5.63001
#
# Compressibility (1/GPa) = 0.02445396
#
# Stress axis : x y z
#
# Youngs Moduli (GPa) = 73.46333 52.60293 82.38955
#
# Poissons Ratio (x) = 0.24821 0.04491
# Poissons Ratio (y) = 0.34664 0.40283
# Poissons Ratio (z) = 0.04004 0.25720
#
# Static dielectric constant tensor:
#      x y z
#    x 2.113210 0.000000 0.000000 
#    y 0.000000 -40.148100 0.000000 
#    z 0.000000 0.000000 2.181760 
# 
# From -- ./inp_files/3622.got.cif
#   From: 2010.05.17/outbox.cif.g08.bks.cpg/sg61_2_cif.got.tgz:3622.got - 2010.06.03 15:17:17.
