data_PCOD9459864
_publ_section_title
;
Structure prediction by ZEFSAII (Michael W. Deem and Ramdas Pophale) SiO2 
 PCOD9459864
Probable space group: P B C A
;
_chemical_formula_sum "Si O2"
_cell_formula_units_Z 48
_cell_length_a 18.569171
_cell_length_b 5.382785
_cell_length_c 21.263144
_cell_angle_alpha 90.000000
_cell_angle_beta 90.000000
_cell_angle_gamma 90.000000
_cell_volume 2125.333215
_symmetry_space_group_name_H-M "P B C A"
_symmetry_group_IT_number 61
_symmetry_cell_setting 'orthorhombic'
loop_
_space_group_symop_operation_xyz
x,y,z
1/2-x,-y,1/2+z
1/2+x,1/2-y,-z
-x,1/2+y,1/2-z
-x,-y,-z
1/2+x,y,1/2-z
1/2-x,1/2+y,z
x,1/2-y,1/2+z
loop_
_atom_site_type_symbol
_atom_site_label
_atom_site_fract_x
_atom_site_fract_y
_atom_site_fract_z
Si Si1 0.784175 0.504493 0.272833
Si Si2 0.726318 0.883413 0.632385
Si Si3 0.076578 0.956241 0.812312
Si Si4 0.083325 0.261141 0.693322
Si Si5 0.558687 0.304145 0.442399
Si Si6 0.466243 0.700872 0.928658
O O1 0.748396 0.259284 0.299857
O O2 0.765565 0.547666 0.199018
O O3 0.869412 0.507663 0.283289
O O4 0.762229 0.648839 0.599482
O O5 0.643011 0.836709 0.650164
O O6 0.100418 0.050170 0.744117
O O7 0.060558 0.196015 0.857095
O O8 0.002279 0.808444 0.805045
O O9 0.104088 0.216899 0.621028
O O10 0.587054 0.255112 0.512908
O O11 0.523414 0.577171 0.437383
O O12 0.500509 0.075958 0.436067
#
# Coordination Sequence:
#
# PCOD9459864 Si02
#       6
#     8   8   8   8   8   8
#     4  10  21  38  53  75 114 159 179 219 293 356
#     4  10  21  38  53  75 114 159 179 219 293 356
#     4  11  22  33  59  91 115 142 196 249 278 335
#     4  11  22  33  59  91 115 142 196 249 278 335
#     4   9  19  36  54  79 115 150 180 228 294 341
#     4   9  19  36  54  79 115 150 180 228 294 341
#
# _framework density 22.584696000000001
#
# number of rings (size 3 to 8) (size 9 to 14) (size 15 to 20)
#    0.000    2.000    3.333    1.000    4.667    5.333 
#    0.000    0.000    0.000    2.000    0.000    0.000 
#    0.000    0.000    0.000    0.000    0.000    0.000 
#
# Total GULP energy -267393.018514 kJ/mol
# GULP energy per Si atom -5570.687886 kJ/mol
# Density = 2.253329 g / cm^3
# Si number density = 22.584696 Si / 1000 Ang^3
#
#
#
# Elastic Constant Matrix: (Units=GPa)
#
#
# Indices 1 2 3 4 5 6 
#
# 1 87.8790 32.8836 -21.6513 0.0000 0.0000 0.0000
# 2 32.8836 140.0186 -2.5529 0.0000 0.0000 0.0000
# 3 -21.6513 -2.5529 66.0868 0.0000 0.0000 0.0000
# 4 0.0000 0.0000 0.0000 18.3489 0.0000 0.0000
# 5 0.0000 0.0000 0.0000 0.0000 9.3677 0.0000
# 6 0.0000 0.0000 0.0000 0.0000 0.0000 20.1712
#
#
#
# Elastic Compliance Matrix: (Units=1/GPa)
#
#
# Indices 1 2 3 4 5 6 
#
# 1 0.013616 -0.003118 0.004340 0.000000 0.000000 0.000000
# 2 -0.003118 0.007861 -0.000718 0.000000 0.000000 0.000000
# 3 0.004340 -0.000718 0.016526 0.000000 0.000000 0.000000
# 4 0.000000 0.000000 0.000000 0.054499 0.000000 0.000000
# 5 0.000000 0.000000 0.000000 0.000000 0.106750 0.000000
# 6 0.000000 0.000000 0.000000 0.000000 0.000000 0.049576
#
#
# Mechanical properties :
#
#
# Convention : Reuss Voigt Hill
#
# Bulk Modulus (GPa) = 25.63442 34.59367 30.11404
# Shear Modulus (GPa) = 19.17009 28.59791 23.88400
#
# Velocity S-wave (km/s) = 2.91659 3.56230 3.25550
# Velocity P-wave (km/s) = 4.76624 5.68072 5.24345
#
# Compressibility (1/GPa) = 0.03901006
#
# Stress axis : x y z
#
# Youngs Moduli (GPa) = 73.44554 127.20710 60.51136
#
# Poissons Ratio (x) = 0.39669 -0.26263
# Poissons Ratio (y) = 0.22904 0.04345
# Poissons Ratio (z) = -0.31877 0.09133
#
# Static dielectric constant tensor:
#      x y z
#    x 1.921100 0.000000 0.000000 
#    y 0.000000 1.952000 0.000000 
#    z 0.000000 0.000000 1.923320 
# 
# From -- ./inp_files/11115.got.cif
#   From: 2010.05.17/outbox.cif.g08.bks.cpg/sg61_6_cif.got.tgz:11115.got - 2010.06.03 15:17:17.
