data_PCOD9459977
_publ_section_title
;
Structure prediction by ZEFSAII (Michael W. Deem and Ramdas Pophale) SiO2 
 PCOD9459977
Probable space group: P B C A
;
_chemical_formula_sum "Si O2"
_cell_formula_units_Z 40
_cell_length_a 17.802564
_cell_length_b 12.599936
_cell_length_c 7.247256
_cell_angle_alpha 90.000000
_cell_angle_beta 90.000000
_cell_angle_gamma 90.000000
_cell_volume 1625.640451
_symmetry_space_group_name_H-M "P B C A"
_symmetry_group_IT_number 61
_symmetry_cell_setting 'orthorhombic'
loop_
_space_group_symop_operation_xyz
x,y,z
1/2-x,-y,1/2+z
1/2+x,1/2-y,-z
-x,1/2+y,1/2-z
-x,-y,-z
1/2+x,y,1/2-z
1/2-x,1/2+y,z
x,1/2-y,1/2+z
loop_
_atom_site_type_symbol
_atom_site_label
_atom_site_fract_x
_atom_site_fract_y
_atom_site_fract_z
Si Si1 0.927306 0.421342 0.394834
Si Si2 0.116649 0.350928 0.006061
Si Si3 0.336571 0.615345 0.925522
Si Si4 0.837979 0.074879 0.566982
Si Si5 0.470792 0.095728 0.221014
O O1 0.877924 0.515877 0.482946
O O2 0.874538 0.367108 0.244675
O O3 0.957784 0.358418 0.572483
O O4 0.992371 0.480596 0.276882
O O5 0.141122 0.229921 0.999316
O O6 0.159470 0.446674 0.899392
O O7 0.034626 0.355507 0.910442
O O8 0.136379 0.381821 0.214758
O O9 0.247680 0.604953 0.952563
O O10 0.394352 0.405823 0.604034
#
# Coordination Sequence:
#
# PCOD9459977 Si02
#       5
#     8   8   8   8   8
#     4  10  21  39  74 104 133 186 231 285 356 417
#     4  11  23  44  71 101 140 189 236 284 353 420
#     4  12  25  43  70 103 147 183 230 295 358 413
#     4  11  23  45  74 102 144 181 235 292 351 424
#     4  10  22  43  75 100 133 180 241 283 344 422
#
# _framework density 24.605687
#
# number of rings (size 3 to 8) (size 9 to 14) (size 15 to 20)
#    0.000    1.200    2.000    6.000    2.800    0.000 
#    3.600    4.000    4.400    2.400    0.000    0.000 
#    0.000    0.000    0.000    0.000    0.000    0.000 
#
# Total GULP energy -223546.201298 kJ/mol
# GULP energy per Si atom -5588.655032 kJ/mol
# Density = 2.454968 g / cm^3
# Si number density = 24.605687 Si / 1000 Ang^3
#
#
#
# Elastic Constant Matrix: (Units=GPa)
#
#
# Indices 1 2 3 4 5 6 
#
# 1 234.6161 48.7123 74.8575 0.0000 0.0000 0.0000
# 2 48.7123 64.5864 27.7336 0.0000 0.0000 0.0000
# 3 74.8575 27.7336 164.3242 0.0000 0.0000 0.0000
# 4 0.0000 0.0000 0.0000 -3.6657 0.0000 0.0000
# 5 0.0000 0.0000 0.0000 0.0000 19.0196 0.0000
# 6 0.0000 0.0000 0.0000 0.0000 0.0000 11.6352
#
#
#
# Elastic Compliance Matrix: (Units=1/GPa)
#
#
# Indices 1 2 3 4 5 6 
#
# 1 0.005593 -0.003369 -0.001979 0.000000 0.000000 0.000000
# 2 -0.003369 0.018722 -0.001625 0.000000 0.000000 0.000000
# 3 -0.001979 -0.001625 0.007262 0.000000 0.000000 0.000000
# 4 0.000000 0.000000 0.000000 -0.272800 0.000000 0.000000
# 5 0.000000 0.000000 0.000000 0.000000 0.052577 0.000000
# 6 0.000000 0.000000 0.000000 0.000000 0.000000 0.085946
#
#
# Mechanical properties :
#
#
# Convention : Reuss Voigt Hill
#
# Bulk Modulus (GPa) = 56.72140 85.12594 70.92367
# Shear Modulus (GPa) = -60.33032 26.21269 -17.05881
#
# Velocity S-wave (km/s) = -4.95702 3.26745 -2.63589
# Velocity P-wave (km/s) = 3.10815 6.99329 4.42976
#
# Compressibility (1/GPa) = 0.01763003
#
# Stress axis : x y z
#
# Youngs Moduli (GPa) = 178.78668 53.41415 137.71139
#
# Poissons Ratio (x) = 0.17993 0.27260
# Poissons Ratio (y) = 0.60225 0.22381
# Poissons Ratio (z) = 0.35390 0.08681
#
# Static dielectric constant tensor:
#      x y z
#    x 1.936870 0.000000 0.000000 
#    y 0.000000 2.026590 0.000000 
#    z 0.000000 0.000000 2.080130 
# 
# From -- ./inp_files/2693.got.cif
#   From: 2010.05.17/outbox.cif.g08.bks.cpg/sg61_2_cif.got.tgz:2693.got - 2010.06.03 15:17:17.
