data_PCOD9459571
_publ_section_title
;
Structure prediction by ZEFSAII (Michael W. Deem and Ramdas Pophale) SiO2 
 PCOD9459571
Probable space group: P B C A
;
_chemical_formula_sum "Si O2"
_cell_formula_units_Z 48
_cell_length_a 12.459258
_cell_length_b 20.371612
_cell_length_c 8.899831
_cell_angle_alpha 90.000000
_cell_angle_beta 90.000000
_cell_angle_gamma 90.000000
_cell_volume 2258.912116
_symmetry_space_group_name_H-M "P B C A"
_symmetry_group_IT_number 61
_symmetry_cell_setting 'orthorhombic'
loop_
_space_group_symop_operation_xyz
x,y,z
1/2-x,-y,1/2+z
1/2+x,1/2-y,-z
-x,1/2+y,1/2-z
-x,-y,-z
1/2+x,y,1/2-z
1/2-x,1/2+y,z
x,1/2-y,1/2+z
loop_
_atom_site_type_symbol
_atom_site_label
_atom_site_fract_x
_atom_site_fract_y
_atom_site_fract_z
Si Si1 0.141479 0.759123 0.633464
Si Si2 0.925962 0.155360 0.107046
Si Si3 0.363953 0.459033 0.290966
Si Si4 0.230623 0.545118 0.473020
Si Si5 0.257352 0.334437 0.381523
Si Si6 0.569768 0.425411 0.097020
O O1 0.076349 0.713255 0.517701
O O2 0.072193 0.810547 0.731235
O O3 0.199539 0.711849 0.751266
O O4 0.231450 0.796286 0.536780
O O5 0.815615 0.113645 0.087562
O O6 0.014952 0.102876 0.055006
O O7 0.339495 0.522590 0.391485
O O8 0.338684 0.395866 0.391633
O O9 0.477240 0.448134 0.210583
O O10 0.277047 0.455006 0.153474
O O11 0.146876 0.486562 0.433726
O O12 0.141867 0.364821 0.348415
#
# Coordination Sequence:
#
# PCOD9459571 Si02
#       6
#     8   8   8   8   8   8
#     4  10  21  38  62  84 119 168 196 247 303 361
#     4  10  20  38  62  86 118 159 202 243 306 355
#     4  10  20  39  61  86 120 158 194 255 300 355
#     4  10  21  37  66  86 123 157 201 254 306 354
#     4  10  21  39  60  88 123 156 204 247 305 358
#     4  10  21  39  65  89 124 156 204 255 303 360
#
# _framework density 21.249165999999999
#
# number of rings (size 3 to 8) (size 9 to 14) (size 15 to 20)
#    0.000    2.000    3.333    2.000    4.667    1.333 
#    0.000    3.333    7.333    0.000    0.000    0.000 
#    0.000    0.000    0.000    0.000    0.000    0.000 
#
# Total GULP energy -267773.860538 kJ/mol
# GULP energy per Si atom -5578.622095 kJ/mol
# Density = 2.120080 g / cm^3
# Si number density = 21.249166 Si / 1000 Ang^3
#
#
#
# Elastic Constant Matrix: (Units=GPa)
#
#
# Indices 1 2 3 4 5 6 
#
# 1 53.3543 4.3226 6.2379 0.0000 0.0000 0.0000
# 2 4.3226 66.6548 14.6671 0.0000 0.0000 0.0000
# 3 6.2379 14.6671 51.8760 0.0000 0.0000 0.0000
# 4 0.0000 0.0000 0.0000 46.6966 0.0000 0.0000
# 5 0.0000 0.0000 0.0000 0.0000 23.8777 0.0000
# 6 0.0000 0.0000 0.0000 0.0000 0.0000 29.1016
#
#
#
# Elastic Compliance Matrix: (Units=1/GPa)
#
#
# Indices 1 2 3 4 5 6 
#
# 1 0.019048 -0.000780 -0.002070 0.000000 0.000000 0.000000
# 2 -0.000780 0.016030 -0.004438 0.000000 0.000000 0.000000
# 3 -0.002070 -0.004438 0.020781 0.000000 0.000000 0.000000
# 4 0.000000 0.000000 0.000000 0.021415 0.000000 0.000000
# 5 0.000000 0.000000 0.000000 0.000000 0.041880 0.000000
# 6 0.000000 0.000000 0.000000 0.000000 0.000000 0.034362
#
#
# Mechanical properties :
#
#
# Convention : Reuss Voigt Hill
#
# Bulk Modulus (GPa) = 24.22369 24.70449 24.46409
# Shear Modulus (GPa) = 27.49480 29.71235 28.60358
#
# Velocity S-wave (km/s) = 3.60102 3.74342 3.67291
# Velocity P-wave (km/s) = 5.35858 5.50777 5.43369
#
# Compressibility (1/GPa) = 0.04128190
#
# Stress axis : x y z
#
# Youngs Moduli (GPa) = 52.49950 62.38337 48.12190
#
# Poissons Ratio (x) = 0.04865 0.09961
# Poissons Ratio (y) = 0.04094 0.21359
# Poissons Ratio (z) = 0.10867 0.27689
#
# Static dielectric constant tensor:
#      x y z
#    x 1.802570 0.000000 0.000000 
#    y 0.000000 1.783820 0.000000 
#    z 0.000000 0.000000 1.776250 
# 
# From -- ./inp_files/2913.got.cif
#   From: 2010.05.17/outbox.cif.g08.bks.cpg/sg61_2_cif.got.tgz:2913.got - 2010.06.03 15:17:17.
