data_PCOD9459034
_publ_section_title
;
Structure prediction by ZEFSAII (Michael W. Deem and Ramdas Pophale) SiO2 
 PCOD9459034
Probable space group: P B C A
;
_chemical_formula_sum "Si O2"
_cell_formula_units_Z 64
_cell_length_a 5.487192
_cell_length_b 23.059745
_cell_length_c 27.035666
_cell_angle_alpha 90.000000
_cell_angle_beta 90.000000
_cell_angle_gamma 90.000000
_cell_volume 3420.910639
_symmetry_space_group_name_H-M "P B C A"
_symmetry_group_IT_number 61
_symmetry_cell_setting 'orthorhombic'
loop_
_space_group_symop_operation_xyz
x,y,z
1/2-x,-y,1/2+z
1/2+x,1/2-y,-z
-x,1/2+y,1/2-z
-x,-y,-z
1/2+x,y,1/2-z
1/2-x,1/2+y,z
x,1/2-y,1/2+z
loop_
_atom_site_type_symbol
_atom_site_label
_atom_site_fract_x
_atom_site_fract_y
_atom_site_fract_z
Si Si1 0.487080 0.562635 0.051444
Si Si2 0.786814 0.415751 0.858895
Si Si3 0.991492 0.907132 0.149389
Si Si4 0.999694 0.333296 0.780390
Si Si5 0.902808 0.990899 0.780383
Si Si6 0.621205 0.981562 0.104155
Si Si7 0.765315 0.059734 0.955358
Si Si8 0.994141 0.304144 0.280393
O O1 0.338768 0.602601 0.089588
O O2 0.682527 0.526351 0.083211
O O3 0.313631 0.509180 0.035333
O O4 0.624133 0.588741 0.004102
O O5 0.953853 0.370449 0.829989
O O6 0.587728 0.439007 0.820212
O O7 0.927680 0.475384 0.871575
O O8 0.996438 0.842972 0.170392
O O9 0.108629 0.948223 0.190851
O O10 0.109025 0.917249 0.095118
O O11 0.726754 0.936424 0.143180
O O12 0.760802 0.344984 0.745651
O O13 0.994402 0.264521 0.791112
O O14 0.649629 0.986207 0.750905
O O15 0.516437 0.942411 0.059406
O O16 0.241371 0.316848 0.249020
#
# Coordination Sequence:
#
# PCOD9459034 Si02
#       8
#     8   8   8   8   8   8   8   8
#     4   9  18  32  51  78 114 151 187 230 279 349
#     4  11  21  34  54  81 115 150 194 235 292 347
#     4  11  21  34  54  81 116 148 191 231 290 348
#     4  10  23  41  60  83 112 153 200 242 283 342
#     4  12  23  32  48  78 115 146 177 225 285 336
#     4  10  18  32  51  82 116 150 188 229 295 344
#     4   9  18  32  51  78 115 149 188 229 281 348
#     4  10  23  41  60  83 112 153 199 239 285 342
#
# _framework density 18.708466999999999
#
# number of rings (size 3 to 8) (size 9 to 14) (size 15 to 20)
#    0.000    1.750    3.750    2.625    3.500    1.000 
#    0.000    0.000    0.000    0.000    3.250    0.000 
#    0.000    0.000    0.000    0.000    0.000    0.000 
#
# Total GULP energy -356579.525656 kJ/mol
# GULP energy per Si atom -5571.555088 kJ/mol
# Density = 1.866589 g / cm^3
# Si number density = 18.708467 Si / 1000 Ang^3
#
#
#
# Elastic Constant Matrix: (Units=GPa)
#
#
# Indices 1 2 3 4 5 6 
#
# 1 96.4131 20.3886 43.2136 0.0000 0.0000 0.0000
# 2 20.3886 62.2128 44.0507 0.0000 0.0000 0.0000
# 3 43.2136 44.0507 110.2056 0.0000 0.0000 0.0000
# 4 0.0000 0.0000 0.0000 21.7115 0.0000 0.0000
# 5 0.0000 0.0000 0.0000 0.0000 29.3602 0.0000
# 6 0.0000 0.0000 0.0000 0.0000 0.0000 14.9781
#
#
#
# Elastic Compliance Matrix: (Units=1/GPa)
#
#
# Indices 1 2 3 4 5 6 
#
# 1 0.012618 -0.000881 -0.004596 0.000000 0.000000 0.000000
# 2 -0.000881 0.022481 -0.008640 0.000000 0.000000 0.000000
# 3 -0.004596 -0.008640 0.014330 0.000000 0.000000 0.000000
# 4 0.000000 0.000000 0.000000 0.046059 0.000000 0.000000
# 5 0.000000 0.000000 0.000000 0.000000 0.034060 0.000000
# 6 0.000000 0.000000 0.000000 0.000000 0.000000 0.066764
#
#
# Mechanical properties :
#
#
# Convention : Reuss Voigt Hill
#
# Bulk Modulus (GPa) = 47.18288 53.79303 50.48796
# Shear Modulus (GPa) = 21.58807 23.95521 22.77164
#
# Velocity S-wave (km/s) = 3.40062 3.58222 3.49260
# Velocity P-wave (km/s) = 6.37917 6.77683 6.58100
#
# Compressibility (1/GPa) = 0.02119413
#
# Stress axis : x y z
#
# Youngs Moduli (GPa) = 79.25066 44.48299 69.78587
#
# Poissons Ratio (x) = 0.03920 0.32070
# Poissons Ratio (y) = 0.06985 0.60296
# Poissons Ratio (z) = 0.36420 0.38434
#
# Static dielectric constant tensor:
#      x y z
#    x 1.786660 0.000000 0.000000 
#    y 0.000000 1.615140 0.000000 
#    z 0.000000 0.000000 1.731720 
# 
# From -- ./inp_files/10773.got.cif
#   From: 2010.05.17/outbox.cif.g08.bks.cpg/sg61_6_cif.got.tgz:10773.got - 2010.06.03 15:17:17.
