data_PCOD9459178
_publ_section_title
;
Structure prediction by ZEFSAII (Michael W. Deem and Ramdas Pophale) SiO2 
 PCOD9459178
Probable space group: P B C A
;
_chemical_formula_sum "Si O2"
_cell_formula_units_Z 40
_cell_length_a 18.408888
_cell_length_b 5.316231
_cell_length_c 18.169472
_cell_angle_alpha 90.000000
_cell_angle_beta 90.000000
_cell_angle_gamma 90.000000
_cell_volume 1778.171749
_symmetry_space_group_name_H-M "P B C A"
_symmetry_group_IT_number 61
_symmetry_cell_setting 'orthorhombic'
loop_
_space_group_symop_operation_xyz
x,y,z
1/2-x,-y,1/2+z
1/2+x,1/2-y,-z
-x,1/2+y,1/2-z
-x,-y,-z
1/2+x,y,1/2-z
1/2-x,1/2+y,z
x,1/2-y,1/2+z
loop_
_atom_site_type_symbol
_atom_site_label
_atom_site_fract_x
_atom_site_fract_y
_atom_site_fract_z
Si Si1 0.541685 0.687154 0.225831
Si Si2 0.789498 0.289052 0.046327
Si Si3 0.425793 0.036998 0.046523
Si Si4 0.971900 0.537913 0.416923
Si Si5 0.207996 0.783690 0.275664
O O1 0.502128 0.447086 0.262516
O O2 0.534773 0.614872 0.139077
O O3 0.625248 0.728977 0.245810
O O4 0.731054 0.504564 0.025002
O O5 0.793375 0.294150 0.134844
O O6 0.862643 0.380434 0.007840
O O7 0.439558 0.266414 0.102030
O O8 0.414922 0.766152 0.083281
O O9 0.500000 0.000000 0.000000
O O10 0.000000 0.500000 0.500000
O O11 0.259347 0.551980 0.251912
#
# Coordination Sequence:
#
# PCOD9459178 Si02
#       5
#     8   8   8   8   8
#     4  12  25  42  66  98 129 164 218 275 321 383
#     4  10  20  34  57  91 125 157 204 262 310 362
#     4  10  19  33  57  85 119 157 195 244 308 371
#     4  10  21  37  62  90 121 159 202 251 310 372
#     4  10  21  38  62  90 123 165 211 262 319 376
#
# _framework density 22.495014999999999
#
# number of rings (size 3 to 8) (size 9 to 14) (size 15 to 20)
#    0.000    1.600    0.000    6.000    0.000    9.600 
#    0.000    0.000    0.000   24.000    0.000    0.000 
#    0.000    0.000    0.000    0.000    0.000    0.000 
#
# Total GULP energy -223420.512235 kJ/mol
# GULP energy per Si atom -5585.512806 kJ/mol
# Density = 2.244382 g / cm^3
# Si number density = 22.495015 Si / 1000 Ang^3
#
#
#
# Elastic Constant Matrix: (Units=GPa)
#
#
# Indices 1 2 3 4 5 6 
#
# 1 116.5588 53.5206 27.0484 0.0000 0.0000 0.0000
# 2 53.5206 215.1332 19.5178 0.0000 0.0000 0.0000
# 3 27.0484 19.5178 51.7266 0.0000 0.0000 0.0000
# 4 0.0000 0.0000 0.0000 24.4771 0.0000 0.0000
# 5 0.0000 0.0000 0.0000 0.0000 30.0146 0.0000
# 6 0.0000 0.0000 0.0000 0.0000 0.0000 35.8832
#
#
#
# Elastic Compliance Matrix: (Units=1/GPa)
#
#
# Indices 1 2 3 4 5 6 
#
# 1 0.010708 -0.002232 -0.004757 0.000000 0.000000 0.000000
# 2 -0.002232 0.005278 -0.000824 0.000000 0.000000 0.000000
# 3 -0.004757 -0.000824 0.022131 0.000000 0.000000 0.000000
# 4 0.000000 0.000000 0.000000 0.040855 0.000000 0.000000
# 5 0.000000 0.000000 0.000000 0.000000 0.033317 0.000000
# 6 0.000000 0.000000 0.000000 0.000000 0.000000 0.027868
#
#
# Mechanical properties :
#
#
# Convention : Reuss Voigt Hill
#
# Bulk Modulus (GPa) = 44.46424 64.84356 54.65390
# Shear Modulus (GPa) = 30.62185 36.96378 33.79282
#
# Velocity S-wave (km/s) = 3.69355 4.05804 3.88007
# Velocity P-wave (km/s) = 6.16432 7.13058 6.66499
#
# Compressibility (1/GPa) = 0.02248998
#
# Stress axis : x y z
#
# Youngs Moduli (GPa) = 93.38498 189.44953 45.18547
#
# Poissons Ratio (x) = 0.42293 0.21495
# Poissons Ratio (y) = 0.20847 0.03725
# Poissons Ratio (z) = 0.44425 0.15617
#
# Static dielectric constant tensor:
#      x y z
#    x 1.158520 0.000000 0.000000 
#    y 0.000000 1.873550 0.000000 
#    z 0.000000 0.000000 2.040010 
# 
# From -- ./inp_files/9608.got.cif
#   From: 2010.05.17/outbox.cif.g08.bks.cpg/sg61_5_cif.got.tgz:9608.got - 2010.06.03 15:17:17.
