data_PCOD9459916
_publ_section_title
;
Structure prediction by ZEFSAII (Michael W. Deem and Ramdas Pophale) SiO2 
 PCOD9459916
Probable space group: P B C A
;
_chemical_formula_sum "Si O2"
_cell_formula_units_Z 64
_cell_length_a 23.721344
_cell_length_b 11.310516
_cell_length_c 9.315622
_cell_angle_alpha 90.000000
_cell_angle_beta 90.000000
_cell_angle_gamma 90.000000
_cell_volume 2499.387353
_symmetry_space_group_name_H-M "P B C A"
_symmetry_group_IT_number 61
_symmetry_cell_setting 'orthorhombic'
loop_
_space_group_symop_operation_xyz
x,y,z
1/2-x,-y,1/2+z
1/2+x,1/2-y,-z
-x,1/2+y,1/2-z
-x,-y,-z
1/2+x,y,1/2-z
1/2-x,1/2+y,z
x,1/2-y,1/2+z
loop_
_atom_site_type_symbol
_atom_site_label
_atom_site_fract_x
_atom_site_fract_y
_atom_site_fract_z
Si Si1 0.557474 0.519429 0.589136
Si Si2 0.125194 0.971945 0.163060
Si Si3 0.202249 0.720498 0.776498
Si Si4 0.725732 0.302761 0.505794
Si Si5 0.808842 0.474986 0.607168
Si Si6 0.376945 0.604650 0.644225
Si Si7 0.528794 0.624529 0.023367
Si Si8 0.992580 0.723431 0.749880
O O1 0.500000 0.500000 0.500000
O O2 0.587121 0.451243 0.727089
O O3 0.601834 0.499688 0.461333
O O4 0.538657 0.634616 0.678908
O O5 0.158991 0.885394 0.268226
O O6 0.168944 0.023332 0.047188
O O7 0.088804 0.894311 0.049034
O O8 0.230083 0.725189 0.620445
O O9 0.174235 0.840601 0.834415
O O10 0.256835 0.706099 0.877708
O O11 0.744212 0.431147 0.574045
O O12 0.663066 0.310637 0.449666
O O13 0.838190 0.551579 0.730525
O O14 0.431581 0.674593 0.703563
O O15 0.517542 0.656469 0.186264
O O16 0.500000 0.500000 0.000000
O O17 0.496826 0.718235 0.921559
#
# Coordination Sequence:
#
# PCOD9459916 Si02
#       8
#     8   8   8   8   8   8   8   8
#     4   9  22  40  63 102 134 181 237 287 348 440
#     4  10  21  38  69  94 134 180 225 298 349 411
#     4   9  21  40  59  96 125 170 239 281 353 417
#     4   9  22  39  60  92 128 173 224 294 345 424
#     4   9  22  38  63  96 127 168 235 286 351 425
#     4  11  22  42  66  96 138 182 232 292 371 423
#     4  11  25  43  68 104 145 187 238 290 355 435
#     4  10  25  42  67  98 139 187 230 292 352 429
#
# _framework density 25.606275
#
# number of rings (size 3 to 8) (size 9 to 14) (size 15 to 20)
#    0.750    1.500    0.000    0.750    7.000    8.000 
#    0.000    0.000    0.000    0.000    0.000    0.000 
#    0.000    0.000    0.000    0.000    0.000    0.000 
#
# Total GULP energy -356431.819657 kJ/mol
# GULP energy per Si atom -5569.247182 kJ/mol
# Density = 2.554799 g / cm^3
# Si number density = 25.606275 Si / 1000 Ang^3
#
#
#
# Elastic Constant Matrix: (Units=GPa)
#
#
# Indices 1 2 3 4 5 6 
#
# 1 111.9275 10.5647 38.3418 0.0000 0.0000 0.0000
# 2 10.5647 39.4931 15.6259 0.0000 0.0000 0.0000
# 3 38.3418 15.6259 100.5528 0.0000 0.0000 0.0000
# 4 0.0000 0.0000 0.0000 33.2557 0.0000 0.0000
# 5 0.0000 0.0000 0.0000 0.0000 43.4598 0.0000
# 6 0.0000 0.0000 0.0000 0.0000 0.0000 13.9441
#
#
#
# Elastic Compliance Matrix: (Units=1/GPa)
#
#
# Indices 1 2 3 4 5 6 
#
# 1 0.010338 -0.001285 -0.003742 0.000000 0.000000 0.000000
# 2 -0.001285 0.027139 -0.003728 0.000000 0.000000 0.000000
# 3 -0.003742 -0.003728 0.011951 0.000000 0.000000 0.000000
# 4 0.000000 0.000000 0.000000 0.030070 0.000000 0.000000
# 5 0.000000 0.000000 0.000000 0.000000 0.023010 0.000000
# 6 0.000000 0.000000 0.000000 0.000000 0.000000 0.071715
#
#
# Mechanical properties :
#
#
# Convention : Reuss Voigt Hill
#
# Bulk Modulus (GPa) = 31.32909 42.33757 36.83333
# Shear Modulus (GPa) = 24.70706 30.62800 27.66753
#
# Velocity S-wave (km/s) = 3.10963 3.46224 3.29066
# Velocity P-wave (km/s) = 5.01543 5.70550 5.37156
#
# Compressibility (1/GPa) = 0.03191922
#
# Stress axis : x y z
#
# Youngs Moduli (GPa) = 96.73491 36.84680 83.67357
#
# Poissons Ratio (x) = 0.04734 0.31312
# Poissons Ratio (y) = 0.12428 0.31190
# Poissons Ratio (z) = 0.36200 0.13735
#
# Static dielectric constant tensor:
#      x y z
#    x 2.124660 0.000000 0.000000 
#    y 0.000000 2.160440 0.000000 
#    z 0.000000 0.000000 2.018270 
# 
# From -- ./inp_files/4334.got.cif
#   From: 2010.05.17/outbox.cif.g08.bks.cpg/sg61_3_cif.got.tgz:4334.got - 2010.06.03 15:17:17.
