data_PCOD9459094
_publ_section_title
;
Structure prediction by ZEFSAII (Michael W. Deem and Ramdas Pophale) SiO2 
 PCOD9459094
Probable space group: P B C A
;
_chemical_formula_sum "Si O2"
_cell_formula_units_Z 64
_cell_length_a 25.227372
_cell_length_b 5.319922
_cell_length_c 19.002686
_cell_angle_alpha 90.000000
_cell_angle_beta 90.000000
_cell_angle_gamma 90.000000
_cell_volume 2550.305857
_symmetry_space_group_name_H-M "P B C A"
_symmetry_group_IT_number 61
_symmetry_cell_setting 'orthorhombic'
loop_
_space_group_symop_operation_xyz
x,y,z
1/2-x,-y,1/2+z
1/2+x,1/2-y,-z
-x,1/2+y,1/2-z
-x,-y,-z
1/2+x,y,1/2-z
1/2-x,1/2+y,z
x,1/2-y,1/2+z
loop_
_atom_site_type_symbol
_atom_site_label
_atom_site_fract_x
_atom_site_fract_y
_atom_site_fract_z
Si Si1 0.285310 0.496581 0.076781
Si Si2 0.440728 0.001047 0.069230
Si Si3 0.144759 0.663470 0.170007
Si Si4 0.716467 0.419067 0.219811
Si Si5 0.474335 0.667240 0.842293
Si Si6 0.715462 0.934638 0.575782
Si Si7 0.437209 0.063432 0.768364
Si Si8 0.040318 0.767204 0.926087
O O1 0.259389 0.772705 0.080296
O O2 0.326091 0.400180 0.134301
O O3 0.311386 0.473683 0.999224
O O4 0.386242 0.006924 0.110531
O O5 0.480626 0.163599 0.118830
O O6 0.476041 0.749678 0.065277
O O7 0.436417 0.124255 0.992191
O O8 0.184554 0.485806 0.211243
O O9 0.105681 0.785107 0.226720
O O10 0.736440 0.132100 0.219065
O O11 0.686270 0.495674 0.147764
O O12 0.428146 0.779070 0.792919
O O13 0.511510 0.536549 0.782673
O O14 0.446989 0.553695 0.911627
O O15 0.737705 0.649185 0.576882
O O16 0.446100 0.174694 0.846751
#
# Coordination Sequence:
#
# PCOD9459094 Si02
#       8
#     8   8   8   8   8   8   8   8
#     4  10  21  42  65  90 128 177 214 266 334 390
#     4   9  22  38  60  92 116 162 209 262 315 382
#     4  11  23  39  58  96 128 160 219 268 317 398
#     4  10  21  42  65  93 130 174 213 270 339 392
#     4  10  18  37  60  82 118 161 201 247 321 384
#     4   8  16  33  64  87 113 161 216 253 314 393
#     4  10  21  35  58  92 117 160 207 259 316 378
#     4  10  19  40  64  82 125 162 203 258 327 387
#
# _framework density 25.095027999999999
#
# number of rings (size 3 to 8) (size 9 to 14) (size 15 to 20)
#    0.000    2.250    1.250    1.125    0.000    1.000 
#   13.500    0.000    8.250    0.000    0.000    0.000 
#    0.000    0.000    0.000    0.000    0.000    0.000 
#
# Total GULP energy -356720.145942 kJ/mol
# GULP energy per Si atom -5573.752280 kJ/mol
# Density = 2.503791 g / cm^3
# Si number density = 25.095028 Si / 1000 Ang^3
#
#
#
# Elastic Constant Matrix: (Units=GPa)
#
#
# Indices 1 2 3 4 5 6 
#
# 1 29.6342 3.6960 37.3651 0.0000 0.0000 0.0000
# 2 3.6960 64.1892 20.5358 0.0000 0.0000 0.0000
# 3 37.3651 20.5358 183.0011 0.0000 0.0000 0.0000
# 4 0.0000 0.0000 0.0000 36.3899 0.0000 0.0000
# 5 0.0000 0.0000 0.0000 0.0000 20.4704 0.0000
# 6 0.0000 0.0000 0.0000 0.0000 0.0000 10.9769
#
#
#
# Elastic Compliance Matrix: (Units=1/GPa)
#
#
# Indices 1 2 3 4 5 6 
#
# 1 0.045452 0.000365 -0.009321 0.000000 0.000000 0.000000
# 2 0.000365 0.016162 -0.001888 0.000000 0.000000 0.000000
# 3 -0.009321 -0.001888 0.007580 0.000000 0.000000 0.000000
# 4 0.000000 0.000000 0.000000 0.027480 0.000000 0.000000
# 5 0.000000 0.000000 0.000000 0.000000 0.048851 0.000000
# 6 0.000000 0.000000 0.000000 0.000000 0.000000 0.091100
#
#
# Mechanical properties :
#
#
# Convention : Reuss Voigt Hill
#
# Bulk Modulus (GPa) = 21.05046 44.44647 32.74846
# Shear Modulus (GPa) = 18.23820 27.91593 23.07707
#
# Velocity S-wave (km/s) = 2.69878 3.33890 3.03576
# Velocity P-wave (km/s) = 4.25650 5.71087 5.03646
#
# Compressibility (1/GPa) = 0.04750491
#
# Stress axis : x y z
#
# Youngs Moduli (GPa) = 22.00100 61.87348 131.93351
#
# Poissons Ratio (x) = -0.02259 1.22981
# Poissons Ratio (y) = -0.00803 0.24911
# Poissons Ratio (z) = 0.20508 0.11683
#
# Static dielectric constant tensor:
#      x y z
#    x 1.987610 0.000000 0.000000 
#    y 0.000000 2.765640 0.000000 
#    z 0.000000 0.000000 2.011540 
# 
# From -- ./inp_files/10677.got.cif
#   From: 2010.05.17/outbox.cif.g08.bks.cpg/sg61_6_cif.got.tgz:10677.got - 2010.06.03 15:17:17.
