data_PCOD9459537
_publ_section_title
;
Structure prediction by ZEFSAII (Michael W. Deem and Ramdas Pophale) SiO2 
 PCOD9459537
Probable space group: P B C A
;
_chemical_formula_sum "Si O2"
_cell_formula_units_Z 64
_cell_length_a 15.848190
_cell_length_b 9.344481
_cell_length_c 19.521958
_cell_angle_alpha 90.000000
_cell_angle_beta 90.000000
_cell_angle_gamma 90.000000
_cell_volume 2891.067480
_symmetry_space_group_name_H-M "P B C A"
_symmetry_group_IT_number 61
_symmetry_cell_setting 'orthorhombic'
loop_
_space_group_symop_operation_xyz
x,y,z
1/2-x,-y,1/2+z
1/2+x,1/2-y,-z
-x,1/2+y,1/2-z
-x,-y,-z
1/2+x,y,1/2-z
1/2-x,1/2+y,z
x,1/2-y,1/2+z
loop_
_atom_site_type_symbol
_atom_site_label
_atom_site_fract_x
_atom_site_fract_y
_atom_site_fract_z
Si Si1 0.978785 0.590973 0.303157
Si Si2 0.705624 0.135533 0.893937
Si Si3 0.636468 0.624146 0.588609
Si Si4 0.213109 0.094059 0.019110
Si Si5 0.709539 0.350635 0.779875
Si Si6 0.221217 0.411225 0.305679
Si Si7 0.979284 0.577449 0.833846
Si Si8 0.598024 0.545340 0.083033
O O1 0.878585 0.582084 0.301227
O O2 0.015557 0.521199 0.233781
O O3 0.999427 0.760480 0.307929
O O4 0.012305 0.525198 0.374558
O O5 0.743589 0.239190 0.835522
O O6 0.612936 0.087550 0.868444
O O7 0.700418 0.242808 0.958679
O O8 0.762599 0.004244 0.916604
O O9 0.705042 0.578152 0.531329
O O10 0.688786 0.617572 0.659510
O O11 0.550132 0.542027 0.608373
O O12 0.611664 0.786610 0.570321
O O13 0.127270 0.039331 0.983781
O O14 0.687843 0.242728 0.717010
O O15 0.769989 0.475111 0.755187
O O16 0.164595 0.489141 0.361024
#
# Coordination Sequence:
#
# PCOD9459537 Si02
#       8
#     8   8   8   8   8   8   8   8
#     4  10  21  40  62  99 132 161 203 274 340 393
#     4  11  24  42  63  92 131 174 218 268 311 387
#     4  10  20  38  66  91 129 168 213 269 320 384
#     4  11  23  43  64  90 127 177 231 258 305 382
#     4  11  22  38  62  97 129 161 207 269 335 384
#     4  11  20  36  65  99 122 162 211 266 333 387
#     4  10  22  42  66  97 134 164 211 272 341 393
#     4  10  20  37  65  91 124 168 213 266 316 379
#
# _framework density 22.137150999999999
#
# number of rings (size 3 to 8) (size 9 to 14) (size 15 to 20)
#    0.000    1.500    3.750    2.250    0.000    0.500 
#    2.250    5.625    0.000    0.000    0.000    0.000 
#    0.000    0.000    0.000    0.000    0.000    0.000 
#
# Total GULP energy -357312.581593 kJ/mol
# GULP energy per Si atom -5583.009087 kJ/mol
# Density = 2.208677 g / cm^3
# Si number density = 22.137151 Si / 1000 Ang^3
#
#
#
# Elastic Constant Matrix: (Units=GPa)
#
#
# Indices 1 2 3 4 5 6 
#
# 1 75.8261 24.2895 39.8710 0.0000 0.0000 0.0000
# 2 24.2895 61.5540 21.7425 0.0000 0.0000 0.0000
# 3 39.8710 21.7425 75.9376 0.0000 0.0000 0.0000
# 4 0.0000 0.0000 0.0000 41.7322 0.0000 0.0000
# 5 0.0000 0.0000 0.0000 0.0000 35.2786 0.0000
# 6 0.0000 0.0000 0.0000 0.0000 0.0000 20.0088
#
#
#
# Elastic Compliance Matrix: (Units=1/GPa)
#
#
# Indices 1 2 3 4 5 6 
#
# 1 0.019269 -0.004483 -0.008834 0.000000 0.000000 0.000000
# 2 -0.004483 0.019117 -0.003120 0.000000 0.000000 0.000000
# 3 -0.008834 -0.003120 0.018700 0.000000 0.000000 0.000000
# 4 0.000000 0.000000 0.000000 0.023962 0.000000 0.000000
# 5 0.000000 0.000000 0.000000 0.000000 0.028346 0.000000
# 6 0.000000 0.000000 0.000000 0.000000 0.000000 0.049978
#
#
# Mechanical properties :
#
#
# Convention : Reuss Voigt Hill
#
# Bulk Modulus (GPa) = 41.30016 42.79152 42.04584
# Shear Modulus (GPa) = 24.96052 27.89822 26.42937
#
# Velocity S-wave (km/s) = 3.36153 3.55384 3.45902
# Velocity P-wave (km/s) = 5.81064 6.01763 5.91504
#
# Compressibility (1/GPa) = 0.02421298
#
# Stress axis : x y z
#
# Youngs Moduli (GPa) = 51.89646 52.30948 53.47610
#
# Poissons Ratio (x) = 0.23453 0.47238
# Poissons Ratio (y) = 0.23268 0.16682
# Poissons Ratio (z) = 0.45843 0.16318
#
# Static dielectric constant tensor:
#      x y z
#    x 1.832290 0.000000 0.000000 
#    y 0.000000 1.773580 0.000000 
#    z 0.000000 0.000000 1.917130 
# 
# From -- ./inp_files/10553.got.cif
#   From: 2010.05.17/outbox.cif.g08.bks.cpg/sg61_6_cif.got.tgz:10553.got - 2010.06.03 15:17:17.
