data_PCOD9459818
_publ_section_title
;
Structure prediction by ZEFSAII (Michael W. Deem and Ramdas Pophale) SiO2 
 PCOD9459818
Probable space group: P B C A
;
_chemical_formula_sum "Si O2"
_cell_formula_units_Z 48
_cell_length_a 10.622759
_cell_length_b 23.385914
_cell_length_c 9.292562
_cell_angle_alpha 90.000000
_cell_angle_beta 90.000000
_cell_angle_gamma 90.000000
_cell_volume 2308.485465
_symmetry_space_group_name_H-M "P B C A"
_symmetry_group_IT_number 61
_symmetry_cell_setting 'orthorhombic'
loop_
_space_group_symop_operation_xyz
x,y,z
1/2-x,-y,1/2+z
1/2+x,1/2-y,-z
-x,1/2+y,1/2-z
-x,-y,-z
1/2+x,y,1/2-z
1/2-x,1/2+y,z
x,1/2-y,1/2+z
loop_
_atom_site_type_symbol
_atom_site_label
_atom_site_fract_x
_atom_site_fract_y
_atom_site_fract_z
Si Si1 0.051978 0.292774 0.181650
Si Si2 0.142416 0.446923 0.624064
Si Si3 0.150767 0.536968 0.373351
Si Si4 0.232971 0.149612 0.499726
Si Si5 0.406208 0.243837 0.067865
Si Si6 0.309420 0.822563 0.687317
O O1 0.143741 0.344554 0.139529
O O2 0.114839 0.232389 0.137276
O O3 0.010278 0.278664 0.341336
O O4 0.938311 0.294754 0.069580
O O5 0.159098 0.482795 0.478516
O O6 0.248029 0.464628 0.743005
O O7 0.165109 0.379580 0.599494
O O8 0.996073 0.455892 0.672715
O O9 0.191070 0.592000 0.470341
O O10 0.321116 0.204368 0.513519
O O11 0.156769 0.161051 0.351674
O O12 0.333217 0.200688 0.175499
#
# Coordination Sequence:
#
# PCOD9459818 Si02
#       6
#     8   8   8   8   8   8
#     4  11  21  36  58  89 125 162 207 257 315 389
#     4  10  23  44  70  91 132 168 227 276 332 388
#     4  10  23  46  66  97 127 175 219 281 328 395
#     4  10  21  38  60  89 124 164 214 256 322 386
#     4  11  21  36  57  90 124 163 205 258 317 381
#     4  10  21  36  63  86 122 172 207 255 323 386
#
# _framework density 20.792853999999998
#
# number of rings (size 3 to 8) (size 9 to 14) (size 15 to 20)
#    0.000    1.667    3.333    1.000    2.333    0.667 
#   12.000    0.000    0.000    0.000    0.000    0.000 
#    0.000    0.000    0.000    0.000    0.000    0.000 
#
# Total GULP energy -267353.812819 kJ/mol
# GULP energy per Si atom -5569.871100 kJ/mol
# Density = 2.074553 g / cm^3
# Si number density = 20.792854 Si / 1000 Ang^3
#
#
#
# Elastic Constant Matrix: (Units=GPa)
#
#
# Indices 1 2 3 4 5 6 
#
# 1 76.8504 18.5680 22.0824 0.0000 0.0000 0.0000
# 2 18.5680 75.9013 16.1550 0.0000 0.0000 0.0000
# 3 22.0824 16.1550 47.9330 0.0000 0.0000 0.0000
# 4 0.0000 0.0000 0.0000 28.9725 0.0000 0.0000
# 5 0.0000 0.0000 0.0000 0.0000 24.0829 0.0000
# 6 0.0000 0.0000 0.0000 0.0000 0.0000 18.3598
#
#
#
# Elastic Compliance Matrix: (Units=1/GPa)
#
#
# Indices 1 2 3 4 5 6 
#
# 1 0.015403 -0.002432 -0.006277 0.000000 0.000000 0.000000
# 2 -0.002432 0.014577 -0.003792 0.000000 0.000000 0.000000
# 3 -0.006277 -0.003792 0.025032 0.000000 0.000000 0.000000
# 4 0.000000 0.000000 0.000000 0.034515 0.000000 0.000000
# 5 0.000000 0.000000 0.000000 0.000000 0.041523 0.000000
# 6 0.000000 0.000000 0.000000 0.000000 0.000000 0.054467
#
#
# Mechanical properties :
#
#
# Convention : Reuss Voigt Hill
#
# Bulk Modulus (GPa) = 33.32187 34.92174 34.12180
# Shear Modulus (GPa) = 22.67323 23.87499 23.27411
#
# Velocity S-wave (km/s) = 3.30575 3.39223 3.34927
# Velocity P-wave (km/s) = 5.53454 5.67226 5.60382
#
# Compressibility (1/GPa) = 0.03001032
#
# Stress axis : x y z
#
# Youngs Moduli (GPa) = 64.92035 68.60017 39.94857
#
# Poissons Ratio (x) = 0.16686 0.25074
# Poissons Ratio (y) = 0.15791 0.15150
# Poissons Ratio (z) = 0.40747 0.26016
#
# Static dielectric constant tensor:
#      x y z
#    x 1.912330 0.000000 0.000000 
#    y 0.000000 1.708430 0.000000 
#    z 0.000000 0.000000 1.729740 
# 
# From -- ./inp_files/2274.got.cif
#   From: 2010.05.17/outbox.cif.g08.bks.cpg/sg61_2_cif.got.tgz:2274.got - 2010.06.03 15:17:17.
