data_PCOD9459990
_publ_section_title
;
Structure prediction by ZEFSAII (Michael W. Deem and Ramdas Pophale) SiO2 
 PCOD9459990
Probable space group: P B C A
;
_chemical_formula_sum "Si O2"
_cell_formula_units_Z 52
_cell_length_a 14.639314
_cell_length_b 16.341288
_cell_length_c 8.096833
_cell_angle_alpha 90.000000
_cell_angle_beta 90.000000
_cell_angle_gamma 90.000000
_cell_volume 1936.966868
_symmetry_space_group_name_H-M "P B C A"
_symmetry_group_IT_number 61
_symmetry_cell_setting 'orthorhombic'
loop_
_space_group_symop_operation_xyz
x,y,z
1/2-x,-y,1/2+z
1/2+x,1/2-y,-z
-x,1/2+y,1/2-z
-x,-y,-z
1/2+x,y,1/2-z
1/2-x,1/2+y,z
x,1/2-y,1/2+z
loop_
_atom_site_type_symbol
_atom_site_label
_atom_site_fract_x
_atom_site_fract_y
_atom_site_fract_z
Si Si1 0.500000 0.000000 0.500000
Si Si2 0.869530 0.632512 0.016121
Si Si3 0.415370 0.328759 0.532096
Si Si4 0.656415 0.074654 0.454570
Si Si5 0.664823 0.520006 0.305325
Si Si6 0.151454 0.283472 0.309457
Si Si7 0.062527 0.662627 0.673826
O O1 0.444652 0.929386 0.615123
O O2 0.550965 0.926040 0.399575
O O3 0.830572 0.687288 0.166674
O O4 0.976358 0.653210 0.023591
O O5 0.863494 0.538794 0.958042
O O6 0.819126 0.676037 0.860501
O O7 0.375885 0.391096 0.664711
O O8 0.385079 0.346021 0.345774
O O9 0.394100 0.234718 0.567979
O O10 0.728008 0.032687 0.335385
O O11 0.683031 0.160217 0.536889
O O12 0.635645 0.018573 0.627038
O O13 0.041487 0.301867 0.304140
#
# Coordination Sequence:
#
# PCOD9459990 Si02
#       7
#     4   8   8   8   8   8   8
#     4  10  22  44  72  90 132 188 230 270 344 412
#     4   9  18  37  63  90 124 167 212 268 325 401
#     4  10  21  40  63 100 132 171 218 277 336 411
#     4  10  24  43  63  93 130 176 219 284 334 411
#     4  11  24  42  62  97 135 166 231 277 347 402
#     4   8  17  37  57  87 123 161 214 257 324 386
#     4   9  20  38  65  95 128 173 223 272 329 402
#
# _framework density 26.846097
#
# number of rings (size 3 to 8) (size 9 to 14) (size 15 to 20)
#    0.000    2.462    0.000    1.385    4.308    1.231 
#   13.846    0.000    0.000    0.000    0.000    0.000 
#    0.000    0.000    0.000    0.000    0.000    0.000 
#
# Total GULP energy -289764.042151 kJ/mol
# GULP energy per Si atom -5572.385426 kJ/mol
# Density = 2.678499 g / cm^3
# Si number density = 26.846097 Si / 1000 Ang^3
#
#
#
# Elastic Constant Matrix: (Units=GPa)
#
#
# Indices 1 2 3 4 5 6 
#
# 1 53.6490 -5.8484 1.7156 0.0000 0.0000 0.0000
# 2 -5.8484 140.2093 40.4887 0.0000 0.0000 0.0000
# 3 1.7156 40.4887 85.4074 0.0000 0.0000 0.0000
# 4 0.0000 0.0000 0.0000 45.4315 0.0000 0.0000
# 5 0.0000 0.0000 0.0000 0.0000 9.9628 0.0000
# 6 0.0000 0.0000 0.0000 0.0000 0.0000 6.2431
#
#
#
# Elastic Compliance Matrix: (Units=1/GPa)
#
#
# Indices 1 2 3 4 5 6 
#
# 1 0.018780 0.001034 -0.000867 0.000000 0.000000 0.000000
# 2 0.001034 0.008320 -0.003965 0.000000 0.000000 0.000000
# 3 -0.000867 -0.003965 0.013606 0.000000 0.000000 0.000000
# 4 0.000000 0.000000 0.000000 0.022011 0.000000 0.000000
# 5 0.000000 0.000000 0.000000 0.000000 0.100373 0.000000
# 6 0.000000 0.000000 0.000000 0.000000 0.000000 0.160177
#
#
# Mechanical properties :
#
#
# Convention : Reuss Voigt Hill
#
# Bulk Modulus (GPa) = 30.20340 39.10861 34.65600
# Shear Modulus (GPa) = 14.62411 28.52147 21.57279
#
# Velocity S-wave (km/s) = 2.33650 3.26299 2.83781
# Velocity P-wave (km/s) = 4.30743 5.36614 4.86567
#
# Compressibility (1/GPa) = 0.03310886
#
# Stress axis : x y z
#
# Youngs Moduli (GPa) = 53.24780 120.18733 73.49835
#
# Poissons Ratio (x) = -0.12425 0.06375
# Poissons Ratio (y) = -0.05505 0.29143
# Poissons Ratio (z) = 0.04618 0.47656
#
# Static dielectric constant tensor:
#      x y z
#    x 1.714030 0.000000 0.000000 
#    y 0.000000 2.132160 0.000000 
#    z 0.000000 0.000000 2.133590 
# 
# From -- ./inp_files/3898.got.cif
#   From: 2010.05.17/outbox.cif.g08.bks.cpg/sg61_2_cif.got.tgz:3898.got - 2010.06.03 15:17:17.
