data_PCOD9459344
_publ_section_title
;
Structure prediction by ZEFSAII (Michael W. Deem and Ramdas Pophale) SiO2 
 PCOD9459344
Probable space group: P B C A
;
_chemical_formula_sum "Si O2"
_cell_formula_units_Z 64
_cell_length_a 9.612855
_cell_length_b 15.095768
_cell_length_c 20.688919
_cell_angle_alpha 90.000000
_cell_angle_beta 90.000000
_cell_angle_gamma 90.000000
_cell_volume 3002.239976
_symmetry_space_group_name_H-M "P B C A"
_symmetry_group_IT_number 61
_symmetry_cell_setting 'orthorhombic'
loop_
_space_group_symop_operation_xyz
x,y,z
1/2-x,-y,1/2+z
1/2+x,1/2-y,-z
-x,1/2+y,1/2-z
-x,-y,-z
1/2+x,y,1/2-z
1/2-x,1/2+y,z
x,1/2-y,1/2+z
loop_
_atom_site_type_symbol
_atom_site_label
_atom_site_fract_x
_atom_site_fract_y
_atom_site_fract_z
Si Si1 0.645444 0.859941 0.394318
Si Si2 0.446117 0.492856 0.879899
Si Si3 0.988963 0.879196 0.756332
Si Si4 0.326702 0.891332 0.544985
Si Si5 0.380365 0.532668 0.563065
Si Si6 0.819522 0.698978 0.008330
Si Si7 0.639812 0.427878 0.620432
Si Si8 0.242433 0.694528 0.180146
O O1 0.679376 0.822348 0.466347
O O2 0.673944 0.785252 0.342513
O O3 0.500122 0.907985 0.388436
O O4 0.766634 0.934125 0.384605
O O5 0.495247 0.453628 0.811058
O O6 0.527996 0.436775 0.935057
O O7 0.282906 0.480763 0.882698
O O8 0.906011 0.909817 0.693287
O O9 0.896316 0.802406 0.789767
O O10 0.138668 0.849952 0.730691
O O11 0.218012 0.966309 0.521102
O O12 0.345113 0.802125 0.503699
O O13 0.258593 0.859563 0.613212
O O14 0.582174 0.373896 0.471579
O O15 0.512465 0.481631 0.588712
O O16 0.829153 0.663433 0.080952
#
# Coordination Sequence:
#
# PCOD9459344 Si02
#       8
#     8   8   8   8   8   8   8   8
#     4   8  20  42  62  83 121 163 198 250 323 361
#     4  10  22  40  60  90 119 171 204 251 310 363
#     4  11  22  39  61  86 119 161 207 252 303 360
#     4   9  18  40  65  82 127 165 197 245 321 362
#     4   9  19  38  64  89 121 165 193 253 312 367
#     4   9  21  38  65  95 121 165 207 251 315 374
#     4  12  22  37  63  94 125 155 217 254 297 379
#     4  10  19  41  62  83 117 157 205 253 298 367
#
# _framework density 21.317416999999999
#
# number of rings (size 3 to 8) (size 9 to 14) (size 15 to 20)
#    0.750    1.500    2.500    0.375    0.000    1.500 
#    4.500    1.250    0.000    0.000    0.000    0.000 
#    0.000    0.000    0.000    0.000    0.000    0.000 
#
# Total GULP energy -356846.451020 kJ/mol
# GULP energy per Si atom -5575.725797 kJ/mol
# Density = 2.126890 g / cm^3
# Si number density = 21.317417 Si / 1000 Ang^3
#
#
#
# Elastic Constant Matrix: (Units=GPa)
#
#
# Indices 1 2 3 4 5 6 
#
# 1 80.7550 4.0682 23.0970 0.0000 0.0000 0.0000
# 2 4.0682 77.6535 26.4661 0.0000 0.0000 0.0000
# 3 23.0970 26.4661 97.5583 0.0000 0.0000 0.0000
# 4 0.0000 0.0000 0.0000 28.0048 0.0000 0.0000
# 5 0.0000 0.0000 0.0000 0.0000 21.8965 0.0000
# 6 0.0000 0.0000 0.0000 0.0000 0.0000 0.6377
#
#
#
# Elastic Compliance Matrix: (Units=1/GPa)
#
#
# Indices 1 2 3 4 5 6 
#
# 1 0.013295 0.000415 -0.003260 0.000000 0.000000 0.000000
# 2 0.000415 0.014203 -0.003951 0.000000 0.000000 0.000000
# 3 -0.003260 -0.003951 0.012094 0.000000 0.000000 0.000000
# 4 0.000000 0.000000 0.000000 0.035708 0.000000 0.000000
# 5 0.000000 0.000000 0.000000 0.000000 0.045670 0.000000
# 6 0.000000 0.000000 0.000000 0.000000 0.000000 1.568022
#
#
# Mechanical properties :
#
#
# Convention : Reuss Voigt Hill
#
# Bulk Modulus (GPa) = 38.46419 40.35881 39.41150
# Shear Modulus (GPa) = 2.92184 23.59683 13.25934
#
# Velocity S-wave (km/s) = 1.17201 3.33066 2.49669
# Velocity P-wave (km/s) = 4.46253 5.81072 5.18067
#
# Compressibility (1/GPa) = 0.02599821
#
# Stress axis : x y z
#
# Youngs Moduli (GPa) = 75.21824 70.40954 82.68590
#
# Poissons Ratio (x) = -0.02919 0.26955
# Poissons Ratio (y) = -0.03118 0.32670
# Poissons Ratio (z) = 0.24521 0.27820
#
# Static dielectric constant tensor:
#      x y z
#    x 1.791780 0.000000 0.000000 
#    y 0.000000 1.790920 0.000000 
#    z 0.000000 0.000000 1.797280 
# 
# From -- ./inp_files/10949.got.cif
#   From: 2010.05.17/outbox.cif.g08.bks.cpg/sg61_6_cif.got.tgz:10949.got - 2010.06.03 15:17:17.
