data_PCOD9459870
_publ_section_title
;
Structure prediction by ZEFSAII (Michael W. Deem and Ramdas Pophale) SiO2 
 PCOD9459870
Probable space group: P B C A
;
_chemical_formula_sum "Si O2"
_cell_formula_units_Z 48
_cell_length_a 7.790229
_cell_length_b 23.833059
_cell_length_c 10.068777
_cell_angle_alpha 90.000000
_cell_angle_beta 90.000000
_cell_angle_gamma 90.000000
_cell_volume 1869.419355
_symmetry_space_group_name_H-M "P B C A"
_symmetry_group_IT_number 61
_symmetry_cell_setting 'orthorhombic'
loop_
_space_group_symop_operation_xyz
x,y,z
1/2-x,-y,1/2+z
1/2+x,1/2-y,-z
-x,1/2+y,1/2-z
-x,-y,-z
1/2+x,y,1/2-z
1/2-x,1/2+y,z
x,1/2-y,1/2+z
loop_
_atom_site_type_symbol
_atom_site_label
_atom_site_fract_x
_atom_site_fract_y
_atom_site_fract_z
Si Si1 0.384145 0.007882 0.655596
Si Si2 0.914062 0.585420 0.846110
Si Si3 0.100350 0.244543 0.925157
Si Si4 0.328359 0.071278 0.341445
Si Si5 0.996929 0.631929 0.095065
Si Si6 0.268344 0.204219 0.676611
O O1 0.216414 0.037794 0.594491
O O2 0.499232 0.056621 0.720125
O O3 0.299447 0.975459 0.782018
O O4 0.509269 0.960351 0.592302
O O5 0.814859 0.642726 0.813942
O O6 0.053643 0.604787 0.955774
O O7 0.000535 0.302067 0.890447
O O8 0.254692 0.231750 0.822710
O O9 0.955392 0.199294 0.889698
O O10 0.162068 0.256146 0.074095
O O11 0.206585 0.117367 0.406300
O O12 0.408142 0.102639 0.214318
#
# Coordination Sequence:
#
# PCOD9459870 Si02
#       6
#     8   8   8   8   8   8
#     4   9  19  35  56  83 113 147 191 237 286 351
#     4  10  21  38  58  83 116 154 193 242 299 356
#     4  11  23  40  63  91 124 165 208 257 311 369
#     4   9  19  35  56  83 113 148 191 237 286 351
#     4  10  21  38  58  82 116 154 194 242 299 356
#     4  11  23  40  63  90 124 163 207 256 311 369
#
# _framework density 25.676421999999999
#
# number of rings (size 3 to 8) (size 9 to 14) (size 15 to 20)
#    0.000    2.000    0.000    3.000    0.000    9.333 
#    0.000    5.000    0.000    0.000    0.000    0.000 
#    0.000    0.000    0.000    0.000    0.000    0.000 
#
# Total GULP energy -268217.443654 kJ/mol
# GULP energy per Si atom -5587.863409 kJ/mol
# Density = 2.561798 g / cm^3
# Si number density = 25.676422 Si / 1000 Ang^3
#
#
#
# Elastic Constant Matrix: (Units=GPa)
#
#
# Indices 1 2 3 4 5 6 
#
# 1 74.6927 10.5406 12.1876 0.0000 0.0000 0.0000
# 2 10.5406 89.4234 22.3129 0.0000 0.0000 0.0000
# 3 12.1876 22.3129 55.5271 0.0000 0.0000 0.0000
# 4 0.0000 0.0000 0.0000 36.5522 0.0000 0.0000
# 5 0.0000 0.0000 0.0000 0.0000 9.1301 0.0000
# 6 0.0000 0.0000 0.0000 0.0000 0.0000 52.2170
#
#
#
# Elastic Compliance Matrix: (Units=1/GPa)
#
#
# Indices 1 2 3 4 5 6 
#
# 1 0.013962 -0.000979 -0.002671 0.000000 0.000000 0.000000
# 2 -0.000979 0.012498 -0.004807 0.000000 0.000000 0.000000
# 3 -0.002671 -0.004807 0.020527 0.000000 0.000000 0.000000
# 4 0.000000 0.000000 0.000000 0.027358 0.000000 0.000000
# 5 0.000000 0.000000 0.000000 0.000000 0.109527 0.000000
# 6 0.000000 0.000000 0.000000 0.000000 0.000000 0.019151
#
#
# Mechanical properties :
#
#
# Convention : Reuss Voigt Hill
#
# Bulk Modulus (GPa) = 33.25334 34.41396 33.83365
# Shear Modulus (GPa) = 21.74270 31.22002 26.48136
#
# Velocity S-wave (km/s) = 2.91313 3.49076 3.21495
# Velocity P-wave (km/s) = 4.92891 5.44787 5.19487
#
# Compressibility (1/GPa) = 0.03007217
#
# Stress axis : x y z
#
# Youngs Moduli (GPa) = 71.62188 80.01499 48.71593
#
# Poissons Ratio (x) = 0.07836 0.13012
# Poissons Ratio (y) = 0.07014 0.23418
# Poissons Ratio (z) = 0.19131 0.38464
#
# Static dielectric constant tensor:
#      x y z
#    x 2.081360 0.000000 0.000000 
#    y 0.000000 1.997890 0.000000 
#    z 0.000000 0.000000 2.308990 
# 
# From -- ./inp_files/4223.got.cif
#   From: 2010.05.17/outbox.cif.g08.bks.cpg/sg61_3_cif.got.tgz:4223.got - 2010.06.03 15:17:17.
