data_PCOD9459666
_publ_section_title
;
Structure prediction by ZEFSAII (Michael W. Deem and Ramdas Pophale) SiO2 
 PCOD9459666
Probable space group: P B C A
;
_chemical_formula_sum "Si O2"
_cell_formula_units_Z 48
_cell_length_a 15.920232
_cell_length_b 29.667820
_cell_length_c 4.999027
_cell_angle_alpha 90.000000
_cell_angle_beta 90.000000
_cell_angle_gamma 90.000000
_cell_volume 2361.133321
_symmetry_space_group_name_H-M "P B C A"
_symmetry_group_IT_number 61
_symmetry_cell_setting 'orthorhombic'
loop_
_space_group_symop_operation_xyz
x,y,z
1/2-x,-y,1/2+z
1/2+x,1/2-y,-z
-x,1/2+y,1/2-z
-x,-y,-z
1/2+x,y,1/2-z
1/2-x,1/2+y,z
x,1/2-y,1/2+z
loop_
_atom_site_type_symbol
_atom_site_label
_atom_site_fract_x
_atom_site_fract_y
_atom_site_fract_z
Si Si1 0.132164 0.656237 0.659719
Si Si2 0.846024 0.097098 0.356697
Si Si3 0.527018 0.280609 0.192515
Si Si4 0.058535 0.505315 0.251376
Si Si5 0.781666 0.719163 0.627775
Si Si6 0.723359 0.472260 0.070885
O O1 0.159902 0.632120 0.385796
O O2 0.049249 0.686444 0.622606
O O3 0.209155 0.685076 0.783380
O O4 0.111419 0.619703 0.887238
O O5 0.897366 0.053828 0.258219
O O6 0.760291 0.074641 0.467391
O O7 0.519513 0.262126 0.493460
O O8 0.622518 0.298499 0.158252
O O9 0.133779 0.469878 0.287817
O O10 0.000000 0.500000 0.500000
O O11 0.000000 0.500000 0.000000
O O12 0.772842 0.737983 0.327888
O O13 0.779667 0.495309 0.306990
#
# Coordination Sequence:
#
# PCOD9459666 Si02
#       6
#     8   8   8   8   8   8
#     4  12  22  39  61  94 130 160 202 267 328 361
#     4  11  24  40  60  91 129 156 206 262 317 376
#     4  10  21  39  63  88 122 168 209 249 302 378
#     4  11  22  41  65  89 117 165 217 254 310 385
#     4  10  21  39  63  88 121 166 215 246 300 391
#     4  10  20  40  64  84 119 165 208 248 304 382
#
# _framework density 20.329219999999999
#
# number of rings (size 3 to 8) (size 9 to 14) (size 15 to 20)
#    0.000    1.333    0.000    8.000    0.000    0.000 
#    9.000    0.000    0.000    0.000    0.000    0.000 
#    0.000    0.000    0.000    0.000    0.000    0.000 
#
# Total GULP energy -268108.148582 kJ/mol
# GULP energy per Si atom -5585.586429 kJ/mol
# Density = 2.028295 g / cm^3
# Si number density = 20.329220 Si / 1000 Ang^3
#
#
#
# Elastic Constant Matrix: (Units=GPa)
#
#
# Indices 1 2 3 4 5 6 
#
# 1 117.9213 31.0911 15.0210 0.0000 0.0000 0.0000
# 2 31.0911 38.2487 -0.3500 0.0000 0.0000 0.0000
# 3 15.0210 -0.3500 107.0999 0.0000 0.0000 0.0000
# 4 0.0000 0.0000 0.0000 39.8727 0.0000 0.0000
# 5 0.0000 0.0000 0.0000 0.0000 33.0456 0.0000
# 6 0.0000 0.0000 0.0000 0.0000 0.0000 10.5794
#
#
#
# Elastic Compliance Matrix: (Units=1/GPa)
#
#
# Indices 1 2 3 4 5 6 
#
# 1 0.011054 -0.009000 -0.001580 0.000000 0.000000 0.000000
# 2 -0.009000 0.033473 0.001372 0.000000 0.000000 0.000000
# 3 -0.001580 0.001372 0.009563 0.000000 0.000000 0.000000
# 4 0.000000 0.000000 0.000000 0.025080 0.000000 0.000000
# 5 0.000000 0.000000 0.000000 0.000000 0.030261 0.000000
# 6 0.000000 0.000000 0.000000 0.000000 0.000000 0.094523
#
#
# Mechanical properties :
#
#
# Convention : Reuss Voigt Hill
#
# Bulk Modulus (GPa) = 28.03161 39.42159 33.72660
# Shear Modulus (GPa) = 21.34351 31.20005 26.27178
#
# Velocity S-wave (km/s) = 3.24372 3.92182 3.59878
# Velocity P-wave (km/s) = 5.27709 6.31991 5.82190
#
# Compressibility (1/GPa) = 0.03567401
#
# Stress axis : x y z
#
# Youngs Moduli (GPa) = 90.46095 29.87461 104.56822
#
# Poissons Ratio (x) = 0.26888 0.16520
# Poissons Ratio (y) = 0.81417 -0.14344
# Poissons Ratio (z) = 0.14291 -0.04098
#
# Static dielectric constant tensor:
#      x y z
#    x 1.738590 0.000000 0.000000 
#    y 0.000000 1.698360 0.000000 
#    z 0.000000 0.000000 1.683560 
# 
# From -- ./inp_files/529.got.cif
#   From: 2010.05.17/outbox.cif.g08.bks.cpg/sg61_1_cif.got.tgz:529.got - 2010.06.03 15:17:17.
