data_PCOD9459111
_publ_section_title
;
Structure prediction by ZEFSAII (Michael W. Deem and Ramdas Pophale) SiO2 
 PCOD9459111
Probable space group: P B C A
;
_chemical_formula_sum "Si O2"
_cell_formula_units_Z 60
_cell_length_a 17.359232
_cell_length_b 14.703790
_cell_length_c 8.584850
_cell_angle_alpha 90.000000
_cell_angle_beta 90.000000
_cell_angle_gamma 90.000000
_cell_volume 2191.252932
_symmetry_space_group_name_H-M "P B C A"
_symmetry_group_IT_number 61
_symmetry_cell_setting 'orthorhombic'
loop_
_space_group_symop_operation_xyz
x,y,z
1/2-x,-y,1/2+z
1/2+x,1/2-y,-z
-x,1/2+y,1/2-z
-x,-y,-z
1/2+x,y,1/2-z
1/2-x,1/2+y,z
x,1/2-y,1/2+z
loop_
_atom_site_type_symbol
_atom_site_label
_atom_site_fract_x
_atom_site_fract_y
_atom_site_fract_z
Si Si1 0.025386 0.718931 0.241479
Si Si2 0.827985 0.495231 0.893302
Si Si3 0.630061 0.509180 0.046888
Si Si4 0.364376 0.661516 0.163293
Si Si5 0.215489 0.179947 0.495388
Si Si6 0.359379 0.186585 0.982455
Si Si7 0.480339 0.411608 0.175217
Si Si8 0.000000 0.000000 0.500000
O O1 0.956200 0.657726 0.301722
O O2 0.987963 0.809014 0.169670
O O3 0.089206 0.765339 0.350800
O O4 0.074806 0.666671 0.113941
O O5 0.825906 0.469440 0.708521
O O6 0.657318 0.425294 0.940319
O O7 0.815981 0.409690 0.007994
O O8 0.913353 0.531893 0.939602
O O9 0.548976 0.472414 0.113945
O O10 0.774142 0.581835 0.925330
O O11 0.596475 0.585914 0.930971
O O12 0.347981 0.756946 0.079071
O O13 0.314984 0.664527 0.320929
O O14 0.292114 0.240361 0.509644
O O15 0.462026 0.450233 0.345225
#
# Coordination Sequence:
#
# PCOD9459111 Si02
#       8
#     8   8   8   8   8   8   8   4
#     4  12  26  45  76 115 159 204 273 343 405 479
#     4  11  25  47  81 115 161 215 277 345 418 499
#     4  10  23  38  74 114 153 198 269 336 409 480
#     4  12  25  48  78 118 158 216 271 343 410 492
#     4  12  27  52  78 112 164 216 271 331 426 510
#     4  12  29  50  76 117 162 212 272 341 419 501
#     4  10  20  38  64 115 159 192 253 339 408 474
#     4  10  18  38  76 120 150 202 270 342 396 470
#
# _framework density 27.381594
#
# number of rings (size 3 to 8) (size 9 to 14) (size 15 to 20)
#    0.000    0.800    1.333    6.400    9.333    0.000 
#    2.400    4.000    0.000    0.000    0.000    0.000 
#    0.000    0.000    0.000    0.000    0.000    0.000 
#
# Total GULP energy -335223.265540 kJ/mol
# GULP energy per Si atom -5587.054426 kJ/mol
# Density = 2.731927 g / cm^3
# Si number density = 27.381594 Si / 1000 Ang^3
#
#
#
# Elastic Constant Matrix: (Units=GPa)
#
#
# Indices 1 2 3 4 5 6 
#
# 1 137.0462 15.8872 14.0707 0.0000 0.0000 0.0000
# 2 15.8872 124.9700 30.8814 0.0000 0.0000 0.0000
# 3 14.0707 30.8814 112.9913 0.0000 0.0000 0.0000
# 4 0.0000 0.0000 0.0000 46.2419 0.0000 0.0000
# 5 0.0000 0.0000 0.0000 0.0000 25.9124 0.0000
# 6 0.0000 0.0000 0.0000 0.0000 0.0000 23.5664
#
#
#
# Elastic Compliance Matrix: (Units=1/GPa)
#
#
# Indices 1 2 3 4 5 6 
#
# 1 0.007460 -0.000771 -0.000718 0.000000 0.000000 0.000000
# 2 -0.000771 0.008661 -0.002271 0.000000 0.000000 0.000000
# 3 -0.000718 -0.002271 0.009560 0.000000 0.000000 0.000000
# 4 0.000000 0.000000 0.000000 0.021625 0.000000 0.000000
# 5 0.000000 0.000000 0.000000 0.000000 0.038591 0.000000
# 6 0.000000 0.000000 0.000000 0.000000 0.000000 0.042433
#
#
# Mechanical properties :
#
#
# Convention : Reuss Voigt Hill
#
# Bulk Modulus (GPa) = 55.06356 55.18736 55.12546
# Shear Modulus (GPa) = 35.23461 40.08870 37.66165
#
# Velocity S-wave (km/s) = 3.59109 3.83047 3.71271
# Velocity P-wave (km/s) = 6.11129 6.30571 6.20927
#
# Compressibility (1/GPa) = 0.01816083
#
# Stress axis : x y z
#
# Youngs Moduli (GPa) = 134.04969 115.45815 104.59797
#
# Poissons Ratio (x) = 0.08900 0.07513
# Poissons Ratio (y) = 0.10333 0.23756
# Poissons Ratio (z) = 0.09629 0.26222
#
# Static dielectric constant tensor:
#      x y z
#    x 2.169800 0.000000 0.000000 
#    y 0.000000 2.220800 0.000000 
#    z 0.000000 0.000000 2.219520 
# 
# From -- ./inp_files/3596.got.cif
#   From: 2010.05.17/outbox.cif.g08.bks.cpg/sg61_2_cif.got.tgz:3596.got - 2010.06.03 15:17:17.
