data_PCOD9459048
_publ_section_title
;
Structure prediction by ZEFSAII (Michael W. Deem and Ramdas Pophale) SiO2 
 PCOD9459048
Probable space group: P B C A
;
_chemical_formula_sum "Si O2"
_cell_formula_units_Z 64
_cell_length_a 16.718298
_cell_length_b 20.371048
_cell_length_c 8.175593
_cell_angle_alpha 90.000000
_cell_angle_beta 90.000000
_cell_angle_gamma 90.000000
_cell_volume 2784.355585
_symmetry_space_group_name_H-M "P B C A"
_symmetry_group_IT_number 61
_symmetry_cell_setting 'orthorhombic'
loop_
_space_group_symop_operation_xyz
x,y,z
1/2-x,-y,1/2+z
1/2+x,1/2-y,-z
-x,1/2+y,1/2-z
-x,-y,-z
1/2+x,y,1/2-z
1/2-x,1/2+y,z
x,1/2-y,1/2+z
loop_
_atom_site_type_symbol
_atom_site_label
_atom_site_fract_x
_atom_site_fract_y
_atom_site_fract_z
Si Si1 0.313358 0.720736 0.789762
Si Si2 0.089236 0.944311 0.656538
Si Si3 0.118401 0.029614 0.976889
Si Si4 0.925674 0.573176 0.039293
Si Si5 0.035246 0.353782 0.304933
Si Si6 0.729828 0.348484 0.554430
Si Si7 0.629666 0.903410 0.358933
Si Si8 0.273922 0.108902 0.971922
O O1 0.408998 0.710608 0.813325
O O2 0.293867 0.688539 0.615243
O O3 0.271401 0.675891 0.928281
O O4 0.278315 0.792764 0.809685
O O5 0.156393 0.892359 0.605628
O O6 0.999245 0.916728 0.663307
O O7 0.113663 0.988371 0.809117
O O8 0.084259 0.997254 0.508623
O O9 0.068275 0.094949 0.940647
O O10 0.207922 0.054096 0.012835
O O11 0.092822 0.975516 0.108531
O O12 0.949524 0.612211 0.872151
O O13 0.839622 0.599475 0.092015
O O14 0.940750 0.351192 0.330571
O O15 0.813805 0.381466 0.509094
O O16 0.685106 0.907951 0.201245
#
# Coordination Sequence:
#
# PCOD9459048 Si02
#       8
#     8   8   8   8   8   8   8   8
#     4   9  21  39  56  75 107 143 186 228 269 322
#     4  10  18  33  56  86 109 142 180 218 267 331
#     4  10  20  32  53  88 118 135 180 222 266 327
#     4   9  18  35  58  78 111 142 181 219 269 332
#     4   9  18  37  55  78 109 151 175 216 278 333
#     4  10  21  40  58  77 105 148 188 227 272 315
#     4  11  20  35  56  82 112 144 177 224 273 328
#     4  10  19  35  57  77 111 153 176 213 278 322
#
# _framework density 22.985571
#
# number of rings (size 3 to 8) (size 9 to 14) (size 15 to 20)
#    0.000    2.250    1.250    4.125    0.000    1.000 
#    4.500    1.250    0.000    0.000    0.000    0.000 
#    0.000    0.000    0.000    0.000    0.000    0.000 
#
# Total GULP energy -357600.554381 kJ/mol
# GULP energy per Si atom -5587.508662 kJ/mol
# Density = 2.293325 g / cm^3
# Si number density = 22.985571 Si / 1000 Ang^3
#
#
#
# Elastic Constant Matrix: (Units=GPa)
#
#
# Indices 1 2 3 4 5 6 
#
# 1 94.0470 6.2181 0.1485 0.0000 0.0000 0.0000
# 2 6.2181 39.9844 -0.6625 0.0000 0.0000 0.0000
# 3 0.1485 -0.6625 58.9183 0.0000 0.0000 0.0000
# 4 0.0000 0.0000 0.0000 24.6150 0.0000 0.0000
# 5 0.0000 0.0000 0.0000 0.0000 -18.9718 0.0000
# 6 0.0000 0.0000 0.0000 0.0000 0.0000 17.8365
#
#
#
# Elastic Compliance Matrix: (Units=1/GPa)
#
#
# Indices 1 2 3 4 5 6 
#
# 1 0.010744 -0.001672 -0.000046 0.000000 0.000000 0.000000
# 2 -0.001672 0.025274 0.000288 0.000000 0.000000 0.000000
# 3 -0.000046 0.000288 0.016976 0.000000 0.000000 0.000000
# 4 0.000000 0.000000 0.000000 0.040626 0.000000 0.000000
# 5 0.000000 0.000000 0.000000 0.000000 -0.052710 0.000000
# 6 0.000000 0.000000 0.000000 0.000000 0.000000 0.056065
#
#
# Mechanical properties :
#
#
# Convention : Reuss Voigt Hill
#
# Bulk Modulus (GPa) = 19.94572 22.70644 21.32608
# Shear Modulus (GPa) = 42.90196 17.17897 30.04047
#
# Velocity S-wave (km/s) = 4.32496 2.73679 3.61907
# Velocity P-wave (km/s) = 5.79971 4.45945 5.17317
#
# Compressibility (1/GPa) = 0.05013606
#
# Stress axis : x y z
#
# Youngs Moduli (GPa) = 93.07897 39.56565 58.90660
#
# Poissons Ratio (x) = 0.06614 0.00270
# Poissons Ratio (y) = 0.15558 -0.01699
# Poissons Ratio (z) = 0.00427 -0.01141
#
# Static dielectric constant tensor:
#      x y z
#    x 1.922240 0.000000 0.000000 
#    y 0.000000 1.848300 0.000000 
#    z 0.000000 0.000000 1.898930 
# 
# From -- ./inp_files/3192.got.cif
#   From: 2010.05.17/outbox.cif.g08.bks.cpg/sg61_2_cif.got.tgz:3192.got - 2010.06.03 15:17:17.
