data_PCOD9459520
_publ_section_title
;
Structure prediction by ZEFSAII (Michael W. Deem and Ramdas Pophale) SiO2 
 PCOD9459520
Probable space group: P B C A
;
_chemical_formula_sum "Si O2"
_cell_formula_units_Z 64
_cell_length_a 10.635825
_cell_length_b 18.072775
_cell_length_c 12.285294
_cell_angle_alpha 90.000000
_cell_angle_beta 90.000000
_cell_angle_gamma 90.000000
_cell_volume 2361.465357
_symmetry_space_group_name_H-M "P B C A"
_symmetry_group_IT_number 61
_symmetry_cell_setting 'orthorhombic'
loop_
_space_group_symop_operation_xyz
x,y,z
1/2-x,-y,1/2+z
1/2+x,1/2-y,-z
-x,1/2+y,1/2-z
-x,-y,-z
1/2+x,y,1/2-z
1/2-x,1/2+y,z
x,1/2-y,1/2+z
loop_
_atom_site_type_symbol
_atom_site_label
_atom_site_fract_x
_atom_site_fract_y
_atom_site_fract_z
Si Si1 0.774387 0.959911 0.022848
Si Si2 0.974933 0.436498 0.796103
Si Si3 0.665420 0.237884 0.242715
Si Si4 0.462522 0.861427 0.377324
Si Si5 0.985092 0.252761 0.074828
Si Si6 0.743441 0.406953 0.643045
Si Si7 0.823806 0.172039 0.422386
Si Si8 0.473815 0.093142 0.847022
O O1 0.904598 0.937286 0.079351
O O2 0.652915 0.929948 0.090340
O O3 0.756394 0.047795 0.030489
O O4 0.767872 0.899207 0.927399
O O5 0.876976 0.420323 0.700860
O O6 0.947803 0.369719 0.880227
O O7 0.943997 0.518322 0.842811
O O8 0.125590 0.440033 0.787691
O O9 0.643620 0.316044 0.188605
O O10 0.536238 0.218918 0.311585
O O11 0.708772 0.178498 0.152931
O O12 0.770392 0.228923 0.335098
O O13 0.488955 0.805892 0.478030
O O14 0.555131 0.881544 0.277766
O O15 0.040049 0.336619 0.094529
O O16 0.850853 0.282750 0.031490
#
# Coordination Sequence:
#
# PCOD9459520 Si02
#       8
#     8   8   8   8   8   8   8   8
#     4  10  20  37  62  86 120 162 211 252 321 371
#     4  10  20  39  63  89 124 159 216 259 318 376
#     4  10  22  38  57  89 125 159 211 262 314 380
#     4  11  20  36  59  84 120 162 205 256 322 380
#     4  10  21  37  57  85 121 156 206 259 320 364
#     4  10  21  39  62  90 122 167 207 263 311 376
#     4  10  21  38  60  91 122 160 207 274 310 382
#     4   9  21  36  58  89 116 160 209 260 307 389
#
# _framework density 27.101815999999999
#
# number of rings (size 3 to 8) (size 9 to 14) (size 15 to 20)
#    0.000    2.000    2.500    0.750    1.750    5.500 
#    6.750    0.000    0.000   12.000    0.000    0.000 
#    0.000    0.000    0.000    0.000    0.000    0.000 
#
# Total GULP energy -356287.774237 kJ/mol
# GULP energy per Si atom -5566.996472 kJ/mol
# Density = 2.704013 g / cm^3
# Si number density = 27.101816 Si / 1000 Ang^3
#
#
#
# Elastic Constant Matrix: (Units=GPa)
#
#
# Indices 1 2 3 4 5 6 
#
# 1 45.4366 23.0482 17.5878 0.0000 0.0000 0.0000
# 2 23.0482 120.5850 24.8583 0.0000 0.0000 0.0000
# 3 17.5878 24.8583 76.6027 0.0000 0.0000 0.0000
# 4 0.0000 0.0000 0.0000 35.3850 0.0000 0.0000
# 5 0.0000 0.0000 0.0000 0.0000 45.6299 0.0000
# 6 0.0000 0.0000 0.0000 0.0000 0.0000 22.6288
#
#
#
# Elastic Compliance Matrix: (Units=1/GPa)
#
#
# Indices 1 2 3 4 5 6 
#
# 1 0.025822 -0.003980 -0.004637 0.000000 0.000000 0.000000
# 2 -0.003980 0.009501 -0.002169 0.000000 0.000000 0.000000
# 3 -0.004637 -0.002169 0.014823 0.000000 0.000000 0.000000
# 4 0.000000 0.000000 0.000000 0.028261 0.000000 0.000000
# 5 0.000000 0.000000 0.000000 0.000000 0.021915 0.000000
# 6 0.000000 0.000000 0.000000 0.000000 0.000000 0.044192
#
#
# Mechanical properties :
#
#
# Convention : Reuss Voigt Hill
#
# Bulk Modulus (GPa) = 34.99736 41.51255 38.25496
# Shear Modulus (GPa) = 28.47201 32.53741 30.50471
#
# Velocity S-wave (km/s) = 3.24475 3.46867 3.35858
# Velocity P-wave (km/s) = 5.19415 5.60292 5.40240
#
# Compressibility (1/GPa) = 0.02857359
#
# Stress axis : x y z
#
# Youngs Moduli (GPa) = 38.72602 105.25463 67.46240
#
# Poissons Ratio (x) = 0.41888 0.31285
# Poissons Ratio (y) = 0.15412 0.14635
# Poissons Ratio (z) = 0.17959 0.22834
#
# Static dielectric constant tensor:
#      x y z
#    x 2.185180 0.000000 0.000000 
#    y 0.000000 2.180630 0.000000 
#    z 0.000000 0.000000 2.222240 
# 
# From -- ./inp_files/7629.got.cif
#   From: 2010.05.17/outbox.cif.g08.bks.cpg/sg61_4_cif.got.tgz:7629.got - 2010.06.03 15:17:17.
