data_PCOD9459874
_publ_section_title
;
Structure prediction by ZEFSAII (Michael W. Deem and Ramdas Pophale) SiO2 
 PCOD9459874
Probable space group: P B C A
;
_chemical_formula_sum "Si O2"
_cell_formula_units_Z 48
_cell_length_a 13.384506
_cell_length_b 20.292874
_cell_length_c 8.919260
_cell_angle_alpha 90.000000
_cell_angle_beta 90.000000
_cell_angle_gamma 90.000000
_cell_volume 2422.561045
_symmetry_space_group_name_H-M "P B C A"
_symmetry_group_IT_number 61
_symmetry_cell_setting 'orthorhombic'
loop_
_space_group_symop_operation_xyz
x,y,z
1/2-x,-y,1/2+z
1/2+x,1/2-y,-z
-x,1/2+y,1/2-z
-x,-y,-z
1/2+x,y,1/2-z
1/2-x,1/2+y,z
x,1/2-y,1/2+z
loop_
_atom_site_type_symbol
_atom_site_label
_atom_site_fract_x
_atom_site_fract_y
_atom_site_fract_z
Si Si1 0.398051 0.032216 0.065134
Si Si2 0.998796 0.451755 0.640160
Si Si3 0.417484 0.225381 0.695264
Si Si4 0.993256 0.337724 0.018185
Si Si5 0.166387 0.424568 0.879319
Si Si6 0.644927 0.661836 0.088843
O O1 0.416157 0.022563 0.240322
O O2 0.406167 0.109255 0.024919
O O3 0.500000 0.000000 0.000000
O O4 0.315583 0.989460 0.981454
O O5 0.958666 0.378995 0.600249
O O6 0.000000 0.500000 0.500000
O O7 0.103209 0.444899 0.731181
O O8 0.482576 0.180918 0.808016
O O9 0.479911 0.273037 0.584227
O O10 0.347963 0.183390 0.584420
O O11 0.359119 0.274241 0.806503
O O12 0.093776 0.374993 0.971479
O O13 0.266793 0.384815 0.856225
#
# Coordination Sequence:
#
# PCOD9459874 Si02
#       6
#     8   8   8   8   8   8
#     4   8  17  36  57  81 116 153 189 249 301 347
#     4  10  21  39  62  92 123 157 203 257 303 367
#     4  10  21  38  60  81 122 161 196 254 296 366
#     4   9  18  38  59  79 114 162 194 243 310 354
#     4  10  22  39  62  87 124 160 201 256 305 360
#     4  11  23  40  60  94 120 157 212 246 303 366
#
# _framework density 19.813742000000001
#
# number of rings (size 3 to 8) (size 9 to 14) (size 15 to 20)
#    0.000    2.667    3.333    0.000    7.000    2.667 
#    0.000    1.667    0.000    0.000    0.000    0.000 
#    0.000    0.000    0.000    0.000    0.000    0.000 
#
# Total GULP energy -267356.769329 kJ/mol
# GULP energy per Si atom -5569.932694 kJ/mol
# Density = 1.976865 g / cm^3
# Si number density = 19.813742 Si / 1000 Ang^3
#
#
#
# Elastic Constant Matrix: (Units=GPa)
#
#
# Indices 1 2 3 4 5 6 
#
# 1 42.1507 16.4752 29.1093 0.0000 0.0000 0.0000
# 2 16.4752 64.6583 46.7512 0.0000 0.0000 0.0000
# 3 29.1093 46.7512 148.8633 0.0000 0.0000 0.0000
# 4 0.0000 0.0000 0.0000 49.5922 0.0000 0.0000
# 5 0.0000 0.0000 0.0000 0.0000 16.9332 0.0000
# 6 0.0000 0.0000 0.0000 0.0000 0.0000 29.1491
#
#
#
# Elastic Compliance Matrix: (Units=1/GPa)
#
#
# Indices 1 2 3 4 5 6 
#
# 1 0.028263 -0.004147 -0.004224 0.000000 0.000000 0.000000
# 2 -0.004147 0.020618 -0.005664 0.000000 0.000000 0.000000
# 3 -0.004224 -0.005664 0.009322 0.000000 0.000000 0.000000
# 4 0.000000 0.000000 0.000000 0.020164 0.000000 0.000000
# 5 0.000000 0.000000 0.000000 0.000000 0.059056 0.000000
# 6 0.000000 0.000000 0.000000 0.000000 0.000000 0.034306
#
#
# Mechanical properties :
#
#
# Convention : Reuss Voigt Hill
#
# Bulk Modulus (GPa) = 33.18725 48.92709 41.05717
# Shear Modulus (GPa) = 23.82711 30.02399 26.92555
#
# Velocity S-wave (km/s) = 3.47155 3.89692 3.69037
# Velocity P-wave (km/s) = 5.73191 6.70784 6.23899
#
# Compressibility (1/GPa) = 0.03013206
#
# Stress axis : x y z
#
# Youngs Moduli (GPa) = 35.38248 48.50084 107.26771
#
# Poissons Ratio (x) = 0.20114 0.45311
# Poissons Ratio (y) = 0.14674 0.60760
# Poissons Ratio (z) = 0.14946 0.27472
#
# Static dielectric constant tensor:
#      x y z
#    x 1.737880 0.000000 0.000000 
#    y 0.000000 1.744210 0.000000 
#    z 0.000000 0.000000 1.758040 
# 
# From -- ./inp_files/3629.got.cif
#   From: 2010.05.17/outbox.cif.g08.bks.cpg/sg61_2_cif.got.tgz:3629.got - 2010.06.03 15:17:17.
