data_PCOD9459315
_publ_section_title
;
Structure prediction by ZEFSAII (Michael W. Deem and Ramdas Pophale) SiO2 
 PCOD9459315
Probable space group: P B C A
;
_chemical_formula_sum "Si O2"
_cell_formula_units_Z 64
_cell_length_a 13.914280
_cell_length_b 14.628050
_cell_length_c 14.838661
_cell_angle_alpha 90.000000
_cell_angle_beta 90.000000
_cell_angle_gamma 90.000000
_cell_volume 3020.243010
_symmetry_space_group_name_H-M "P B C A"
_symmetry_group_IT_number 61
_symmetry_cell_setting 'orthorhombic'
loop_
_space_group_symop_operation_xyz
x,y,z
1/2-x,-y,1/2+z
1/2+x,1/2-y,-z
-x,1/2+y,1/2-z
-x,-y,-z
1/2+x,y,1/2-z
1/2-x,1/2+y,z
x,1/2-y,1/2+z
loop_
_atom_site_type_symbol
_atom_site_label
_atom_site_fract_x
_atom_site_fract_y
_atom_site_fract_z
Si Si1 0.860123 0.478592 0.166859
Si Si2 0.668537 0.490747 0.247298
Si Si3 0.779941 0.716333 0.792546
Si Si4 0.175310 0.771210 0.382338
Si Si5 0.526062 0.598559 0.366971
Si Si6 0.510257 0.908066 0.327876
Si Si7 0.523315 0.272112 0.791438
Si Si8 0.616284 0.773751 0.434598
O O1 0.761527 0.528328 0.195189
O O2 0.833503 0.381729 0.120798
O O3 0.940090 0.530170 0.107222
O O4 0.912030 0.454428 0.262124
O O5 0.700773 0.392259 0.287110
O O6 0.620750 0.546862 0.329181
O O7 0.583882 0.470740 0.174629
O O8 0.756909 0.749290 0.690990
O O9 0.871850 0.766157 0.834907
O O10 0.682718 0.732878 0.846464
O O11 0.186309 0.730148 0.480611
O O12 0.070938 0.733272 0.351824
O O13 0.484482 0.645120 0.276602
O O14 0.552121 0.681337 0.433686
O O15 0.480298 0.817724 0.271732
O O16 0.554112 0.865686 0.418904
#
# Coordination Sequence:
#
# PCOD9459315 Si02
#       8
#     8   8   8   8   8   8   8   8
#     4   9  17  33  54  79 112 154 186 227 287 347
#     4   9  17  32  61  77 112 156 192 223 292 345
#     4  10  19  39  59  82 113 158 196 229 291 352
#     4  10  20  38  60  86 116 148 194 242 287 348
#     4  10  20  32  59  86 111 153 192 237 294 339
#     4   8  15  33  53  77 104 150 187 223 281 333
#     4   9  18  35  57  81 110 150 190 239 281 333
#     4  11  20  36  59  88 117 145 198 249 278 342
#
# _framework density 21.190348
#
# number of rings (size 3 to 8) (size 9 to 14) (size 15 to 20)
#    0.000    2.500    5.000    0.750    1.750    0.500 
#    9.000    0.000    5.500    3.000    0.000    0.000 
#    0.000    0.000    0.000    0.000    0.000    0.000 
#
# Total GULP energy -356603.947324 kJ/mol
# GULP energy per Si atom -5571.936677 kJ/mol
# Density = 2.114212 g / cm^3
# Si number density = 21.190348 Si / 1000 Ang^3
#
#
#
# Elastic Constant Matrix: (Units=GPa)
#
#
# Indices 1 2 3 4 5 6 
#
# 1 92.4312 6.8353 -9.6731 0.0000 0.0000 0.0000
# 2 6.8353 44.0659 -3.6479 0.0000 0.0000 0.0000
# 3 -9.6731 -3.6479 27.8492 0.0000 0.0000 0.0000
# 4 0.0000 0.0000 0.0000 7.8720 0.0000 0.0000
# 5 0.0000 0.0000 0.0000 0.0000 10.1717 0.0000
# 6 0.0000 0.0000 0.0000 0.0000 0.0000 14.7863
#
#
#
# Elastic Compliance Matrix: (Units=1/GPa)
#
#
# Indices 1 2 3 4 5 6 
#
# 1 0.011317 -0.001446 0.003742 0.000000 0.000000 0.000000
# 2 -0.001446 0.023127 0.002527 0.000000 0.000000 0.000000
# 3 0.003742 0.002527 0.037538 0.000000 0.000000 0.000000
# 4 0.000000 0.000000 0.000000 0.127033 0.000000 0.000000
# 5 0.000000 0.000000 0.000000 0.000000 0.098312 0.000000
# 6 0.000000 0.000000 0.000000 0.000000 0.000000 0.067630
#
#
# Mechanical properties :
#
#
# Convention : Reuss Voigt Hill
#
# Bulk Modulus (GPa) = 12.25064 16.81941 14.53502
# Shear Modulus (GPa) = 13.07117 17.95480 15.51298
#
# Velocity S-wave (km/s) = 2.48633 2.91402 2.70863
# Velocity P-wave (km/s) = 3.74650 4.39050 4.08122
#
# Compressibility (1/GPa) = 0.08162839
#
# Stress axis : x y z
#
# Youngs Moduli (GPa) = 88.36001 43.23993 26.63950
#
# Poissons Ratio (x) = 0.06251 -0.09967
# Poissons Ratio (y) = 0.12775 -0.06732
# Poissons Ratio (z) = -0.33061 -0.10928
#
# Static dielectric constant tensor:
#      x y z
#    x 1.836640 0.000000 0.000000 
#    y 0.000000 1.864250 0.000000 
#    z 0.000000 0.000000 1.757680 
# 
# From -- ./inp_files/8027.got.cif
#   From: 2010.05.17/outbox.cif.g08.bks.cpg/sg61_5_cif.got.tgz:8027.got - 2010.06.03 15:17:17.
