data_PCOD9459225
_publ_section_title
;
Structure prediction by ZEFSAII (Michael W. Deem and Ramdas Pophale) SiO2 
 PCOD9459225
Probable space group: P B C A
;
_chemical_formula_sum "Si O2"
_cell_formula_units_Z 48
_cell_length_a 26.716029
_cell_length_b 5.441868
_cell_length_c 13.216431
_cell_angle_alpha 90.000000
_cell_angle_beta 90.000000
_cell_angle_gamma 90.000000
_cell_volume 1921.472186
_symmetry_space_group_name_H-M "P B C A"
_symmetry_group_IT_number 61
_symmetry_cell_setting 'orthorhombic'
loop_
_space_group_symop_operation_xyz
x,y,z
1/2-x,-y,1/2+z
1/2+x,1/2-y,-z
-x,1/2+y,1/2-z
-x,-y,-z
1/2+x,y,1/2-z
1/2-x,1/2+y,z
x,1/2-y,1/2+z
loop_
_atom_site_type_symbol
_atom_site_label
_atom_site_fract_x
_atom_site_fract_y
_atom_site_fract_z
Si Si1 0.073959 0.070424 0.990989
Si Si2 0.739670 0.628193 0.604056
Si Si3 0.624392 0.571620 0.583886
Si Si4 0.024526 0.439736 0.290693
Si Si5 0.221826 0.147585 0.117885
Si Si6 0.110462 0.342894 0.703248
O O1 0.104560 0.322693 0.967905
O O2 0.027994 0.091566 0.912299
O O3 0.098154 0.814048 0.956691
O O4 0.075773 0.062870 0.111992
O O5 0.751986 0.380001 0.661504
O O6 0.683022 0.611077 0.568146
O O7 0.775778 0.638831 0.506033
O O8 0.614915 0.527916 0.702774
O O9 0.081276 0.392143 0.248688
O O10 0.005500 0.704885 0.254150
O O11 0.257307 0.377758 0.143479
O O12 0.166379 0.192847 0.160697
#
# Coordination Sequence:
#
# PCOD9459225 Si02
#       6
#     8   8   8   8   8   8
#     4  11  24  45  72 101 138 177 229 292 348 422
#     4  10  19  35  58  88 135 180 221 279 335 391
#     4  11  24  42  66 101 141 182 230 285 343 415
#     4  11  26  48  72 106 144 181 238 303 366 432
#     4  10  21  37  61  97 136 177 232 282 335 415
#     4  11  26  45  75 104 140 195 240 287 363 429
#
# _framework density 24.980847000000001
#
# number of rings (size 3 to 8) (size 9 to 14) (size 15 to 20)
#    0.000    1.333    0.000    7.000    0.000   10.667 
#    0.000    0.000    0.000    0.000    0.000    0.000 
#    0.000    0.000    0.000    0.000    0.000    0.000 
#
# Total GULP energy -268626.749620 kJ/mol
# GULP energy per Si atom -5596.390617 kJ/mol
# Density = 2.492399 g / cm^3
# Si number density = 24.980847 Si / 1000 Ang^3
#
#
#
# Elastic Constant Matrix: (Units=GPa)
#
#
# Indices 1 2 3 4 5 6 
#
# 1 100.6075 33.1018 7.2546 0.0000 0.0000 0.0000
# 2 33.1018 187.5875 30.6333 0.0000 0.0000 0.0000
# 3 7.2546 30.6333 157.0658 0.0000 0.0000 0.0000
# 4 0.0000 0.0000 0.0000 32.5957 0.0000 0.0000
# 5 0.0000 0.0000 0.0000 0.0000 57.2891 0.0000
# 6 0.0000 0.0000 0.0000 0.0000 0.0000 39.7661
#
#
#
# Elastic Compliance Matrix: (Units=1/GPa)
#
#
# Indices 1 2 3 4 5 6 
#
# 1 0.010555 -0.001842 -0.000128 0.000000 0.000000 0.000000
# 2 -0.001842 0.005828 -0.001052 0.000000 0.000000 0.000000
# 3 -0.000128 -0.001052 0.006578 0.000000 0.000000 0.000000
# 4 0.000000 0.000000 0.000000 0.030679 0.000000 0.000000
# 5 0.000000 0.000000 0.000000 0.000000 0.017455 0.000000
# 6 0.000000 0.000000 0.000000 0.000000 0.000000 0.025147
#
#
# Mechanical properties :
#
#
# Convention : Reuss Voigt Hill
#
# Bulk Modulus (GPa) = 59.11118 65.24889 62.18004
# Shear Modulus (GPa) = 46.32926 50.88161 48.60543
#
# Velocity S-wave (km/s) = 4.31117 4.51802 4.41580
# Velocity P-wave (km/s) = 6.96387 7.30704 7.13752
#
# Compressibility (1/GPa) = 0.01691727
#
# Stress axis : x y z
#
# Youngs Moduli (GPa) = 94.74387 171.59961 152.02726
#
# Poissons Ratio (x) = 0.31601 0.01951
# Poissons Ratio (y) = 0.17447 0.15986
# Poissons Ratio (z) = 0.01216 0.18044
#
# Static dielectric constant tensor:
#      x y z
#    x 2.037360 0.000000 0.000000 
#    y 0.000000 1.948940 0.000000 
#    z 0.000000 0.000000 2.011750 
# 
# From -- ./inp_files/8582.got.cif
#   From: 2010.05.17/outbox.cif.g08.bks.cpg/sg61_5_cif.got.tgz:8582.got - 2010.06.03 15:17:17.
