data_PCOD9459985
_publ_section_title
;
Structure prediction by ZEFSAII (Michael W. Deem and Ramdas Pophale) SiO2 
 PCOD9459985
Probable space group: P B C A
;
_chemical_formula_sum "Si O2"
_cell_formula_units_Z 64
_cell_length_a 9.087280
_cell_length_b 21.687571
_cell_length_c 13.833925
_cell_angle_alpha 90.000000
_cell_angle_beta 90.000000
_cell_angle_gamma 90.000000
_cell_volume 2726.404191
_symmetry_space_group_name_H-M "P B C A"
_symmetry_group_IT_number 61
_symmetry_cell_setting 'orthorhombic'
loop_
_space_group_symop_operation_xyz
x,y,z
1/2-x,-y,1/2+z
1/2+x,1/2-y,-z
-x,1/2+y,1/2-z
-x,-y,-z
1/2+x,y,1/2-z
1/2-x,1/2+y,z
x,1/2-y,1/2+z
loop_
_atom_site_type_symbol
_atom_site_label
_atom_site_fract_x
_atom_site_fract_y
_atom_site_fract_z
Si Si1 0.894881 0.785570 0.120955
Si Si2 0.691127 0.155325 0.128034
Si Si3 0.246893 0.578770 0.557768
Si Si4 0.990149 0.940823 0.309098
Si Si5 0.290071 0.507523 0.837739
Si Si6 0.091106 0.085852 0.990341
Si Si7 0.484240 0.112154 0.303795
Si Si8 0.336267 0.170660 0.728655
O O1 0.861088 0.718736 0.078773
O O2 0.780861 0.794659 0.207854
O O3 0.885427 0.845473 0.052468
O O4 0.052622 0.785872 0.171714
O O5 0.579866 0.134666 0.213277
O O6 0.860195 0.162162 0.164897
O O7 0.699407 0.103918 0.044768
O O8 0.381385 0.540998 0.604127
O O9 0.073947 0.563720 0.541668
O O10 0.234819 0.630551 0.642296
O O11 0.123976 0.989012 0.302602
O O12 0.074140 0.875412 0.301169
O O13 0.887382 0.940711 0.215455
O O14 0.298503 0.534581 0.946663
O O15 0.374521 0.447244 0.800693
O O16 0.088398 0.094226 0.105532
#
# Coordination Sequence:
#
# PCOD9459985 Si02
#       8
#     8   8   8   8   8   8   8   8
#     4  11  21  39  67  94 125 167 215 271 321 383
#     4  11  26  46  60  92 134 183 215 262 333 388
#     4  10  21  40  62  92 136 157 212 274 314 392
#     4  12  19  37  67  99 126 158 217 270 328 386
#     4  12  21  39  68  99 127 171 212 272 332 386
#     4  10  21  42  65  96 127 167 225 274 327 371
#     4  11  26  46  63  90 141 176 215 264 324 408
#     4  11  18  37  64  96 126 151 211 277 316 372
#
# _framework density 23.474142000000001
#
# number of rings (size 3 to 8) (size 9 to 14) (size 15 to 20)
#    0.000    1.000    6.250    1.875    0.000    2.000 
#    6.750    6.875    0.000    0.000    0.000    0.000 
#    0.000    0.000    0.000    0.000    0.000    0.000 
#
# Total GULP energy -357294.305345 kJ/mol
# GULP energy per Si atom -5582.723521 kJ/mol
# Density = 2.342071 g / cm^3
# Si number density = 23.474142 Si / 1000 Ang^3
#
#
#
# Elastic Constant Matrix: (Units=GPa)
#
#
# Indices 1 2 3 4 5 6 
#
# 1 85.0064 4.1684 18.9211 0.0000 0.0000 0.0000
# 2 4.1684 41.4756 -8.7393 0.0000 0.0000 0.0000
# 3 18.9211 -8.7393 77.4747 0.0000 0.0000 0.0000
# 4 0.0000 0.0000 0.0000 26.7061 0.0000 0.0000
# 5 0.0000 0.0000 0.0000 0.0000 42.7207 0.0000
# 6 0.0000 0.0000 0.0000 0.0000 0.0000 31.1027
#
#
#
# Elastic Compliance Matrix: (Units=1/GPa)
#
#
# Indices 1 2 3 4 5 6 
#
# 1 0.012594 -0.001960 -0.003297 0.000000 0.000000 0.000000
# 2 -0.001960 0.025003 0.003299 0.000000 0.000000 0.000000
# 3 -0.003297 0.003299 0.014085 0.000000 0.000000 0.000000
# 4 0.000000 0.000000 0.000000 0.037445 0.000000 0.000000
# 5 0.000000 0.000000 0.000000 0.000000 0.023408 0.000000
# 6 0.000000 0.000000 0.000000 0.000000 0.000000 0.032152
#
#
# Mechanical properties :
#
#
# Convention : Reuss Voigt Hill
#
# Bulk Modulus (GPa) = 20.93578 25.85079 23.39328
# Shear Modulus (GPa) = 30.39085 32.74633 31.56859
#
# Velocity S-wave (km/s) = 3.60203 3.73902 3.67116
# Velocity P-wave (km/s) = 5.12226 5.44763 5.28745
#
# Compressibility (1/GPa) = 0.04776512
#
# Stress axis : x y z
#
# Youngs Moduli (GPa) = 79.40435 39.99561 70.99880
#
# Poissons Ratio (x) = 0.07841 0.23407
# Poissons Ratio (y) = 0.15566 -0.23423
# Poissons Ratio (z) = 0.26178 -0.13195
#
# Static dielectric constant tensor:
#      x y z
#    x 1.890080 0.000000 0.000000 
#    y 0.000000 1.987400 0.000000 
#    z 0.000000 0.000000 1.934100 
# 
# From -- ./inp_files/7259.got.cif
#   From: 2010.05.17/outbox.cif.g08.bks.cpg/sg61_4_cif.got.tgz:7259.got - 2010.06.03 15:17:17.
