data_PCOD9459022
_publ_section_title
;
Structure prediction by ZEFSAII (Michael W. Deem and Ramdas Pophale) SiO2 
 PCOD9459022
Probable space group: P B C A
;
_chemical_formula_sum "Si O2"
_cell_formula_units_Z 64
_cell_length_a 5.352691
_cell_length_b 29.875135
_cell_length_c 19.387997
_cell_angle_alpha 90.000000
_cell_angle_beta 90.000000
_cell_angle_gamma 90.000000
_cell_volume 3100.380477
_symmetry_space_group_name_H-M "P B C A"
_symmetry_group_IT_number 61
_symmetry_cell_setting 'orthorhombic'
loop_
_space_group_symop_operation_xyz
x,y,z
1/2-x,-y,1/2+z
1/2+x,1/2-y,-z
-x,1/2+y,1/2-z
-x,-y,-z
1/2+x,y,1/2-z
1/2-x,1/2+y,z
x,1/2-y,1/2+z
loop_
_atom_site_type_symbol
_atom_site_label
_atom_site_fract_x
_atom_site_fract_y
_atom_site_fract_z
Si Si1 0.971537 0.509068 0.293256
Si Si2 0.956110 0.612244 0.294178
Si Si3 0.774179 0.441446 0.007435
Si Si4 0.454103 0.296079 0.859875
Si Si5 0.549315 0.770662 0.870740
Si Si6 0.950440 0.191216 0.979886
Si Si7 0.552152 0.849909 0.980868
Si Si8 0.771439 0.035689 0.927829
O O1 0.752660 0.503683 0.235744
O O2 0.966219 0.560889 0.318900
O O3 0.885886 0.476327 0.353840
O O4 0.678944 0.617924 0.262332
O O5 0.021961 0.650800 0.348522
O O6 0.881720 0.400690 0.961988
O O7 0.490898 0.436195 0.034469
O O8 0.991401 0.444556 0.066332
O O9 0.760709 0.487992 0.966641
O O10 0.697550 0.273314 0.829554
O O11 0.206081 0.274515 0.830803
O O12 0.451993 0.287138 0.942818
O O13 0.560175 0.729630 0.923332
O O14 0.546859 0.816948 0.915521
O O15 0.707769 0.159588 0.980756
O O16 0.211809 0.165685 0.973864
#
# Coordination Sequence:
#
# PCOD9459022 Si02
#       8
#     8   8   8   8   8   8   8   8
#     4  10  21  37  56  77 101 143 184 225 268 309
#     4  10  21  35  48  73 104 131 183 223 240 300
#     4  10  21  35  51  80 105 147 173 215 274 324
#     4  10  18  30  48  68  97 144 163 205 258 287
#     4  10  19  31  48  77 107 134 173 207 247 319
#     4  10  19  31  48  77 108 135 170 210 244 319
#     4  10  18  30  48  71 105 136 170 204 252 319
#     4  10  21  37  53  73 114 137 179 224 260 328
#
# _framework density 20.642628999999999
#
# number of rings (size 3 to 8) (size 9 to 14) (size 15 to 20)
#    0.000    2.000    0.000    6.000    3.500    0.000 
#    9.000    0.000    0.000    0.000    0.000    0.000 
#    0.000  116.000    0.000    0.000    0.000    0.000 
#
# Total GULP energy -356892.822891 kJ/mol
# GULP energy per Si atom -5576.450358 kJ/mol
# Density = 2.059565 g / cm^3
# Si number density = 20.642629 Si / 1000 Ang^3
#
#
#
# Elastic Constant Matrix: (Units=GPa)
#
#
# Indices 1 2 3 4 5 6 
#
# 1 178.3017 25.8954 3.4090 0.0000 0.0000 0.0000
# 2 25.8954 37.7837 8.6016 0.0000 0.0000 0.0000
# 3 3.4090 8.6016 32.2810 0.0000 0.0000 0.0000
# 4 0.0000 0.0000 0.0000 14.8597 0.0000 0.0000
# 5 0.0000 0.0000 0.0000 0.0000 9.7356 0.0000
# 6 0.0000 0.0000 0.0000 0.0000 0.0000 28.7263
#
#
#
# Elastic Compliance Matrix: (Units=1/GPa)
#
#
# Indices 1 2 3 4 5 6 
#
# 1 0.006236 -0.004391 0.000511 0.000000 0.000000 0.000000
# 2 -0.004391 0.031267 -0.007868 0.000000 0.000000 0.000000
# 3 0.000511 -0.007868 0.033020 0.000000 0.000000 0.000000
# 4 0.000000 0.000000 0.000000 0.067296 0.000000 0.000000
# 5 0.000000 0.000000 0.000000 0.000000 0.102716 0.000000
# 6 0.000000 0.000000 0.000000 0.000000 0.000000 0.034811
#
#
# Mechanical properties :
#
#
# Convention : Reuss Voigt Hill
#
# Bulk Modulus (GPa) = 21.26320 36.01983 28.64151
# Shear Modulus (GPa) = 15.89740 24.69501 20.29620
#
# Velocity S-wave (km/s) = 2.77812 3.46253 3.13903
# Velocity P-wave (km/s) = 4.54022 5.78555 5.20030
#
# Compressibility (1/GPa) = 0.04702961
#
# Stress axis : x y z
#
# Youngs Moduli (GPa) = 160.35018 31.98299 30.28432
#
# Poissons Ratio (x) = 0.14042 -0.01548
# Poissons Ratio (y) = 0.70402 0.23827
# Poissons Ratio (z) = -0.08199 0.25163
#
# Static dielectric constant tensor:
#      x y z
#    x 1.869280 0.000000 0.000000 
#    y 0.000000 1.745570 0.000000 
#    z 0.000000 0.000000 1.735160 
# 
# From -- ./inp_files/10014.got.cif
#   From: 2010.05.17/outbox.cif.g08.bks.cpg/sg61_6_cif.got.tgz:10014.got - 2010.06.03 15:17:17.
