data_PCOD9459889
_publ_section_title
;
Structure prediction by ZEFSAII (Michael W. Deem and Ramdas Pophale) SiO2 
 PCOD9459889
Probable space group: P B C A
;
_chemical_formula_sum "Si O2"
_cell_formula_units_Z 40
_cell_length_a 7.596763
_cell_length_b 18.510572
_cell_length_c 11.566137
_cell_angle_alpha 90.000000
_cell_angle_beta 90.000000
_cell_angle_gamma 90.000000
_cell_volume 1626.435141
_symmetry_space_group_name_H-M "P B C A"
_symmetry_group_IT_number 61
_symmetry_cell_setting 'orthorhombic'
loop_
_space_group_symop_operation_xyz
x,y,z
1/2-x,-y,1/2+z
1/2+x,1/2-y,-z
-x,1/2+y,1/2-z
-x,-y,-z
1/2+x,y,1/2-z
1/2-x,1/2+y,z
x,1/2-y,1/2+z
loop_
_atom_site_type_symbol
_atom_site_label
_atom_site_fract_x
_atom_site_fract_y
_atom_site_fract_z
Si Si1 0.322448 0.954316 0.849314
Si Si2 0.809696 0.401090 0.879662
Si Si3 0.162144 0.102070 0.877625
Si Si4 0.818300 0.146879 0.956164
Si Si5 0.557691 0.791855 0.052232
O O1 0.288997 0.901689 0.740748
O O2 0.530039 0.957725 0.872378
O O3 0.236464 0.918781 0.961734
O O4 0.238034 0.031159 0.818833
O O5 0.680899 0.418360 0.985182
O O6 0.904160 0.327899 0.925068
O O7 0.291748 0.170802 0.870588
O O8 0.960388 0.122261 0.862091
O O9 0.914933 0.207622 0.034893
O O10 0.636613 0.182887 0.912633
#
# Coordination Sequence:
#
# PCOD9459889 Si02
#       5
#     8   8   8   8   8
#     4  11  21  37  63  88 123 161 201 250 300 358
#     4   9  21  36  59  86 122 155 201 240 302 357
#     4  10  21  38  62  90 117 162 203 243 301 355
#     4  11  19  35  64  86 118 155 202 244 302 355
#     4   9  20  36  60  87 116 159 198 244 298 365
#
# _framework density 24.593664
#
# number of rings (size 3 to 8) (size 9 to 14) (size 15 to 20)
#    1.200    0.800    2.000    2.400    0.000    0.000 
#    0.000    0.000    8.800    0.000    0.000    0.000 
#    0.000    0.000    0.000    0.000    0.000    0.000 
#
# Total GULP energy -223502.702590 kJ/mol
# GULP energy per Si atom -5587.567565 kJ/mol
# Density = 2.453769 g / cm^3
# Si number density = 24.593664 Si / 1000 Ang^3
#
#
#
# Elastic Constant Matrix: (Units=GPa)
#
#
# Indices 1 2 3 4 5 6 
#
# 1 131.6992 18.7118 34.8912 0.0000 0.0000 0.0000
# 2 18.7118 103.4361 7.7050 0.0000 0.0000 0.0000
# 3 34.8912 7.7050 48.6973 0.0000 0.0000 0.0000
# 4 0.0000 0.0000 0.0000 11.1787 0.0000 0.0000
# 5 0.0000 0.0000 0.0000 0.0000 18.6664 0.0000
# 6 0.0000 0.0000 0.0000 0.0000 0.0000 30.8675
#
#
#
# Elastic Compliance Matrix: (Units=1/GPa)
#
#
# Indices 1 2 3 4 5 6 
#
# 1 0.009524 -0.001229 -0.006629 0.000000 0.000000 0.000000
# 2 -0.001229 0.009942 -0.000692 0.000000 0.000000 0.000000
# 3 -0.006629 -0.000692 0.025394 0.000000 0.000000 0.000000
# 4 0.000000 0.000000 0.000000 0.089456 0.000000 0.000000
# 5 0.000000 0.000000 0.000000 0.000000 0.053572 0.000000
# 6 0.000000 0.000000 0.000000 0.000000 0.000000 0.032397
#
#
# Mechanical properties :
#
#
# Convention : Reuss Voigt Hill
#
# Bulk Modulus (GPa) = 36.02501 45.16094 40.59297
# Shear Modulus (GPa) = 20.27255 26.97751 23.62503
#
# Velocity S-wave (km/s) = 2.87418 3.31559 3.10274
# Velocity P-wave (km/s) = 5.06896 5.74980 5.42008
#
# Compressibility (1/GPa) = 0.02775850
#
# Stress axis : x y z
#
# Youngs Moduli (GPa) = 104.99758 100.58624 39.37864
#
# Poissons Ratio (x) = 0.12363 0.26106
# Poissons Ratio (y) = 0.12905 0.02726
# Poissons Ratio (z) = 0.69607 0.06964
#
# Static dielectric constant tensor:
#      x y z
#    x 1.947440 0.000000 0.000000 
#    y 0.000000 1.920390 0.000000 
#    z 0.000000 0.000000 1.947620 
# 
# From -- ./inp_files/6991.got.cif
#   From: 2010.05.17/outbox.cif.g08.bks.cpg/sg61_4_cif.got.tgz:6991.got - 2010.06.03 15:17:17.
