data_PCOD9459884
_publ_section_title
;
Structure prediction by ZEFSAII (Michael W. Deem and Ramdas Pophale) SiO2 
 PCOD9459884
Probable space group: P B C A
;
_chemical_formula_sum "Si O2"
_cell_formula_units_Z 40
_cell_length_a 7.400972
_cell_length_b 14.634972
_cell_length_c 17.978411
_cell_angle_alpha 90.000000
_cell_angle_beta 90.000000
_cell_angle_gamma 90.000000
_cell_volume 1947.295954
_symmetry_space_group_name_H-M "P B C A"
_symmetry_group_IT_number 61
_symmetry_cell_setting 'orthorhombic'
loop_
_space_group_symop_operation_xyz
x,y,z
1/2-x,-y,1/2+z
1/2+x,1/2-y,-z
-x,1/2+y,1/2-z
-x,-y,-z
1/2+x,y,1/2-z
1/2-x,1/2+y,z
x,1/2-y,1/2+z
loop_
_atom_site_type_symbol
_atom_site_label
_atom_site_fract_x
_atom_site_fract_y
_atom_site_fract_z
Si Si1 0.876588 0.539563 0.901978
Si Si2 0.800845 0.327441 0.506197
Si Si3 0.203613 0.365620 0.538210
Si Si4 0.207389 0.063029 0.351584
Si Si5 0.386326 0.932044 0.688105
O O1 0.819792 0.632727 0.939605
O O2 0.751564 0.514075 0.831022
O O3 0.079970 0.519259 0.878327
O O4 0.811574 0.460842 0.961169
O O5 0.806062 0.218967 0.497193
O O6 0.170596 0.355172 0.627652
O O7 0.003290 0.368983 0.503371
O O8 0.214207 0.138793 0.416297
O O9 0.413512 0.037927 0.334660
O O10 0.126285 0.096925 0.273169
#
# Coordination Sequence:
#
# PCOD9459884 Si02
#       5
#     8   8   8   8   8
#     4  10  21  38  62  85 122 152 205 244 296 361
#     4  11  21  37  63  91 119 161 200 252 294 360
#     4   9  21  36  59  87 122 153 201 247 300 351
#     4  11  19  35  64  83 114 163 193 241 309 345
#     4   9  20  36  60  81 119 159 193 244 300 355
#
# _framework density 20.541305999999999
#
# number of rings (size 3 to 8) (size 9 to 14) (size 15 to 20)
#    1.200    0.800    2.000    2.400    0.000    0.000 
#    0.000    0.000   22.000    0.000    0.000    0.000 
#    0.000    0.000    0.000    0.000    0.000    0.000 
#
# Total GULP energy -222946.544872 kJ/mol
# GULP energy per Si atom -5573.663622 kJ/mol
# Density = 2.049455 g / cm^3
# Si number density = 20.541306 Si / 1000 Ang^3
#
#
#
# Elastic Constant Matrix: (Units=GPa)
#
#
# Indices 1 2 3 4 5 6 
#
# 1 96.5446 1.6597 14.9297 0.0000 0.0000 0.0000
# 2 1.6597 40.4348 -1.7777 0.0000 0.0000 0.0000
# 3 14.9297 -1.7777 81.4841 0.0000 0.0000 0.0000
# 4 0.0000 0.0000 0.0000 16.0812 0.0000 0.0000
# 5 0.0000 0.0000 0.0000 0.0000 34.8511 0.0000
# 6 0.0000 0.0000 0.0000 0.0000 0.0000 10.8167
#
#
#
# Elastic Compliance Matrix: (Units=1/GPa)
#
#
# Indices 1 2 3 4 5 6 
#
# 1 0.010671 -0.000524 -0.001967 0.000000 0.000000 0.000000
# 2 -0.000524 0.024781 0.000637 0.000000 0.000000 0.000000
# 3 -0.001967 0.000637 0.012647 0.000000 0.000000 0.000000
# 4 0.000000 0.000000 0.000000 0.062184 0.000000 0.000000
# 5 0.000000 0.000000 0.000000 0.000000 0.028693 0.000000
# 6 0.000000 0.000000 0.000000 0.000000 0.000000 0.092449
#
#
# Mechanical properties :
#
#
# Convention : Reuss Voigt Hill
#
# Bulk Modulus (GPa) = 22.52782 27.56522 25.04652
# Shear Modulus (GPa) = 20.00555 25.92662 22.96609
#
# Velocity S-wave (km/s) = 3.12415 3.55656 3.34734
# Velocity P-wave (km/s) = 4.89945 5.50582 5.21146
#
# Compressibility (1/GPa) = 0.04438956
#
# Stress axis : x y z
#
# Youngs Moduli (GPa) = 93.71159 40.35403 79.07295
#
# Poissons Ratio (x) = 0.02116 0.15551
# Poissons Ratio (y) = 0.04915 -0.05035
# Poissons Ratio (z) = 0.18429 -0.02569
#
# Static dielectric constant tensor:
#      x y z
#    x 1.802060 0.000000 0.000000 
#    y 0.000000 1.691880 0.000000 
#    z 0.000000 0.000000 1.767430 
# 
# From -- ./inp_files/8298.got.cif
#   From: 2010.05.17/outbox.cif.g08.bks.cpg/sg61_5_cif.got.tgz:8298.got - 2010.06.03 15:17:17.
