data_PCOD9459545
_publ_section_title
;
Structure prediction by ZEFSAII (Michael W. Deem and Ramdas Pophale) SiO2 
 PCOD9459545
Probable space group: P B C A
;
_chemical_formula_sum "Si O2"
_cell_formula_units_Z 48
_cell_length_a 14.227847
_cell_length_b 11.257746
_cell_length_c 13.074104
_cell_angle_alpha 90.000000
_cell_angle_beta 90.000000
_cell_angle_gamma 90.000000
_cell_volume 2094.124836
_symmetry_space_group_name_H-M "P B C A"
_symmetry_group_IT_number 61
_symmetry_cell_setting 'orthorhombic'
loop_
_space_group_symop_operation_xyz
x,y,z
1/2-x,-y,1/2+z
1/2+x,1/2-y,-z
-x,1/2+y,1/2-z
-x,-y,-z
1/2+x,y,1/2-z
1/2-x,1/2+y,z
x,1/2-y,1/2+z
loop_
_atom_site_type_symbol
_atom_site_label
_atom_site_fract_x
_atom_site_fract_y
_atom_site_fract_z
Si Si1 0.778207 0.730950 0.385895
Si Si2 0.404715 0.122921 0.600605
Si Si3 0.184302 0.463950 0.775158
Si Si4 0.979509 0.654601 0.099916
Si Si5 0.296847 0.958733 0.463292
Si Si6 0.612947 0.449283 0.409058
O O1 0.677810 0.781777 0.412548
O O2 0.770824 0.629044 0.302554
O O3 0.814887 0.671591 0.490959
O O4 0.842606 0.839569 0.347464
O O5 0.494435 0.207316 0.609854
O O6 0.377223 0.052380 0.704015
O O7 0.385249 0.036577 0.503643
O O8 0.113270 0.386257 0.842142
O O9 0.261767 0.525570 0.847743
O O10 0.060413 0.562056 0.138319
O O11 0.962911 0.616563 0.982169
O O12 0.202899 0.004256 0.525259
#
# Coordination Sequence:
#
# PCOD9459545 Si02
#       6
#     8   8   8   8   8   8
#     4  10  20  39  61  86 117 158 205 251 293 360
#     4  10  21  38  64  87 121 159 205 249 297 363
#     4  10  23  37  59  94 120 156 204 250 310 356
#     4  10  20  38  58  87 119 161 195 244 313 362
#     4   9  19  40  60  84 116 157 201 245 296 365
#     4   9  19  36  61  79 116 161 192 239 302 360
#
# _framework density 22.92127
#
# number of rings (size 3 to 8) (size 9 to 14) (size 15 to 20)
#    0.000    2.333    1.667    0.000    2.333    4.000 
#    0.000    5.000    0.000    0.000    0.000    0.000 
#    0.000    0.000    0.000    0.000    0.000    0.000 
#
# Total GULP energy -267690.565472 kJ/mol
# GULP energy per Si atom -5576.886781 kJ/mol
# Density = 2.286910 g / cm^3
# Si number density = 22.921270 Si / 1000 Ang^3
#
#
#
# Elastic Constant Matrix: (Units=GPa)
#
#
# Indices 1 2 3 4 5 6 
#
# 1 56.9348 16.4836 15.7260 0.0000 0.0000 0.0000
# 2 16.4836 79.7400 24.6271 0.0000 0.0000 0.0000
# 3 15.7260 24.6271 81.2588 0.0000 0.0000 0.0000
# 4 0.0000 0.0000 0.0000 17.0265 0.0000 0.0000
# 5 0.0000 0.0000 0.0000 0.0000 18.0759 0.0000
# 6 0.0000 0.0000 0.0000 0.0000 0.0000 13.3694
#
#
#
# Elastic Compliance Matrix: (Units=1/GPa)
#
#
# Indices 1 2 3 4 5 6 
#
# 1 0.019234 -0.003118 -0.002777 0.000000 0.000000 0.000000
# 2 -0.003118 0.014341 -0.003743 0.000000 0.000000 0.000000
# 3 -0.002777 -0.003743 0.013978 0.000000 0.000000 0.000000
# 4 0.000000 0.000000 0.000000 0.058732 0.000000 0.000000
# 5 0.000000 0.000000 0.000000 0.000000 0.055322 0.000000
# 6 0.000000 0.000000 0.000000 0.000000 0.000000 0.074798
#
#
# Mechanical properties :
#
#
# Convention : Reuss Voigt Hill
#
# Bulk Modulus (GPa) = 35.36507 36.84522 36.10514
# Shear Modulus (GPa) = 18.86026 20.43416 19.64721
#
# Velocity S-wave (km/s) = 2.87161 2.98903 2.93091
# Velocity P-wave (km/s) = 5.14366 5.29358 5.21916
#
# Compressibility (1/GPa) = 0.02827649
#
# Stress axis : x y z
#
# Youngs Moduli (GPa) = 51.99170 69.72857 71.53989
#
# Poissons Ratio (x) = 0.21743 0.19869
# Poissons Ratio (y) = 0.16212 0.26777
# Poissons Ratio (z) = 0.14440 0.26099
#
# Static dielectric constant tensor:
#      x y z
#    x 1.884300 0.000000 0.000000 
#    y 0.000000 1.904860 0.000000 
#    z 0.000000 0.000000 1.906670 
# 
# From -- ./inp_files/7445.got.cif
#   From: 2010.05.17/outbox.cif.g08.bks.cpg/sg61_4_cif.got.tgz:7445.got - 2010.06.03 15:17:17.
