data_PCOD9459281
_publ_section_title
;
Structure prediction by ZEFSAII (Michael W. Deem and Ramdas Pophale) SiO2 
 PCOD9459281
Probable space group: P B C A
;
_chemical_formula_sum "Si O2"
_cell_formula_units_Z 48
_cell_length_a 11.751462
_cell_length_b 21.832366
_cell_length_c 7.593072
_cell_angle_alpha 90.000000
_cell_angle_beta 90.000000
_cell_angle_gamma 90.000000
_cell_volume 1948.095405
_symmetry_space_group_name_H-M "P B C A"
_symmetry_group_IT_number 61
_symmetry_cell_setting 'orthorhombic'
loop_
_space_group_symop_operation_xyz
x,y,z
1/2-x,-y,1/2+z
1/2+x,1/2-y,-z
-x,1/2+y,1/2-z
-x,-y,-z
1/2+x,y,1/2-z
1/2-x,1/2+y,z
x,1/2-y,1/2+z
loop_
_atom_site_type_symbol
_atom_site_label
_atom_site_fract_x
_atom_site_fract_y
_atom_site_fract_z
Si Si1 0.877849 0.382525 0.716482
Si Si2 0.371498 0.574916 0.891403
Si Si3 0.933670 0.509754 0.277226
Si Si4 0.326846 0.570179 0.516086
Si Si5 0.495708 0.806892 0.427950
Si Si6 0.524884 0.671804 0.535281
O O1 0.767544 0.406220 0.617627
O O2 0.928730 0.330862 0.588364
O O3 0.874876 0.353952 0.911294
O O4 0.967538 0.438237 0.722398
O O5 0.498452 0.550809 0.830597
O O6 0.294431 0.562329 0.720616
O O7 0.387714 0.646772 0.928261
O O8 0.352028 0.534270 0.065311
O O9 0.880885 0.512097 0.083832
O O10 0.423528 0.622558 0.524883
O O11 0.476459 0.735390 0.457303
O O12 0.554224 0.816492 0.238143
#
# Coordination Sequence:
#
# PCOD9459281 Si02
#       6
#     8   8   8   8   8   8
#     4  10  21  38  56  88 116 148 196 237 283 350
#     4   9  19  37  60  82 111 154 191 235 291 343
#     4   9  19  39  60  82 121 152 185 241 292 336
#     4  10  21  37  60  87 113 153 195 231 287 348
#     4  10  19  37  59  77 112 151 191 234 292 338
#     4  10  20  38  59  80 116 154 182 243 291 336
#
# _framework density 24.63945
#
# number of rings (size 3 to 8) (size 9 to 14) (size 15 to 20)
#    0.000    2.333    1.667    0.500    0.000    1.333 
#   15.000    0.000    0.000    0.000    0.000    0.000 
#    0.000    0.000    0.000    0.000    0.000    0.000 
#
# Total GULP energy -268468.893708 kJ/mol
# GULP energy per Si atom -5593.101952 kJ/mol
# Density = 2.458337 g / cm^3
# Si number density = 24.639450 Si / 1000 Ang^3
#
#
#
# Elastic Constant Matrix: (Units=GPa)
#
#
# Indices 1 2 3 4 5 6 
#
# 1 42.5344 6.9705 24.8698 0.0000 0.0000 0.0000
# 2 6.9705 112.3934 36.3241 0.0000 0.0000 0.0000
# 3 24.8698 36.3241 140.2202 0.0000 0.0000 0.0000
# 4 0.0000 0.0000 0.0000 45.6261 0.0000 0.0000
# 5 0.0000 0.0000 0.0000 0.0000 35.5374 0.0000
# 6 0.0000 0.0000 0.0000 0.0000 0.0000 15.2896
#
#
#
# Elastic Compliance Matrix: (Units=1/GPa)
#
#
# Indices 1 2 3 4 5 6 
#
# 1 0.026232 -0.000134 -0.004618 0.000000 0.000000 0.000000
# 2 -0.000134 0.009711 -0.002492 0.000000 0.000000 0.000000
# 3 -0.004618 -0.002492 0.008596 0.000000 0.000000 0.000000
# 4 0.000000 0.000000 0.000000 0.021917 0.000000 0.000000
# 5 0.000000 0.000000 0.000000 0.000000 0.028139 0.000000
# 6 0.000000 0.000000 0.000000 0.000000 0.000000 0.065404
#
#
# Mechanical properties :
#
#
# Convention : Reuss Voigt Hill
#
# Bulk Modulus (GPa) = 33.27630 47.94187 40.60908
# Shear Modulus (GPa) = 27.09949 34.42288 30.76119
#
# Velocity S-wave (km/s) = 3.31998 3.74179 3.53718
# Velocity P-wave (km/s) = 5.31329 6.17799 5.76188
#
# Compressibility (1/GPa) = 0.03005142
#
# Stress axis : x y z
#
# Youngs Moduli (GPa) = 38.12075 102.97633 116.33095
#
# Poissons Ratio (x) = 0.01385 0.53719
# Poissons Ratio (y) = 0.00513 0.28987
# Poissons Ratio (z) = 0.17603 0.25659
#
# Static dielectric constant tensor:
#      x y z
#    x 2.002220 0.000000 0.000000 
#    y 0.000000 1.915090 0.000000 
#    z 0.000000 0.000000 2.025190 
# 
# From -- ./inp_files/2265.got.cif
#   From: 2010.05.17/outbox.cif.g08.bks.cpg/sg61_2_cif.got.tgz:2265.got - 2010.06.03 15:17:17.
