data_PCOD9459714
_publ_section_title
;
Structure prediction by ZEFSAII (Michael W. Deem and Ramdas Pophale) SiO2 
 PCOD9459714
Probable space group: P B C A
;
_chemical_formula_sum "Si O2"
_cell_formula_units_Z 64
_cell_length_a 10.179072
_cell_length_b 9.399012
_cell_length_c 28.984610
_cell_angle_alpha 90.000000
_cell_angle_beta 90.000000
_cell_angle_gamma 90.000000
_cell_volume 2773.050966
_symmetry_space_group_name_H-M "P B C A"
_symmetry_group_IT_number 61
_symmetry_cell_setting 'orthorhombic'
loop_
_space_group_symop_operation_xyz
x,y,z
1/2-x,-y,1/2+z
1/2+x,1/2-y,-z
-x,1/2+y,1/2-z
-x,-y,-z
1/2+x,y,1/2-z
1/2-x,1/2+y,z
x,1/2-y,1/2+z
loop_
_atom_site_type_symbol
_atom_site_label
_atom_site_fract_x
_atom_site_fract_y
_atom_site_fract_z
Si Si1 0.906714 0.638764 0.864102
Si Si2 0.105166 0.983892 0.433828
Si Si3 0.249455 0.779259 0.276709
Si Si4 0.804219 0.023801 0.286948
Si Si5 0.132076 0.656585 0.027413
Si Si6 0.464252 0.947853 0.661834
Si Si7 0.273424 0.970875 0.837965
Si Si8 0.323145 0.064685 0.576875
O O1 0.891132 0.498714 0.832398
O O2 0.765273 0.655936 0.887599
O O3 0.005450 0.615121 0.905573
O O4 0.941999 0.779678 0.837722
O O5 0.162049 0.890651 0.475222
O O6 0.197018 0.036744 0.392246
O O7 0.014080 0.104352 0.457622
O O8 0.179598 0.670364 0.240780
O O9 0.330978 0.887782 0.245212
O O10 0.174651 0.888392 0.311383
O O11 0.321655 0.668859 0.310838
O O12 0.650934 0.003247 0.303012
O O13 0.140336 0.823735 0.037327
O O14 0.234221 0.563253 0.057519
O O15 0.616362 0.977711 0.669628
O O16 0.434035 0.003103 0.610098
#
# Coordination Sequence:
#
# PCOD9459714 Si02
#       8
#     8   8   8   8   8   8   8   8
#     4  10  20  41  68  96 128 171 219 280 317 376
#     4  10  24  44  67  93 135 174 210 266 337 383
#     4  10  23  44  61  95 131 172 219 264 326 389
#     4  10  21  42  68  95 127 168 229 268 316 385
#     4  10  22  44  71  96 127 172 220 269 321 394
#     4  11  22  38  69  98 134 172 218 269 330 385
#     4  11  25  43  60  95 140 171 211 265 335 399
#     4  10  21  40  68 101 125 165 227 271 320 380
#
# _framework density 23.079273000000001
#
# number of rings (size 3 to 8) (size 9 to 14) (size 15 to 20)
#    0.000    1.750    2.500    0.750    1.750    3.000 
#   13.500    1.250    0.000    0.000    0.000    0.000 
#    0.000    0.000    0.000    0.000    0.000    0.000 
#
# Total GULP energy -357131.138858 kJ/mol
# GULP energy per Si atom -5580.174045 kJ/mol
# Density = 2.302674 g / cm^3
# Si number density = 23.079273 Si / 1000 Ang^3
#
#
#
# Elastic Constant Matrix: (Units=GPa)
#
#
# Indices 1 2 3 4 5 6 
#
# 1 40.0580 8.0642 5.8589 0.0000 0.0000 0.0000
# 2 8.0642 100.6759 29.7858 0.0000 0.0000 0.0000
# 3 5.8589 29.7858 111.9722 0.0000 0.0000 0.0000
# 4 0.0000 0.0000 0.0000 34.6917 0.0000 0.0000
# 5 0.0000 0.0000 0.0000 0.0000 22.3944 0.0000
# 6 0.0000 0.0000 0.0000 0.0000 0.0000 9.9833
#
#
#
# Elastic Compliance Matrix: (Units=1/GPa)
#
#
# Indices 1 2 3 4 5 6 
#
# 1 0.025448 -0.001785 -0.000857 0.000000 0.000000 0.000000
# 2 -0.001785 0.010907 -0.002808 0.000000 0.000000 0.000000
# 3 -0.000857 -0.002808 0.009723 0.000000 0.000000 0.000000
# 4 0.000000 0.000000 0.000000 0.028825 0.000000 0.000000
# 5 0.000000 0.000000 0.000000 0.000000 0.044654 0.000000
# 6 0.000000 0.000000 0.000000 0.000000 0.000000 0.100167
#
#
# Mechanical properties :
#
#
# Convention : Reuss Voigt Hill
#
# Bulk Modulus (GPa) = 28.42656 37.79157 33.10906
# Shear Modulus (GPa) = 20.63139 27.34704 23.98921
#
# Velocity S-wave (km/s) = 2.99312 3.44600 3.22751
# Velocity P-wave (km/s) = 4.92835 5.67833 5.31658
#
# Compressibility (1/GPa) = 0.03517837
#
# Stress axis : x y z
#
# Youngs Moduli (GPa) = 39.29512 91.68783 102.85377
#
# Poissons Ratio (x) = 0.16366 0.08812
# Poissons Ratio (y) = 0.07014 0.28880
# Poissons Ratio (z) = 0.03367 0.25745
#
# Static dielectric constant tensor:
#      x y z
#    x 1.916050 0.000000 0.000000 
#    y 0.000000 1.857580 0.000000 
#    z 0.000000 0.000000 1.885380 
# 
# From -- ./inp_files/11779.got.cif
#   From: 2010.05.17/outbox.cif.g08.bks.cpg/sg61_6_cif.got.tgz:11779.got - 2010.06.03 15:17:17.
