data_PCOD9459030
_publ_section_title
;
Structure prediction by ZEFSAII (Michael W. Deem and Ramdas Pophale) SiO2 
 PCOD9459030
Probable space group: P B C A
;
_chemical_formula_sum "Si O2"
_cell_formula_units_Z 48
_cell_length_a 12.236512
_cell_length_b 13.920659
_cell_length_c 11.219240
_cell_angle_alpha 90.000000
_cell_angle_beta 90.000000
_cell_angle_gamma 90.000000
_cell_volume 1911.088830
_symmetry_space_group_name_H-M "P B C A"
_symmetry_group_IT_number 61
_symmetry_cell_setting 'orthorhombic'
loop_
_space_group_symop_operation_xyz
x,y,z
1/2-x,-y,1/2+z
1/2+x,1/2-y,-z
-x,1/2+y,1/2-z
-x,-y,-z
1/2+x,y,1/2-z
1/2-x,1/2+y,z
x,1/2-y,1/2+z
loop_
_atom_site_type_symbol
_atom_site_label
_atom_site_fract_x
_atom_site_fract_y
_atom_site_fract_z
Si Si1 0.442040 0.790502 0.798366
Si Si2 0.975249 0.707404 0.462313
Si Si3 0.257486 0.126554 0.052529
Si Si4 0.847139 0.413268 0.451198
Si Si5 0.748151 0.632276 0.703975
Si Si6 0.758270 0.089740 0.197925
O O1 0.508226 0.778508 0.675382
O O2 0.494697 0.780803 0.929161
O O3 0.348637 0.706256 0.793839
O O4 0.371767 0.889359 0.790978
O O5 0.845203 0.697503 0.450528
O O6 0.028314 0.609481 0.514595
O O7 0.312940 0.139071 0.924077
O O8 0.201838 0.019974 0.056736
O O9 0.310544 0.133886 0.182558
O O10 0.820037 0.363599 0.325634
O O11 0.789008 0.369935 0.568837
O O12 0.789931 0.521877 0.700301
#
# Coordination Sequence:
#
# PCOD9459030 Si02
#       6
#     8   8   8   8   8   8
#     4  10  20  36  52  74 108 144 176 220 276 324
#     4  10  20  33  51  75 107 141 173 217 272 321
#     4   8  17  34  54  75 104 138 173 215 268 317
#     4  10  18  31  53  80 103 133 177 220 260 318
#     4   9  18  33  55  79 103 137 182 225 264 315
#     4   9  18  33  55  79 103 137 182 225 264 315
#
# _framework density 25.116572999999999
#
# number of rings (size 3 to 8) (size 9 to 14) (size 15 to 20)
#    0.000    2.667    0.000    1.500    0.000    1.333 
#    0.000    1.667    0.000    0.000    0.000   30.333 
#    0.000    0.000    0.000    0.000    0.000    0.000 
#
# Total GULP energy -267549.824458 kJ/mol
# GULP energy per Si atom -5573.954676 kJ/mol
# Density = 2.505941 g / cm^3
# Si number density = 25.116573 Si / 1000 Ang^3
#
#
#
# Elastic Constant Matrix: (Units=GPa)
#
#
# Indices 1 2 3 4 5 6 
#
# 1 27.6003 17.9524 46.7347 0.0000 0.0000 0.0000
# 2 17.9524 91.3733 16.1596 0.0000 0.0000 0.0000
# 3 46.7347 16.1596 320.1030 0.0000 0.0000 0.0000
# 4 0.0000 0.0000 0.0000 27.9152 0.0000 0.0000
# 5 0.0000 0.0000 0.0000 0.0000 48.6541 0.0000
# 6 0.0000 0.0000 0.0000 0.0000 0.0000 27.8474
#
#
#
# Elastic Compliance Matrix: (Units=1/GPa)
#
#
# Indices 1 2 3 4 5 6 
#
# 1 0.055273 -0.009517 -0.007589 0.000000 0.000000 0.000000
# 2 -0.009517 0.012682 0.000749 0.000000 0.000000 0.000000
# 3 -0.007589 0.000749 0.004194 0.000000 0.000000 0.000000
# 4 0.000000 0.000000 0.000000 0.035823 0.000000 0.000000
# 5 0.000000 0.000000 0.000000 0.000000 0.020553 0.000000
# 6 0.000000 0.000000 0.000000 0.000000 0.000000 0.035910
#
#
# Mechanical properties :
#
#
# Convention : Reuss Voigt Hill
#
# Bulk Modulus (GPa) = 25.35900 66.75224 46.05562
# Shear Modulus (GPa) = 23.77625 44.76532 34.27078
#
# Velocity S-wave (km/s) = 3.08008 4.22631 3.69788
# Velocity P-wave (km/s) = 4.77155 7.10284 6.05053
#
# Compressibility (1/GPa) = 0.03943374
#
# Stress axis : x y z
#
# Youngs Moduli (GPa) = 18.09208 78.85499 238.42459
#
# Poissons Ratio (x) = 0.75050 1.80948
# Poissons Ratio (y) = 0.17219 -0.17866
# Poissons Ratio (z) = 0.13731 -0.05909
#
# Static dielectric constant tensor:
#      x y z
#    x 1.986460 0.000000 0.000000 
#    y 0.000000 1.988710 0.000000 
#    z 0.000000 0.000000 2.067390 
# 
# From -- ./inp_files/2818.got.cif
#   From: 2010.05.17/outbox.cif.g08.bks.cpg/sg61_2_cif.got.tgz:2818.got - 2010.06.03 15:17:17.
