data_PCOD9459400
_publ_section_title
;
Structure prediction by ZEFSAII (Michael W. Deem and Ramdas Pophale) SiO2 
 PCOD9459400
Probable space group: P B C A
;
_chemical_formula_sum "Si O2"
_cell_formula_units_Z 56
_cell_length_a 12.834440
_cell_length_b 13.085071
_cell_length_c 13.042999
_cell_angle_alpha 90.000000
_cell_angle_beta 90.000000
_cell_angle_gamma 90.000000
_cell_volume 2190.435495
_symmetry_space_group_name_H-M "P B C A"
_symmetry_group_IT_number 61
_symmetry_cell_setting 'orthorhombic'
loop_
_space_group_symop_operation_xyz
x,y,z
1/2-x,-y,1/2+z
1/2+x,1/2-y,-z
-x,1/2+y,1/2-z
-x,-y,-z
1/2+x,y,1/2-z
1/2-x,1/2+y,z
x,1/2-y,1/2+z
loop_
_atom_site_type_symbol
_atom_site_label
_atom_site_fract_x
_atom_site_fract_y
_atom_site_fract_z
Si Si1 0.211577 0.749209 0.146494
Si Si2 0.023745 0.767575 0.011517
Si Si3 0.657872 0.101271 0.992068
Si Si4 0.643366 0.661528 0.640744
Si Si5 0.370522 0.623051 0.868121
Si Si6 0.364231 0.851371 0.784704
Si Si7 0.542503 0.498321 0.317297
O O1 0.104124 0.721481 0.093550
O O2 0.259098 0.834944 0.072068
O O3 0.180985 0.809099 0.247968
O O4 0.289329 0.659516 0.185391
O O5 0.963105 0.868754 0.047881
O O6 0.093196 0.762131 0.910071
O O7 0.936136 0.682633 0.996801
O O8 0.613743 0.009144 0.920992
O O9 0.686922 0.096357 0.113003
O O10 0.552231 0.579694 0.654117
O O11 0.752491 0.625638 0.587833
O O12 0.384168 0.732907 0.811752
O O13 0.390866 0.542175 0.778904
O O14 0.474256 0.907384 0.775785
#
# Coordination Sequence:
#
# PCOD9459400 Si02
#       7
#     8   8   8   8   8   8   8
#     4  11  19  39  63  90 127 168 212 265 316 388
#     4  10  20  34  64  88 123 168 209 257 323 377
#     4  10  21  38  64  92 127 163 216 267 314 383
#     4  10  21  37  62  91 120 168 213 260 319 374
#     4  10  20  41  61  94 125 167 212 260 325 376
#     4  10  22  37  63  98 121 170 219 253 329 386
#     4  11  20  40  63  92 132 163 210 274 320 378
#
# _framework density 25.565691000000001
#
# number of rings (size 3 to 8) (size 9 to 14) (size 15 to 20)
#    0.000    1.714    4.286    3.000    0.000    0.000 
#    5.143    1.429    0.000    6.000    0.000    0.000 
#    0.000    0.000    0.000    0.000    0.000    0.000 
#
# Total GULP energy -312487.086196 kJ/mol
# GULP energy per Si atom -5580.126539 kJ/mol
# Density = 2.550750 g / cm^3
# Si number density = 25.565691 Si / 1000 Ang^3
#
#
#
# Elastic Constant Matrix: (Units=GPa)
#
#
# Indices 1 2 3 4 5 6 
#
# 1 78.0905 -6.3301 24.6381 0.0000 0.0000 0.0000
# 2 -6.3301 33.3207 -6.5394 0.0000 0.0000 0.0000
# 3 24.6381 -6.5394 71.4412 0.0000 0.0000 0.0000
# 4 0.0000 0.0000 0.0000 15.3547 0.0000 0.0000
# 5 0.0000 0.0000 0.0000 0.0000 52.1724 0.0000
# 6 0.0000 0.0000 0.0000 0.0000 0.0000 34.3343
#
#
#
# Elastic Compliance Matrix: (Units=1/GPa)
#
#
# Indices 1 2 3 4 5 6 
#
# 1 0.014475 0.001803 -0.004827 0.000000 0.000000 0.000000
# 2 0.001803 0.030785 0.002196 0.000000 0.000000 0.000000
# 3 -0.004827 0.002196 0.015863 0.000000 0.000000 0.000000
# 4 0.000000 0.000000 0.000000 0.065127 0.000000 0.000000
# 5 0.000000 0.000000 0.000000 0.000000 0.019167 0.000000
# 6 0.000000 0.000000 0.000000 0.000000 0.000000 0.029125
#
#
# Mechanical properties :
#
#
# Convention : Reuss Voigt Hill
#
# Bulk Modulus (GPa) = 16.81622 22.93219 19.87420
# Shear Modulus (GPa) = 25.50751 31.77784 28.64268
#
# Velocity S-wave (km/s) = 3.16210 3.52943 3.35080
# Velocity P-wave (km/s) = 4.46361 5.05950 4.77087
#
# Compressibility (1/GPa) = 0.05946641
#
# Stress axis : x y z
#
# Youngs Moduli (GPa) = 69.08606 32.48357 63.03884
#
# Poissons Ratio (x) = -0.05855 0.30428
# Poissons Ratio (y) = -0.12453 -0.13845
# Poissons Ratio (z) = 0.33347 -0.07134
#
# Static dielectric constant tensor:
#      x y z
#    x 2.126570 0.000000 0.000000 
#    y 0.000000 2.055890 0.000000 
#    z 0.000000 0.000000 2.379520 
# 
# From -- ./inp_files/7926.got.cif
#   From: 2010.05.17/outbox.cif.g08.bks.cpg/sg61_4_cif.got.tgz:7926.got - 2010.06.03 15:17:17.
