data_PCOD9459060
_publ_section_title
;
Structure prediction by ZEFSAII (Michael W. Deem and Ramdas Pophale) SiO2 
 PCOD9459060
Probable space group: P B C A
;
_chemical_formula_sum "Si O2"
_cell_formula_units_Z 64
_cell_length_a 21.309681
_cell_length_b 14.796509
_cell_length_c 8.720207
_cell_angle_alpha 90.000000
_cell_angle_beta 90.000000
_cell_angle_gamma 90.000000
_cell_volume 2749.558761
_symmetry_space_group_name_H-M "P B C A"
_symmetry_group_IT_number 61
_symmetry_cell_setting 'orthorhombic'
loop_
_space_group_symop_operation_xyz
x,y,z
1/2-x,-y,1/2+z
1/2+x,1/2-y,-z
-x,1/2+y,1/2-z
-x,-y,-z
1/2+x,y,1/2-z
1/2-x,1/2+y,z
x,1/2-y,1/2+z
loop_
_atom_site_type_symbol
_atom_site_label
_atom_site_fract_x
_atom_site_fract_y
_atom_site_fract_z
Si Si1 0.975639 0.903122 0.561501
Si Si2 0.339250 0.584841 0.573379
Si Si3 0.804631 0.370258 0.916303
Si Si4 0.390084 0.362650 0.124997
Si Si5 0.577967 0.726289 0.577358
Si Si6 0.324757 0.596723 0.923374
Si Si7 0.946273 0.951668 0.895938
Si Si8 0.215940 0.614653 0.426394
O O1 0.907240 0.894460 0.489573
O O2 0.972366 0.902242 0.746090
O O3 0.020386 0.826300 0.495591
O O4 0.000000 0.000000 0.500000
O O5 0.324887 0.476536 0.577621
O O6 0.330574 0.622451 0.745241
O O7 0.288962 0.622817 0.454227
O O8 0.802405 0.344252 0.736811
O O9 0.858203 0.318007 0.008912
O O10 0.735134 0.360065 0.989964
O O11 0.418012 0.294043 0.245144
O O12 0.407590 0.462553 0.173121
O O13 0.421350 0.331350 0.965488
O O14 0.317409 0.354313 0.083745
O O15 0.306433 0.489827 0.919949
O O16 0.393009 0.601651 0.006588
O O17 0.000000 0.000000 0.000000
#
# Coordination Sequence:
#
# PCOD9459060 Si02
#       8
#     8   8   8   8   8   8   8   8
#     4  12  22  38  61  93 125 167 211 259 316 375
#     4  10  18  34  58  88 124 152 203 253 304 364
#     4  10  18  34  57  90 118 154 199 255 306 363
#     4  11  24  41  59  90 121 165 209 261 317 376
#     4  12  25  39  64  87 128 166 209 257 322 384
#     4   9  19  32  58  92 119 154 195 260 308 353
#     4  11  23  38  64  91 126 160 217 264 312 376
#     4   9  19  34  60  85 119 153 200 250 307 359
#
# _framework density 23.276463
#
# number of rings (size 3 to 8) (size 9 to 14) (size 15 to 20)
#    0.000    1.500    2.500    3.000    5.250    4.000 
#    0.000    0.000    2.750    0.000    0.000    0.000 
#    0.000    0.000    0.000    0.000    0.000    0.000 
#
# Total GULP energy -357759.181599 kJ/mol
# GULP energy per Si atom -5589.987212 kJ/mol
# Density = 2.322348 g / cm^3
# Si number density = 23.276463 Si / 1000 Ang^3
#
#
#
# Elastic Constant Matrix: (Units=GPa)
#
#
# Indices 1 2 3 4 5 6 
#
# 1 168.6021 -2.2930 53.0725 0.0000 0.0000 0.0000
# 2 -2.2930 18.7768 -12.1135 0.0000 0.0000 0.0000
# 3 53.0725 -12.1135 124.9637 0.0000 0.0000 0.0000
# 4 0.0000 0.0000 0.0000 27.5764 0.0000 0.0000
# 5 0.0000 0.0000 0.0000 0.0000 43.6598 0.0000
# 6 0.0000 0.0000 0.0000 0.0000 0.0000 15.5614
#
#
#
# Elastic Compliance Matrix: (Units=1/GPa)
#
#
# Indices 1 2 3 4 5 6 
#
# 1 0.006868 -0.001113 -0.003025 0.000000 0.000000 0.000000
# 2 -0.001113 0.056990 0.005997 0.000000 0.000000 0.000000
# 3 -0.003025 0.005997 0.009868 0.000000 0.000000 0.000000
# 4 0.000000 0.000000 0.000000 0.036263 0.000000 0.000000
# 5 0.000000 0.000000 0.000000 0.000000 0.022904 0.000000
# 6 0.000000 0.000000 0.000000 0.000000 0.000000 0.064262
#
#
# Mechanical properties :
#
#
# Convention : Reuss Voigt Hill
#
# Bulk Modulus (GPa) = 12.91230 43.29719 28.10474
# Shear Modulus (GPa) = 22.80484 35.60461 29.20473
#
# Velocity S-wave (km/s) = 3.13347 3.91530 3.54600
# Velocity P-wave (km/s) = 4.31867 6.25149 5.37271
#
# Compressibility (1/GPa) = 0.07744556
#
# Stress axis : x y z
#
# Youngs Moduli (GPa) = 145.60000 17.54690 101.33485
#
# Poissons Ratio (x) = 0.01952 0.30652
# Poissons Ratio (y) = 0.16200 -0.60770
# Poissons Ratio (z) = 0.44041 -0.10523
#
# Static dielectric constant tensor:
#      x y z
#    x 1.903010 0.000000 0.000000 
#    y 0.000000 2.016850 0.000000 
#    z 0.000000 0.000000 1.859340 
# 
# From -- ./inp_files/4057.got.cif
#   From: 2010.05.17/outbox.cif.g08.bks.cpg/sg61_3_cif.got.tgz:4057.got - 2010.06.03 15:17:17.
