data_PCOD9459933
_publ_section_title
;
Structure prediction by ZEFSAII (Michael W. Deem and Ramdas Pophale) SiO2 
 PCOD9459933
Probable space group: P B C A
;
_chemical_formula_sum "Si O2"
_cell_formula_units_Z 40
_cell_length_a 17.116513
_cell_length_b 8.036483
_cell_length_c 12.864891
_cell_angle_alpha 90.000000
_cell_angle_beta 90.000000
_cell_angle_gamma 90.000000
_cell_volume 1769.650225
_symmetry_space_group_name_H-M "P B C A"
_symmetry_group_IT_number 61
_symmetry_cell_setting 'orthorhombic'
loop_
_space_group_symop_operation_xyz
x,y,z
1/2-x,-y,1/2+z
1/2+x,1/2-y,-z
-x,1/2+y,1/2-z
-x,-y,-z
1/2+x,y,1/2-z
1/2-x,1/2+y,z
x,1/2-y,1/2+z
loop_
_atom_site_type_symbol
_atom_site_label
_atom_site_fract_x
_atom_site_fract_y
_atom_site_fract_z
Si Si1 0.999682 0.773001 0.327426
Si Si2 0.221400 0.279964 0.231473
Si Si3 0.651968 0.208570 0.972897
Si Si4 0.408873 0.569978 0.843270
Si Si5 0.346797 0.466659 0.345771
O O1 0.043045 0.599449 0.350879
O O2 0.868887 0.642639 0.553068
O O3 0.063930 0.914468 0.343064
O O4 0.968566 0.797730 0.209609
O O5 0.223417 0.269578 0.107471
O O6 0.163716 0.433237 0.262823
O O7 0.296485 0.312747 0.302242
O O8 0.177014 0.114238 0.267706
O O9 0.573436 0.199809 0.903611
O O10 0.668557 0.045607 0.041759
#
# Coordination Sequence:
#
# PCOD9459933 Si02
#       5
#     8   8   8   8   8
#     4  11  21  39  66  95 125 162 208 268 325 382
#     4  10  23  41  60  90 126 169 212 260 315 382
#     4  10  22  40  63  91 125 165 210 258 324 386
#     4  10  21  39  62  93 128 162 208 263 318 385
#     4  11  23  41  63  91 127 164 214 267 316 379
#
# _framework density 22.603335999999999
#
# number of rings (size 3 to 8) (size 9 to 14) (size 15 to 20)
#    0.000    1.600    0.000    6.000    0.000    4.800 
#    0.000    6.000    0.000    0.000    0.000    0.000 
#    0.000    0.000    0.000    0.000    0.000    0.000 
#
# Total GULP energy -223187.639650 kJ/mol
# GULP energy per Si atom -5579.690991 kJ/mol
# Density = 2.255189 g / cm^3
# Si number density = 22.603336 Si / 1000 Ang^3
#
#
#
# Elastic Constant Matrix: (Units=GPa)
#
#
# Indices 1 2 3 4 5 6 
#
# 1 32.0095 7.8013 18.6236 0.0000 0.0000 0.0000
# 2 7.8013 105.4774 33.9973 0.0000 0.0000 0.0000
# 3 18.6236 33.9973 124.0403 0.0000 0.0000 0.0000
# 4 0.0000 0.0000 0.0000 13.5864 0.0000 0.0000
# 5 0.0000 0.0000 0.0000 0.0000 31.7648 0.0000
# 6 0.0000 0.0000 0.0000 0.0000 0.0000 32.1234
#
#
#
# Elastic Compliance Matrix: (Units=1/GPa)
#
#
# Indices 1 2 3 4 5 6 
#
# 1 0.034320 -0.000963 -0.004889 0.000000 0.000000 0.000000
# 2 -0.000963 0.010426 -0.002713 0.000000 0.000000 0.000000
# 3 -0.004889 -0.002713 0.009540 0.000000 0.000000 0.000000
# 4 0.000000 0.000000 0.000000 0.073603 0.000000 0.000000
# 5 0.000000 0.000000 0.000000 0.000000 0.031481 0.000000
# 6 0.000000 0.000000 0.000000 0.000000 0.000000 0.031130
#
#
# Mechanical properties :
#
#
# Convention : Reuss Voigt Hill
#
# Bulk Modulus (GPa) = 26.91330 42.48572 34.69951
# Shear Modulus (GPa) = 22.72570 28.90191 25.81381
#
# Velocity S-wave (km/s) = 3.17427 3.57971 3.38307
# Velocity P-wave (km/s) = 5.03659 5.99356 5.53579
#
# Compressibility (1/GPa) = 0.03715635
#
# Stress axis : x y z
#
# Youngs Moduli (GPa) = 29.13767 95.91041 104.82642
#
# Poissons Ratio (x) = 0.09232 0.51250
# Poissons Ratio (y) = 0.02805 0.28441
# Poissons Ratio (z) = 0.14245 0.26022
#
# Static dielectric constant tensor:
#      x y z
#    x 1.891240 0.000000 0.000000 
#    y 0.000000 1.883960 0.000000 
#    z 0.000000 0.000000 1.866660 
# 
# From -- ./inp_files/8059.got.cif
#   From: 2010.05.17/outbox.cif.g08.bks.cpg/sg61_5_cif.got.tgz:8059.got - 2010.06.03 15:17:17.
