data_PCOD9459355
_publ_section_title
;
Structure prediction by ZEFSAII (Michael W. Deem and Ramdas Pophale) SiO2 
 PCOD9459355
Probable space group: P B C A
;
_chemical_formula_sum "Si O2"
_cell_formula_units_Z 48
_cell_length_a 13.258519
_cell_length_b 9.267636
_cell_length_c 15.650339
_cell_angle_alpha 90.000000
_cell_angle_beta 90.000000
_cell_angle_gamma 90.000000
_cell_volume 1923.037408
_symmetry_space_group_name_H-M "P B C A"
_symmetry_group_IT_number 61
_symmetry_cell_setting 'orthorhombic'
loop_
_space_group_symop_operation_xyz
x,y,z
1/2-x,-y,1/2+z
1/2+x,1/2-y,-z
-x,1/2+y,1/2-z
-x,-y,-z
1/2+x,y,1/2-z
1/2-x,1/2+y,z
x,1/2-y,1/2+z
loop_
_atom_site_type_symbol
_atom_site_label
_atom_site_fract_x
_atom_site_fract_y
_atom_site_fract_z
Si Si1 0.775210 0.457376 0.895176
Si Si2 0.113584 0.405971 0.354571
Si Si3 0.789265 0.780896 0.507117
Si Si4 0.677306 0.570051 0.728732
Si Si5 0.412744 0.284627 0.888407
Si Si6 0.472359 0.955502 0.176441
O O1 0.713772 0.318789 0.923250
O O2 0.795697 0.555136 0.978188
O O3 0.710602 0.544094 0.824743
O O4 0.885889 0.438830 0.854812
O O5 0.131810 0.283672 0.424837
O O6 0.226584 0.460664 0.330283
O O7 0.056997 0.549043 0.387916
O O8 0.066133 0.374373 0.262276
O O9 0.675789 0.764318 0.544075
O O10 0.640012 0.730056 0.700907
O O11 0.579884 0.477504 0.702013
O O12 0.500983 0.166679 0.893967
#
# Coordination Sequence:
#
# PCOD9459355 Si02
#       6
#     8   8   8   8   8   8
#     4  11  23  41  66  95 129 172 214 269 341 382
#     4  10  19  43  64  89 132 168 213 265 324 382
#     4  11  23  41  64  94 134 169 205 275 333 387
#     4   8  21  40  64  91 123 169 217 264 308 390
#     4   9  20  43  61  92 126 168 214 265 315 383
#     4   9  22  42  63  94 120 174 223 260 313 397
#
# _framework density 24.960512999999999
#
# number of rings (size 3 to 8) (size 9 to 14) (size 15 to 20)
#    1.000    1.333    1.667    0.000    4.667    2.000 
#   12.000    1.667    0.000    0.000    0.000    0.000 
#    0.000    0.000    0.000    0.000    0.000    0.000 
#
# Total GULP energy -267937.665500 kJ/mol
# GULP energy per Si atom -5582.034698 kJ/mol
# Density = 2.490370 g / cm^3
# Si number density = 24.960513 Si / 1000 Ang^3
#
#
#
# Elastic Constant Matrix: (Units=GPa)
#
#
# Indices 1 2 3 4 5 6 
#
# 1 75.4416 -19.4217 2.6749 0.0000 0.0000 0.0000
# 2 -19.4217 61.2301 3.3027 0.0000 0.0000 0.0000
# 3 2.6749 3.3027 71.8739 0.0000 0.0000 0.0000
# 4 0.0000 0.0000 0.0000 35.3030 0.0000 0.0000
# 5 0.0000 0.0000 0.0000 0.0000 20.6619 0.0000
# 6 0.0000 0.0000 0.0000 0.0000 0.0000 13.6381
#
#
#
# Elastic Compliance Matrix: (Units=1/GPa)
#
#
# Indices 1 2 3 4 5 6 
#
# 1 0.014474 0.004632 -0.000752 0.000000 0.000000 0.000000
# 2 0.004632 0.017855 -0.000993 0.000000 0.000000 0.000000
# 3 -0.000752 -0.000993 0.013987 0.000000 0.000000 0.000000
# 4 0.000000 0.000000 0.000000 0.028326 0.000000 0.000000
# 5 0.000000 0.000000 0.000000 0.000000 0.048398 0.000000
# 6 0.000000 0.000000 0.000000 0.000000 0.000000 0.073324
#
#
# Mechanical properties :
#
#
# Convention : Reuss Voigt Hill
#
# Bulk Modulus (GPa) = 19.19740 20.18415 19.69077
# Shear Modulus (GPa) = 24.04389 28.71991 26.38190
#
# Velocity S-wave (km/s) = 3.10704 3.39575 3.25460
# Velocity P-wave (km/s) = 4.53645 4.84549 4.69352
#
# Compressibility (1/GPa) = 0.05209040
#
# Stress axis : x y z
#
# Youngs Moduli (GPa) = 69.08788 56.00817 71.49569
#
# Poissons Ratio (x) = -0.25941 0.05373
# Poissons Ratio (y) = -0.31999 0.07098
# Poissons Ratio (z) = 0.05192 0.05561
#
# Static dielectric constant tensor:
#      x y z
#    x 2.003500 0.000000 0.000000 
#    y 0.000000 1.966280 0.000000 
#    z 0.000000 0.000000 1.997680 
# 
# From -- ./inp_files/7792.got.cif
#   From: 2010.05.17/outbox.cif.g08.bks.cpg/sg61_4_cif.got.tgz:7792.got - 2010.06.03 15:17:17.
