data_PCOD9459499
_publ_section_title
;
Structure prediction by ZEFSAII (Michael W. Deem and Ramdas Pophale) SiO2 
 PCOD9459499
Probable space group: P B C A
;
_chemical_formula_sum "Si O2"
_cell_formula_units_Z 48
_cell_length_a 12.494779
_cell_length_b 23.927644
_cell_length_c 7.477468
_cell_angle_alpha 90.000000
_cell_angle_beta 90.000000
_cell_angle_gamma 90.000000
_cell_volume 2235.543272
_symmetry_space_group_name_H-M "P B C A"
_symmetry_group_IT_number 61
_symmetry_cell_setting 'orthorhombic'
loop_
_space_group_symop_operation_xyz
x,y,z
1/2-x,-y,1/2+z
1/2+x,1/2-y,-z
-x,1/2+y,1/2-z
-x,-y,-z
1/2+x,y,1/2-z
1/2-x,1/2+y,z
x,1/2-y,1/2+z
loop_
_atom_site_type_symbol
_atom_site_label
_atom_site_fract_x
_atom_site_fract_y
_atom_site_fract_z
Si Si1 0.811952 0.310770 0.395922
Si Si2 0.602894 0.476506 0.602131
Si Si3 0.941779 0.676220 0.543378
Si Si4 0.789222 0.069529 0.860367
Si Si5 0.998479 0.064273 0.056326
Si Si6 0.183016 0.224654 0.281502
O O1 0.791797 0.367471 0.283521
O O2 0.720548 0.309620 0.547651
O O3 0.790570 0.253512 0.291945
O O4 0.932488 0.310140 0.466930
O O5 0.500000 0.500000 0.500000
O O6 0.665963 0.524768 0.716366
O O7 0.681244 0.450782 0.453665
O O8 0.553937 0.434392 0.750715
O O9 0.878160 0.688196 0.361890
O O10 0.890009 0.721103 0.675903
O O11 0.941622 0.609080 0.570850
O O12 0.872957 0.076201 0.027697
O O13 0.000000 0.000000 0.000000
#
# Coordination Sequence:
#
# PCOD9459499 Si02
#       6
#     8   8   8   8   8   8
#     4  10  21  37  56  83 112 147 192 237 288 349
#     4  11  22  38  59  85 117 154 194 239 295 355
#     4  10  20  37  57  82 115 149 189 239 289 346
#     4  10  22  38  58  85 117 152 195 242 291 353
#     4   9  20  38  59  84 117 153 192 239 291 351
#     4  10  21  36  58  83 113 151 191 238 295 350
#
# _framework density 21.471291000000001
#
# number of rings (size 3 to 8) (size 9 to 14) (size 15 to 20)
#    0.000    2.000    0.000    3.000    0.000    6.667 
#    0.000    8.333    0.000    0.000    0.000    0.000 
#    0.000    0.000    0.000    0.000    0.000    0.000 
#
# Total GULP energy -267432.683024 kJ/mol
# GULP energy per Si atom -5571.514230 kJ/mol
# Density = 2.142242 g / cm^3
# Si number density = 21.471291 Si / 1000 Ang^3
#
#
#
# Elastic Constant Matrix: (Units=GPa)
#
#
# Indices 1 2 3 4 5 6 
#
# 1 80.3121 13.4685 8.0325 0.0000 0.0000 0.0000
# 2 13.4685 91.4667 1.3005 0.0000 0.0000 0.0000
# 3 8.0325 1.3005 40.5671 0.0000 0.0000 0.0000
# 4 0.0000 0.0000 0.0000 13.5259 0.0000 0.0000
# 5 0.0000 0.0000 0.0000 0.0000 37.1715 0.0000
# 6 0.0000 0.0000 0.0000 0.0000 0.0000 28.7079
#
#
#
# Elastic Compliance Matrix: (Units=1/GPa)
#
#
# Indices 1 2 3 4 5 6 
#
# 1 0.013019 -0.001881 -0.002517 0.000000 0.000000 0.000000
# 2 -0.001881 0.011210 0.000013 0.000000 0.000000 0.000000
# 3 -0.002517 0.000013 0.025149 0.000000 0.000000 0.000000
# 4 0.000000 0.000000 0.000000 0.073932 0.000000 0.000000
# 5 0.000000 0.000000 0.000000 0.000000 0.026902 0.000000
# 6 0.000000 0.000000 0.000000 0.000000 0.000000 0.034834
#
#
# Mechanical properties :
#
#
# Convention : Reuss Voigt Hill
#
# Bulk Modulus (GPa) = 24.62696 28.66100 26.64398
# Shear Modulus (GPa) = 24.11366 28.51737 26.31552
#
# Velocity S-wave (km/s) = 3.35485 3.64835 3.50468
# Velocity P-wave (km/s) = 5.14794 5.57896 5.36778
#
# Compressibility (1/GPa) = 0.04060590
#
# Stress axis : x y z
#
# Youngs Moduli (GPa) = 76.81262 89.20794 39.76372
#
# Poissons Ratio (x) = 0.16782 0.10010
# Poissons Ratio (y) = 0.14450 -0.00052
# Poissons Ratio (z) = 0.19337 -0.00117
#
# Static dielectric constant tensor:
#      x y z
#    x 1.783450 0.000000 0.000000 
#    y 0.000000 1.862470 0.000000 
#    z 0.000000 0.000000 1.833840 
# 
# From -- ./inp_files/2270.got.cif
#   From: 2010.05.17/outbox.cif.g08.bks.cpg/sg61_2_cif.got.tgz:2270.got - 2010.06.03 15:17:17.
