data_PCOD9459466
_publ_section_title
;
Structure prediction by ZEFSAII (Michael W. Deem and Ramdas Pophale) SiO2 
 PCOD9459466
Probable space group: P B C A
;
_chemical_formula_sum "Si O2"
_cell_formula_units_Z 64
_cell_length_a 20.619655
_cell_length_b 5.088682
_cell_length_c 22.769258
_cell_angle_alpha 90.000000
_cell_angle_beta 90.000000
_cell_angle_gamma 90.000000
_cell_volume 2389.106911
_symmetry_space_group_name_H-M "P B C A"
_symmetry_group_IT_number 61
_symmetry_cell_setting 'orthorhombic'
loop_
_space_group_symop_operation_xyz
x,y,z
1/2-x,-y,1/2+z
1/2+x,1/2-y,-z
-x,1/2+y,1/2-z
-x,-y,-z
1/2+x,y,1/2-z
1/2-x,1/2+y,z
x,1/2-y,1/2+z
loop_
_atom_site_type_symbol
_atom_site_label
_atom_site_fract_x
_atom_site_fract_y
_atom_site_fract_z
Si Si1 0.417694 0.294066 0.618542
Si Si2 0.456300 0.759275 0.317783
Si Si3 0.281116 0.972851 0.217468
Si Si4 0.454344 0.705806 0.054290
Si Si5 0.612258 0.769633 0.219860
Si Si6 0.726334 0.877046 0.411551
Si Si7 0.412890 0.522788 0.441044
Si Si8 0.706379 0.736442 0.606977
O O1 0.466685 0.273182 0.673561
O O2 0.419180 0.599584 0.600928
O O3 0.453859 0.096390 0.572445
O O4 0.346251 0.177002 0.608949
O O5 0.422752 0.550044 0.273912
O O6 0.423491 0.674547 0.379656
O O7 0.439394 0.056530 0.303028
O O8 0.227092 0.178962 0.241589
O O9 0.347401 0.124359 0.228715
O O10 0.266960 0.927835 0.148861
O O11 0.526971 0.820958 0.053579
O O12 0.418801 0.774198 0.994046
O O13 0.666420 0.785239 0.168121
O O14 0.738218 0.145100 0.445132
O O15 0.347036 0.356284 0.440179
O O16 0.764890 0.527845 0.604284
#
# Coordination Sequence:
#
# PCOD9459466 Si02
#       8
#     8   8   8   8   8   8   8   8
#     4  11  21  39  60  90 114 153 207 251 308 341
#     4  10  21  34  59  86 120 154 193 253 294 353
#     4  10  20  36  60  87 114 149 194 241 285 354
#     4  10  22  37  64  83 113 158 208 258 289 357
#     4  11  20  35  56  87 119 154 196 231 294 368
#     4  10  22  40  64  87 116 155 198 252 302 360
#     4   9  21  39  55  85 119 158 204 245 301 349
#     4  11  21  32  50  77 117 157 186 231 291 354
#
# _framework density 26.788253000000001
#
# number of rings (size 3 to 8) (size 9 to 14) (size 15 to 20)
#    0.000    1.750    0.000    6.000    0.000    8.500 
#    0.000    3.750    0.000   12.000    0.000    0.000 
#    0.000    0.000    0.000    0.000    0.000    0.000 
#
# Total GULP energy -358390.080573 kJ/mol
# GULP energy per Si atom -5599.845009 kJ/mol
# Density = 2.672728 g / cm^3
# Si number density = 26.788253 Si / 1000 Ang^3
#
#
#
# Elastic Constant Matrix: (Units=GPa)
#
#
# Indices 1 2 3 4 5 6 
#
# 1 137.1356 16.4638 2.8512 0.0000 0.0000 0.0000
# 2 16.4638 127.0725 -6.5732 0.0000 0.0000 0.0000
# 3 2.8512 -6.5732 37.7909 0.0000 0.0000 0.0000
# 4 0.0000 0.0000 0.0000 26.7622 0.0000 0.0000
# 5 0.0000 0.0000 0.0000 0.0000 33.4461 0.0000
# 6 0.0000 0.0000 0.0000 0.0000 0.0000 42.6725
#
#
#
# Elastic Compliance Matrix: (Units=1/GPa)
#
#
# Indices 1 2 3 4 5 6 
#
# 1 0.007427 -0.001000 -0.000734 0.000000 0.000000 0.000000
# 2 -0.001000 0.008076 0.001480 0.000000 0.000000 0.000000
# 3 -0.000734 0.001480 0.026774 0.000000 0.000000 0.000000
# 4 0.000000 0.000000 0.000000 0.037366 0.000000 0.000000
# 5 0.000000 0.000000 0.000000 0.000000 0.029899 0.000000
# 6 0.000000 0.000000 0.000000 0.000000 0.000000 0.023434
#
#
# Mechanical properties :
#
#
# Convention : Reuss Voigt Hill
#
# Bulk Modulus (GPa) = 23.94163 36.38695 30.16429
# Shear Modulus (GPa) = 33.91936 39.85998 36.88967
#
# Velocity S-wave (km/s) = 3.56223 3.86160 3.71493
# Velocity P-wave (km/s) = 5.08686 5.78751 5.44846
#
# Compressibility (1/GPa) = 0.04176826
#
# Stress axis : x y z
#
# Youngs Moduli (GPa) = 134.63647 123.82848 37.34935
#
# Poissons Ratio (x) = 0.12387 0.02743
# Poissons Ratio (y) = 0.13468 -0.05528
# Poissons Ratio (z) = 0.09887 -0.18328
#
# Static dielectric constant tensor:
#      x y z
#    x 2.101430 0.000000 0.000000 
#    y 0.000000 2.145760 0.000000 
#    z 0.000000 0.000000 2.224930 
# 
# From -- ./inp_files/11839.got.cif
#   From: 2010.05.17/outbox.cif.g08.bks.cpg/sg61_6_cif.got.tgz:11839.got - 2010.06.03 15:17:17.
