data_PCOD9459584
_publ_section_title
;
Structure prediction by ZEFSAII (Michael W. Deem and Ramdas Pophale) SiO2 
 PCOD9459584
Probable space group: P B C A
;
_chemical_formula_sum "Si O2"
_cell_formula_units_Z 48
_cell_length_a 15.636057
_cell_length_b 8.025767
_cell_length_c 18.267415
_cell_angle_alpha 90.000000
_cell_angle_beta 90.000000
_cell_angle_gamma 90.000000
_cell_volume 2292.402574
_symmetry_space_group_name_H-M "P B C A"
_symmetry_group_IT_number 61
_symmetry_cell_setting 'orthorhombic'
loop_
_space_group_symop_operation_xyz
x,y,z
1/2-x,-y,1/2+z
1/2+x,1/2-y,-z
-x,1/2+y,1/2-z
-x,-y,-z
1/2+x,y,1/2-z
1/2-x,1/2+y,z
x,1/2-y,1/2+z
loop_
_atom_site_type_symbol
_atom_site_label
_atom_site_fract_x
_atom_site_fract_y
_atom_site_fract_z
Si Si1 0.957124 0.770352 0.358215
Si Si2 0.152459 0.682108 0.905471
Si Si3 0.255669 0.593359 0.320925
Si Si4 0.583490 0.564746 0.455287
Si Si5 0.518767 0.929843 0.417432
Si Si6 0.611996 0.124289 0.711530
O O1 0.930781 0.580486 0.376570
O O2 0.954316 0.825763 0.274050
O O3 0.054419 0.775495 0.387754
O O4 0.903126 0.914313 0.399020
O O5 0.185764 0.560741 0.842536
O O6 0.214360 0.838064 0.896392
O O7 0.154895 0.595250 0.983757
O O8 0.171918 0.537447 0.275793
O O9 0.319125 0.727820 0.288653
O O10 0.500000 0.500000 0.500000
O O11 0.562732 0.748246 0.423419
O O12 0.435539 0.895931 0.366236
O O13 0.500000 0.000000 0.500000
#
# Coordination Sequence:
#
# PCOD9459584 Si02
#       6
#     8   8   8   8   8   8
#     4  11  24  40  66  99 125 170 227 280 331 379
#     4  10  20  39  62  94 121 172 212 268 324 396
#     4  10  22  39  64  84 136 170 218 257 341 409
#     4  10  20  38  63  93 127 156 211 277 327 388
#     4  12  22  39  69 101 126 162 226 285 332 392
#     4  11  24  42  64  96 127 179 222 273 334 403
#
# _framework density 20.938728999999999
#
# number of rings (size 3 to 8) (size 9 to 14) (size 15 to 20)
#    0.000    1.333    5.000    2.000    4.667    0.000 
#    3.000    1.667    0.000    0.000    0.000    0.000 
#    0.000    0.000    0.000    0.000    0.000    0.000 
#
# Total GULP energy -267310.612818 kJ/mol
# GULP energy per Si atom -5568.971100 kJ/mol
# Density = 2.089107 g / cm^3
# Si number density = 20.938729 Si / 1000 Ang^3
#
#
#
# Elastic Constant Matrix: (Units=GPa)
#
#
# Indices 1 2 3 4 5 6 
#
# 1 27.8700 14.8793 11.9945 0.0000 0.0000 0.0000
# 2 14.8793 127.0251 16.2797 0.0000 0.0000 0.0000
# 3 11.9945 16.2797 62.5288 0.0000 0.0000 0.0000
# 4 0.0000 0.0000 0.0000 26.8908 0.0000 0.0000
# 5 0.0000 0.0000 0.0000 0.0000 13.0786 0.0000
# 6 0.0000 0.0000 0.0000 0.0000 0.0000 17.2645
#
#
#
# Elastic Compliance Matrix: (Units=1/GPa)
#
#
# Indices 1 2 3 4 5 6 
#
# 1 0.040911 -0.003917 -0.006828 0.000000 0.000000 0.000000
# 2 -0.003917 0.008519 -0.001467 0.000000 0.000000 0.000000
# 3 -0.006828 -0.001467 0.017684 0.000000 0.000000 0.000000
# 4 0.000000 0.000000 0.000000 0.037187 0.000000 0.000000
# 5 0.000000 0.000000 0.000000 0.000000 0.076461 0.000000
# 6 0.000000 0.000000 0.000000 0.000000 0.000000 0.057922
#
#
# Mechanical properties :
#
#
# Convention : Reuss Voigt Hill
#
# Bulk Modulus (GPa) = 23.42411 33.74788 28.58599
# Shear Modulus (GPa) = 18.02855 23.06482 20.54669
#
# Velocity S-wave (km/s) = 2.93749 3.32254 3.13593
# Velocity P-wave (km/s) = 4.76617 5.55621 5.17629
#
# Compressibility (1/GPa) = 0.04269106
#
# Stress axis : x y z
#
# Youngs Moduli (GPa) = 24.44353 117.38106 56.54762
#
# Poissons Ratio (x) = 0.45979 0.38610
# Poissons Ratio (y) = 0.09575 0.08294
# Poissons Ratio (z) = 0.16690 0.17216
#
# Static dielectric constant tensor:
#      x y z
#    x 1.752050 0.000000 0.000000 
#    y 0.000000 1.913030 0.000000 
#    z 0.000000 0.000000 1.775730 
# 
# From -- ./inp_files/9439.got.cif
#   From: 2010.05.17/outbox.cif.g08.bks.cpg/sg61_5_cif.got.tgz:9439.got - 2010.06.03 15:17:17.
