data_PCOD9459348
_publ_section_title
;
Structure prediction by ZEFSAII (Michael W. Deem and Ramdas Pophale) SiO2 
 PCOD9459348
Probable space group: P B C A
;
_chemical_formula_sum "Si O2"
_cell_formula_units_Z 64
_cell_length_a 24.262889
_cell_length_b 10.287281
_cell_length_c 9.188432
_cell_angle_alpha 90.000000
_cell_angle_beta 90.000000
_cell_angle_gamma 90.000000
_cell_volume 2293.424881
_symmetry_space_group_name_H-M "P B C A"
_symmetry_group_IT_number 61
_symmetry_cell_setting 'orthorhombic'
loop_
_space_group_symop_operation_xyz
x,y,z
1/2-x,-y,1/2+z
1/2+x,1/2-y,-z
-x,1/2+y,1/2-z
-x,-y,-z
1/2+x,y,1/2-z
1/2-x,1/2+y,z
x,1/2-y,1/2+z
loop_
_atom_site_type_symbol
_atom_site_label
_atom_site_fract_x
_atom_site_fract_y
_atom_site_fract_z
Si Si1 0.998299 0.832613 0.836929
Si Si2 0.789250 0.994946 0.319011
Si Si3 0.930978 0.672645 0.045830
Si Si4 0.813671 0.740443 0.035595
Si Si5 0.590950 0.536864 0.291498
Si Si6 0.405946 0.318717 0.253976
Si Si7 0.697854 0.732722 0.542444
Si Si8 0.828527 0.005465 0.866935
O O1 0.035727 0.699519 0.829948
O O2 0.955671 0.798161 0.962211
O O3 0.969946 0.852426 0.681404
O O4 0.045317 0.945168 0.836081
O O5 0.798936 0.869437 0.418517
O O6 0.847748 0.001949 0.234479
O O7 0.757122 0.758535 0.123148
O O8 0.726204 0.998781 0.261249
O O9 0.924281 0.560232 0.922423
O O10 0.869909 0.697641 0.110275
O O11 0.706464 0.880243 0.924890
O O12 0.827035 0.871701 0.950549
O O13 0.593504 0.688240 0.346037
O O14 0.353150 0.297267 0.355590
O O15 0.389435 0.455171 0.186694
O O16 0.685904 0.869297 0.465433
#
# Coordination Sequence:
#
# PCOD9459348 Si02
#       8
#     8   8   8   8   8   8   8   8
#     4  10  25  42  73 100 136 191 244 300 352 432
#     4   9  18  40  64  88 132 176 227 283 359 443
#     4  11  23  48  65 105 143 192 245 301 364 432
#     4   9  22  41  63  94 137 181 228 299 363 424
#     4   9  21  41  69  97 134 193 240 293 359 439
#     4  10  23  38  68 103 124 185 235 300 351 434
#     4  10  19  41  65  94 133 176 233 287 368 439
#     4  10  20  40  63  96 135 172 228 301 359 433
#
# _framework density 27.905863
#
# number of rings (size 3 to 8) (size 9 to 14) (size 15 to 20)
#    0.750    1.500    1.250    0.375    3.500    2.000 
#   18.000    1.250    0.000    0.000    0.000    0.000 
#    0.000    0.000    0.000    0.000    0.000    0.000 
#
# Total GULP energy -357995.659044 kJ/mol
# GULP energy per Si atom -5593.682173 kJ/mol
# Density = 2.784235 g / cm^3
# Si number density = 27.905863 Si / 1000 Ang^3
#
#
#
# Elastic Constant Matrix: (Units=GPa)
#
#
# Indices 1 2 3 4 5 6 
#
# 1 171.7234 11.4489 33.4664 0.0000 0.0000 0.0000
# 2 11.4489 161.4564 36.4196 0.0000 0.0000 0.0000
# 3 33.4664 36.4196 70.8105 0.0000 0.0000 0.0000
# 4 0.0000 0.0000 0.0000 37.1073 0.0000 0.0000
# 5 0.0000 0.0000 0.0000 0.0000 23.6234 0.0000
# 6 0.0000 0.0000 0.0000 0.0000 0.0000 896.5659
#
#
#
# Elastic Compliance Matrix: (Units=1/GPa)
#
#
# Indices 1 2 3 4 5 6 
#
# 1 0.006424 0.000259 -0.003169 0.000000 0.000000 0.000000
# 2 0.000259 0.007017 -0.003732 0.000000 0.000000 0.000000
# 3 -0.003169 -0.003732 0.017539 0.000000 0.000000 0.000000
# 4 0.000000 0.000000 0.000000 0.026949 0.000000 0.000000
# 5 0.000000 0.000000 0.000000 0.000000 0.042331 0.000000
# 6 0.000000 0.000000 0.000000 0.000000 0.000000 0.001115
#
#
# Mechanical properties :
#
#
# Convention : Reuss Voigt Hill
#
# Bulk Modulus (GPa) = 56.50716 62.96223 59.73469
# Shear Modulus (GPa) = 41.47406 212.96969 127.22188
#
# Velocity S-wave (km/s) = 3.85933 8.74545 6.75934
# Velocity P-wave (km/s) = 6.33659 11.16192 9.07582
#
# Compressibility (1/GPa) = 0.01769687
#
# Stress axis : x y z
#
# Youngs Moduli (GPa) = 155.67381 142.51184 57.01465
#
# Poissons Ratio (x) = -0.03697 0.18070
# Poissons Ratio (y) = -0.04038 0.21276
# Poissons Ratio (z) = 0.49339 0.53180
#
# Static dielectric constant tensor:
#      x y z
#    x 2.256780 0.000000 0.000000 
#    y 0.000000 2.171400 0.000000 
#    z 0.000000 0.000000 2.159150 
# 
# From -- ./inp_files/6625.got.cif
#   From: 2010.05.17/outbox.cif.g08.bks.cpg/sg61_4_cif.got.tgz:6625.got - 2010.06.03 15:17:17.
