data_PCOD9459162
_publ_section_title
;
Structure prediction by ZEFSAII (Michael W. Deem and Ramdas Pophale) SiO2 
 PCOD9459162
Probable space group: P B C A
;
_chemical_formula_sum "Si O2"
_cell_formula_units_Z 56
_cell_length_a 20.817342
_cell_length_b 5.588094
_cell_length_c 24.891997
_cell_angle_alpha 90.000000
_cell_angle_beta 90.000000
_cell_angle_gamma 90.000000
_cell_volume 2895.667689
_symmetry_space_group_name_H-M "P B C A"
_symmetry_group_IT_number 61
_symmetry_cell_setting 'orthorhombic'
loop_
_space_group_symop_operation_xyz
x,y,z
1/2-x,-y,1/2+z
1/2+x,1/2-y,-z
-x,1/2+y,1/2-z
-x,-y,-z
1/2+x,y,1/2-z
1/2-x,1/2+y,z
x,1/2-y,1/2+z
loop_
_atom_site_type_symbol
_atom_site_label
_atom_site_fract_x
_atom_site_fract_y
_atom_site_fract_z
Si Si1 0.284713 0.571472 0.687885
Si Si2 0.589875 0.600779 0.465153
Si Si3 0.965489 0.515188 0.181083
Si Si4 0.030995 0.788620 0.427664
Si Si5 0.716114 0.385568 0.441586
Si Si6 0.912645 0.763126 0.780621
Si Si7 0.557091 0.902121 0.374210
O O1 0.249596 0.323625 0.703494
O O2 0.289246 0.594033 0.623166
O O3 0.356186 0.573259 0.712852
O O4 0.577595 0.729309 0.521654
O O5 0.523886 0.477248 0.445772
O O6 0.645544 0.407042 0.467176
O O7 0.605126 0.776088 0.415538
O O8 0.939100 0.386729 0.127714
O O9 0.914107 0.607715 0.223491
O O10 0.015662 0.340464 0.211024
O O11 0.011827 0.725652 0.159572
O O12 0.991409 0.554755 0.411223
O O13 0.752762 0.631934 0.457136
O O14 0.905135 0.938929 0.831466
#
# Coordination Sequence:
#
# PCOD9459162 Si02
#       7
#     8   8   8   8   8   8   8
#     4  10  23  37  56  83 118 154 194 239 290 350
#     4  10  20  35  56  81 114 147 187 236 292 351
#     4  10  20  34  54  84 110 147 186 241 298 351
#     4   9  20  35  54  84 112 144 187 232 297 351
#     4  10  22  37  56  83 115 153 193 237 288 344
#     4  11  21  34  56  82 116 148 195 240 299 361
#     4  10  19  32  54  84 110 145 178 237 293 356
#
# _framework density 19.339236
#
# number of rings (size 3 to 8) (size 9 to 14) (size 15 to 20)
#    0.000    2.000    1.429    3.000   10.000    0.000 
#    0.000    0.000    0.000    1.714    0.000    0.000 
#    0.000    0.000    0.000    0.000    0.000    0.000 
#
# Total GULP energy -312487.395504 kJ/mol
# GULP energy per Si atom -5580.132063 kJ/mol
# Density = 1.929522 g / cm^3
# Si number density = 19.339236 Si / 1000 Ang^3
#
#
#
# Elastic Constant Matrix: (Units=GPa)
#
#
# Indices 1 2 3 4 5 6 
#
# 1 34.3157 6.5927 30.6461 0.0000 0.0000 0.0000
# 2 6.5927 70.6340 24.2504 0.0000 0.0000 0.0000
# 3 30.6461 24.2504 65.3480 0.0000 0.0000 0.0000
# 4 0.0000 0.0000 0.0000 15.3460 0.0000 0.0000
# 5 0.0000 0.0000 0.0000 0.0000 13.5184 0.0000
# 6 0.0000 0.0000 0.0000 0.0000 0.0000 24.6023
#
#
#
# Elastic Compliance Matrix: (Units=1/GPa)
#
#
# Indices 1 2 3 4 5 6 
#
# 1 0.051091 0.003962 -0.025430 0.000000 0.000000 0.000000
# 2 0.003962 0.016532 -0.007993 0.000000 0.000000 0.000000
# 3 -0.025430 -0.007993 0.030195 0.000000 0.000000 0.000000
# 4 0.000000 0.000000 0.000000 0.065163 0.000000 0.000000
# 5 0.000000 0.000000 0.000000 0.000000 0.073973 0.000000
# 6 0.000000 0.000000 0.000000 0.000000 0.000000 0.040647
#
#
# Mechanical properties :
#
#
# Convention : Reuss Voigt Hill
#
# Bulk Modulus (GPa) = 25.71006 32.58625 29.14815
# Shear Modulus (GPa) = 14.30662 17.94724 16.12693
#
# Velocity S-wave (km/s) = 2.72283 3.04965 2.89086
# Velocity P-wave (km/s) = 4.81748 5.41174 5.12323
#
# Compressibility (1/GPa) = 0.03889529
#
# Stress axis : x y z
#
# Youngs Moduli (GPa) = 19.57294 60.48914 33.11818
#
# Poissons Ratio (x) = -0.23967 0.84221
# Poissons Ratio (y) = -0.07755 0.26472
# Poissons Ratio (z) = 0.49775 0.48349
#
# Static dielectric constant tensor:
#      x y z
#    x 1.653670 0.000000 0.000000 
#    y 0.000000 1.775540 0.000000 
#    z 0.000000 0.000000 1.675980 
# 
# From -- ./inp_files/1212.got.cif
#   From: 2010.05.17/outbox.cif.g08.bks.cpg/sg61_1_cif.got.tgz:1212.got - 2010.06.03 15:17:17.
