data_PCOD9459665
_publ_section_title
;
Structure prediction by ZEFSAII (Michael W. Deem and Ramdas Pophale) SiO2 
 PCOD9459665
Probable space group: P B C A
;
_chemical_formula_sum "Si O2"
_cell_formula_units_Z 56
_cell_length_a 15.125540
_cell_length_b 11.617694
_cell_length_c 15.207618
_cell_angle_alpha 90.000000
_cell_angle_beta 90.000000
_cell_angle_gamma 90.000000
_cell_volume 2672.341873
_symmetry_space_group_name_H-M "P B C A"
_symmetry_group_IT_number 61
_symmetry_cell_setting 'orthorhombic'
loop_
_space_group_symop_operation_xyz
x,y,z
1/2-x,-y,1/2+z
1/2+x,1/2-y,-z
-x,1/2+y,1/2-z
-x,-y,-z
1/2+x,y,1/2-z
1/2-x,1/2+y,z
x,1/2-y,1/2+z
loop_
_atom_site_type_symbol
_atom_site_label
_atom_site_fract_x
_atom_site_fract_y
_atom_site_fract_z
Si Si1 0.262831 0.711142 0.803819
Si Si2 0.454954 0.426637 0.122076
Si Si3 0.575802 0.770389 0.753223
Si Si4 0.358535 0.494808 0.807280
Si Si5 0.193052 0.935047 0.993445
Si Si6 0.787662 0.697631 0.491670
Si Si7 0.109442 0.165679 0.176388
O O1 0.157105 0.715398 0.800828
O O2 0.297323 0.590174 0.765397
O O3 0.310256 0.803273 0.741121
O O4 0.299257 0.710850 0.903448
O O5 0.433082 0.301615 0.159063
O O6 0.557058 0.448951 0.143476
O O7 0.408629 0.437516 0.027645
O O8 0.407257 0.529204 0.175974
O O9 0.480843 0.772984 0.706518
O O10 0.605386 0.902408 0.761100
O O11 0.307155 0.433346 0.887525
O O12 0.231964 0.814281 0.028853
O O13 0.237671 0.059605 0.018326
O O14 0.867998 0.702847 0.423058
#
# Coordination Sequence:
#
# PCOD9459665 Si02
#       7
#     8   8   8   8   8   8   8
#     4  11  22  41  66  91 129 173 216 266 335 390
#     4  10  21  38  64  92 125 171 212 273 324 392
#     4  11  22  39  62  94 127 163 219 265 325 391
#     4  10  21  39  64  91 125 169 216 269 322 401
#     4  10  20  40  63  94 124 171 227 263 329 390
#     4  10  22  41  65  93 131 170 221 276 326 391
#     4  10  23  42  60  95 131 166 219 273 324 394
#
# _framework density 20.955403
#
# number of rings (size 3 to 8) (size 9 to 14) (size 15 to 20)
#    0.000    1.714    2.857    1.286    2.000    1.143 
#    2.571    0.000    0.000    4.286    0.000    0.000 
#    0.000    0.000    0.000    0.000    0.000    0.000 
#
# Total GULP energy -311798.507892 kJ/mol
# GULP energy per Si atom -5567.830498 kJ/mol
# Density = 2.090771 g / cm^3
# Si number density = 20.955403 Si / 1000 Ang^3
#
#
#
# Elastic Constant Matrix: (Units=GPa)
#
#
# Indices 1 2 3 4 5 6 
#
# 1 70.5195 25.1262 7.1956 0.0000 0.0000 0.0000
# 2 25.1262 100.5174 -0.5376 0.0000 0.0000 0.0000
# 3 7.1956 -0.5376 44.8604 0.0000 0.0000 0.0000
# 4 0.0000 0.0000 0.0000 32.8385 0.0000 0.0000
# 5 0.0000 0.0000 0.0000 0.0000 19.8440 0.0000
# 6 0.0000 0.0000 0.0000 0.0000 0.0000 36.5838
#
#
#
# Elastic Compliance Matrix: (Units=1/GPa)
#
#
# Indices 1 2 3 4 5 6 
#
# 1 0.015863 -0.003979 -0.002592 0.000000 0.000000 0.000000
# 2 -0.003979 0.010947 0.000769 0.000000 0.000000 0.000000
# 3 -0.002592 0.000769 0.022716 0.000000 0.000000 0.000000
# 4 0.000000 0.000000 0.000000 0.030452 0.000000 0.000000
# 5 0.000000 0.000000 0.000000 0.000000 0.050393 0.000000
# 6 0.000000 0.000000 0.000000 0.000000 0.000000 0.027334
#
#
# Mechanical properties :
#
#
# Convention : Reuss Voigt Hill
#
# Bulk Modulus (GPa) = 26.36925 31.05176 28.71051
# Shear Modulus (GPa) = 27.48004 30.12747 28.80375
#
# Velocity S-wave (km/s) = 3.62520 3.79581 3.71148
# Velocity P-wave (km/s) = 5.48940 5.83619 5.66545
#
# Compressibility (1/GPa) = 0.03792296
#
# Stress axis : x y z
#
# Youngs Moduli (GPa) = 63.04104 91.34699 44.02117
#
# Poissons Ratio (x) = 0.36347 0.11411
# Poissons Ratio (y) = 0.25084 -0.03387
# Poissons Ratio (z) = 0.16341 -0.07028
#
# Static dielectric constant tensor:
#      x y z
#    x 1.771700 0.000000 0.000000 
#    y 0.000000 1.838050 0.000000 
#    z 0.000000 0.000000 1.736690 
# 
# From -- ./inp_files/5800.got.cif
#   From: 2010.05.17/outbox.cif.g08.bks.cpg/sg61_3_cif.got.tgz:5800.got - 2010.06.03 15:17:17.
