data_PCOD9459317
_publ_section_title
;
Structure prediction by ZEFSAII (Michael W. Deem and Ramdas Pophale) SiO2 
 PCOD9459317
Probable space group: P B C A
;
_chemical_formula_sum "Si O2"
_cell_formula_units_Z 56
_cell_length_a 14.377225
_cell_length_b 11.820120
_cell_length_c 12.361077
_cell_angle_alpha 90.000000
_cell_angle_beta 90.000000
_cell_angle_gamma 90.000000
_cell_volume 2100.647912
_symmetry_space_group_name_H-M "P B C A"
_symmetry_group_IT_number 61
_symmetry_cell_setting 'orthorhombic'
loop_
_space_group_symop_operation_xyz
x,y,z
1/2-x,-y,1/2+z
1/2+x,1/2-y,-z
-x,1/2+y,1/2-z
-x,-y,-z
1/2+x,y,1/2-z
1/2-x,1/2+y,z
x,1/2-y,1/2+z
loop_
_atom_site_type_symbol
_atom_site_label
_atom_site_fract_x
_atom_site_fract_y
_atom_site_fract_z
Si Si1 0.638562 0.827977 0.418994
Si Si2 0.116424 0.416581 0.954518
Si Si3 0.749417 0.105339 0.488349
Si Si4 0.247991 0.347864 0.273918
Si Si5 0.316276 0.120227 0.354612
Si Si6 0.960308 0.133474 0.301784
Si Si7 0.399867 0.722557 0.130284
O O1 0.709357 0.728164 0.456905
O O2 0.691635 0.897181 0.324980
O O3 0.630933 0.894783 0.530920
O O4 0.558499 0.750019 0.368961
O O5 0.205038 0.386805 0.877789
O O6 0.029181 0.440886 0.876641
O O7 0.163629 0.519710 0.020356
O O8 0.088998 0.313976 0.033771
O O9 0.721513 0.090764 0.615198
O O10 0.657279 0.116871 0.417969
O O11 0.319158 0.252754 0.318392
O O12 0.160303 0.289756 0.219389
O O13 0.368528 0.072033 0.248347
O O14 0.013529 0.173088 0.193878
#
# Coordination Sequence:
#
# PCOD9459317 Si02
#       7
#     8   8   8   8   8   8   8
#     4   9  19  40  64  88 127 168 209 261 323 372
#     4  12  23  40  69  94 126 173 218 260 321 377
#     4  10  22  38  67  91 128 165 213 266 314 380
#     4   9  16  37  64  86 120 167 209 252 319 369
#     4  10  19  39  63  89 125 169 205 261 321 370
#     4  11  23  37  65  94 128 166 213 264 315 383
#     4  11  20  41  63  94 124 167 221 257 315 384
#
# _framework density 26.658442000000001
#
# number of rings (size 3 to 8) (size 9 to 14) (size 15 to 20)
#    0.000    1.714    5.714    0.857    0.000    1.714 
#    0.000    0.714    9.429    0.000    0.000    0.000 
#    0.000    0.000    0.000    0.000    0.000    0.000 
#
# Total GULP energy -312442.959621 kJ/mol
# GULP energy per Si atom -5579.338565 kJ/mol
# Density = 2.659777 g / cm^3
# Si number density = 26.658442 Si / 1000 Ang^3
#
#
#
# Elastic Constant Matrix: (Units=GPa)
#
#
# Indices 1 2 3 4 5 6 
#
# 1 100.7016 0.3709 76.8846 0.0000 0.0000 0.0000
# 2 0.3709 51.7688 19.8651 0.0000 0.0000 0.0000
# 3 76.8846 19.8651 177.6135 0.0000 0.0000 0.0000
# 4 0.0000 0.0000 0.0000 43.4174 0.0000 0.0000
# 5 0.0000 0.0000 0.0000 0.0000 72.3304 0.0000
# 6 0.0000 0.0000 0.0000 0.0000 0.0000 9.3746
#
#
#
# Elastic Compliance Matrix: (Units=1/GPa)
#
#
# Indices 1 2 3 4 5 6 
#
# 1 0.015139 0.002514 -0.006835 0.000000 0.000000 0.000000
# 2 0.002514 0.020600 -0.003392 0.000000 0.000000 0.000000
# 3 -0.006835 -0.003392 0.008968 0.000000 0.000000 0.000000
# 4 0.000000 0.000000 0.000000 0.023032 0.000000 0.000000
# 5 0.000000 0.000000 0.000000 0.000000 0.013825 0.000000
# 6 0.000000 0.000000 0.000000 0.000000 0.000000 0.106671
#
#
# Mechanical properties :
#
#
# Convention : Reuss Voigt Hill
#
# Bulk Modulus (GPa) = 34.15049 58.25834 46.20442
# Shear Modulus (GPa) = 23.42767 40.55537 31.99152
#
# Velocity S-wave (km/s) = 2.96769 3.90461 3.46793
# Velocity P-wave (km/s) = 4.95793 6.49839 5.77971
#
# Compressibility (1/GPa) = 0.02928216
#
# Stress axis : x y z
#
# Youngs Moduli (GPa) = 66.05362 48.54280 111.50564
#
# Poissons Ratio (x) = -0.12204 0.76210
# Poissons Ratio (y) = -0.16607 0.37827
# Poissons Ratio (z) = 0.45145 0.16467
#
# Static dielectric constant tensor:
#      x y z
#    x 2.159670 0.000000 0.000000 
#    y 0.000000 2.312900 0.000000 
#    z 0.000000 0.000000 2.158410 
# 
# From -- ./inp_files/5801.got.cif
#   From: 2010.05.17/outbox.cif.g08.bks.cpg/sg61_3_cif.got.tgz:5801.got - 2010.06.03 15:17:17.
