data_PCOD9459157
_publ_section_title
;
Structure prediction by ZEFSAII (Michael W. Deem and Ramdas Pophale) SiO2 
 PCOD9459157
Probable space group: P B C A
;
_chemical_formula_sum "Si O2"
_cell_formula_units_Z 48
_cell_length_a 16.137418
_cell_length_b 17.926021
_cell_length_c 9.110655
_cell_angle_alpha 90.000000
_cell_angle_beta 90.000000
_cell_angle_gamma 90.000000
_cell_volume 2635.527490
_symmetry_space_group_name_H-M "P B C A"
_symmetry_group_IT_number 61
_symmetry_cell_setting 'orthorhombic'
loop_
_space_group_symop_operation_xyz
x,y,z
1/2-x,-y,1/2+z
1/2+x,1/2-y,-z
-x,1/2+y,1/2-z
-x,-y,-z
1/2+x,y,1/2-z
1/2-x,1/2+y,z
x,1/2-y,1/2+z
loop_
_atom_site_type_symbol
_atom_site_label
_atom_site_fract_x
_atom_site_fract_y
_atom_site_fract_z
Si Si1 0.660975 0.803327 0.556849
Si Si2 0.306294 0.810521 0.460934
Si Si3 0.106071 0.292567 0.153498
Si Si4 0.709091 0.935846 0.164650
Si Si5 0.919730 0.191208 0.758253
Si Si6 0.710909 0.421435 0.483050
O O1 0.728443 0.742348 0.501279
O O2 0.591562 0.812072 0.432485
O O3 0.622015 0.767640 0.700596
O O4 0.713860 0.878611 0.565609
O O5 0.378486 0.785381 0.570133
O O6 0.336687 0.790683 0.297567
O O7 0.273924 0.894285 0.444892
O O8 0.013101 0.308601 0.202416
O O9 0.140830 0.359606 0.051793
O O10 0.634797 0.877050 0.193403
O O11 0.753463 0.946104 0.323109
O O12 0.682347 0.011004 0.084540
#
# Coordination Sequence:
#
# PCOD9459157 Si02
#       6
#     8   8   8   8   8   8
#     4   9  18  33  51  73  98 130 169 202 239 292
#     4   9  18  33  51  73  98 130 169 202 239 292
#     4  10  19  32  52  77 103 127 159 209 255 289
#     4   9  19  33  50  71  98 133 169 202 239 292
#     4  10  19  32  52  77 103 127 159 209 255 289
#     4   9  19  33  50  71  98 133 169 202 239 292
#
# _framework density 18.212672999999999
#
# number of rings (size 3 to 8) (size 9 to 14) (size 15 to 20)
#    0.000    2.667    0.000    4.000    0.000    6.000 
#    0.000    0.000    0.000   29.000    0.000    0.000 
#    0.000    0.000    0.000    0.000    0.000    0.000 
#
# Total GULP energy -267413.706649 kJ/mol
# GULP energy per Si atom -5571.118889 kJ/mol
# Density = 1.817122 g / cm^3
# Si number density = 18.212673 Si / 1000 Ang^3
#
#
#
# Elastic Constant Matrix: (Units=GPa)
#
#
# Indices 1 2 3 4 5 6 
#
# 1 50.6501 8.3336 9.9451 0.0000 0.0000 0.0000
# 2 8.3336 49.1033 22.0222 0.0000 0.0000 0.0000
# 3 9.9451 22.0222 25.6717 0.0000 0.0000 0.0000
# 4 0.0000 0.0000 0.0000 22.2676 0.0000 0.0000
# 5 0.0000 0.0000 0.0000 0.0000 19.5610 0.0000
# 6 0.0000 0.0000 0.0000 0.0000 0.0000 13.7528
#
#
#
# Elastic Compliance Matrix: (Units=1/GPa)
#
#
# Indices 1 2 3 4 5 6 
#
# 1 0.021369 0.000140 -0.008398 0.000000 0.000000 0.000000
# 2 0.000140 0.033100 -0.028449 0.000000 0.000000 0.000000
# 3 -0.008398 -0.028449 0.066612 0.000000 0.000000 0.000000
# 4 0.000000 0.000000 0.000000 0.044908 0.000000 0.000000
# 5 0.000000 0.000000 0.000000 0.000000 0.051122 0.000000
# 6 0.000000 0.000000 0.000000 0.000000 0.000000 0.072712
#
#
# Mechanical properties :
#
#
# Convention : Reuss Voigt Hill
#
# Bulk Modulus (GPa) = 20.97919 22.89186 21.93552
# Shear Modulus (GPa) = 13.18815 16.79122 14.98969
#
# Velocity S-wave (km/s) = 2.69387 3.03966 2.87197
# Velocity P-wave (km/s) = 4.60651 4.99158 4.80290
#
# Compressibility (1/GPa) = 0.04766629
#
# Stress axis : x y z
#
# Youngs Moduli (GPa) = 46.79607 30.21104 15.01242
#
# Poissons Ratio (x) = -0.00423 0.12608
# Poissons Ratio (y) = -0.00654 0.42709
# Poissons Ratio (z) = 0.39301 0.85947
#
# Static dielectric constant tensor:
#      x y z
#    x 1.635810 0.000000 0.000000 
#    y 0.000000 1.623100 0.000000 
#    z 0.000000 0.000000 1.632970 
# 
# From -- ./inp_files/2858.got.cif
#   From: 2010.05.17/outbox.cif.g08.bks.cpg/sg61_2_cif.got.tgz:2858.got - 2010.06.03 15:17:17.
