data_PCOD9459227
_publ_section_title
;
Structure prediction by ZEFSAII (Michael W. Deem and Ramdas Pophale) SiO2 
 PCOD9459227
Probable space group: P B C A
;
_chemical_formula_sum "Si O2"
_cell_formula_units_Z 64
_cell_length_a 12.505035
_cell_length_b 10.088797
_cell_length_c 20.857792
_cell_angle_alpha 90.000000
_cell_angle_beta 90.000000
_cell_angle_gamma 90.000000
_cell_volume 2631.434882
_symmetry_space_group_name_H-M "P B C A"
_symmetry_group_IT_number 61
_symmetry_cell_setting 'orthorhombic'
loop_
_space_group_symop_operation_xyz
x,y,z
1/2-x,-y,1/2+z
1/2+x,1/2-y,-z
-x,1/2+y,1/2-z
-x,-y,-z
1/2+x,y,1/2-z
1/2-x,1/2+y,z
x,1/2-y,1/2+z
loop_
_atom_site_type_symbol
_atom_site_label
_atom_site_fract_x
_atom_site_fract_y
_atom_site_fract_z
Si Si1 0.224335 0.606581 0.393880
Si Si2 0.918025 0.685384 0.305880
Si Si3 0.243783 0.974744 0.755551
Si Si4 0.437452 0.472588 0.421047
Si Si5 0.462494 0.185974 0.485553
Si Si6 0.611196 0.502387 0.916798
Si Si7 0.635021 0.683755 0.695200
Si Si8 0.150979 0.459724 0.128888
O O1 0.205192 0.520691 0.328985
O O2 0.335257 0.568118 0.429247
O O3 0.128570 0.607809 0.444279
O O4 0.211510 0.747504 0.357688
O O5 0.831311 0.641062 0.253758
O O6 0.930561 0.555587 0.349879
O O7 0.874709 0.806586 0.350680
O O8 0.035752 0.726827 0.283720
O O9 0.303650 0.114956 0.747737
O O10 0.162500 0.966327 0.697243
O O11 0.446750 0.337542 0.463210
O O12 0.419676 0.430128 0.346915
O O13 0.558981 0.519959 0.416130
O O14 0.439804 0.138234 0.557346
O O15 0.573709 0.117375 0.464325
O O16 0.736799 0.523847 0.907193
#
# Coordination Sequence:
#
# PCOD9459227 Si02
#       8
#     8   8   8   8   8   8   8   8
#     4  10  19  35  59  84 118 160 201 252 307 372
#     4  10  19  38  58  85 124 157 201 261 318 371
#     4  10  21  33  59  84 120 163 197 254 312 375
#     4   9  19  37  57  79 122 153 192 258 311 353
#     4  10  20  40  61  84 116 160 212 263 314 366
#     4  10  20  37  65  83 112 163 207 261 313 376
#     4   9  18  35  55  84 115 157 203 244 307 369
#     4  10  20  37  57  87 117 158 204 247 315 384
#
# _framework density 24.32133
#
# number of rings (size 3 to 8) (size 9 to 14) (size 15 to 20)
#    0.000    2.250    3.750    0.750    0.000    4.000 
#    0.000    0.625   16.500    0.000    0.000    0.000 
#    0.000    0.000    0.000    0.000    0.000    0.000 
#
# Total GULP energy -356514.493354 kJ/mol
# GULP energy per Si atom -5570.538959 kJ/mol
# Density = 2.426597 g / cm^3
# Si number density = 24.321330 Si / 1000 Ang^3
#
#
#
# Elastic Constant Matrix: (Units=GPa)
#
#
# Indices 1 2 3 4 5 6 
#
# 1 116.1159 60.5417 26.3548 0.0000 0.0000 0.0000
# 2 60.5417 69.3134 27.8780 0.0000 0.0000 0.0000
# 3 26.3548 27.8780 67.6633 0.0000 0.0000 0.0000
# 4 0.0000 0.0000 0.0000 37.4233 0.0000 0.0000
# 5 0.0000 0.0000 0.0000 0.0000 12.1987 0.0000
# 6 0.0000 0.0000 0.0000 0.0000 0.0000 37.4176
#
#
#
# Elastic Compliance Matrix: (Units=1/GPa)
#
#
# Indices 1 2 3 4 5 6 
#
# 1 0.015832 -0.013602 -0.000562 0.000000 0.000000 0.000000
# 2 -0.013602 0.028979 -0.006642 0.000000 0.000000 0.000000
# 3 -0.000562 -0.006642 0.017735 0.000000 0.000000 0.000000
# 4 0.000000 0.000000 0.000000 0.026721 0.000000 0.000000
# 5 0.000000 0.000000 0.000000 0.000000 0.081976 0.000000
# 6 0.000000 0.000000 0.000000 0.000000 0.000000 0.026725
#
#
# Mechanical properties :
#
#
# Convention : Reuss Voigt Hill
#
# Bulk Modulus (GPa) = 47.77063 53.62682 50.69872
# Shear Modulus (GPa) = 20.27924 26.62914 23.45419
#
# Velocity S-wave (km/s) = 2.89070 3.31250 3.10876
# Velocity P-wave (km/s) = 5.55208 6.06031 5.81175
#
# Compressibility (1/GPa) = 0.02093337
#
# Stress axis : x y z
#
# Youngs Moduli (GPa) = 63.16469 34.50757 56.38714
#
# Poissons Ratio (x) = 0.46937 0.03170
# Poissons Ratio (y) = 0.85916 0.37451
# Poissons Ratio (z) = 0.03551 0.22919
#
# Static dielectric constant tensor:
#      x y z
#    x 2.037690 0.000000 0.000000 
#    y 0.000000 2.065890 0.000000 
#    z 0.000000 0.000000 1.937110 
# 
# From -- ./inp_files/11016.got.cif
#   From: 2010.05.17/outbox.cif.g08.bks.cpg/sg61_6_cif.got.tgz:11016.got - 2010.06.03 15:17:17.
