data_PCOD9459483
_publ_section_title
;
Structure prediction by ZEFSAII (Michael W. Deem and Ramdas Pophale) SiO2 
 PCOD9459483
Probable space group: P B C A
;
_chemical_formula_sum "Si O2"
_cell_formula_units_Z 64
_cell_length_a 19.210084
_cell_length_b 18.994446
_cell_length_c 8.303768
_cell_angle_alpha 90.000000
_cell_angle_beta 90.000000
_cell_angle_gamma 90.000000
_cell_volume 3029.919583
_symmetry_space_group_name_H-M "P B C A"
_symmetry_group_IT_number 61
_symmetry_cell_setting 'orthorhombic'
loop_
_space_group_symop_operation_xyz
x,y,z
1/2-x,-y,1/2+z
1/2+x,1/2-y,-z
-x,1/2+y,1/2-z
-x,-y,-z
1/2+x,y,1/2-z
1/2-x,1/2+y,z
x,1/2-y,1/2+z
loop_
_atom_site_type_symbol
_atom_site_label
_atom_site_fract_x
_atom_site_fract_y
_atom_site_fract_z
Si Si1 0.826309 0.151893 0.019096
Si Si2 0.262072 0.219996 0.161949
Si Si3 0.226539 0.045255 0.626826
Si Si4 0.955759 0.195225 0.176597
Si Si5 0.560339 0.851563 0.045796
Si Si6 0.706395 0.592576 0.547601
Si Si7 0.908499 0.860350 0.401033
Si Si8 0.604275 0.228547 0.226269
O O1 0.799087 0.184745 0.186115
O O2 0.909582 0.153142 0.045562
O O3 0.797105 0.205780 0.883578
O O4 0.787526 0.079205 0.983308
O O5 0.180952 0.221258 0.202688
O O6 0.271108 0.169507 0.008888
O O7 0.249932 0.063485 0.805467
O O8 0.153877 0.084884 0.592619
O O9 0.216896 0.963246 0.594698
O O10 0.935422 0.170471 0.356854
O O11 0.938919 0.277429 0.141679
O O12 0.039945 0.192485 0.177460
O O13 0.625311 0.899430 0.090083
O O14 0.486385 0.888321 0.076160
O O15 0.897738 0.805513 0.549656
O O16 0.908288 0.812309 0.240665
#
# Coordination Sequence:
#
# PCOD9459483 Si02
#       8
#     8   8   8   8   8   8   8   8
#     4  12  21  37  64  94 126 163 207 260 314 374
#     4  12  21  37  64  94 126 163 207 260 314 374
#     4  12  27  43  63  89 124 170 216 265 320 378
#     4  10  20  36  62  96 128 160 203 255 310 372
#     4  10  22  40  65  95 128 163 205 259 319 377
#     4  12  27  43  63  89 124 170 216 265 320 378
#     4  10  22  40  65  95 128 163 205 259 319 377
#     4  10  20  36  62  96 128 160 203 255 310 372
#
# _framework density 21.122674
#
# number of rings (size 3 to 8) (size 9 to 14) (size 15 to 20)
#    0.000    1.000    5.000    1.500    3.500    0.500 
#    0.000    0.000    0.000    1.500    0.000    0.000 
#    0.000    0.000    0.000    0.000    0.000    0.000 
#
# Total GULP energy -357697.951756 kJ/mol
# GULP energy per Si atom -5589.030496 kJ/mol
# Density = 2.107460 g / cm^3
# Si number density = 21.122674 Si / 1000 Ang^3
#
#
#
# Elastic Constant Matrix: (Units=GPa)
#
#
# Indices 1 2 3 4 5 6 
#
# 1 88.2250 -3.2287 -0.8423 0.0000 0.0000 0.0000
# 2 -3.2287 33.0033 2.6604 0.0000 0.0000 0.0000
# 3 -0.8423 2.6604 49.6217 0.0000 0.0000 0.0000
# 4 0.0000 0.0000 0.0000 27.8277 0.0000 0.0000
# 5 0.0000 0.0000 0.0000 0.0000 26.4438 0.0000
# 6 0.0000 0.0000 0.0000 0.0000 0.0000 9.4972
#
#
#
# Elastic Compliance Matrix: (Units=1/GPa)
#
#
# Indices 1 2 3 4 5 6 
#
# 1 0.011376 0.001102 0.000134 0.000000 0.000000 0.000000
# 2 0.001102 0.030538 -0.001619 0.000000 0.000000 0.000000
# 3 0.000134 -0.001619 0.020242 0.000000 0.000000 0.000000
# 4 0.000000 0.000000 0.000000 0.035935 0.000000 0.000000
# 5 0.000000 0.000000 0.000000 0.000000 0.037816 0.000000
# 6 0.000000 0.000000 0.000000 0.000000 0.000000 0.105294
#
#
# Mechanical properties :
#
#
# Convention : Reuss Voigt Hill
#
# Bulk Modulus (GPa) = 16.28897 18.66987 17.47942
# Shear Modulus (GPa) = 19.05266 24.23779 21.64523
#
# Velocity S-wave (km/s) = 3.00659 3.39112 3.20463
# Velocity P-wave (km/s) = 4.44760 4.91842 4.68892
#
# Compressibility (1/GPa) = 0.06139125
#
# Stress axis : x y z
#
# Youngs Moduli (GPa) = 87.90234 32.74577 49.40335
#
# Poissons Ratio (x) = -0.03609 -0.00662
# Poissons Ratio (y) = -0.09688 0.07996
# Poissons Ratio (z) = -0.01178 0.05300
#
# Static dielectric constant tensor:
#      x y z
#    x 1.824000 0.000000 0.000000 
#    y 0.000000 1.717330 0.000000 
#    z 0.000000 0.000000 1.806380 
# 
# From -- ./inp_files/4123.got.cif
#   From: 2010.05.17/outbox.cif.g08.bks.cpg/sg61_3_cif.got.tgz:4123.got - 2010.06.03 15:17:17.
