data_PCOD9459757
_publ_section_title
;
Structure prediction by ZEFSAII (Michael W. Deem and Ramdas Pophale) SiO2 
 PCOD9459757
Probable space group: P B C A
;
_chemical_formula_sum "Si O2"
_cell_formula_units_Z 40
_cell_length_a 11.947492
_cell_length_b 7.850417
_cell_length_c 18.179266
_cell_angle_alpha 90.000000
_cell_angle_beta 90.000000
_cell_angle_gamma 90.000000
_cell_volume 1705.084157
_symmetry_space_group_name_H-M "P B C A"
_symmetry_group_IT_number 61
_symmetry_cell_setting 'orthorhombic'
loop_
_space_group_symop_operation_xyz
x,y,z
1/2-x,-y,1/2+z
1/2+x,1/2-y,-z
-x,1/2+y,1/2-z
-x,-y,-z
1/2+x,y,1/2-z
1/2-x,1/2+y,z
x,1/2-y,1/2+z
loop_
_atom_site_type_symbol
_atom_site_label
_atom_site_fract_x
_atom_site_fract_y
_atom_site_fract_z
Si Si1 0.914145 0.730903 0.639212
Si Si2 0.622774 0.559109 0.031458
Si Si3 0.846592 0.093655 0.874650
Si Si4 0.379861 0.726085 0.688010
Si Si5 0.054731 0.930959 0.424479
O O1 0.857171 0.577940 0.594595
O O2 0.901508 0.711770 0.725872
O O3 0.047646 0.719125 0.622432
O O4 0.874877 0.912556 0.608558
O O5 0.614866 0.752006 0.059042
O O6 0.500000 0.500000 0.000000
O O7 0.695852 0.553307 0.957399
O O8 0.746155 0.170071 0.828822
O O9 0.890911 0.920882 0.838156
O O10 0.463034 0.616583 0.637638
O O11 0.000000 0.000000 0.500000
#
# Coordination Sequence:
#
# PCOD9459757 Si02
#       5
#     8   8   8   8   8
#     4  11  23  45  71 100 141 178 230 291 348 405
#     4  10  20  43  69  97 130 175 233 278 333 415
#     4  11  23  44  68  98 137 184 230 279 340 414
#     4  12  25  42  69 103 142 181 231 286 352 407
#     4  12  21  40  75  97 131 187 228 273 351 413
#
# _framework density 23.459251999999999
#
# number of rings (size 3 to 8) (size 9 to 14) (size 15 to 20)
#    0.000    0.800    8.000    2.400    0.000    0.000 
#    3.600    6.000    0.000    0.000    0.000    0.000 
#    0.000    0.000    0.000    0.000    0.000    0.000 
#
# Total GULP energy -224064.502598 kJ/mol
# GULP energy per Si atom -5601.612565 kJ/mol
# Density = 2.340586 g / cm^3
# Si number density = 23.459252 Si / 1000 Ang^3
#
#
#
# Elastic Constant Matrix: (Units=GPa)
#
#
# Indices 1 2 3 4 5 6 
#
# 1 51.8761 32.9710 31.7022 0.0000 0.0000 0.0000
# 2 32.9710 184.5021 65.7672 0.0000 0.0000 0.0000
# 3 31.7022 65.7672 208.8761 0.0000 0.0000 0.0000
# 4 0.0000 0.0000 0.0000 31.2171 0.0000 0.0000
# 5 0.0000 0.0000 0.0000 0.0000 9.3327 0.0000
# 6 0.0000 0.0000 0.0000 0.0000 0.0000 22.3567
#
#
#
# Elastic Compliance Matrix: (Units=1/GPa)
#
#
# Indices 1 2 3 4 5 6 
#
# 1 0.022811 -0.003202 -0.002454 0.000000 0.000000 0.000000
# 2 -0.003202 0.006555 -0.001578 0.000000 0.000000 0.000000
# 3 -0.002454 -0.001578 0.005657 0.000000 0.000000 0.000000
# 4 0.000000 0.000000 0.000000 0.032034 0.000000 0.000000
# 5 0.000000 0.000000 0.000000 0.000000 0.107150 0.000000
# 6 0.000000 0.000000 0.000000 0.000000 0.000000 0.044729
#
#
# Mechanical properties :
#
#
# Convention : Reuss Voigt Hill
#
# Bulk Modulus (GPa) = 48.64888 78.45946 63.55417
# Shear Modulus (GPa) = 20.81120 33.56888 27.19004
#
# Velocity S-wave (km/s) = 2.98169 3.78689 3.40815
# Velocity P-wave (km/s) = 5.71284 7.25522 6.52973
#
# Compressibility (1/GPa) = 0.02055546
#
# Stress axis : x y z
#
# Youngs Moduli (GPa) = 43.83786 152.56511 176.77808
#
# Poissons Ratio (x) = 0.48846 0.43383
# Poissons Ratio (y) = 0.14035 0.27893
# Poissons Ratio (z) = 0.10758 0.24073
#
# Static dielectric constant tensor:
#      x y z
#    x 2.009040 0.000000 0.000000 
#    y 0.000000 1.899120 0.000000 
#    z 0.000000 0.000000 1.868860 
# 
# From -- ./inp_files/9401.got.cif
#   From: 2010.05.17/outbox.cif.g08.bks.cpg/sg61_5_cif.got.tgz:9401.got - 2010.06.03 15:17:17.
