data_PCOD9459858
_publ_section_title
;
Structure prediction by ZEFSAII (Michael W. Deem and Ramdas Pophale) SiO2 
 PCOD9459858
Probable space group: P B C A
;
_chemical_formula_sum "Si O2"
_cell_formula_units_Z 64
_cell_length_a 10.376341
_cell_length_b 28.965449
_cell_length_c 9.101665
_cell_angle_alpha 90.000000
_cell_angle_beta 90.000000
_cell_angle_gamma 90.000000
_cell_volume 2735.554347
_symmetry_space_group_name_H-M "P B C A"
_symmetry_group_IT_number 61
_symmetry_cell_setting 'orthorhombic'
loop_
_space_group_symop_operation_xyz
x,y,z
1/2-x,-y,1/2+z
1/2+x,1/2-y,-z
-x,1/2+y,1/2-z
-x,-y,-z
1/2+x,y,1/2-z
1/2-x,1/2+y,z
x,1/2-y,1/2+z
loop_
_atom_site_type_symbol
_atom_site_label
_atom_site_fract_x
_atom_site_fract_y
_atom_site_fract_z
Si Si1 0.888357 0.728294 0.120910
Si Si2 0.173046 0.517312 0.489781
Si Si3 0.000166 0.997782 0.250398
Si Si4 0.818824 0.847526 0.403827
Si Si5 0.342985 0.316433 0.687542
Si Si6 0.075167 0.880580 0.938376
Si Si7 0.049216 0.062223 0.495673
Si Si8 0.166427 0.334616 0.432702
O O1 0.774448 0.710243 0.229758
O O2 0.881514 0.782284 0.090576
O O3 0.027942 0.713959 0.181732
O O4 0.864274 0.701312 0.967366
O O5 0.118948 0.496291 0.639475
O O6 0.098172 0.565810 0.465396
O O7 0.320247 0.531177 0.496179
O O8 0.124228 0.488220 0.351081
O O9 0.981873 0.043438 0.349739
O O10 0.023460 0.954880 0.359112
O O11 0.670549 0.854843 0.447891
O O12 0.903460 0.885808 0.490383
O O13 0.828197 0.854527 0.230769
O O14 0.376089 0.361623 0.782544
O O15 0.297564 0.330217 0.524847
O O16 0.931586 0.864188 0.969566
#
# Coordination Sequence:
#
# PCOD9459858 Si02
#       8
#     8   8   8   8   8   8   8   8
#     4  11  26  43  69  96 134 175 233 279 344 396
#     4  10  21  39  64  93 127 166 214 263 320 394
#     4  10  21  37  66  92 126 167 210 256 331 392
#     4  10  25  42  64  96 133 172 219 284 336 402
#     4  11  25  45  66  95 130 182 223 285 340 401
#     4  10  24  43  62  95 134 169 224 279 331 404
#     4  10  21  41  61  94 132 162 210 266 326 391
#     4  12  25  42  68  93 132 176 231 277 339 398
#
# _framework density 23.395623000000001
#
# number of rings (size 3 to 8) (size 9 to 14) (size 15 to 20)
#    0.000    1.500    1.250    2.250    8.750    1.000 
#    0.000    1.250    0.000    0.000    0.000    0.000 
#    0.000    0.000    0.000    0.000    0.000    0.000 
#
# Total GULP energy -358169.356557 kJ/mol
# GULP energy per Si atom -5596.396196 kJ/mol
# Density = 2.334237 g / cm^3
# Si number density = 23.395623 Si / 1000 Ang^3
#
#
#
# Elastic Constant Matrix: (Units=GPa)
#
#
# Indices 1 2 3 4 5 6 
#
# 1 94.4698 -0.7284 16.2352 0.0000 0.0000 0.0000
# 2 -0.7284 50.7703 1.3448 0.0000 0.0000 0.0000
# 3 16.2352 1.3448 114.1961 0.0000 0.0000 0.0000
# 4 0.0000 0.0000 0.0000 13.6544 0.0000 0.0000
# 5 0.0000 0.0000 0.0000 0.0000 27.3765 0.0000
# 6 0.0000 0.0000 0.0000 0.0000 0.0000 21.7588
#
#
#
# Elastic Compliance Matrix: (Units=1/GPa)
#
#
# Indices 1 2 3 4 5 6 
#
# 1 0.010852 0.000197 -0.001545 0.000000 0.000000 0.000000
# 2 0.000197 0.019706 -0.000260 0.000000 0.000000 0.000000
# 3 -0.001545 -0.000260 0.008980 0.000000 0.000000 0.000000
# 4 0.000000 0.000000 0.000000 0.073236 0.000000 0.000000
# 5 0.000000 0.000000 0.000000 0.000000 0.036528 0.000000
# 6 0.000000 0.000000 0.000000 0.000000 0.000000 0.045958
#
#
# Mechanical properties :
#
#
# Convention : Reuss Voigt Hill
#
# Bulk Modulus (GPa) = 27.53218 32.57104 30.05161
# Shear Modulus (GPa) = 23.74338 28.73024 26.23681
#
# Velocity S-wave (km/s) = 3.18915 3.50811 3.35243
# Velocity P-wave (km/s) = 5.03533 5.51010 5.27805
#
# Compressibility (1/GPa) = 0.03632114
#
# Stress axis : x y z
#
# Youngs Moduli (GPa) = 92.14494 50.74532 111.36337
#
# Poissons Ratio (x) = -0.00998 0.17208
# Poissons Ratio (y) = -0.01812 0.02896
# Poissons Ratio (z) = 0.14238 0.01319
#
# Static dielectric constant tensor:
#      x y z
#    x 1.874920 0.000000 0.000000 
#    y 0.000000 1.844720 0.000000 
#    z 0.000000 0.000000 1.915780 
# 
# From -- ./inp_files/2450.got.cif
#   From: 2010.05.17/outbox.cif.g08.bks.cpg/sg61_2_cif.got.tgz:2450.got - 2010.06.03 15:17:17.
