data_PCOD9459312
_publ_section_title
;
Structure prediction by ZEFSAII (Michael W. Deem and Ramdas Pophale) SiO2 
 PCOD9459312
Probable space group: P B C A
;
_chemical_formula_sum "Si O2"
_cell_formula_units_Z 64
_cell_length_a 18.604773
_cell_length_b 11.513650
_cell_length_c 14.081540
_cell_angle_alpha 90.000000
_cell_angle_beta 90.000000
_cell_angle_gamma 90.000000
_cell_volume 3016.390414
_symmetry_space_group_name_H-M "P B C A"
_symmetry_group_IT_number 61
_symmetry_cell_setting 'orthorhombic'
loop_
_space_group_symop_operation_xyz
x,y,z
1/2-x,-y,1/2+z
1/2+x,1/2-y,-z
-x,1/2+y,1/2-z
-x,-y,-z
1/2+x,y,1/2-z
1/2-x,1/2+y,z
x,1/2-y,1/2+z
loop_
_atom_site_type_symbol
_atom_site_label
_atom_site_fract_x
_atom_site_fract_y
_atom_site_fract_z
Si Si1 0.613577 0.551957 0.764114
Si Si2 0.549359 0.610066 0.967328
Si Si3 0.829346 0.693691 0.337586
Si Si4 0.425553 0.008146 0.943185
Si Si5 0.289638 0.437477 0.553801
Si Si6 0.837738 0.510227 0.585987
Si Si7 0.777155 0.911223 0.265132
Si Si8 0.585481 0.247034 0.522945
O O1 0.573735 0.601104 0.857464
O O2 0.635277 0.421628 0.796064
O O3 0.570996 0.554552 0.664900
O O4 0.692687 0.605099 0.747408
O O5 0.499620 0.721503 0.980361
O O6 0.500000 0.500000 0.000000
O O7 0.617490 0.591878 0.036140
O O8 0.753388 0.663581 0.389854
O O9 0.814590 0.787551 0.258150
O O10 0.882620 0.741468 0.417399
O O11 0.398866 0.873454 0.935426
O O12 0.500000 0.000000 0.000000
O O13 0.366982 0.077497 0.006420
O O14 0.235570 0.473106 0.470846
O O15 0.289940 0.541295 0.629653
O O16 0.814870 0.498667 0.694329
O O17 0.880271 0.632804 0.572869
#
# Coordination Sequence:
#
# PCOD9459312 Si02
#       8
#     8   8   8   8   8   8   8   8
#     4  11  22  41  63  92 127 164 212 268 313 381
#     4  10  19  39  65  95 122 163 219 262 311 385
#     4  10  20  39  67  94 120 165 215 261 315 392
#     4  12  26  43  58  90 139 171 203 270 332 381
#     4  10  21  40  60  92 127 162 213 259 321 377
#     4  10  19  38  67  95 118 166 212 267 314 377
#     4  11  20  36  69  95 123 162 211 264 320 374
#     4  10  21  41  65  90 125 169 211 261 318 389
#
# _framework density 21.217413000000001
#
# number of rings (size 3 to 8) (size 9 to 14) (size 15 to 20)
#    0.000    1.500    7.500    0.750    0.000    3.000 
#    2.250    2.500    0.000    0.000    0.000    0.000 
#    0.000    0.000    0.000    0.000    0.000    0.000 
#
# Total GULP energy -357093.792789 kJ/mol
# GULP energy per Si atom -5579.590512 kJ/mol
# Density = 2.116912 g / cm^3
# Si number density = 21.217413 Si / 1000 Ang^3
#
#
#
# Elastic Constant Matrix: (Units=GPa)
#
#
# Indices 1 2 3 4 5 6 
#
# 1 122.8775 4.3872 64.7587 0.0000 0.0000 0.0000
# 2 4.3872 25.8963 27.1151 0.0000 0.0000 0.0000
# 3 64.7587 27.1151 90.0368 0.0000 0.0000 0.0000
# 4 0.0000 0.0000 0.0000 13.1854 0.0000 0.0000
# 5 0.0000 0.0000 0.0000 0.0000 17.8707 0.0000
# 6 0.0000 0.0000 0.0000 0.0000 0.0000 4.7653
#
#
#
# Elastic Compliance Matrix: (Units=1/GPa)
#
#
# Indices 1 2 3 4 5 6 
#
# 1 0.015769 0.013443 -0.015391 0.000000 0.000000 0.000000
# 2 0.013443 0.067861 -0.030106 0.000000 0.000000 0.000000
# 3 -0.015391 -0.030106 0.031243 0.000000 0.000000 0.000000
# 4 0.000000 0.000000 0.000000 0.075842 0.000000 0.000000
# 5 0.000000 0.000000 0.000000 0.000000 0.055957 0.000000
# 6 0.000000 0.000000 0.000000 0.000000 0.000000 0.209852
#
#
# Mechanical properties :
#
#
# Convention : Reuss Voigt Hill
#
# Bulk Modulus (GPa) = 19.69788 47.92585 33.81186
# Shear Modulus (GPa) = 9.30142 16.66757 12.98450
#
# Velocity S-wave (km/s) = 2.09604 2.80583 2.47649
# Velocity P-wave (km/s) = 3.89382 5.75621 4.91405
#
# Compressibility (1/GPa) = 0.05076688
#
# Stress axis : x y z
#
# Youngs Moduli (GPa) = 63.41425 14.73604 32.00739
#
# Poissons Ratio (x) = -0.19810 0.49261
# Poissons Ratio (y) = -0.85250 0.96361
# Poissons Ratio (z) = 0.97598 0.44364
#
# Static dielectric constant tensor:
#      x y z
#    x 1.829280 0.000000 0.000000 
#    y 0.000000 2.337310 0.000000 
#    z 0.000000 0.000000 1.750650 
# 
# From -- ./inp_files/8271.got.cif
#   From: 2010.05.17/outbox.cif.g08.bks.cpg/sg61_5_cif.got.tgz:8271.got - 2010.06.03 15:17:17.
