data_PCOD9459695
_publ_section_title
;
Structure prediction by ZEFSAII (Michael W. Deem and Ramdas Pophale) SiO2 
 PCOD9459695
Probable space group: P B C A
;
_chemical_formula_sum "Si O2"
_cell_formula_units_Z 64
_cell_length_a 10.004363
_cell_length_b 28.060580
_cell_length_c 8.761024
_cell_angle_alpha 90.000000
_cell_angle_beta 90.000000
_cell_angle_gamma 90.000000
_cell_volume 2459.466746
_symmetry_space_group_name_H-M "P B C A"
_symmetry_group_IT_number 61
_symmetry_cell_setting 'orthorhombic'
loop_
_space_group_symop_operation_xyz
x,y,z
1/2-x,-y,1/2+z
1/2+x,1/2-y,-z
-x,1/2+y,1/2-z
-x,-y,-z
1/2+x,y,1/2-z
1/2-x,1/2+y,z
x,1/2-y,1/2+z
loop_
_atom_site_type_symbol
_atom_site_label
_atom_site_fract_x
_atom_site_fract_y
_atom_site_fract_z
Si Si1 0.173122 0.527078 0.176576
Si Si2 0.520772 0.111462 0.172142
Si Si3 0.326229 0.187909 0.173333
Si Si4 0.145978 0.100867 0.051578
Si Si5 0.034620 0.189238 0.723972
Si Si6 0.750651 0.941115 0.506906
Si Si7 0.087559 0.770785 0.974530
Si Si8 0.784055 0.373326 0.248881
O O1 0.073395 0.568150 0.120199
O O2 0.312975 0.549646 0.120181
O O3 0.179364 0.528307 0.360079
O O4 0.158358 0.477481 0.092193
O O5 0.470282 0.163861 0.138037
O O6 0.509573 0.109062 0.357749
O O7 0.659996 0.097554 0.096759
O O8 0.226472 0.146414 0.122556
O O9 0.325500 0.200317 0.351682
O O10 0.320324 0.235097 0.072888
O O11 0.190209 0.101745 0.878170
O O12 0.005062 0.237340 0.632243
O O13 0.918458 0.150617 0.685459
O O14 0.181890 0.168307 0.698597
O O15 0.001326 0.200243 0.903225
O O16 0.675238 0.911207 0.377153
#
# Coordination Sequence:
#
# PCOD9459695 Si02
#       8
#     8   8   8   8   8   8   8   8
#     4  10  23  44  68 101 135 176 232 284 350 418
#     4  10  22  41  69  96 131 183 226 289 353 415
#     4  10  20  41  61  92 134 174 226 283 346 410
#     4  10  22  41  65  95 135 179 227 285 346 414
#     4  11  26  45  67 103 137 185 235 288 356 410
#     4  11  24  43  69 100 136 180 229 289 352 423
#     4  10  22  43  65  96 135 182 233 290 342 423
#     4  12  26  44  70 102 142 183 234 289 355 424
#
# _framework density 26.021899999999999
#
# number of rings (size 3 to 8) (size 9 to 14) (size 15 to 20)
#    0.000    1.500    1.250    2.625    8.750    1.000 
#   13.500    3.125    0.000    0.000    0.000    0.000 
#    0.000    0.000    0.000    0.000    0.000    0.000 
#
# Total GULP energy -357692.475635 kJ/mol
# GULP energy per Si atom -5588.944932 kJ/mol
# Density = 2.596267 g / cm^3
# Si number density = 26.021900 Si / 1000 Ang^3
#
#
#
# Elastic Constant Matrix: (Units=GPa)
#
#
# Indices 1 2 3 4 5 6 
#
# 1 36.7730 5.6089 -6.2573 0.0000 0.0000 0.0000
# 2 5.6089 93.0051 54.8452 0.0000 0.0000 0.0000
# 3 -6.2573 54.8452 157.6655 0.0000 0.0000 0.0000
# 4 0.0000 0.0000 0.0000 62.1607 0.0000 0.0000
# 5 0.0000 0.0000 0.0000 0.0000 27.2162 0.0000
# 6 0.0000 0.0000 0.0000 0.0000 0.0000 17.3734
#
#
#
# Elastic Compliance Matrix: (Units=1/GPa)
#
#
# Indices 1 2 3 4 5 6 
#
# 1 0.028007 -0.002950 0.002138 0.000000 0.000000 0.000000
# 2 -0.002950 0.013838 -0.004931 0.000000 0.000000 0.000000
# 3 0.002138 -0.004931 0.008143 0.000000 0.000000 0.000000
# 4 0.000000 0.000000 0.000000 0.016087 0.000000 0.000000
# 5 0.000000 0.000000 0.000000 0.000000 0.036743 0.000000
# 6 0.000000 0.000000 0.000000 0.000000 0.000000 0.057559
#
#
# Mechanical properties :
#
#
# Convention : Reuss Voigt Hill
#
# Bulk Modulus (GPa) = 25.97243 43.98192 34.97717
# Shear Modulus (GPa) = 27.07148 36.89985 31.98567
#
# Velocity S-wave (km/s) = 3.22892 3.76976 3.50977
# Velocity P-wave (km/s) = 4.88916 5.99055 5.46766
#
# Compressibility (1/GPa) = 0.03850236
#
# Stress axis : x y z
#
# Youngs Moduli (GPa) = 35.70476 72.26713 122.81217
#
# Poissons Ratio (x) = 0.21316 -0.26252
# Poissons Ratio (y) = 0.10532 0.60553
# Poissons Ratio (z) = -0.07632 0.35632
#
# Static dielectric constant tensor:
#      x y z
#    x 2.149010 0.000000 0.000000 
#    y 0.000000 2.000600 0.000000 
#    z 0.000000 0.000000 2.171410 
# 
# From -- ./inp_files/2432.got.cif
#   From: 2010.05.17/outbox.cif.g08.bks.cpg/sg61_2_cif.got.tgz:2432.got - 2010.06.03 15:17:17.
