data_PCOD9459035
_publ_section_title
;
Structure prediction by ZEFSAII (Michael W. Deem and Ramdas Pophale) SiO2 
 PCOD9459035
Probable space group: P B C A
;
_chemical_formula_sum "Si O2"
_cell_formula_units_Z 64
_cell_length_a 18.710147
_cell_length_b 19.033682
_cell_length_c 10.176322
_cell_angle_alpha 90.000000
_cell_angle_beta 90.000000
_cell_angle_gamma 90.000000
_cell_volume 3624.022199
_symmetry_space_group_name_H-M "P B C A"
_symmetry_group_IT_number 61
_symmetry_cell_setting 'orthorhombic'
loop_
_space_group_symop_operation_xyz
x,y,z
1/2-x,-y,1/2+z
1/2+x,1/2-y,-z
-x,1/2+y,1/2-z
-x,-y,-z
1/2+x,y,1/2-z
1/2-x,1/2+y,z
x,1/2-y,1/2+z
loop_
_atom_site_type_symbol
_atom_site_label
_atom_site_fract_x
_atom_site_fract_y
_atom_site_fract_z
Si Si1 0.830560 0.175701 0.498899
Si Si2 0.678334 0.714751 0.786698
Si Si3 0.795024 0.482041 0.077820
Si Si4 0.047604 0.045393 0.400291
Si Si5 0.702023 0.561141 0.868276
Si Si6 0.492843 0.313386 0.202049
Si Si7 0.967198 0.470815 0.366639
Si Si8 0.496733 0.694708 0.499642
O O1 0.804385 0.216211 0.369785
O O2 0.804818 0.214834 0.632040
O O3 0.807084 0.095275 0.515176
O O4 0.917293 0.179949 0.497207
O O5 0.710490 0.645055 0.853885
O O6 0.592465 0.702344 0.792500
O O7 0.871542 0.519746 0.083220
O O8 0.771875 0.470577 0.228878
O O9 0.742177 0.527074 0.989677
O O10 0.038669 0.126422 0.435815
O O11 0.023548 0.025083 0.253203
O O12 0.000000 0.000000 0.500000
O O13 0.617594 0.544162 0.879558
O O14 0.501308 0.395677 0.171719
O O15 0.522513 0.297350 0.347051
O O16 0.520318 0.262975 0.086970
O O17 0.000000 0.500000 0.500000
#
# Coordination Sequence:
#
# PCOD9459035 Si02
#       8
#     8   8   8   8   8   8   8   8
#     4   9  16  30  51  78 101 133 172 224 262 313
#     4   8  16  30  49  72 104 129 170 218 263 303
#     4  10  20  35  56  77 108 142 181 222 269 320
#     4  11  19  35  56  80 111 144 177 225 276 325
#     4   9  20  37  52  77 107 140 176 224 266 320
#     4   9  18  31  50  77 108 140 173 225 267 324
#     4  10  21  36  55  82 113 137 182 236 273 317
#     4  10  18  32  52  79 111 140 181 220 275 324
#
# _framework density 17.659935999999998
#
# number of rings (size 3 to 8) (size 9 to 14) (size 15 to 20)
#    0.000    2.500    2.500    1.500    1.750    2.000 
#    2.250    0.000    2.750    0.000    0.000    0.000 
#    0.000    0.000    0.000    0.000    0.000    0.000 
#
# Total GULP energy -356808.001402 kJ/mol
# GULP energy per Si atom -5575.125022 kJ/mol
# Density = 1.761974 g / cm^3
# Si number density = 17.659936 Si / 1000 Ang^3
#
#
#
# Elastic Constant Matrix: (Units=GPa)
#
#
# Indices 1 2 3 4 5 6 
#
# 1 12.1683 11.6819 27.8819 0.0000 0.0000 0.0000
# 2 11.6819 92.2223 76.5311 0.0000 0.0000 0.0000
# 3 27.8819 76.5311 138.7430 0.0000 0.0000 0.0000
# 4 0.0000 0.0000 0.0000 36.8167 0.0000 0.0000
# 5 0.0000 0.0000 0.0000 0.0000 27.2344 0.0000
# 6 0.0000 0.0000 0.0000 0.0000 0.0000 19.7538
#
#
#
# Elastic Compliance Matrix: (Units=1/GPa)
#
#
# Indices 1 2 3 4 5 6 
#
# 1 0.158938 0.011753 -0.038423 0.000000 0.000000 0.000000
# 2 0.011753 0.020866 -0.013872 0.000000 0.000000 0.000000
# 3 -0.038423 -0.013872 0.022581 0.000000 0.000000 0.000000
# 4 0.000000 0.000000 0.000000 0.027162 0.000000 0.000000
# 5 0.000000 0.000000 0.000000 0.000000 0.036718 0.000000
# 6 0.000000 0.000000 0.000000 0.000000 0.000000 0.050623
#
#
# Mechanical properties :
#
#
# Convention : Reuss Voigt Hill
#
# Bulk Modulus (GPa) = 8.24395 52.81372 30.52883
# Shear Modulus (GPa) = 11.40495 25.23023 18.31759
#
# Velocity S-wave (km/s) = 2.54403 3.78388 3.22411
# Velocity P-wave (km/s) = 3.64798 7.00437 5.58431
#
# Compressibility (1/GPa) = 0.12130109
#
# Stress axis : x y z
#
# Youngs Moduli (GPa) = 6.29175 47.92462 44.28539
#
# Poissons Ratio (x) = -0.56325 1.70159
# Poissons Ratio (y) = -0.07395 0.61431
# Poissons Ratio (z) = 0.24175 0.66480
#
# Static dielectric constant tensor:
#      x y z
#    x 1.566830 0.000000 0.000000 
#    y 0.000000 1.594400 0.000000 
#    z 0.000000 0.000000 1.605880 
# 
# From -- ./inp_files/4095.got.cif
#   From: 2010.05.17/outbox.cif.g08.bks.cpg/sg61_3_cif.got.tgz:4095.got - 2010.06.03 15:17:17.
