data_PCOD9459188
_publ_section_title
;
Structure prediction by ZEFSAII (Michael W. Deem and Ramdas Pophale) SiO2 
 PCOD9459188
Probable space group: P B C A
;
_chemical_formula_sum "Si O2"
_cell_formula_units_Z 64
_cell_length_a 19.767807
_cell_length_b 5.437373
_cell_length_c 27.901454
_cell_angle_alpha 90.000000
_cell_angle_beta 90.000000
_cell_angle_gamma 90.000000
_cell_volume 2998.986111
_symmetry_space_group_name_H-M "P B C A"
_symmetry_group_IT_number 61
_symmetry_cell_setting 'orthorhombic'
loop_
_space_group_symop_operation_xyz
x,y,z
1/2-x,-y,1/2+z
1/2+x,1/2-y,-z
-x,1/2+y,1/2-z
-x,-y,-z
1/2+x,y,1/2-z
1/2-x,1/2+y,z
x,1/2-y,1/2+z
loop_
_atom_site_type_symbol
_atom_site_label
_atom_site_fract_x
_atom_site_fract_y
_atom_site_fract_z
Si Si1 0.970778 0.618196 0.366684
Si Si2 0.407567 0.059048 0.891875
Si Si3 0.085839 0.060170 0.706966
Si Si4 0.709783 0.830825 0.648895
Si Si5 0.918031 0.966641 0.502562
Si Si6 0.709089 0.790483 0.762563
Si Si7 0.433112 0.032657 0.534100
Si Si8 0.948627 0.737550 0.195290
O O1 0.912092 0.757470 0.337998
O O2 0.951620 0.439213 0.410058
O O3 0.017707 0.824850 0.391138
O O4 0.015884 0.476955 0.327340
O O5 0.355946 0.279635 0.882759
O O6 0.397681 0.930659 0.942391
O O7 0.403490 0.881620 0.846162
O O8 0.092195 0.206554 0.756840
O O9 0.140853 0.846095 0.708226
O O10 0.010339 0.946402 0.707134
O O11 0.757925 0.595518 0.639284
O O12 0.693143 0.808602 0.705582
O O13 0.897570 0.730244 0.472247
O O14 0.893387 0.230354 0.484055
O O15 0.000000 0.000000 0.500000
O O16 0.742067 0.525507 0.772260
O O17 0.500000 0.000000 0.500000
#
# Coordination Sequence:
#
# PCOD9459188 Si02
#       8
#     8   8   8   8   8   8   8   8
#     4  11  22  35  57  87 123 162 192 253 310 381
#     4  11  23  35  62  84 121 165 194 252 316 373
#     4  11  24  37  55  89 123 161 205 243 314 369
#     4  10  24  40  57  87 117 159 212 252 292 362
#     4  10  19  35  55  86 117 148 191 236 292 372
#     4  10  24  42  64  80 114 168 215 257 284 346
#     4  10  19  34  54  82 125 143 194 232 294 365
#     4  11  23  36  54  87 129 161 193 242 318 382
#
# _framework density 21.340546
#
# number of rings (size 3 to 8) (size 9 to 14) (size 15 to 20)
#    0.000    1.500    3.750    2.250   12.250    0.000 
#    0.000    0.000    0.000    0.000    0.000    5.250 
#    0.000    0.000    0.000    0.000    0.000    0.000 
#
# Total GULP energy -357690.839285 kJ/mol
# GULP energy per Si atom -5588.919364 kJ/mol
# Density = 2.129197 g / cm^3
# Si number density = 21.340546 Si / 1000 Ang^3
#
#
#
# Elastic Constant Matrix: (Units=GPa)
#
#
# Indices 1 2 3 4 5 6 
#
# 1 41.4794 14.1400 21.8568 0.0000 0.0000 0.0000
# 2 14.1400 101.7350 14.8109 0.0000 0.0000 0.0000
# 3 21.8568 14.8109 83.6645 0.0000 0.0000 0.0000
# 4 0.0000 0.0000 0.0000 31.5348 0.0000 0.0000
# 5 0.0000 0.0000 0.0000 0.0000 7.8411 0.0000
# 6 0.0000 0.0000 0.0000 0.0000 0.0000 24.2310
#
#
#
# Elastic Compliance Matrix: (Units=1/GPa)
#
#
# Indices 1 2 3 4 5 6 
#
# 1 0.028814 -0.002986 -0.006999 0.000000 0.000000 0.000000
# 2 -0.002986 0.010399 -0.001061 0.000000 0.000000 0.000000
# 3 -0.006999 -0.001061 0.013969 0.000000 0.000000 0.000000
# 4 0.000000 0.000000 0.000000 0.031711 0.000000 0.000000
# 5 0.000000 0.000000 0.000000 0.000000 0.127534 0.000000
# 6 0.000000 0.000000 0.000000 0.000000 0.000000 0.041269
#
#
# Mechanical properties :
#
#
# Convention : Reuss Voigt Hill
#
# Bulk Modulus (GPa) = 32.16422 36.49936 34.33179
# Shear Modulus (GPa) = 17.47331 24.45946 20.96638
#
# Velocity S-wave (km/s) = 2.86455 3.38916 3.13783
# Velocity P-wave (km/s) = 5.10347 5.69698 5.40837
#
# Compressibility (1/GPa) = 0.03109045
#
# Stress axis : x y z
#
# Youngs Moduli (GPa) = 34.70517 96.16400 71.58855
#
# Poissons Ratio (x) = 0.28714 0.50104
# Poissons Ratio (y) = 0.10363 0.07594
# Poissons Ratio (z) = 0.24290 0.10201
#
# Static dielectric constant tensor:
#      x y z
#    x 1.766990 0.000000 0.000000 
#    y 0.000000 1.801010 0.000000 
#    z 0.000000 0.000000 1.764570 
# 
# From -- ./inp_files/11845.got.cif
#   From: 2010.05.17/outbox.cif.g08.bks.cpg/sg61_6_cif.got.tgz:11845.got - 2010.06.03 15:17:17.
