data_PCOD9459321
_publ_section_title
;
Structure prediction by ZEFSAII (Michael W. Deem and Ramdas Pophale) SiO2 
 PCOD9459321
Probable space group: P B C A
;
_chemical_formula_sum "Si O2"
_cell_formula_units_Z 48
_cell_length_a 9.917184
_cell_length_b 18.608688
_cell_length_c 12.523418
_cell_angle_alpha 90.000000
_cell_angle_beta 90.000000
_cell_angle_gamma 90.000000
_cell_volume 2311.143979
_symmetry_space_group_name_H-M "P B C A"
_symmetry_group_IT_number 61
_symmetry_cell_setting 'orthorhombic'
loop_
_space_group_symop_operation_xyz
x,y,z
1/2-x,-y,1/2+z
1/2+x,1/2-y,-z
-x,1/2+y,1/2-z
-x,-y,-z
1/2+x,y,1/2-z
1/2-x,1/2+y,z
x,1/2-y,1/2+z
loop_
_atom_site_type_symbol
_atom_site_label
_atom_site_fract_x
_atom_site_fract_y
_atom_site_fract_z
Si Si1 0.586438 0.525364 0.824520
Si Si2 0.840976 0.881626 0.255523
Si Si3 0.723394 0.531541 0.483518
Si Si4 0.040570 0.435558 0.864235
Si Si5 0.750850 0.805866 0.061692
Si Si6 0.445339 0.690419 0.529297
O O1 0.449951 0.569569 0.806638
O O2 0.703121 0.575193 0.773405
O O3 0.644072 0.507398 0.940609
O O4 0.570915 0.450768 0.758919
O O5 0.806660 0.812950 0.181982
O O6 0.899496 0.858129 0.370271
O O7 0.610985 0.537213 0.389524
O O8 0.645639 0.486721 0.573284
O O9 0.751243 0.612170 0.520075
O O10 0.051900 0.359068 0.922463
O O11 0.595508 0.782540 0.054628
O O12 0.842989 0.754475 0.991819
#
# Coordination Sequence:
#
# PCOD9459321 Si02
#       6
#     8   8   8   8   8   8
#     4  12  21  39  69  99 126 167 216 272 331 386
#     4  12  23  42  67  96 129 169 214 271 332 391
#     4  10  20  39  64  93 126 164 217 266 322 383
#     4  10  19  39  64  91 126 167 210 270 325 379
#     4  11  26  44  65  96 133 178 220 268 329 397
#     4  11  25  44  66  92 134 178 219 268 331 395
#
# _framework density 20.768934999999999
#
# number of rings (size 3 to 8) (size 9 to 14) (size 15 to 20)
#    0.000    1.000    6.667    1.000    2.333    2.000 
#    3.000    3.333    0.000    0.000    0.000    0.000 
#    0.000    0.000    0.000    0.000    0.000    0.000 
#
# Total GULP energy -268170.626736 kJ/mol
# GULP energy per Si atom -5586.888057 kJ/mol
# Density = 2.072166 g / cm^3
# Si number density = 20.768935 Si / 1000 Ang^3
#
#
#
# Elastic Constant Matrix: (Units=GPa)
#
#
# Indices 1 2 3 4 5 6 
#
# 1 122.3606 31.3758 23.4903 0.0000 0.0000 0.0000
# 2 31.3758 42.9983 1.2068 0.0000 0.0000 0.0000
# 3 23.4903 1.2068 37.0336 0.0000 0.0000 0.0000
# 4 0.0000 0.0000 0.0000 27.3766 0.0000 0.0000
# 5 0.0000 0.0000 0.0000 0.0000 24.8965 0.0000
# 6 0.0000 0.0000 0.0000 0.0000 0.0000 31.2891
#
#
#
# Elastic Compliance Matrix: (Units=1/GPa)
#
#
# Indices 1 2 3 4 5 6 
#
# 1 0.011675 -0.008319 -0.007135 0.000000 0.000000 0.000000
# 2 -0.008319 0.029206 0.004325 0.000000 0.000000 0.000000
# 3 -0.007135 0.004325 0.031387 0.000000 0.000000 0.000000
# 4 0.000000 0.000000 0.000000 0.036528 0.000000 0.000000
# 5 0.000000 0.000000 0.000000 0.000000 0.040166 0.000000
# 6 0.000000 0.000000 0.000000 0.000000 0.000000 0.031960
#
#
# Mechanical properties :
#
#
# Convention : Reuss Voigt Hill
#
# Bulk Modulus (GPa) = 19.99563 34.94869 27.47216
# Shear Modulus (GPa) = 22.74276 26.46707 24.60492
#
# Velocity S-wave (km/s) = 3.31272 3.57369 3.44568
# Velocity P-wave (km/s) = 4.92755 5.82171 5.39319
#
# Compressibility (1/GPa) = 0.05001093
#
# Stress axis : x y z
#
# Youngs Moduli (GPa) = 85.64946 34.23954 31.86035
#
# Poissons Ratio (x) = 0.28485 0.22731
# Poissons Ratio (y) = 0.71255 -0.13780
# Poissons Ratio (z) = 0.61108 -0.14809
#
# Static dielectric constant tensor:
#      x y z
#    x 1.732310 0.000000 0.000000 
#    y 0.000000 1.711310 0.000000 
#    z 0.000000 0.000000 1.796700 
# 
# From -- ./inp_files/7034.got.cif
#   From: 2010.05.17/outbox.cif.g08.bks.cpg/sg61_4_cif.got.tgz:7034.got - 2010.06.03 15:17:17.
