data_PCOD9459468
_publ_section_title
;
Structure prediction by ZEFSAII (Michael W. Deem and Ramdas Pophale) SiO2 
 PCOD9459468
Probable space group: P B C A
;
_chemical_formula_sum "Si O2"
_cell_formula_units_Z 44
_cell_length_a 23.042311
_cell_length_b 15.759473
_cell_length_c 5.026454
_cell_angle_alpha 90.000000
_cell_angle_beta 90.000000
_cell_angle_gamma 90.000000
_cell_volume 1825.279755
_symmetry_space_group_name_H-M "P B C A"
_symmetry_group_IT_number 61
_symmetry_cell_setting 'orthorhombic'
loop_
_space_group_symop_operation_xyz
x,y,z
1/2-x,-y,1/2+z
1/2+x,1/2-y,-z
-x,1/2+y,1/2-z
-x,-y,-z
1/2+x,y,1/2-z
1/2-x,1/2+y,z
x,1/2-y,1/2+z
loop_
_atom_site_type_symbol
_atom_site_label
_atom_site_fract_x
_atom_site_fract_y
_atom_site_fract_z
Si Si1 0.269698 0.307117 0.913512
Si Si2 0.912215 0.509100 0.032254
Si Si3 0.126546 0.585132 0.487218
Si Si4 0.516589 0.693003 0.023703
Si Si5 0.000000 0.500000 0.500000
Si Si6 0.367272 0.693528 0.386218
O O1 0.281854 0.234056 0.699223
O O2 0.312160 0.386220 0.873823
O O3 0.201716 0.327570 0.897021
O O4 0.866132 0.461117 0.229328
O O5 0.967172 0.485108 0.210746
O O6 0.899067 0.607951 0.031214
O O7 0.910012 0.473291 0.727602
O O8 0.084880 0.666776 0.505687
O O9 0.504503 0.739587 0.297444
O O10 0.485359 0.603143 0.012063
O O11 0.378458 0.768924 0.595162
#
# Coordination Sequence:
#
# PCOD9459468 Si02
#       6
#     8   8   8   8   4   8
#     4  10  20  36  60  88 122 158 196 247 301 369
#     4  11  24  40  61  86 123 161 201 263 311 362
#     4  11  22  38  61  91 122 156 201 254 312 374
#     4  11  23  40  64  90 121 163 206 255 317 374
#     4  10  26  44  62  94 128 162 218 270 314 374
#     4  10  22  40  61  88 120 160 205 245 304 379
#
# _framework density 24.105896000000001
#
# number of rings (size 3 to 8) (size 9 to 14) (size 15 to 20)
#    0.000    1.455    0.000    5.455    0.000    9.455 
#    0.000    0.000    0.000    0.000    0.000    0.000 
#    0.000    0.000    0.000    0.000    0.000    0.000 
#
# Total GULP energy -245513.394687 kJ/mol
# GULP energy per Si atom -5579.849879 kJ/mol
# Density = 2.405103 g / cm^3
# Si number density = 24.105896 Si / 1000 Ang^3
#
#
#
# Elastic Constant Matrix: (Units=GPa)
#
#
# Indices 1 2 3 4 5 6 
#
# 1 59.2379 14.0909 8.1583 0.0000 0.0000 0.0000
# 2 14.0909 107.2059 7.3249 0.0000 0.0000 0.0000
# 3 8.1583 7.3249 86.6940 0.0000 0.0000 0.0000
# 4 0.0000 0.0000 0.0000 30.3237 0.0000 0.0000
# 5 0.0000 0.0000 0.0000 0.0000 22.9713 0.0000
# 6 0.0000 0.0000 0.0000 0.0000 0.0000 33.8290
#
#
#
# Elastic Compliance Matrix: (Units=1/GPa)
#
#
# Indices 1 2 3 4 5 6 
#
# 1 0.017610 -0.002214 -0.001470 0.000000 0.000000 0.000000
# 2 -0.002214 0.009660 -0.000608 0.000000 0.000000 0.000000
# 3 -0.001470 -0.000608 0.011725 0.000000 0.000000 0.000000
# 4 0.000000 0.000000 0.000000 0.032978 0.000000 0.000000
# 5 0.000000 0.000000 0.000000 0.000000 0.043533 0.000000
# 6 0.000000 0.000000 0.000000 0.000000 0.000000 0.029560
#
#
# Mechanical properties :
#
#
# Convention : Reuss Voigt Hill
#
# Bulk Modulus (GPa) = 32.88303 34.69844 33.79074
# Shear Modulus (GPa) = 30.52743 32.32903 31.42823
#
# Velocity S-wave (km/s) = 3.56250 3.66611 3.61467
# Velocity P-wave (km/s) = 5.53105 5.68735 5.60974
#
# Compressibility (1/GPa) = 0.03041082
#
# Stress axis : x y z
#
# Youngs Moduli (GPa) = 56.78512 103.51526 85.29125
#
# Poissons Ratio (x) = 0.22920 0.12539
# Poissons Ratio (y) = 0.12573 0.05185
# Poissons Ratio (z) = 0.08348 0.06292
#
# Static dielectric constant tensor:
#      x y z
#    x 2.190870 0.000000 0.000000 
#    y 0.000000 1.956730 0.000000 
#    z 0.000000 0.000000 2.185840 
# 
# From -- ./inp_files/1319.got.cif
#   From: 2010.05.17/outbox.cif.g08.bks.cpg/sg61_1_cif.got.tgz:1319.got - 2010.06.03 15:17:17.
