data_PCOD9459338
_publ_section_title
;
Structure prediction by ZEFSAII (Michael W. Deem and Ramdas Pophale) SiO2 
 PCOD9459338
Probable space group: P B C A
;
_chemical_formula_sum "Si O2"
_cell_formula_units_Z 64
_cell_length_a 22.284532
_cell_length_b 14.375753
_cell_length_c 8.666316
_cell_angle_alpha 90.000000
_cell_angle_beta 90.000000
_cell_angle_gamma 90.000000
_cell_volume 2776.314369
_symmetry_space_group_name_H-M "P B C A"
_symmetry_group_IT_number 61
_symmetry_cell_setting 'orthorhombic'
loop_
_space_group_symop_operation_xyz
x,y,z
1/2-x,-y,1/2+z
1/2+x,1/2-y,-z
-x,1/2+y,1/2-z
-x,-y,-z
1/2+x,y,1/2-z
1/2-x,1/2+y,z
x,1/2-y,1/2+z
loop_
_atom_site_type_symbol
_atom_site_label
_atom_site_fract_x
_atom_site_fract_y
_atom_site_fract_z
Si Si1 0.493494 0.505470 0.241443
Si Si2 0.369425 0.539797 0.700462
Si Si3 0.817364 0.870147 0.793377
Si Si4 0.373321 0.785648 0.400202
Si Si5 0.004747 0.838373 0.000213
Si Si6 0.681461 0.862716 0.690533
Si Si7 0.869236 0.473304 0.126094
Si Si8 0.374788 0.276776 0.510564
O O1 0.560110 0.485142 0.299370
O O2 0.493922 0.605704 0.158468
O O3 0.439284 0.498991 0.359415
O O4 0.480336 0.422573 0.118438
O O5 0.363266 0.644027 0.757286
O O6 0.338750 0.469412 0.821224
O O7 0.343665 0.515518 0.533316
O O8 0.853460 0.813487 0.661674
O O9 0.747843 0.857700 0.756936
O O10 0.836569 0.977279 0.768594
O O11 0.836164 0.827471 0.956819
O O12 0.442951 0.790854 0.448083
O O13 0.058991 0.766226 0.995529
O O14 0.670994 0.804484 0.536578
O O15 0.637851 0.817067 0.820111
O O16 0.865139 0.362944 0.106137
#
# Coordination Sequence:
#
# PCOD9459338 Si02
#       8
#     8   8   8   8   8   8   8   8
#     4  10  19  40  66  97 134 174 219 278 343 411
#     4  10  23  41  66  98 132 171 219 280 338 405
#     4  12  26  44  65  94 131 182 228 278 335 405
#     4  11  25  45  70  95 134 172 228 282 343 411
#     4  10  21  39  71 102 130 175 221 281 354 401
#     4  11  25  43  66  95 133 176 230 278 334 402
#     4  11  24  41  66  99 137 175 222 276 346 407
#     4  11  24  43  68 102 135 175 225 287 344 408
#
# _framework density 23.052143999999998
#
# number of rings (size 3 to 8) (size 9 to 14) (size 15 to 20)
#    0.000    1.250    2.500    2.625    0.000   10.000 
#    0.000    0.000    0.000    0.000    0.000    0.000 
#    0.000    0.000    0.000    0.000    0.000    0.000 
#
# Total GULP energy -358287.521884 kJ/mol
# GULP energy per Si atom -5598.242529 kJ/mol
# Density = 2.299968 g / cm^3
# Si number density = 23.052144 Si / 1000 Ang^3
#
#
#
# Elastic Constant Matrix: (Units=GPa)
#
#
# Indices 1 2 3 4 5 6 
#
# 1 66.5212 16.9983 -18.0238 0.0000 0.0000 0.0000
# 2 16.9983 90.1608 4.1592 0.0000 0.0000 0.0000
# 3 -18.0238 4.1592 35.0921 0.0000 0.0000 0.0000
# 4 0.0000 0.0000 0.0000 22.0208 0.0000 0.0000
# 5 0.0000 0.0000 0.0000 0.0000 12.0991 0.0000
# 6 0.0000 0.0000 0.0000 0.0000 0.0000 -23.5969
#
#
#
# Elastic Compliance Matrix: (Units=1/GPa)
#
#
# Indices 1 2 3 4 5 6 
#
# 1 0.018804 -0.004013 0.010133 0.000000 0.000000 0.000000
# 2 -0.004013 0.012009 -0.003484 0.000000 0.000000 0.000000
# 3 0.010133 -0.003484 0.034114 0.000000 0.000000 0.000000
# 4 0.000000 0.000000 0.000000 0.045412 0.000000 0.000000
# 5 0.000000 0.000000 0.000000 0.000000 0.082651 0.000000
# 6 0.000000 0.000000 0.000000 0.000000 0.000000 -0.042379
#
#
# Mechanical properties :
#
#
# Convention : Reuss Voigt Hill
#
# Bulk Modulus (GPa) = 14.24508 22.00462 18.12485
# Shear Modulus (GPa) = 29.63192 14.68063 22.15627
#
# Velocity S-wave (km/s) = 3.58918 2.52632 3.10358
# Velocity P-wave (km/s) = 4.83417 4.25159 4.55221
#
# Compressibility (1/GPa) = 0.07019969
#
# Stress axis : x y z
#
# Youngs Moduli (GPa) = 53.18074 83.27407 29.31341
#
# Poissons Ratio (x) = 0.33415 -0.29705
# Poissons Ratio (y) = 0.21339 0.10213
# Poissons Ratio (z) = -0.53891 0.29015
#
# Static dielectric constant tensor:
#      x y z
#    x 1.804540 0.000000 0.000000 
#    y 0.000000 1.835690 0.000000 
#    z 0.000000 0.000000 1.876270 
# 
# From -- ./inp_files/4339.got.cif
#   From: 2010.05.17/outbox.cif.g08.bks.cpg/sg61_3_cif.got.tgz:4339.got - 2010.06.03 15:17:17.
