data_PCOD9459951
_publ_section_title
;
Structure prediction by ZEFSAII (Michael W. Deem and Ramdas Pophale) SiO2 
 PCOD9459951
Probable space group: P B C A
;
_chemical_formula_sum "Si O2"
_cell_formula_units_Z 48
_cell_length_a 24.853902
_cell_length_b 5.703649
_cell_length_c 13.320047
_cell_angle_alpha 90.000000
_cell_angle_beta 90.000000
_cell_angle_gamma 90.000000
_cell_volume 1888.222334
_symmetry_space_group_name_H-M "P B C A"
_symmetry_group_IT_number 61
_symmetry_cell_setting 'orthorhombic'
loop_
_space_group_symop_operation_xyz
x,y,z
1/2-x,-y,1/2+z
1/2+x,1/2-y,-z
-x,1/2+y,1/2-z
-x,-y,-z
1/2+x,y,1/2-z
1/2-x,1/2+y,z
x,1/2-y,1/2+z
loop_
_atom_site_type_symbol
_atom_site_label
_atom_site_fract_x
_atom_site_fract_y
_atom_site_fract_z
Si Si1 0.372434 0.569782 0.404475
Si Si2 0.388872 0.428990 0.626042
Si Si3 0.438514 0.541560 0.886250
Si Si4 0.828435 0.180648 0.199789
Si Si5 0.762293 0.796150 0.532238
Si Si6 0.444138 0.565342 0.128322
O O1 0.383716 0.422517 0.505268
O O2 0.427007 0.683626 0.365820
O O3 0.341625 0.454220 0.312046
O O4 0.325303 0.738032 0.446310
O O5 0.333129 0.416852 0.688747
O O6 0.416899 0.680729 0.649586
O O7 0.419080 0.188054 0.657665
O O8 0.384146 0.420807 0.847953
O O9 0.492941 0.437255 0.843498
O O10 0.441830 0.546368 0.006564
O O11 0.775287 0.160685 0.131744
O O12 0.743517 0.553500 0.483022
#
# Coordination Sequence:
#
# PCOD9459951 Si02
#       6
#     8   8   8   8   8   8
#     4  10  22  43  68  93 137 173 224 274 340 393
#     4  11  25  41  65 100 133 174 223 279 322 404
#     4  10  21  40  69  90 132 181 214 280 328 397
#     4  11  23  40  68  94 135 177 223 274 337 392
#     4  10  21  39  64  92 121 168 217 263 329 393
#     4  10  24  41  64  99 131 171 232 265 339 391
#
# _framework density 25.420738
#
# number of rings (size 3 to 8) (size 9 to 14) (size 15 to 20)
#    0.000    1.667    3.333    0.000    4.667    3.333 
#    0.000    6.667    0.000    0.000    0.000    0.000 
#    0.000    0.000    0.000    0.000    0.000    0.000 
#
# Total GULP energy -267329.261536 kJ/mol
# GULP energy per Si atom -5569.359615 kJ/mol
# Density = 2.536288 g / cm^3
# Si number density = 25.420738 Si / 1000 Ang^3
#
#
#
# Elastic Constant Matrix: (Units=GPa)
#
#
# Indices 1 2 3 4 5 6 
#
# 1 99.2750 46.0573 21.0078 0.0000 0.0000 0.0000
# 2 46.0573 154.2761 25.0301 0.0000 0.0000 0.0000
# 3 21.0078 25.0301 89.7624 0.0000 0.0000 0.0000
# 4 0.0000 0.0000 0.0000 18.2664 0.0000 0.0000
# 5 0.0000 0.0000 0.0000 0.0000 38.5803 0.0000
# 6 0.0000 0.0000 0.0000 0.0000 0.0000 35.8677
#
#
#
# Elastic Compliance Matrix: (Units=1/GPa)
#
#
# Indices 1 2 3 4 5 6 
#
# 1 0.011992 -0.003273 -0.001894 0.000000 0.000000 0.000000
# 2 -0.003273 0.007682 -0.001376 0.000000 0.000000 0.000000
# 3 -0.001894 -0.001376 0.011968 0.000000 0.000000 0.000000
# 4 0.000000 0.000000 0.000000 0.054745 0.000000 0.000000
# 5 0.000000 0.000000 0.000000 0.000000 0.025920 0.000000
# 6 0.000000 0.000000 0.000000 0.000000 0.000000 0.027880
#
#
# Mechanical properties :
#
#
# Convention : Reuss Voigt Hill
#
# Bulk Modulus (GPa) = 53.89128 58.61154 56.25141
# Shear Modulus (GPa) = 31.35603 35.29076 33.32340
#
# Velocity S-wave (km/s) = 3.51591 3.72999 3.62453
# Velocity P-wave (km/s) = 6.14230 6.45423 6.30020
#
# Compressibility (1/GPa) = 0.01855588
#
# Stress axis : x y z
#
# Youngs Moduli (GPa) = 83.38739 130.17044 83.55938
#
# Poissons Ratio (x) = 0.42603 0.15826
# Poissons Ratio (y) = 0.27291 0.11499
# Poissons Ratio (z) = 0.15794 0.17914
#
# Static dielectric constant tensor:
#      x y z
#    x 2.009600 0.000000 0.000000 
#    y 0.000000 2.288630 0.000000 
#    z 0.000000 0.000000 2.066560 
# 
# From -- ./inp_files/8576.got.cif
#   From: 2010.05.17/outbox.cif.g08.bks.cpg/sg61_5_cif.got.tgz:8576.got - 2010.06.03 15:17:17.
