data_PCOD9459492
_publ_section_title
;
Structure prediction by ZEFSAII (Michael W. Deem and Ramdas Pophale) SiO2 
 PCOD9459492
Probable space group: P B C A
;
_chemical_formula_sum "Si O2"
_cell_formula_units_Z 60
_cell_length_a 13.603381
_cell_length_b 18.591242
_cell_length_c 9.458411
_cell_angle_alpha 90.000000
_cell_angle_beta 90.000000
_cell_angle_gamma 90.000000
_cell_volume 2392.067594
_symmetry_space_group_name_H-M "P B C A"
_symmetry_group_IT_number 61
_symmetry_cell_setting 'orthorhombic'
loop_
_space_group_symop_operation_xyz
x,y,z
1/2-x,-y,1/2+z
1/2+x,1/2-y,-z
-x,1/2+y,1/2-z
-x,-y,-z
1/2+x,y,1/2-z
1/2-x,1/2+y,z
x,1/2-y,1/2+z
loop_
_atom_site_type_symbol
_atom_site_label
_atom_site_fract_x
_atom_site_fract_y
_atom_site_fract_z
Si Si1 0.872923 0.617197 0.931987
Si Si2 0.500000 0.500000 0.000000
Si Si3 0.063149 0.588548 0.773099
Si Si4 0.672193 0.427017 0.944466
Si Si5 0.734385 0.020464 0.156667
Si Si6 0.621553 0.742541 0.180521
Si Si7 0.187474 0.309273 0.335674
Si Si8 0.000697 0.762063 0.578735
O O1 0.803527 0.641744 0.803266
O O2 0.963989 0.574166 0.863523
O O3 0.810473 0.578119 0.050364
O O4 0.927377 0.685009 0.999698
O O5 0.462040 0.438071 0.115878
O O6 0.440699 0.563261 0.096821
O O7 0.153125 0.542047 0.833443
O O8 0.097085 0.671908 0.792024
O O9 0.671760 0.486667 0.074625
O O10 0.699981 0.353180 0.019008
O O11 0.742003 0.449478 0.815604
O O12 0.738287 0.743088 0.171112
O O13 0.574931 0.701381 0.311568
O O14 0.568017 0.723390 0.036348
O O15 0.074497 0.286381 0.334069
#
# Coordination Sequence:
#
# PCOD9459492 Si02
#       8
#     8   4   8   8   8   8   8   8
#     4  11  24  44  68 100 138 186 228 301 356 432
#     4  10  20  36  66  98 134 186 218 272 352 410
#     4  10  20  43  67  98 137 179 227 286 351 420
#     4  11  23  41  66 103 141 183 230 283 351 427
#     4  11  24  40  70 103 142 179 236 278 364 429
#     4  11  25  45  71 101 136 183 238 299 357 420
#     4  12  24  47  74  96 145 188 241 305 359 429
#     4  11  25  47  69 100 138 181 243 294 366 425
#
# _framework density 25.082903000000002
#
# number of rings (size 3 to 8) (size 9 to 14) (size 15 to 20)
#    0.000    1.067    5.333    1.200    5.600    0.000 
#    0.000    0.000    0.000    0.000    0.000    0.000 
#    0.000    0.000    0.000    0.000    0.000    0.000 
#
# Total GULP energy -334684.664066 kJ/mol
# GULP energy per Si atom -5578.077734 kJ/mol
# Density = 2.502581 g / cm^3
# Si number density = 25.082903 Si / 1000 Ang^3
#
#
#
# Elastic Constant Matrix: (Units=GPa)
#
#
# Indices 1 2 3 4 5 6 
#
# 1 61.0698 2.8575 17.8403 0.0000 0.0000 0.0000
# 2 2.8575 35.3912 17.2694 0.0000 0.0000 0.0000
# 3 17.8403 17.2694 101.7812 0.0000 0.0000 0.0000
# 4 0.0000 0.0000 0.0000 40.4522 0.0000 0.0000
# 5 0.0000 0.0000 0.0000 0.0000 29.9738 0.0000
# 6 0.0000 0.0000 0.0000 0.0000 0.0000 21.1608
#
#
#
# Elastic Compliance Matrix: (Units=1/GPa)
#
#
# Indices 1 2 3 4 5 6 
#
# 1 0.017259 0.000090 -0.003040 0.000000 0.000000 0.000000
# 2 0.000090 0.030807 -0.005243 0.000000 0.000000 0.000000
# 3 -0.003040 -0.005243 0.011247 0.000000 0.000000 0.000000
# 4 0.000000 0.000000 0.000000 0.024721 0.000000 0.000000
# 5 0.000000 0.000000 0.000000 0.000000 0.033362 0.000000
# 6 0.000000 0.000000 0.000000 0.000000 0.000000 0.047257
#
#
# Mechanical properties :
#
#
# Convention : Reuss Voigt Hill
#
# Bulk Modulus (GPa) = 23.29561 30.46407 26.87984
# Shear Modulus (GPa) = 25.59536 29.00237 27.29887
#
# Velocity S-wave (km/s) = 3.19788 3.40407 3.30259
# Velocity P-wave (km/s) = 4.78987 5.25566 5.02817
#
# Compressibility (1/GPa) = 0.04292653
#
# Stress axis : x y z
#
# Youngs Moduli (GPa) = 57.94180 32.46060 88.90888
#
# Poissons Ratio (x) = -0.00292 0.27032
# Poissons Ratio (y) = -0.00522 0.46613
# Poissons Ratio (z) = 0.17617 0.17018
#
# Static dielectric constant tensor:
#      x y z
#    x 1.388200 0.000000 0.000000 
#    y 0.000000 2.061250 0.000000 
#    z 0.000000 0.000000 1.912590 
# 
# From -- ./inp_files/3158.got.cif
#   From: 2010.05.17/outbox.cif.g08.bks.cpg/sg61_2_cif.got.tgz:3158.got - 2010.06.03 15:17:17.
