data_PCOD9459958
_publ_section_title
;
Structure prediction by ZEFSAII (Michael W. Deem and Ramdas Pophale) SiO2 
 PCOD9459958
Probable space group: P B C A
;
_chemical_formula_sum "Si O2"
_cell_formula_units_Z 48
_cell_length_a 8.357481
_cell_length_b 8.788324
_cell_length_c 27.083524
_cell_angle_alpha 90.000000
_cell_angle_beta 90.000000
_cell_angle_gamma 90.000000
_cell_volume 1989.237465
_symmetry_space_group_name_H-M "P B C A"
_symmetry_group_IT_number 61
_symmetry_cell_setting 'orthorhombic'
loop_
_space_group_symop_operation_xyz
x,y,z
1/2-x,-y,1/2+z
1/2+x,1/2-y,-z
-x,1/2+y,1/2-z
-x,-y,-z
1/2+x,y,1/2-z
1/2-x,1/2+y,z
x,1/2-y,1/2+z
loop_
_atom_site_type_symbol
_atom_site_label
_atom_site_fract_x
_atom_site_fract_y
_atom_site_fract_z
Si Si1 0.937913 0.439549 0.552306
Si Si2 0.245264 0.624267 0.089074
Si Si3 0.805911 0.472833 0.262303
Si Si4 0.406411 0.616659 0.647003
Si Si5 0.360850 0.109288 0.979854
Si Si6 0.598133 0.680822 0.206870
O O1 0.766294 0.520328 0.554378
O O2 0.920236 0.258387 0.547883
O O3 0.000000 0.500000 0.500000
O O4 0.085007 0.468341 0.589207
O O5 0.099981 0.522983 0.109240
O O6 0.279358 0.765037 0.124204
O O7 0.217275 0.667085 0.031912
O O8 0.663045 0.448933 0.301489
O O9 0.739405 0.559451 0.213635
O O10 0.871525 0.306555 0.249288
O O11 0.938820 0.582600 0.284968
O O12 0.564208 0.713844 0.659506
O O13 0.500000 0.000000 0.000000
#
# Coordination Sequence:
#
# PCOD9459958 Si02
#       6
#     8   8   8   8   8   8
#     4  10  21  39  64  96 127 175 225 260 326 416
#     4  11  23  41  64  96 132 172 221 277 342 399
#     4  12  23  43  72  97 133 179 237 272 334 425
#     4  12  23  40  68  97 134 173 220 289 348 381
#     4  11  21  40  70  95 129 178 226 272 327 410
#     4  12  23  43  69 101 130 181 233 273 339 415
#
# _framework density 24.129850000000001
#
# number of rings (size 3 to 8) (size 9 to 14) (size 15 to 20)
#    0.000    0.667    5.000    5.000    0.000    0.000 
#    0.000    3.333    0.000    0.000    0.000    0.000 
#    0.000    0.000    0.000    0.000    0.000    0.000 
#
# Total GULP energy -268187.345459 kJ/mol
# GULP energy per Si atom -5587.236364 kJ/mol
# Density = 2.407493 g / cm^3
# Si number density = 24.129850 Si / 1000 Ang^3
#
#
#
# Elastic Constant Matrix: (Units=GPa)
#
#
# Indices 1 2 3 4 5 6 
#
# 1 68.3742 20.1880 1.6213 0.0000 0.0000 0.0000
# 2 20.1880 108.5597 14.1624 0.0000 0.0000 0.0000
# 3 1.6213 14.1624 77.9289 0.0000 0.0000 0.0000
# 4 0.0000 0.0000 0.0000 35.3638 0.0000 0.0000
# 5 0.0000 0.0000 0.0000 0.0000 31.6139 0.0000
# 6 0.0000 0.0000 0.0000 0.0000 0.0000 46.9054
#
#
#
# Elastic Compliance Matrix: (Units=1/GPa)
#
#
# Indices 1 2 3 4 5 6 
#
# 1 0.015478 -0.002905 0.000206 0.000000 0.000000 0.000000
# 2 -0.002905 0.009981 -0.001753 0.000000 0.000000 0.000000
# 3 0.000206 -0.001753 0.013147 0.000000 0.000000 0.000000
# 4 0.000000 0.000000 0.000000 0.028278 0.000000 0.000000
# 5 0.000000 0.000000 0.000000 0.000000 0.031632 0.000000
# 6 0.000000 0.000000 0.000000 0.000000 0.000000 0.021320
#
#
# Mechanical properties :
#
#
# Convention : Reuss Voigt Hill
#
# Bulk Modulus (GPa) = 33.66993 36.31181 34.99087
# Shear Modulus (GPa) = 36.06479 37.36937 36.71708
#
# Velocity S-wave (km/s) = 3.87022 3.93959 3.90506
# Velocity P-wave (km/s) = 5.82712 5.98122 5.90468
#
# Compressibility (1/GPa) = 0.02970009
#
# Stress axis : x y z
#
# Youngs Moduli (GPa) = 64.60657 100.19508 76.06549
#
# Poissons Ratio (x) = 0.29109 -0.01567
# Poissons Ratio (y) = 0.18770 0.13337
# Poissons Ratio (z) = -0.01331 0.17568
#
# Static dielectric constant tensor:
#      x y z
#    x 2.009560 0.000000 0.000000 
#    y 0.000000 1.899350 0.000000 
#    z 0.000000 0.000000 1.967430 
# 
# From -- ./inp_files/11677.got.cif
#   From: 2010.05.17/outbox.cif.g08.bks.cpg/sg61_6_cif.got.tgz:11677.got - 2010.06.03 15:17:17.
