data_PCOD9459667
_publ_section_title
;
Structure prediction by ZEFSAII (Michael W. Deem and Ramdas Pophale) SiO2 
 PCOD9459667
Probable space group: P B C A
;
_chemical_formula_sum "Si O2"
_cell_formula_units_Z 48
_cell_length_a 15.282991
_cell_length_b 7.840516
_cell_length_c 17.504421
_cell_angle_alpha 90.000000
_cell_angle_beta 90.000000
_cell_angle_gamma 90.000000
_cell_volume 2097.494124
_symmetry_space_group_name_H-M "P B C A"
_symmetry_group_IT_number 61
_symmetry_cell_setting 'orthorhombic'
loop_
_space_group_symop_operation_xyz
x,y,z
1/2-x,-y,1/2+z
1/2+x,1/2-y,-z
-x,1/2+y,1/2-z
-x,-y,-z
1/2+x,y,1/2-z
1/2-x,1/2+y,z
x,1/2-y,1/2+z
loop_
_atom_site_type_symbol
_atom_site_label
_atom_site_fract_x
_atom_site_fract_y
_atom_site_fract_z
Si Si1 0.832478 0.311638 0.458342
Si Si2 0.031355 0.288216 0.964187
Si Si3 0.862352 0.903607 0.269714
Si Si4 0.121168 0.960209 0.893582
Si Si5 0.985904 0.383215 0.123103
Si Si6 0.788300 0.899400 0.857136
O O1 0.924892 0.215692 0.463877
O O2 0.813825 0.393968 0.540714
O O3 0.751467 0.204405 0.428217
O O4 0.846175 0.452875 0.392909
O O5 0.059057 0.444408 0.909380
O O6 0.063596 0.104087 0.937039
O O7 0.051369 0.329070 0.052942
O O8 0.847350 0.946161 0.182010
O O9 0.960349 0.929087 0.301121
O O10 0.837455 0.713885 0.295577
O O11 0.796858 0.022167 0.317167
O O12 0.071883 0.786563 0.866959
#
# Coordination Sequence:
#
# PCOD9459667 Si02
#       6
#     8   8   8   8   8   8
#     4  10  20  41  62  88 115 165 213 242 298 370
#     4  10  20  40  64  89 119 155 202 251 303 364
#     4  11  23  40  58  93 122 160 201 247 318 355
#     4  11  24  38  62  94 121 155 201 262 306 353
#     4  10  21  39  63  89 120 154 199 250 306 364
#     4  10  22  40  64  80 124 170 202 247 293 376
#
# _framework density 22.884450999999999
#
# number of rings (size 3 to 8) (size 9 to 14) (size 15 to 20)
#    0.000    1.667    1.667    4.000    2.333    1.333 
#    6.000    0.000    0.000    0.000    0.000    0.000 
#    0.000    0.000    0.000    0.000    0.000    0.000 
#
# Total GULP energy -268131.460638 kJ/mol
# GULP energy per Si atom -5586.072097 kJ/mol
# Density = 2.283236 g / cm^3
# Si number density = 22.884451 Si / 1000 Ang^3
#
#
#
# Elastic Constant Matrix: (Units=GPa)
#
#
# Indices 1 2 3 4 5 6 
#
# 1 16.6076 2.4875 8.3366 0.0000 0.0000 0.0000
# 2 2.4875 88.7928 16.0567 0.0000 0.0000 0.0000
# 3 8.3366 16.0567 102.1056 0.0000 0.0000 0.0000
# 4 0.0000 0.0000 0.0000 24.9222 0.0000 0.0000
# 5 0.0000 0.0000 0.0000 0.0000 11.0491 0.0000
# 6 0.0000 0.0000 0.0000 0.0000 0.0000 7.4256
#
#
#
# Elastic Compliance Matrix: (Units=1/GPa)
#
#
# Indices 1 2 3 4 5 6 
#
# 1 0.062850 -0.000857 -0.004997 0.000000 0.000000 0.000000
# 2 -0.000857 0.011604 -0.001755 0.000000 0.000000 0.000000
# 3 -0.004997 -0.001755 0.010478 0.000000 0.000000 0.000000
# 4 0.000000 0.000000 0.000000 0.040125 0.000000 0.000000
# 5 0.000000 0.000000 0.000000 0.000000 0.090505 0.000000
# 6 0.000000 0.000000 0.000000 0.000000 0.000000 0.134669
#
#
# Mechanical properties :
#
#
# Convention : Reuss Voigt Hill
#
# Bulk Modulus (GPa) = 14.34431 29.02972 21.68701
# Shear Modulus (GPa) = 12.86386 20.72106 16.79246
#
# Velocity S-wave (km/s) = 2.37348 3.01236 2.71180
# Velocity P-wave (km/s) = 3.71389 4.98116 4.39346
#
# Compressibility (1/GPa) = 0.06971406
#
# Stress axis : x y z
#
# Youngs Moduli (GPa) = 15.91089 86.18086 95.44092
#
# Poissons Ratio (x) = 0.07387 0.47689
# Poissons Ratio (y) = 0.01364 0.16747
# Poissons Ratio (z) = 0.07950 0.15122
#
# Static dielectric constant tensor:
#      x y z
#    x 1.868770 0.000000 0.000000 
#    y 0.000000 1.909530 0.000000 
#    z 0.000000 0.000000 1.857070 
# 
# From -- ./inp_files/3411.got.cif
#   From: 2010.05.17/outbox.cif.g08.bks.cpg/sg61_2_cif.got.tgz:3411.got - 2010.06.03 15:17:17.
