data_PCOD9459306
_publ_section_title
;
Structure prediction by ZEFSAII (Michael W. Deem and Ramdas Pophale) SiO2 
 PCOD9459306
Probable space group: P B C A
;
_chemical_formula_sum "Si O2"
_cell_formula_units_Z 56
_cell_length_a 19.856365
_cell_length_b 13.144132
_cell_length_c 11.356927
_cell_angle_alpha 90.000000
_cell_angle_beta 90.000000
_cell_angle_gamma 90.000000
_cell_volume 2964.097558
_symmetry_space_group_name_H-M "P B C A"
_symmetry_group_IT_number 61
_symmetry_cell_setting 'orthorhombic'
loop_
_space_group_symop_operation_xyz
x,y,z
1/2-x,-y,1/2+z
1/2+x,1/2-y,-z
-x,1/2+y,1/2-z
-x,-y,-z
1/2+x,y,1/2-z
1/2-x,1/2+y,z
x,1/2-y,1/2+z
loop_
_atom_site_type_symbol
_atom_site_label
_atom_site_fract_x
_atom_site_fract_y
_atom_site_fract_z
Si Si1 0.984652 0.584061 0.177425
Si Si2 0.814055 0.081767 0.953712
Si Si3 0.601776 0.828897 0.670368
Si Si4 0.806657 0.453468 0.046224
Si Si5 0.717941 0.796328 0.858420
Si Si6 0.838555 0.926470 0.768951
Si Si7 0.549728 0.616559 0.561826
O O1 0.908396 0.610183 0.213890
O O2 0.986438 0.462840 0.148987
O O3 0.036109 0.615116 0.279280
O O4 0.006175 0.637740 0.054435
O O5 0.741923 0.035028 0.987712
O O6 0.795038 0.178324 0.875396
O O7 0.852204 0.992093 0.885366
O O8 0.859623 0.118701 0.061924
O O9 0.655313 0.829673 0.777329
O O10 0.578417 0.716116 0.627085
O O11 0.782277 0.347211 0.989305
O O12 0.805955 0.488955 0.181329
O O13 0.885660 0.448628 0.017011
O O14 0.785397 0.837629 0.796249
#
# Coordination Sequence:
#
# PCOD9459306 Si02
#       7
#     8   8   8   8   8   8   8
#     4  10  22  41  62  91 130 169 206 259 313 379
#     4  11  23  36  68  92 122 165 212 262 312 376
#     4  12  21  41  68  94 121 171 214 252 312 393
#     4  10  19  38  64  91 118 158 212 256 309 368
#     4  11  21  39  62  95 121 166 208 260 311 372
#     4  10  23  41  59  93 131 155 209 268 311 370
#     4  10  21  40  68  88 126 172 212 246 319 389
#
# _framework density 18.892764
#
# number of rings (size 3 to 8) (size 9 to 14) (size 15 to 20)
#    0.000    1.429    4.286    1.714    0.000    0.571 
#    7.714    0.000    6.286    0.000    0.000    0.000 
#    0.000    0.000    0.000    0.000    0.000    0.000 
#
# Total GULP energy -311895.393101 kJ/mol
# GULP energy per Si atom -5569.560591 kJ/mol
# Density = 1.884976 g / cm^3
# Si number density = 18.892764 Si / 1000 Ang^3
#
#
#
# Elastic Constant Matrix: (Units=GPa)
#
#
# Indices 1 2 3 4 5 6 
#
# 1 111.8415 38.6674 37.5952 0.0000 0.0000 0.0000
# 2 38.6674 26.7673 13.9653 0.0000 0.0000 0.0000
# 3 37.5952 13.9653 57.2576 0.0000 0.0000 0.0000
# 4 0.0000 0.0000 0.0000 23.6751 0.0000 0.0000
# 5 0.0000 0.0000 0.0000 0.0000 34.0631 0.0000
# 6 0.0000 0.0000 0.0000 0.0000 0.0000 26.1522
#
#
#
# Elastic Compliance Matrix: (Units=1/GPa)
#
#
# Indices 1 2 3 4 5 6 
#
# 1 0.020036 -0.025299 -0.006985 0.000000 0.000000 0.000000
# 2 -0.025299 0.074751 -0.001621 0.000000 0.000000 0.000000
# 3 -0.006985 -0.001621 0.022447 0.000000 0.000000 0.000000
# 4 0.000000 0.000000 0.000000 0.042239 0.000000 0.000000
# 5 0.000000 0.000000 0.000000 0.000000 0.029357 0.000000
# 6 0.000000 0.000000 0.000000 0.000000 0.000000 0.038238
#
#
# Mechanical properties :
#
#
# Convention : Reuss Voigt Hill
#
# Bulk Modulus (GPa) = 20.23314 41.81360 31.02337
# Shear Modulus (GPa) = 16.05903 23.82064 19.93984
#
# Velocity S-wave (km/s) = 2.91866 3.55467 3.25225
# Velocity P-wave (km/s) = 4.70008 6.24722 5.52804
#
# Compressibility (1/GPa) = 0.04942388
#
# Stress axis : x y z
#
# Youngs Moduli (GPa) = 49.91016 13.37775 44.55021
#
# Poissons Ratio (x) = 0.33845 0.31119
# Poissons Ratio (y) = 1.26268 0.07220
# Poissons Ratio (z) = 0.34863 0.02168
#
# Static dielectric constant tensor:
#      x y z
#    x 1.644650 0.000000 0.000000 
#    y 0.000000 1.665160 0.000000 
#    z 0.000000 0.000000 1.715040 
# 
# From -- ./inp_files/6459.got.cif
#   From: 2010.05.17/outbox.cif.g08.bks.cpg/sg61_4_cif.got.tgz:6459.got - 2010.06.03 15:17:17.
