data_PCOD9459459
_publ_section_title
;
Structure prediction by ZEFSAII (Michael W. Deem and Ramdas Pophale) SiO2 
 PCOD9459459
Probable space group: P B C A
;
_chemical_formula_sum "Si O2"
_cell_formula_units_Z 64
_cell_length_a 8.822177
_cell_length_b 15.679684
_cell_length_c 21.673609
_cell_angle_alpha 90.000000
_cell_angle_beta 90.000000
_cell_angle_gamma 90.000000
_cell_volume 2998.087523
_symmetry_space_group_name_H-M "P B C A"
_symmetry_group_IT_number 61
_symmetry_cell_setting 'orthorhombic'
loop_
_space_group_symop_operation_xyz
x,y,z
1/2-x,-y,1/2+z
1/2+x,1/2-y,-z
-x,1/2+y,1/2-z
-x,-y,-z
1/2+x,y,1/2-z
1/2-x,1/2+y,z
x,1/2-y,1/2+z
loop_
_atom_site_type_symbol
_atom_site_label
_atom_site_fract_x
_atom_site_fract_y
_atom_site_fract_z
Si Si1 0.725029 0.725248 0.313834
Si Si2 0.495903 0.960575 0.209033
Si Si3 0.698978 0.710341 0.943711
Si Si4 0.576782 0.199904 0.709180
Si Si5 0.141600 0.978775 0.420672
Si Si6 0.666688 0.036070 0.318870
Si Si7 0.965606 0.579693 0.594078
Si Si8 0.475794 0.642798 0.482441
O O1 0.755243 0.786881 0.372439
O O2 0.790238 0.759847 0.249318
O O3 0.544514 0.727165 0.306210
O O4 0.793356 0.633987 0.329727
O O5 0.494138 0.871327 0.245291
O O6 0.600729 0.958003 0.149487
O O7 0.567051 0.026966 0.257214
O O8 0.325161 0.986504 0.191232
O O9 0.578043 0.633533 0.948903
O O10 0.606068 0.796510 0.956223
O O11 0.838463 0.697343 0.989221
O O12 0.597612 0.147570 0.645597
O O13 0.318156 0.963450 0.434466
O O14 0.045474 0.915522 0.463520
O O15 0.090370 0.075337 0.433835
O O16 0.568838 0.990339 0.371605
#
# Coordination Sequence:
#
# PCOD9459459 Si02
#       8
#     8   8   8   8   8   8   8   8
#     4  11  22  37  59  89 124 155 197 249 301 364
#     4  11  20  38  60  85 125 160 198 247 307 372
#     4  11  24  43  63  88 124 165 208 264 313 362
#     4  10  20  36  59  89 120 156 192 236 305 379
#     4  11  23  41  64  90 120 161 209 262 309 363
#     4  11  22  36  60  94 125 162 202 244 306 383
#     4  10  22  41  64  90 122 159 201 252 318 378
#     4  11  25  42  63  88 118 162 215 260 307 361
#
# _framework density 21.346941999999999
#
# number of rings (size 3 to 8) (size 9 to 14) (size 15 to 20)
#    0.000    1.250    0.000    8.250    0.000    3.500 
#    0.000    2.500    0.000    0.000    0.000    0.000 
#    0.000    0.000    0.000    0.000    0.000    0.000 
#
# Total GULP energy -357889.481904 kJ/mol
# GULP energy per Si atom -5592.023155 kJ/mol
# Density = 2.129836 g / cm^3
# Si number density = 21.346942 Si / 1000 Ang^3
#
#
#
# Elastic Constant Matrix: (Units=GPa)
#
#
# Indices 1 2 3 4 5 6 
#
# 1 83.8413 39.4474 -1.1694 0.0000 0.0000 0.0000
# 2 39.4474 82.8224 -5.7670 0.0000 0.0000 0.0000
# 3 -1.1694 -5.7670 18.4287 0.0000 0.0000 0.0000
# 4 0.0000 0.0000 0.0000 6.9299 0.0000 0.0000
# 5 0.0000 0.0000 0.0000 0.0000 29.8786 0.0000
# 6 0.0000 0.0000 0.0000 0.0000 0.0000 37.2030
#
#
#
# Elastic Compliance Matrix: (Units=1/GPa)
#
#
# Indices 1 2 3 4 5 6 
#
# 1 0.015405 -0.007431 -0.001348 0.000000 0.000000 0.000000
# 2 -0.007431 0.015928 0.004513 0.000000 0.000000 0.000000
# 3 -0.001348 0.004513 0.055590 0.000000 0.000000 0.000000
# 4 0.000000 0.000000 0.000000 0.144303 0.000000 0.000000
# 5 0.000000 0.000000 0.000000 0.000000 0.033469 0.000000
# 6 0.000000 0.000000 0.000000 0.000000 0.000000 0.026880
#
#
# Mechanical properties :
#
#
# Convention : Reuss Voigt Hill
#
# Bulk Modulus (GPa) = 12.75672 27.79051 20.27362
# Shear Modulus (GPa) = 15.32635 24.97438 20.15036
#
# Velocity S-wave (km/s) = 2.68239 3.42413 3.07570
# Velocity P-wave (km/s) = 3.94747 5.35534 4.70437
#
# Compressibility (1/GPa) = 0.07839004
#
# Stress axis : x y z
#
# Youngs Moduli (GPa) = 64.91492 62.78426 17.98885
#
# Poissons Ratio (x) = 0.46655 0.02425
# Poissons Ratio (y) = 0.48238 -0.08118
# Poissons Ratio (z) = 0.08750 -0.28333
#
# Static dielectric constant tensor:
#      x y z
#    x 1.756270 0.000000 0.000000 
#    y 0.000000 1.768220 0.000000 
#    z 0.000000 0.000000 1.768230 
# 
# From -- ./inp_files/10902.got.cif
#   From: 2010.05.17/outbox.cif.g08.bks.cpg/sg61_6_cif.got.tgz:10902.got - 2010.06.03 15:17:17.
