data_PCOD9459440
_publ_section_title
;
Structure prediction by ZEFSAII (Michael W. Deem and Ramdas Pophale) SiO2 
 PCOD9459440
Probable space group: P B C A
;
_chemical_formula_sum "Si O2"
_cell_formula_units_Z 48
_cell_length_a 29.650764
_cell_length_b 11.670519
_cell_length_c 5.188733
_cell_angle_alpha 90.000000
_cell_angle_beta 90.000000
_cell_angle_gamma 90.000000
_cell_volume 1795.508154
_symmetry_space_group_name_H-M "P B C A"
_symmetry_group_IT_number 61
_symmetry_cell_setting 'orthorhombic'
loop_
_space_group_symop_operation_xyz
x,y,z
1/2-x,-y,1/2+z
1/2+x,1/2-y,-z
-x,1/2+y,1/2-z
-x,-y,-z
1/2+x,y,1/2-z
1/2-x,1/2+y,z
x,1/2-y,1/2+z
loop_
_atom_site_type_symbol
_atom_site_label
_atom_site_fract_x
_atom_site_fract_y
_atom_site_fract_z
Si Si1 0.107681 0.617443 0.179491
Si Si2 0.556125 0.935037 0.331550
Si Si3 0.201138 0.076980 0.137941
Si Si4 0.976324 0.810365 0.309316
Si Si5 0.610077 0.123555 0.575156
Si Si6 0.798578 0.086434 0.358065
O O1 0.075066 0.636546 0.423784
O O2 0.120979 0.485099 0.241679
O O3 0.157674 0.669011 0.154625
O O4 0.081640 0.615264 0.914060
O O5 0.503126 0.924468 0.273069
O O6 0.575014 0.062528 0.375879
O O7 0.156458 0.151752 0.070134
O O8 0.248785 0.142721 0.125058
O O9 0.196196 0.002116 0.399366
O O10 0.204701 0.983669 0.909249
O O11 0.991201 0.778252 0.591384
O O12 0.922441 0.807819 0.268198
#
# Coordination Sequence:
#
# PCOD9459440 Si02
#       6
#     8   8   8   8   8   8
#     4   9  17  30  57  79 108 127 175 212 265 302
#     4  10  20  36  56  78 100 139 179 221 259 315
#     4   9  16  25  48  74 115 128 159 204 266 304
#     4  12  27  39  53  76 108 141 180 224 273 318
#     4   9  21  35  58  78 105 141 178 217 267 315
#     4   9  14  26  42  83 112 126 152 213 265 298
#
# _framework density 26.733376
#
# number of rings (size 3 to 8) (size 9 to 14) (size 15 to 20)
#    1.000    1.333    1.667    1.500    2.333    0.667 
#    0.000    0.000    0.000    0.000    0.000    7.000 
#    0.000    0.000    0.000    0.000    0.000    0.000 
#
# Total GULP energy -267739.368533 kJ/mol
# GULP energy per Si atom -5577.903511 kJ/mol
# Density = 2.667253 g / cm^3
# Si number density = 26.733376 Si / 1000 Ang^3
#
#
#
# Elastic Constant Matrix: (Units=GPa)
#
#
# Indices 1 2 3 4 5 6 
#
# 1 204.4128 0.6147 26.3023 0.0000 0.0000 0.0000
# 2 0.6147 38.7995 5.5430 0.0000 0.0000 0.0000
# 3 26.3023 5.5430 185.8499 0.0000 0.0000 0.0000
# 4 0.0000 0.0000 0.0000 5.2044 0.0000 0.0000
# 5 0.0000 0.0000 0.0000 0.0000 -46.0081 0.0000
# 6 0.0000 0.0000 0.0000 0.0000 0.0000 1.4336
#
#
#
# Elastic Compliance Matrix: (Units=1/GPa)
#
#
# Indices 1 2 3 4 5 6 
#
# 1 0.004983 0.000022 -0.000706 0.000000 0.000000 0.000000
# 2 0.000022 0.025884 -0.000775 0.000000 0.000000 0.000000
# 3 -0.000706 -0.000775 0.005504 0.000000 0.000000 0.000000
# 4 0.000000 0.000000 0.000000 0.192146 0.000000 0.000000
# 5 0.000000 0.000000 0.000000 0.000000 -0.021735 0.000000
# 6 0.000000 0.000000 0.000000 0.000000 0.000000 0.697528
#
#
# Mechanical properties :
#
#
# Convention : Reuss Voigt Hill
#
# Bulk Modulus (GPa) = 29.89324 54.88691 42.39007
# Shear Modulus (GPa) = 5.44438 18.56612 12.00525
#
# Velocity S-wave (km/s) = 1.42863 2.63818 2.12143
# Velocity P-wave (km/s) = 3.73196 5.46405 4.67885
#
# Compressibility (1/GPa) = 0.03345238
#
# Stress axis : x y z
#
# Youngs Moduli (GPa) = 200.68961 38.63400 181.69604
#
# Poissons Ratio (x) = -0.00085 0.12825
# Poissons Ratio (y) = -0.00439 0.14083
# Poissons Ratio (z) = 0.14166 0.02994
#
# Static dielectric constant tensor:
#      x y z
#    x 2.283310 0.000000 0.000000 
#    y 0.000000 3.357630 0.000000 
#    z 0.000000 0.000000 2.047880 
# 
# From -- ./inp_files/1446.got.cif
#   From: 2010.05.17/outbox.cif.g08.bks.cpg/sg61_1_cif.got.tgz:1446.got - 2010.06.03 15:17:17.
