data_PCOD9459751
_publ_section_title
;
Structure prediction by ZEFSAII (Michael W. Deem and Ramdas Pophale) SiO2 
 PCOD9459751
Probable space group: P B C A
;
_chemical_formula_sum "Si O2"
_cell_formula_units_Z 56
_cell_length_a 19.613686
_cell_length_b 23.218470
_cell_length_c 4.842553
_cell_angle_alpha 90.000000
_cell_angle_beta 90.000000
_cell_angle_gamma 90.000000
_cell_volume 2205.297571
_symmetry_space_group_name_H-M "P B C A"
_symmetry_group_IT_number 61
_symmetry_cell_setting 'orthorhombic'
loop_
_space_group_symop_operation_xyz
x,y,z
1/2-x,-y,1/2+z
1/2+x,1/2-y,-z
-x,1/2+y,1/2-z
-x,-y,-z
1/2+x,y,1/2-z
1/2-x,1/2+y,z
x,1/2-y,1/2+z
loop_
_atom_site_type_symbol
_atom_site_label
_atom_site_fract_x
_atom_site_fract_y
_atom_site_fract_z
Si Si1 0.671793 0.138543 0.192427
Si Si2 0.917258 0.473471 0.687288
Si Si3 0.433116 0.788405 0.138240
Si Si4 0.272447 0.208973 0.934849
Si Si5 0.940985 0.948759 0.690422
Si Si6 0.267241 0.461216 0.943059
Si Si7 0.921623 0.290521 0.975278
O O1 0.631152 0.177913 0.976683
O O2 0.714123 0.169900 0.431908
O O3 0.611077 0.097985 0.303587
O O4 0.724369 0.096624 0.037389
O O5 0.932867 0.494817 0.379669
O O6 0.841812 0.449089 0.677990
O O7 0.979383 0.433714 0.784826
O O8 0.920759 0.529652 0.886338
O O9 0.431428 0.729465 0.955894
O O10 0.505845 0.817054 0.062754
O O11 0.268709 0.267074 0.124933
O O12 0.348138 0.181720 0.968515
O O13 0.230319 0.504497 0.728976
O O14 0.921408 0.268215 0.662097
#
# Coordination Sequence:
#
# PCOD9459751 Si02
#       7
#     8   8   8   8   8   8   8
#     4  12  24  38  64  92 120 166 206 250 320 370
#     4  10  20  43  59  85 122 153 205 253 311 349
#     4  10  22  39  60  88 124 156 202 254 301 365
#     4  10  22  39  60  90 127 159 200 252 308 370
#     4  10  22  37  65  85 114 163 200 257 298 367
#     4  12  24  41  62  89 124 159 204 260 312 367
#     4   8  16  35  58  79 113 158 191 240 300 354
#
# _framework density 25.393397
#
# number of rings (size 3 to 8) (size 9 to 14) (size 15 to 20)
#    0.000    1.714    2.857    0.857    0.000    5.714 
#    0.000    0.000    0.000   13.714    0.000    0.000 
#    0.000    0.000    0.000    0.000    0.000    0.000 
#
# Total GULP energy -313420.681634 kJ/mol
# GULP energy per Si atom -5596.797886 kJ/mol
# Density = 2.533560 g / cm^3
# Si number density = 25.393397 Si / 1000 Ang^3
#
#
#
# Elastic Constant Matrix: (Units=GPa)
#
#
# Indices 1 2 3 4 5 6 
#
# 1 233.4555 34.1525 0.8768 0.0000 0.0000 0.0000
# 2 34.1525 47.2367 -2.7582 0.0000 0.0000 0.0000
# 3 0.8768 -2.7582 91.5625 0.0000 0.0000 0.0000
# 4 0.0000 0.0000 0.0000 -0.3542 0.0000 0.0000
# 5 0.0000 0.0000 0.0000 0.0000 37.0540 0.0000
# 6 0.0000 0.0000 0.0000 0.0000 0.0000 27.0390
#
#
#
# Elastic Compliance Matrix: (Units=1/GPa)
#
#
# Indices 1 2 3 4 5 6 
#
# 1 0.004792 -0.003474 -0.000151 0.000000 0.000000 0.000000
# 2 -0.003474 0.023725 0.000748 0.000000 0.000000 0.000000
# 3 -0.000151 0.000748 0.010945 0.000000 0.000000 0.000000
# 4 0.000000 0.000000 0.000000 -2.823057 0.000000 0.000000
# 5 0.000000 0.000000 0.000000 0.000000 0.026988 0.000000
# 6 0.000000 0.000000 0.000000 0.000000 0.000000 0.036984
#
#
# Mechanical properties :
#
#
# Convention : Reuss Voigt Hill
#
# Bulk Modulus (GPa) = 29.66443 48.53301 39.09872
# Shear Modulus (GPa) = -1.85005 35.41332 16.78164
#
# Velocity S-wave (km/s) = -0.85448 3.73847 2.57352
# Velocity P-wave (km/s) = 3.27625 6.14726 4.92558
#
# Compressibility (1/GPa) = 0.03371041
#
# Stress axis : x y z
#
# Youngs Moduli (GPa) = 208.67279 42.14950 91.36193
#
# Poissons Ratio (x) = 0.14641 0.01375
# Poissons Ratio (y) = 0.72484 -0.06833
# Poissons Ratio (z) = 0.03141 -0.03153
#
# Static dielectric constant tensor:
#      x y z
#    x 2.070500 0.000000 0.000000 
#    y 0.000000 2.027980 0.000000 
#    z 0.000000 0.000000 1.924240 
# 
# From -- ./inp_files/1035.got.cif
#   From: 2010.05.17/outbox.cif.g08.bks.cpg/sg61_1_cif.got.tgz:1035.got - 2010.06.03 15:17:17.
