data_PCOD9459425
_publ_section_title
;
Structure prediction by ZEFSAII (Michael W. Deem and Ramdas Pophale) SiO2 
 PCOD9459425
Probable space group: P B C A
;
_chemical_formula_sum "Si O2"
_cell_formula_units_Z 64
_cell_length_a 18.222253
_cell_length_b 18.921788
_cell_length_c 8.380807
_cell_angle_alpha 90.000000
_cell_angle_beta 90.000000
_cell_angle_gamma 90.000000
_cell_volume 2889.682208
_symmetry_space_group_name_H-M "P B C A"
_symmetry_group_IT_number 61
_symmetry_cell_setting 'orthorhombic'
loop_
_space_group_symop_operation_xyz
x,y,z
1/2-x,-y,1/2+z
1/2+x,1/2-y,-z
-x,1/2+y,1/2-z
-x,-y,-z
1/2+x,y,1/2-z
1/2-x,1/2+y,z
x,1/2-y,1/2+z
loop_
_atom_site_type_symbol
_atom_site_label
_atom_site_fract_x
_atom_site_fract_y
_atom_site_fract_z
Si Si1 0.447095 0.087902 0.648835
Si Si2 0.726994 0.781522 0.011645
Si Si3 0.755050 0.373500 0.570151
Si Si4 0.117139 0.760648 0.236897
Si Si5 0.151075 0.019782 0.326666
Si Si6 0.078375 0.470313 0.159654
Si Si7 0.224790 0.086124 0.800182
Si Si8 0.423915 0.113666 0.311957
O O1 0.412996 0.167047 0.663481
O O2 0.392180 0.023004 0.691319
O O3 0.511407 0.075731 0.775590
O O4 0.470185 0.087325 0.464233
O O5 0.765490 0.708029 0.050295
O O6 0.694387 0.768884 0.835698
O O7 0.645779 0.785400 0.091686
O O8 0.772233 0.845141 0.087547
O O9 0.700547 0.410743 0.695953
O O10 0.748078 0.400457 0.385793
O O11 0.838767 0.385347 0.626693
O O12 0.063671 0.693808 0.254260
O O13 0.214789 0.964813 0.378400
O O14 0.099597 0.039209 0.475698
O O15 0.146351 0.449639 0.275055
O O16 0.066161 0.553975 0.180850
#
# Coordination Sequence:
#
# PCOD9459425 Si02
#       8
#     8   8   8   8   8   8   8   8
#     4  12  23  44  60  92 135 168 214 264 325 392
#     4  11  18  38  61  93 120 154 220 262 313 365
#     4  10  20  35  59  93 118 153 212 265 316 365
#     4  11  21  36  68  92 116 168 217 263 307 385
#     4  11  21  40  64  87 125 167 210 266 324 386
#     4  11  26  39  62  96 131 170 210 265 334 390
#     4  11  20  39  62  92 124 159 209 273 313 374
#     4  11  21  39  62  91 120 162 216 261 315 383
#
# _framework density 22.147765
#
# number of rings (size 3 to 8) (size 9 to 14) (size 15 to 20)
#    0.000    1.000    7.500    1.500    0.000    0.000 
#    4.500    3.750    0.000    0.000    0.000    0.000 
#    0.000    0.000    0.000    0.000    0.000    0.000 
#
# Total GULP energy -356679.512681 kJ/mol
# GULP energy per Si atom -5573.117386 kJ/mol
# Density = 2.209736 g / cm^3
# Si number density = 22.147765 Si / 1000 Ang^3
#
#
#
# Elastic Constant Matrix: (Units=GPa)
#
#
# Indices 1 2 3 4 5 6 
#
# 1 46.8804 23.3072 6.0605 0.0000 0.0000 0.0000
# 2 23.3072 86.5496 21.5851 0.0000 0.0000 0.0000
# 3 6.0605 21.5851 25.1286 0.0000 0.0000 0.0000
# 4 0.0000 0.0000 0.0000 31.1090 0.0000 0.0000
# 5 0.0000 0.0000 0.0000 0.0000 19.3922 0.0000
# 6 0.0000 0.0000 0.0000 0.0000 0.0000 18.6866
#
#
#
# Elastic Compliance Matrix: (Units=1/GPa)
#
#
# Indices 1 2 3 4 5 6 
#
# 1 0.024630 -0.006556 -0.000309 0.000000 0.000000 0.000000
# 2 -0.006556 0.016449 -0.012548 0.000000 0.000000 0.000000
# 3 -0.000309 -0.012548 0.050649 0.000000 0.000000 0.000000
# 4 0.000000 0.000000 0.000000 0.032145 0.000000 0.000000
# 5 0.000000 0.000000 0.000000 0.000000 0.051567 0.000000
# 6 0.000000 0.000000 0.000000 0.000000 0.000000 0.053514
#
#
# Mechanical properties :
#
#
# Convention : Reuss Voigt Hill
#
# Bulk Modulus (GPa) = 18.90300 28.94047 23.92173
# Shear Modulus (GPa) = 17.51841 21.01129 19.26485
#
# Velocity S-wave (km/s) = 2.81549 3.08342 2.95249
# Velocity P-wave (km/s) = 4.37296 5.07661 4.73786
#
# Compressibility (1/GPa) = 0.05290166
#
# Stress axis : x y z
#
# Youngs Moduli (GPa) = 40.60089 60.79414 19.74383
#
# Poissons Ratio (x) = 0.39854 0.00610
# Poissons Ratio (y) = 0.26616 0.24775
# Poissons Ratio (z) = 0.01255 0.76287
#
# Static dielectric constant tensor:
#      x y z
#    x 1.843210 0.000000 0.000000 
#    y 0.000000 1.889770 0.000000 
#    z 0.000000 0.000000 2.075860 
# 
# From -- ./inp_files/4049.got.cif
#   From: 2010.05.17/outbox.cif.g08.bks.cpg/sg61_3_cif.got.tgz:4049.got - 2010.06.03 15:17:17.
