data_PCOD9459686
_publ_section_title
;
Structure prediction by ZEFSAII (Michael W. Deem and Ramdas Pophale) SiO2 
 PCOD9459686
Probable space group: P B C A
;
_chemical_formula_sum "Si O2"
_cell_formula_units_Z 60
_cell_length_a 11.203801
_cell_length_b 20.387118
_cell_length_c 11.126715
_cell_angle_alpha 90.000000
_cell_angle_beta 90.000000
_cell_angle_gamma 90.000000
_cell_volume 2541.488724
_symmetry_space_group_name_H-M "P B C A"
_symmetry_group_IT_number 61
_symmetry_cell_setting 'orthorhombic'
loop_
_space_group_symop_operation_xyz
x,y,z
1/2-x,-y,1/2+z
1/2+x,1/2-y,-z
-x,1/2+y,1/2-z
-x,-y,-z
1/2+x,y,1/2-z
1/2-x,1/2+y,z
x,1/2-y,1/2+z
loop_
_atom_site_type_symbol
_atom_site_label
_atom_site_fract_x
_atom_site_fract_y
_atom_site_fract_z
Si Si1 0.311620 0.398917 0.407734
Si Si2 0.664420 0.960169 0.351946
Si Si3 0.500000 0.500000 0.500000
Si Si4 0.954371 0.623869 0.589719
Si Si5 0.468794 0.553645 0.282371
Si Si6 0.180512 0.129705 0.476650
Si Si7 0.487580 0.803451 0.160189
Si Si8 0.590043 0.832972 0.638861
O O1 0.300282 0.421880 0.269436
O O2 0.378868 0.454812 0.480926
O O3 0.179531 0.385754 0.453193
O O4 0.396535 0.335831 0.402646
O O5 0.528603 0.942826 0.393030
O O6 0.742890 0.925406 0.453455
O O7 0.642587 0.033267 0.301195
O O8 0.528645 0.492144 0.349806
O O9 0.956356 0.660082 0.716872
O O10 0.030328 0.663686 0.492659
O O11 0.419329 0.585942 0.408123
O O12 0.552594 0.602919 0.213145
O O13 0.119172 0.181065 0.566770
O O14 0.268270 0.165618 0.383440
O O15 0.527805 0.730465 0.194285
#
# Coordination Sequence:
#
# PCOD9459686 Si02
#       8
#     8   8   4   8   8   8   8   8
#     4  10  20  40  70 100 133 187 237 287 361 436
#     4   9  22  43  69 104 137 183 234 295 370 438
#     4  10  22  40  70 104 144 178 236 294 358 440
#     4  10  23  45  70 101 139 192 237 299 375 430
#     4  11  25  44  70 113 143 190 237 302 374 443
#     4  11  24  49  70 103 146 186 242 312 365 441
#     4  11  24  45  69 100 138 194 251 294 372 440
#     4  11  29  44  68 107 144 192 246 308 368 440
#
# _framework density 23.608208999999999
#
# number of rings (size 3 to 8) (size 9 to 14) (size 15 to 20)
#    0.000    1.600    2.667    0.000    3.733    8.533 
#    0.000    0.000    0.000    0.000    0.000    0.000 
#    0.000    0.000    0.000    0.000    0.000    0.000 
#
# Total GULP energy -334415.107080 kJ/mol
# GULP energy per Si atom -5573.585118 kJ/mol
# Density = 2.355448 g / cm^3
# Si number density = 23.608209 Si / 1000 Ang^3
#
#
#
# Elastic Constant Matrix: (Units=GPa)
#
#
# Indices 1 2 3 4 5 6 
#
# 1 97.1234 2.7169 9.9368 0.0000 0.0000 0.0000
# 2 2.7169 40.9507 0.0942 0.0000 0.0000 0.0000
# 3 9.9368 0.0942 69.0832 0.0000 0.0000 0.0000
# 4 0.0000 0.0000 0.0000 30.0756 0.0000 0.0000
# 5 0.0000 0.0000 0.0000 0.0000 35.7149 0.0000
# 6 0.0000 0.0000 0.0000 0.0000 0.0000 13.8412
#
#
#
# Elastic Compliance Matrix: (Units=1/GPa)
#
#
# Indices 1 2 3 4 5 6 
#
# 1 0.010469 -0.000691 -0.001505 0.000000 0.000000 0.000000
# 2 -0.000691 0.024465 0.000066 0.000000 0.000000 0.000000
# 3 -0.001505 0.000066 0.014692 0.000000 0.000000 0.000000
# 4 0.000000 0.000000 0.000000 0.033250 0.000000 0.000000
# 5 0.000000 0.000000 0.000000 0.000000 0.028000 0.000000
# 6 0.000000 0.000000 0.000000 0.000000 0.000000 0.072248
#
#
# Mechanical properties :
#
#
# Convention : Reuss Voigt Hill
#
# Bulk Modulus (GPa) = 22.04276 25.85034 23.94655
# Shear Modulus (GPa) = 24.69067 28.88697 26.78882
#
# Velocity S-wave (km/s) = 3.23747 3.50179 3.37222
# Velocity P-wave (km/s) = 4.83033 5.22719 5.03268
#
# Compressibility (1/GPa) = 0.04536636
#
# Stress axis : x y z
#
# Youngs Moduli (GPa) = 95.51568 40.87425 68.06574
#
# Poissons Ratio (x) = 0.02825 0.10244
# Poissons Ratio (y) = 0.06602 -0.00450
# Poissons Ratio (z) = 0.14375 -0.00270
#
# Static dielectric constant tensor:
#      x y z
#    x 1.823830 0.000000 0.000000 
#    y 0.000000 1.714180 0.000000 
#    z 0.000000 0.000000 0.090210 
# 
# From -- ./inp_files/5402.got.cif
#   From: 2010.05.17/outbox.cif.g08.bks.cpg/sg61_3_cif.got.tgz:5402.got - 2010.06.03 15:17:17.
