data_PCOD9459932
_publ_section_title
;
Structure prediction by ZEFSAII (Michael W. Deem and Ramdas Pophale) SiO2 
 PCOD9459932
Probable space group: P B C A
;
_chemical_formula_sum "Si O2"
_cell_formula_units_Z 64
_cell_length_a 9.554890
_cell_length_b 19.833760
_cell_length_c 14.801694
_cell_angle_alpha 90.000000
_cell_angle_beta 90.000000
_cell_angle_gamma 90.000000
_cell_volume 2805.060076
_symmetry_space_group_name_H-M "P B C A"
_symmetry_group_IT_number 61
_symmetry_cell_setting 'orthorhombic'
loop_
_space_group_symop_operation_xyz
x,y,z
1/2-x,-y,1/2+z
1/2+x,1/2-y,-z
-x,1/2+y,1/2-z
-x,-y,-z
1/2+x,y,1/2-z
1/2-x,1/2+y,z
x,1/2-y,1/2+z
loop_
_atom_site_type_symbol
_atom_site_label
_atom_site_fract_x
_atom_site_fract_y
_atom_site_fract_z
Si Si1 0.115631 0.755302 0.762455
Si Si2 0.590730 0.493530 0.799060
Si Si3 0.725134 0.475518 0.142060
Si Si4 0.994462 0.810331 0.422036
Si Si5 0.930366 0.576124 0.041113
Si Si6 0.745344 0.567379 0.453186
Si Si7 0.621094 0.347166 0.710032
Si Si8 0.280358 0.221481 0.071807
O O1 0.061235 0.694529 0.822666
O O2 0.247899 0.797952 0.796006
O O3 0.144714 0.743232 0.657235
O O4 0.991009 0.808298 0.768235
O O5 0.670808 0.540319 0.725690
O O6 0.425949 0.506077 0.815479
O O7 0.660864 0.484900 0.897435
O O8 0.626372 0.421432 0.752521
O O9 0.799077 0.534826 0.080261
O O10 0.712272 0.423330 0.058593
O O11 0.119047 0.782826 0.485836
O O12 0.943001 0.885897 0.446002
O O13 0.862678 0.761949 0.438536
O O14 0.933241 0.639892 0.109422
O O15 0.083227 0.542444 0.054645
O O16 0.750547 0.642016 0.409486
#
# Coordination Sequence:
#
# PCOD9459932 Si02
#       8
#     8   8   8   8   8   8   8   8
#     4  12  20  36  61  92 124 161 208 270 319 378
#     4  11  21  38  64 100 124 170 224 282 321 396
#     4  11  24  38  70  95 133 173 221 278 343 396
#     4  11  23  38  64  93 132 164 216 275 327 394
#     4  10  21  39  62  93 125 166 212 270 334 392
#     4  11  21  42  66  95 131 170 221 281 332 398
#     4  11  18  35  61  91 118 156 218 267 311 374
#     4  11  24  40  65  95 127 172 221 266 329 393
#
# _framework density 22.815909999999999
#
# number of rings (size 3 to 8) (size 9 to 14) (size 15 to 20)
#    0.000    1.000    5.000    4.500    0.000    1.000 
#    0.000    0.000   24.750    0.000    0.000    0.000 
#    0.000    0.000    0.000    0.000    0.000    0.000 
#
# Total GULP energy -356841.065581 kJ/mol
# GULP energy per Si atom -5575.641650 kJ/mol
# Density = 2.276398 g / cm^3
# Si number density = 22.815910 Si / 1000 Ang^3
#
#
#
# Elastic Constant Matrix: (Units=GPa)
#
#
# Indices 1 2 3 4 5 6 
#
# 1 139.1075 29.5299 30.6870 0.0000 0.0000 0.0000
# 2 29.5299 42.1536 16.8111 0.0000 0.0000 0.0000
# 3 30.6870 16.8111 114.5585 0.0000 0.0000 0.0000
# 4 0.0000 0.0000 0.0000 28.9038 0.0000 0.0000
# 5 0.0000 0.0000 0.0000 0.0000 83.7820 0.0000
# 6 0.0000 0.0000 0.0000 0.0000 0.0000 20.1646
#
#
#
# Elastic Compliance Matrix: (Units=1/GPa)
#
#
# Indices 1 2 3 4 5 6 
#
# 1 0.008688 -0.005479 -0.001523 0.000000 0.000000 0.000000
# 2 -0.005479 0.028652 -0.002737 0.000000 0.000000 0.000000
# 3 -0.001523 -0.002737 0.009539 0.000000 0.000000 0.000000
# 4 0.000000 0.000000 0.000000 0.034597 0.000000 0.000000
# 5 0.000000 0.000000 0.000000 0.000000 0.011936 0.000000
# 6 0.000000 0.000000 0.000000 0.000000 0.000000 0.049592
#
#
# Mechanical properties :
#
#
# Convention : Reuss Voigt Hill
#
# Bulk Modulus (GPa) = 36.49492 49.98617 43.24055
# Shear Modulus (GPa) = 29.13496 41.15621 35.14559
#
# Velocity S-wave (km/s) = 3.57733 4.25177 3.92905
# Velocity P-wave (km/s) = 5.75267 6.78671 6.29097
#
# Compressibility (1/GPa) = 0.02740107
#
# Stress axis : x y z
#
# Youngs Moduli (GPa) = 115.10535 34.90135 104.83440
#
# Poissons Ratio (x) = 0.19121 0.15969
# Poissons Ratio (y) = 0.63061 0.28694
# Poissons Ratio (z) = 0.17533 0.09553
#
# Static dielectric constant tensor:
#      x y z
#    x 1.835210 0.000000 0.000000 
#    y 0.000000 1.868680 0.000000 
#    z 0.000000 0.000000 1.972470 
# 
# From -- ./inp_files/9060.got.cif
#   From: 2010.05.17/outbox.cif.g08.bks.cpg/sg61_5_cif.got.tgz:9060.got - 2010.06.03 15:17:17.
