data_PCOD9459804
_publ_section_title
;
Structure prediction by ZEFSAII (Michael W. Deem and Ramdas Pophale) SiO2 
 PCOD9459804
Probable space group: P B C A
;
_chemical_formula_sum "Si O2"
_cell_formula_units_Z 64
_cell_length_a 9.190863
_cell_length_b 13.679095
_cell_length_c 24.517863
_cell_angle_alpha 90.000000
_cell_angle_beta 90.000000
_cell_angle_gamma 90.000000
_cell_volume 3082.451643
_symmetry_space_group_name_H-M "P B C A"
_symmetry_group_IT_number 61
_symmetry_cell_setting 'orthorhombic'
loop_
_space_group_symop_operation_xyz
x,y,z
1/2-x,-y,1/2+z
1/2+x,1/2-y,-z
-x,1/2+y,1/2-z
-x,-y,-z
1/2+x,y,1/2-z
1/2-x,1/2+y,z
x,1/2-y,1/2+z
loop_
_atom_site_type_symbol
_atom_site_label
_atom_site_fract_x
_atom_site_fract_y
_atom_site_fract_z
Si Si1 0.391416 0.384505 0.822697
Si Si2 0.086980 0.728986 0.675845
Si Si3 0.807441 0.401575 0.490279
Si Si4 0.803446 0.091110 0.534021
Si Si5 0.158093 0.313955 0.747121
Si Si6 0.559154 0.765533 0.584856
Si Si7 0.477269 0.939931 0.399259
Si Si8 0.263238 0.208875 0.075324
O O1 0.262006 0.389463 0.779203
O O2 0.542524 0.369102 0.791052
O O3 0.356671 0.288910 0.859600
O O4 0.407523 0.471970 0.865436
O O5 0.230139 0.743659 0.713792
O O6 0.120322 0.797926 0.623478
O O7 0.946575 0.756783 0.710938
O O8 0.057778 0.626548 0.645614
O O9 0.699014 0.475349 0.521322
O O10 0.886304 0.335553 0.536061
O O11 0.751845 0.317696 0.450120
O O12 0.913117 0.462917 0.449562
O O13 0.923592 0.153264 0.566527
O O14 0.655244 0.111904 0.568200
O O15 0.797476 0.139333 0.474625
O O16 0.397924 0.803001 0.597508
#
# Coordination Sequence:
#
# PCOD9459804 Si02
#       8
#     8   8   8   8   8   8   8   8
#     4  11  22  40  65  89 121 157 211 259 313 365
#     4  10  22  41  64  89 119 162 213 258 318 363
#     4  10  21  36  57  93 125 166 204 241 305 390
#     4  11  21  35  59  91 128 162 200 247 304 390
#     4  10  23  42  64  88 116 160 213 270 310 362
#     4  11  20  37  62  88 126 162 204 250 312 375
#     4  11  21  37  64  90 124 166 207 248 315 380
#     4  10  21  37  60  90 126 168 203 246 311 376
#
# _framework density 20.762694
#
# number of rings (size 3 to 8) (size 9 to 14) (size 15 to 20)
#    0.000    1.500    3.750    1.875    0.000    1.500 
#    0.000    1.250    2.750    0.000    0.000    0.000 
#    0.000    0.000    0.000    0.000    0.000    0.000 
#
# Total GULP energy -356567.758644 kJ/mol
# GULP energy per Si atom -5571.371229 kJ/mol
# Density = 2.071544 g / cm^3
# Si number density = 20.762694 Si / 1000 Ang^3
#
#
#
# Elastic Constant Matrix: (Units=GPa)
#
#
# Indices 1 2 3 4 5 6 
#
# 1 72.7180 1.7751 48.6295 0.0000 0.0000 0.0000
# 2 1.7751 47.5418 25.5716 0.0000 0.0000 0.0000
# 3 48.6295 25.5716 120.6193 0.0000 0.0000 0.0000
# 4 0.0000 0.0000 0.0000 34.4336 0.0000 0.0000
# 5 0.0000 0.0000 0.0000 0.0000 39.3576 0.0000
# 6 0.0000 0.0000 0.0000 0.0000 0.0000 19.8377
#
#
#
# Elastic Compliance Matrix: (Units=1/GPa)
#
#
# Indices 1 2 3 4 5 6 
#
# 1 0.019462 0.003943 -0.008682 0.000000 0.000000 0.000000
# 2 0.003943 0.024540 -0.006792 0.000000 0.000000 0.000000
# 3 -0.008682 -0.006792 0.013231 0.000000 0.000000 0.000000
# 4 0.000000 0.000000 0.000000 0.029041 0.000000 0.000000
# 5 0.000000 0.000000 0.000000 0.000000 0.025408 0.000000
# 6 0.000000 0.000000 0.000000 0.000000 0.000000 0.050409
#
#
# Mechanical properties :
#
#
# Convention : Reuss Voigt Hill
#
# Bulk Modulus (GPa) = 29.26521 43.64796 36.45659
# Shear Modulus (GPa) = 25.43954 29.71931 27.57942
#
# Velocity S-wave (km/s) = 3.50416 3.78746 3.64856
# Velocity P-wave (km/s) = 5.52249 6.33991 5.94526
#
# Compressibility (1/GPa) = 0.03417027
#
# Stress axis : x y z
#
# Youngs Moduli (GPa) = 51.38301 40.74915 75.58034
#
# Poissons Ratio (x) = -0.16069 0.65621
# Poissons Ratio (y) = -0.20262 0.51338
# Poissons Ratio (z) = 0.44612 0.27679
#
# Static dielectric constant tensor:
#      x y z
#    x 1.787600 0.000000 0.000000 
#    y 0.000000 1.777360 0.000000 
#    z 0.000000 0.000000 1.751660 
# 
# From -- ./inp_files/10911.got.cif
#   From: 2010.05.17/outbox.cif.g08.bks.cpg/sg61_6_cif.got.tgz:10911.got - 2010.06.03 15:17:17.
