data_PCOD9459696
_publ_section_title
;
Structure prediction by ZEFSAII (Michael W. Deem and Ramdas Pophale) SiO2 
 PCOD9459696
Probable space group: P B C A
;
_chemical_formula_sum "Si O2"
_cell_formula_units_Z 64
_cell_length_a 22.770908
_cell_length_b 7.741141
_cell_length_c 14.393329
_cell_angle_alpha 90.000000
_cell_angle_beta 90.000000
_cell_angle_gamma 90.000000
_cell_volume 2537.152541
_symmetry_space_group_name_H-M "P B C A"
_symmetry_group_IT_number 61
_symmetry_cell_setting 'orthorhombic'
loop_
_space_group_symop_operation_xyz
x,y,z
1/2-x,-y,1/2+z
1/2+x,1/2-y,-z
-x,1/2+y,1/2-z
-x,-y,-z
1/2+x,y,1/2-z
1/2-x,1/2+y,z
x,1/2-y,1/2+z
loop_
_atom_site_type_symbol
_atom_site_label
_atom_site_fract_x
_atom_site_fract_y
_atom_site_fract_z
Si Si1 0.944176 0.855191 0.026114
Si Si2 0.211315 0.022912 0.785188
Si Si3 0.711616 0.724939 0.586587
Si Si4 0.667942 0.145145 0.289310
Si Si5 0.616026 0.043999 0.102171
Si Si6 0.457148 0.201705 0.162552
Si Si7 0.137623 0.898226 0.053407
Si Si8 0.992666 0.327793 0.135250
O O1 0.974149 0.809977 0.927999
O O2 0.910675 0.036829 0.021758
O O3 0.894762 0.714653 0.046180
O O4 0.992859 0.806221 0.103580
O O5 0.227850 0.155024 0.870548
O O6 0.176425 0.149015 0.717502
O O7 0.185826 0.851257 0.832434
O O8 0.271344 0.953829 0.738506
O O9 0.674989 0.551314 0.576577
O O10 0.696931 0.826281 0.492869
O O11 0.620321 0.091081 0.211292
O O12 0.650844 0.066931 0.386609
O O13 0.562915 0.913375 0.083299
O O14 0.394924 0.263789 0.121520
O O15 0.469101 0.250899 0.268891
O O16 0.466874 0.996931 0.151691
#
# Coordination Sequence:
#
# PCOD9459696 Si02
#       8
#     8   8   8   8   8   8   8   8
#     4  11  24  39  62  92 133 175 209 258 305 364
#     4   9  21  43  63  89 115 165 195 264 334 368
#     4  10  21  39  68  88 121 159 209 254 321 383
#     4  10  21  40  62  87 126 152 209 258 313 380
#     4  10  20  41  62  89 127 162 208 258 304 370
#     4  11  23  41  61  91 134 171 213 258 310 362
#     4  12  23  39  60  97 122 165 217 257 301 384
#     4  11  22  40  62  89 130 175 208 257 309 361
#
# _framework density 25.225128000000002
#
# number of rings (size 3 to 8) (size 9 to 14) (size 15 to 20)
#    0.000    1.500    1.250    4.875    1.750    2.000 
#    2.250    2.500    0.000    0.000    0.000    0.000 
#    0.000    0.000    0.000    0.000    0.000    0.000 
#
# Total GULP energy -358157.597733 kJ/mol
# GULP energy per Si atom -5596.212465 kJ/mol
# Density = 2.516771 g / cm^3
# Si number density = 25.225128 Si / 1000 Ang^3
#
#
#
# Elastic Constant Matrix: (Units=GPa)
#
#
# Indices 1 2 3 4 5 6 
#
# 1 49.4922 3.1127 3.5609 0.0000 0.0000 0.0000
# 2 3.1127 70.8015 -3.1316 0.0000 0.0000 0.0000
# 3 3.5609 -3.1316 79.1200 0.0000 0.0000 0.0000
# 4 0.0000 0.0000 0.0000 27.4392 0.0000 0.0000
# 5 0.0000 0.0000 0.0000 0.0000 27.3027 0.0000
# 6 0.0000 0.0000 0.0000 0.0000 0.0000 41.1621
#
#
#
# Elastic Compliance Matrix: (Units=1/GPa)
#
#
# Indices 1 2 3 4 5 6 
#
# 1 0.020333 -0.000936 -0.000952 0.000000 0.000000 0.000000
# 2 -0.000936 0.014192 0.000604 0.000000 0.000000 0.000000
# 3 -0.000952 0.000604 0.012706 0.000000 0.000000 0.000000
# 4 0.000000 0.000000 0.000000 0.036444 0.000000 0.000000
# 5 0.000000 0.000000 0.000000 0.000000 0.036626 0.000000
# 6 0.000000 0.000000 0.000000 0.000000 0.000000 0.024294
#
#
# Mechanical properties :
#
#
# Convention : Reuss Voigt Hill
#
# Bulk Modulus (GPa) = 22.39059 22.94418 22.66739
# Shear Modulus (GPa) = 30.85450 32.23891 31.54671
#
# Velocity S-wave (km/s) = 3.50117 3.57886 3.54023
# Velocity P-wave (km/s) = 5.02393 5.11792 5.07114
#
# Compressibility (1/GPa) = 0.04466161
#
# Stress axis : x y z
#
# Youngs Moduli (GPa) = 49.18213 70.46293 78.70433
#
# Poissons Ratio (x) = 0.06595 0.07494
# Poissons Ratio (y) = 0.04604 -0.04752
# Poissons Ratio (z) = 0.04683 -0.04255
#
# Static dielectric constant tensor:
#      x y z
#    x 2.095430 0.000000 0.000000 
#    y 0.000000 1.951610 0.000000 
#    z 0.000000 0.000000 2.002840 
# 
# From -- ./inp_files/8511.got.cif
#   From: 2010.05.17/outbox.cif.g08.bks.cpg/sg61_5_cif.got.tgz:8511.got - 2010.06.03 15:17:17.
