data_PCOD9459928
_publ_section_title
;
Structure prediction by ZEFSAII (Michael W. Deem and Ramdas Pophale) SiO2 
 PCOD9459928
Probable space group: P B C A
;
_chemical_formula_sum "Si O2"
_cell_formula_units_Z 64
_cell_length_a 5.347439
_cell_length_b 21.373352
_cell_length_c 26.572873
_cell_angle_alpha 90.000000
_cell_angle_beta 90.000000
_cell_angle_gamma 90.000000
_cell_volume 3037.085297
_symmetry_space_group_name_H-M "P B C A"
_symmetry_group_IT_number 61
_symmetry_cell_setting 'orthorhombic'
loop_
_space_group_symop_operation_xyz
x,y,z
1/2-x,-y,1/2+z
1/2+x,1/2-y,-z
-x,1/2+y,1/2-z
-x,-y,-z
1/2+x,y,1/2-z
1/2-x,1/2+y,z
x,1/2-y,1/2+z
loop_
_atom_site_type_symbol
_atom_site_label
_atom_site_fract_x
_atom_site_fract_y
_atom_site_fract_z
Si Si1 0.079379 0.286634 0.937141
Si Si2 0.948913 0.909148 0.039818
Si Si3 0.709256 0.299751 0.451811
Si Si4 0.247888 0.125435 0.282766
Si Si5 0.261206 0.579886 0.394279
Si Si6 0.770172 0.726796 0.719018
Si Si7 0.679030 0.834652 0.115216
Si Si8 0.750313 0.531479 0.444982
O O1 0.799649 0.263540 0.924612
O O2 0.168741 0.351620 0.915753
O O3 0.240040 0.229728 0.914006
O O4 0.059114 0.287718 0.997630
O O5 0.069280 0.842962 0.025689
O O6 0.828211 0.893599 0.093597
O O7 0.160961 0.961722 0.041711
O O8 0.751049 0.930455 0.997693
O O9 0.596259 0.341283 0.407198
O O10 0.501687 0.114124 0.251218
O O11 0.238913 0.086089 0.334057
O O12 0.246340 0.199817 0.296421
O O13 0.488191 0.537743 0.416338
O O14 0.988704 0.559101 0.414072
O O15 0.547212 0.717226 0.759025
O O16 0.716874 0.681191 0.672631
#
# Coordination Sequence:
#
# PCOD9459928 Si02
#       8
#     8   8   8   8   8   8   8   8
#     4  11  22  33  55  97 127 164 198 247 319 387
#     4  10  25  42  61  92 127 179 216 259 308 384
#     4  11  22  36  59  89 136 164 207 251 316 388
#     4  10  21  39  62  91 127 160 205 262 328 386
#     4  12  24  40  65  93 126 168 207 269 313 378
#     4  10  23  40  61  93 126 162 209 259 317 388
#     4  11  23  39  64  87 130 174 203 266 320 389
#     4  11  26  42  65  92 130 172 225 257 306 378
#
# _framework density 21.072838000000001
#
# number of rings (size 3 to 8) (size 9 to 14) (size 15 to 20)
#    0.000    1.250    3.750    1.500    8.750    2.000 
#    0.000    0.000    0.000    4.500    0.000    0.000 
#    0.000    0.000    0.000    0.000    0.000    0.000 
#
# Total GULP energy -357184.640092 kJ/mol
# GULP energy per Si atom -5581.010001 kJ/mol
# Density = 2.102488 g / cm^3
# Si number density = 21.072838 Si / 1000 Ang^3
#
#
#
# Elastic Constant Matrix: (Units=GPa)
#
#
# Indices 1 2 3 4 5 6 
#
# 1 79.9585 10.2040 19.5577 0.0000 0.0000 0.0000
# 2 10.2040 48.7931 12.8436 0.0000 0.0000 0.0000
# 3 19.5577 12.8436 99.6448 0.0000 0.0000 0.0000
# 4 0.0000 0.0000 0.0000 26.7661 0.0000 0.0000
# 5 0.0000 0.0000 0.0000 0.0000 24.6245 0.0000
# 6 0.0000 0.0000 0.0000 0.0000 0.0000 23.6516
#
#
#
# Elastic Compliance Matrix: (Units=1/GPa)
#
#
# Indices 1 2 3 4 5 6 
#
# 1 0.013357 -0.002177 -0.002341 0.000000 0.000000 0.000000
# 2 -0.002177 0.021569 -0.002353 0.000000 0.000000 0.000000
# 3 -0.002341 -0.002353 0.010798 0.000000 0.000000 0.000000
# 4 0.000000 0.000000 0.000000 0.037361 0.000000 0.000000
# 5 0.000000 0.000000 0.000000 0.000000 0.040610 0.000000
# 6 0.000000 0.000000 0.000000 0.000000 0.000000 0.042281
#
#
# Mechanical properties :
#
#
# Convention : Reuss Voigt Hill
#
# Bulk Modulus (GPa) = 31.26686 34.84522 33.05604
# Shear Modulus (GPa) = 26.26346 27.39451 26.82899
#
# Velocity S-wave (km/s) = 3.53415 3.60945 3.57200
# Velocity P-wave (km/s) = 5.61457 5.82601 5.72126
#
# Compressibility (1/GPa) = 0.03198275
#
# Stress axis : x y z
#
# Youngs Moduli (GPa) = 74.86749 46.36216 92.60635
#
# Poissons Ratio (x) = 0.10093 0.21679
# Poissons Ratio (y) = 0.16299 0.21789
# Poissons Ratio (z) = 0.17527 0.10908
#
# Static dielectric constant tensor:
#      x y z
#    x 2.039730 0.000000 0.000000 
#    y 0.000000 1.756220 0.000000 
#    z 0.000000 0.000000 1.752690 
# 
# From -- ./inp_files/11292.got.cif
#   From: 2010.05.17/outbox.cif.g08.bks.cpg/sg61_6_cif.got.tgz:11292.got - 2010.06.03 15:17:17.
