data_PCOD9459043
_publ_section_title
;
Structure prediction by ZEFSAII (Michael W. Deem and Ramdas Pophale) SiO2 
 PCOD9459043
Probable space group: P B C A
;
_chemical_formula_sum "Si O2"
_cell_formula_units_Z 64
_cell_length_a 21.072821
_cell_length_b 18.786845
_cell_length_c 9.223358
_cell_angle_alpha 90.000000
_cell_angle_beta 90.000000
_cell_angle_gamma 90.000000
_cell_volume 3651.452002
_symmetry_space_group_name_H-M "P B C A"
_symmetry_group_IT_number 61
_symmetry_cell_setting 'orthorhombic'
loop_
_space_group_symop_operation_xyz
x,y,z
1/2-x,-y,1/2+z
1/2+x,1/2-y,-z
-x,1/2+y,1/2-z
-x,-y,-z
1/2+x,y,1/2-z
1/2-x,1/2+y,z
x,1/2-y,1/2+z
loop_
_atom_site_type_symbol
_atom_site_label
_atom_site_fract_x
_atom_site_fract_y
_atom_site_fract_z
Si Si1 0.996864 0.934611 0.393018
Si Si2 0.348353 0.561932 0.651046
Si Si3 0.800392 0.397612 0.864181
Si Si4 0.380207 0.325929 0.100845
Si Si5 0.595894 0.684021 0.555845
Si Si6 0.319604 0.549848 0.980118
Si Si7 0.940029 0.022748 0.907030
Si Si8 0.235605 0.610416 0.463541
O O1 0.922780 0.922295 0.362487
O O2 0.033698 0.865746 0.452781
O O3 0.035499 0.963069 0.254016
O O4 0.000000 0.000000 0.500000
O O5 0.332367 0.476962 0.638259
O O6 0.329646 0.577566 0.817499
O O7 0.306195 0.603384 0.530889
O O8 0.782940 0.371333 0.702270
O O9 0.848424 0.350920 0.958761
O O10 0.732360 0.403328 0.940580
O O11 0.387534 0.314619 0.273008
O O12 0.412363 0.400029 0.050570
O O13 0.410854 0.262166 0.010552
O O14 0.306488 0.337707 0.062401
O O15 0.288870 0.471040 0.974676
O O16 0.384886 0.535370 0.066689
O O17 0.000000 0.000000 0.000000
#
# Coordination Sequence:
#
# PCOD9459043 Si02
#       8
#     8   8   8   8   8   8   8   8
#     4  11  22  33  57  88 119 152 192 240 294 351
#     4  10  18  33  53  83 119 145 182 234 291 339
#     4  10  19  32  55  83 110 145 188 234 283 336
#     4  10  22  37  58  82 110 150 195 240 286 347
#     4  11  22  38  59  81 113 151 195 237 290 352
#     4   9  18  31  53  82 112 146 180 233 283 333
#     4  10  20  36  57  85 116 151 193 237 290 348
#     4   9  19  32  55  81 110 142 186 233 282 331
#
# _framework density 17.527274999999999
#
# number of rings (size 3 to 8) (size 9 to 14) (size 15 to 20)
#    0.000    2.000    2.500    1.500    1.750    4.000 
#    0.000    0.000    2.750    1.500    0.000    0.000 
#    0.000    0.000    0.000    0.000    0.000    0.000 
#
# Total GULP energy -356524.187787 kJ/mol
# GULP energy per Si atom -5570.690434 kJ/mol
# Density = 1.748738 g / cm^3
# Si number density = 17.527275 Si / 1000 Ang^3
#
#
#
# Elastic Constant Matrix: (Units=GPa)
#
#
# Indices 1 2 3 4 5 6 
#
# 1 120.9348 21.7097 46.5761 0.0000 0.0000 0.0000
# 2 21.7097 54.0240 36.7863 0.0000 0.0000 0.0000
# 3 46.5761 36.7863 84.6625 0.0000 0.0000 0.0000
# 4 0.0000 0.0000 0.0000 23.9818 0.0000 0.0000
# 5 0.0000 0.0000 0.0000 0.0000 30.8215 0.0000
# 6 0.0000 0.0000 0.0000 0.0000 0.0000 17.3526
#
#
#
# Elastic Compliance Matrix: (Units=1/GPa)
#
#
# Indices 1 2 3 4 5 6 
#
# 1 0.010498 -0.000406 -0.005599 0.000000 0.000000 0.000000
# 2 -0.000406 0.026304 -0.011206 0.000000 0.000000 0.000000
# 3 -0.005599 -0.011206 0.019761 0.000000 0.000000 0.000000
# 4 0.000000 0.000000 0.000000 0.041698 0.000000 0.000000
# 5 0.000000 0.000000 0.000000 0.000000 0.032445 0.000000
# 6 0.000000 0.000000 0.000000 0.000000 0.000000 0.057628
#
#
# Mechanical properties :
#
#
# Convention : Reuss Voigt Hill
#
# Bulk Modulus (GPa) = 45.16510 52.19617 48.68063
# Shear Modulus (GPa) = 21.72629 24.73445 23.23037
#
# Velocity S-wave (km/s) = 3.52457 3.76067 3.64453
# Velocity P-wave (km/s) = 6.51060 6.97864 6.74868
#
# Compressibility (1/GPa) = 0.02214099
#
# Stress axis : x y z
#
# Youngs Moduli (GPa) = 95.25456 38.01739 50.60556
#
# Poissons Ratio (x) = 0.01545 0.28334
# Poissons Ratio (y) = 0.03870 0.56707
# Poissons Ratio (z) = 0.53332 0.42601
#
# Static dielectric constant tensor:
#      x y z
#    x 1.553390 0.000000 0.000000 
#    y 0.000000 1.590440 0.000000 
#    z 0.000000 0.000000 1.642470 
# 
# From -- ./inp_files/4058.got.cif
#   From: 2010.05.17/outbox.cif.g08.bks.cpg/sg61_3_cif.got.tgz:4058.got - 2010.06.03 15:17:17.
