data_PCOD9459288
_publ_section_title
;
Structure prediction by ZEFSAII (Michael W. Deem and Ramdas Pophale) SiO2 
 PCOD9459288
Probable space group: P B C A
;
_chemical_formula_sum "Si O2"
_cell_formula_units_Z 48
_cell_length_a 16.826666
_cell_length_b 8.683992
_cell_length_c 16.161227
_cell_angle_alpha 90.000000
_cell_angle_beta 90.000000
_cell_angle_gamma 90.000000
_cell_volume 2361.521041
_symmetry_space_group_name_H-M "P B C A"
_symmetry_group_IT_number 61
_symmetry_cell_setting 'orthorhombic'
loop_
_space_group_symop_operation_xyz
x,y,z
1/2-x,-y,1/2+z
1/2+x,1/2-y,-z
-x,1/2+y,1/2-z
-x,-y,-z
1/2+x,y,1/2-z
1/2-x,1/2+y,z
x,1/2-y,1/2+z
loop_
_atom_site_type_symbol
_atom_site_label
_atom_site_fract_x
_atom_site_fract_y
_atom_site_fract_z
Si Si1 0.601231 0.611421 0.694024
Si Si2 0.686070 0.860406 0.796006
Si Si3 0.191717 0.832262 0.035892
Si Si4 0.357368 0.940146 0.655844
Si Si5 0.152724 0.503269 0.968141
Si Si6 0.572580 0.110539 0.874840
O O1 0.656195 0.757962 0.718900
O O2 0.585276 0.527778 0.781166
O O3 0.640356 0.492462 0.629310
O O4 0.517252 0.644384 0.651031
O O5 0.700453 0.748646 0.874604
O O6 0.770730 0.947186 0.798040
O O7 0.615395 0.975864 0.821947
O O8 0.140699 0.978678 0.065893
O O9 0.161719 0.688286 0.982558
O O10 0.269891 0.909448 0.997778
O O11 0.379792 0.765091 0.643537
O O12 0.085003 0.440235 0.029743
#
# Coordination Sequence:
#
# PCOD9459288 Si02
#       6
#     8   8   8   8   8   8
#     4  11  25  34  58  95 122 148 195 257 298 335
#     4  10  20  39  60  85 111 157 208 235 279 359
#     4  10  19  37  63  82 107 158 197 235 280 364
#     4  11  20  41  64  85 110 164 207 232 284 355
#     4  11  21  38  58  87 122 148 197 242 307 344
#     4  11  20  41  62  82 123 160 191 240 304 361
#
# _framework density 20.325880999999999
#
# number of rings (size 3 to 8) (size 9 to 14) (size 15 to 20)
#    0.000    1.333    5.000    2.500    2.333    0.000 
#    0.000    0.833    0.000    0.000    0.000    0.000 
#    0.000    0.000    0.000    0.000    0.000    0.000 
#
# Total GULP energy -267333.744520 kJ/mol
# GULP energy per Si atom -5569.453011 kJ/mol
# Density = 2.027962 g / cm^3
# Si number density = 20.325881 Si / 1000 Ang^3
#
#
#
# Elastic Constant Matrix: (Units=GPa)
#
#
# Indices 1 2 3 4 5 6 
#
# 1 46.3015 13.5570 1.1697 0.0000 0.0000 0.0000
# 2 13.5570 74.6150 -10.2672 0.0000 0.0000 0.0000
# 3 1.1697 -10.2672 25.7365 0.0000 0.0000 0.0000
# 4 0.0000 0.0000 0.0000 14.7339 0.0000 0.0000
# 5 0.0000 0.0000 0.0000 0.0000 22.5334 0.0000
# 6 0.0000 0.0000 0.0000 0.0000 0.0000 17.3425
#
#
#
# Elastic Compliance Matrix: (Units=1/GPa)
#
#
# Indices 1 2 3 4 5 6 
#
# 1 0.023010 -0.004576 -0.002871 0.000000 0.000000 0.000000
# 2 -0.004576 0.015091 0.006228 0.000000 0.000000 0.000000
# 3 -0.002871 0.006228 0.041470 0.000000 0.000000 0.000000
# 4 0.000000 0.000000 0.000000 0.067871 0.000000 0.000000
# 5 0.000000 0.000000 0.000000 0.000000 0.044378 0.000000
# 6 0.000000 0.000000 0.000000 0.000000 0.000000 0.057662
#
#
# Mechanical properties :
#
#
# Convention : Reuss Voigt Hill
#
# Bulk Modulus (GPa) = 12.96463 17.28578 15.12520
# Shear Modulus (GPa) = 18.00954 20.40154 19.20554
#
# Velocity S-wave (km/s) = 2.97987 3.17159 3.07723
# Velocity P-wave (km/s) = 4.26986 4.68346 4.48144
#
# Compressibility (1/GPa) = 0.07713295
#
# Stress axis : x y z
#
# Youngs Moduli (GPa) = 43.45961 66.26678 24.11360
#
# Poissons Ratio (x) = 0.30322 0.06923
# Poissons Ratio (y) = 0.19886 -0.15018
# Poissons Ratio (z) = 0.12478 -0.41272
#
# Static dielectric constant tensor:
#      x y z
#    x 1.759800 0.000000 0.000000 
#    y 0.000000 1.779230 0.000000 
#    z 0.000000 0.000000 1.720860 
# 
# From -- ./inp_files/3515.got.cif
#   From: 2010.05.17/outbox.cif.g08.bks.cpg/sg61_2_cif.got.tgz:3515.got - 2010.06.03 15:17:17.
