data_PCOD9459937
_publ_section_title
;
Structure prediction by ZEFSAII (Michael W. Deem and Ramdas Pophale) SiO2 
 PCOD9459937
Probable space group: P B C A
;
_chemical_formula_sum "Si O2"
_cell_formula_units_Z 48
_cell_length_a 9.738344
_cell_length_b 16.370960
_cell_length_c 15.212816
_cell_angle_alpha 90.000000
_cell_angle_beta 90.000000
_cell_angle_gamma 90.000000
_cell_volume 2425.319014
_symmetry_space_group_name_H-M "P B C A"
_symmetry_group_IT_number 61
_symmetry_cell_setting 'orthorhombic'
loop_
_space_group_symop_operation_xyz
x,y,z
1/2-x,-y,1/2+z
1/2+x,1/2-y,-z
-x,1/2+y,1/2-z
-x,-y,-z
1/2+x,y,1/2-z
1/2-x,1/2+y,z
x,1/2-y,1/2+z
loop_
_atom_site_type_symbol
_atom_site_label
_atom_site_fract_x
_atom_site_fract_y
_atom_site_fract_z
Si Si1 0.456297 0.857340 0.905368
Si Si2 0.254770 0.280339 0.348325
Si Si3 0.885703 0.548335 0.269750
Si Si4 0.746930 0.707174 0.344342
Si Si5 0.875137 0.937624 0.229408
Si Si6 0.456050 0.841760 0.097203
O O1 0.343554 0.786267 0.891848
O O2 0.430715 0.921185 0.827237
O O3 0.607048 0.819669 0.890181
O O4 0.444459 0.888134 0.004909
O O5 0.289622 0.246428 0.250632
O O6 0.172319 0.364551 0.333533
O O7 0.396327 0.298014 0.397220
O O8 0.839303 0.627720 0.323692
O O9 0.756993 0.488781 0.258677
O O10 0.012787 0.499007 0.309995
O O11 0.836932 0.773824 0.394990
O O12 0.941263 0.897262 0.316450
#
# Coordination Sequence:
#
# PCOD9459937 Si02
#       6
#     8   8   8   8   8   8
#     4  11  23  39  61  90 120 153 196 249 296 341
#     4  10  21  39  63  85 117 159 201 237 287 362
#     4  11  22  40  63  88 116 159 202 239 289 360
#     4  10  21  39  63  85 117 159 201 237 287 362
#     4  11  22  40  63  88 116 159 202 239 289 360
#     4  11  23  39  61  90 120 153 196 249 296 341
#
# _framework density 19.79121
#
# number of rings (size 3 to 8) (size 9 to 14) (size 15 to 20)
#    0.000    1.333    3.333    4.000    4.667    0.667 
#    0.000    0.000    0.000    5.000    0.000    0.000 
#    0.000    0.000    0.000    0.000    0.000    0.000 
#
# Total GULP energy -268296.137662 kJ/mol
# GULP energy per Si atom -5589.502868 kJ/mol
# Density = 1.974616 g / cm^3
# Si number density = 19.791210 Si / 1000 Ang^3
#
#
#
# Elastic Constant Matrix: (Units=GPa)
#
#
# Indices 1 2 3 4 5 6 
#
# 1 60.7057 -16.3609 10.8148 0.0000 0.0000 0.0000
# 2 -16.3609 34.5011 -19.3920 0.0000 0.0000 0.0000
# 3 10.8148 -19.3920 26.3873 0.0000 0.0000 0.0000
# 4 0.0000 0.0000 0.0000 4.4879 0.0000 0.0000
# 5 0.0000 0.0000 0.0000 0.0000 -35.0261 0.0000
# 6 0.0000 0.0000 0.0000 0.0000 0.0000 36.6180
#
#
#
# Elastic Compliance Matrix: (Units=1/GPa)
#
#
# Indices 1 2 3 4 5 6 
#
# 1 0.018947 0.007872 -0.001980 0.000000 0.000000 0.000000
# 2 0.007872 0.052653 0.035468 0.000000 0.000000 0.000000
# 3 -0.001980 0.035468 0.064774 0.000000 0.000000 0.000000
# 4 0.000000 0.000000 0.000000 0.222820 0.000000 0.000000
# 5 0.000000 0.000000 0.000000 0.000000 -0.028550 0.000000
# 6 0.000000 0.000000 0.000000 0.000000 0.000000 0.027309
#
#
# Mechanical properties :
#
#
# Convention : Reuss Voigt Hill
#
# Bulk Modulus (GPa) = 4.56423 7.96866 6.26645
# Shear Modulus (GPa) = 14.35686 10.98476 12.67081
#
# Velocity S-wave (km/s) = 2.69628 2.35847 2.53301
# Velocity P-wave (km/s) = 3.46474 3.38402 3.42462
#
# Compressibility (1/GPa) = 0.21909481
#
# Stress axis : x y z
#
# Youngs Moduli (GPa) = 52.77787 18.99216 15.43823
#
# Poissons Ratio (x) = -0.14951 0.03057
# Poissons Ratio (y) = -0.41547 -0.54757
# Poissons Ratio (z) = 0.10452 -0.67362
#
# Static dielectric constant tensor:
#      x y z
#    x 1.675050 0.000000 0.000000 
#    y 0.000000 1.685920 0.000000 
#    z 0.000000 0.000000 1.735400 
# 
# From -- ./inp_files/3429.got.cif
#   From: 2010.05.17/outbox.cif.g08.bks.cpg/sg61_2_cif.got.tgz:3429.got - 2010.06.03 15:17:17.
