data_PCOD9459260
_publ_section_title
;
Structure prediction by ZEFSAII (Michael W. Deem and Ramdas Pophale) SiO2 
 PCOD9459260
Probable space group: P B C A
;
_chemical_formula_sum "Si O2"
_cell_formula_units_Z 64
_cell_length_a 8.303764
_cell_length_b 19.625983
_cell_length_c 19.521318
_cell_angle_alpha 90.000000
_cell_angle_beta 90.000000
_cell_angle_gamma 90.000000
_cell_volume 3181.380041
_symmetry_space_group_name_H-M "P B C A"
_symmetry_group_IT_number 61
_symmetry_cell_setting 'orthorhombic'
loop_
_space_group_symop_operation_xyz
x,y,z
1/2-x,-y,1/2+z
1/2+x,1/2-y,-z
-x,1/2+y,1/2-z
-x,-y,-z
1/2+x,y,1/2-z
1/2-x,1/2+y,z
x,1/2-y,1/2+z
loop_
_atom_site_type_symbol
_atom_site_label
_atom_site_fract_x
_atom_site_fract_y
_atom_site_fract_z
Si Si1 0.770100 0.050942 0.546815
Si Si2 0.788193 0.210363 0.060712
Si Si3 0.202590 0.635837 0.158586
Si Si4 0.645995 0.172492 0.479102
Si Si5 0.826364 0.642486 0.195509
Si Si6 0.141856 0.411711 0.023044
Si Si7 0.806436 0.523078 0.837379
Si Si8 0.186921 0.515693 0.808180
O O1 0.643004 0.094432 0.504437
O O2 0.948222 0.081501 0.529852
O O3 0.792202 0.972806 0.524575
O O4 0.733494 0.052556 0.627357
O O5 0.724639 0.284238 0.040069
O O6 0.760603 0.188790 0.139249
O O7 0.689312 0.157868 0.012698
O O8 0.972703 0.200606 0.040372
O O9 0.298244 0.661465 0.225431
O O10 0.242513 0.555366 0.146993
O O11 0.014269 0.641336 0.176111
O O12 0.246579 0.674598 0.089438
O O13 0.763832 0.564155 0.191125
O O14 0.214234 0.427781 0.097960
O O15 0.723581 0.543961 0.766710
O O16 0.997095 0.519033 0.822611
#
# Coordination Sequence:
#
# PCOD9459260 Si02
#       8
#     8   8   8   8   8   8   8   8
#     4  10  19  37  60  84 116 153 190 237 295 349
#     4  12  25  40  59  86 118 157 200 248 296 350
#     4  10  19  36  59  87 118 153 193 238 290 349
#     4  12  25  40  59  86 118 157 200 248 296 350
#     4  10  19  36  59  87 118 153 193 238 290 349
#     4  10  19  37  60  84 116 153 190 237 295 349
#     4   9  18  32  55  84 117 152 187 234 290 344
#     4   9  18  32  55  84 117 152 187 234 290 344
#
# _framework density 20.117056999999999
#
# number of rings (size 3 to 8) (size 9 to 14) (size 15 to 20)
#    0.000    1.750    2.500    3.000    0.000    2.500 
#    0.000    1.250    0.000    3.000    0.000    0.000 
#    0.000    0.000    0.000    0.000    0.000    0.000 
#
# Total GULP energy -357524.763887 kJ/mol
# GULP energy per Si atom -5586.324436 kJ/mol
# Density = 2.007127 g / cm^3
# Si number density = 20.117057 Si / 1000 Ang^3
#
#
#
# Elastic Constant Matrix: (Units=GPa)
#
#
# Indices 1 2 3 4 5 6 
#
# 1 17.2513 -6.1309 -9.4338 0.0000 0.0000 0.0000
# 2 -6.1309 29.9855 4.5335 0.0000 0.0000 0.0000
# 3 -9.4338 4.5335 99.8505 0.0000 0.0000 0.0000
# 4 0.0000 0.0000 0.0000 29.2016 0.0000 0.0000
# 5 0.0000 0.0000 0.0000 0.0000 31.4768 0.0000
# 6 0.0000 0.0000 0.0000 0.0000 0.0000 19.5584
#
#
#
# Elastic Compliance Matrix: (Units=1/GPa)
#
#
# Indices 1 2 3 4 5 6 
#
# 1 0.065496 0.012542 0.005619 0.000000 0.000000 0.000000
# 2 0.012542 0.035982 -0.000449 0.000000 0.000000 0.000000
# 3 0.005619 -0.000449 0.010566 0.000000 0.000000 0.000000
# 4 0.000000 0.000000 0.000000 0.034245 0.000000 0.000000
# 5 0.000000 0.000000 0.000000 0.000000 0.031769 0.000000
# 6 0.000000 0.000000 0.000000 0.000000 0.000000 0.051129
#
#
# Mechanical properties :
#
#
# Convention : Reuss Voigt Hill
#
# Bulk Modulus (GPa) = 6.78113 13.89165 10.33639
# Shear Modulus (GPa) = 20.58298 26.58862 23.58580
#
# Velocity S-wave (km/s) = 3.20216 3.63946 3.42779
# Velocity P-wave (km/s) = 4.12915 4.95795 4.56241
#
# Compressibility (1/GPa) = 0.14746798
#
# Stress axis : x y z
#
# Youngs Moduli (GPa) = 15.26804 27.79197 94.64149
#
# Poissons Ratio (x) = -0.34857 -0.53176
# Poissons Ratio (y) = -0.19149 0.04247
# Poissons Ratio (z) = -0.08579 0.01247
#
# Static dielectric constant tensor:
#      x y z
#    x 1.719310 0.000000 0.000000 
#    y 0.000000 1.689530 0.000000 
#    z 0.000000 0.000000 1.724800 
# 
# From -- ./inp_files/9059.got.cif
#   From: 2010.05.17/outbox.cif.g08.bks.cpg/sg61_5_cif.got.tgz:9059.got - 2010.06.03 15:17:17.
