data_PCOD9459408
_publ_section_title
;
Structure prediction by ZEFSAII (Michael W. Deem and Ramdas Pophale) SiO2 
 PCOD9459408
Probable space group: P B C A
;
_chemical_formula_sum "Si O2"
_cell_formula_units_Z 60
_cell_length_a 24.644257
_cell_length_b 12.516109
_cell_length_c 7.077383
_cell_angle_alpha 90.000000
_cell_angle_beta 90.000000
_cell_angle_gamma 90.000000
_cell_volume 2183.020250
_symmetry_space_group_name_H-M "P B C A"
_symmetry_group_IT_number 61
_symmetry_cell_setting 'orthorhombic'
loop_
_space_group_symop_operation_xyz
x,y,z
1/2-x,-y,1/2+z
1/2+x,1/2-y,-z
-x,1/2+y,1/2-z
-x,-y,-z
1/2+x,y,1/2-z
1/2-x,1/2+y,z
x,1/2-y,1/2+z
loop_
_atom_site_type_symbol
_atom_site_label
_atom_site_fract_x
_atom_site_fract_y
_atom_site_fract_z
Si Si1 0.931493 0.981366 0.915231
Si Si2 0.446232 0.820266 0.234330
Si Si3 0.804347 0.090856 0.414783
Si Si4 0.185283 0.464511 0.587302
Si Si5 0.790605 0.181214 0.835534
Si Si6 0.500000 0.000000 0.000000
Si Si7 0.170146 0.142488 0.691620
Si Si8 0.028197 0.626336 0.270036
O O1 0.942802 0.886306 0.067559
O O2 0.873988 0.965500 0.820609
O O3 0.979655 0.969967 0.761324
O O4 0.939331 0.087941 0.044446
O O5 0.384369 0.788172 0.184136
O O6 0.493696 0.732947 0.235453
O O7 0.461841 0.900930 0.072201
O O8 0.743616 0.065602 0.331387
O O9 0.797525 0.121963 0.635355
O O10 0.821266 0.206834 0.335840
O O11 0.833655 0.976956 0.396108
O O12 0.190334 0.588617 0.523055
O O13 0.177640 0.388165 0.409697
O O14 0.726234 0.196005 0.873416
O O15 0.551163 0.906468 0.929275
#
# Coordination Sequence:
#
# PCOD9459408 Si02
#       8
#     8   8   8   8   8   4   8   8
#     4   9  20  37  58  87 117 157 201 251 306 371
#     4  10  20  38  61  87 121 156 204 254 313 364
#     4  10  20  35  57  85 123 159 201 252 300 362
#     4   9  19  37  57  81 118 156 201 249 300 361
#     4  10  20  35  56  85 118 162 198 246 313 363
#     4  10  22  38  58  92 122 152 206 258 304 384
#     4   9  20  37  57  85 118 157 202 255 299 369
#     4  10  20  37  61  86 123 159 198 255 314 367
#
# _framework density 27.484857000000002
#
# number of rings (size 3 to 8) (size 9 to 14) (size 15 to 20)
#    0.000    2.400    0.000    1.600    1.867    2.133 
#    4.800    0.000    5.867    0.000    0.000    0.000 
#    0.000    0.000    0.000    0.000    0.000    0.000 
#
# Total GULP energy -334350.798108 kJ/mol
# GULP energy per Si atom -5572.513302 kJ/mol
# Density = 2.742230 g / cm^3
# Si number density = 27.484857 Si / 1000 Ang^3
#
#
#
# Elastic Constant Matrix: (Units=GPa)
#
#
# Indices 1 2 3 4 5 6 
#
# 1 79.1293 7.8263 19.2749 0.0000 0.0000 0.0000
# 2 7.8263 161.3111 20.7038 0.0000 0.0000 0.0000
# 3 19.2749 20.7038 72.2426 0.0000 0.0000 0.0000
# 4 0.0000 0.0000 0.0000 42.9901 0.0000 0.0000
# 5 0.0000 0.0000 0.0000 0.0000 29.7802 0.0000
# 6 0.0000 0.0000 0.0000 0.0000 0.0000 25.1124
#
#
#
# Elastic Compliance Matrix: (Units=1/GPa)
#
#
# Indices 1 2 3 4 5 6 
#
# 1 0.013522 -0.000200 -0.003550 0.000000 0.000000 0.000000
# 2 -0.000200 0.006439 -0.001792 0.000000 0.000000 0.000000
# 3 -0.003550 -0.001792 0.015303 0.000000 0.000000 0.000000
# 4 0.000000 0.000000 0.000000 0.023261 0.000000 0.000000
# 5 0.000000 0.000000 0.000000 0.000000 0.033579 0.000000
# 6 0.000000 0.000000 0.000000 0.000000 0.000000 0.039821
#
#
# Mechanical properties :
#
#
# Convention : Reuss Voigt Hill
#
# Bulk Modulus (GPa) = 41.35837 45.36587 43.36212
# Shear Modulus (GPa) = 33.09713 37.23507 35.16610
#
# Velocity S-wave (km/s) = 3.47392 3.68468 3.58085
# Velocity P-wave (km/s) = 5.58311 5.88593 5.73652
#
# Compressibility (1/GPa) = 0.02417890
#
# Stress axis : x y z
#
# Youngs Moduli (GPa) = 73.95253 155.30598 65.34648
#
# Poissons Ratio (x) = 0.03112 0.23201
# Poissons Ratio (y) = 0.01482 0.11709
# Poissons Ratio (z) = 0.26256 0.27828
#
# Static dielectric constant tensor:
#      x y z
#    x 2.257230 0.000000 0.000000 
#    y 0.000000 2.248400 0.000000 
#    z 0.000000 0.000000 2.543040 
# 
# From -- ./inp_files/4482.got.cif
#   From: 2010.05.17/outbox.cif.g08.bks.cpg/sg61_3_cif.got.tgz:4482.got - 2010.06.03 15:17:17.
