data_PCOD9459801
_publ_section_title
;
Structure prediction by ZEFSAII (Michael W. Deem and Ramdas Pophale) SiO2 
 PCOD9459801
Probable space group: P B C A
;
_chemical_formula_sum "Si O2"
_cell_formula_units_Z 40
_cell_length_a 22.821867
_cell_length_b 5.497358
_cell_length_c 13.557099
_cell_angle_alpha 90.000000
_cell_angle_beta 90.000000
_cell_angle_gamma 90.000000
_cell_volume 1700.873276
_symmetry_space_group_name_H-M "P B C A"
_symmetry_group_IT_number 61
_symmetry_cell_setting 'orthorhombic'
loop_
_space_group_symop_operation_xyz
x,y,z
1/2-x,-y,1/2+z
1/2+x,1/2-y,-z
-x,1/2+y,1/2-z
-x,-y,-z
1/2+x,y,1/2-z
1/2-x,1/2+y,z
x,1/2-y,1/2+z
loop_
_atom_site_type_symbol
_atom_site_label
_atom_site_fract_x
_atom_site_fract_y
_atom_site_fract_z
Si Si1 0.510706 0.225210 0.622132
Si Si2 0.923049 0.869374 0.448128
Si Si3 0.846649 0.166234 0.605456
Si Si4 0.264235 0.010009 0.488475
Si Si5 0.591952 0.073025 0.278505
O O1 0.473838 0.475044 0.606021
O O2 0.543058 0.182201 0.519006
O O3 0.564227 0.251581 0.697262
O O4 0.463839 0.049368 0.669669
O O5 0.882821 0.733641 0.367896
O O6 0.889069 0.051350 0.521991
O O7 0.825586 0.429662 0.564926
O O8 0.785780 0.016329 0.596120
O O9 0.872236 0.123276 0.714166
O O10 0.246101 0.257550 0.543871
#
# Coordination Sequence:
#
# PCOD9459801 Si02
#       5
#     8   8   8   8   8
#     4  10  21  36  56  85 129 152 198 248 297 370
#     4  10  21  37  57  89 116 162 203 241 309 369
#     4   9  21  38  63  84 121 161 207 254 317 366
#     4   8  18  40  63  87 120 159 203 266 311 358
#     4  11  20  37  58  90 119 167 195 250 304 374
#
# _framework density 23.517333000000001
#
# number of rings (size 3 to 8) (size 9 to 14) (size 15 to 20)
#    1.200    1.200    2.000    0.600    0.000    3.200 
#    0.000    2.000    0.000    0.000    0.000    0.000 
#    0.000    0.000    0.000    0.000    0.000    0.000 
#
# Total GULP energy -222682.371484 kJ/mol
# GULP energy per Si atom -5567.059287 kJ/mol
# Density = 2.346381 g / cm^3
# Si number density = 23.517333 Si / 1000 Ang^3
#
#
#
# Elastic Constant Matrix: (Units=GPa)
#
#
# Indices 1 2 3 4 5 6 
#
# 1 62.6266 -9.6052 5.9500 0.0000 0.0000 0.0000
# 2 -9.6052 60.7825 5.8569 0.0000 0.0000 0.0000
# 3 5.9500 5.8569 99.7554 0.0000 0.0000 0.0000
# 4 0.0000 0.0000 0.0000 6.9877 0.0000 0.0000
# 5 0.0000 0.0000 0.0000 0.0000 17.5323 0.0000
# 6 0.0000 0.0000 0.0000 0.0000 0.0000 44.9777
#
#
#
# Elastic Compliance Matrix: (Units=1/GPa)
#
#
# Indices 1 2 3 4 5 6 
#
# 1 0.016493 0.002716 -0.001143 0.000000 0.000000 0.000000
# 2 0.002716 0.016993 -0.001160 0.000000 0.000000 0.000000
# 3 -0.001143 -0.001160 0.010161 0.000000 0.000000 0.000000
# 4 0.000000 0.000000 0.000000 0.143108 0.000000 0.000000
# 5 0.000000 0.000000 0.000000 0.000000 0.057038 0.000000
# 6 0.000000 0.000000 0.000000 0.000000 0.000000 0.022233
#
#
# Mechanical properties :
#
#
# Convention : Reuss Voigt Hill
#
# Bulk Modulus (GPa) = 22.48513 25.28532 23.88522
# Shear Modulus (GPa) = 17.85566 28.63042 23.24304
#
# Velocity S-wave (km/s) = 2.75845 3.49294 3.14719
# Velocity P-wave (km/s) = 4.44153 5.20025 4.83579
#
# Compressibility (1/GPa) = 0.04447385
#
# Stress axis : x y z
#
# Youngs Moduli (GPa) = 60.63216 58.84734 98.41751
#
# Poissons Ratio (x) = -0.15986 0.11251
# Poissons Ratio (y) = -0.16471 0.11414
# Poissons Ratio (z) = 0.06932 0.06825
#
# Static dielectric constant tensor:
#      x y z
#    x 1.910850 0.000000 0.000000 
#    y 0.000000 2.026720 0.000000 
#    z 0.000000 0.000000 1.918370 
# 
# From -- ./inp_files/218.got.cif
#   From: 2010.05.17/outbox.cif.g08.bks.cpg/sg61_1_cif.got.tgz:218.got - 2010.06.03 15:17:17.
