data_PCOD9459738
_publ_section_title
;
Structure prediction by ZEFSAII (Michael W. Deem and Ramdas Pophale) SiO2 
 PCOD9459738
Probable space group: P B C A
;
_chemical_formula_sum "Si O2"
_cell_formula_units_Z 52
_cell_length_a 17.379253
_cell_length_b 13.571487
_cell_length_c 9.447966
_cell_angle_alpha 90.000000
_cell_angle_beta 90.000000
_cell_angle_gamma 90.000000
_cell_volume 2228.419049
_symmetry_space_group_name_H-M "P B C A"
_symmetry_group_IT_number 61
_symmetry_cell_setting 'orthorhombic'
loop_
_space_group_symop_operation_xyz
x,y,z
1/2-x,-y,1/2+z
1/2+x,1/2-y,-z
-x,1/2+y,1/2-z
-x,-y,-z
1/2+x,y,1/2-z
1/2-x,1/2+y,z
x,1/2-y,1/2+z
loop_
_atom_site_type_symbol
_atom_site_label
_atom_site_fract_x
_atom_site_fract_y
_atom_site_fract_z
Si Si1 0.000000 0.500000 0.500000
Si Si2 0.802642 0.643748 0.805340
Si Si3 0.856685 0.257271 0.264988
Si Si4 0.341511 0.546671 0.111407
Si Si5 0.539996 0.766448 0.526121
Si Si6 0.216904 0.553035 0.336593
Si Si7 0.130058 0.248002 0.449764
O O1 0.072709 0.494046 0.610263
O O2 0.024128 0.616385 0.462883
O O3 0.714006 0.666968 0.765934
O O4 0.825644 0.536044 0.750000
O O5 0.850725 0.722119 0.710079
O O6 0.820646 0.666621 0.968088
O O7 0.931658 0.280949 0.172159
O O8 0.889132 0.245463 0.421537
O O9 0.822835 0.155983 0.201028
O O10 0.299639 0.553601 0.260543
O O11 0.293139 0.481079 0.998219
O O12 0.346940 0.652455 0.034878
O O13 0.459426 0.724689 0.469666
#
# Coordination Sequence:
#
# PCOD9459738 Si02
#       7
#     4   8   8   8   8   8   8
#     4  10  20  42  68  94 128 188 216 266 352 412
#     4  11  23  40  65  92 129 166 218 273 328 396
#     4  12  24  44  66 102 128 176 224 280 329 404
#     4  10  21  40  64  93 127 169 220 266 329 404
#     4  11  24  42  69  92 136 173 223 275 338 402
#     4  11  24  40  66  97 129 169 222 273 332 394
#     4  10  22  40  62  92 123 171 210 263 335 391
#
# _framework density 23.334928999999999
#
# number of rings (size 3 to 8) (size 9 to 14) (size 15 to 20)
#    0.000    1.231    3.077    2.769    4.308    0.000 
#    0.000    0.769    0.000    0.000    0.000    0.000 
#    0.000    0.000    0.000    0.000    0.000    0.000 
#
# Total GULP energy -289679.011258 kJ/mol
# GULP energy per Si atom -5570.750216 kJ/mol
# Density = 2.328182 g / cm^3
# Si number density = 23.334929 Si / 1000 Ang^3
#
#
#
# Elastic Constant Matrix: (Units=GPa)
#
#
# Indices 1 2 3 4 5 6 
#
# 1 116.9411 5.7802 17.1303 0.0000 0.0000 0.0000
# 2 5.7802 67.8591 14.9491 0.0000 0.0000 0.0000
# 3 17.1303 14.9491 102.5389 0.0000 0.0000 0.0000
# 4 0.0000 0.0000 0.0000 30.6553 0.0000 0.0000
# 5 0.0000 0.0000 0.0000 0.0000 36.5573 0.0000
# 6 0.0000 0.0000 0.0000 0.0000 0.0000 18.2736
#
#
#
# Elastic Compliance Matrix: (Units=1/GPa)
#
#
# Indices 1 2 3 4 5 6 
#
# 1 0.008778 -0.000439 -0.001403 0.000000 0.000000 0.000000
# 2 -0.000439 0.015247 -0.002150 0.000000 0.000000 0.000000
# 3 -0.001403 -0.002150 0.010300 0.000000 0.000000 0.000000
# 4 0.000000 0.000000 0.000000 0.032621 0.000000 0.000000
# 5 0.000000 0.000000 0.000000 0.000000 0.027354 0.000000
# 6 0.000000 0.000000 0.000000 0.000000 0.000000 0.054724
#
#
# Mechanical properties :
#
#
# Convention : Reuss Voigt Hill
#
# Bulk Modulus (GPa) = 37.95929 40.33983 39.14956
# Shear Modulus (GPa) = 30.15897 33.72919 31.94408
#
# Velocity S-wave (km/s) = 3.59895 3.80602 3.70393
# Velocity P-wave (km/s) = 5.79417 6.05303 5.92501
#
# Compressibility (1/GPa) = 0.02634401
#
# Stress axis : x y z
#
# Youngs Moduli (GPa) = 113.91524 65.58522 97.08644
#
# Poissons Ratio (x) = 0.02878 0.13617
# Poissons Ratio (y) = 0.04998 0.20870
# Poissons Ratio (z) = 0.15977 0.14098
#
# Static dielectric constant tensor:
#      x y z
#    x 1.894850 0.000000 0.000000 
#    y 0.000000 1.918830 0.000000 
#    z 0.000000 0.000000 1.847410 
# 
# From -- ./inp_files/3897.got.cif
#   From: 2010.05.17/outbox.cif.g08.bks.cpg/sg61_2_cif.got.tgz:3897.got - 2010.06.03 15:17:17.
