data_PCOD9459393
_publ_section_title
;
Structure prediction by ZEFSAII (Michael W. Deem and Ramdas Pophale) SiO2 
 PCOD9459393
Probable space group: P B C A
;
_chemical_formula_sum "Si O2"
_cell_formula_units_Z 64
_cell_length_a 5.966976
_cell_length_b 24.460472
_cell_length_c 17.828231
_cell_angle_alpha 90.000000
_cell_angle_beta 90.000000
_cell_angle_gamma 90.000000
_cell_volume 2602.120336
_symmetry_space_group_name_H-M "P B C A"
_symmetry_group_IT_number 61
_symmetry_cell_setting 'orthorhombic'
loop_
_space_group_symop_operation_xyz
x,y,z
1/2-x,-y,1/2+z
1/2+x,1/2-y,-z
-x,1/2+y,1/2-z
-x,-y,-z
1/2+x,y,1/2-z
1/2-x,1/2+y,z
x,1/2-y,1/2+z
loop_
_atom_site_type_symbol
_atom_site_label
_atom_site_fract_x
_atom_site_fract_y
_atom_site_fract_z
Si Si1 0.202045 0.326125 0.178609
Si Si2 0.349264 0.229601 0.931158
Si Si3 0.041494 0.827106 0.036185
Si Si4 0.018494 0.550177 0.263895
Si Si5 0.247675 0.567793 0.512033
Si Si6 0.735557 0.277998 0.722231
Si Si7 0.634018 0.011515 0.597615
Si Si8 0.502315 0.061790 0.829961
O O1 0.409422 0.337649 0.123827
O O2 0.252005 0.282866 0.242176
O O3 0.086668 0.381926 0.205187
O O4 0.050217 0.294503 0.117391
O O5 0.225414 0.267166 0.867378
O O6 0.225630 0.176306 0.964697
O O7 0.407055 0.268251 0.000387
O O8 0.189701 0.870466 0.991369
O O9 0.273300 0.575819 0.257485
O O10 0.997500 0.529866 0.349812
O O11 0.046293 0.494613 0.213927
O O12 0.311007 0.527917 0.444719
O O13 0.391324 0.564070 0.586816
O O14 0.006600 0.545305 0.538720
O O15 0.489586 0.300768 0.753170
O O16 0.742431 0.055748 0.652105
#
# Coordination Sequence:
#
# PCOD9459393 Si02
#       8
#     8   8   8   8   8   8   8   8
#     4  10  21  35  55  85 116 152 196 251 310 371
#     4  11  21  37  57  82 124 157 201 254 312 365
#     4  11  21  36  57  85 117 158 205 248 305 374
#     4  10  20  35  57  85 116 154 191 242 305 362
#     4  10  21  36  57  84 117 157 204 243 306 370
#     4  10  21  36  57  86 117 159 196 249 314 369
#     4  10  20  37  56  84 122 155 194 251 309 368
#     4  10  20  34  57  86 115 150 197 247 308 364
#
# _framework density 24.595327999999999
#
# number of rings (size 3 to 8) (size 9 to 14) (size 15 to 20)
#    0.000    1.750    3.750    1.125    0.000    5.000 
#    0.000    0.000    0.000    6.000    0.000    0.000 
#    0.000    0.000    0.000    0.000    0.000    0.000 
#
# Total GULP energy -356359.551978 kJ/mol
# GULP energy per Si atom -5568.118000 kJ/mol
# Density = 2.453935 g / cm^3
# Si number density = 24.595328 Si / 1000 Ang^3
#
#
#
# Elastic Constant Matrix: (Units=GPa)
#
#
# Indices 1 2 3 4 5 6 
#
# 1 91.3134 26.1352 4.2872 0.0000 0.0000 0.0000
# 2 26.1352 36.9311 18.8115 0.0000 0.0000 0.0000
# 3 4.2872 18.8115 73.4133 0.0000 0.0000 0.0000
# 4 0.0000 0.0000 0.0000 20.6000 0.0000 0.0000
# 5 0.0000 0.0000 0.0000 0.0000 37.0674 0.0000
# 6 0.0000 0.0000 0.0000 0.0000 0.0000 28.9307
#
#
#
# Elastic Compliance Matrix: (Units=1/GPa)
#
#
# Indices 1 2 3 4 5 6 
#
# 1 0.013978 -0.010898 0.001976 0.000000 0.000000 0.000000
# 2 -0.010898 0.039639 -0.009521 0.000000 0.000000 0.000000
# 3 0.001976 -0.009521 0.015946 0.000000 0.000000 0.000000
# 4 0.000000 0.000000 0.000000 0.048544 0.000000 0.000000
# 5 0.000000 0.000000 0.000000 0.000000 0.026978 0.000000
# 6 0.000000 0.000000 0.000000 0.000000 0.000000 0.034565
#
#
# Mechanical properties :
#
#
# Convention : Reuss Voigt Hill
#
# Bulk Modulus (GPa) = 30.60230 33.34729 31.97479
# Shear Modulus (GPa) = 21.98498 27.48121 24.73309
#
# Velocity S-wave (km/s) = 2.99301 3.34628 3.17456
# Velocity P-wave (km/s) = 4.94100 5.34022 5.14448
#
# Compressibility (1/GPa) = 0.03267728
#
# Stress axis : x y z
#
# Youngs Moduli (GPa) = 71.54219 25.22736 62.71275
#
# Poissons Ratio (x) = 0.27494 -0.12394
# Poissons Ratio (y) = 0.77969 0.59708
# Poissons Ratio (z) = -0.14139 0.24018
#
# Static dielectric constant tensor:
#      x y z
#    x 2.183770 0.000000 0.000000 
#    y 0.000000 1.972000 0.000000 
#    z 0.000000 0.000000 2.127320 
# 
# From -- ./inp_files/1400.got.cif
#   From: 2010.05.17/outbox.cif.g08.bks.cpg/sg61_1_cif.got.tgz:1400.got - 2010.06.03 15:17:17.
