data_PCOD9459092
_publ_section_title
;
Structure prediction by ZEFSAII (Michael W. Deem and Ramdas Pophale) SiO2 
 PCOD9459092
Probable space group: P B C A
;
_chemical_formula_sum "Si O2"
_cell_formula_units_Z 40
_cell_length_a 5.204130
_cell_length_b 21.711052
_cell_length_c 15.291525
_cell_angle_alpha 90.000000
_cell_angle_beta 90.000000
_cell_angle_gamma 90.000000
_cell_volume 1727.745631
_symmetry_space_group_name_H-M "P B C A"
_symmetry_group_IT_number 61
_symmetry_cell_setting 'orthorhombic'
loop_
_space_group_symop_operation_xyz
x,y,z
1/2-x,-y,1/2+z
1/2+x,1/2-y,-z
-x,1/2+y,1/2-z
-x,-y,-z
1/2+x,y,1/2-z
1/2-x,1/2+y,z
x,1/2-y,1/2+z
loop_
_atom_site_type_symbol
_atom_site_label
_atom_site_fract_x
_atom_site_fract_y
_atom_site_fract_z
Si Si1 0.467181 0.128552 0.115453
Si Si2 0.248409 0.459198 0.478444
Si Si3 0.711704 0.945608 0.723345
Si Si4 0.604209 0.110391 0.694299
Si Si5 0.352075 0.749308 0.308394
O O1 0.716195 0.084120 0.132018
O O2 0.565811 0.197720 0.121150
O O3 0.317997 0.110341 0.205695
O O4 0.299343 0.101705 0.037742
O O5 0.500000 0.500000 0.500000
O O6 0.000000 0.500000 0.500000
O O7 0.452531 0.980975 0.737586
O O8 0.705367 0.064321 0.619809
O O9 0.308468 0.106784 0.725825
O O10 0.628578 0.180788 0.658982
O O11 0.065771 0.741833 0.269001
#
# Coordination Sequence:
#
# PCOD9459092 Si02
#       5
#     8   8   8   8   8
#     4  10  20  38  65  99 135 162 232 280 362 389
#     4  12  29  47  66 100 143 190 246 302 335 420
#     4   8  16  30  56  92 123 157 199 270 340 401
#     4  10  23  49  69  97 139 188 230 276 373 445
#     4  10  18  36  70 100 132 169 215 282 348 431
#
# _framework density 23.151554999999998
#
# number of rings (size 3 to 8) (size 9 to 14) (size 15 to 20)
#    1.200    0.800    2.000    1.200    2.800    0.000 
#   10.800    8.000    0.000    0.000    0.000    0.000 
#    0.000    0.000    0.000    0.000    0.000    0.000 
#
# Total GULP energy -223015.278424 kJ/mol
# GULP energy per Si atom -5575.381961 kJ/mol
# Density = 2.309886 g / cm^3
# Si number density = 23.151555 Si / 1000 Ang^3
#
#
#
# Elastic Constant Matrix: (Units=GPa)
#
#
# Indices 1 2 3 4 5 6 
#
# 1 154.7807 32.1053 11.0518 0.0000 0.0000 0.0000
# 2 32.1053 121.1578 42.6021 0.0000 0.0000 0.0000
# 3 11.0518 42.6021 70.5771 0.0000 0.0000 0.0000
# 4 0.0000 0.0000 0.0000 40.9294 0.0000 0.0000
# 5 0.0000 0.0000 0.0000 0.0000 24.9829 0.0000
# 6 0.0000 0.0000 0.0000 0.0000 0.0000 33.5322
#
#
#
# Elastic Compliance Matrix: (Units=1/GPa)
#
#
# Indices 1 2 3 4 5 6 
#
# 1 0.006837 -0.001822 0.000029 0.000000 0.000000 0.000000
# 2 -0.001822 0.010963 -0.006332 0.000000 0.000000 0.000000
# 3 0.000029 -0.006332 0.017987 0.000000 0.000000 0.000000
# 4 0.000000 0.000000 0.000000 0.024432 0.000000 0.000000
# 5 0.000000 0.000000 0.000000 0.000000 0.040027 0.000000
# 6 0.000000 0.000000 0.000000 0.000000 0.000000 0.029822
#
#
# Mechanical properties :
#
#
# Convention : Reuss Voigt Hill
#
# Bulk Modulus (GPa) = 51.18668 57.55935 54.37302
# Shear Modulus (GPa) = 32.71605 37.27266 34.99435
#
# Velocity S-wave (km/s) = 3.76323 4.01676 3.89206
# Velocity P-wave (km/s) = 6.40624 6.81384 6.61318
#
# Compressibility (1/GPa) = 0.01953633
#
# Stress axis : x y z
#
# Youngs Moduli (GPa) = 146.27216 91.21531 55.59668
#
# Poissons Ratio (x) = 0.16618 -0.00162
# Poissons Ratio (y) = 0.26649 0.35206
# Poissons Ratio (z) = -0.00427 0.57760
#
# Static dielectric constant tensor:
#      x y z
#    x 1.959010 0.000000 0.000000 
#    y 0.000000 2.001450 0.000000 
#    z 0.000000 0.000000 1.869330 
# 
# From -- ./inp_files/9948.got.cif
#   From: 2010.05.17/outbox.cif.g08.bks.cpg/sg61_5_cif.got.tgz:9948.got - 2010.06.03 15:17:17.
