data_PCOD9459794
_publ_section_title
;
Structure prediction by ZEFSAII (Michael W. Deem and Ramdas Pophale) SiO2 
 PCOD9459794
Probable space group: P B C A
;
_chemical_formula_sum "Si O2"
_cell_formula_units_Z 56
_cell_length_a 11.260889
_cell_length_b 13.640831
_cell_length_c 14.789005
_cell_angle_alpha 90.000000
_cell_angle_beta 90.000000
_cell_angle_gamma 90.000000
_cell_volume 2271.707761
_symmetry_space_group_name_H-M "P B C A"
_symmetry_group_IT_number 61
_symmetry_cell_setting 'orthorhombic'
loop_
_space_group_symop_operation_xyz
x,y,z
1/2-x,-y,1/2+z
1/2+x,1/2-y,-z
-x,1/2+y,1/2-z
-x,-y,-z
1/2+x,y,1/2-z
1/2-x,1/2+y,z
x,1/2-y,1/2+z
loop_
_atom_site_type_symbol
_atom_site_label
_atom_site_fract_x
_atom_site_fract_y
_atom_site_fract_z
Si Si1 0.627757 0.954375 0.190247
Si Si2 0.028194 0.635987 0.199482
Si Si3 0.595658 0.254795 0.055227
Si Si4 0.865015 0.512513 0.578847
Si Si5 0.368540 0.976472 0.612282
Si Si6 0.357154 0.769993 0.646502
Si Si7 0.704675 0.751237 0.199428
O O1 0.516369 0.027178 0.174235
O O2 0.653205 0.970905 0.295305
O O3 0.745211 0.985401 0.135695
O O4 0.613406 0.838121 0.174205
O O5 0.010634 0.703088 0.110455
O O6 0.938924 0.682898 0.274166
O O7 0.147820 0.655955 0.254667
O O8 0.593684 0.372923 0.068203
O O9 0.714324 0.227088 0.113146
O O10 0.598816 0.227370 0.949140
O O11 0.836231 0.470230 0.480003
O O12 0.987300 0.461878 0.608685
O O13 0.301966 0.872377 0.608818
O O14 0.277652 0.706461 0.713868
#
# Coordination Sequence:
#
# PCOD9459794 Si02
#       7
#     8   8   8   8   8   8   8
#     4  10  21  35  58  87 115 152 196 245 294 340
#     4  10  21  36  57  86 113 149 197 237 289 350
#     4   9  19  37  58  81 112 148 190 238 288 346
#     4   9  18  35  57  83 116 150 195 243 284 346
#     4   9  18  33  57  85 112 152 196 234 286 350
#     4   9  20  36  56  83 111 149 192 234 291 346
#     4  10  21  38  57  82 119 153 188 241 294 345
#
# _framework density 24.651060000000001
#
# number of rings (size 3 to 8) (size 9 to 14) (size 15 to 20)
#    0.000    2.571    0.000    0.857    0.000    9.143 
#    0.000    1.429    0.000   14.571    0.000    0.000 
#    0.000    0.000    0.000    0.000    0.000    0.000 
#
# Total GULP energy -311884.329060 kJ/mol
# GULP energy per Si atom -5569.363019 kJ/mol
# Density = 2.459495 g / cm^3
# Si number density = 24.651060 Si / 1000 Ang^3
#
#
#
# Elastic Constant Matrix: (Units=GPa)
#
#
# Indices 1 2 3 4 5 6 
#
# 1 34.9748 8.4107 21.3809 0.0000 0.0000 0.0000
# 2 8.4107 45.3698 -11.5885 0.0000 0.0000 0.0000
# 3 21.3809 -11.5885 155.7926 0.0000 0.0000 0.0000
# 4 0.0000 0.0000 0.0000 20.6437 0.0000 0.0000
# 5 0.0000 0.0000 0.0000 0.0000 40.2137 0.0000
# 6 0.0000 0.0000 0.0000 0.0000 0.0000 29.5798
#
#
#
# Elastic Compliance Matrix: (Units=1/GPa)
#
#
# Indices 1 2 3 4 5 6 
#
# 1 0.033565 -0.007542 -0.005167 0.000000 0.000000 0.000000
# 2 -0.007542 0.024163 0.002832 0.000000 0.000000 0.000000
# 3 -0.005167 0.002832 0.007339 0.000000 0.000000 0.000000
# 4 0.000000 0.000000 0.000000 0.048441 0.000000 0.000000
# 5 0.000000 0.000000 0.000000 0.000000 0.024867 0.000000
# 6 0.000000 0.000000 0.000000 0.000000 0.000000 0.033807
#
#
# Mechanical properties :
#
#
# Convention : Reuss Voigt Hill
#
# Bulk Modulus (GPa) = 22.06934 30.28261 26.17597
# Shear Modulus (GPa) = 24.15001 32.61638 28.38319
#
# Velocity S-wave (km/s) = 3.13337 3.64142 3.39691
# Velocity P-wave (km/s) = 4.69711 5.47641 5.10166
#
# Compressibility (1/GPa) = 0.04531174
#
# Stress axis : x y z
#
# Youngs Moduli (GPa) = 29.79318 41.38604 136.26486
#
# Poissons Ratio (x) = 0.31214 0.70414
# Poissons Ratio (y) = 0.22471 -0.38596
# Poissons Ratio (z) = 0.15395 -0.11722
#
# Static dielectric constant tensor:
#      x y z
#    x 2.106190 0.000000 0.000000 
#    y 0.000000 2.047940 0.000000 
#    z 0.000000 0.000000 1.991710 
# 
# From -- ./inp_files/7526.got.cif
#   From: 2010.05.17/outbox.cif.g08.bks.cpg/sg61_4_cif.got.tgz:7526.got - 2010.06.03 15:17:17.
