data_PCOD9459183
_publ_section_title
;
Structure prediction by ZEFSAII (Michael W. Deem and Ramdas Pophale) SiO2 
 PCOD9459183
Probable space group: P B C A
;
_chemical_formula_sum "Si O2"
_cell_formula_units_Z 48
_cell_length_a 8.633050
_cell_length_b 14.861711
_cell_length_c 16.407842
_cell_angle_alpha 90.000000
_cell_angle_beta 90.000000
_cell_angle_gamma 90.000000
_cell_volume 2105.157207
_symmetry_space_group_name_H-M "P B C A"
_symmetry_group_IT_number 61
_symmetry_cell_setting 'orthorhombic'
loop_
_space_group_symop_operation_xyz
x,y,z
1/2-x,-y,1/2+z
1/2+x,1/2-y,-z
-x,1/2+y,1/2-z
-x,-y,-z
1/2+x,y,1/2-z
1/2-x,1/2+y,z
x,1/2-y,1/2+z
loop_
_atom_site_type_symbol
_atom_site_label
_atom_site_fract_x
_atom_site_fract_y
_atom_site_fract_z
Si Si1 0.373228 0.205327 0.060973
Si Si2 0.497705 0.998485 0.670755
Si Si3 0.321920 0.634829 0.523283
Si Si4 0.668552 0.906696 0.800245
Si Si5 0.715538 0.443622 0.044884
Si Si6 0.483392 0.425607 0.333584
O O1 0.326492 0.302292 0.028772
O O2 0.352027 0.188943 0.157633
O O3 0.543883 0.178036 0.032221
O O4 0.251034 0.135578 0.018520
O O5 0.625018 0.926960 0.706389
O O6 0.334653 0.948847 0.679707
O O7 0.549389 0.033565 0.583541
O O8 0.489892 0.080246 0.736287
O O9 0.284771 0.535042 0.492773
O O10 0.396594 0.631000 0.613769
O O11 0.541639 0.971101 0.843741
O O12 0.818229 0.416814 0.124460
#
# Coordination Sequence:
#
# PCOD9459183 Si02
#       6
#     8   8   8   8   8   8
#     4  11  24  38  62  91 120 163 207 249 306 364
#     4  10  19  33  66  86 115 156 202 242 305 357
#     4  11  22  40  61  87 127 161 205 252 308 361
#     4  10  19  37  59  89 114 155 200 243 298 358
#     4  11  19  40  63  84 122 158 200 252 303 362
#     4   9  17  39  61  82 113 165 190 242 304 357
#
# _framework density 22.801147
#
# number of rings (size 3 to 8) (size 9 to 14) (size 15 to 20)
#    1.000    0.667    5.000    1.000    2.333    2.000 
#    0.000    1.667    3.667    0.000    0.000    0.000 
#    0.000    0.000    0.000    0.000    0.000    0.000 
#
# Total GULP energy -267731.082167 kJ/mol
# GULP energy per Si atom -5577.730878 kJ/mol
# Density = 2.274925 g / cm^3
# Si number density = 22.801147 Si / 1000 Ang^3
#
#
#
# Elastic Constant Matrix: (Units=GPa)
#
#
# Indices 1 2 3 4 5 6 
#
# 1 57.3066 0.1020 21.1960 0.0000 0.0000 0.0000
# 2 0.1020 54.6233 1.5115 0.0000 0.0000 0.0000
# 3 21.1960 1.5115 78.7267 0.0000 0.0000 0.0000
# 4 0.0000 0.0000 0.0000 10.9460 0.0000 0.0000
# 5 0.0000 0.0000 0.0000 0.0000 26.5877 0.0000
# 6 0.0000 0.0000 0.0000 0.0000 0.0000 20.8314
#
#
#
# Elastic Compliance Matrix: (Units=1/GPa)
#
#
# Indices 1 2 3 4 5 6 
#
# 1 0.019381 0.000108 -0.005220 0.000000 0.000000 0.000000
# 2 0.000108 0.018318 -0.000381 0.000000 0.000000 0.000000
# 3 -0.005220 -0.000381 0.014115 0.000000 0.000000 0.000000
# 4 0.000000 0.000000 0.000000 0.091357 0.000000 0.000000
# 5 0.000000 0.000000 0.000000 0.000000 0.037611 0.000000
# 6 0.000000 0.000000 0.000000 0.000000 0.000000 0.048004
#
#
# Mechanical properties :
#
#
# Convention : Reuss Voigt Hill
#
# Bulk Modulus (GPa) = 24.49311 26.25284 25.37298
# Shear Modulus (GPa) = 19.73316 22.86282 21.29799
#
# Velocity S-wave (km/s) = 2.94504 3.16999 3.05958
# Velocity P-wave (km/s) = 4.72543 4.99372 4.86143
#
# Compressibility (1/GPa) = 0.04082780
#
# Stress axis : x y z
#
# Youngs Moduli (GPa) = 51.59814 54.59248 70.84711
#
# Poissons Ratio (x) = -0.00591 0.36982
# Poissons Ratio (y) = -0.00559 0.02698
# Poissons Ratio (z) = 0.26934 0.02079
#
# Static dielectric constant tensor:
#      x y z
#    x 1.873740 0.000000 0.000000 
#    y 0.000000 1.813150 0.000000 
#    z 0.000000 0.000000 1.905230 
# 
# From -- ./inp_files/10075.got.cif
#   From: 2010.05.17/outbox.cif.g08.bks.cpg/sg61_6_cif.got.tgz:10075.got - 2010.06.03 15:17:17.
