data_PCOD9459803
_publ_section_title
;
Structure prediction by ZEFSAII (Michael W. Deem and Ramdas Pophale) SiO2 
 PCOD9459803
Probable space group: P B C A
;
_chemical_formula_sum "Si O2"
_cell_formula_units_Z 64
_cell_length_a 28.099944
_cell_length_b 12.471623
_cell_length_c 8.687603
_cell_angle_alpha 90.000000
_cell_angle_beta 90.000000
_cell_angle_gamma 90.000000
_cell_volume 3044.587046
_symmetry_space_group_name_H-M "P B C A"
_symmetry_group_IT_number 61
_symmetry_cell_setting 'orthorhombic'
loop_
_space_group_symop_operation_xyz
x,y,z
1/2-x,-y,1/2+z
1/2+x,1/2-y,-z
-x,1/2+y,1/2-z
-x,-y,-z
1/2+x,y,1/2-z
1/2-x,1/2+y,z
x,1/2-y,1/2+z
loop_
_atom_site_type_symbol
_atom_site_label
_atom_site_fract_x
_atom_site_fract_y
_atom_site_fract_z
Si Si1 0.216754 0.184890 0.638192
Si Si2 0.570629 0.806135 0.363785
Si Si3 0.706018 0.397821 0.707360
Si Si4 0.960450 0.491986 0.134706
Si Si5 0.323424 0.394204 0.140146
Si Si6 0.906715 0.059622 0.362720
Si Si7 0.522284 0.927431 0.630372
Si Si8 0.311405 0.477795 0.796471
O O1 0.204285 0.143129 0.467814
O O2 0.196101 0.300823 0.676727
O O3 0.274738 0.175445 0.655305
O O4 0.194837 0.102876 0.761743
O O5 0.544840 0.882238 0.235964
O O6 0.626718 0.833463 0.349140
O O7 0.569043 0.677734 0.357481
O O8 0.549212 0.837508 0.530733
O O9 0.678678 0.507665 0.740143
O O10 0.760778 0.427475 0.742700
O O11 0.977415 0.584433 0.252719
O O12 0.913929 0.494909 0.027418
O O13 0.000000 0.500000 0.000000
O O14 0.321903 0.447953 0.971561
O O15 0.937701 0.006613 0.226216
O O16 0.852855 0.065899 0.311513
O O17 0.500000 0.000000 0.500000
#
# Coordination Sequence:
#
# PCOD9459803 Si02
#       8
#     8   8   8   8   8   8   8   8
#     4  10  21  38  58  82 122 166 203 242 293 355
#     4  11  20  35  62  92 121 152 194 250 298 351
#     4  10  21  38  58  82 121 167 203 241 294 353
#     4   9  21  36  57  83 116 154 189 231 304 366
#     4  10  21  36  57  91 119 158 202 247 298 341
#     4  11  20  35  60  96 119 148 194 251 295 349
#     4   9  19  38  57  81 114 156 185 231 305 360
#     4  10  21  36  57  90 122 155 200 250 297 342
#
# _framework density 21.020914000000001
#
# number of rings (size 3 to 8) (size 9 to 14) (size 15 to 20)
#    0.000    2.000    1.250    2.250    1.750    1.000 
#    0.000    0.000    0.000   30.000    0.000    0.000 
#    0.000    0.000    0.000    0.000    0.000    0.000 
#
# Total GULP energy -356572.492197 kJ/mol
# GULP energy per Si atom -5571.445191 kJ/mol
# Density = 2.097307 g / cm^3
# Si number density = 21.020914 Si / 1000 Ang^3
#
#
#
# Elastic Constant Matrix: (Units=GPa)
#
#
# Indices 1 2 3 4 5 6 
#
# 1 63.5853 15.3313 23.4643 0.0000 0.0000 0.0000
# 2 15.3313 36.6412 -0.9083 0.0000 0.0000 0.0000
# 3 23.4643 -0.9083 71.3234 0.0000 0.0000 0.0000
# 4 0.0000 0.0000 0.0000 20.4958 0.0000 0.0000
# 5 0.0000 0.0000 0.0000 0.0000 37.2445 0.0000
# 6 0.0000 0.0000 0.0000 0.0000 0.0000 15.6439
#
#
#
# Elastic Compliance Matrix: (Units=1/GPa)
#
#
# Indices 1 2 3 4 5 6 
#
# 1 0.020327 -0.008674 -0.006798 0.000000 0.000000 0.000000
# 2 -0.008674 0.031001 0.003248 0.000000 0.000000 0.000000
# 3 -0.006798 0.003248 0.016298 0.000000 0.000000 0.000000
# 4 0.000000 0.000000 0.000000 0.048790 0.000000 0.000000
# 5 0.000000 0.000000 0.000000 0.000000 0.026850 0.000000
# 6 0.000000 0.000000 0.000000 0.000000 0.000000 0.063923
#
#
# Mechanical properties :
#
#
# Convention : Reuss Voigt Hill
#
# Bulk Modulus (GPa) = 23.15857 27.48050 25.31953
# Shear Modulus (GPa) = 20.32287 23.58768 21.95527
#
# Velocity S-wave (km/s) = 3.11270 3.35342 3.23530
# Velocity P-wave (km/s) = 4.89483 5.30049 5.10170
#
# Compressibility (1/GPa) = 0.04318057
#
# Stress axis : x y z
#
# Youngs Moduli (GPa) = 49.19645 32.25663 61.35601
#
# Poissons Ratio (x) = 0.27978 0.41707
# Poissons Ratio (y) = 0.42671 -0.19930
# Poissons Ratio (z) = 0.33442 -0.10478
#
# Static dielectric constant tensor:
#      x y z
#    x 1.959850 0.000000 0.000000 
#    y 0.000000 1.786210 0.000000 
#    z 0.000000 0.000000 1.827460 
# 
# From -- ./inp_files/4630.got.cif
#   From: 2010.05.17/outbox.cif.g08.bks.cpg/sg61_3_cif.got.tgz:4630.got - 2010.06.03 15:17:17.
