data_PCOD9459139
_publ_section_title
;
Structure prediction by ZEFSAII (Michael W. Deem and Ramdas Pophale) SiO2 
 PCOD9459139
Probable space group: P B C A
;
_chemical_formula_sum "Si O2"
_cell_formula_units_Z 56
_cell_length_a 5.579720
_cell_length_b 16.218861
_cell_length_c 25.039446
_cell_angle_alpha 90.000000
_cell_angle_beta 90.000000
_cell_angle_gamma 90.000000
_cell_volume 2265.987310
_symmetry_space_group_name_H-M "P B C A"
_symmetry_group_IT_number 61
_symmetry_cell_setting 'orthorhombic'
loop_
_space_group_symop_operation_xyz
x,y,z
1/2-x,-y,1/2+z
1/2+x,1/2-y,-z
-x,1/2+y,1/2-z
-x,-y,-z
1/2+x,y,1/2-z
1/2-x,1/2+y,z
x,1/2-y,1/2+z
loop_
_atom_site_type_symbol
_atom_site_label
_atom_site_fract_x
_atom_site_fract_y
_atom_site_fract_z
Si Si1 0.250000 0.025912 0.150314
Si Si2 0.249998 0.356892 0.022946
Si Si3 0.249998 0.165826 0.997992
Si Si4 0.249999 0.352471 0.146017
Si Si5 0.749999 0.275073 0.124542
Si Si6 0.750000 0.347975 0.753258
Si Si7 0.250000 0.918277 0.862638
O O1 0.250000 0.101114 0.192365
O O2 0.504925 0.037175 0.121352
O O3 0.995075 0.037175 0.121352
O O4 0.250000 0.937093 0.178529
O O5 0.496901 0.378110 0.993364
O O6 0.249999 0.384667 0.084018
O O7 0.003094 0.378110 0.993364
O O8 0.249998 0.255264 0.026645
O O9 0.249999 0.187378 0.934919
O O10 0.499686 0.303803 0.150897
O O11 0.000312 0.303803 0.150897
O O12 0.750000 0.176751 0.120122
O O13 0.500000 0.300828 0.750000
O O14 0.750000 0.410624 0.702743
#
# Coordination Sequence:
#
# PCOD9459139 Si02
#       7
#     8   8   8   8   8   8   8
#     4  10  19  33  53  71  95 130 164 192 237 300
#     4   8  14  25  42  65  93 124 155 188 232 284
#     4   8  14  25  42  65  93 124 155 188 232 284
#     4  10  19  31  50  76 100 122 159 209 244 270
#     4  10  19  31  50  76 100 122 159 209 244 270
#     4   8  16  30  50  66  84 120 164 190 218 284
#     4  10  19  33  53  71  95 130 164 192 237 300
#
# _framework density 24.713287999999999
#
# number of rings (size 3 to 8) (size 9 to 14) (size 15 to 20)
#    0.000    2.857    0.000    1.714    0.000    0.000 
#    0.000    0.000    0.000   48.000    0.000    0.000 
#    0.000    0.000    0.000    0.000    0.000    0.000 
#
# Total GULP energy -312520.700070 kJ/mol
# GULP energy per Si atom -5580.726787 kJ/mol
# Density = 2.465704 g / cm^3
# Si number density = 24.713288 Si / 1000 Ang^3
#
#
#
# Elastic Constant Matrix: (Units=GPa)
#
#
# Indices 1 2 3 4 5 6 
#
# 1 331.9515 55.9687 -3.0284 0.0000 0.0000 0.0000
# 2 55.9687 76.7233 3.4935 0.0000 0.0000 0.0000
# 3 -3.0284 3.4935 41.8546 0.0000 0.0000 0.0000
# 4 0.0000 0.0000 0.0000 13.2265 0.0000 0.0000
# 5 0.0000 0.0000 0.0000 0.0000 -24.7418 0.0000
# 6 0.0000 0.0000 0.0000 0.0000 0.0000 35.1929
#
#
#
# Elastic Compliance Matrix: (Units=1/GPa)
#
#
# Indices 1 2 3 4 5 6 
#
# 1 0.003444 -0.002533 0.000461 0.000000 0.000000 0.000000
# 2 -0.002533 0.014947 -0.001431 0.000000 0.000000 0.000000
# 3 0.000461 -0.001431 0.024045 0.000000 0.000000 0.000000
# 4 0.000000 0.000000 0.000000 0.075606 0.000000 0.000000
# 5 0.000000 0.000000 0.000000 0.000000 -0.040418 0.000000
# 6 0.000000 0.000000 0.000000 0.000000 0.000000 0.028415
#
#
# Mechanical properties :
#
#
# Convention : Reuss Voigt Hill
#
# Bulk Modulus (GPa) = 28.22559 62.59967 45.41263
# Shear Modulus (GPa) = 40.04632 31.00856 35.52744
#
# Velocity S-wave (km/s) = 4.02983 3.54606 3.79566
# Velocity P-wave (km/s) = 5.75315 6.49241 6.13393
#
# Compressibility (1/GPa) = 0.03542884
#
# Stress axis : x y z
#
# Youngs Moduli (GPa) = 290.37705 66.90337 41.58873
#
# Poissons Ratio (x) = 0.16948 -0.01916
# Poissons Ratio (y) = 0.73558 0.05951
# Poissons Ratio (z) = -0.13375 0.09573
#
# Static dielectric constant tensor:
#      x y z
#    x 2.062630 0.000000 0.000000 
#    y 0.000000 1.931850 0.000000 
#    z 0.000000 0.000000 1.995970 
# 
# From -- ./inp_files/6870.got.cif
#   From: 2010.05.17/outbox.cif.g08.bks.cpg/sg61_4_cif.got.tgz:6870.got - 2010.06.03 15:17:17.
