data_PCOD9459487
_publ_section_title
;
Structure prediction by ZEFSAII (Michael W. Deem and Ramdas Pophale) SiO2 
 PCOD9459487
Probable space group: P B C A
;
_chemical_formula_sum "Si O2"
_cell_formula_units_Z 48
_cell_length_a 8.976777
_cell_length_b 14.882403
_cell_length_c 15.429545
_cell_angle_alpha 90.000000
_cell_angle_beta 90.000000
_cell_angle_gamma 90.000000
_cell_volume 2061.325694
_symmetry_space_group_name_H-M "P B C A"
_symmetry_group_IT_number 61
_symmetry_cell_setting 'orthorhombic'
loop_
_space_group_symop_operation_xyz
x,y,z
1/2-x,-y,1/2+z
1/2+x,1/2-y,-z
-x,1/2+y,1/2-z
-x,-y,-z
1/2+x,y,1/2-z
1/2-x,1/2+y,z
x,1/2-y,1/2+z
loop_
_atom_site_type_symbol
_atom_site_label
_atom_site_fract_x
_atom_site_fract_y
_atom_site_fract_z
Si Si1 0.579329 0.502227 0.902215
Si Si2 0.661649 0.670417 0.611074
Si Si3 0.102698 0.062792 0.559829
Si Si4 0.224953 0.746277 0.551665
Si Si5 0.475523 0.809997 0.336552
Si Si6 0.469423 0.685852 0.173218
O O1 0.758441 0.504008 0.909716
O O2 0.546867 0.591911 0.846574
O O3 0.526715 0.418938 0.844143
O O4 0.500000 0.500000 0.000000
O O5 0.523484 0.604457 0.623820
O O6 0.734018 0.672122 0.515955
O O7 0.801535 0.666056 0.672149
O O8 0.595796 0.770360 0.613219
O O9 0.189571 0.153279 0.525256
O O10 0.000000 0.000000 0.500000
O O11 0.313050 0.777469 0.637094
O O12 0.052664 0.732632 0.577795
O O13 0.500988 0.734740 0.263742
#
# Coordination Sequence:
#
# PCOD9459487 Si02
#       6
#     8   8   8   8   8   8
#     4  11  23  43  73 105 141 191 245 293 354 443
#     4  11  22  40  66  93 133 184 232 290 354 427
#     4  10  20  36  63  98 130 171 237 300 341 410
#     4  10  21  39  64  94 133 183 236 285 348 432
#     4  11  23  42  65  99 140 177 229 298 359 416
#     4  11  23  42  66  97 136 180 227 292 360 416
#
# _framework density 23.285983999999999
#
# number of rings (size 3 to 8) (size 9 to 14) (size 15 to 20)
#    0.000    1.333    0.000    8.000    0.000    0.000 
#    0.000   20.000    0.000    0.000    0.000    0.000 
#    0.000    0.000    0.000    0.000    0.000    0.000 
#
# Total GULP energy -267228.990787 kJ/mol
# GULP energy per Si atom -5567.270641 kJ/mol
# Density = 2.323298 g / cm^3
# Si number density = 23.285984 Si / 1000 Ang^3
#
#
#
# Elastic Constant Matrix: (Units=GPa)
#
#
# Indices 1 2 3 4 5 6 
#
# 1 118.0692 -2.6645 27.2413 0.0000 0.0000 0.0000
# 2 -2.6645 108.3324 51.5121 0.0000 0.0000 0.0000
# 3 27.2413 51.5121 89.5207 0.0000 0.0000 0.0000
# 4 0.0000 0.0000 0.0000 33.5734 0.0000 0.0000
# 5 0.0000 0.0000 0.0000 0.0000 21.6003 0.0000
# 6 0.0000 0.0000 0.0000 0.0000 0.0000 30.9993
#
#
#
# Elastic Compliance Matrix: (Units=1/GPa)
#
#
# Indices 1 2 3 4 5 6 
#
# 1 0.009478 0.002209 -0.004155 0.000000 0.000000 0.000000
# 2 0.002209 0.013223 -0.008281 0.000000 0.000000 0.000000
# 3 -0.004155 -0.008281 0.017200 0.000000 0.000000 0.000000
# 4 0.000000 0.000000 0.000000 0.029785 0.000000 0.000000
# 5 0.000000 0.000000 0.000000 0.000000 0.046296 0.000000
# 6 0.000000 0.000000 0.000000 0.000000 0.000000 0.032259
#
#
# Mechanical properties :
#
#
# Convention : Reuss Voigt Hill
#
# Bulk Modulus (GPa) = 51.42286 52.01111 51.71698
# Shear Modulus (GPa) = 28.54249 33.22350 30.88299
#
# Velocity S-wave (km/s) = 3.50485 3.78134 3.64572
# Velocity P-wave (km/s) = 6.20562 6.43809 6.32293
#
# Compressibility (1/GPa) = 0.01944661
#
# Stress axis : x y z
#
# Youngs Moduli (GPa) = 105.50540 75.62743 58.13941
#
# Poissons Ratio (x) = -0.16706 0.24159
# Poissons Ratio (y) = -0.23306 0.48144
# Poissons Ratio (z) = 0.43841 0.62626
#
# Static dielectric constant tensor:
#      x y z
#    x 1.877270 0.000000 0.000000 
#    y 0.000000 1.899480 0.000000 
#    z 0.000000 0.000000 2.029230 
# 
# From -- ./inp_files/8895.got.cif
#   From: 2010.05.17/outbox.cif.g08.bks.cpg/sg61_5_cif.got.tgz:8895.got - 2010.06.03 15:17:17.
