data_PCOD9459607
_publ_section_title
;
Structure prediction by ZEFSAII (Michael W. Deem and Ramdas Pophale) SiO2 
 PCOD9459607
Probable space group: P B C A
;
_chemical_formula_sum "Si O2"
_cell_formula_units_Z 48
_cell_length_a 11.731011
_cell_length_b 11.897234
_cell_length_c 14.676589
_cell_angle_alpha 90.000000
_cell_angle_beta 90.000000
_cell_angle_gamma 90.000000
_cell_volume 2048.361376
_symmetry_space_group_name_H-M "P B C A"
_symmetry_group_IT_number 61
_symmetry_cell_setting 'orthorhombic'
loop_
_space_group_symop_operation_xyz
x,y,z
1/2-x,-y,1/2+z
1/2+x,1/2-y,-z
-x,1/2+y,1/2-z
-x,-y,-z
1/2+x,y,1/2-z
1/2-x,1/2+y,z
x,1/2-y,1/2+z
loop_
_atom_site_type_symbol
_atom_site_label
_atom_site_fract_x
_atom_site_fract_y
_atom_site_fract_z
Si Si1 0.763573 0.594780 0.065330
Si Si2 0.401757 0.616353 0.953514
Si Si3 0.263667 0.223235 0.811860
Si Si4 0.549283 0.526869 0.665142
Si Si5 0.699050 0.121054 0.869648
Si Si6 0.410603 0.967593 0.637380
O O1 0.688066 0.485911 0.045982
O O2 0.703738 0.655741 0.150274
O O3 0.888835 0.552675 0.092595
O O4 0.769459 0.661646 0.970758
O O5 0.341720 0.698562 0.881601
O O6 0.516835 0.569802 0.908219
O O7 0.421845 0.631793 0.062298
O O8 0.363829 0.132297 0.822779
O O9 0.221840 0.211539 0.709044
O O10 0.428232 0.574839 0.636869
O O11 0.542928 0.458228 0.760279
O O12 0.782638 0.014616 0.851058
#
# Coordination Sequence:
#
# PCOD9459607 Si02
#       6
#     8   8   8   8   8   8
#     4  10  22  38  60  88 115 155 201 240 291 358
#     4   9  18  38  61  83 116 154 197 239 287 347
#     4  10  21  39  58  85 120 154 196 243 293 347
#     4  10  20  39  61  85 121 154 189 250 296 344
#     4  10  20  39  59  85 120 156 193 243 302 340
#     4   9  18  35  64  81 113 158 194 234 296 350
#
# _framework density 23.433365999999999
#
# number of rings (size 3 to 8) (size 9 to 14) (size 15 to 20)
#    0.000    2.333    1.667    0.500    0.000    1.333 
#   12.000    1.667    0.000    0.000    0.000    0.000 
#    0.000    0.000    0.000    0.000    0.000    0.000 
#
# Total GULP energy -267968.469409 kJ/mol
# GULP energy per Si atom -5582.676446 kJ/mol
# Density = 2.338003 g / cm^3
# Si number density = 23.433366 Si / 1000 Ang^3
#
#
#
# Elastic Constant Matrix: (Units=GPa)
#
#
# Indices 1 2 3 4 5 6 
#
# 1 108.8344 -9.7794 18.8725 0.0000 0.0000 0.0000
# 2 -9.7794 14.5425 18.6490 0.0000 0.0000 0.0000
# 3 18.8725 18.6490 159.9781 0.0000 0.0000 0.0000
# 4 0.0000 0.0000 0.0000 22.5408 0.0000 0.0000
# 5 0.0000 0.0000 0.0000 0.0000 30.8243 0.0000
# 6 0.0000 0.0000 0.0000 0.0000 0.0000 8.1203
#
#
#
# Elastic Compliance Matrix: (Units=1/GPa)
#
#
# Indices 1 2 3 4 5 6 
#
# 1 0.010526 0.010195 -0.002430 0.000000 0.000000 0.000000
# 2 0.010195 0.090724 -0.011779 0.000000 0.000000 0.000000
# 3 -0.002430 -0.011779 0.007911 0.000000 0.000000 0.000000
# 4 0.000000 0.000000 0.000000 0.044364 0.000000 0.000000
# 5 0.000000 0.000000 0.000000 0.000000 0.032442 0.000000
# 6 0.000000 0.000000 0.000000 0.000000 0.000000 0.123148
#
#
# Mechanical properties :
#
#
# Convention : Reuss Voigt Hill
#
# Bulk Modulus (GPa) = 9.88806 37.64882 23.76844
# Shear Modulus (GPa) = 14.25095 29.33793 21.79444
#
# Velocity S-wave (km/s) = 2.46874 3.54216 3.05300
# Velocity P-wave (km/s) = 3.51498 5.72978 4.75318
#
# Compressibility (1/GPa) = 0.10113210
#
# Stress axis : x y z
#
# Youngs Moduli (GPa) = 95.00548 11.02244 126.41282
#
# Poissons Ratio (x) = -0.11237 0.30720
# Poissons Ratio (y) = -0.96854 1.48896
# Poissons Ratio (z) = 0.23087 0.12983
#
# Static dielectric constant tensor:
#      x y z
#    x 1.865140 0.000000 0.000000 
#    y 0.000000 1.973810 0.000000 
#    z 0.000000 0.000000 1.925230 
# 
# From -- ./inp_files/7469.got.cif
#   From: 2010.05.17/outbox.cif.g08.bks.cpg/sg61_4_cif.got.tgz:7469.got - 2010.06.03 15:17:17.
