data_PCOD9459516
_publ_section_title
;
Structure prediction by ZEFSAII (Michael W. Deem and Ramdas Pophale) SiO2 
 PCOD9459516
Probable space group: P B C A
;
_chemical_formula_sum "Si O2"
_cell_formula_units_Z 56
_cell_length_a 20.130127
_cell_length_b 22.769816
_cell_length_c 5.409531
_cell_angle_alpha 90.000000
_cell_angle_beta 90.000000
_cell_angle_gamma 90.000000
_cell_volume 2479.508777
_symmetry_space_group_name_H-M "P B C A"
_symmetry_group_IT_number 61
_symmetry_cell_setting 'orthorhombic'
loop_
_space_group_symop_operation_xyz
x,y,z
1/2-x,-y,1/2+z
1/2+x,1/2-y,-z
-x,1/2+y,1/2-z
-x,-y,-z
1/2+x,y,1/2-z
1/2-x,1/2+y,z
x,1/2-y,1/2+z
loop_
_atom_site_type_symbol
_atom_site_label
_atom_site_fract_x
_atom_site_fract_y
_atom_site_fract_z
Si Si1 0.074104 0.606060 0.825548
Si Si2 0.902739 0.964656 0.151183
Si Si3 0.610886 0.765934 0.153573
Si Si4 0.261000 0.781068 0.847312
Si Si5 0.683854 0.524239 0.792152
Si Si6 0.506642 0.927491 0.692490
Si Si7 0.699774 0.409871 0.485829
O O1 0.122796 0.551021 0.859729
O O2 0.043364 0.600294 0.549871
O O3 0.118643 0.664376 0.840700
O O4 0.022501 0.605389 0.052805
O O5 0.931547 0.932928 0.905352
O O6 0.846539 0.010122 0.060987
O O7 0.869389 0.920067 0.341022
O O8 0.964011 0.006250 0.231215
O O9 0.573962 0.750437 0.903235
O O10 0.680181 0.729136 0.154423
O O11 0.284080 0.742133 0.081168
O O12 0.284002 0.847007 0.900873
O O13 0.705071 0.462440 0.682624
O O14 0.741013 0.572408 0.798843
#
# Coordination Sequence:
#
# PCOD9459516 Si02
#       7
#     8   8   8   8   8   8   8
#     4  11  22  40  65  93 127 164 218 268 329 383
#     4  10  23  39  60  94 133 170 210 259 327 399
#     4  10  20  37  61  89 121 160 210 266 317 373
#     4  10  24  41  61  88 126 175 214 254 310 385
#     4  11  23  36  62 100 134 170 200 270 335 394
#     4  10  23  40  64  93 128 169 214 264 323 395
#     4  12  23  39  63  97 140 168 214 265 335 401
#
# _framework density 22.585117
#
# number of rings (size 3 to 8) (size 9 to 14) (size 15 to 20)
#    0.000    1.429    2.857    2.571    4.000    7.429 
#    0.000    0.000    0.000    5.143    0.000    0.000 
#    0.000    0.000    0.000    0.000    0.000    0.000 
#
# Total GULP energy -312609.089902 kJ/mol
# GULP energy per Si atom -5582.305177 kJ/mol
# Density = 2.253371 g / cm^3
# Si number density = 22.585117 Si / 1000 Ang^3
#
#
#
# Elastic Constant Matrix: (Units=GPa)
#
#
# Indices 1 2 3 4 5 6 
#
# 1 63.3555 15.3638 13.0809 0.0000 0.0000 0.0000
# 2 15.3638 103.0372 12.6706 0.0000 0.0000 0.0000
# 3 13.0809 12.6706 130.0688 0.0000 0.0000 0.0000
# 4 0.0000 0.0000 0.0000 34.6979 0.0000 0.0000
# 5 0.0000 0.0000 0.0000 0.0000 23.3532 0.0000
# 6 0.0000 0.0000 0.0000 0.0000 0.0000 18.6908
#
#
#
# Elastic Compliance Matrix: (Units=1/GPa)
#
#
# Indices 1 2 3 4 5 6 
#
# 1 0.016642 -0.002303 -0.001449 0.000000 0.000000 0.000000
# 2 -0.002303 0.010142 -0.000756 0.000000 0.000000 0.000000
# 3 -0.001449 -0.000756 0.007908 0.000000 0.000000 0.000000
# 4 0.000000 0.000000 0.000000 0.028820 0.000000 0.000000
# 5 0.000000 0.000000 0.000000 0.000000 0.042821 0.000000
# 6 0.000000 0.000000 0.000000 0.000000 0.000000 0.053502
#
#
# Mechanical properties :
#
#
# Convention : Reuss Voigt Hill
#
# Bulk Modulus (GPa) = 38.95078 42.07690 40.51384
# Shear Modulus (GPa) = 28.18336 32.37146 30.27741
#
# Velocity S-wave (km/s) = 3.53636 3.79001 3.66538
# Velocity P-wave (km/s) = 5.82736 6.15005 5.99088
#
# Compressibility (1/GPa) = 0.02567343
#
# Stress axis : x y z
#
# Youngs Moduli (GPa) = 60.08999 98.60309 126.45951
#
# Poissons Ratio (x) = 0.22710 0.18328
# Poissons Ratio (y) = 0.13840 0.09564
# Poissons Ratio (z) = 0.08709 0.07457
#
# Static dielectric constant tensor:
#      x y z
#    x 1.956850 0.000000 0.000000 
#    y 0.000000 1.820750 0.000000 
#    z 0.000000 0.000000 1.962140 
# 
# From -- ./inp_files/1054.got.cif
#   From: 2010.05.17/outbox.cif.g08.bks.cpg/sg61_1_cif.got.tgz:1054.got - 2010.06.03 15:17:17.
