data_PCOD9459600
_publ_section_title
;
Structure prediction by ZEFSAII (Michael W. Deem and Ramdas Pophale) SiO2 
 PCOD9459600
Probable space group: P B C A
;
_chemical_formula_sum "Si O2"
_cell_formula_units_Z 52
_cell_length_a 9.544500
_cell_length_b 21.608595
_cell_length_c 10.853202
_cell_angle_alpha 90.000000
_cell_angle_beta 90.000000
_cell_angle_gamma 90.000000
_cell_volume 2238.399490
_symmetry_space_group_name_H-M "P B C A"
_symmetry_group_IT_number 61
_symmetry_cell_setting 'orthorhombic'
loop_
_space_group_symop_operation_xyz
x,y,z
1/2-x,-y,1/2+z
1/2+x,1/2-y,-z
-x,1/2+y,1/2-z
-x,-y,-z
1/2+x,y,1/2-z
1/2-x,1/2+y,z
x,1/2-y,1/2+z
loop_
_atom_site_type_symbol
_atom_site_label
_atom_site_fract_x
_atom_site_fract_y
_atom_site_fract_z
Si Si1 0.523513 0.882166 0.797108
Si Si2 0.871908 0.682620 0.975874
Si Si3 0.272599 0.102847 0.735342
Si Si4 0.416729 0.218603 0.417045
Si Si5 0.459972 0.867868 0.389703
Si Si6 0.500000 0.500000 0.000000
Si Si7 0.715902 0.469489 0.815336
O O1 0.457050 0.850386 0.915667
O O2 0.562383 0.830368 0.694511
O O3 0.413150 0.933082 0.746447
O O4 0.661408 0.920965 0.829899
O O5 0.746364 0.721278 0.043522
O O6 0.794933 0.632773 0.887660
O O7 0.982975 0.722618 0.896546
O O8 0.437817 0.113079 0.723018
O O9 0.197979 0.138140 0.845899
O O10 0.235462 0.030539 0.759304
O O11 0.485754 0.191388 0.541359
O O12 0.479209 0.925468 0.480708
O O13 0.344563 0.497592 0.064003
#
# Coordination Sequence:
#
# PCOD9459600 Si02
#       7
#     8   8   8   8   8   4   8
#     4  12  25  48  74 109 143 200 249 301 377 451
#     4  11  28  47  71 106 145 194 252 308 364 449
#     4  10  24  42  66 107 138 181 237 297 369 432
#     4  11  26  47  71 101 144 193 250 304 370 439
#     4  10  22  42  66  96 139 181 229 295 352 431
#     4  10  20  38  68 104 136 184 228 284 370 412
#     4  11  23  42  76 105 149 189 239 309 367 450
#
# _framework density 23.230886000000002
#
# number of rings (size 3 to 8) (size 9 to 14) (size 15 to 20)
#    0.000    1.231    3.077    1.846    4.308    4.308 
#    0.000    0.000    0.000    0.000    0.000    0.000 
#    0.000    0.000    0.000    0.000    0.000    0.000 
#
# Total GULP energy -289537.521589 kJ/mol
# GULP energy per Si atom -5568.029261 kJ/mol
# Density = 2.317801 g / cm^3
# Si number density = 23.230886 Si / 1000 Ang^3
#
#
#
# Elastic Constant Matrix: (Units=GPa)
#
#
# Indices 1 2 3 4 5 6 
#
# 1 73.4210 20.0519 12.7381 0.0000 0.0000 0.0000
# 2 20.0519 79.9485 26.4390 0.0000 0.0000 0.0000
# 3 12.7381 26.4390 38.6174 0.0000 0.0000 0.0000
# 4 0.0000 0.0000 0.0000 15.6221 0.0000 0.0000
# 5 0.0000 0.0000 0.0000 0.0000 20.0728 0.0000
# 6 0.0000 0.0000 0.0000 0.0000 0.0000 37.3960
#
#
#
# Elastic Compliance Matrix: (Units=1/GPa)
#
#
# Indices 1 2 3 4 5 6 
#
# 1 0.014893 -0.002729 -0.003045 0.000000 0.000000 0.000000
# 2 -0.002729 0.016669 -0.010512 0.000000 0.000000 0.000000
# 3 -0.003045 -0.010512 0.034096 0.000000 0.000000 0.000000
# 4 0.000000 0.000000 0.000000 0.064012 0.000000 0.000000
# 5 0.000000 0.000000 0.000000 0.000000 0.049819 0.000000
# 6 0.000000 0.000000 0.000000 0.000000 0.000000 0.026741
#
#
# Mechanical properties :
#
#
# Convention : Reuss Voigt Hill
#
# Bulk Modulus (GPa) = 30.22233 34.49386 32.35809
# Shear Modulus (GPa) = 20.01363 23.46871 21.74117
#
# Velocity S-wave (km/s) = 2.93833 3.18187 3.06252
# Velocity P-wave (km/s) = 4.95475 5.32725 5.14437
#
# Compressibility (1/GPa) = 0.03308812
#
# Stress axis : x y z
#
# Youngs Moduli (GPa) = 67.14344 59.99251 29.32871
#
# Poissons Ratio (x) = 0.16370 0.08929
# Poissons Ratio (y) = 0.18321 0.30830
# Poissons Ratio (z) = 0.20442 0.63064
#
# Static dielectric constant tensor:
#      x y z
#    x 1.824170 0.000000 0.000000 
#    y 0.000000 1.777390 0.000000 
#    z 0.000000 0.000000 1.944670 
# 
# From -- ./inp_files/4891.got.cif
#   From: 2010.05.17/outbox.cif.g08.bks.cpg/sg61_3_cif.got.tgz:4891.got - 2010.06.03 15:17:17.
