data_PCOD9459075
_publ_section_title
;
Structure prediction by ZEFSAII (Michael W. Deem and Ramdas Pophale) SiO2 
 PCOD9459075
Probable space group: P B C A
;
_chemical_formula_sum "Si O2"
_cell_formula_units_Z 64
_cell_length_a 16.788680
_cell_length_b 19.611864
_cell_length_c 8.898442
_cell_angle_alpha 90.000000
_cell_angle_beta 90.000000
_cell_angle_gamma 90.000000
_cell_volume 2929.877066
_symmetry_space_group_name_H-M "P B C A"
_symmetry_group_IT_number 61
_symmetry_cell_setting 'orthorhombic'
loop_
_space_group_symop_operation_xyz
x,y,z
1/2-x,-y,1/2+z
1/2+x,1/2-y,-z
-x,1/2+y,1/2-z
-x,-y,-z
1/2+x,y,1/2-z
1/2-x,1/2+y,z
x,1/2-y,1/2+z
loop_
_atom_site_type_symbol
_atom_site_label
_atom_site_fract_x
_atom_site_fract_y
_atom_site_fract_z
Si Si1 0.057963 0.222285 0.487814
Si Si2 0.903899 0.920016 0.562040
Si Si3 0.751055 0.421561 0.708998
Si Si4 0.369646 0.165219 0.464171
Si Si5 0.649981 0.364012 0.963086
Si Si6 0.499094 0.061931 0.330593
Si Si7 0.063211 0.779777 0.258069
Si Si8 0.378129 0.957633 0.275253
O O1 0.110363 0.161299 0.424357
O O2 0.110661 0.288610 0.530517
O O3 0.993150 0.240197 0.360830
O O4 0.004453 0.194038 0.626350
O O5 0.828238 0.954993 0.639770
O O6 0.985229 0.933787 0.651044
O O7 0.903105 0.936993 0.389529
O O8 0.789707 0.372642 0.583271
O O9 0.726266 0.377858 0.856951
O O10 0.814839 0.480860 0.737923
O O11 0.439818 0.117623 0.398686
O O12 0.385202 0.175280 0.641725
O O13 0.380827 0.233863 0.365080
O O14 0.583969 0.414340 0.891182
O O15 0.657802 0.395142 0.129790
O O16 0.457238 0.989451 0.353910
#
# Coordination Sequence:
#
# PCOD9459075 Si02
#       8
#     8   8   8   8   8   8   8   8
#     4  11  20  36  63  96 116 152 207 264 312 352
#     4  11  22  39  64  91 126 159 209 260 306 367
#     4  10  24  41  57  82 132 169 199 251 321 359
#     4  10  20  37  59  86 123 165 195 250 308 373
#     4  11  21  40  64  90 125 161 207 263 308 365
#     4  10  20  38  59  89 123 156 200 261 304 350
#     4  10  18  35  61  85 125 154 201 253 314 357
#     4  11  23  38  63  89 119 165 217 243 306 377
#
# _framework density 21.843920000000001
#
# number of rings (size 3 to 8) (size 9 to 14) (size 15 to 20)
#    0.000    1.500    3.750    3.000    0.000    1.000 
#    0.000    2.500    2.750    0.000    0.000    0.000 
#    0.000    0.000    0.000    0.000    0.000    0.000 
#
# Total GULP energy -356750.536019 kJ/mol
# GULP energy per Si atom -5574.227125 kJ/mol
# Density = 2.179420 g / cm^3
# Si number density = 21.843920 Si / 1000 Ang^3
#
#
#
# Elastic Constant Matrix: (Units=GPa)
#
#
# Indices 1 2 3 4 5 6 
#
# 1 39.6847 7.0204 -11.6288 0.0000 0.0000 0.0000
# 2 7.0204 59.2041 4.7934 0.0000 0.0000 0.0000
# 3 -11.6288 4.7934 78.7856 0.0000 0.0000 0.0000
# 4 0.0000 0.0000 0.0000 23.8174 0.0000 0.0000
# 5 0.0000 0.0000 0.0000 0.0000 29.5101 0.0000
# 6 0.0000 0.0000 0.0000 0.0000 0.0000 9.8409
#
#
#
# Elastic Compliance Matrix: (Units=1/GPa)
#
#
# Indices 1 2 3 4 5 6 
#
# 1 0.027060 -0.003550 0.004210 0.000000 0.000000 0.000000
# 2 -0.003550 0.017440 -0.001585 0.000000 0.000000 0.000000
# 3 0.004210 -0.001585 0.013411 0.000000 0.000000 0.000000
# 4 0.000000 0.000000 0.000000 0.041986 0.000000 0.000000
# 5 0.000000 0.000000 0.000000 0.000000 0.033887 0.000000
# 6 0.000000 0.000000 0.000000 0.000000 0.000000 0.101616
#
#
# Mechanical properties :
#
#
# Convention : Reuss Voigt Hill
#
# Bulk Modulus (GPa) = 17.83753 19.78271 18.81012
# Shear Modulus (GPa) = 19.53612 24.46632 22.00122
#
# Velocity S-wave (km/s) = 2.99381 3.35035 3.17709
# Velocity P-wave (km/s) = 4.48711 4.90331 4.69982
#
# Compressibility (1/GPa) = 0.05606157
#
# Stress axis : x y z
#
# Youngs Moduli (GPa) = 36.95458 57.33957 74.56833
#
# Poissons Ratio (x) = 0.20354 -0.31394
# Poissons Ratio (y) = 0.13118 0.11819
# Poissons Ratio (z) = -0.15558 0.09088
#
# Static dielectric constant tensor:
#      x y z
#    x 1.814760 0.000000 0.000000 
#    y 0.000000 1.812160 0.000000 
#    z 0.000000 0.000000 1.881830 
# 
# From -- ./inp_files/3687.got.cif
#   From: 2010.05.17/outbox.cif.g08.bks.cpg/sg61_2_cif.got.tgz:3687.got - 2010.06.03 15:17:17.
