data_PCOD9459700
_publ_section_title
;
Structure prediction by ZEFSAII (Michael W. Deem and Ramdas Pophale) SiO2 
 PCOD9459700
Probable space group: P B C A
;
_chemical_formula_sum "Si O2"
_cell_formula_units_Z 64
_cell_length_a 17.684801
_cell_length_b 8.759267
_cell_length_c 21.439740
_cell_angle_alpha 90.000000
_cell_angle_beta 90.000000
_cell_angle_gamma 90.000000
_cell_volume 3321.142088
_symmetry_space_group_name_H-M "P B C A"
_symmetry_group_IT_number 61
_symmetry_cell_setting 'orthorhombic'
loop_
_space_group_symop_operation_xyz
x,y,z
1/2-x,-y,1/2+z
1/2+x,1/2-y,-z
-x,1/2+y,1/2-z
-x,-y,-z
1/2+x,y,1/2-z
1/2-x,1/2+y,z
x,1/2-y,1/2+z
loop_
_atom_site_type_symbol
_atom_site_label
_atom_site_fract_x
_atom_site_fract_y
_atom_site_fract_z
Si Si1 0.466169 0.755714 0.694805
Si Si2 0.196320 0.287026 0.136669
Si Si3 0.246024 0.540245 0.046843
Si Si4 0.584943 0.017931 0.202515
Si Si5 0.169727 0.253166 0.365690
Si Si6 0.396026 0.081925 0.349404
Si Si7 0.203259 0.769303 0.258205
Si Si8 0.803355 0.279090 0.539837
O O1 0.385741 0.720547 0.666042
O O2 0.518709 0.605874 0.696130
O O3 0.516521 0.880144 0.658438
O O4 0.447400 0.837771 0.759907
O O5 0.208857 0.446778 0.102710
O O6 0.203519 0.165178 0.081318
O O7 0.259897 0.257530 0.190010
O O8 0.187060 0.630465 0.002895
O O9 0.294276 0.424562 0.004845
O O10 0.653370 0.924241 0.235905
O O11 0.622570 0.097533 0.142471
O O12 0.121379 0.407244 0.364335
O O13 0.227131 0.268420 0.306870
O O14 0.223003 0.244866 0.425649
O O15 0.352120 0.136672 0.285867
O O16 0.361721 0.185465 0.405040
#
# Coordination Sequence:
#
# PCOD9459700 Si02
#       8
#     8   8   8   8   8   8   8   8
#     4  11  24  39  57  93 141 163 201 243 329 398
#     4  11  23  40  61  90 128 162 204 256 310 381
#     4  10  23  39  65  85 116 164 214 267 295 354
#     4  11  23  38  59  96 133 167 198 247 324 391
#     4  11  20  36  67  94 121 155 206 273 307 357
#     4  10  22  37  65  93 124 163 197 265 314 371
#     4  10  21  36  64  95 121 160 210 255 317 367
#     4  10  20  41  64  93 114 151 227 269 298 347
#
# _framework density 19.270479000000002
#
# number of rings (size 3 to 8) (size 9 to 14) (size 15 to 20)
#    0.000    1.500    2.500    3.000    5.250    1.000 
#    0.000    3.750    0.000    0.000    0.000    0.000 
#    0.000    0.000    0.000    0.000    0.000    0.000 
#
# Total GULP energy -357202.884089 kJ/mol
# GULP energy per Si atom -5581.295064 kJ/mol
# Density = 1.922662 g / cm^3
# Si number density = 19.270479 Si / 1000 Ang^3
#
#
#
# Elastic Constant Matrix: (Units=GPa)
#
#
# Indices 1 2 3 4 5 6 
#
# 1 67.2173 17.2368 15.3230 0.0000 0.0000 0.0000
# 2 17.2368 73.5699 18.5093 0.0000 0.0000 0.0000
# 3 15.3230 18.5093 79.1623 0.0000 0.0000 0.0000
# 4 0.0000 0.0000 0.0000 27.7303 0.0000 0.0000
# 5 0.0000 0.0000 0.0000 0.0000 13.9262 0.0000
# 6 0.0000 0.0000 0.0000 0.0000 0.0000 19.2463
#
#
#
# Elastic Compliance Matrix: (Units=1/GPa)
#
#
# Indices 1 2 3 4 5 6 
#
# 1 0.016245 -0.003203 -0.002395 0.000000 0.000000 0.000000
# 2 -0.003203 0.015074 -0.002904 0.000000 0.000000 0.000000
# 3 -0.002395 -0.002904 0.013775 0.000000 0.000000 0.000000
# 4 0.000000 0.000000 0.000000 0.036062 0.000000 0.000000
# 5 0.000000 0.000000 0.000000 0.000000 0.071807 0.000000
# 6 0.000000 0.000000 0.000000 0.000000 0.000000 0.051958
#
#
# Mechanical properties :
#
#
# Convention : Reuss Voigt Hill
#
# Bulk Modulus (GPa) = 35.60347 35.78750 35.69548
# Shear Modulus (GPa) = 21.61800 23.43925 22.52862
#
# Velocity S-wave (km/s) = 3.35299 3.49138 3.42288
# Velocity P-wave (km/s) = 5.78842 5.90461 5.84680
#
# Compressibility (1/GPa) = 0.02808715
#
# Stress axis : x y z
#
# Youngs Moduli (GPa) = 61.55881 66.34055 72.59509
#
# Poissons Ratio (x) = 0.21251 0.17389
# Poissons Ratio (y) = 0.19719 0.21085
# Poissons Ratio (z) = 0.14746 0.19268
#
# Static dielectric constant tensor:
#      x y z
#    x 1.649280 0.000000 0.000000 
#    y 0.000000 1.721140 0.000000 
#    z 0.000000 0.000000 1.676110 
# 
# From -- ./inp_files/10531.got.cif
#   From: 2010.05.17/outbox.cif.g08.bks.cpg/sg61_6_cif.got.tgz:10531.got - 2010.06.03 15:17:17.
