data_PCOD9459961
_publ_section_title
;
Structure prediction by ZEFSAII (Michael W. Deem and Ramdas Pophale) SiO2 
 PCOD9459961
Probable space group: P B C A
;
_chemical_formula_sum "Si O2"
_cell_formula_units_Z 56
_cell_length_a 9.486594
_cell_length_b 19.237855
_cell_length_c 12.376464
_cell_angle_alpha 90.000000
_cell_angle_beta 90.000000
_cell_angle_gamma 90.000000
_cell_volume 2258.725965
_symmetry_space_group_name_H-M "P B C A"
_symmetry_group_IT_number 61
_symmetry_cell_setting 'orthorhombic'
loop_
_space_group_symop_operation_xyz
x,y,z
1/2-x,-y,1/2+z
1/2+x,1/2-y,-z
-x,1/2+y,1/2-z
-x,-y,-z
1/2+x,y,1/2-z
1/2-x,1/2+y,z
x,1/2-y,1/2+z
loop_
_atom_site_type_symbol
_atom_site_label
_atom_site_fract_x
_atom_site_fract_y
_atom_site_fract_z
Si Si1 0.585359 0.951470 0.087101
Si Si2 0.351432 0.295196 0.480213
Si Si3 0.737719 0.371338 0.822117
Si Si4 0.547191 0.689594 0.169032
Si Si5 0.362260 0.104738 0.689152
Si Si6 0.378943 0.694204 0.806870
Si Si7 0.833336 0.996539 0.971463
O O1 0.577416 0.868888 0.055829
O O2 0.575051 0.947543 0.217695
O O3 0.500000 0.000000 0.000000
O O4 0.746347 0.978016 0.076768
O O5 0.301410 0.311037 0.599982
O O6 0.439780 0.228306 0.445481
O O7 0.213664 0.281546 0.407173
O O8 0.813005 0.349312 0.711729
O O9 0.570722 0.367796 0.821011
O O10 0.746444 0.443253 0.886824
O O11 0.472475 0.749299 0.243329
O O12 0.503409 0.142192 0.652956
O O13 0.241379 0.155264 0.736112
O O14 0.298619 0.068510 0.585119
O O15 0.000000 0.000000 0.000000
#
# Coordination Sequence:
#
# PCOD9459961 Si02
#       7
#     8   8   8   8   8   8   8
#     4  10  21  39  64  98 131 172 233 284 342 416
#     4  10  23  42  64  98 136 173 232 285 348 425
#     4  11  27  44  67  99 141 184 229 296 356 420
#     4  12  23  44  68  99 138 179 236 288 358 431
#     4  11  21  38  69  91 133 176 225 287 345 409
#     4  11  20  40  67  99 125 174 229 282 344 417
#     4  11  25  45  64  98 140 179 228 283 352 426
#
# _framework density 24.792739999999998
#
# number of rings (size 3 to 8) (size 9 to 14) (size 15 to 20)
#    0.000    1.143    4.286    3.429    2.000    4.571 
#    2.571    0.000    0.000    0.000    0.000    0.000 
#    0.000    0.000    0.000    0.000    0.000    0.000 
#
# Total GULP energy -312022.916675 kJ/mol
# GULP energy per Si atom -5571.837798 kJ/mol
# Density = 2.473631 g / cm^3
# Si number density = 24.792740 Si / 1000 Ang^3
#
#
#
# Elastic Constant Matrix: (Units=GPa)
#
#
# Indices 1 2 3 4 5 6 
#
# 1 101.6684 36.9511 -3.3846 0.0000 0.0000 0.0000
# 2 36.9511 43.7635 19.1589 0.0000 0.0000 0.0000
# 3 -3.3846 19.1589 30.3082 0.0000 0.0000 0.0000
# 4 0.0000 0.0000 0.0000 34.4007 0.0000 0.0000
# 5 0.0000 0.0000 0.0000 0.0000 54.0611 0.0000
# 6 0.0000 0.0000 0.0000 0.0000 0.0000 32.7286
#
#
#
# Elastic Compliance Matrix: (Units=1/GPa)
#
#
# Indices 1 2 3 4 5 6 
#
# 1 0.018863 -0.023296 0.016832 0.000000 0.000000 0.000000
# 2 -0.023296 0.060363 -0.040759 0.000000 0.000000 0.000000
# 3 0.016832 -0.040759 0.060639 0.000000 0.000000 0.000000
# 4 0.000000 0.000000 0.000000 0.029069 0.000000 0.000000
# 5 0.000000 0.000000 0.000000 0.000000 0.018498 0.000000
# 6 0.000000 0.000000 0.000000 0.000000 0.000000 0.030554
#
#
# Mechanical properties :
#
#
# Convention : Reuss Voigt Hill
#
# Bulk Modulus (GPa) = 22.01630 31.24342 26.62986
# Shear Modulus (GPa) = 15.26384 32.43906 23.85145
#
# Velocity S-wave (km/s) = 2.48394 3.62112 3.10503
# Velocity P-wave (km/s) = 4.13836 5.48749 4.85997
#
# Compressibility (1/GPa) = 0.04542089
#
# Stress axis : x y z
#
# Youngs Moduli (GPa) = 53.01387 16.56642 16.49092
#
# Poissons Ratio (x) = 0.38593 -0.27758
# Poissons Ratio (y) = 1.23499 0.67216
# Poissons Ratio (z) = -0.89236 0.67523
#
# Static dielectric constant tensor:
#      x y z
#    x 2.048390 0.000000 0.000000 
#    y 0.000000 1.590010 0.000000 
#    z 0.000000 0.000000 2.007940 
# 
# From -- ./inp_files/7169.got.cif
#   From: 2010.05.17/outbox.cif.g08.bks.cpg/sg61_4_cif.got.tgz:7169.got - 2010.06.03 15:17:17.
