data_PCOD9459834
_publ_section_title
;
Structure prediction by ZEFSAII (Michael W. Deem and Ramdas Pophale) SiO2 
 PCOD9459834
Probable space group: P B C A
;
_chemical_formula_sum "Si O2"
_cell_formula_units_Z 64
_cell_length_a 24.337867
_cell_length_b 14.219780
_cell_length_c 9.928014
_cell_angle_alpha 90.000000
_cell_angle_beta 90.000000
_cell_angle_gamma 90.000000
_cell_volume 3435.878293
_symmetry_space_group_name_H-M "P B C A"
_symmetry_group_IT_number 61
_symmetry_cell_setting 'orthorhombic'
loop_
_space_group_symop_operation_xyz
x,y,z
1/2-x,-y,1/2+z
1/2+x,1/2-y,-z
-x,1/2+y,1/2-z
-x,-y,-z
1/2+x,y,1/2-z
1/2-x,1/2+y,z
x,1/2-y,1/2+z
loop_
_atom_site_type_symbol
_atom_site_label
_atom_site_fract_x
_atom_site_fract_y
_atom_site_fract_z
Si Si1 0.887406 0.821725 0.060552
Si Si2 0.997587 0.407289 0.407905
Si Si3 0.118045 0.821301 0.010112
Si Si4 0.860412 0.846299 0.367899
Si Si5 0.379333 0.149051 0.201583
Si Si6 0.311011 0.993049 0.514797
Si Si7 0.719973 0.500618 0.280349
Si Si8 0.460672 0.512984 0.626843
O O1 0.873234 0.809303 0.217552
O O2 0.952767 0.837400 0.051023
O O3 0.862749 0.737987 0.972806
O O4 0.859766 0.919385 0.012760
O O5 0.939498 0.358856 0.431440
O O6 0.000000 0.500000 0.500000
O O7 0.008570 0.441625 0.255268
O O8 0.131278 0.727086 0.089894
O O9 0.162700 0.903894 0.029049
O O10 0.113364 0.806953 0.849695
O O11 0.804854 0.907050 0.351484
O O12 0.909681 0.917906 0.404649
O O13 0.327827 0.078214 0.207120
O O14 0.432652 0.085509 0.169474
O O15 0.274816 0.970159 0.644093
O O16 0.274109 0.986224 0.379559
O O17 0.500000 0.500000 0.500000
#
# Coordination Sequence:
#
# PCOD9459834 Si02
#       8
#     8   8   8   8   8   8   8   8
#     4  10  21  37  60  85 117 152 192 236 289 347
#     4  11  20  39  60  82 122 160 189 235 289 347
#     4  11  23  39  61  90 120 158 199 240 295 357
#     4   9  21  39  56  84 116 149 191 238 286 340
#     4  10  23  40  58  85 123 154 196 245 294 349
#     4  10  21  41  62  83 114 155 195 241 300 347
#     4   9  21  42  60  80 117 151 191 250 292 346
#     4  10  22  39  56  84 122 158 193 237 286 344
#
# _framework density 18.626968999999999
#
# number of rings (size 3 to 8) (size 9 to 14) (size 15 to 20)
#    0.000    2.000    2.500    1.500    3.500    5.000 
#    2.250    5.000    0.000    0.000    0.000    0.000 
#    0.000    0.000    0.000    0.000    0.000    0.000 
#
# Total GULP energy -357286.636180 kJ/mol
# GULP energy per Si atom -5582.603690 kJ/mol
# Density = 1.858457 g / cm^3
# Si number density = 18.626969 Si / 1000 Ang^3
#
#
#
# Elastic Constant Matrix: (Units=GPa)
#
#
# Indices 1 2 3 4 5 6 
#
# 1 42.5281 -17.8206 23.2128 0.0000 0.0000 0.0000
# 2 -17.8206 66.3223 32.3929 0.0000 0.0000 0.0000
# 3 23.2128 32.3929 65.4662 0.0000 0.0000 0.0000
# 4 0.0000 0.0000 0.0000 33.3620 0.0000 0.0000
# 5 0.0000 0.0000 0.0000 0.0000 28.2140 0.0000
# 6 0.0000 0.0000 0.0000 0.0000 0.0000 6.8415
#
#
#
# Elastic Compliance Matrix: (Units=1/GPa)
#
#
# Indices 1 2 3 4 5 6 
#
# 1 0.058070 0.033837 -0.037333 0.000000 0.000000 0.000000
# 2 0.033837 0.039600 -0.031592 0.000000 0.000000 0.000000
# 3 -0.037333 -0.031592 0.044145 0.000000 0.000000 0.000000
# 4 0.000000 0.000000 0.000000 0.029974 0.000000 0.000000
# 5 0.000000 0.000000 0.000000 0.000000 0.035443 0.000000
# 6 0.000000 0.000000 0.000000 0.000000 0.000000 0.146166
#
#
# Mechanical properties :
#
#
# Convention : Reuss Voigt Hill
#
# Bulk Modulus (GPa) = 13.95894 27.76521 20.86207
# Shear Modulus (GPa) = 11.17433 22.78560 16.97996
#
# Velocity S-wave (km/s) = 2.45194 3.50131 3.02251
# Velocity P-wave (km/s) = 3.94034 5.59319 4.83787
#
# Compressibility (1/GPa) = 0.07163869
#
# Stress axis : x y z
#
# Youngs Moduli (GPa) = 17.22056 25.25246 22.65287
#
# Poissons Ratio (x) = -0.85448 0.84570
# Poissons Ratio (y) = -0.58270 0.71566
# Poissons Ratio (z) = 0.64290 0.79778
#
# Static dielectric constant tensor:
#      x y z
#    x 1.637060 0.000000 0.000000 
#    y 0.000000 1.643430 0.000000 
#    z 0.000000 0.000000 1.627160 
# 
# From -- ./inp_files/4326.got.cif
#   From: 2010.05.17/outbox.cif.g08.bks.cpg/sg61_3_cif.got.tgz:4326.got - 2010.06.03 15:17:17.
