data_PCOD9459500
_publ_section_title
;
Structure prediction by ZEFSAII (Michael W. Deem and Ramdas Pophale) SiO2 
 PCOD9459500
Probable space group: P B C A
;
_chemical_formula_sum "Si O2"
_cell_formula_units_Z 64
_cell_length_a 10.886824
_cell_length_b 25.304713
_cell_length_c 12.026067
_cell_angle_alpha 90.000000
_cell_angle_beta 90.000000
_cell_angle_gamma 90.000000
_cell_volume 3313.036626
_symmetry_space_group_name_H-M "P B C A"
_symmetry_group_IT_number 61
_symmetry_cell_setting 'orthorhombic'
loop_
_space_group_symop_operation_xyz
x,y,z
1/2-x,-y,1/2+z
1/2+x,1/2-y,-z
-x,1/2+y,1/2-z
-x,-y,-z
1/2+x,y,1/2-z
1/2-x,1/2+y,z
x,1/2-y,1/2+z
loop_
_atom_site_type_symbol
_atom_site_label
_atom_site_fract_x
_atom_site_fract_y
_atom_site_fract_z
Si Si1 0.338669 0.666000 0.900887
Si Si2 0.658420 0.221492 0.827032
Si Si3 0.719058 0.591080 0.229742
Si Si4 0.962596 0.538803 0.337581
Si Si5 0.486006 0.077059 0.587205
Si Si6 0.031567 0.738004 0.466974
Si Si7 0.774932 0.150891 0.003514
Si Si8 0.168585 0.682415 0.097023
O O1 0.311930 0.700418 0.793588
O O2 0.405611 0.612646 0.863207
O O3 0.435393 0.698161 0.976834
O O4 0.225514 0.658564 0.983283
O O5 0.520961 0.241993 0.850110
O O6 0.745721 0.270563 0.856039
O O7 0.678767 0.175125 0.917492
O O8 0.841150 0.563061 0.279332
O O9 0.596717 0.555401 0.210722
O O10 0.758620 0.617347 0.112058
O O11 0.670368 0.636993 0.311968
O O12 0.967226 0.560340 0.464262
O O13 0.955718 0.475480 0.345228
O O14 0.368251 0.114126 0.566808
O O15 0.153012 0.703214 0.453795
O O16 0.050413 0.785920 0.553382
#
# Coordination Sequence:
#
# PCOD9459500 Si02
#       8
#     8   8   8   8   8   8   8   8
#     4  10  20  37  58  83 113 164 205 243 311 371
#     4  10  22  34  56  85 122 163 205 246 302 367
#     4  11  23  38  65  94 122 160 207 255 317 359
#     4  10  22  40  67  90 117 160 206 265 309 368
#     4   9  19  42  62  82 117 158 209 247 314 376
#     4   9  21  35  51  87 120 164 198 249 300 363
#     4   9  21  38  57  87 120 160 205 251 312 369
#     4  10  22  34  55  86 124 160 203 251 296 376
#
# _framework density 19.317626000000001
#
# number of rings (size 3 to 8) (size 9 to 14) (size 15 to 20)
#    0.000    2.250    1.250    0.000   10.500    3.000 
#    0.000    0.000    0.000    7.500    0.000    0.000 
#    0.000    0.000    0.000    0.000    0.000    0.000 
#
# Total GULP energy -356800.385753 kJ/mol
# GULP energy per Si atom -5575.006027 kJ/mol
# Density = 1.927366 g / cm^3
# Si number density = 19.317626 Si / 1000 Ang^3
#
#
#
# Elastic Constant Matrix: (Units=GPa)
#
#
# Indices 1 2 3 4 5 6 
#
# 1 31.8285 17.7656 -2.7123 0.0000 0.0000 0.0000
# 2 17.7656 99.0630 17.3671 0.0000 0.0000 0.0000
# 3 -2.7123 17.3671 49.9713 0.0000 0.0000 0.0000
# 4 0.0000 0.0000 0.0000 26.9331 0.0000 0.0000
# 5 0.0000 0.0000 0.0000 0.0000 15.9127 0.0000
# 6 0.0000 0.0000 0.0000 0.0000 0.0000 10.9597
#
#
#
# Elastic Compliance Matrix: (Units=1/GPa)
#
#
# Indices 1 2 3 4 5 6 
#
# 1 0.035818 -0.007203 0.004448 0.000000 0.000000 0.000000
# 2 -0.007203 0.012198 -0.004630 0.000000 0.000000 0.000000
# 3 0.004448 -0.004630 0.021862 0.000000 0.000000 0.000000
# 4 0.000000 0.000000 0.000000 0.037129 0.000000 0.000000
# 5 0.000000 0.000000 0.000000 0.000000 0.062843 0.000000
# 6 0.000000 0.000000 0.000000 0.000000 0.000000 0.091243
#
#
# Mechanical properties :
#
#
# Convention : Reuss Voigt Hill
#
# Bulk Modulus (GPa) = 18.14675 27.30038 22.72357
# Shear Modulus (GPa) = 16.99328 20.65727 18.82528
#
# Velocity S-wave (km/s) = 2.96915 3.27364 3.12511
# Velocity P-wave (km/s) = 4.60095 5.33404 4.98100
#
# Compressibility (1/GPa) = 0.05510627
#
# Stress axis : x y z
#
# Youngs Moduli (GPa) = 27.91891 81.97970 45.74123
#
# Poissons Ratio (x) = 0.59052 -0.20343
# Poissons Ratio (y) = 0.20111 0.21180
# Poissons Ratio (z) = -0.12417 0.37959
#
# Static dielectric constant tensor:
#      x y z
#    x 1.706290 0.000000 0.000000 
#    y 0.000000 1.677440 0.000000 
#    z 0.000000 0.000000 1.661690 
# 
# From -- ./inp_files/5456.got.cif
#   From: 2010.05.17/outbox.cif.g08.bks.cpg/sg61_3_cif.got.tgz:5456.got - 2010.06.03 15:17:17.
