data_PCOD9459417
_publ_section_title
;
Structure prediction by ZEFSAII (Michael W. Deem and Ramdas Pophale) SiO2 
 PCOD9459417
Probable space group: P B C A
;
_chemical_formula_sum "Si O2"
_cell_formula_units_Z 48
_cell_length_a 5.350067
_cell_length_b 20.855105
_cell_length_c 18.107090
_cell_angle_alpha 90.000000
_cell_angle_beta 90.000000
_cell_angle_gamma 90.000000
_cell_volume 2020.320459
_symmetry_space_group_name_H-M "P B C A"
_symmetry_group_IT_number 61
_symmetry_cell_setting 'orthorhombic'
loop_
_space_group_symop_operation_xyz
x,y,z
1/2-x,-y,1/2+z
1/2+x,1/2-y,-z
-x,1/2+y,1/2-z
-x,-y,-z
1/2+x,y,1/2-z
1/2-x,1/2+y,z
x,1/2-y,1/2+z
loop_
_atom_site_type_symbol
_atom_site_label
_atom_site_fract_x
_atom_site_fract_y
_atom_site_fract_z
Si Si1 0.708220 0.432248 0.076494
Si Si2 0.047239 0.057922 0.092352
Si Si3 0.972575 0.809079 0.935174
Si Si4 0.468959 0.673429 0.532522
Si Si5 0.606215 0.983975 0.788096
Si Si6 0.436333 0.871215 0.274855
O O1 0.667498 0.504861 0.103799
O O2 0.972814 0.396256 0.066386
O O3 0.572862 0.389243 0.138864
O O4 0.588775 0.434844 0.995411
O O5 0.005773 0.130553 0.119209
O O6 0.296451 0.029958 0.129975
O O7 0.986538 0.734507 0.912867
O O8 0.208340 0.820571 0.990141
O O9 0.702995 0.816112 0.976078
O O10 0.346173 0.958056 0.757651
O O11 0.579660 0.060427 0.770371
O O12 0.685331 0.837051 0.250001
#
# Coordination Sequence:
#
# PCOD9459417 Si02
#       6
#     8   8   8   8   8   8
#     4  10  20  35  57  90 112 141 192 243 272 325
#     4  10  20  35  58  89 113 142 193 244 271 327
#     4   9  19  36  54  78 113 148 179 226 292 336
#     4   9  19  36  54  78 113 148 178 228 291 337
#     4  10  20  37  52  74 112 156 177 214 285 343
#     4  10  20  37  52  74 112 156 176 214 284 343
#
# _framework density 23.758604999999999
#
# number of rings (size 3 to 8) (size 9 to 14) (size 15 to 20)
#    0.000    2.333    3.333    0.000    0.000    6.000 
#    3.000    0.000    0.000    2.000    0.000    0.000 
#    0.000    0.000    0.000    0.000    0.000    0.000 
#
# Total GULP energy -267480.015414 kJ/mol
# GULP energy per Si atom -5572.500321 kJ/mol
# Density = 2.370453 g / cm^3
# Si number density = 23.758605 Si / 1000 Ang^3
#
#
#
# Elastic Constant Matrix: (Units=GPa)
#
#
# Indices 1 2 3 4 5 6 
#
# 1 147.8238 25.0722 37.7165 0.0000 0.0000 0.0000
# 2 25.0722 89.6976 -11.1728 0.0000 0.0000 0.0000
# 3 37.7165 -11.1728 85.7537 0.0000 0.0000 0.0000
# 4 0.0000 0.0000 0.0000 11.5570 0.0000 0.0000
# 5 0.0000 0.0000 0.0000 0.0000 11.1820 0.0000
# 6 0.0000 0.0000 0.0000 0.0000 0.0000 -0.1637
#
#
#
# Elastic Compliance Matrix: (Units=1/GPa)
#
#
# Indices 1 2 3 4 5 6 
#
# 1 0.008261 -0.002807 -0.003999 0.000000 0.000000 0.000000
# 2 -0.002807 0.012286 0.002836 0.000000 0.000000 0.000000
# 3 -0.003999 0.002836 0.013790 0.000000 0.000000 0.000000
# 4 0.000000 0.000000 0.000000 0.086528 0.000000 0.000000
# 5 0.000000 0.000000 0.000000 0.000000 0.089429 0.000000
# 6 0.000000 0.000000 0.000000 0.000000 0.000000 -6.108853
#
#
# Mechanical properties :
#
#
# Convention : Reuss Voigt Hill
#
# Bulk Modulus (GPa) = 37.88551 47.38965 42.63758
# Shear Modulus (GPa) = -0.85008 22.62568 10.88780
#
# Velocity S-wave (km/s) = -0.59881 3.08931 2.14304
# Velocity P-wave (km/s) = 3.93733 5.71968 4.91005
#
# Compressibility (1/GPa) = 0.02639532
#
# Stress axis : x y z
#
# Youngs Moduli (GPa) = 121.04535 81.39026 72.51769
#
# Poissons Ratio (x) = 0.22849 0.29002
# Poissons Ratio (y) = 0.33982 -0.20563
# Poissons Ratio (z) = 0.48410 -0.23079
#
# Static dielectric constant tensor:
#      x y z
#    x 1.980900 0.000000 0.000000 
#    y 0.000000 2.000540 0.000000 
#    z 0.000000 0.000000 1.953790 
# 
# From -- ./inp_files/8749.got.cif
#   From: 2010.05.17/outbox.cif.g08.bks.cpg/sg61_5_cif.got.tgz:8749.got - 2010.06.03 15:17:17.
