data_PCOD9459027
_publ_section_title
;
Structure prediction by ZEFSAII (Michael W. Deem and Ramdas Pophale) SiO2 
 PCOD9459027
Probable space group: P B C A
;
_chemical_formula_sum "Si O2"
_cell_formula_units_Z 60
_cell_length_a 7.534752
_cell_length_b 36.261154
_cell_length_c 8.776243
_cell_angle_alpha 90.000000
_cell_angle_beta 90.000000
_cell_angle_gamma 90.000000
_cell_volume 2397.834604
_symmetry_space_group_name_H-M "P B C A"
_symmetry_group_IT_number 61
_symmetry_cell_setting 'orthorhombic'
loop_
_space_group_symop_operation_xyz
x,y,z
1/2-x,-y,1/2+z
1/2+x,1/2-y,-z
-x,1/2+y,1/2-z
-x,-y,-z
1/2+x,y,1/2-z
1/2-x,1/2+y,z
x,1/2-y,1/2+z
loop_
_atom_site_type_symbol
_atom_site_label
_atom_site_fract_x
_atom_site_fract_y
_atom_site_fract_z
Si Si1 0.117138 0.435167 0.987487
Si Si2 0.998215 0.559642 0.580016
Si Si3 0.719335 0.135581 0.166587
Si Si4 0.500000 0.500000 0.500000
Si Si5 0.123170 0.015739 0.183887
Si Si6 0.255688 0.782614 0.824133
Si Si7 0.380547 0.786025 0.501578
Si Si8 0.894876 0.632379 0.496133
O O1 0.101162 0.397295 0.901607
O O2 0.964074 0.455977 0.074093
O O3 0.130391 0.471491 0.864184
O O4 0.293323 0.431513 0.083645
O O5 0.993708 0.518264 0.643593
O O6 0.952819 0.551530 0.401199
O O7 0.894132 0.597532 0.609321
O O8 0.654824 0.177502 0.142425
O O9 0.730381 0.129446 0.347920
O O10 0.909923 0.133059 0.084212
O O11 0.687191 0.506576 0.388035
O O12 0.242847 0.781495 0.641454
O O13 0.068586 0.783242 0.911396
O O14 0.354469 0.746387 0.882441
O O15 0.364740 0.827206 0.433706
#
# Coordination Sequence:
#
# PCOD9459027 Si02
#       8
#     8   8   8   4   8   8   8   8
#     4   9  18  30  51  69 103 135 173 219 265 314
#     4  10  18  31  50  74 102 134 180 220 270 313
#     4   9  17  32  51  79 104 146 179 226 268 334
#     4   8  18  30  44  66  96 130 172 208 260 314
#     4   9  19  30  48  73  99 134 174 219 265 314
#     4  10  20  35  58  83 114 147 192 235 289 344
#     4  10  20  35  58  84 114 150 190 237 287 349
#     4   9  17  32  53  77 110 141 185 226 275 327
#
# _framework density 25.022576999999998
#
# number of rings (size 3 to 8) (size 9 to 14) (size 15 to 20)
#    0.800    1.867    1.333    0.800    1.867    1.067 
#    0.000    1.333    0.000    0.000    0.000    0.000 
#    0.000    0.000    0.000    0.000    0.000    0.000 
#
# Total GULP energy -334047.644430 kJ/mol
# GULP energy per Si atom -5567.460740 kJ/mol
# Density = 2.496562 g / cm^3
# Si number density = 25.022577 Si / 1000 Ang^3
#
#
#
# Elastic Constant Matrix: (Units=GPa)
#
#
# Indices 1 2 3 4 5 6 
#
# 1 65.3755 41.0237 12.4286 0.0000 0.0000 0.0000
# 2 41.0237 195.2002 29.3681 0.0000 0.0000 0.0000
# 3 12.4286 29.3681 55.9350 0.0000 0.0000 0.0000
# 4 0.0000 0.0000 0.0000 42.0262 0.0000 0.0000
# 5 0.0000 0.0000 0.0000 0.0000 20.1831 0.0000
# 6 0.0000 0.0000 0.0000 0.0000 0.0000 33.4539
#
#
#
# Elastic Compliance Matrix: (Units=1/GPa)
#
#
# Indices 1 2 3 4 5 6 
#
# 1 0.017859 -0.003427 -0.002169 0.000000 0.000000 0.000000
# 2 -0.003427 0.006220 -0.002504 0.000000 0.000000 0.000000
# 3 -0.002169 -0.002504 0.019675 0.000000 0.000000 0.000000
# 4 0.000000 0.000000 0.000000 0.023795 0.000000 0.000000
# 5 0.000000 0.000000 0.000000 0.000000 0.049546 0.000000
# 6 0.000000 0.000000 0.000000 0.000000 0.000000 0.029892
#
#
# Mechanical properties :
#
#
# Convention : Reuss Voigt Hill
#
# Bulk Modulus (GPa) = 36.29327 53.57238 44.93283
# Shear Modulus (GPa) = 29.00715 34.71200 31.85957
#
# Velocity S-wave (km/s) = 3.40845 3.72859 3.57211
# Velocity P-wave (km/s) = 5.47958 6.32397 5.91686
#
# Compressibility (1/GPa) = 0.02755332
#
# Stress axis : x y z
#
# Youngs Moduli (GPa) = 55.99401 160.77339 50.82675
#
# Poissons Ratio (x) = 0.55097 0.11024
# Poissons Ratio (y) = 0.19189 0.12728
# Poissons Ratio (z) = 0.12145 0.40262
#
# Static dielectric constant tensor:
#      x y z
#    x 2.021000 0.000000 0.000000 
#    y 0.000000 2.006150 0.000000 
#    z 0.000000 0.000000 2.096710 
# 
# From -- ./inp_files/4938.got.cif
#   From: 2010.05.17/outbox.cif.g08.bks.cpg/sg61_3_cif.got.tgz:4938.got - 2010.06.03 15:17:17.
