data_PCOD9459524
_publ_section_title
;
Structure prediction by ZEFSAII (Michael W. Deem and Ramdas Pophale) SiO2 
 PCOD9459524
Probable space group: P B C A
;
_chemical_formula_sum "Si O2"
_cell_formula_units_Z 48
_cell_length_a 7.436773
_cell_length_b 11.574517
_cell_length_c 22.884444
_cell_angle_alpha 90.000000
_cell_angle_beta 90.000000
_cell_angle_gamma 90.000000
_cell_volume 1969.825557
_symmetry_space_group_name_H-M "P B C A"
_symmetry_group_IT_number 61
_symmetry_cell_setting 'orthorhombic'
loop_
_space_group_symop_operation_xyz
x,y,z
1/2-x,-y,1/2+z
1/2+x,1/2-y,-z
-x,1/2+y,1/2-z
-x,-y,-z
1/2+x,y,1/2-z
1/2-x,1/2+y,z
x,1/2-y,1/2+z
loop_
_atom_site_type_symbol
_atom_site_label
_atom_site_fract_x
_atom_site_fract_y
_atom_site_fract_z
Si Si1 0.101430 0.846135 0.165620
Si Si2 0.597113 0.779577 0.623220
Si Si3 0.968256 0.609906 0.152758
Si Si4 0.475134 0.514923 0.930689
Si Si5 0.789468 0.095568 0.715541
Si Si6 0.949397 0.059193 0.560018
O O1 0.103692 0.708107 0.171940
O O2 0.099336 0.887386 0.098888
O O3 0.908223 0.891871 0.188890
O O4 0.230171 0.893709 0.215226
O O5 0.807159 0.818395 0.620561
O O6 0.600434 0.700740 0.682661
O O7 0.524937 0.693481 0.573015
O O8 0.498748 0.899969 0.609075
O O9 0.874131 0.528810 0.200629
O O10 0.047953 0.519378 0.107671
O O11 0.263798 0.546817 0.926763
O O12 0.500000 0.500000 0.000000
O O13 0.000000 0.000000 0.500000
#
# Coordination Sequence:
#
# PCOD9459524 Si02
#       6
#     8   8   8   8   8   8
#     4  11  22  39  60  87 119 158 200 254 303 360
#     4   9  18  39  61  81 118 160 197 244 303 355
#     4   9  18  38  60  80 119 153 196 243 310 353
#     4  11  23  39  59  88 124 160 199 244 309 362
#     4  10  21  38  64  85 114 160 201 249 310 355
#     4  10  20  37  63  83 113 162 199 242 296 359
#
# _framework density 24.367642
#
# number of rings (size 3 to 8) (size 9 to 14) (size 15 to 20)
#    0.000    2.000    6.667    0.000    4.667    0.000 
#    6.000    1.667    0.000    0.000    0.000    0.000 
#    0.000    0.000    0.000    0.000    0.000    0.000 
#
# Total GULP energy -267811.982509 kJ/mol
# GULP energy per Si atom -5579.416302 kJ/mol
# Density = 2.431218 g / cm^3
# Si number density = 24.367642 Si / 1000 Ang^3
#
#
#
# Elastic Constant Matrix: (Units=GPa)
#
#
# Indices 1 2 3 4 5 6 
#
# 1 58.6842 11.0869 12.0186 0.0000 0.0000 0.0000
# 2 11.0869 128.5121 1.1720 0.0000 0.0000 0.0000
# 3 12.0186 1.1720 83.7342 0.0000 0.0000 0.0000
# 4 0.0000 0.0000 0.0000 26.3787 0.0000 0.0000
# 5 0.0000 0.0000 0.0000 0.0000 27.0568 0.0000
# 6 0.0000 0.0000 0.0000 0.0000 0.0000 19.5941
#
#
#
# Elastic Compliance Matrix: (Units=1/GPa)
#
#
# Indices 1 2 3 4 5 6 
#
# 1 0.017847 -0.001517 -0.002540 0.000000 0.000000 0.000000
# 2 -0.001517 0.007911 0.000107 0.000000 0.000000 0.000000
# 3 -0.002540 0.000107 0.012306 0.000000 0.000000 0.000000
# 4 0.000000 0.000000 0.000000 0.037909 0.000000 0.000000
# 5 0.000000 0.000000 0.000000 0.000000 0.036959 0.000000
# 6 0.000000 0.000000 0.000000 0.000000 0.000000 0.051036
#
#
# Mechanical properties :
#
#
# Convention : Reuss Voigt Hill
#
# Bulk Modulus (GPa) = 33.15203 35.49837 34.32520
# Shear Modulus (GPa) = 27.48411 31.04944 29.26678
#
# Velocity S-wave (km/s) = 3.36206 3.57348 3.46938
# Velocity P-wave (km/s) = 5.35777 5.62368 5.49233
#
# Compressibility (1/GPa) = 0.03016406
#
# Stress axis : x y z
#
# Youngs Moduli (GPa) = 56.03133 126.40266 81.26322
#
# Poissons Ratio (x) = 0.19169 0.20644
# Poissons Ratio (y) = 0.08497 -0.00869
# Poissons Ratio (z) = 0.14234 -0.01352
#
# Static dielectric constant tensor:
#      x y z
#    x 2.005640 0.000000 0.000000 
#    y 0.000000 1.975200 0.000000 
#    z 0.000000 0.000000 2.028870 
# 
# From -- ./inp_files/2276.got.cif
#   From: 2010.05.17/outbox.cif.g08.bks.cpg/sg61_2_cif.got.tgz:2276.got - 2010.06.03 15:17:17.
