data_PCOD9459586
_publ_section_title
;
Structure prediction by ZEFSAII (Michael W. Deem and Ramdas Pophale) SiO2 
 PCOD9459586
Probable space group: P B C A
;
_chemical_formula_sum "Si O2"
_cell_formula_units_Z 64
_cell_length_a 13.623407
_cell_length_b 11.980550
_cell_length_c 16.998868
_cell_angle_alpha 90.000000
_cell_angle_beta 90.000000
_cell_angle_gamma 90.000000
_cell_volume 2774.485688
_symmetry_space_group_name_H-M "P B C A"
_symmetry_group_IT_number 61
_symmetry_cell_setting 'orthorhombic'
loop_
_space_group_symop_operation_xyz
x,y,z
1/2-x,-y,1/2+z
1/2+x,1/2-y,-z
-x,1/2+y,1/2-z
-x,-y,-z
1/2+x,y,1/2-z
1/2-x,1/2+y,z
x,1/2-y,1/2+z
loop_
_atom_site_type_symbol
_atom_site_label
_atom_site_fract_x
_atom_site_fract_y
_atom_site_fract_z
Si Si1 0.655820 0.144871 0.376496
Si Si2 0.184489 0.024058 0.599597
Si Si3 0.048141 0.485283 0.893462
Si Si4 0.685076 0.758366 0.763389
Si Si5 0.944669 0.054411 0.788424
Si Si6 0.857286 0.791718 0.510170
Si Si7 0.657391 0.005376 0.724322
Si Si8 0.723064 0.875448 0.105461
O O1 0.713199 0.211288 0.307554
O O2 0.589624 0.045374 0.344179
O O3 0.596948 0.224409 0.435860
O O4 0.748719 0.082565 0.416895
O O5 0.210471 0.120822 0.538514
O O6 0.203134 0.047766 0.692956
O O7 0.066985 0.007524 0.593704
O O8 0.067761 0.505766 0.800541
O O9 0.078331 0.366511 0.930718
O O10 0.122003 0.577799 0.930583
O O11 0.612781 0.669403 0.804086
O O12 0.634363 0.877758 0.746719
O O13 0.702133 0.704367 0.679187
O O14 0.060255 0.073464 0.794659
O O15 0.796209 0.698647 0.555196
O O16 0.725431 0.018171 0.648349
#
# Coordination Sequence:
#
# PCOD9459586 Si02
#       8
#     8   8   8   8   8   8   8   8
#     4  11  22  38  61  90 122 158 206 255 304 361
#     4  10  22  41  62  87 120 163 210 244 296 376
#     4  10  22  41  62  87 120 163 210 244 296 376
#     4  10  20  38  64  86 118 164 204 258 308 346
#     4  10  22  40  64  94 121 154 208 259 304 363
#     4  12  23  36  58  86 125 164 192 246 306 354
#     4  10  22  40  64  94 121 154 208 259 304 363
#     4  11  22  38  61  90 122 158 206 255 304 361
#
# _framework density 23.067336999999998
#
# number of rings (size 3 to 8) (size 9 to 14) (size 15 to 20)
#    0.000    1.500    0.000    7.125    0.000    7.000 
#    0.000    3.125    0.000    0.000    0.000    0.000 
#    0.000    0.000    0.000    0.000    0.000    0.000 
#
# Total GULP energy -357282.154280 kJ/mol
# GULP energy per Si atom -5582.533661 kJ/mol
# Density = 2.301484 g / cm^3
# Si number density = 23.067337 Si / 1000 Ang^3
#
#
#
# Elastic Constant Matrix: (Units=GPa)
#
#
# Indices 1 2 3 4 5 6 
#
# 1 58.7473 10.1689 9.0336 0.0000 0.0000 0.0000
# 2 10.1689 109.3935 23.6539 0.0000 0.0000 0.0000
# 3 9.0336 23.6539 67.5285 0.0000 0.0000 0.0000
# 4 0.0000 0.0000 0.0000 45.9797 0.0000 0.0000
# 5 0.0000 0.0000 0.0000 0.0000 17.0227 0.0000
# 6 0.0000 0.0000 0.0000 0.0000 0.0000 20.8322
#
#
#
# Elastic Compliance Matrix: (Units=1/GPa)
#
#
# Indices 1 2 3 4 5 6 
#
# 1 0.017527 -0.001214 -0.001919 0.000000 0.000000 0.000000
# 2 -0.001214 0.009975 -0.003331 0.000000 0.000000 0.000000
# 3 -0.001919 -0.003331 0.016232 0.000000 0.000000 0.000000
# 4 0.000000 0.000000 0.000000 0.021749 0.000000 0.000000
# 5 0.000000 0.000000 0.000000 0.000000 0.058745 0.000000
# 6 0.000000 0.000000 0.000000 0.000000 0.000000 0.048003
#
#
# Mechanical properties :
#
#
# Convention : Reuss Voigt Hill
#
# Bulk Modulus (GPa) = 32.46333 35.70913 34.08623
# Shear Modulus (GPa) = 25.58479 29.62113 27.60296
#
# Velocity S-wave (km/s) = 3.33398 3.58734 3.46298
# Velocity P-wave (km/s) = 5.37814 5.71600 5.54964
#
# Compressibility (1/GPa) = 0.03080399
#
# Stress axis : x y z
#
# Youngs Moduli (GPa) = 57.05354 100.25531 61.60574
#
# Poissons Ratio (x) = 0.12174 0.11825
# Poissons Ratio (y) = 0.06928 0.20524
# Poissons Ratio (z) = 0.10951 0.33399
#
# Static dielectric constant tensor:
#      x y z
#    x 1.876960 0.000000 0.000000 
#    y 0.000000 1.925300 0.000000 
#    z 0.000000 0.000000 1.942080 
# 
# From -- ./inp_files/9542.got.cif
#   From: 2010.05.17/outbox.cif.g08.bks.cpg/sg61_5_cif.got.tgz:9542.got - 2010.06.03 15:17:17.
