data_PCOD9459091
_publ_section_title
;
Structure prediction by ZEFSAII (Michael W. Deem and Ramdas Pophale) SiO2 
 PCOD9459091
Probable space group: P B C A
;
_chemical_formula_sum "Si O2"
_cell_formula_units_Z 60
_cell_length_a 10.809813
_cell_length_b 15.780843
_cell_length_c 13.935956
_cell_angle_alpha 90.000000
_cell_angle_beta 90.000000
_cell_angle_gamma 90.000000
_cell_volume 2377.306330
_symmetry_space_group_name_H-M "P B C A"
_symmetry_group_IT_number 61
_symmetry_cell_setting 'orthorhombic'
loop_
_space_group_symop_operation_xyz
x,y,z
1/2-x,-y,1/2+z
1/2+x,1/2-y,-z
-x,1/2+y,1/2-z
-x,-y,-z
1/2+x,y,1/2-z
1/2-x,1/2+y,z
x,1/2-y,1/2+z
loop_
_atom_site_type_symbol
_atom_site_label
_atom_site_fract_x
_atom_site_fract_y
_atom_site_fract_z
Si Si1 0.861378 0.777234 0.644504
Si Si2 0.149011 0.849091 0.361894
Si Si3 0.074849 0.911047 0.169040
Si Si4 0.278940 0.583544 0.207044
Si Si5 0.500000 0.000000 0.000000
Si Si6 0.230598 0.115632 0.526575
Si Si7 0.094054 0.669350 0.073564
Si Si8 0.168463 0.492154 0.378675
O O1 0.766976 0.703738 0.672777
O O2 0.844385 0.851637 0.720904
O O3 0.815994 0.807907 0.539068
O O4 0.007480 0.765548 0.630692
O O5 0.059483 0.870960 0.274847
O O6 0.100836 0.809010 0.460332
O O7 0.201626 0.941354 0.393900
O O8 0.186976 0.862258 0.117107
O O9 0.944863 0.927714 0.117294
O O10 0.131521 0.007363 0.176190
O O11 0.221313 0.641152 0.122974
O O12 0.176869 0.537184 0.275235
O O13 0.478675 0.079713 0.072234
O O14 0.383727 0.945340 0.050551
O O15 0.326461 0.062812 0.459541
#
# Coordination Sequence:
#
# PCOD9459091 Si02
#       8
#     8   8   8   8   4   8   8   8
#     4  10  25  41  61  91 130 171 217 264 330 401
#     4  11  25  41  58  98 132 177 224 261 338 413
#     4  11  22  38  66  97 132 168 215 279 333 393
#     4  10  21  40  64  97 121 164 221 273 326 390
#     4  10  18  36  68  94 114 160 226 266 316 384
#     4  10  20  39  63  97 124 168 224 277 331 382
#     4  11  22  41  70  87 127 172 217 273 326 392
#     4  10  21  37  62  96 132 163 222 281 325 387
#
# _framework density 25.238648999999999
#
# number of rings (size 3 to 8) (size 9 to 14) (size 15 to 20)
#    0.000    1.600    2.667    1.200    3.733    4.267 
#    0.000    2.667    0.000    0.000    0.000    0.000 
#    0.000    0.000    0.000    0.000    0.000    0.000 
#
# Total GULP energy -334454.708702 kJ/mol
# GULP energy per Si atom -5574.245145 kJ/mol
# Density = 2.518121 g / cm^3
# Si number density = 25.238649 Si / 1000 Ang^3
#
#
#
# Elastic Constant Matrix: (Units=GPa)
#
#
# Indices 1 2 3 4 5 6 
#
# 1 64.8279 5.5880 14.1728 0.0000 0.0000 0.0000
# 2 5.5880 43.1035 -7.7263 0.0000 0.0000 0.0000
# 3 14.1728 -7.7263 83.0178 0.0000 0.0000 0.0000
# 4 0.0000 0.0000 0.0000 26.8860 0.0000 0.0000
# 5 0.0000 0.0000 0.0000 0.0000 18.4841 0.0000
# 6 0.0000 0.0000 0.0000 0.0000 0.0000 52.9358
#
#
#
# Elastic Compliance Matrix: (Units=1/GPa)
#
#
# Indices 1 2 3 4 5 6 
#
# 1 0.016318 -0.002659 -0.003033 0.000000 0.000000 0.000000
# 2 -0.002659 0.024027 0.002690 0.000000 0.000000 0.000000
# 3 -0.003033 0.002690 0.012814 0.000000 0.000000 0.000000
# 4 0.000000 0.000000 0.000000 0.037194 0.000000 0.000000
# 5 0.000000 0.000000 0.000000 0.000000 0.054101 0.000000
# 6 0.000000 0.000000 0.000000 0.000000 0.000000 0.018891
#
#
# Mechanical properties :
#
#
# Convention : Reuss Voigt Hill
#
# Bulk Modulus (GPa) = 21.20714 23.89089 22.54902
# Shear Modulus (GPa) = 27.01729 31.58882 29.30305
#
# Velocity S-wave (km/s) = 3.27536 3.54164 3.41110
# Velocity P-wave (km/s) = 4.76706 5.11965 4.94650
#
# Compressibility (1/GPa) = 0.04715393
#
# Stress axis : x y z
#
# Youngs Moduli (GPa) = 61.28272 41.61997 78.04075
#
# Poissons Ratio (x) = 0.11067 0.23672
# Poissons Ratio (y) = 0.16296 -0.20994
# Poissons Ratio (z) = 0.18589 -0.11196
#
# Static dielectric constant tensor:
#      x y z
#    x 2.082210 0.000000 0.000000 
#    y 0.000000 1.918390 0.000000 
#    z 0.000000 0.000000 2.040690 
# 
# From -- ./inp_files/7609.got.cif
#   From: 2010.05.17/outbox.cif.g08.bks.cpg/sg61_4_cif.got.tgz:7609.got - 2010.06.03 15:17:17.
