data_PCOD9459635
_publ_section_title
;
Structure prediction by ZEFSAII (Michael W. Deem and Ramdas Pophale) SiO2 
 PCOD9459635
Probable space group: P B C A
;
_chemical_formula_sum "Si O2"
_cell_formula_units_Z 64
_cell_length_a 13.948209
_cell_length_b 8.192995
_cell_length_c 23.316630
_cell_angle_alpha 90.000000
_cell_angle_beta 90.000000
_cell_angle_gamma 90.000000
_cell_volume 2664.568670
_symmetry_space_group_name_H-M "P B C A"
_symmetry_group_IT_number 61
_symmetry_cell_setting 'orthorhombic'
loop_
_space_group_symop_operation_xyz
x,y,z
1/2-x,-y,1/2+z
1/2+x,1/2-y,-z
-x,1/2+y,1/2-z
-x,-y,-z
1/2+x,y,1/2-z
1/2-x,1/2+y,z
x,1/2-y,1/2+z
loop_
_atom_site_type_symbol
_atom_site_label
_atom_site_fract_x
_atom_site_fract_y
_atom_site_fract_z
Si Si1 0.631694 0.325065 0.140814
Si Si2 0.170171 0.719492 0.485405
Si Si3 0.806380 0.496362 0.093364
Si Si4 0.684912 0.231209 0.416302
Si Si5 0.120053 0.533563 0.707860
Si Si6 0.952531 0.051623 0.917470
Si Si7 0.813147 0.484027 0.837957
Si Si8 0.453910 0.832361 0.233271
O O1 0.738602 0.393696 0.135542
O O2 0.562925 0.415878 0.094768
O O3 0.590964 0.351070 0.203687
O O4 0.632829 0.134472 0.124583
O O5 0.136039 0.866491 0.444923
O O6 0.230779 0.592852 0.447200
O O7 0.252873 0.786854 0.527432
O O8 0.090725 0.645285 0.527992
O O9 0.671504 0.414611 0.396720
O O10 0.587079 0.131820 0.422795
O O11 0.751012 0.163329 0.364173
O O12 0.094652 0.601971 0.643997
O O13 0.234351 0.540112 0.709654
O O14 0.077333 0.347864 0.711523
O O15 0.066474 0.640112 0.755625
O O16 0.912250 0.521116 0.805893
#
# Coordination Sequence:
#
# PCOD9459635 Si02
#       8
#     8   8   8   8   8   8   8   8
#     4  10  25  43  61  83 131 167 215 257 297 379
#     4  11  19  38  67  88 124 154 201 267 316 362
#     4  10  23  42  60  90 118 170 214 249 311 377
#     4  11  19  36  64  97 119 155 194 262 325 367
#     4  10  23  39  59  96 123 159 211 248 309 375
#     4  10  20  39  64  91 122 152 202 260 315 366
#     4  11  21  36  62  91 126 157 206 244 318 381
#     4  11  24  41  62  89 130 169 201 259 301 368
#
# _framework density 24.018896999999999
#
# number of rings (size 3 to 8) (size 9 to 14) (size 15 to 20)
#    0.000    1.500    6.250    0.000    3.500    1.000 
#    2.250    0.000    5.500    0.000    0.000    0.000 
#    0.000    0.000    0.000    0.000    0.000    0.000 
#
# Total GULP energy -357226.797417 kJ/mol
# GULP energy per Si atom -5581.668710 kJ/mol
# Density = 2.396423 g / cm^3
# Si number density = 24.018897 Si / 1000 Ang^3
#
#
#
# Elastic Constant Matrix: (Units=GPa)
#
#
# Indices 1 2 3 4 5 6 
#
# 1 54.4365 0.1422 -3.7108 0.0000 0.0000 0.0000
# 2 0.1422 48.4093 4.4982 0.0000 0.0000 0.0000
# 3 -3.7108 4.4982 59.4537 0.0000 0.0000 0.0000
# 4 0.0000 0.0000 0.0000 26.2614 0.0000 0.0000
# 5 0.0000 0.0000 0.0000 0.0000 17.6369 0.0000
# 6 0.0000 0.0000 0.0000 0.0000 0.0000 14.4748
#
#
#
# Elastic Compliance Matrix: (Units=1/GPa)
#
#
# Indices 1 2 3 4 5 6 
#
# 1 0.018450 -0.000162 0.001164 0.000000 0.000000 0.000000
# 2 -0.000162 0.020805 -0.001584 0.000000 0.000000 0.000000
# 3 0.001164 -0.001584 0.017012 0.000000 0.000000 0.000000
# 4 0.000000 0.000000 0.000000 0.038079 0.000000 0.000000
# 5 0.000000 0.000000 0.000000 0.000000 0.056699 0.000000
# 6 0.000000 0.000000 0.000000 0.000000 0.000000 0.069086
#
#
# Mechanical properties :
#
#
# Convention : Reuss Voigt Hill
#
# Bulk Modulus (GPa) = 18.14832 18.23986 18.19409
# Shear Modulus (GPa) = 20.86260 22.43261 21.64760
#
# Velocity S-wave (km/s) = 2.95038 3.05939 3.00538
# Velocity P-wave (km/s) = 4.37934 4.48221 4.43107
#
# Compressibility (1/GPa) = 0.05510152
#
# Stress axis : x y z
#
# Youngs Moduli (GPa) = 54.20119 48.06571 58.78101
#
# Poissons Ratio (x) = 0.00780 -0.06841
# Poissons Ratio (y) = 0.00880 0.09312
# Poissons Ratio (z) = -0.06308 0.07615
#
# Static dielectric constant tensor:
#      x y z
#    x 1.908030 0.000000 0.000000 
#    y 0.000000 1.995550 0.000000 
#    z 0.000000 0.000000 1.907990 
# 
# From -- ./inp_files/11099.got.cif
#   From: 2010.05.17/outbox.cif.g08.bks.cpg/sg61_6_cif.got.tgz:11099.got - 2010.06.03 15:17:17.
