data_PCOD9459458
_publ_section_title
;
Structure prediction by ZEFSAII (Michael W. Deem and Ramdas Pophale) SiO2 
 PCOD9459458
Probable space group: P B C A
;
_chemical_formula_sum "Si O2"
_cell_formula_units_Z 64
_cell_length_a 14.948732
_cell_length_b 23.436125
_cell_length_c 9.277883
_cell_angle_alpha 90.000000
_cell_angle_beta 90.000000
_cell_angle_gamma 90.000000
_cell_volume 3250.416794
_symmetry_space_group_name_H-M "P B C A"
_symmetry_group_IT_number 61
_symmetry_cell_setting 'orthorhombic'
loop_
_space_group_symop_operation_xyz
x,y,z
1/2-x,-y,1/2+z
1/2+x,1/2-y,-z
-x,1/2+y,1/2-z
-x,-y,-z
1/2+x,y,1/2-z
1/2-x,1/2+y,z
x,1/2-y,1/2+z
loop_
_atom_site_type_symbol
_atom_site_label
_atom_site_fract_x
_atom_site_fract_y
_atom_site_fract_z
Si Si1 0.136705 0.751341 0.862691
Si Si2 0.593267 0.558841 0.795033
Si Si3 0.899280 0.879854 0.968764
Si Si4 0.451580 0.178498 0.617894
Si Si5 0.619981 0.559875 0.472387
Si Si6 0.799525 0.996320 0.001972
Si Si7 0.723507 0.675437 0.391415
Si Si8 0.458968 0.038730 0.320747
O O1 0.071427 0.714472 0.759784
O O2 0.191102 0.790791 0.750185
O O3 0.079686 0.787690 0.976836
O O4 0.199566 0.712149 0.964886
O O5 0.602975 0.619699 0.868678
O O6 0.579829 0.571339 0.628251
O O7 0.511207 0.520470 0.852138
O O8 0.676411 0.519958 0.842721
O O9 0.839829 0.932973 0.023176
O O10 0.947558 0.843250 0.092597
O O11 0.828157 0.840527 0.885846
O O12 0.978606 0.909404 0.875218
O O13 0.694011 0.511161 0.504653
O O14 0.668432 0.616501 0.410827
O O15 0.551570 0.541894 0.350240
O O16 0.859953 0.034762 0.109044
#
# Coordination Sequence:
#
# PCOD9459458 Si02
#       8
#     8   8   8   8   8   8   8   8
#     4  10  23  40  62  85 114 152 210 254 295 350
#     4  11  20  37  58  84 123 158 187 237 294 359
#     4  10  20  37  64  83 120 154 195 238 304 355
#     4  11  20  40  63  85 112 158 197 245 303 347
#     4  11  22  35  58  91 122 152 196 242 292 350
#     4  10  20  36  59  87 118 156 191 227 291 367
#     4  10  22  39  61  85 116 156 198 259 296 348
#     4  11  20  37  59  89 123 157 193 234 293 371
#
# _framework density 19.689782999999998
#
# number of rings (size 3 to 8) (size 9 to 14) (size 15 to 20)
#    0.000    1.500    3.750    2.625    0.000    1.000 
#    0.000    0.000    5.500    0.000    0.000    0.000 
#    0.000    0.000    0.000    0.000    0.000    0.000 
#
# Total GULP energy -356795.530190 kJ/mol
# GULP energy per Si atom -5574.930159 kJ/mol
# Density = 1.964497 g / cm^3
# Si number density = 19.689783 Si / 1000 Ang^3
#
#
#
# Elastic Constant Matrix: (Units=GPa)
#
#
# Indices 1 2 3 4 5 6 
#
# 1 41.7599 24.6381 12.4054 0.0000 0.0000 0.0000
# 2 24.6381 92.6397 42.8018 0.0000 0.0000 0.0000
# 3 12.4054 42.8018 115.5128 0.0000 0.0000 0.0000
# 4 0.0000 0.0000 0.0000 24.9421 0.0000 0.0000
# 5 0.0000 0.0000 0.0000 0.0000 13.1311 0.0000
# 6 0.0000 0.0000 0.0000 0.0000 0.0000 32.2512
#
#
#
# Elastic Compliance Matrix: (Units=1/GPa)
#
#
# Indices 1 2 3 4 5 6 
#
# 1 0.028412 -0.007416 -0.000303 0.000000 0.000000 0.000000
# 2 -0.007416 0.014960 -0.004747 0.000000 0.000000 0.000000
# 3 -0.000303 -0.004747 0.010448 0.000000 0.000000 0.000000
# 4 0.000000 0.000000 0.000000 0.040093 0.000000 0.000000
# 5 0.000000 0.000000 0.000000 0.000000 0.076155 0.000000
# 6 0.000000 0.000000 0.000000 0.000000 0.000000 0.031007
#
#
# Mechanical properties :
#
#
# Convention : Reuss Voigt Hill
#
# Bulk Modulus (GPa) = 34.61652 45.51145 40.06399
# Shear Modulus (GPa) = 21.21907 25.40268 23.31087
#
# Velocity S-wave (km/s) = 3.28635 3.59576 3.44453
# Velocity P-wave (km/s) = 5.65855 6.35639 6.01760
#
# Compressibility (1/GPa) = 0.02888794
#
# Stress axis : x y z
#
# Youngs Moduli (GPa) = 35.19629 66.84470 95.70768
#
# Poissons Ratio (x) = 0.49574 0.02903
# Poissons Ratio (y) = 0.26102 0.45430
# Poissons Ratio (z) = 0.01067 0.31730
#
# Static dielectric constant tensor:
#      x y z
#    x 1.718910 0.000000 0.000000 
#    y 0.000000 1.705480 0.000000 
#    z 0.000000 0.000000 1.721120 
# 
# From -- ./inp_files/3177.got.cif
#   From: 2010.05.17/outbox.cif.g08.bks.cpg/sg61_2_cif.got.tgz:3177.got - 2010.06.03 15:17:17.
