data_PCOD9459712
_publ_section_title
;
Structure prediction by ZEFSAII (Michael W. Deem and Ramdas Pophale) SiO2 
 PCOD9459712
Probable space group: P B C A
;
_chemical_formula_sum "Si O2"
_cell_formula_units_Z 64
_cell_length_a 11.232980
_cell_length_b 15.287461
_cell_length_c 17.446953
_cell_angle_alpha 90.000000
_cell_angle_beta 90.000000
_cell_angle_gamma 90.000000
_cell_volume 2996.056085
_symmetry_space_group_name_H-M "P B C A"
_symmetry_group_IT_number 61
_symmetry_cell_setting 'orthorhombic'
loop_
_space_group_symop_operation_xyz
x,y,z
1/2-x,-y,1/2+z
1/2+x,1/2-y,-z
-x,1/2+y,1/2-z
-x,-y,-z
1/2+x,y,1/2-z
1/2-x,1/2+y,z
x,1/2-y,1/2+z
loop_
_atom_site_type_symbol
_atom_site_label
_atom_site_fract_x
_atom_site_fract_y
_atom_site_fract_z
Si Si1 0.786509 0.216719 0.036154
Si Si2 0.171900 0.501912 0.834530
Si Si3 0.332216 0.319634 0.705846
Si Si4 0.779561 0.835964 0.369086
Si Si5 0.942341 0.834731 0.601434
Si Si6 0.839471 0.983865 0.834589
Si Si7 0.029491 0.867979 0.435029
Si Si8 0.598657 0.918758 0.640534
O O1 0.659409 0.233475 0.076943
O O2 0.884057 0.286380 0.057486
O O3 0.842794 0.125810 0.066139
O O4 0.761058 0.213024 0.946505
O O5 0.126634 0.403212 0.845727
O O6 0.131773 0.523749 0.749397
O O7 0.108559 0.556148 0.899781
O O8 0.314540 0.499943 0.839457
O O9 0.258541 0.228890 0.699920
O O10 0.443769 0.306338 0.648896
O O11 0.251153 0.401802 0.676547
O O12 0.382801 0.350495 0.788492
O O13 0.722669 0.932839 0.373207
O O14 0.920480 0.848880 0.378112
O O15 0.979667 0.880492 0.521114
O O16 0.962672 0.947436 0.868420
#
# Coordination Sequence:
#
# PCOD9459712 Si02
#       8
#     8   8   8   8   8   8   8   8
#     4  10  23  42  61 100 127 167 227 263 328 401
#     4  10  22  39  62  96 124 171 223 263 328 392
#     4  11  22  43  67  94 137 178 212 270 341 385
#     4  11  25  42  67  99 131 174 224 274 327 402
#     4  10  20  41  68  88 128 170 215 269 324 391
#     4  11  24  42  65 100 133 171 226 271 330 400
#     4  11  22  41  66  93 132 170 219 276 325 391
#     4  10  23  42  63  93 134 173 213 278 330 393
#
# _framework density 21.361415999999998
#
# number of rings (size 3 to 8) (size 9 to 14) (size 15 to 20)
#    0.000    1.500    2.500    1.875    3.500    3.500 
#    0.000    0.000    0.000    0.000    0.000    0.000 
#    0.000    0.000    0.000    0.000    0.000    0.000 
#
# Total GULP energy -357193.593298 kJ/mol
# GULP energy per Si atom -5581.149895 kJ/mol
# Density = 2.131280 g / cm^3
# Si number density = 21.361416 Si / 1000 Ang^3
#
#
#
# Elastic Constant Matrix: (Units=GPa)
#
#
# Indices 1 2 3 4 5 6 
#
# 1 109.8030 19.2906 18.4900 0.0000 0.0000 0.0000
# 2 19.2906 51.7058 -0.0371 0.0000 0.0000 0.0000
# 3 18.4900 -0.0371 36.9819 0.0000 0.0000 0.0000
# 4 0.0000 0.0000 0.0000 11.7915 0.0000 0.0000
# 5 0.0000 0.0000 0.0000 0.0000 30.3214 0.0000
# 6 0.0000 0.0000 0.0000 0.0000 0.0000 20.8293
#
#
#
# Elastic Compliance Matrix: (Units=1/GPa)
#
#
# Indices 1 2 3 4 5 6 
#
# 1 0.010713 -0.004001 -0.005360 0.000000 0.000000 0.000000
# 2 -0.004001 0.020834 0.002021 0.000000 0.000000 0.000000
# 3 -0.005360 0.002021 0.029722 0.000000 0.000000 0.000000
# 4 0.000000 0.000000 0.000000 0.084807 0.000000 0.000000
# 5 0.000000 0.000000 0.000000 0.000000 0.032980 0.000000
# 6 0.000000 0.000000 0.000000 0.000000 0.000000 0.048009
#
#
# Mechanical properties :
#
#
# Convention : Reuss Voigt Hill
#
# Bulk Modulus (GPa) = 21.46385 30.44195 25.95290
# Shear Modulus (GPa) = 19.43452 23.30493 21.36973
#
# Velocity S-wave (km/s) = 3.01955 3.30659 3.16632
# Velocity P-wave (km/s) = 4.71452 5.37214 5.05404
#
# Compressibility (1/GPa) = 0.04658997
#
# Stress axis : x y z
#
# Youngs Moduli (GPa) = 93.34762 47.99805 33.64488
#
# Poissons Ratio (x) = 0.19202 0.18034
# Poissons Ratio (y) = 0.37344 -0.06800
# Poissons Ratio (z) = 0.50035 -0.09701
#
# Static dielectric constant tensor:
#      x y z
#    x 1.806340 0.000000 0.000000 
#    y 0.000000 1.825950 0.000000 
#    z 0.000000 0.000000 1.801790 
# 
# From -- ./inp_files/5985.got.cif
#   From: 2010.05.17/outbox.cif.g08.bks.cpg/sg61_3_cif.got.tgz:5985.got - 2010.06.03 15:17:17.
