data_PCOD9459349
_publ_section_title
;
Structure prediction by ZEFSAII (Michael W. Deem and Ramdas Pophale) SiO2 
 PCOD9459349
Probable space group: P B C A
;
_chemical_formula_sum "Si O2"
_cell_formula_units_Z 40
_cell_length_a 14.616477
_cell_length_b 14.135680
_cell_length_c 8.635419
_cell_angle_alpha 90.000000
_cell_angle_beta 90.000000
_cell_angle_gamma 90.000000
_cell_volume 1784.197093
_symmetry_space_group_name_H-M "P B C A"
_symmetry_group_IT_number 61
_symmetry_cell_setting 'orthorhombic'
loop_
_space_group_symop_operation_xyz
x,y,z
1/2-x,-y,1/2+z
1/2+x,1/2-y,-z
-x,1/2+y,1/2-z
-x,-y,-z
1/2+x,y,1/2-z
1/2-x,1/2+y,z
x,1/2-y,1/2+z
loop_
_atom_site_type_symbol
_atom_site_label
_atom_site_fract_x
_atom_site_fract_y
_atom_site_fract_z
Si Si1 0.022765 0.426853 0.636537
Si Si2 0.956158 0.429892 0.126606
Si Si3 0.653781 0.120822 0.806520
Si Si4 0.818050 0.699972 0.470213
Si Si5 0.847573 0.099574 0.347960
O O1 0.081258 0.495711 0.750089
O O2 0.083799 0.340351 0.583382
O O3 0.000000 0.500000 0.500000
O O4 0.930000 0.392202 0.723279
O O5 0.042201 0.376340 0.200198
O O6 0.887854 0.373803 0.018742
O O7 0.000000 0.500000 0.000000
O O8 0.691772 0.159920 0.644080
O O9 0.677916 0.011704 0.836867
O O10 0.682691 0.187724 0.947738
O O11 0.743691 0.660038 0.348709
#
# Coordination Sequence:
#
# PCOD9459349 Si02
#       5
#     8   8   8   8   8
#     4  10  19  41  68  93 123 172 221 272 336 394
#     4   8  18  40  65  87 125 170 215 266 334 390
#     4  10  24  43  63  98 131 180 221 277 333 393
#     4  12  25  42  67  99 138 172 230 277 331 405
#     4  10  24  45  67  99 133 183 220 275 345 401
#
# _framework density 22.419048
#
# number of rings (size 3 to 8) (size 9 to 14) (size 15 to 20)
#    0.000    2.400    4.000    0.000   11.200    0.000 
#    3.600    0.000    0.000    0.000    0.000    0.000 
#    0.000    0.000    0.000    0.000    0.000    0.000 
#
# Total GULP energy -222869.980221 kJ/mol
# GULP energy per Si atom -5571.749506 kJ/mol
# Density = 2.236802 g / cm^3
# Si number density = 22.419048 Si / 1000 Ang^3
#
#
#
# Elastic Constant Matrix: (Units=GPa)
#
#
# Indices 1 2 3 4 5 6 
#
# 1 79.5396 21.7390 18.1958 0.0000 0.0000 0.0000
# 2 21.7390 41.3983 -9.6660 0.0000 0.0000 0.0000
# 3 18.1958 -9.6660 85.2731 0.0000 0.0000 0.0000
# 4 0.0000 0.0000 0.0000 25.1911 0.0000 0.0000
# 5 0.0000 0.0000 0.0000 0.0000 27.6427 0.0000
# 6 0.0000 0.0000 0.0000 0.0000 0.0000 17.4481
#
#
#
# Elastic Compliance Matrix: (Units=1/GPa)
#
#
# Indices 1 2 3 4 5 6 
#
# 1 0.016234 -0.009587 -0.004551 0.000000 0.000000 0.000000
# 2 -0.009587 0.030474 0.005500 0.000000 0.000000 0.000000
# 3 -0.004551 0.005500 0.013322 0.000000 0.000000 0.000000
# 4 0.000000 0.000000 0.000000 0.039697 0.000000 0.000000
# 5 0.000000 0.000000 0.000000 0.000000 0.036176 0.000000
# 6 0.000000 0.000000 0.000000 0.000000 0.000000 0.057313
#
#
# Mechanical properties :
#
#
# Convention : Reuss Voigt Hill
#
# Bulk Modulus (GPa) = 23.38975 29.63874 26.51424
# Shear Modulus (GPa) = 22.24780 25.78586 24.01683
#
# Velocity S-wave (km/s) = 3.15359 3.39510 3.27658
# Velocity P-wave (km/s) = 4.86989 5.34958 5.11536
#
# Compressibility (1/GPa) = 0.04275378
#
# Stress axis : x y z
#
# Youngs Moduli (GPa) = 61.60041 32.81473 75.06650
#
# Poissons Ratio (x) = 0.31460 0.34161
# Poissons Ratio (y) = 0.59057 -0.41287
# Poissons Ratio (z) = 0.28033 -0.18048
#
# Static dielectric constant tensor:
#      x y z
#    x 1.995710 0.000000 0.000000 
#    y 0.000000 1.816300 0.000000 
#    z 0.000000 0.000000 1.940070 
# 
# From -- ./inp_files/2675.got.cif
#   From: 2010.05.17/outbox.cif.g08.bks.cpg/sg61_2_cif.got.tgz:2675.got - 2010.06.03 15:17:17.
