data_PCOD9459983
_publ_section_title
;
Structure prediction by ZEFSAII (Michael W. Deem and Ramdas Pophale) SiO2 
 PCOD9459983
Probable space group: P B C A
;
_chemical_formula_sum "Si O2"
_cell_formula_units_Z 64
_cell_length_a 13.074182
_cell_length_b 13.931537
_cell_length_c 16.735844
_cell_angle_alpha 90.000000
_cell_angle_beta 90.000000
_cell_angle_gamma 90.000000
_cell_volume 3048.324369
_symmetry_space_group_name_H-M "P B C A"
_symmetry_group_IT_number 61
_symmetry_cell_setting 'orthorhombic'
loop_
_space_group_symop_operation_xyz
x,y,z
1/2-x,-y,1/2+z
1/2+x,1/2-y,-z
-x,1/2+y,1/2-z
-x,-y,-z
1/2+x,y,1/2-z
1/2-x,1/2+y,z
x,1/2-y,1/2+z
loop_
_atom_site_type_symbol
_atom_site_label
_atom_site_fract_x
_atom_site_fract_y
_atom_site_fract_z
Si Si1 0.269781 0.106567 0.058089
Si Si2 0.848334 0.369469 0.770402
Si Si3 0.544540 0.769654 0.002220
Si Si4 0.465011 0.582350 0.059852
Si Si5 0.836144 0.900649 0.669997
Si Si6 0.600287 0.434072 0.490131
Si Si7 0.014429 0.986271 0.232233
Si Si8 0.988854 0.769716 0.184475
O O1 0.280735 0.137878 0.150053
O O2 0.348603 0.172048 0.006086
O O3 0.151149 0.111488 0.035976
O O4 0.314555 0.997744 0.053672
O O5 0.779736 0.389854 0.694861
O O6 0.926480 0.457690 0.780242
O O7 0.916925 0.275359 0.766770
O O8 0.453334 0.836004 0.038504
O O9 0.515775 0.742096 0.909997
O O10 0.541155 0.671792 0.050604
O O11 0.466579 0.540882 0.148900
O O12 0.500000 0.500000 0.000000
O O13 0.854220 0.912347 0.576882
O O14 0.885367 0.992799 0.714714
O O15 0.895023 0.803491 0.697608
O O16 0.500000 0.500000 0.500000
O O17 0.980645 0.878988 0.211404
#
# Coordination Sequence:
#
# PCOD9459983 Si02
#       8
#     8   8   8   8   8   8   8   8
#     4  10  22  44  65  91 128 173 215 263 332 378
#     4  10  22  42  63  89 126 168 211 263 319 386
#     4   9  20  41  62  86 125 166 215 261 308 394
#     4  12  24  39  61  98 132 160 210 267 331 371
#     4  10  21  40  61  91 121 164 216 260 311 385
#     4   9  19  40  66  89 118 168 221 261 310 383
#     4  11  22  41  61  91 130 163 207 270 313 383
#     4   9  20  40  60  82 127 165 203 260 318 368
#
# _framework density 20.995142999999999
#
# number of rings (size 3 to 8) (size 9 to 14) (size 15 to 20)
#    0.000    2.000    2.500    2.250    1.750    2.000 
#   15.750    0.000    0.000    0.000    0.000    0.000 
#    0.000    0.000    0.000    0.000    0.000    0.000 
#
# Total GULP energy -357213.669553 kJ/mol
# GULP energy per Si atom -5581.463587 kJ/mol
# Density = 2.094736 g / cm^3
# Si number density = 20.995143 Si / 1000 Ang^3
#
#
#
# Elastic Constant Matrix: (Units=GPa)
#
#
# Indices 1 2 3 4 5 6 
#
# 1 76.6083 8.0156 10.3073 0.0000 0.0000 0.0000
# 2 8.0156 103.4106 -0.4667 0.0000 0.0000 0.0000
# 3 10.3073 -0.4667 24.4047 0.0000 0.0000 0.0000
# 4 0.0000 0.0000 0.0000 18.1222 0.0000 0.0000
# 5 0.0000 0.0000 0.0000 0.0000 30.4415 0.0000
# 6 0.0000 0.0000 0.0000 0.0000 0.0000 13.2828
#
#
#
# Elastic Compliance Matrix: (Units=1/GPa)
#
#
# Indices 1 2 3 4 5 6 
#
# 1 0.013966 -0.001109 -0.005920 0.000000 0.000000 0.000000
# 2 -0.001109 0.009759 0.000655 0.000000 0.000000 0.000000
# 3 -0.005920 0.000655 0.043488 0.000000 0.000000 0.000000
# 4 0.000000 0.000000 0.000000 0.055181 0.000000 0.000000
# 5 0.000000 0.000000 0.000000 0.000000 0.032850 0.000000
# 6 0.000000 0.000000 0.000000 0.000000 0.000000 0.075285
#
#
# Mechanical properties :
#
#
# Convention : Reuss Voigt Hill
#
# Bulk Modulus (GPa) = 18.36017 26.68179 22.52098
# Shear Modulus (GPa) = 19.12540 24.80713 21.96626
#
# Velocity S-wave (km/s) = 3.02146 3.44112 3.23809
# Velocity P-wave (km/s) = 4.57561 5.34084 4.97297
#
# Compressibility (1/GPa) = 0.05446573
#
# Stress axis : x y z
#
# Youngs Moduli (GPa) = 71.60267 102.46814 22.99464
#
# Poissons Ratio (x) = 0.11366 0.13612
# Poissons Ratio (y) = 0.07943 -0.01506
# Poissons Ratio (z) = 0.42387 -0.06713
#
# Static dielectric constant tensor:
#      x y z
#    x 1.753020 0.000000 0.000000 
#    y 0.000000 1.769440 0.000000 
#    z 0.000000 0.000000 1.759270 
# 
# From -- ./inp_files/9521.got.cif
#   From: 2010.05.17/outbox.cif.g08.bks.cpg/sg61_5_cif.got.tgz:9521.got - 2010.06.03 15:17:17.
