data_PCOD9459079
_publ_section_title
;
Structure prediction by ZEFSAII (Michael W. Deem and Ramdas Pophale) SiO2 
 PCOD9459079
Probable space group: P B C A
;
_chemical_formula_sum "Si O2"
_cell_formula_units_Z 40
_cell_length_a 12.349018
_cell_length_b 7.693539
_cell_length_c 18.872583
_cell_angle_alpha 90.000000
_cell_angle_beta 90.000000
_cell_angle_gamma 90.000000
_cell_volume 1793.039790
_symmetry_space_group_name_H-M "P B C A"
_symmetry_group_IT_number 61
_symmetry_cell_setting 'orthorhombic'
loop_
_space_group_symop_operation_xyz
x,y,z
1/2-x,-y,1/2+z
1/2+x,1/2-y,-z
-x,1/2+y,1/2-z
-x,-y,-z
1/2+x,y,1/2-z
1/2-x,1/2+y,z
x,1/2-y,1/2+z
loop_
_atom_site_type_symbol
_atom_site_label
_atom_site_fract_x
_atom_site_fract_y
_atom_site_fract_z
Si Si1 0.878365 0.615539 0.037021
Si Si2 0.019655 0.308769 0.094251
Si Si3 0.582202 0.899582 0.230451
Si Si4 0.534306 0.418606 0.124990
Si Si5 0.278723 0.710174 0.330506
O O1 0.927263 0.429227 0.057648
O O2 0.961491 0.762777 0.067938
O O3 0.775344 0.648030 0.087019
O O4 0.875644 0.648300 0.953606
O O5 0.017281 0.371488 0.175771
O O6 0.990867 0.106222 0.093557
O O7 0.549027 0.889306 0.311168
O O8 0.668436 0.753829 0.207740
O O9 0.641504 0.079446 0.210499
O O10 0.652090 0.389515 0.161564
#
# Coordination Sequence:
#
# PCOD9459079 Si02
#       5
#     8   8   8   8   8
#     4   8  20  37  58  88 112 156 198 239 296 354
#     4  10  18  35  63  83 117 150 198 243 294 356
#     4  11  20  36  59  85 119 156 195 249 294 353
#     4  10  20  36  61  85 116 154 198 243 296 352
#     4   9  21  35  55  86 116 154 201 233 297 350
#
# _framework density 22.308484
#
# number of rings (size 3 to 8) (size 9 to 14) (size 15 to 20)
#    1.200    1.200    0.000    3.000    0.000    0.000 
#    3.600    0.000    8.800    0.000    0.000    0.000 
#    0.000    0.000    0.000    0.000    0.000    0.000 
#
# Total GULP energy -222924.386687 kJ/mol
# GULP energy per Si atom -5573.109667 kJ/mol
# Density = 2.225771 g / cm^3
# Si number density = 22.308484 Si / 1000 Ang^3
#
#
#
# Elastic Constant Matrix: (Units=GPa)
#
#
# Indices 1 2 3 4 5 6 
#
# 1 39.1720 8.4921 34.4938 0.0000 0.0000 0.0000
# 2 8.4921 134.6475 42.0290 0.0000 0.0000 0.0000
# 3 34.4938 42.0290 101.8126 0.0000 0.0000 0.0000
# 4 0.0000 0.0000 0.0000 30.8190 0.0000 0.0000
# 5 0.0000 0.0000 0.0000 0.0000 26.4619 0.0000
# 6 0.0000 0.0000 0.0000 0.0000 0.0000 18.6851
#
#
#
# Elastic Compliance Matrix: (Units=1/GPa)
#
#
# Indices 1 2 3 4 5 6 
#
# 1 0.036759 0.001801 -0.013197 0.000000 0.000000 0.000000
# 2 0.001801 0.008614 -0.004166 0.000000 0.000000 0.000000
# 3 -0.013197 -0.004166 0.016013 0.000000 0.000000 0.000000
# 4 0.000000 0.000000 0.000000 0.032447 0.000000 0.000000
# 5 0.000000 0.000000 0.000000 0.000000 0.037790 0.000000
# 6 0.000000 0.000000 0.000000 0.000000 0.000000 0.053519
#
#
# Mechanical properties :
#
#
# Convention : Reuss Voigt Hill
#
# Bulk Modulus (GPa) = 33.04561 49.51799 41.28180
# Shear Modulus (GPa) = 22.08930 27.90100 24.99515
#
# Velocity S-wave (km/s) = 3.15012 3.54035 3.35092
# Velocity P-wave (km/s) = 5.29870 6.24157 5.78936
#
# Compressibility (1/GPa) = 0.03026121
#
# Stress axis : x y z
#
# Youngs Moduli (GPa) = 27.20400 116.09592 62.44948
#
# Poissons Ratio (x) = -0.20910 0.82417
# Poissons Ratio (y) = -0.04900 0.26016
# Poissons Ratio (z) = 0.35902 0.48365
#
# Static dielectric constant tensor:
#      x y z
#    x 1.880900 0.000000 0.000000 
#    y 0.000000 1.890850 0.000000 
#    z 0.000000 0.000000 1.834820 
# 
# From -- ./inp_files/9392.got.cif
#   From: 2010.05.17/outbox.cif.g08.bks.cpg/sg61_5_cif.got.tgz:9392.got - 2010.06.03 15:17:17.
