data_PCOD9459224
_publ_section_title
;
Structure prediction by ZEFSAII (Michael W. Deem and Ramdas Pophale) SiO2 
 PCOD9459224
Probable space group: P B C A
;
_chemical_formula_sum "Si O2"
_cell_formula_units_Z 60
_cell_length_a 18.331612
_cell_length_b 8.200409
_cell_length_c 14.066355
_cell_angle_alpha 90.000000
_cell_angle_beta 90.000000
_cell_angle_gamma 90.000000
_cell_volume 2114.548954
_symmetry_space_group_name_H-M "P B C A"
_symmetry_group_IT_number 61
_symmetry_cell_setting 'orthorhombic'
loop_
_space_group_symop_operation_xyz
x,y,z
1/2-x,-y,1/2+z
1/2+x,1/2-y,-z
-x,1/2+y,1/2-z
-x,-y,-z
1/2+x,y,1/2-z
1/2-x,1/2+y,z
x,1/2-y,1/2+z
loop_
_atom_site_type_symbol
_atom_site_label
_atom_site_fract_x
_atom_site_fract_y
_atom_site_fract_z
Si Si1 0.857571 0.706504 0.985727
Si Si2 0.777854 0.413419 0.696146
Si Si3 0.504776 0.048806 0.689042
Si Si4 0.000000 0.000000 0.500000
Si Si5 0.411220 0.292447 0.333466
Si Si6 0.919939 0.252947 0.947597
Si Si7 0.354977 0.736647 0.788273
Si Si8 0.215291 0.958139 0.032184
O O1 0.799930 0.573431 0.946408
O O2 0.828303 0.877393 0.944682
O O3 0.849053 0.731447 0.098716
O O4 0.940531 0.652776 0.979199
O O5 0.829449 0.253603 0.696017
O O6 0.700860 0.376006 0.743517
O O7 0.815469 0.568981 0.740454
O O8 0.780208 0.452798 0.583362
O O9 0.440290 0.068865 0.764868
O O10 0.467858 0.101637 0.588800
O O11 0.561865 0.186605 0.725770
O O12 0.547221 0.880956 0.673764
O O13 0.922016 0.158726 0.555019
O O14 0.962995 0.097186 0.403363
O O15 0.837510 0.192144 0.938139
#
# Coordination Sequence:
#
# PCOD9459224 Si02
#       8
#     8   8   8   4   8   8   8   8
#     4  10  19  35  57  97 127 176 227 278 336 409
#     4   8  17  33  58  85 118 165 212 260 321 398
#     4  11  23  41  66  95 134 169 222 281 348 403
#     4  12  24  32  64  96 134 166 234 276 336 410
#     4  10  24  40  64  94 131 171 218 279 341 407
#     4  11  24  42  65  96 132 184 221 282 340 413
#     4   9  17  34  58  87 121 167 211 267 326 396
#     4   9  19  36  62  85 131 175 226 273 342 409
#
# _framework density 28.374845000000001
#
# number of rings (size 3 to 8) (size 9 to 14) (size 15 to 20)
#    0.000    2.133    1.333    2.000    3.733    4.267 
#    0.000    0.000    2.933    1.600    0.000    0.000 
#    0.000    0.000    0.000    0.000    0.000    0.000 
#
# Total GULP energy -334455.169432 kJ/mol
# GULP energy per Si atom -5574.252824 kJ/mol
# Density = 2.831026 g / cm^3
# Si number density = 28.374845 Si / 1000 Ang^3
#
#
#
# Elastic Constant Matrix: (Units=GPa)
#
#
# Indices 1 2 3 4 5 6 
#
# 1 199.4039 46.9498 10.9036 0.0000 0.0000 0.0000
# 2 46.9498 104.2185 6.8140 0.0000 0.0000 0.0000
# 3 10.9036 6.8140 124.8241 0.0000 0.0000 0.0000
# 4 0.0000 0.0000 0.0000 2.7832 0.0000 0.0000
# 5 0.0000 0.0000 0.0000 0.0000 11.5565 0.0000
# 6 0.0000 0.0000 0.0000 0.0000 0.0000 39.8304
#
#
#
# Elastic Compliance Matrix: (Units=1/GPa)
#
#
# Indices 1 2 3 4 5 6 
#
# 1 0.005626 -0.002511 -0.000354 0.000000 0.000000 0.000000
# 2 -0.002511 0.010750 -0.000368 0.000000 0.000000 0.000000
# 3 -0.000354 -0.000368 0.008062 0.000000 0.000000 0.000000
# 4 0.000000 0.000000 0.000000 0.359296 0.000000 0.000000
# 5 0.000000 0.000000 0.000000 0.000000 0.086531 0.000000
# 6 0.000000 0.000000 0.000000 0.000000 0.000000 0.025106
#
#
# Mechanical properties :
#
#
# Convention : Reuss Voigt Hill
#
# Bulk Modulus (GPa) = 55.64074 61.97573 58.80824
# Shear Modulus (GPa) = 9.84583 35.08596 22.46590
#
# Velocity S-wave (km/s) = 1.86479 3.52023 2.81686
# Velocity P-wave (km/s) = 4.92832 6.19773 5.59912
#
# Compressibility (1/GPa) = 0.01797244
#
# Stress axis : x y z
#
# Youngs Moduli (GPa) = 177.75988 93.01898 124.03434
#
# Poissons Ratio (x) = 0.23358 0.04395
# Poissons Ratio (y) = 0.44638 0.04558
# Poissons Ratio (z) = 0.06298 0.03419
#
# Static dielectric constant tensor:
#      x y z
#    x 1.699880 0.000000 0.000000 
#    y 0.000000 1.871040 0.000000 
#    z 0.000000 0.000000 1.861200 
# 
# From -- ./inp_files/9689.got.cif
#   From: 2010.05.17/outbox.cif.g08.bks.cpg/sg61_5_cif.got.tgz:9689.got - 2010.06.03 15:17:17.
