data_PCOD9459776
_publ_section_title
;
Structure prediction by ZEFSAII (Michael W. Deem and Ramdas Pophale) SiO2 
 PCOD9459776
Probable space group: P B C A
;
_chemical_formula_sum "Si O2"
_cell_formula_units_Z 44
_cell_length_a 7.134318
_cell_length_b 12.034004
_cell_length_c 18.643059
_cell_angle_alpha 90.000000
_cell_angle_beta 90.000000
_cell_angle_gamma 90.000000
_cell_volume 1600.588856
_symmetry_space_group_name_H-M "P B C A"
_symmetry_group_IT_number 61
_symmetry_cell_setting 'orthorhombic'
loop_
_space_group_symop_operation_xyz
x,y,z
1/2-x,-y,1/2+z
1/2+x,1/2-y,-z
-x,1/2+y,1/2-z
-x,-y,-z
1/2+x,y,1/2-z
1/2-x,1/2+y,z
x,1/2-y,1/2+z
loop_
_atom_site_type_symbol
_atom_site_label
_atom_site_fract_x
_atom_site_fract_y
_atom_site_fract_z
Si Si1 0.000000 0.000000 0.500000
Si Si2 0.573825 0.133029 0.856215
Si Si3 0.076254 0.182453 0.409739
Si Si4 0.001740 0.419578 0.381128
Si Si5 0.316963 0.531073 0.282984
Si Si6 0.661072 0.370721 0.877376
O O1 0.996114 0.937665 0.423268
O O2 0.849159 0.901965 0.531568
O O3 0.801541 0.128754 0.850694
O O4 0.142442 0.022669 0.825049
O O5 0.534596 0.262871 0.866679
O O6 0.099898 0.313710 0.416767
O O7 0.852198 0.157167 0.418687
O O8 0.125364 0.138274 0.330808
O O9 0.929982 0.529279 0.421189
O O10 0.967132 0.430754 0.206910
O O11 0.792952 0.581296 0.297127
#
# Coordination Sequence:
#
# PCOD9459776 Si02
#       6
#     4   8   8   8   8   8
#     4  10  20  54  74  94 154 196 258 324 362 452
#     4  10  25  49  72 108 150 203 249 322 376 448
#     4  10  24  46  69 107 148 195 248 316 377 446
#     4  11  24  43  70 108 143 193 248 301 390 441
#     4  11  24  43  70 110 152 191 252 305 385 472
#     4  11  23  45  72 109 151 196 245 316 390 455
#
# _framework density 27.489882999999999
#
# number of rings (size 3 to 8) (size 9 to 14) (size 15 to 20)
#    0.000    1.455    3.636    1.091    5.091    1.455 
#   13.091    4.545    0.000    0.000    0.000    0.000 
#    0.000    0.000    0.000    0.000    0.000    0.000 
#
# Total GULP energy -244999.977712 kJ/mol
# GULP energy per Si atom -5568.181312 kJ/mol
# Density = 2.742731 g / cm^3
# Si number density = 27.489883 Si / 1000 Ang^3
#
#
#
# Elastic Constant Matrix: (Units=GPa)
#
#
# Indices 1 2 3 4 5 6 
#
# 1 117.3531 21.5921 -0.5020 0.0000 0.0000 0.0000
# 2 21.5921 227.6981 20.4968 0.0000 0.0000 0.0000
# 3 -0.5020 20.4968 92.4567 0.0000 0.0000 0.0000
# 4 0.0000 0.0000 0.0000 10.1934 0.0000 0.0000
# 5 0.0000 0.0000 0.0000 0.0000 25.8754 0.0000
# 6 0.0000 0.0000 0.0000 0.0000 0.0000 35.2984
#
#
#
# Elastic Compliance Matrix: (Units=1/GPa)
#
#
# Indices 1 2 3 4 5 6 
#
# 1 0.008678 -0.000844 0.000234 0.000000 0.000000 0.000000
# 2 -0.000844 0.004563 -0.001016 0.000000 0.000000 0.000000
# 3 0.000234 -0.001016 0.011042 0.000000 0.000000 0.000000
# 4 0.000000 0.000000 0.000000 0.098103 0.000000 0.000000
# 5 0.000000 0.000000 0.000000 0.000000 0.038647 0.000000
# 6 0.000000 0.000000 0.000000 0.000000 0.000000 0.028330
#
#
# Mechanical properties :
#
#
# Convention : Reuss Voigt Hill
#
# Bulk Modulus (GPa) = 47.54804 57.85353 52.70078
# Shear Modulus (GPa) = 25.04697 40.66817 32.85757
#
# Velocity S-wave (km/s) = 3.02177 3.85045 3.46100
# Velocity P-wave (km/s) = 5.43221 6.39211 5.93161
#
# Compressibility (1/GPa) = 0.02103136
#
# Stress axis : x y z
#
# Youngs Moduli (GPa) = 115.23957 219.14016 90.55975
#
# Poissons Ratio (x) = 0.18495 -0.02121
# Poissons Ratio (y) = 0.09726 0.09203
# Poissons Ratio (z) = -0.02699 0.22270
#
# Static dielectric constant tensor:
#      x y z
#    x 2.692560 0.000000 0.000000 
#    y 0.000000 2.515020 0.000000 
#    z 0.000000 0.000000 2.446520 
# 
# From -- ./inp_files/9157.got.cif
#   From: 2010.05.17/outbox.cif.g08.bks.cpg/sg61_5_cif.got.tgz:9157.got - 2010.06.03 15:17:17.
