data_PCOD9459582
_publ_section_title
;
Structure prediction by ZEFSAII (Michael W. Deem and Ramdas Pophale) SiO2 
 PCOD9459582
Probable space group: P B C A
;
_chemical_formula_sum "Si O2"
_cell_formula_units_Z 56
_cell_length_a 11.996649
_cell_length_b 20.227363
_cell_length_c 10.176588
_cell_angle_alpha 90.000000
_cell_angle_beta 90.000000
_cell_angle_gamma 90.000000
_cell_volume 2469.456687
_symmetry_space_group_name_H-M "P B C A"
_symmetry_group_IT_number 61
_symmetry_cell_setting 'orthorhombic'
loop_
_space_group_symop_operation_xyz
x,y,z
1/2-x,-y,1/2+z
1/2+x,1/2-y,-z
-x,1/2+y,1/2-z
-x,-y,-z
1/2+x,y,1/2-z
1/2-x,1/2+y,z
x,1/2-y,1/2+z
loop_
_atom_site_type_symbol
_atom_site_label
_atom_site_fract_x
_atom_site_fract_y
_atom_site_fract_z
Si Si1 0.559783 0.751193 0.962026
Si Si2 0.763822 0.362915 0.402320
Si Si3 0.071331 0.524367 0.690068
Si Si4 0.704153 0.443738 0.641038
Si Si5 0.091086 0.265514 0.214565
Si Si6 0.367101 0.559495 0.944937
Si Si7 0.746166 0.650066 0.374556
O O1 0.643746 0.688361 0.958914
O O2 0.462384 0.736614 0.857832
O O3 0.632531 0.812142 0.906318
O O4 0.506938 0.765590 0.104342
O O5 0.828320 0.423714 0.333414
O O6 0.695406 0.391444 0.525327
O O7 0.678895 0.323975 0.310476
O O8 0.092172 0.482492 0.820195
O O9 0.073050 0.467024 0.578293
O O10 0.959567 0.565204 0.667044
O O11 0.787555 0.500118 0.594425
O O12 0.758770 0.408934 0.768748
O O13 0.164387 0.200412 0.186486
O O14 0.296741 0.621681 0.990683
#
# Coordination Sequence:
#
# PCOD9459582 Si02
#       7
#     8   8   8   8   8   8   8
#     4  11  24  41  66  95 127 172 217 267 326 382
#     4  10  22  39  61  94 129 162 216 272 319 383
#     4   9  19  35  59  87 120 164 206 255 318 379
#     4  10  20  38  63  91 125 166 211 264 323 388
#     4  11  24  41  65  93 126 169 214 268 325 381
#     4   9  19  36  59  87 119 160 209 257 313 382
#     4  10  22  40  63  92 128 166 213 265 322 388
#
# _framework density 22.677053000000001
#
# number of rings (size 3 to 8) (size 9 to 14) (size 15 to 20)
#    0.000    2.000    0.000    2.571    0.000   12.571 
#    0.000    0.000    0.000    8.571    0.000    0.000 
#    0.000    0.000    0.000    0.000    0.000    0.000 
#
# Total GULP energy -313163.134825 kJ/mol
# GULP energy per Si atom -5592.198836 kJ/mol
# Density = 2.262544 g / cm^3
# Si number density = 22.677053 Si / 1000 Ang^3
#
#
#
# Elastic Constant Matrix: (Units=GPa)
#
#
# Indices 1 2 3 4 5 6 
#
# 1 52.2036 20.6839 2.9143 0.0000 0.0000 0.0000
# 2 20.6839 70.5899 21.9029 0.0000 0.0000 0.0000
# 3 2.9143 21.9029 57.8625 0.0000 0.0000 0.0000
# 4 0.0000 0.0000 0.0000 37.9518 0.0000 0.0000
# 5 0.0000 0.0000 0.0000 0.0000 21.2305 0.0000
# 6 0.0000 0.0000 0.0000 0.0000 0.0000 23.5810
#
#
#
# Elastic Compliance Matrix: (Units=1/GPa)
#
#
# Indices 1 2 3 4 5 6 
#
# 1 0.021785 -0.006847 0.001495 0.000000 0.000000 0.000000
# 2 -0.006847 0.018204 -0.006546 0.000000 0.000000 0.000000
# 3 0.001495 -0.006546 0.019685 0.000000 0.000000 0.000000
# 4 0.000000 0.000000 0.000000 0.026349 0.000000 0.000000
# 5 0.000000 0.000000 0.000000 0.000000 0.047102 0.000000
# 6 0.000000 0.000000 0.000000 0.000000 0.000000 0.042407
#
#
# Mechanical properties :
#
#
# Convention : Reuss Voigt Hill
#
# Bulk Modulus (GPa) = 27.87291 30.18426 29.02858
# Shear Modulus (GPa) = 23.66438 25.56299 24.61369
#
# Velocity S-wave (km/s) = 3.23389 3.36112 3.29812
# Velocity P-wave (km/s) = 5.12464 5.32937 5.22801
#
# Compressibility (1/GPa) = 0.03587713
#
# Stress axis : x y z
#
# Youngs Moduli (GPa) = 45.90250 54.93379 50.80038
#
# Poissons Ratio (x) = 0.37614 -0.07593
# Poissons Ratio (y) = 0.31430 0.33253
# Poissons Ratio (z) = -0.06861 0.35959
#
# Static dielectric constant tensor:
#      x y z
#    x 1.830960 0.000000 0.000000 
#    y 0.000000 1.847600 0.000000 
#    z 0.000000 0.000000 1.858780 
# 
# From -- ./inp_files/5371.got.cif
#   From: 2010.05.17/outbox.cif.g08.bks.cpg/sg61_3_cif.got.tgz:5371.got - 2010.06.03 15:17:17.
