data_PCOD9459367
_publ_section_title
;
Structure prediction by ZEFSAII (Michael W. Deem and Ramdas Pophale) SiO2 
 PCOD9459367
Probable space group: P B C A
;
_chemical_formula_sum "Si O2"
_cell_formula_units_Z 64
_cell_length_a 5.179134
_cell_length_b 26.946253
_cell_length_c 23.318174
_cell_angle_alpha 90.000000
_cell_angle_beta 90.000000
_cell_angle_gamma 90.000000
_cell_volume 3254.243675
_symmetry_space_group_name_H-M "P B C A"
_symmetry_group_IT_number 61
_symmetry_cell_setting 'orthorhombic'
loop_
_space_group_symop_operation_xyz
x,y,z
1/2-x,-y,1/2+z
1/2+x,1/2-y,-z
-x,1/2+y,1/2-z
-x,-y,-z
1/2+x,y,1/2-z
1/2-x,1/2+y,z
x,1/2-y,1/2+z
loop_
_atom_site_type_symbol
_atom_site_label
_atom_site_fract_x
_atom_site_fract_y
_atom_site_fract_z
Si Si1 0.756662 0.004093 0.061193
Si Si2 0.400060 0.418626 0.028905
Si Si3 0.507590 0.004072 0.217723
Si Si4 0.737424 0.859068 0.966200
Si Si5 0.787424 0.248655 0.460774
Si Si6 0.720569 0.546334 0.387884
Si Si7 0.428534 0.652238 0.588093
Si Si8 0.993637 0.386456 0.210948
O O1 0.482435 0.005908 0.089364
O O2 0.990601 0.027761 0.098752
O O3 0.746622 0.040066 0.006269
O O4 0.845415 0.949403 0.045083
O O5 0.277028 0.392345 0.082486
O O6 0.473770 0.374409 0.985426
O O7 0.812851 0.009170 0.228182
O O8 0.486855 0.946058 0.199257
O O9 0.374953 0.044984 0.176901
O O10 0.716525 0.806573 0.935076
O O11 0.663992 0.903674 0.923507
O O12 0.592365 0.854150 0.028280
O O13 0.568065 0.244829 0.510611
O O14 0.706261 0.294119 0.420217
O O15 0.546606 0.642958 0.650839
O O16 0.258299 0.375611 0.245380
#
# Coordination Sequence:
#
# PCOD9459367 Si02
#       8
#     8   8   8   8   8   8   8   8
#     4  10  22  31  49  80 119 145 181 226 274 344
#     4  10  20  32  50  81 117 150 181 218 283 351
#     4  10  21  38  55  77 109 151 196 238 280 334
#     4  10  22  35  57  87 120 146 189 231 295 353
#     4  10  21  37  56  85 113 144 183 226 284 351
#     4  11  21  37  55  81 114 151 188 237 279 346
#     4  11  21  37  61  81 117 157 186 242 297 346
#     4  10  24  39  57  81 110 150 200 236 276 335
#
# _framework density 19.666626000000001
#
# number of rings (size 3 to 8) (size 9 to 14) (size 15 to 20)
#    0.000    1.750    2.500    1.500    5.250    2.500 
#    0.000    0.000    0.000    1.500    0.000    0.000 
#    0.000    0.000    0.000    0.000    0.000    0.000 
#
# Total GULP energy -356579.501206 kJ/mol
# GULP energy per Si atom -5571.554706 kJ/mol
# Density = 1.962186 g / cm^3
# Si number density = 19.666626 Si / 1000 Ang^3
#
#
#
# Elastic Constant Matrix: (Units=GPa)
#
#
# Indices 1 2 3 4 5 6 
#
# 1 61.3520 6.9723 13.4870 0.0000 0.0000 0.0000
# 2 6.9723 93.6813 35.6869 0.0000 0.0000 0.0000
# 3 13.4870 35.6869 80.9862 0.0000 0.0000 0.0000
# 4 0.0000 0.0000 0.0000 22.0417 0.0000 0.0000
# 5 0.0000 0.0000 0.0000 0.0000 16.7736 0.0000
# 6 0.0000 0.0000 0.0000 0.0000 0.0000 17.5801
#
#
#
# Elastic Compliance Matrix: (Units=1/GPa)
#
#
# Indices 1 2 3 4 5 6 
#
# 1 0.016923 -0.000223 -0.002720 0.000000 0.000000 0.000000
# 2 -0.000223 0.012831 -0.005617 0.000000 0.000000 0.000000
# 3 -0.002720 -0.005617 0.015276 0.000000 0.000000 0.000000
# 4 0.000000 0.000000 0.000000 0.045369 0.000000 0.000000
# 5 0.000000 0.000000 0.000000 0.000000 0.059618 0.000000
# 6 0.000000 0.000000 0.000000 0.000000 0.000000 0.056882
#
#
# Mechanical properties :
#
#
# Convention : Reuss Voigt Hill
#
# Bulk Modulus (GPa) = 35.83023 38.70130 37.26576
# Shear Modulus (GPa) = 21.42973 23.27063 22.35018
#
# Velocity S-wave (km/s) = 3.30457 3.44358 3.37479
# Velocity P-wave (km/s) = 5.72875 5.96090 5.84598
#
# Compressibility (1/GPa) = 0.02790939
#
# Stress axis : x y z
#
# Youngs Moduli (GPa) = 59.09235 77.93783 65.46330
#
# Poissons Ratio (x) = 0.01741 0.17804
# Poissons Ratio (y) = 0.01320 0.36769
# Poissons Ratio (z) = 0.16072 0.43775
#
# Static dielectric constant tensor:
#      x y z
#    x 1.780070 0.000000 0.000000 
#    y 0.000000 1.701720 0.000000 
#    z 0.000000 0.000000 1.832740 
# 
# From -- ./inp_files/1253.got.cif
#   From: 2010.05.17/outbox.cif.g08.bks.cpg/sg61_1_cif.got.tgz:1253.got - 2010.06.03 15:17:17.
