data_PCOD9459214
_publ_section_title
;
Structure prediction by ZEFSAII (Michael W. Deem and Ramdas Pophale) SiO2 
 PCOD9459214
Probable space group: P B C A
;
_chemical_formula_sum "Si O2"
_cell_formula_units_Z 56
_cell_length_a 5.538204
_cell_length_b 13.353118
_cell_length_c 31.747619
_cell_angle_alpha 90.000000
_cell_angle_beta 90.000000
_cell_angle_gamma 90.000000
_cell_volume 2347.809175
_symmetry_space_group_name_H-M "P B C A"
_symmetry_group_IT_number 61
_symmetry_cell_setting 'orthorhombic'
loop_
_space_group_symop_operation_xyz
x,y,z
1/2-x,-y,1/2+z
1/2+x,1/2-y,-z
-x,1/2+y,1/2-z
-x,-y,-z
1/2+x,y,1/2-z
1/2-x,1/2+y,z
x,1/2-y,1/2+z
loop_
_atom_site_type_symbol
_atom_site_label
_atom_site_fract_x
_atom_site_fract_y
_atom_site_fract_z
Si Si1 0.208513 0.003509 0.645444
Si Si2 0.968803 0.321792 0.643305
Si Si3 0.616290 0.065276 0.762823
Si Si4 0.898689 0.883645 0.581329
Si Si5 0.628106 0.311894 0.493920
Si Si6 0.680651 0.661047 0.230469
Si Si7 0.302428 0.179468 0.598448
O O1 0.089000 0.045289 0.687598
O O2 0.391190 0.083400 0.624195
O O3 0.337609 0.901634 0.659576
O O4 0.031318 0.968364 0.608146
O O5 0.863312 0.370839 0.601153
O O6 0.781852 0.313510 0.681270
O O7 0.089822 0.220594 0.628374
O O8 0.376252 0.114487 0.744660
O O9 0.658269 0.959180 0.738372
O O10 0.895185 0.892939 0.531215
O O11 0.024864 0.775022 0.591012
O O12 0.366602 0.255212 0.493142
O O13 0.696775 0.347598 0.447317
O O14 0.414821 0.695835 0.244281
#
# Coordination Sequence:
#
# PCOD9459214 Si02
#       7
#     8   8   8   8   8   8   8
#     4  11  23  39  65  97 128 168 222 275 325 393
#     4  11  21  40  65  91 125 173 216 261 332 387
#     4  10  19  37  60  87 126 170 207 262 325 382
#     4  10  22  40  68  90 127 177 214 267 333 396
#     4  10  20  43  67  92 135 178 214 266 337 394
#     4  10  19  34  62  88 118 166 213 258 316 386
#     4  10  24  41  62  98 131 169 217 278 323 394
#
# _framework density 23.852022000000002
#
# number of rings (size 3 to 8) (size 9 to 14) (size 15 to 20)
#    0.000    1.714    4.286    1.714    2.000    1.714 
#    0.000    2.143    0.000    0.000    0.000    0.000 
#    0.000    0.000    0.000    0.000    0.000    0.000 
#
# Total GULP energy -312697.756338 kJ/mol
# GULP energy per Si atom -5583.888506 kJ/mol
# Density = 2.379773 g / cm^3
# Si number density = 23.852022 Si / 1000 Ang^3
#
#
#
# Elastic Constant Matrix: (Units=GPa)
#
#
# Indices 1 2 3 4 5 6 
#
# 1 101.9638 22.2552 4.0014 0.0000 0.0000 0.0000
# 2 22.2552 33.5786 41.1399 0.0000 0.0000 0.0000
# 3 4.0014 41.1399 134.3969 0.0000 0.0000 0.0000
# 4 0.0000 0.0000 0.0000 10.6670 0.0000 0.0000
# 5 0.0000 0.0000 0.0000 0.0000 35.3284 0.0000
# 6 0.0000 0.0000 0.0000 0.0000 0.0000 17.7988
#
#
#
# Elastic Compliance Matrix: (Units=1/GPa)
#
#
# Indices 1 2 3 4 5 6 
#
# 1 0.012381 -0.012407 0.003429 0.000000 0.000000 0.000000
# 2 -0.012407 0.060086 -0.018024 0.000000 0.000000 0.000000
# 3 0.003429 -0.018024 0.012856 0.000000 0.000000 0.000000
# 4 0.000000 0.000000 0.000000 0.093747 0.000000 0.000000
# 5 0.000000 0.000000 0.000000 0.000000 0.028306 0.000000
# 6 0.000000 0.000000 0.000000 0.000000 0.000000 0.056184
#
#
# Mechanical properties :
#
#
# Convention : Reuss Voigt Hill
#
# Bulk Modulus (GPa) = 31.92861 44.97026 38.44943
# Shear Modulus (GPa) = 15.24378 26.26168 20.75273
#
# Velocity S-wave (km/s) = 2.53078 3.32177 2.95288
# Velocity P-wave (km/s) = 4.68562 5.79715 5.27077
#
# Compressibility (1/GPa) = 0.03131987
#
# Stress axis : x y z
#
# Youngs Moduli (GPa) = 80.76926 16.64270 77.78665
#
# Poissons Ratio (x) = 0.20649 -0.26676
# Poissons Ratio (y) = 1.00214 1.40199
# Poissons Ratio (z) = -0.27699 0.29996
#
# Static dielectric constant tensor:
#      x y z
#    x 1.950470 0.000000 0.000000 
#    y 0.000000 1.956250 0.000000 
#    z 0.000000 0.000000 1.864150 
# 
# From -- ./inp_files/602.got.cif
#   From: 2010.05.17/outbox.cif.g08.bks.cpg/sg61_1_cif.got.tgz:602.got - 2010.06.03 15:17:17.
