data_PCOD9459118
_publ_section_title
;
Structure prediction by ZEFSAII (Michael W. Deem and Ramdas Pophale) SiO2 
 PCOD9459118
Probable space group: P B C A
;
_chemical_formula_sum "Si O2"
_cell_formula_units_Z 64
_cell_length_a 27.853758
_cell_length_b 11.128933
_cell_length_c 8.675943
_cell_angle_alpha 90.000000
_cell_angle_beta 90.000000
_cell_angle_gamma 90.000000
_cell_volume 2689.391426
_symmetry_space_group_name_H-M "P B C A"
_symmetry_group_IT_number 61
_symmetry_cell_setting 'orthorhombic'
loop_
_space_group_symop_operation_xyz
x,y,z
1/2-x,-y,1/2+z
1/2+x,1/2-y,-z
-x,1/2+y,1/2-z
-x,-y,-z
1/2+x,y,1/2-z
1/2-x,1/2+y,z
x,1/2-y,1/2+z
loop_
_atom_site_type_symbol
_atom_site_label
_atom_site_fract_x
_atom_site_fract_y
_atom_site_fract_z
Si Si1 0.016237 0.872756 0.185222
Si Si2 0.071830 0.079871 0.308238
Si Si3 0.683967 0.156332 0.931834
Si Si4 0.836659 0.903470 0.094584
Si Si5 0.787266 0.261534 0.298539
Si Si6 0.119612 0.902785 0.115544
Si Si7 0.457202 0.750596 0.065561
Si Si8 0.226802 0.925269 0.484819
O O1 0.067596 0.840452 0.109033
O O2 0.002135 0.795017 0.333198
O O3 0.024393 0.007519 0.248779
O O4 0.975301 0.845245 0.061015
O O5 0.064538 0.136303 0.474162
O O6 0.077215 0.188062 0.188139
O O7 0.112471 0.982932 0.271235
O O8 0.657585 0.113354 0.776957
O O9 0.737014 0.192193 0.868905
O O10 0.696565 0.044792 0.041522
O O11 0.661709 0.269539 0.020142
O O12 0.783052 0.946471 0.044138
O O13 0.871769 0.001434 0.020348
O O14 0.835616 0.316028 0.369722
O O15 0.784039 0.121299 0.341524
O O16 0.786572 0.314386 0.126702
#
# Coordination Sequence:
#
# PCOD9459118 Si02
#       8
#     8   8   8   8   8   8   8   8
#     4   9  21  36  64  87 118 151 185 241 285 343
#     4   9  21  36  64  87 118 151 185 241 285 343
#     4  10  22  38  63  82 110 169 202 243 293 351
#     4  10  22  38  60  85 120 149 209 246 294 354
#     4  10  22  38  60  85 120 149 209 246 294 354
#     4  10  22  38  58  88 130 144 188 260 300 328
#     4  10  18  40  64  88 112 154 200 212 288 378
#     4  10  22  38  63  82 110 169 202 243 293 351
#
# _framework density 23.797207
#
# number of rings (size 3 to 8) (size 9 to 14) (size 15 to 20)
#    0.750    1.500    1.250    0.750    3.500    4.000 
#    0.000    0.000    0.000    0.000    0.000    0.000 
#    0.000    0.000    0.000    0.000    0.000    0.000 
#
# Total GULP energy -357269.234893 kJ/mol
# GULP energy per Si atom -5582.331795 kJ/mol
# Density = 2.374304 g / cm^3
# Si number density = 23.797207 Si / 1000 Ang^3
#
#
#
# Elastic Constant Matrix: (Units=GPa)
#
#
# Indices 1 2 3 4 5 6 
#
# 1 60.6455 4.3559 13.3247 0.0000 0.0000 0.0000
# 2 4.3559 46.0797 14.3125 0.0000 0.0000 0.0000
# 3 13.3247 14.3125 71.5695 0.0000 0.0000 0.0000
# 4 0.0000 0.0000 0.0000 28.5177 0.0000 0.0000
# 5 0.0000 0.0000 0.0000 0.0000 25.5667 0.0000
# 6 0.0000 0.0000 0.0000 0.0000 0.0000 31.0413
#
#
#
# Elastic Compliance Matrix: (Units=1/GPa)
#
#
# Indices 1 2 3 4 5 6 
#
# 1 0.017212 -0.000674 -0.003070 0.000000 0.000000 0.000000
# 2 -0.000674 0.023165 -0.004507 0.000000 0.000000 0.000000
# 3 -0.003070 -0.004507 0.015445 0.000000 0.000000 0.000000
# 4 0.000000 0.000000 0.000000 0.035066 0.000000 0.000000
# 5 0.000000 0.000000 0.000000 0.000000 0.039113 0.000000
# 6 0.000000 0.000000 0.000000 0.000000 0.000000 0.032215
#
#
# Mechanical properties :
#
#
# Convention : Reuss Voigt Hill
#
# Bulk Modulus (GPa) = 25.43139 26.92009 26.17574
# Shear Modulus (GPa) = 26.06537 26.77858 26.42198
#
# Velocity S-wave (km/s) = 3.31314 3.35816 3.33573
# Velocity P-wave (km/s) = 5.03446 5.13548 5.08522
#
# Compressibility (1/GPa) = 0.03932149
#
# Stress axis : x y z
#
# Youngs Moduli (GPa) = 58.09854 43.16827 64.74451
#
# Poissons Ratio (x) = 0.02908 0.19876
# Poissons Ratio (y) = 0.03913 0.29181
# Poissons Ratio (z) = 0.17835 0.19457
#
# Static dielectric constant tensor:
#      x y z
#    x 1.929190 0.000000 0.000000 
#    y 0.000000 1.933580 0.000000 
#    z 0.000000 0.000000 1.947790 
# 
# From -- ./inp_files/4643.got.cif
#   From: 2010.05.17/outbox.cif.g08.bks.cpg/sg61_3_cif.got.tgz:4643.got - 2010.06.03 15:17:17.
