data_PCOD9459387
_publ_section_title
;
Structure prediction by ZEFSAII (Michael W. Deem and Ramdas Pophale) SiO2 
 PCOD9459387
Probable space group: P B C A
;
_chemical_formula_sum "Si O2"
_cell_formula_units_Z 56
_cell_length_a 21.718688
_cell_length_b 25.060810
_cell_length_c 4.936470
_cell_angle_alpha 90.000000
_cell_angle_beta 90.000000
_cell_angle_gamma 90.000000
_cell_volume 2686.860956
_symmetry_space_group_name_H-M "P B C A"
_symmetry_group_IT_number 61
_symmetry_cell_setting 'orthorhombic'
loop_
_space_group_symop_operation_xyz
x,y,z
1/2-x,-y,1/2+z
1/2+x,1/2-y,-z
-x,1/2+y,1/2-z
-x,-y,-z
1/2+x,y,1/2-z
1/2-x,1/2+y,z
x,1/2-y,1/2+z
loop_
_atom_site_type_symbol
_atom_site_label
_atom_site_fract_x
_atom_site_fract_y
_atom_site_fract_z
Si Si1 0.945032 0.141638 0.202742
Si Si2 0.616398 0.118525 0.741281
Si Si3 0.868920 0.476509 0.081037
Si Si4 0.813539 0.909402 0.728071
Si Si5 0.487709 0.423553 0.290899
Si Si6 0.671927 0.911733 0.584962
Si Si7 0.548758 0.284500 0.938299
O O1 0.966902 0.124149 0.502104
O O2 0.872093 0.137928 0.162068
O O3 0.970222 0.094082 0.011414
O O4 0.978630 0.193959 0.090938
O O5 0.669354 0.098394 0.540186
O O6 0.561382 0.075821 0.791380
O O7 0.585287 0.167178 0.578875
O O8 0.646447 0.128935 0.032082
O O9 0.836917 0.531592 0.151953
O O10 0.942322 0.471943 0.134670
O O11 0.839550 0.431204 0.279208
O O12 0.853067 0.459161 0.777797
O O13 0.742482 0.902952 0.657210
O O14 0.561133 0.234761 0.134648
#
# Coordination Sequence:
#
# PCOD9459387 Si02
#       7
#     8   8   8   8   8   8   8
#     4   9  18  34  57  81 103 132 175 231 284 312
#     4  11  23  36  52  82 113 143 182 223 288 343
#     4  10  20  34  55  79 108 154 202 231 257 300
#     4  12  22  34  54  80 118 157 185 219 265 336
#     4   9  18  34  52  76 112 144 179 230 267 311
#     4  10  20  36  55  79 112 149 191 231 264 313
#     4  11  21  38  63  82 100 130 176 231 279 338
#
# _framework density 20.842165999999999
#
# number of rings (size 3 to 8) (size 9 to 14) (size 15 to 20)
#    0.000    1.714    0.000    6.857    0.000    1.143 
#    0.000    0.000    0.000    5.143    0.000    0.000 
#    0.000    0.000    0.000    0.000    0.000    0.000 
#
# Total GULP energy -312548.246495 kJ/mol
# GULP energy per Si atom -5581.218687 kJ/mol
# Density = 2.079473 g / cm^3
# Si number density = 20.842166 Si / 1000 Ang^3
#
#
#
# Elastic Constant Matrix: (Units=GPa)
#
#
# Indices 1 2 3 4 5 6 
#
# 1 126.8429 6.0733 12.8434 0.0000 0.0000 0.0000
# 2 6.0733 37.1382 2.9779 0.0000 0.0000 0.0000
# 3 12.8434 2.9779 93.3959 0.0000 0.0000 0.0000
# 4 0.0000 0.0000 0.0000 25.9945 0.0000 0.0000
# 5 0.0000 0.0000 0.0000 0.0000 30.1643 0.0000
# 6 0.0000 0.0000 0.0000 0.0000 0.0000 16.8837
#
#
#
# Elastic Compliance Matrix: (Units=1/GPa)
#
#
# Indices 1 2 3 4 5 6 
#
# 1 0.008051 -0.001231 -0.001068 0.000000 0.000000 0.000000
# 2 -0.001231 0.027184 -0.000697 0.000000 0.000000 0.000000
# 3 -0.001068 -0.000697 0.010876 0.000000 0.000000 0.000000
# 4 0.000000 0.000000 0.000000 0.038470 0.000000 0.000000
# 5 0.000000 0.000000 0.000000 0.000000 0.033152 0.000000
# 6 0.000000 0.000000 0.000000 0.000000 0.000000 0.059229
#
#
# Mechanical properties :
#
#
# Convention : Reuss Voigt Hill
#
# Bulk Modulus (GPa) = 24.92640 33.46293 29.19466
# Shear Modulus (GPa) = 25.46783 30.30733 27.88758
#
# Velocity S-wave (km/s) = 3.49941 3.81745 3.66189
# Velocity P-wave (km/s) = 5.32104 5.95993 5.64952
#
# Compressibility (1/GPa) = 0.04011811
#
# Stress axis : x y z
#
# Youngs Moduli (GPa) = 124.21073 36.78682 91.94397
#
# Poissons Ratio (x) = 0.04528 0.09818
# Poissons Ratio (y) = 0.15290 0.06413
# Poissons Ratio (z) = 0.13264 0.02566
#
# Static dielectric constant tensor:
#      x y z
#    x 1.769020 0.000000 0.000000 
#    y 0.000000 1.759360 0.000000 
#    z 0.000000 0.000000 1.726320 
# 
# From -- ./inp_files/1039.got.cif
#   From: 2010.05.17/outbox.cif.g08.bks.cpg/sg61_1_cif.got.tgz:1039.got - 2010.06.03 15:17:17.
