data_PCOD9459186
_publ_section_title
;
Structure prediction by ZEFSAII (Michael W. Deem and Ramdas Pophale) SiO2 
 PCOD9459186
Probable space group: P B C A
;
_chemical_formula_sum "Si O2"
_cell_formula_units_Z 60
_cell_length_a 9.930034
_cell_length_b 32.415951
_cell_length_c 7.082369
_cell_angle_alpha 90.000000
_cell_angle_beta 90.000000
_cell_angle_gamma 90.000000
_cell_volume 2279.754350
_symmetry_space_group_name_H-M "P B C A"
_symmetry_group_IT_number 61
_symmetry_cell_setting 'orthorhombic'
loop_
_space_group_symop_operation_xyz
x,y,z
1/2-x,-y,1/2+z
1/2+x,1/2-y,-z
-x,1/2+y,1/2-z
-x,-y,-z
1/2+x,y,1/2-z
1/2-x,1/2+y,z
x,1/2-y,1/2+z
loop_
_atom_site_type_symbol
_atom_site_label
_atom_site_fract_x
_atom_site_fract_y
_atom_site_fract_z
Si Si1 0.322538 0.654536 0.954124
Si Si2 0.097938 0.430490 0.420811
Si Si3 0.870619 0.842420 0.502115
Si Si4 0.500000 0.500000 0.000000
Si Si5 0.094533 0.690592 0.462580
Si Si6 0.526089 0.070738 0.001071
Si Si7 0.677988 0.506260 0.614086
Si Si8 0.909253 0.285720 0.097585
O O1 0.305290 0.605589 0.986800
O O2 0.342965 0.655415 0.725743
O O3 0.454782 0.667681 0.067947
O O4 0.210821 0.688412 0.995381
O O5 0.031562 0.418894 0.224515
O O6 0.167271 0.476515 0.380716
O O7 0.992841 0.448980 0.564940
O O8 0.723701 0.836362 0.588559
O O9 0.948195 0.883103 0.573992
O O10 0.958106 0.800644 0.512455
O O11 0.602446 0.509484 0.812698
O O12 0.105644 0.737028 0.388789
O O13 0.089162 0.697830 0.689064
O O14 0.399007 0.039707 0.018419
O O15 0.651073 0.040026 0.045484
#
# Coordination Sequence:
#
# PCOD9459186 Si02
#       8
#     8   8   8   4   8   8   8   8
#     4   9  19  33  54  79 103 139 184 220 263 330
#     4  10  19  34  55  77 107 145 184 231 279 333
#     4   9  18  33  55  77 102 139 180 221 265 324
#     4  10  22  34  52  84 112 142 186 232 284 342
#     4  10  20  34  54  79 105 136 178 223 271 329
#     4   9  19  33  53  76 101 142 187 221 268 329
#     4  10  19  34  53  77 109 144 183 230 281 332
#     4  10  19  35  54  76 105 138 175 220 275 328
#
# _framework density 26.318626999999999
#
# number of rings (size 3 to 8) (size 9 to 14) (size 15 to 20)
#    0.000    2.400    0.000    2.400    0.000    7.467 
#    0.000    2.667    0.000    0.000    0.000    0.000 
#    0.000    0.000    0.000    0.000    0.000    0.000 
#
# Total GULP energy -334171.883278 kJ/mol
# GULP energy per Si atom -5569.531388 kJ/mol
# Density = 2.625872 g / cm^3
# Si number density = 26.318627 Si / 1000 Ang^3
#
#
#
# Elastic Constant Matrix: (Units=GPa)
#
#
# Indices 1 2 3 4 5 6 
#
# 1 68.2903 16.1575 -2.3686 0.0000 0.0000 0.0000
# 2 16.1575 140.5903 -0.6337 0.0000 0.0000 0.0000
# 3 -2.3686 -0.6337 84.8672 0.0000 0.0000 0.0000
# 4 0.0000 0.0000 0.0000 34.1573 0.0000 0.0000
# 5 0.0000 0.0000 0.0000 0.0000 13.1020 0.0000
# 6 0.0000 0.0000 0.0000 0.0000 0.0000 42.2568
#
#
#
# Elastic Compliance Matrix: (Units=1/GPa)
#
#
# Indices 1 2 3 4 5 6 
#
# 1 0.015067 -0.001730 0.000408 0.000000 0.000000 0.000000
# 2 -0.001730 0.007312 0.000006 0.000000 0.000000 0.000000
# 3 0.000408 0.000006 0.011795 0.000000 0.000000 0.000000
# 4 0.000000 0.000000 0.000000 0.029276 0.000000 0.000000
# 5 0.000000 0.000000 0.000000 0.000000 0.076324 0.000000
# 6 0.000000 0.000000 0.000000 0.000000 0.000000 0.023665
#
#
# Mechanical properties :
#
#
# Convention : Reuss Voigt Hill
#
# Bulk Modulus (GPa) = 31.70441 35.56201 33.63321
# Shear Modulus (GPa) = 28.31522 36.60942 32.46232
#
# Velocity S-wave (km/s) = 3.28359 3.73367 3.51584
# Velocity P-wave (km/s) = 5.14281 5.66820 5.41188
#
# Compressibility (1/GPa) = 0.03154135
#
# Stress axis : x y z
#
# Youngs Moduli (GPa) = 66.37133 136.76735 84.78503
#
# Poissons Ratio (x) = 0.23657 -0.03456
# Poissons Ratio (y) = 0.11480 -0.00054
# Poissons Ratio (z) = -0.02705 -0.00086
#
# Static dielectric constant tensor:
#      x y z
#    x 2.769000 0.000000 0.000000 
#    y 0.000000 2.151230 0.000000 
#    z 0.000000 0.000000 2.592840 
# 
# From -- ./inp_files/2368.got.cif
#   From: 2010.05.17/outbox.cif.g08.bks.cpg/sg61_2_cif.got.tgz:2368.got - 2010.06.03 15:17:17.
