data_PCOD9459461
_publ_section_title
;
Structure prediction by ZEFSAII (Michael W. Deem and Ramdas Pophale) SiO2 
 PCOD9459461
Probable space group: P B C A
;
_chemical_formula_sum "Si O2"
_cell_formula_units_Z 44
_cell_length_a 25.039910
_cell_length_b 8.795343
_cell_length_c 7.485692
_cell_angle_alpha 90.000000
_cell_angle_beta 90.000000
_cell_angle_gamma 90.000000
_cell_volume 1648.608362
_symmetry_space_group_name_H-M "P B C A"
_symmetry_group_IT_number 61
_symmetry_cell_setting 'orthorhombic'
loop_
_space_group_symop_operation_xyz
x,y,z
1/2-x,-y,1/2+z
1/2+x,1/2-y,-z
-x,1/2+y,1/2-z
-x,-y,-z
1/2+x,y,1/2-z
1/2-x,1/2+y,z
x,1/2-y,1/2+z
loop_
_atom_site_type_symbol
_atom_site_label
_atom_site_fract_x
_atom_site_fract_y
_atom_site_fract_z
Si Si1 0.196726 0.499636 0.095100
Si Si2 0.979125 0.184966 0.377133
Si Si3 0.800086 0.327564 0.286229
Si Si4 0.587584 0.426900 0.499363
Si Si5 0.000000 0.000000 0.000000
Si Si6 0.594168 0.522395 0.882666
O O1 0.198070 0.586666 0.904203
O O2 0.142189 0.401988 0.105384
O O3 0.199164 0.645155 0.226495
O O4 0.246470 0.389305 0.122660
O O5 0.926992 0.103400 0.456136
O O6 0.960615 0.363882 0.367270
O O7 0.028801 0.143804 0.504303
O O8 0.991733 0.113660 0.186043
O O9 0.852869 0.381571 0.394509
O O10 0.601715 0.422904 0.708691
O O11 0.934763 0.932957 0.037319
#
# Coordination Sequence:
#
# PCOD9459461 Si02
#       6
#     8   8   8   8   4   8
#     4  11  23  43  66  95 132 175 227 278 334 396
#     4   9  19  35  57  87 120 159 208 251 321 376
#     4  11  23  43  65  94 130 177 223 279 335 391
#     4  10  20  36  59  89 123 163 212 262 319 392
#     4   8  18  32  52  84 116 156 198 252 308 372
#     4   9  20  35  60  85 126 160 208 257 325 383
#
# _framework density 26.689176
#
# number of rings (size 3 to 8) (size 9 to 14) (size 15 to 20)
#    1.091    1.091    1.818    1.091    2.545    1.455 
#    0.000    1.818    0.000    0.000    0.000    0.000 
#    0.000    0.000    0.000    0.000    0.000    0.000 
#
# Total GULP energy -245095.813949 kJ/mol
# GULP energy per Si atom -5570.359408 kJ/mol
# Density = 2.662843 g / cm^3
# Si number density = 26.689176 Si / 1000 Ang^3
#
#
#
# Elastic Constant Matrix: (Units=GPa)
#
#
# Indices 1 2 3 4 5 6 
#
# 1 187.3998 26.1392 33.1023 0.0000 0.0000 0.0000
# 2 26.1392 73.0005 21.9060 0.0000 0.0000 0.0000
# 3 33.1023 21.9060 92.9127 0.0000 0.0000 0.0000
# 4 0.0000 0.0000 0.0000 26.9088 0.0000 0.0000
# 5 0.0000 0.0000 0.0000 0.0000 29.2195 0.0000
# 6 0.0000 0.0000 0.0000 0.0000 0.0000 41.3078
#
#
#
# Elastic Compliance Matrix: (Units=1/GPa)
#
#
# Indices 1 2 3 4 5 6 
#
# 1 0.005860 -0.001584 -0.001714 0.000000 0.000000 0.000000
# 2 -0.001584 0.015170 -0.003012 0.000000 0.000000 0.000000
# 3 -0.001714 -0.003012 0.012084 0.000000 0.000000 0.000000
# 4 0.000000 0.000000 0.000000 0.037162 0.000000 0.000000
# 5 0.000000 0.000000 0.000000 0.000000 0.034224 0.000000
# 6 0.000000 0.000000 0.000000 0.000000 0.000000 0.024208
#
#
# Mechanical properties :
#
#
# Convention : Reuss Voigt Hill
#
# Bulk Modulus (GPa) = 48.79845 57.28980 53.04413
# Shear Modulus (GPa) = 33.74742 37.63161 35.68951
#
# Velocity S-wave (km/s) = 3.55978 3.75906 3.66078
# Velocity P-wave (km/s) = 5.93462 6.35239 6.14706
#
# Compressibility (1/GPa) = 0.02049245
#
# Stress axis : x y z
#
# Youngs Moduli (GPa) = 170.65084 65.92148 82.75580
#
# Poissons Ratio (x) = 0.10441 0.14187
# Poissons Ratio (y) = 0.27028 0.24928
# Poissons Ratio (z) = 0.29255 0.19857
#
# Static dielectric constant tensor:
#      x y z
#    x 2.076290 0.000000 0.000000 
#    y 0.000000 2.248100 0.000000 
#    z 0.000000 0.000000 2.108950 
# 
# From -- ./inp_files/4185.got.cif
#   From: 2010.05.17/outbox.cif.g08.bks.cpg/sg61_3_cif.got.tgz:4185.got - 2010.06.03 15:17:17.
