data_PCOD9459986
_publ_section_title
;
Structure prediction by ZEFSAII (Michael W. Deem and Ramdas Pophale) SiO2 
 PCOD9459986
Probable space group: P B C A
;
_chemical_formula_sum "Si O2"
_cell_formula_units_Z 60
_cell_length_a 11.355252
_cell_length_b 9.302136
_cell_length_c 21.945083
_cell_angle_alpha 90.000000
_cell_angle_beta 90.000000
_cell_angle_gamma 90.000000
_cell_volume 2318.017387
_symmetry_space_group_name_H-M "P B C A"
_symmetry_group_IT_number 61
_symmetry_cell_setting 'orthorhombic'
loop_
_space_group_symop_operation_xyz
x,y,z
1/2-x,-y,1/2+z
1/2+x,1/2-y,-z
-x,1/2+y,1/2-z
-x,-y,-z
1/2+x,y,1/2-z
1/2-x,1/2+y,z
x,1/2-y,1/2+z
loop_
_atom_site_type_symbol
_atom_site_label
_atom_site_fract_x
_atom_site_fract_y
_atom_site_fract_z
Si Si1 0.549697 0.219156 0.415350
Si Si2 0.871459 0.821755 0.665114
Si Si3 0.188506 0.915806 0.935697
Si Si4 0.500000 0.000000 0.000000
Si Si5 0.465198 0.917065 0.197759
Si Si6 0.414872 0.144020 0.678584
Si Si7 0.244743 0.112282 0.206270
Si Si8 0.221297 0.655671 0.015723
O O1 0.444574 0.103944 0.415214
O O2 0.511386 0.347085 0.461981
O O3 0.564541 0.296371 0.350879
O O4 0.666734 0.151804 0.441860
O O5 0.772155 0.848377 0.615494
O O6 0.811903 0.819512 0.732314
O O7 0.961350 0.692448 0.648680
O O8 0.953615 0.962529 0.666543
O O9 0.200806 0.819677 0.996775
O O10 0.241556 0.068103 0.954463
O O11 0.391562 0.071558 0.039456
O O12 0.544314 0.849675 0.250734
O O13 0.350244 0.999518 0.223016
O O14 0.315439 0.265132 0.669593
O O15 0.352874 0.989402 0.674084
#
# Coordination Sequence:
#
# PCOD9459986 Si02
#       8
#     8   8   8   4   8   8   8   8
#     4  11  23  43  69  98 140 176 233 293 346 414
#     4  10  21  41  68  97 140 180 229 285 345 420
#     4  11  23  42  71 102 131 181 233 281 349 420
#     4  10  22  44  68  94 138 176 218 288 350 398
#     4  10  22  39  64 100 134 183 226 283 354 414
#     4  10  21  40  64  96 135 177 224 283 343 413
#     4  10  21  40  62  93 135 172 224 282 340 407
#     4  11  23  44  67 101 135 177 229 290 348 406
#
# _framework density 25.884188999999999
#
# number of rings (size 3 to 8) (size 9 to 14) (size 15 to 20)
#    0.000    1.600    1.333    3.600    0.000    3.200 
#    9.600    2.667    0.000    0.000    0.000    0.000 
#    0.000    0.000    0.000    0.000    0.000    0.000 
#
# Total GULP energy -335159.695560 kJ/mol
# GULP energy per Si atom -5585.994926 kJ/mol
# Density = 2.582528 g / cm^3
# Si number density = 25.884189 Si / 1000 Ang^3
#
#
#
# Elastic Constant Matrix: (Units=GPa)
#
#
# Indices 1 2 3 4 5 6 
#
# 1 135.2497 14.4772 24.9339 0.0000 0.0000 0.0000
# 2 14.4772 103.9409 13.4474 0.0000 0.0000 0.0000
# 3 24.9339 13.4474 53.0307 0.0000 0.0000 0.0000
# 4 0.0000 0.0000 0.0000 36.7657 0.0000 0.0000
# 5 0.0000 0.0000 0.0000 0.0000 49.9093 0.0000
# 6 0.0000 0.0000 0.0000 0.0000 0.0000 19.6752
#
#
#
# Elastic Compliance Matrix: (Units=1/GPa)
#
#
# Indices 1 2 3 4 5 6 
#
# 1 0.008139 -0.000660 -0.003659 0.000000 0.000000 0.000000
# 2 -0.000660 0.010001 -0.002226 0.000000 0.000000 0.000000
# 3 -0.003659 -0.002226 0.021142 0.000000 0.000000 0.000000
# 4 0.000000 0.000000 0.000000 0.027199 0.000000 0.000000
# 5 0.000000 0.000000 0.000000 0.000000 0.020036 0.000000
# 6 0.000000 0.000000 0.000000 0.000000 0.000000 0.050825
#
#
# Mechanical properties :
#
#
# Convention : Reuss Voigt Hill
#
# Bulk Modulus (GPa) = 38.18046 44.21538 41.19792
# Shear Modulus (GPa) = 31.41426 37.22756 34.32091
#
# Velocity S-wave (km/s) = 3.48752 3.79652 3.64530
# Velocity P-wave (km/s) = 5.56773 6.02803 5.80245
#
# Compressibility (1/GPa) = 0.02619141
#
# Stress axis : x y z
#
# Youngs Moduli (GPa) = 122.86478 99.99265 47.29934
#
# Poissons Ratio (x) = 0.06601 0.17309
# Poissons Ratio (y) = 0.08111 0.10527
# Poissons Ratio (z) = 0.44961 0.22254
#
# Static dielectric constant tensor:
#      x y z
#    x 2.039860 0.000000 0.000000 
#    y 0.000000 1.987530 0.000000 
#    z 0.000000 0.000000 1.983700 
# 
# From -- ./inp_files/11452.got.cif
#   From: 2010.05.17/outbox.cif.g08.bks.cpg/sg61_6_cif.got.tgz:11452.got - 2010.06.03 15:17:17.
