data_PCOD9459305
_publ_section_title
;
Structure prediction by ZEFSAII (Michael W. Deem and Ramdas Pophale) SiO2 
 PCOD9459305
Probable space group: P B C A
;
_chemical_formula_sum "Si O2"
_cell_formula_units_Z 56
_cell_length_a 14.211465
_cell_length_b 17.626461
_cell_length_c 8.177576
_cell_angle_alpha 90.000000
_cell_angle_beta 90.000000
_cell_angle_gamma 90.000000
_cell_volume 2048.465072
_symmetry_space_group_name_H-M "P B C A"
_symmetry_group_IT_number 61
_symmetry_cell_setting 'orthorhombic'
loop_
_space_group_symop_operation_xyz
x,y,z
1/2-x,-y,1/2+z
1/2+x,1/2-y,-z
-x,1/2+y,1/2-z
-x,-y,-z
1/2+x,y,1/2-z
1/2-x,1/2+y,z
x,1/2-y,1/2+z
loop_
_atom_site_type_symbol
_atom_site_label
_atom_site_fract_x
_atom_site_fract_y
_atom_site_fract_z
Si Si1 0.595572 0.152086 0.864767
Si Si2 0.749006 0.877526 0.150557
Si Si3 0.176743 0.357317 0.682855
Si Si4 0.661537 0.638870 0.105848
Si Si5 0.615310 0.972287 0.311766
Si Si6 0.597613 0.002136 0.756347
Si Si7 0.985193 0.786777 0.020812
O O1 0.702423 0.168937 0.800041
O O2 0.237218 0.161112 0.020945
O O3 0.537108 0.174890 0.696721
O O4 0.552223 0.201615 0.007560
O O5 0.647606 0.914117 0.171146
O O6 0.908676 0.937862 0.407206
O O7 0.237349 0.332532 0.838029
O O8 0.166189 0.447707 0.704506
O O9 0.177035 0.448992 0.341051
O O10 0.076609 0.327347 0.621306
O O11 0.623370 0.585752 0.256690
O O12 0.591094 0.702467 0.040352
O O13 0.654269 0.575192 0.965132
O O14 0.505427 0.988836 0.320493
#
# Coordination Sequence:
#
# PCOD9459305 Si02
#       7
#     8   8   8   8   8   8   8
#     4   9  21  42  62  80 121 159 196 239 292 356
#     4   9  21  37  57  85 120 151 192 237 293 353
#     4  11  20  37  59  92 118 149 193 247 296 349
#     4  12  21  37  65  94 114 153 204 249 292 352
#     4  12  17  36  66  89 117 152 193 246 297 348
#     4  10  19  38  64  86 117 157 198 239 301 350
#     4  11  22  43  60  86 118 161 198 243 294 356
#
# _framework density 27.337540000000001
#
# number of rings (size 3 to 8) (size 9 to 14) (size 15 to 20)
#    0.857    0.571    5.714    0.429    0.000    1.143 
#    5.143    2.143    0.000    0.000    0.000    0.000 
#    0.000    0.000    0.000    0.000    0.000    0.000 
#
# Total GULP energy -312662.695687 kJ/mol
# GULP energy per Si atom -5583.262423 kJ/mol
# Density = 2.727532 g / cm^3
# Si number density = 27.337540 Si / 1000 Ang^3
#
#
#
# Elastic Constant Matrix: (Units=GPa)
#
#
# Indices 1 2 3 4 5 6 
#
# 1 129.4614 7.0699 22.0650 0.0000 0.0000 0.0000
# 2 7.0699 81.9994 2.5690 0.0000 0.0000 0.0000
# 3 22.0650 2.5690 88.9137 0.0000 0.0000 0.0000
# 4 0.0000 0.0000 0.0000 30.6072 0.0000 0.0000
# 5 0.0000 0.0000 0.0000 0.0000 18.4616 0.0000
# 6 0.0000 0.0000 0.0000 0.0000 0.0000 38.0618
#
#
#
# Elastic Compliance Matrix: (Units=1/GPa)
#
#
# Indices 1 2 3 4 5 6 
#
# 1 0.008098 -0.000636 -0.001991 0.000000 0.000000 0.000000
# 2 -0.000636 0.012256 -0.000196 0.000000 0.000000 0.000000
# 3 -0.001991 -0.000196 0.011747 0.000000 0.000000 0.000000
# 4 0.000000 0.000000 0.000000 0.032672 0.000000 0.000000
# 5 0.000000 0.000000 0.000000 0.000000 0.054166 0.000000
# 6 0.000000 0.000000 0.000000 0.000000 0.000000 0.026273
#
#
# Mechanical properties :
#
#
# Convention : Reuss Voigt Hill
#
# Bulk Modulus (GPa) = 37.80109 40.42026 39.11068
# Shear Modulus (GPa) = 31.31300 35.33748 33.32524
#
# Velocity S-wave (km/s) = 3.38808 3.59922 3.49525
# Velocity P-wave (km/s) = 5.40028 5.66483 5.53413
#
# Compressibility (1/GPa) = 0.02645426
#
# Stress axis : x y z
#
# Youngs Moduli (GPa) = 123.48069 81.59146 85.13024
#
# Poissons Ratio (x) = 0.05188 0.16952
# Poissons Ratio (y) = 0.07851 0.01671
# Poissons Ratio (z) = 0.24589 0.01602
#
# Static dielectric constant tensor:
#      x y z
#    x 2.130700 0.000000 0.000000 
#    y 0.000000 2.225970 0.000000 
#    z 0.000000 0.000000 2.266290 
# 
# From -- ./inp_files/5358.got.cif
#   From: 2010.05.17/outbox.cif.g08.bks.cpg/sg61_3_cif.got.tgz:5358.got - 2010.06.03 15:17:17.
