data_PCOD9459866
_publ_section_title
;
Structure prediction by ZEFSAII (Michael W. Deem and Ramdas Pophale) SiO2 
 PCOD9459866
Probable space group: P B C A
;
_chemical_formula_sum "Si O2"
_cell_formula_units_Z 60
_cell_length_a 27.721816
_cell_length_b 4.779543
_cell_length_c 20.274599
_cell_angle_alpha 90.000000
_cell_angle_beta 90.000000
_cell_angle_gamma 90.000000
_cell_volume 2686.335944
_symmetry_space_group_name_H-M "P B C A"
_symmetry_group_IT_number 61
_symmetry_cell_setting 'orthorhombic'
loop_
_space_group_symop_operation_xyz
x,y,z
1/2-x,-y,1/2+z
1/2+x,1/2-y,-z
-x,1/2+y,1/2-z
-x,-y,-z
1/2+x,y,1/2-z
1/2-x,1/2+y,z
x,1/2-y,1/2+z
loop_
_atom_site_type_symbol
_atom_site_label
_atom_site_fract_x
_atom_site_fract_y
_atom_site_fract_z
Si Si1 0.138676 0.484445 0.011818
Si Si2 0.000000 0.000000 0.000000
Si Si3 0.489533 0.429398 0.291685
Si Si4 0.061755 0.786332 0.612252
Si Si5 0.114086 0.208689 0.299922
Si Si6 0.607300 0.513526 0.062874
Si Si7 0.782192 0.288134 0.893858
Si Si8 0.360912 0.263881 0.715466
O O1 0.137024 0.164028 0.991385
O O2 0.123008 0.667438 0.948240
O O3 0.096550 0.535345 0.065034
O O4 0.186692 0.603299 0.044501
O O5 0.949342 0.987027 0.045614
O O6 0.032453 0.913389 0.064016
O O7 0.492346 0.106227 0.272248
O O8 0.524013 0.514306 0.350990
O O9 0.436274 0.541119 0.305041
O O10 0.097205 0.648000 0.666088
O O11 0.120260 0.377871 0.367483
O O12 0.117366 0.452499 0.245341
O O13 0.148934 0.964412 0.272160
O O14 0.733216 0.466361 0.893955
O O15 0.814833 0.331687 0.829094
#
# Coordination Sequence:
#
# PCOD9459866 Si02
#       8
#     8   4   8   8   8   8   8   8
#     4  10  24  41  63  92 126 161 203 269 316 375
#     4  10  22  36  56  86 126 180 222 260 288 358
#     4  12  22  36  56  85 123 174 226 253 291 352
#     4  10  21  38  55  88 126 166 217 256 308 349
#     4  12  22  40  60  90 128 178 207 255 307 372
#     4  11  23  40  59  90 132 176 216 251 307 368
#     4  11  23  45  75 100 119 152 205 269 334 395
#     4  11  24  40  66  93 125 163 210 269 323 379
#
# _framework density 22.335253999999999
#
# number of rings (size 3 to 8) (size 9 to 14) (size 15 to 20)
#    0.000    1.067    4.000    2.400    0.000    9.600 
#    2.400    0.000    0.000   16.000    0.000    0.000 
#    0.000    0.000    0.000    0.000    0.000    0.000 
#
# Total GULP energy -334637.679645 kJ/mol
# GULP energy per Si atom -5577.294661 kJ/mol
# Density = 2.228442 g / cm^3
# Si number density = 22.335254 Si / 1000 Ang^3
#
#
#
# Elastic Constant Matrix: (Units=GPa)
#
#
# Indices 1 2 3 4 5 6 
#
# 1 68.7147 5.0355 22.0126 0.0000 0.0000 0.0000
# 2 5.0355 70.4076 7.9886 0.0000 0.0000 0.0000
# 3 22.0126 7.9886 76.2631 0.0000 0.0000 0.0000
# 4 0.0000 0.0000 0.0000 27.4264 0.0000 0.0000
# 5 0.0000 0.0000 0.0000 0.0000 20.7715 0.0000
# 6 0.0000 0.0000 0.0000 0.0000 0.0000 19.8486
#
#
#
# Elastic Compliance Matrix: (Units=1/GPa)
#
#
# Indices 1 2 3 4 5 6 
#
# 1 0.016063 -0.000630 -0.004570 0.000000 0.000000 0.000000
# 2 -0.000630 0.014399 -0.001326 0.000000 0.000000 0.000000
# 3 -0.004570 -0.001326 0.014571 0.000000 0.000000 0.000000
# 4 0.000000 0.000000 0.000000 0.036461 0.000000 0.000000
# 5 0.000000 0.000000 0.000000 0.000000 0.048143 0.000000
# 6 0.000000 0.000000 0.000000 0.000000 0.000000 0.050381
#
#
# Mechanical properties :
#
#
# Convention : Reuss Voigt Hill
#
# Bulk Modulus (GPa) = 31.27114 31.71762 31.49438
# Shear Modulus (GPa) = 24.54209 25.63255 25.08732
#
# Velocity S-wave (km/s) = 3.31842 3.39134 3.35508
# Velocity P-wave (km/s) = 5.35852 5.43750 5.39816
#
# Compressibility (1/GPa) = 0.03197837
#
# Stress axis : x y z
#
# Youngs Moduli (GPa) = 62.25388 69.45128 68.63106
#
# Poissons Ratio (x) = 0.04377 0.31368
# Poissons Ratio (y) = 0.03924 0.09103
# Poissons Ratio (z) = 0.28453 0.09212
#
# Static dielectric constant tensor:
#      x y z
#    x 1.789760 0.000000 0.000000 
#    y 0.000000 1.811680 0.000000 
#    z 0.000000 0.000000 1.861380 
# 
# From -- ./inp_files/9877.got.cif
#   From: 2010.05.17/outbox.cif.g08.bks.cpg/sg61_5_cif.got.tgz:9877.got - 2010.06.03 15:17:17.
