data_PCOD9459739
_publ_section_title
;
Structure prediction by ZEFSAII (Michael W. Deem and Ramdas Pophale) SiO2 
 PCOD9459739
Probable space group: P B C A
;
_chemical_formula_sum "Si O2"
_cell_formula_units_Z 40
_cell_length_a 9.538974
_cell_length_b 28.761399
_cell_length_c 5.439864
_cell_angle_alpha 90.000000
_cell_angle_beta 90.000000
_cell_angle_gamma 90.000000
_cell_volume 1492.449739
_symmetry_space_group_name_H-M "P B C A"
_symmetry_group_IT_number 61
_symmetry_cell_setting 'orthorhombic'
loop_
_space_group_symop_operation_xyz
x,y,z
1/2-x,-y,1/2+z
1/2+x,1/2-y,-z
-x,1/2+y,1/2-z
-x,-y,-z
1/2+x,y,1/2-z
1/2-x,1/2+y,z
x,1/2-y,1/2+z
loop_
_atom_site_type_symbol
_atom_site_label
_atom_site_fract_x
_atom_site_fract_y
_atom_site_fract_z
Si Si1 0.710558 0.831349 0.048557
Si Si2 0.184391 0.242294 0.267884
Si Si3 0.454931 0.407279 0.741313
Si Si4 0.667002 0.006068 0.766452
Si Si5 0.804347 0.894243 0.443020
O O1 0.694228 0.781255 0.190091
O O2 0.818064 0.854569 0.240405
O O3 0.758864 0.808562 0.790037
O O4 0.605791 0.872322 0.970532
O O5 0.103566 0.244298 0.521542
O O6 0.437765 0.462801 0.704709
O O7 0.617505 0.395874 0.707275
O O8 0.359878 0.397297 0.979786
O O9 0.724767 0.002696 0.490187
O O10 0.633922 0.059789 0.810494
#
# Coordination Sequence:
#
# PCOD9459739 Si02
#       5
#     8   8   8   8   8
#     4  10  20  42  68  96 136 184 236 292 352 420
#     4   8  18  36  68  94 130 172 236 292 352 410
#     4  11  24  43  69 105 145 190 239 295 364 433
#     4  10  21  44  69 104 143 188 243 294 357 430
#     4  11  24  43  69 105 145 190 239 295 364 433
#
# _framework density 26.801575
#
# number of rings (size 3 to 8) (size 9 to 14) (size 15 to 20)
#    1.200    0.800    2.000    1.800    0.000    1.600 
#    0.000    7.000    0.000    0.000    0.000    0.000 
#    0.000    0.000    0.000    0.000    0.000    0.000 
#
# Total GULP energy -222701.928084 kJ/mol
# GULP energy per Si atom -5567.548202 kJ/mol
# Density = 2.674057 g / cm^3
# Si number density = 26.801575 Si / 1000 Ang^3
#
#
#
# Elastic Constant Matrix: (Units=GPa)
#
#
# Indices 1 2 3 4 5 6 
#
# 1 59.2995 32.5962 29.8717 0.0000 0.0000 0.0000
# 2 32.5962 175.8675 39.1074 0.0000 0.0000 0.0000
# 3 29.8717 39.1074 136.8146 0.0000 0.0000 0.0000
# 4 0.0000 0.0000 0.0000 49.7618 0.0000 0.0000
# 5 0.0000 0.0000 0.0000 0.0000 19.7900 0.0000
# 6 0.0000 0.0000 0.0000 0.0000 0.0000 -44.7792
#
#
#
# Elastic Compliance Matrix: (Units=1/GPa)
#
#
# Indices 1 2 3 4 5 6 
#
# 1 0.020299 -0.002965 -0.003584 0.000000 0.000000 0.000000
# 2 -0.002965 0.006505 -0.001212 0.000000 0.000000 0.000000
# 3 -0.003584 -0.001212 0.008438 0.000000 0.000000 0.000000
# 4 0.000000 0.000000 0.000000 0.020096 0.000000 0.000000
# 5 0.000000 0.000000 0.000000 0.000000 0.050531 0.000000
# 6 0.000000 0.000000 0.000000 0.000000 0.000000 -0.022332
#
#
# Mechanical properties :
#
#
# Convention : Reuss Voigt Hill
#
# Bulk Modulus (GPa) = 50.71232 63.90357 57.30795
# Shear Modulus (GPa) = 47.33332 22.98159 35.15745
#
# Velocity S-wave (km/s) = 4.20702 2.93144 3.62576
# Velocity P-wave (km/s) = 6.52389 5.94582 6.24155
#
# Compressibility (1/GPa) = 0.01971907
#
# Stress axis : x y z
#
# Youngs Moduli (GPa) = 49.26303 153.72272 118.50819
#
# Poissons Ratio (x) = 0.45583 0.42479
# Poissons Ratio (y) = 0.14608 0.14364
# Poissons Ratio (z) = 0.17658 0.18632
#
# Static dielectric constant tensor:
#      x y z
#    x 2.154990 0.000000 0.000000 
#    y 0.000000 2.032600 0.000000 
#    z 0.000000 0.000000 2.133050 
# 
# From -- ./inp_files/215.got.cif
#   From: 2010.05.17/outbox.cif.g08.bks.cpg/sg61_1_cif.got.tgz:215.got - 2010.06.03 15:17:17.
