data_PCOD9459879
_publ_section_title
;
Structure prediction by ZEFSAII (Michael W. Deem and Ramdas Pophale) SiO2 
 PCOD9459879
Probable space group: P B C A
;
_chemical_formula_sum "Si O2"
_cell_formula_units_Z 40
_cell_length_a 14.985603
_cell_length_b 6.740669
_cell_length_c 17.745825
_cell_angle_alpha 90.000000
_cell_angle_beta 90.000000
_cell_angle_gamma 90.000000
_cell_volume 1792.558836
_symmetry_space_group_name_H-M "P B C A"
_symmetry_group_IT_number 61
_symmetry_cell_setting 'orthorhombic'
loop_
_space_group_symop_operation_xyz
x,y,z
1/2-x,-y,1/2+z
1/2+x,1/2-y,-z
-x,1/2+y,1/2-z
-x,-y,-z
1/2+x,y,1/2-z
1/2-x,1/2+y,z
x,1/2-y,1/2+z
loop_
_atom_site_type_symbol
_atom_site_label
_atom_site_fract_x
_atom_site_fract_y
_atom_site_fract_z
Si Si1 0.575723 0.207545 0.928249
Si Si2 0.328044 0.490428 0.267983
Si Si3 0.914074 0.558557 0.080511
Si Si4 0.625510 0.062531 0.769907
Si Si5 0.030447 0.594901 0.659099
O O1 0.611446 0.072386 0.859565
O O2 0.566728 0.433367 0.900590
O O3 0.475600 0.127419 0.941832
O O4 0.626131 0.159788 0.005854
O O5 0.348374 0.472602 0.356138
O O6 0.223662 0.504927 0.253344
O O7 0.369010 0.701690 0.247104
O O8 0.384729 0.346249 0.212323
O O9 0.977682 0.729009 0.117384
O O10 0.542342 0.000203 0.717238
#
# Coordination Sequence:
#
# PCOD9459879 Si02
#       5
#     8   8   8   8   8
#     4  10  21  38  61  88 118 156 200 253 307 353
#     4  10  22  36  61  89 118 162 206 245 301 373
#     4  10  21  38  61  88 118 156 200 253 307 353
#     4  10  22  36  61  89 118 162 206 245 301 373
#     4  10  21  40  61  84 120 162 206 252 301 368
#
# _framework density 22.31447
#
# number of rings (size 3 to 8) (size 9 to 14) (size 15 to 20)
#    0.000    2.000    2.000    0.600    5.600    0.000 
#    0.000   10.000    0.000    0.000    0.000    0.000 
#    0.000    0.000    0.000    0.000    0.000    0.000 
#
# Total GULP energy -223043.626726 kJ/mol
# GULP energy per Si atom -5576.090668 kJ/mol
# Density = 2.226368 g / cm^3
# Si number density = 22.314470 Si / 1000 Ang^3
#
#
#
# Elastic Constant Matrix: (Units=GPa)
#
#
# Indices 1 2 3 4 5 6 
#
# 1 87.4772 -2.4586 22.2611 0.0000 0.0000 0.0000
# 2 -2.4586 27.7565 4.0808 0.0000 0.0000 0.0000
# 3 22.2611 4.0808 127.7024 0.0000 0.0000 0.0000
# 4 0.0000 0.0000 0.0000 27.5568 0.0000 0.0000
# 5 0.0000 0.0000 0.0000 0.0000 21.8387 0.0000
# 6 0.0000 0.0000 0.0000 0.0000 0.0000 20.1601
#
#
#
# Elastic Compliance Matrix: (Units=1/GPa)
#
#
# Indices 1 2 3 4 5 6 
#
# 1 0.012014 0.001379 -0.002138 0.000000 0.000000 0.000000
# 2 0.001379 0.036356 -0.001402 0.000000 0.000000 0.000000
# 3 -0.002138 -0.001402 0.008248 0.000000 0.000000 0.000000
# 4 0.000000 0.000000 0.000000 0.036289 0.000000 0.000000
# 5 0.000000 0.000000 0.000000 0.000000 0.045790 0.000000
# 6 0.000000 0.000000 0.000000 0.000000 0.000000 0.049603
#
#
# Mechanical properties :
#
#
# Convention : Reuss Voigt Hill
#
# Bulk Modulus (GPa) = 19.12235 32.30030 25.71132
# Shear Modulus (GPa) = 23.80318 28.51464 26.15891
#
# Velocity S-wave (km/s) = 3.26960 3.57859 3.42758
# Velocity P-wave (km/s) = 4.77931 5.61974 5.21648
#
# Compressibility (1/GPa) = 0.05229483
#
# Stress axis : x y z
#
# Youngs Moduli (GPa) = 83.23293 27.50585 121.23742
#
# Poissons Ratio (x) = -0.03792 0.25926
# Poissons Ratio (y) = -0.11474 0.16998
# Poissons Ratio (z) = 0.17799 0.03857
#
# Static dielectric constant tensor:
#      x y z
#    x 1.817620 0.000000 0.000000 
#    y 0.000000 1.979600 0.000000 
#    z 0.000000 0.000000 1.920230 
# 
# From -- ./inp_files/3297.got.cif
#   From: 2010.05.17/outbox.cif.g08.bks.cpg/sg61_2_cif.got.tgz:3297.got - 2010.06.03 15:17:17.
