data_PCOD9459978
_publ_section_title
;
Structure prediction by ZEFSAII (Michael W. Deem and Ramdas Pophale) SiO2 
 PCOD9459978
Probable space group: P B C A
;
_chemical_formula_sum "Si O2"
_cell_formula_units_Z 64
_cell_length_a 16.661145
_cell_length_b 19.396642
_cell_length_c 10.082468
_cell_angle_alpha 90.000000
_cell_angle_beta 90.000000
_cell_angle_gamma 90.000000
_cell_volume 3258.353854
_symmetry_space_group_name_H-M "P B C A"
_symmetry_group_IT_number 61
_symmetry_cell_setting 'orthorhombic'
loop_
_space_group_symop_operation_xyz
x,y,z
1/2-x,-y,1/2+z
1/2+x,1/2-y,-z
-x,1/2+y,1/2-z
-x,-y,-z
1/2+x,y,1/2-z
1/2-x,1/2+y,z
x,1/2-y,1/2+z
loop_
_atom_site_type_symbol
_atom_site_label
_atom_site_fract_x
_atom_site_fract_y
_atom_site_fract_z
Si Si1 0.536760 0.700481 0.445806
Si Si2 0.227263 0.432855 0.866606
Si Si3 0.792235 0.781595 0.730596
Si Si4 0.037471 0.050714 0.396547
Si Si5 0.219579 0.039448 0.069787
Si Si6 0.967834 0.944687 0.897075
Si Si7 0.476087 0.710135 0.174323
Si Si8 0.719548 0.684886 0.513175
O O1 0.501661 0.624628 0.422823
O O2 0.534657 0.730431 0.295960
O O3 0.480773 0.739637 0.549942
O O4 0.624933 0.699066 0.508338
O O5 0.237415 0.351316 0.843722
O O6 0.133504 0.444373 0.899950
O O7 0.247494 0.466303 0.722857
O O8 0.274074 0.470433 0.983946
O O9 0.887691 0.788736 0.758289
O O10 0.764614 0.718322 0.638856
O O11 0.754520 0.782496 0.877256
O O12 0.016617 0.026216 0.249084
O O13 0.000000 0.000000 0.500000
O O14 0.127234 0.062014 0.080060
O O15 0.265855 0.102628 0.999789
O O16 0.997368 0.865584 0.884898
O O17 0.000000 0.000000 0.000000
#
# Coordination Sequence:
#
# PCOD9459978 Si02
#       8
#     8   8   8   8   8   8   8   8
#     4  11  23  39  65  93 126 164 214 267 314 377
#     4  10  21  40  62  89 118 171 204 251 315 378
#     4  11  22  42  66  86 132 169 209 254 321 381
#     4  10  21  40  60  87 126 161 207 256 314 374
#     4  10  22  40  60  88 129 157 210 260 308 378
#     4  10  22  40  62  90 121 167 211 256 313 377
#     4  11  22  43  64  90 130 169 211 262 316 382
#     4  11  23  40  63  95 125 163 210 266 314 370
#
# _framework density 19.641819999999999
#
# number of rings (size 3 to 8) (size 9 to 14) (size 15 to 20)
#    0.000    1.500    5.000    2.250    0.000    8.000 
#    0.000    2.500    0.000    0.000    0.000    0.000 
#    0.000    0.000    0.000    0.000    0.000    0.000 
#
# Total GULP energy -357164.857899 kJ/mol
# GULP energy per Si atom -5580.700905 kJ/mol
# Density = 1.959711 g / cm^3
# Si number density = 19.641820 Si / 1000 Ang^3
#
#
#
# Elastic Constant Matrix: (Units=GPa)
#
#
# Indices 1 2 3 4 5 6 
#
# 1 31.5720 15.3941 17.3517 0.0000 0.0000 0.0000
# 2 15.3941 43.0579 43.1197 0.0000 0.0000 0.0000
# 3 17.3517 43.1197 81.8332 0.0000 0.0000 0.0000
# 4 0.0000 0.0000 0.0000 42.5965 0.0000 0.0000
# 5 0.0000 0.0000 0.0000 0.0000 37.2189 0.0000
# 6 0.0000 0.0000 0.0000 0.0000 0.0000 26.0638
#
#
#
# Elastic Compliance Matrix: (Units=1/GPa)
#
#
# Indices 1 2 3 4 5 6 
#
# 1 0.038504 -0.011835 -0.001928 0.000000 0.000000 0.000000
# 2 -0.011835 0.052809 -0.025317 0.000000 0.000000 0.000000
# 3 -0.001928 -0.025317 0.025969 0.000000 0.000000 0.000000
# 4 0.000000 0.000000 0.000000 0.023476 0.000000 0.000000
# 5 0.000000 0.000000 0.000000 0.000000 0.026868 0.000000
# 6 0.000000 0.000000 0.000000 0.000000 0.000000 0.038367
#
#
# Mechanical properties :
#
#
# Convention : Reuss Voigt Hill
#
# Bulk Modulus (GPa) = 25.56123 34.24381 29.90252
# Shear Modulus (GPa) = 16.82410 26.54902 21.68656
#
# Velocity S-wave (km/s) = 2.92985 3.68048 3.32641
# Velocity P-wave (km/s) = 4.94847 5.96097 5.47816
#
# Compressibility (1/GPa) = 0.03912175
#
# Stress axis : x y z
#
# Youngs Moduli (GPa) = 25.97142 18.93629 38.50798
#
# Poissons Ratio (x) = 0.22411 0.07425
# Poissons Ratio (y) = 0.30737 0.97489
# Poissons Ratio (z) = 0.05008 0.47940
#
# Static dielectric constant tensor:
#      x y z
#    x 1.712640 0.000000 0.000000 
#    y 0.000000 1.655280 0.000000 
#    z 0.000000 0.000000 1.719050 
# 
# From -- ./inp_files/6341.got.cif
#   From: 2010.05.17/outbox.cif.g08.bks.cpg/sg61_4_cif.got.tgz:6341.got - 2010.06.03 15:17:17.
