data_PCOD9459407
_publ_section_title
;
Structure prediction by ZEFSAII (Michael W. Deem and Ramdas Pophale) SiO2 
 PCOD9459407
Probable space group: P B C A
;
_chemical_formula_sum "Si O2"
_cell_formula_units_Z 64
_cell_length_a 20.066440
_cell_length_b 17.332210
_cell_length_c 7.230865
_cell_angle_alpha 90.000000
_cell_angle_beta 90.000000
_cell_angle_gamma 90.000000
_cell_volume 2514.864131
_symmetry_space_group_name_H-M "P B C A"
_symmetry_group_IT_number 61
_symmetry_cell_setting 'orthorhombic'
loop_
_space_group_symop_operation_xyz
x,y,z
1/2-x,-y,1/2+z
1/2+x,1/2-y,-z
-x,1/2+y,1/2-z
-x,-y,-z
1/2+x,y,1/2-z
1/2-x,1/2+y,z
x,1/2-y,1/2+z
loop_
_atom_site_type_symbol
_atom_site_label
_atom_site_fract_x
_atom_site_fract_y
_atom_site_fract_z
Si Si1 0.715275 0.678699 0.093516
Si Si2 0.370023 0.038994 0.853694
Si Si3 0.359570 0.864622 0.850637
Si Si4 0.498607 0.173297 0.199838
Si Si5 0.380606 0.614204 0.796823
Si Si6 0.474875 0.158297 0.765711
Si Si7 0.895736 0.440378 0.725190
Si Si8 0.261568 0.345499 0.336701
O O1 0.787173 0.669239 0.191107
O O2 0.661530 0.622148 0.183374
O O3 0.700402 0.769821 0.091516
O O4 0.727666 0.655018 0.883321
O O5 0.415848 0.097060 0.733814
O O6 0.297898 0.075998 0.891464
O O7 0.364953 0.952730 0.782786
O O8 0.401181 0.038231 0.057714
O O9 0.422451 0.818794 0.768609
O O10 0.368367 0.871790 0.074989
O O11 0.459050 0.252639 0.228861
O O12 0.464565 0.104302 0.313553
O O13 0.490863 0.154517 0.983716
O O14 0.455273 0.641972 0.834874
O O15 0.379405 0.524095 0.853416
O O16 0.316362 0.654910 0.885236
#
# Coordination Sequence:
#
# PCOD9459407 Si02
#       8
#     8   8   8   8   8   8   8   8
#     4  11  22  36  55  79 109 142 178 219 264 316
#     4  10  20  36  58  81 107 139 177 221 267 315
#     4   9  19  36  57  80 105 139 181 221 263 313
#     4  10  20  35  56  80 107 140 178 219 264 315
#     4   9  19  36  57  80 105 139 181 221 263 313
#     4  10  20  35  56  80 107 140 178 219 264 315
#     4  10  20  36  58  81 107 139 177 221 267 315
#     4  11  22  36  55  79 109 142 178 219 264 316
#
# _framework density 25.448689999999999
#
# number of rings (size 3 to 8) (size 9 to 14) (size 15 to 20)
#    0.000    2.000    0.000    3.750    0.000    6.000 
#    0.000    3.750    0.000    3.000    0.000    0.000 
#    0.000    0.000    0.000    0.000    0.000    0.000 
#
# Total GULP energy -358069.548079 kJ/mol
# GULP energy per Si atom -5594.836689 kJ/mol
# Density = 2.539077 g / cm^3
# Si number density = 25.448690 Si / 1000 Ang^3
#
#
#
# Elastic Constant Matrix: (Units=GPa)
#
#
# Indices 1 2 3 4 5 6 
#
# 1 99.7091 9.8933 -8.6005 0.0000 0.0000 0.0000
# 2 9.8933 104.8287 -16.0935 0.0000 0.0000 0.0000
# 3 -8.6005 -16.0935 63.1249 0.0000 0.0000 0.0000
# 4 0.0000 0.0000 0.0000 36.0863 0.0000 0.0000
# 5 0.0000 0.0000 0.0000 0.0000 26.1273 0.0000
# 6 0.0000 0.0000 0.0000 0.0000 0.0000 35.6583
#
#
#
# Elastic Compliance Matrix: (Units=1/GPa)
#
#
# Indices 1 2 3 4 5 6 
#
# 1 0.010209 -0.000781 0.001192 0.000000 0.000000 0.000000
# 2 -0.000781 0.009988 0.002440 0.000000 0.000000 0.000000
# 3 0.001192 0.002440 0.016626 0.000000 0.000000 0.000000
# 4 0.000000 0.000000 0.000000 0.027711 0.000000 0.000000
# 5 0.000000 0.000000 0.000000 0.000000 0.038274 0.000000
# 6 0.000000 0.000000 0.000000 0.000000 0.000000 0.028044
#
#
# Mechanical properties :
#
#
# Convention : Reuss Voigt Hill
#
# Bulk Modulus (GPa) = 23.51500 26.45124 24.98312
# Shear Modulus (GPa) = 35.88730 38.40527 37.14628
#
# Velocity S-wave (km/s) = 3.75931 3.88896 3.82469
# Velocity P-wave (km/s) = 5.30127 5.53009 5.41689
#
# Compressibility (1/GPa) = 0.04252605
#
# Stress axis : x y z
#
# Youngs Moduli (GPa) = 97.94860 100.12386 60.14646
#
# Poissons Ratio (x) = 0.07815 -0.07169
# Poissons Ratio (y) = 0.07645 -0.14676
# Poissons Ratio (z) = -0.11675 -0.24430
#
# Static dielectric constant tensor:
#      x y z
#    x 1.981780 0.000000 0.000000 
#    y 0.000000 1.781580 0.000000 
#    z 0.000000 0.000000 2.046970 
# 
# From -- ./inp_files/4067.got.cif
#   From: 2010.05.17/outbox.cif.g08.bks.cpg/sg61_3_cif.got.tgz:4067.got - 2010.06.03 15:17:17.
