data_PCOD9459995
_publ_section_title
;
Structure prediction by ZEFSAII (Michael W. Deem and Ramdas Pophale) SiO2 
 PCOD9459995
Probable space group: P B C A
;
_chemical_formula_sum "Si O2"
_cell_formula_units_Z 64
_cell_length_a 14.252385
_cell_length_b 9.115964
_cell_length_c 19.492899
_cell_angle_alpha 90.000000
_cell_angle_beta 90.000000
_cell_angle_gamma 90.000000
_cell_volume 2532.599865
_symmetry_space_group_name_H-M "P B C A"
_symmetry_group_IT_number 61
_symmetry_cell_setting 'orthorhombic'
loop_
_space_group_symop_operation_xyz
x,y,z
1/2-x,-y,1/2+z
1/2+x,1/2-y,-z
-x,1/2+y,1/2-z
-x,-y,-z
1/2+x,y,1/2-z
1/2-x,1/2+y,z
x,1/2-y,1/2+z
loop_
_atom_site_type_symbol
_atom_site_label
_atom_site_fract_x
_atom_site_fract_y
_atom_site_fract_z
Si Si1 0.312945 0.111402 0.336331
Si Si2 0.554840 0.753046 0.847312
Si Si3 0.118769 0.607125 0.020434
Si Si4 0.404654 0.934523 0.596965
Si Si5 0.214478 0.579427 0.492558
Si Si6 0.542452 0.839408 0.124063
Si Si7 0.422718 0.885790 0.248570
Si Si8 0.235221 0.191279 0.204004
O O1 0.279780 0.061908 0.410917
O O2 0.391075 0.007645 0.302231
O O3 0.360915 0.269620 0.347671
O O4 0.232867 0.120810 0.279498
O O5 0.554749 0.587587 0.876635
O O6 0.474201 0.745259 0.789979
O O7 0.656771 0.780908 0.813640
O O8 0.555925 0.855701 0.913986
O O9 0.188180 0.469189 0.027184
O O10 0.064385 0.591468 0.949200
O O11 0.183273 0.755232 0.011027
O O12 0.365639 0.970352 0.521536
O O13 0.476029 0.800796 0.605227
O O14 0.315831 0.899969 0.645419
O O15 0.493130 0.924018 0.186646
O O16 0.327186 0.836068 0.211886
#
# Coordination Sequence:
#
# PCOD9459995 Si02
#       8
#     8   8   8   8   8   8   8   8
#     4  11  23  39  64  94 130 170 222 274 332 399
#     4  11  21  40  68  93 131 172 228 267 337 403
#     4  10  23  42  66  98 130 177 220 284 328 410
#     4  10  21  40  63  91 125 176 218 269 331 401
#     4  10  23  40  66  95 132 170 225 270 340 388
#     4  10  22  40  61  92 128 164 221 276 326 393
#     4  11  24  40  67  95 130 178 216 277 339 394
#     4  11  23  41  62  95 132 173 218 276 332 402
#
# _framework density 25.270475000000001
#
# number of rings (size 3 to 8) (size 9 to 14) (size 15 to 20)
#    0.000    1.500    3.750    0.750    5.250    2.500 
#    0.000    0.000    0.000    2.250    0.000    0.000 
#    0.000    0.000    0.000    0.000    0.000    0.000 
#
# Total GULP energy -358395.576358 kJ/mol
# GULP energy per Si atom -5599.930881 kJ/mol
# Density = 2.521296 g / cm^3
# Si number density = 25.270475 Si / 1000 Ang^3
#
#
#
# Elastic Constant Matrix: (Units=GPa)
#
#
# Indices 1 2 3 4 5 6 
#
# 1 76.7674 26.9577 18.2428 0.0000 0.0000 0.0000
# 2 26.9577 70.7285 26.3803 0.0000 0.0000 0.0000
# 3 18.2428 26.3803 137.0899 0.0000 0.0000 0.0000
# 4 0.0000 0.0000 0.0000 34.0725 0.0000 0.0000
# 5 0.0000 0.0000 0.0000 0.0000 22.6303 0.0000
# 6 0.0000 0.0000 0.0000 0.0000 0.0000 35.6758
#
#
#
# Elastic Compliance Matrix: (Units=1/GPa)
#
#
# Indices 1 2 3 4 5 6 
#
# 1 0.015159 -0.005414 -0.000975 0.000000 0.000000 0.000000
# 2 -0.005414 0.017165 -0.002583 0.000000 0.000000 0.000000
# 3 -0.000975 -0.002583 0.007921 0.000000 0.000000 0.000000
# 4 0.000000 0.000000 0.000000 0.029349 0.000000 0.000000
# 5 0.000000 0.000000 0.000000 0.000000 0.044189 0.000000
# 6 0.000000 0.000000 0.000000 0.000000 0.000000 0.028030
#
#
# Mechanical properties :
#
#
# Convention : Reuss Voigt Hill
#
# Bulk Modulus (GPa) = 44.83975 47.52748 46.18361
# Shear Modulus (GPa) = 29.90569 32.67606 31.29088
#
# Velocity S-wave (km/s) = 3.44383 3.59981 3.52268
# Velocity P-wave (km/s) = 5.79618 6.01053 5.90433
#
# Compressibility (1/GPa) = 0.02230164
#
# Stress axis : x y z
#
# Youngs Moduli (GPa) = 65.96576 58.25669 126.24225
#
# Poissons Ratio (x) = 0.31541 0.12314
# Poissons Ratio (y) = 0.35714 0.32605
# Poissons Ratio (z) = 0.06435 0.15046
#
# Static dielectric constant tensor:
#      x y z
#    x 1.994590 0.000000 0.000000 
#    y 0.000000 2.029500 0.000000 
#    z 0.000000 0.000000 1.970750 
# 
# From -- ./inp_files/9533.got.cif
#   From: 2010.05.17/outbox.cif.g08.bks.cpg/sg61_5_cif.got.tgz:9533.got - 2010.06.03 15:17:17.
