data_PCOD9459728
_publ_section_title
;
Structure prediction by ZEFSAII (Michael W. Deem and Ramdas Pophale) SiO2 
 PCOD9459728
Probable space group: P B C A
;
_chemical_formula_sum "Si O2"
_cell_formula_units_Z 64
_cell_length_a 13.780818
_cell_length_b 19.414157
_cell_length_c 11.112824
_cell_angle_alpha 90.000000
_cell_angle_beta 90.000000
_cell_angle_gamma 90.000000
_cell_volume 2973.157874
_symmetry_space_group_name_H-M "P B C A"
_symmetry_group_IT_number 61
_symmetry_cell_setting 'orthorhombic'
loop_
_space_group_symop_operation_xyz
x,y,z
1/2-x,-y,1/2+z
1/2+x,1/2-y,-z
-x,1/2+y,1/2-z
-x,-y,-z
1/2+x,y,1/2-z
1/2-x,1/2+y,z
x,1/2-y,1/2+z
loop_
_atom_site_type_symbol
_atom_site_label
_atom_site_fract_x
_atom_site_fract_y
_atom_site_fract_z
Si Si1 0.968027 0.563613 0.662983
Si Si2 0.399683 0.819744 0.886821
Si Si3 0.378320 0.679284 0.995011
Si Si4 0.347357 0.038180 0.508040
Si Si5 0.201678 0.920515 0.563271
Si Si6 0.487853 0.109272 0.914100
Si Si7 0.296131 0.141547 0.310373
Si Si8 0.469190 0.264878 0.816033
O O1 0.077420 0.556303 0.613111
O O2 0.971226 0.562288 0.806897
O O3 0.922555 0.635128 0.614996
O O4 0.906414 0.506185 0.592154
O O5 0.351909 0.757158 0.960636
O O6 0.318170 0.847219 0.797881
O O7 0.486160 0.783840 0.813328
O O8 0.439606 0.877907 0.975085
O O9 0.282981 0.637726 0.034031
O O10 0.465577 0.689207 0.091623
O O11 0.311045 0.104248 0.437128
O O12 0.259287 0.991933 0.554784
O O13 0.113503 0.916082 0.469603
O O14 0.167414 0.903655 0.698237
O O15 0.475382 0.185810 0.856172
O O16 0.358910 0.210371 0.313907
#
# Coordination Sequence:
#
# PCOD9459728 Si02
#       8
#     8   8   8   8   8   8   8   8
#     4  10  21  44  68  89 129 179 217 261 318 391
#     4  11  23  40  66  98 132 166 212 274 332 385
#     4  10  20  42  64  94 128 173 209 260 327 394
#     4  10  25  43  66  92 127 182 222 260 321 390
#     4  11  24  41  65  94 132 168 222 267 320 385
#     4  11  24  42  66 101 131 164 217 278 324 382
#     4  12  24  43  65  97 129 173 217 268 330 390
#     4  11  21  41  67  93 134 168 211 269 330 397
#
# _framework density 21.525932999999998
#
# number of rings (size 3 to 8) (size 9 to 14) (size 15 to 20)
#    0.000    1.250    5.000    0.750    1.750    1.000 
#    4.500    1.250    0.000    0.000    0.000    0.000 
#    0.000    0.000    0.000    0.000    0.000    0.000 
#
# Total GULP energy -357641.586570 kJ/mol
# GULP energy per Si atom -5588.149790 kJ/mol
# Density = 2.147694 g / cm^3
# Si number density = 21.525933 Si / 1000 Ang^3
#
#
#
# Elastic Constant Matrix: (Units=GPa)
#
#
# Indices 1 2 3 4 5 6 
#
# 1 58.8642 0.6737 6.5926 0.0000 0.0000 0.0000
# 2 0.6737 19.2961 -15.4353 0.0000 0.0000 0.0000
# 3 6.5926 -15.4353 69.0001 0.0000 0.0000 0.0000
# 4 0.0000 0.0000 0.0000 24.1452 0.0000 0.0000
# 5 0.0000 0.0000 0.0000 0.0000 32.5863 0.0000
# 6 0.0000 0.0000 0.0000 0.0000 0.0000 20.2464
#
#
#
# Elastic Compliance Matrix: (Units=1/GPa)
#
#
# Indices 1 2 3 4 5 6 
#
# 1 0.017258 -0.002340 -0.002172 0.000000 0.000000 0.000000
# 2 -0.002340 0.063436 0.014414 0.000000 0.000000 0.000000
# 3 -0.002172 0.014414 0.017925 0.000000 0.000000 0.000000
# 4 0.000000 0.000000 0.000000 0.041416 0.000000 0.000000
# 5 0.000000 0.000000 0.000000 0.000000 0.030688 0.000000
# 6 0.000000 0.000000 0.000000 0.000000 0.000000 0.049391
#
#
# Mechanical properties :
#
#
# Convention : Reuss Voigt Hill
#
# Bulk Modulus (GPa) = 8.44439 14.53580 11.49010
# Shear Modulus (GPa) = 20.85197 25.75087 23.30142
#
# Velocity S-wave (km/s) = 3.11576 3.46247 3.29368
# Velocity P-wave (km/s) = 4.10796 4.76993 4.45127
#
# Compressibility (1/GPa) = 0.11842178
#
# Stress axis : x y z
#
# Youngs Moduli (GPa) = 57.94295 15.76395 55.78874
#
# Poissons Ratio (x) = 0.03689 0.12120
# Poissons Ratio (y) = 0.13561 -0.80415
# Poissons Ratio (z) = 0.12588 -0.22723
#
# Static dielectric constant tensor:
#      x y z
#    x 1.773570 0.000000 0.000000 
#    y 0.000000 1.774880 0.000000 
#    z 0.000000 0.000000 1.772960 
# 
# From -- ./inp_files/6011.got.cif
#   From: 2010.05.17/outbox.cif.g08.bks.cpg/sg61_4_cif.got.tgz:6011.got - 2010.06.03 15:17:17.
