data_PCOD9459368
_publ_section_title
;
Structure prediction by ZEFSAII (Michael W. Deem and Ramdas Pophale) SiO2 
 PCOD9459368
Probable space group: P B C A
;
_chemical_formula_sum "Si O2"
_cell_formula_units_Z 48
_cell_length_a 21.332111
_cell_length_b 20.864464
_cell_length_c 5.235361
_cell_angle_alpha 90.000000
_cell_angle_beta 90.000000
_cell_angle_gamma 90.000000
_cell_volume 2330.170505
_symmetry_space_group_name_H-M "P B C A"
_symmetry_group_IT_number 61
_symmetry_cell_setting 'orthorhombic'
loop_
_space_group_symop_operation_xyz
x,y,z
1/2-x,-y,1/2+z
1/2+x,1/2-y,-z
-x,1/2+y,1/2-z
-x,-y,-z
1/2+x,y,1/2-z
1/2-x,1/2+y,z
x,1/2-y,1/2+z
loop_
_atom_site_type_symbol
_atom_site_label
_atom_site_fract_x
_atom_site_fract_y
_atom_site_fract_z
Si Si1 0.980075 0.075310 0.706194
Si Si2 0.091673 0.610559 0.316865
Si Si3 0.685355 0.994394 0.755733
Si Si4 0.795507 0.291473 0.736834
Si Si5 0.798181 0.902807 0.877732
Si Si6 0.409273 0.954006 0.888174
O O1 0.945902 0.097963 0.444859
O O2 0.053026 0.074517 0.629078
O O3 0.959296 0.000707 0.746488
O O4 0.956565 0.115792 0.947418
O O5 0.137256 0.550964 0.399417
O O6 0.139977 0.667814 0.258696
O O7 0.749677 0.956262 0.766315
O O8 0.695545 0.066753 0.660210
O O9 0.645906 0.999508 0.013616
O O10 0.793115 0.263629 0.451116
O O11 0.738419 0.338213 0.817297
O O12 0.868815 0.903959 0.771005
#
# Coordination Sequence:
#
# PCOD9459368 Si02
#       6
#     8   8   8   8   8   8
#     4  10  21  35  57  92 125 160 187 239 303 371
#     4  10  21  39  61  84 121 151 203 248 296 365
#     4  10  20  32  57  91 121 157 188 240 318 354
#     4  11  26  43  64  87 114 162 210 257 299 348
#     4  11  21  35  60  87 130 155 199 250 303 371
#     4  10  21  32  55  91 132 154 190 237 306 376
#
# _framework density 20.599350000000001
#
# number of rings (size 3 to 8) (size 9 to 14) (size 15 to 20)
#    0.000    1.667    3.333    1.000    4.667    2.000 
#    0.000    0.000    0.000    6.000    0.000    0.000 
#    0.000    0.000    0.000    0.000    0.000    0.000 
#
# Total GULP energy -267304.961331 kJ/mol
# GULP energy per Si atom -5568.853361 kJ/mol
# Density = 2.055247 g / cm^3
# Si number density = 20.599350 Si / 1000 Ang^3
#
#
#
# Elastic Constant Matrix: (Units=GPa)
#
#
# Indices 1 2 3 4 5 6 
#
# 1 96.8997 13.3210 20.5814 0.0000 0.0000 0.0000
# 2 13.3210 37.9585 2.4316 0.0000 0.0000 0.0000
# 3 20.5814 2.4316 73.6683 0.0000 0.0000 0.0000
# 4 0.0000 0.0000 0.0000 27.3554 0.0000 0.0000
# 5 0.0000 0.0000 0.0000 0.0000 39.2114 0.0000
# 6 0.0000 0.0000 0.0000 0.0000 0.0000 26.3769
#
#
#
# Elastic Compliance Matrix: (Units=1/GPa)
#
#
# Indices 1 2 3 4 5 6 
#
# 1 0.011503 -0.003839 -0.003087 0.000000 0.000000 0.000000
# 2 -0.003839 0.027682 0.000159 0.000000 0.000000 0.000000
# 3 -0.003087 0.000159 0.014432 0.000000 0.000000 0.000000
# 4 0.000000 0.000000 0.000000 0.036556 0.000000 0.000000
# 5 0.000000 0.000000 0.000000 0.000000 0.025503 0.000000
# 6 0.000000 0.000000 0.000000 0.000000 0.000000 0.037912
#
#
# Mechanical properties :
#
#
# Convention : Reuss Voigt Hill
#
# Bulk Modulus (GPa) = 24.94893 31.24385 28.09639
# Shear Modulus (GPa) = 27.70347 30.06823 28.88585
#
# Velocity S-wave (km/s) = 3.67123 3.82471 3.74875
# Velocity P-wave (km/s) = 5.48711 5.89108 5.69268
#
# Compressibility (1/GPa) = 0.04008187
#
# Stress axis : x y z
#
# Youngs Moduli (GPa) = 86.93061 36.12494 69.29246
#
# Poissons Ratio (x) = 0.13869 0.21391
# Poissons Ratio (y) = 0.33374 -0.01101
# Poissons Ratio (z) = 0.26836 -0.00574
#
# Static dielectric constant tensor:
#      x y z
#    x 1.811090 0.000000 0.000000 
#    y 0.000000 1.757970 0.000000 
#    z 0.000000 0.000000 1.897440 
# 
# From -- ./inp_files/965.got.cif
#   From: 2010.05.17/outbox.cif.g08.bks.cpg/sg61_1_cif.got.tgz:965.got - 2010.06.03 15:17:17.
