data_PCOD9459676
_publ_section_title
;
Structure prediction by ZEFSAII (Michael W. Deem and Ramdas Pophale) SiO2 
 PCOD9459676
Probable space group: P B C A
;
_chemical_formula_sum "Si O2"
_cell_formula_units_Z 44
_cell_length_a 9.076501
_cell_length_b 21.977002
_cell_length_c 8.908092
_cell_angle_alpha 90.000000
_cell_angle_beta 90.000000
_cell_angle_gamma 90.000000
_cell_volume 1776.935243
_symmetry_space_group_name_H-M "P B C A"
_symmetry_group_IT_number 61
_symmetry_cell_setting 'orthorhombic'
loop_
_space_group_symop_operation_xyz
x,y,z
1/2-x,-y,1/2+z
1/2+x,1/2-y,-z
-x,1/2+y,1/2-z
-x,-y,-z
1/2+x,y,1/2-z
1/2-x,1/2+y,z
x,1/2-y,1/2+z
loop_
_atom_site_type_symbol
_atom_site_label
_atom_site_fract_x
_atom_site_fract_y
_atom_site_fract_z
Si Si1 0.308720 0.387776 0.413171
Si Si2 0.809842 0.042728 0.876410
Si Si3 0.797090 0.243934 0.449009
Si Si4 0.000000 0.500000 0.000000
Si Si5 0.012334 0.705536 0.322656
Si Si6 0.540862 0.073301 0.380928
O O1 0.310805 0.401450 0.236747
O O2 0.314866 0.317436 0.452920
O O3 0.435023 0.428882 0.484785
O O4 0.156649 0.412256 0.485916
O O5 0.893022 0.055256 0.032397
O O6 0.649701 0.019902 0.911839
O O7 0.897461 0.985972 0.794447
O O8 0.631561 0.240800 0.384736
O O9 0.916792 0.237675 0.318599
O O10 0.855238 0.297041 0.555484
O O11 0.969431 0.635691 0.290803
#
# Coordination Sequence:
#
# PCOD9459676 Si02
#       6
#     8   8   8   4   8   8
#     4  10  22  40  65 101 134 182 233 289 358 432
#     4  10  20  40  65  98 140 182 231 292 352 435
#     4  11  26  46  73 103 143 188 248 302 379 433
#     4  10  22  36  62 100 128 180 228 276 354 416
#     4  11  25  48  70 104 141 189 242 308 361 446
#     4   9  22  41  64  98 139 181 229 294 356 420
#
# _framework density 24.761735000000002
#
# number of rings (size 3 to 8) (size 9 to 14) (size 15 to 20)
#    0.000    1.818    0.000    2.182    5.091    2.909 
#   13.091    0.000    0.000    0.000    0.000    0.000 
#    0.000    0.000    0.000    0.000    0.000    0.000 
#
# Total GULP energy -245521.041534 kJ/mol
# GULP energy per Si atom -5580.023671 kJ/mol
# Density = 2.470538 g / cm^3
# Si number density = 24.761735 Si / 1000 Ang^3
#
#
#
# Elastic Constant Matrix: (Units=GPa)
#
#
# Indices 1 2 3 4 5 6 
#
# 1 126.2658 26.9811 25.4308 0.0000 0.0000 0.0000
# 2 26.9811 44.8753 10.7899 0.0000 0.0000 0.0000
# 3 25.4308 10.7899 63.4674 0.0000 0.0000 0.0000
# 4 0.0000 0.0000 0.0000 39.2623 0.0000 0.0000
# 5 0.0000 0.0000 0.0000 0.0000 33.8864 0.0000
# 6 0.0000 0.0000 0.0000 0.0000 0.0000 19.9134
#
#
#
# Elastic Compliance Matrix: (Units=1/GPa)
#
#
# Indices 1 2 3 4 5 6 
#
# 1 0.009602 -0.005055 -0.002988 0.000000 0.000000 0.000000
# 2 -0.005055 0.025894 -0.002377 0.000000 0.000000 0.000000
# 3 -0.002988 -0.002377 0.017357 0.000000 0.000000 0.000000
# 4 0.000000 0.000000 0.000000 0.025470 0.000000 0.000000
# 5 0.000000 0.000000 0.000000 0.000000 0.029510 0.000000
# 6 0.000000 0.000000 0.000000 0.000000 0.000000 0.050218
#
#
# Mechanical properties :
#
#
# Convention : Reuss Voigt Hill
#
# Bulk Modulus (GPa) = 31.23562 40.11243 35.67403
# Shear Modulus (GPa) = 26.37663 30.03952 28.20807
#
# Velocity S-wave (km/s) = 3.26731 3.48680 3.37884
# Velocity P-wave (km/s) = 5.18417 5.69604 5.44612
#
# Compressibility (1/GPa) = 0.03201473
#
# Stress axis : x y z
#
# Youngs Moduli (GPa) = 104.14842 38.61828 57.61206
#
# Poissons Ratio (x) = 0.19520 0.17214
# Poissons Ratio (y) = 0.52642 0.13694
# Poissons Ratio (z) = 0.31120 0.09179
#
# Static dielectric constant tensor:
#      x y z
#    x 2.068430 0.000000 0.000000 
#    y 0.000000 1.942830 0.000000 
#    z 0.000000 0.000000 2.000860 
# 
# From -- ./inp_files/4846.got.cif
#   From: 2010.05.17/outbox.cif.g08.bks.cpg/sg61_3_cif.got.tgz:4846.got - 2010.06.03 15:17:17.
