data_PCOD9459643
_publ_section_title
;
Structure prediction by ZEFSAII (Michael W. Deem and Ramdas Pophale) SiO2 
 PCOD9459643
Probable space group: P B C A
;
_chemical_formula_sum "Si O2"
_cell_formula_units_Z 64
_cell_length_a 17.183484
_cell_length_b 13.739330
_cell_length_c 12.870257
_cell_angle_alpha 90.000000
_cell_angle_beta 90.000000
_cell_angle_gamma 90.000000
_cell_volume 3038.533277
_symmetry_space_group_name_H-M "P B C A"
_symmetry_group_IT_number 61
_symmetry_cell_setting 'orthorhombic'
loop_
_space_group_symop_operation_xyz
x,y,z
1/2-x,-y,1/2+z
1/2+x,1/2-y,-z
-x,1/2+y,1/2-z
-x,-y,-z
1/2+x,y,1/2-z
1/2-x,1/2+y,z
x,1/2-y,1/2+z
loop_
_atom_site_type_symbol
_atom_site_label
_atom_site_fract_x
_atom_site_fract_y
_atom_site_fract_z
Si Si1 0.452960 0.438129 0.278579
Si Si2 0.645072 0.587319 0.300246
Si Si3 0.218664 0.417623 0.322715
Si Si4 0.940593 0.214878 0.989588
Si Si5 0.482774 0.626032 0.192447
Si Si6 0.673398 0.810580 0.323221
Si Si7 0.070518 0.303674 0.311413
Si Si8 0.131025 0.927392 0.468555
O O1 0.441939 0.521334 0.192214
O O2 0.394128 0.349647 0.254303
O O3 0.536247 0.389210 0.262866
O O4 0.427954 0.481382 0.389488
O O5 0.685854 0.521827 0.213091
O O6 0.556084 0.608161 0.268571
O O7 0.682937 0.694774 0.311032
O O8 0.644612 0.538626 0.414148
O O9 0.253167 0.368687 0.217687
O O10 0.149617 0.345941 0.357247
O O11 0.286521 0.423551 0.408340
O O12 0.978037 0.160154 0.086298
O O13 0.911458 0.322429 0.019046
O O14 0.863428 0.169056 0.936166
O O15 0.007402 0.214946 0.901645
O O16 0.427316 0.707605 0.241229
#
# Coordination Sequence:
#
# PCOD9459643 Si02
#       8
#     8   8   8   8   8   8   8   8
#     4  10  20  39  66  91 126 174 215 268 328 394
#     4  11  22  42  68  93 125 185 221 267 342 407
#     4  11  24  42  65 100 138 163 227 295 318 399
#     4  10  21  43  72  90 129 188 216 264 339 402
#     4  12  21  39  70  97 130 171 226 275 320 399
#     4   9  21  43  65  91 136 174 219 264 346 395
#     4  11  22  42  63 103 127 165 228 282 324 389
#     4  10  21  45  65  90 139 185 219 266 358 405
#
# _framework density 21.062792999999999
#
# number of rings (size 3 to 8) (size 9 to 14) (size 15 to 20)
#    0.000    1.500    6.250    0.750    0.000    5.500 
#   11.250    0.000    0.000    0.000    0.000    0.000 
#    0.000    0.000    0.000    0.000    0.000    0.000 
#
# Total GULP energy -356856.282239 kJ/mol
# GULP energy per Si atom -5575.879410 kJ/mol
# Density = 2.101485 g / cm^3
# Si number density = 21.062793 Si / 1000 Ang^3
#
#
#
# Elastic Constant Matrix: (Units=GPa)
#
#
# Indices 1 2 3 4 5 6 
#
# 1 67.7035 8.4798 30.4036 0.0000 0.0000 0.0000
# 2 8.4798 70.2462 22.9770 0.0000 0.0000 0.0000
# 3 30.4036 22.9770 94.2458 0.0000 0.0000 0.0000
# 4 0.0000 0.0000 0.0000 28.5357 0.0000 0.0000
# 5 0.0000 0.0000 0.0000 0.0000 33.1740 0.0000
# 6 0.0000 0.0000 0.0000 0.0000 0.0000 20.3651
#
#
#
# Elastic Compliance Matrix: (Units=1/GPa)
#
#
# Indices 1 2 3 4 5 6 
#
# 1 0.017278 -0.000285 -0.005504 0.000000 0.000000 0.000000
# 2 -0.000285 0.015474 -0.003680 0.000000 0.000000 0.000000
# 3 -0.005504 -0.003680 0.013284 0.000000 0.000000 0.000000
# 4 0.000000 0.000000 0.000000 0.035044 0.000000 0.000000
# 5 0.000000 0.000000 0.000000 0.000000 0.030144 0.000000
# 6 0.000000 0.000000 0.000000 0.000000 0.000000 0.049104
#
#
# Mechanical properties :
#
#
# Convention : Reuss Voigt Hill
#
# Bulk Modulus (GPa) = 36.90691 39.54625 38.22658
# Shear Modulus (GPa) = 26.55357 27.77064 27.16210
#
# Velocity S-wave (km/s) = 3.55447 3.63501 3.59496
# Velocity P-wave (km/s) = 5.86566 6.03605 5.95147
#
# Compressibility (1/GPa) = 0.02709520
#
# Stress axis : x y z
#
# Youngs Moduli (GPa) = 57.87767 64.62479 75.28123
#
# Poissons Ratio (x) = 0.01844 0.41437
# Poissons Ratio (y) = 0.01651 0.27707
# Poissons Ratio (z) = 0.31857 0.23785
#
# Static dielectric constant tensor:
#      x y z
#    x 1.794570 0.000000 0.000000 
#    y 0.000000 1.812210 0.000000 
#    z 0.000000 0.000000 1.808240 
# 
# From -- ./inp_files/6309.got.cif
#   From: 2010.05.17/outbox.cif.g08.bks.cpg/sg61_4_cif.got.tgz:6309.got - 2010.06.03 15:17:17.
