data_PCOD9459489
_publ_section_title
;
Structure prediction by ZEFSAII (Michael W. Deem and Ramdas Pophale) SiO2 
 PCOD9459489
Probable space group: P B C A
;
_chemical_formula_sum "Si O2"
_cell_formula_units_Z 52
_cell_length_a 8.369727
_cell_length_b 18.160257
_cell_length_c 15.593434
_cell_angle_alpha 90.000000
_cell_angle_beta 90.000000
_cell_angle_gamma 90.000000
_cell_volume 2370.145728
_symmetry_space_group_name_H-M "P B C A"
_symmetry_group_IT_number 61
_symmetry_cell_setting 'orthorhombic'
loop_
_space_group_symop_operation_xyz
x,y,z
1/2-x,-y,1/2+z
1/2+x,1/2-y,-z
-x,1/2+y,1/2-z
-x,-y,-z
1/2+x,y,1/2-z
1/2-x,1/2+y,z
x,1/2-y,1/2+z
loop_
_atom_site_type_symbol
_atom_site_label
_atom_site_fract_x
_atom_site_fract_y
_atom_site_fract_z
Si Si1 0.551142 0.288828 0.887623
Si Si2 0.794105 0.605734 0.515320
Si Si3 0.049675 0.122865 0.594227
Si Si4 0.769354 0.125012 0.070863
Si Si5 0.946733 0.596909 0.231467
Si Si6 0.236423 0.984762 0.653540
Si Si7 0.000000 0.500000 0.500000
O O1 0.676581 0.323407 0.956017
O O2 0.570721 0.203817 0.867451
O O3 0.379430 0.302821 0.931436
O O4 0.546308 0.340161 0.803635
O O5 0.635010 0.605875 0.570249
O O6 0.800921 0.536856 0.442958
O O7 0.951957 0.576262 0.560873
O O8 0.138886 0.123827 0.502993
O O9 0.138844 0.059459 0.646727
O O10 0.677688 0.120663 0.159822
O O11 0.885428 0.055335 0.061625
O O12 0.878524 0.524617 0.279732
O O13 0.109916 0.577380 0.182981
#
# Coordination Sequence:
#
# PCOD9459489 Si02
#       7
#     8   8   8   8   8   8   4
#     4  10  24  40  60  93 135 168 210 259 336 388
#     4  10  20  38  64  94 124 163 210 264 319 376
#     4  12  22  40  66 100 121 162 225 276 302 380
#     4  11  21  39  69  89 127 168 213 266 325 374
#     4  11  22  42  63  87 128 181 201 253 336 397
#     4  11  22  39  64  92 123 162 218 259 316 385
#     4  10  20  36  64 102 118 156 214 272 308 376
#
# _framework density 21.939578999999998
#
# number of rings (size 3 to 8) (size 9 to 14) (size 15 to 20)
#    0.000    1.231    4.615    2.308    0.000    0.000 
#    2.769    0.000    0.000    0.000    0.000    0.000 
#    0.000    0.000    0.000    0.000    0.000    0.000 
#
# Total GULP energy -289709.252850 kJ/mol
# GULP energy per Si atom -5571.331786 kJ/mol
# Density = 2.188964 g / cm^3
# Si number density = 21.939579 Si / 1000 Ang^3
#
#
#
# Elastic Constant Matrix: (Units=GPa)
#
#
# Indices 1 2 3 4 5 6 
#
# 1 84.9950 19.2319 21.5010 0.0000 0.0000 0.0000
# 2 19.2319 113.9610 24.1783 0.0000 0.0000 0.0000
# 3 21.5010 24.1783 55.5956 0.0000 0.0000 0.0000
# 4 0.0000 0.0000 0.0000 23.3046 0.0000 0.0000
# 5 0.0000 0.0000 0.0000 0.0000 26.6936 0.0000
# 6 0.0000 0.0000 0.0000 0.0000 0.0000 24.0691
#
#
#
# Elastic Compliance Matrix: (Units=1/GPa)
#
#
# Indices 1 2 3 4 5 6 
#
# 1 0.013204 -0.001261 -0.004558 0.000000 0.000000 0.000000
# 2 -0.001261 0.009787 -0.003769 0.000000 0.000000 0.000000
# 3 -0.004558 -0.003769 0.021389 0.000000 0.000000 0.000000
# 4 0.000000 0.000000 0.000000 0.042910 0.000000 0.000000
# 5 0.000000 0.000000 0.000000 0.000000 0.037462 0.000000
# 6 0.000000 0.000000 0.000000 0.000000 0.000000 0.041547
#
#
# Mechanical properties :
#
#
# Convention : Reuss Voigt Hill
#
# Bulk Modulus (GPa) = 39.67596 42.70822 41.19209
# Shear Modulus (GPa) = 25.78963 27.45614 26.62289
#
# Velocity S-wave (km/s) = 3.43225 3.54141 3.48726
# Velocity P-wave (km/s) = 5.81641 6.01919 5.91867
#
# Compressibility (1/GPa) = 0.02520418
#
# Stress axis : x y z
#
# Youngs Moduli (GPa) = 75.73591 102.17261 46.75350
#
# Poissons Ratio (x) = 0.12886 0.21310
# Poissons Ratio (y) = 0.09552 0.17620
# Poissons Ratio (z) = 0.34520 0.38506
#
# Static dielectric constant tensor:
#      x y z
#    x 2.438370 0.000000 0.000000 
#    y 0.000000 1.980530 0.000000 
#    z 0.000000 0.000000 1.985230 
# 
# From -- ./inp_files/3556.got.cif
#   From: 2010.05.17/outbox.cif.g08.bks.cpg/sg61_2_cif.got.tgz:3556.got - 2010.06.03 15:17:17.
