data_PCOD9459755
_publ_section_title
;
Structure prediction by ZEFSAII (Michael W. Deem and Ramdas Pophale) SiO2 
 PCOD9459755
Probable space group: P B C A
;
_chemical_formula_sum "Si O2"
_cell_formula_units_Z 44
_cell_length_a 12.855094
_cell_length_b 11.342627
_cell_length_c 11.690048
_cell_angle_alpha 90.000000
_cell_angle_beta 90.000000
_cell_angle_gamma 90.000000
_cell_volume 1704.532168
_symmetry_space_group_name_H-M "P B C A"
_symmetry_group_IT_number 61
_symmetry_cell_setting 'orthorhombic'
loop_
_space_group_symop_operation_xyz
x,y,z
1/2-x,-y,1/2+z
1/2+x,1/2-y,-z
-x,1/2+y,1/2-z
-x,-y,-z
1/2+x,y,1/2-z
1/2-x,1/2+y,z
x,1/2-y,1/2+z
loop_
_atom_site_type_symbol
_atom_site_label
_atom_site_fract_x
_atom_site_fract_y
_atom_site_fract_z
Si Si1 0.864029 0.614351 0.560727
Si Si2 0.229382 0.242962 0.747158
Si Si3 0.554229 0.560185 0.249571
Si Si4 0.500000 0.000000 0.000000
Si Si5 0.315867 0.992259 0.673545
Si Si6 0.489579 0.744575 0.609677
O O1 0.796981 0.718327 0.619013
O O2 0.892627 0.532495 0.665936
O O3 0.813183 0.535371 0.461849
O O4 0.963987 0.672409 0.499355
O O5 0.251345 0.382801 0.726677
O O6 0.121681 0.230580 0.672399
O O7 0.290154 0.127190 0.702334
O O8 0.562897 0.543566 0.383634
O O9 0.430504 0.533701 0.223203
O O10 0.564213 0.691818 0.198691
O O11 0.470967 0.122197 0.935053
#
# Coordination Sequence:
#
# PCOD9459755 Si02
#       6
#     8   8   8   4   8   8
#     4  10  20  43  67  85 132 169 208 274 332 377
#     4  10  21  42  60  94 126 168 213 264 323 395
#     4  10  22  42  64  97 124 173 218 267 331 387
#     4  12  22  36  68  94 124 168 216 270 320 392
#     4  10  23  41  67  91 129 174 214 265 333 393
#     4  10  21  40  65  89 133 166 209 270 334 377
#
# _framework density 25.813533
#
# number of rings (size 3 to 8) (size 9 to 14) (size 15 to 20)
#    0.000    2.182    1.818    4.364    0.000    4.364 
#    9.818    0.000    0.000    0.000    0.000    0.000 
#    0.000    0.000    0.000    0.000    0.000    0.000 
#
# Total GULP energy -245033.818187 kJ/mol
# GULP energy per Si atom -5568.950413 kJ/mol
# Density = 2.575478 g / cm^3
# Si number density = 25.813533 Si / 1000 Ang^3
#
#
#
# Elastic Constant Matrix: (Units=GPa)
#
#
# Indices 1 2 3 4 5 6 
#
# 1 16.8649 18.8769 6.9047 0.0000 0.0000 0.0000
# 2 18.8769 194.9456 68.9791 0.0000 0.0000 0.0000
# 3 6.9047 68.9791 136.1855 0.0000 0.0000 0.0000
# 4 0.0000 0.0000 0.0000 57.5531 0.0000 0.0000
# 5 0.0000 0.0000 0.0000 0.0000 23.0229 0.0000
# 6 0.0000 0.0000 0.0000 0.0000 0.0000 28.3499
#
#
#
# Elastic Compliance Matrix: (Units=1/GPa)
#
#
# Indices 1 2 3 4 5 6 
#
# 1 0.066505 -0.006392 -0.000134 0.000000 0.000000 0.000000
# 2 -0.006392 0.006864 -0.003153 0.000000 0.000000 0.000000
# 3 -0.000134 -0.003153 0.008947 0.000000 0.000000 0.000000
# 4 0.000000 0.000000 0.000000 0.017375 0.000000 0.000000
# 5 0.000000 0.000000 0.000000 0.000000 0.043435 0.000000
# 6 0.000000 0.000000 0.000000 0.000000 0.000000 0.035274
#
#
# Mechanical properties :
#
#
# Convention : Reuss Voigt Hill
#
# Bulk Modulus (GPa) = 15.88377 59.72414 37.80396
# Shear Modulus (GPa) = 22.85787 38.66753 30.76270
#
# Velocity S-wave (km/s) = 2.97896 3.87454 3.45589
# Velocity P-wave (km/s) = 4.24251 6.57291 5.53182
#
# Compressibility (1/GPa) = 0.06295733
#
# Stress axis : x y z
#
# Youngs Moduli (GPa) = 15.03653 145.68470 111.77470
#
# Poissons Ratio (x) = 0.93126 0.01499
# Poissons Ratio (y) = 0.09612 0.35239
# Poissons Ratio (z) = 0.00202 0.45929
#
# Static dielectric constant tensor:
#      x y z
#    x 2.206490 0.000000 0.000000 
#    y 0.000000 2.091110 0.000000 
#    z 0.000000 0.000000 1.842190 
# 
# From -- ./inp_files/5192.got.cif
#   From: 2010.05.17/outbox.cif.g08.bks.cpg/sg61_3_cif.got.tgz:5192.got - 2010.06.03 15:17:17.
