data_PCOD9459917
_publ_section_title
;
Structure prediction by ZEFSAII (Michael W. Deem and Ramdas Pophale) SiO2 
 PCOD9459917
Probable space group: P B C A
;
_chemical_formula_sum "Si O2"
_cell_formula_units_Z 48
_cell_length_a 26.993939
_cell_length_b 7.840088
_cell_length_c 8.163986
_cell_angle_alpha 90.000000
_cell_angle_beta 90.000000
_cell_angle_gamma 90.000000
_cell_volume 1727.784012
_symmetry_space_group_name_H-M "P B C A"
_symmetry_group_IT_number 61
_symmetry_cell_setting 'orthorhombic'
loop_
_space_group_symop_operation_xyz
x,y,z
1/2-x,-y,1/2+z
1/2+x,1/2-y,-z
-x,1/2+y,1/2-z
-x,-y,-z
1/2+x,y,1/2-z
1/2-x,1/2+y,z
x,1/2-y,1/2+z
loop_
_atom_site_type_symbol
_atom_site_label
_atom_site_fract_x
_atom_site_fract_y
_atom_site_fract_z
Si Si1 0.971635 0.689534 0.175871
Si Si2 0.138441 0.704019 0.943861
Si Si3 0.898776 0.993978 0.869793
Si Si4 0.742253 0.913138 0.106921
Si Si5 0.195241 0.307341 0.693758
Si Si6 0.432253 0.495084 0.648111
O O1 0.952751 0.572694 0.327464
O O2 0.946652 0.872044 0.208827
O O3 0.030550 0.667475 0.166282
O O4 0.950688 0.599390 0.013501
O O5 0.113696 0.887702 0.976260
O O6 0.197262 0.720412 0.923925
O O7 0.120694 0.580377 0.093219
O O8 0.118712 0.612199 0.782069
O O9 0.862001 0.829758 0.851416
O O10 0.777023 0.901636 0.952194
O O11 0.778681 0.867618 0.258001
O O12 0.710409 0.080855 0.146550
#
# Coordination Sequence:
#
# PCOD9459917 Si02
#       6
#     8   8   8   8   8   8
#     4  10  22  39  59  90 121 154 198 245 297 355
#     4  10  21  39  59  84 116 155 198 244 297 354
#     4  10  22  38  59  86 116 154 199 245 296 355
#     4  11  22  39  58  85 118 155 199 247 300 356
#     4  11  23  38  60  86 118 157 199 247 300 358
#     4  10  22  39  61  87 121 155 197 247 298 357
#
# _framework density 27.781248999999999
#
# number of rings (size 3 to 8) (size 9 to 14) (size 15 to 20)
#    0.000    1.667    0.000    5.000    0.000    7.333 
#    0.000    0.000    0.000    0.000    0.000    0.000 
#    0.000    0.000    0.000    0.000    0.000    0.000 
#
# Total GULP energy -268673.600942 kJ/mol
# GULP energy per Si atom -5597.366686 kJ/mol
# Density = 2.771802 g / cm^3
# Si number density = 27.781249 Si / 1000 Ang^3
#
#
#
# Elastic Constant Matrix: (Units=GPa)
#
#
# Indices 1 2 3 4 5 6 
#
# 1 111.6772 9.2223 -13.2533 0.0000 0.0000 0.0000
# 2 9.2223 97.6113 -2.2631 0.0000 0.0000 0.0000
# 3 -13.2533 -2.2631 43.2954 0.0000 0.0000 0.0000
# 4 0.0000 0.0000 0.0000 52.8153 0.0000 0.0000
# 5 0.0000 0.0000 0.0000 0.0000 18.5194 0.0000
# 6 0.0000 0.0000 0.0000 0.0000 0.0000 50.1985
#
#
#
# Elastic Compliance Matrix: (Units=1/GPa)
#
#
# Indices 1 2 3 4 5 6 
#
# 1 0.009357 -0.000819 0.002821 0.000000 0.000000 0.000000
# 2 -0.000819 0.010329 0.000289 0.000000 0.000000 0.000000
# 3 0.002821 0.000289 0.023976 0.000000 0.000000 0.000000
# 4 0.000000 0.000000 0.000000 0.018934 0.000000 0.000000
# 5 0.000000 0.000000 0.000000 0.000000 0.053997 0.000000
# 6 0.000000 0.000000 0.000000 0.000000 0.000000 0.019921
#
#
# Mechanical properties :
#
#
# Convention : Reuss Voigt Hill
#
# Bulk Modulus (GPa) = 20.72716 26.66617 23.69666
# Shear Modulus (GPa) = 33.78118 41.56518 37.67318
#
# Velocity S-wave (km/s) = 3.49086 3.87222 3.68647
# Velocity P-wave (km/s) = 4.87085 5.44165 5.16414
#
# Compressibility (1/GPa) = 0.04824588
#
# Stress axis : x y z
#
# Youngs Moduli (GPa) = 106.87394 96.81696 41.70842
#
# Poissons Ratio (x) = 0.07926 -0.11768
# Poissons Ratio (y) = 0.08749 -0.01207
# Poissons Ratio (z) = -0.30154 -0.02801
#
# Static dielectric constant tensor:
#      x y z
#    x 2.075970 0.000000 0.000000 
#    y 0.000000 2.271700 0.000000 
#    z 0.000000 0.000000 2.208270 
# 
# From -- ./inp_files/4568.got.cif
#   From: 2010.05.17/outbox.cif.g08.bks.cpg/sg61_3_cif.got.tgz:4568.got - 2010.06.03 15:17:17.
