data_PCOD9459202
_publ_section_title
;
Structure prediction by ZEFSAII (Michael W. Deem and Ramdas Pophale) SiO2 
 PCOD9459202
Probable space group: P B C A
;
_chemical_formula_sum "Si O2"
_cell_formula_units_Z 64
_cell_length_a 5.275047
_cell_length_b 14.013968
_cell_length_c 35.060954
_cell_angle_alpha 90.000000
_cell_angle_beta 90.000000
_cell_angle_gamma 90.000000
_cell_volume 2591.857879
_symmetry_space_group_name_H-M "P B C A"
_symmetry_group_IT_number 61
_symmetry_cell_setting 'orthorhombic'
loop_
_space_group_symop_operation_xyz
x,y,z
1/2-x,-y,1/2+z
1/2+x,1/2-y,-z
-x,1/2+y,1/2-z
-x,-y,-z
1/2+x,y,1/2-z
1/2-x,1/2+y,z
x,1/2-y,1/2+z
loop_
_atom_site_type_symbol
_atom_site_label
_atom_site_fract_x
_atom_site_fract_y
_atom_site_fract_z
Si Si1 0.643150 0.973240 0.761370
Si Si2 0.909101 0.235966 0.021044
Si Si3 0.751364 0.475846 0.523697
Si Si4 0.886393 0.022843 0.348997
Si Si5 0.615106 0.981069 0.608216
Si Si6 0.398835 0.254171 0.148456
Si Si7 0.100415 0.752010 0.394193
Si Si8 0.598588 0.183878 0.730385
O O1 0.384913 0.918110 0.753798
O O2 0.617760 0.068775 0.735957
O O3 0.661964 0.001691 0.805224
O O4 0.758120 0.137959 0.027804
O O5 0.956783 0.281204 0.062367
O O6 0.686383 0.287394 0.996752
O O7 0.500000 0.500000 0.500000
O O8 0.796148 0.513938 0.566412
O O9 0.000000 0.500000 0.500000
O O10 0.659717 0.989072 0.376459
O O11 0.890295 0.138678 0.349918
O O12 0.161948 0.991532 0.362902
O O13 0.598673 0.864576 0.607102
O O14 0.619251 0.281274 0.118597
O O15 0.489862 0.290584 0.189305
O O16 0.121252 0.284810 0.134306
O O17 0.884085 0.215996 0.739312
#
# Coordination Sequence:
#
# PCOD9459202 Si02
#       8
#     8   8   8   8   8   8   8   8
#     4  10  21  36  55  75 110 149 191 232 305 362
#     4  11  22  39  66  92 131 169 211 261 317 386
#     4  11  22  39  66  92 131 169 211 261 317 386
#     4  10  19  34  58  84 111 143 201 254 293 355
#     4   9  19  35  58  88 114 154 195 245 310 356
#     4  10  19  34  58  84 111 143 201 254 292 354
#     4   9  19  35  58  88 114 154 195 245 310 355
#     4  10  21  36  55  75 110 149 191 230 305 361
#
# _framework density 24.692710999999999
#
# number of rings (size 3 to 8) (size 9 to 14) (size 15 to 20)
#    0.000    2.000    0.000    3.750    0.000    5.000 
#    0.000    0.000   55.000    0.000    0.000    0.000 
#    0.000    0.000    0.000    0.000    0.000    0.000 
#
# Total GULP energy -358104.462013 kJ/mol
# GULP energy per Si atom -5595.382219 kJ/mol
# Density = 2.463651 g / cm^3
# Si number density = 24.692711 Si / 1000 Ang^3
#
#
#
# Elastic Constant Matrix: (Units=GPa)
#
#
# Indices 1 2 3 4 5 6 
#
# 1 182.0936 10.7227 47.9190 0.0000 0.0000 0.0000
# 2 10.7227 67.3075 -10.0490 0.0000 0.0000 0.0000
# 3 47.9190 -10.0490 136.8236 0.0000 0.0000 0.0000
# 4 0.0000 0.0000 0.0000 22.1832 0.0000 0.0000
# 5 0.0000 0.0000 0.0000 0.0000 44.6288 0.0000
# 6 0.0000 0.0000 0.0000 0.0000 0.0000 34.3107
#
#
#
# Elastic Compliance Matrix: (Units=1/GPa)
#
#
# Indices 1 2 3 4 5 6 
#
# 1 0.006163 -0.001318 -0.002255 0.000000 0.000000 0.000000
# 2 -0.001318 0.015304 0.001586 0.000000 0.000000 0.000000
# 3 -0.002255 0.001586 0.008215 0.000000 0.000000 0.000000
# 4 0.000000 0.000000 0.000000 0.045079 0.000000 0.000000
# 5 0.000000 0.000000 0.000000 0.000000 0.022407 0.000000
# 6 0.000000 0.000000 0.000000 0.000000 0.000000 0.029145
#
#
# Mechanical properties :
#
#
# Convention : Reuss Voigt Hill
#
# Bulk Modulus (GPa) = 38.90156 53.71224 46.30690
# Shear Modulus (GPa) = 36.00803 42.73333 39.37068
#
# Velocity S-wave (km/s) = 3.82284 4.16457 3.99736
# Velocity P-wave (km/s) = 5.93919 6.70256 6.33239
#
# Compressibility (1/GPa) = 0.02570591
#
# Stress axis : x y z
#
# Youngs Moduli (GPa) = 162.26421 65.34241 121.72899
#
# Poissons Ratio (x) = 0.08615 0.27452
# Poissons Ratio (y) = 0.21394 -0.19303
# Poissons Ratio (z) = 0.36594 -0.10362
#
# Static dielectric constant tensor:
#      x y z
#    x 1.985180 0.000000 0.000000 
#    y 0.000000 2.098520 0.000000 
#    z 0.000000 0.000000 1.932530 
# 
# From -- ./inp_files/11641.got.cif
#   From: 2010.05.17/outbox.cif.g08.bks.cpg/sg61_6_cif.got.tgz:11641.got - 2010.06.03 15:17:17.
