data_PCOD9459264
_publ_section_title
;
Structure prediction by ZEFSAII (Michael W. Deem and Ramdas Pophale) SiO2 
 PCOD9459264
Probable space group: P B C A
;
_chemical_formula_sum "Si O2"
_cell_formula_units_Z 44
_cell_length_a 9.606273
_cell_length_b 11.294226
_cell_length_c 14.497475
_cell_angle_alpha 90.000000
_cell_angle_beta 90.000000
_cell_angle_gamma 90.000000
_cell_volume 1572.909614
_symmetry_space_group_name_H-M "P B C A"
_symmetry_group_IT_number 61
_symmetry_cell_setting 'orthorhombic'
loop_
_space_group_symop_operation_xyz
x,y,z
1/2-x,-y,1/2+z
1/2+x,1/2-y,-z
-x,1/2+y,1/2-z
-x,-y,-z
1/2+x,y,1/2-z
1/2-x,1/2+y,z
x,1/2-y,1/2+z
loop_
_atom_site_type_symbol
_atom_site_label
_atom_site_fract_x
_atom_site_fract_y
_atom_site_fract_z
Si Si1 0.944327 0.763873 0.693226
Si Si2 0.184214 0.565541 0.671352
Si Si3 0.753140 0.439235 0.129953
Si Si4 0.373434 0.758398 0.604783
Si Si5 0.579998 0.836553 0.976320
Si Si6 0.000000 0.000000 0.000000
O O1 0.809610 0.691589 0.657115
O O2 0.922710 0.804478 0.796914
O O3 0.072145 0.669335 0.695311
O O4 0.990346 0.856672 0.615425
O O5 0.218166 0.506582 0.769535
O O6 0.326811 0.623297 0.631886
O O7 0.112016 0.500306 0.587155
O O8 0.631233 0.501207 0.074275
O O9 0.882036 0.420912 0.060690
O O10 0.229552 0.799283 0.560728
O O11 0.491822 0.769415 0.526225
#
# Coordination Sequence:
#
# PCOD9459264 Si02
#       6
#     8   8   8   8   8   4
#     4   9  18  34  57  90 120 152 192 243 304 379
#     4   9  19  37  64  83 116 160 207 253 298 364
#     4  10  19  36  61  87 116 162 205 249 307 363
#     4  10  20  33  59  92 123 157 193 240 313 380
#     4  11  19  33  60  91 124 155 193 247 309 380
#     4  10  22  40  64  84 116 166 222 258 294 358
#
# _framework density 27.973634000000001
#
# number of rings (size 3 to 8) (size 9 to 14) (size 15 to 20)
#    0.000    2.182    3.636    0.000    0.000    0.000 
#    0.000    2.727    4.000    0.000    0.000    0.000 
#    0.000    0.000    0.000    0.000    0.000    0.000 
#
# Total GULP energy -245497.826059 kJ/mol
# GULP energy per Si atom -5579.496047 kJ/mol
# Density = 2.790997 g / cm^3
# Si number density = 27.973634 Si / 1000 Ang^3
#
#
#
# Elastic Constant Matrix: (Units=GPa)
#
#
# Indices 1 2 3 4 5 6 
#
# 1 141.7922 46.9365 112.2173 0.0000 0.0000 0.0000
# 2 46.9365 42.1635 57.0417 0.0000 0.0000 0.0000
# 3 112.2173 57.0417 318.6379 0.0000 0.0000 0.0000
# 4 0.0000 0.0000 0.0000 32.0247 0.0000 0.0000
# 5 0.0000 0.0000 0.0000 0.0000 77.0900 0.0000
# 6 0.0000 0.0000 0.0000 0.0000 0.0000 20.6224
#
#
#
# Elastic Compliance Matrix: (Units=1/GPa)
#
#
# Indices 1 2 3 4 5 6 
#
# 1 0.012545 -0.010541 -0.002531 0.000000 0.000000 0.000000
# 2 -0.010541 0.040154 -0.003476 0.000000 0.000000 0.000000
# 3 -0.002531 -0.003476 0.004652 0.000000 0.000000 0.000000
# 4 0.000000 0.000000 0.000000 0.031226 0.000000 0.000000
# 5 0.000000 0.000000 0.000000 0.000000 0.012972 0.000000
# 6 0.000000 0.000000 0.000000 0.000000 0.000000 0.048491
#
#
# Mechanical properties :
#
#
# Convention : Reuss Voigt Hill
#
# Bulk Modulus (GPa) = 41.22859 103.88716 72.55787
# Shear Modulus (GPa) = 26.14783 45.04063 35.59423
#
# Velocity S-wave (km/s) = 3.06065 4.01697 3.57097
# Velocity P-wave (km/s) = 5.22116 7.66374 6.55719
#
# Compressibility (1/GPa) = 0.02425502
#
# Stress axis : x y z
#
# Youngs Moduli (GPa) = 79.71302 24.90417 214.96120
#
# Poissons Ratio (x) = 0.26251 0.54408
# Poissons Ratio (y) = 0.84025 0.74720
# Poissons Ratio (z) = 0.20176 0.08657
#
# Static dielectric constant tensor:
#      x y z
#    x 2.055910 0.000000 0.000000 
#    y 0.000000 2.155960 0.000000 
#    z 0.000000 0.000000 2.030720 
# 
# From -- ./inp_files/5202.got.cif
#   From: 2010.05.17/outbox.cif.g08.bks.cpg/sg61_3_cif.got.tgz:5202.got - 2010.06.03 15:17:17.
