data_PCOD9459395
_publ_section_title
;
Structure prediction by ZEFSAII (Michael W. Deem and Ramdas Pophale) SiO2 
 PCOD9459395
Probable space group: P B C A
;
_chemical_formula_sum "Si O2"
_cell_formula_units_Z 64
_cell_length_a 23.211195
_cell_length_b 5.162036
_cell_length_c 27.684085
_cell_angle_alpha 90.000000
_cell_angle_beta 90.000000
_cell_angle_gamma 90.000000
_cell_volume 3317.024682
_symmetry_space_group_name_H-M "P B C A"
_symmetry_group_IT_number 61
_symmetry_cell_setting 'orthorhombic'
loop_
_space_group_symop_operation_xyz
x,y,z
1/2-x,-y,1/2+z
1/2+x,1/2-y,-z
-x,1/2+y,1/2-z
-x,-y,-z
1/2+x,y,1/2-z
1/2-x,1/2+y,z
x,1/2-y,1/2+z
loop_
_atom_site_type_symbol
_atom_site_label
_atom_site_fract_x
_atom_site_fract_y
_atom_site_fract_z
Si Si1 0.731244 0.472122 0.179696
Si Si2 0.566667 0.574256 0.603356
Si Si3 0.280622 0.990091 0.712130
Si Si4 0.397476 0.911837 0.341208
Si Si5 0.930593 0.083177 0.397252
Si Si6 0.898829 0.597711 0.340258
Si Si7 0.958440 0.245487 0.500290
Si Si8 0.001852 0.498912 0.275190
O O1 0.740668 0.736485 0.152168
O O2 0.768085 0.500117 0.229782
O O3 0.663794 0.427498 0.184985
O O4 0.600621 0.313707 0.618337
O O5 0.498912 0.490709 0.607067
O O6 0.575155 0.701122 0.550296
O O7 0.584463 0.807836 0.638398
O O8 0.236017 0.773684 0.693973
O O9 0.343076 0.909702 0.693918
O O10 0.447544 0.851810 0.303415
O O11 0.911194 0.316315 0.362871
O O12 0.923114 0.202531 0.451050
O O13 0.897786 0.821869 0.381022
O O14 0.955010 0.644471 0.307886
O O15 0.000000 0.500000 0.500000
O O16 0.000000 0.000000 0.500000
O O17 0.029090 0.748694 0.248511
#
# Coordination Sequence:
#
# PCOD9459395 Si02
#       8
#     8   8   8   8   8   8   8   8
#     4  10  23  40  58  79 108 155 213 264 297 341
#     4  11  20  38  58  94 127 158 193 240 307 385
#     4  10  23  40  58  79 108 155 213 264 297 341
#     4  12  23  39  60  85 122 162 205 254 304 368
#     4  11  20  38  58  94 127 158 193 240 307 385
#     4  12  23  39  60  85 122 162 205 254 304 368
#     4  10  20  34  60  92 132 166 190 232 298 387
#     4  12  26  36  56  83 122 165 202 242 320 370
#
# _framework density 19.2944
#
# number of rings (size 3 to 8) (size 9 to 14) (size 15 to 20)
#    0.000    1.000    2.500    6.000    7.000    0.000 
#    0.000    0.000    0.000    0.000    0.000   17.500 
#    0.000    0.000    0.000    0.000    0.000    0.000 
#
# Total GULP energy -356501.277402 kJ/mol
# GULP energy per Si atom -5570.332459 kJ/mol
# Density = 1.925049 g / cm^3
# Si number density = 19.294400 Si / 1000 Ang^3
#
#
#
# Elastic Constant Matrix: (Units=GPa)
#
#
# Indices 1 2 3 4 5 6 
#
# 1 70.3867 8.2845 26.1605 0.0000 0.0000 0.0000
# 2 8.2845 141.7056 22.5840 0.0000 0.0000 0.0000
# 3 26.1605 22.5840 68.8869 0.0000 0.0000 0.0000
# 4 0.0000 0.0000 0.0000 22.8843 0.0000 0.0000
# 5 0.0000 0.0000 0.0000 0.0000 16.9531 0.0000
# 6 0.0000 0.0000 0.0000 0.0000 0.0000 25.7381
#
#
#
# Elastic Compliance Matrix: (Units=1/GPa)
#
#
# Indices 1 2 3 4 5 6 
#
# 1 0.016542 0.000036 -0.006294 0.000000 0.000000 0.000000
# 2 0.000036 0.007446 -0.002455 0.000000 0.000000 0.000000
# 3 -0.006294 -0.002455 0.017711 0.000000 0.000000 0.000000
# 4 0.000000 0.000000 0.000000 0.043698 0.000000 0.000000
# 5 0.000000 0.000000 0.000000 0.000000 0.058986 0.000000
# 6 0.000000 0.000000 0.000000 0.000000 0.000000 0.038853
#
#
# Mechanical properties :
#
#
# Convention : Reuss Voigt Hill
#
# Bulk Modulus (GPa) = 41.19571 43.89303 42.54437
# Shear Modulus (GPa) = 23.95164 28.04509 25.99837
#
# Velocity S-wave (km/s) = 3.52714 3.81666 3.67475
# Velocity P-wave (km/s) = 6.16321 6.49777 6.33270
#
# Compressibility (1/GPa) = 0.02427437
#
# Stress axis : x y z
#
# Youngs Moduli (GPa) = 60.45135 134.30018 56.46057
#
# Poissons Ratio (x) = -0.00483 0.35536
# Poissons Ratio (y) = -0.00217 0.13860
# Poissons Ratio (z) = 0.38047 0.32968
#
# Static dielectric constant tensor:
#      x y z
#    x 1.670880 0.000000 0.000000 
#    y 0.000000 1.777210 0.000000 
#    z 0.000000 0.000000 1.805900 
# 
# From -- ./inp_files/11545.got.cif
#   From: 2010.05.17/outbox.cif.g08.bks.cpg/sg61_6_cif.got.tgz:11545.got - 2010.06.03 15:17:17.
