data_PCOD9459203
_publ_section_title
;
Structure prediction by ZEFSAII (Michael W. Deem and Ramdas Pophale) SiO2 
 PCOD9459203
Probable space group: P B C A
;
_chemical_formula_sum "Si O2"
_cell_formula_units_Z 56
_cell_length_a 7.785968
_cell_length_b 15.712408
_cell_length_c 21.726830
_cell_angle_alpha 90.000000
_cell_angle_beta 90.000000
_cell_angle_gamma 90.000000
_cell_volume 2657.980121
_symmetry_space_group_name_H-M "P B C A"
_symmetry_group_IT_number 61
_symmetry_cell_setting 'orthorhombic'
loop_
_space_group_symop_operation_xyz
x,y,z
1/2-x,-y,1/2+z
1/2+x,1/2-y,-z
-x,1/2+y,1/2-z
-x,-y,-z
1/2+x,y,1/2-z
1/2-x,1/2+y,z
x,1/2-y,1/2+z
loop_
_atom_site_type_symbol
_atom_site_label
_atom_site_fract_x
_atom_site_fract_y
_atom_site_fract_z
Si Si1 0.914521 0.784687 0.255133
Si Si2 0.338246 0.391455 0.322045
Si Si3 0.059511 0.776947 0.629997
Si Si4 0.738734 0.311993 0.058300
Si Si5 0.936662 0.605342 0.312358
Si Si6 0.582380 0.295033 0.931382
Si Si7 0.907975 0.454247 0.804969
O O1 0.793451 0.861368 0.231253
O O2 0.031294 0.771381 0.194503
O O3 0.859541 0.688934 0.275249
O O4 0.022928 0.815760 0.313155
O O5 0.256741 0.383886 0.389278
O O6 0.448767 0.475343 0.314390
O O7 0.897963 0.753626 0.587926
O O8 0.054136 0.875433 0.649573
O O9 0.241590 0.756064 0.598268
O O10 0.925968 0.267912 0.051740
O O11 0.656958 0.337775 0.993419
O O12 0.983794 0.639203 0.379386
O O13 0.792861 0.532287 0.317840
O O14 0.081146 0.572307 0.266870
#
# Coordination Sequence:
#
# PCOD9459203 Si02
#       7
#     8   8   8   8   8   8   8
#     4  10  19  34  58  84 114 146 202 246 297 346
#     4  11  21  35  56  91 116 152 188 254 301 343
#     4   9  21  37  57  85 114 153 196 245 292 367
#     4  11  22  36  63  83 117 156 202 251 282 339
#     4  10  20  36  58  84 114 159 192 240 296 369
#     4  11  20  37  60  86 113 155 210 238 283 343
#     4  10  21  35  56  85 123 146 188 241 316 351
#
# _framework density 21.068631
#
# number of rings (size 3 to 8) (size 9 to 14) (size 15 to 20)
#    0.000    1.714    2.857    3.429    4.000    0.000 
#    0.000    2.857    0.000    0.857    0.000    0.000 
#    0.000    0.000    0.000    0.000    0.000    0.000 
#
# Total GULP energy -311979.540173 kJ/mol
# GULP energy per Si atom -5571.063217 kJ/mol
# Density = 2.102068 g / cm^3
# Si number density = 21.068631 Si / 1000 Ang^3
#
#
#
# Elastic Constant Matrix: (Units=GPa)
#
#
# Indices 1 2 3 4 5 6 
#
# 1 57.1813 -0.3763 3.5313 0.0000 0.0000 0.0000
# 2 -0.3763 9.6639 -4.5048 0.0000 0.0000 0.0000
# 3 3.5313 -4.5048 121.4001 0.0000 0.0000 0.0000
# 4 0.0000 0.0000 0.0000 13.0116 0.0000 0.0000
# 5 0.0000 0.0000 0.0000 0.0000 39.0532 0.0000
# 6 0.0000 0.0000 0.0000 0.0000 0.0000 14.7409
#
#
#
# Elastic Compliance Matrix: (Units=1/GPa)
#
#
# Indices 1 2 3 4 5 6 
#
# 1 0.017522 0.000452 -0.000493 0.000000 0.000000 0.000000
# 2 0.000452 0.105311 0.003895 0.000000 0.000000 0.000000
# 3 -0.000493 0.003895 0.008396 0.000000 0.000000 0.000000
# 4 0.000000 0.000000 0.000000 0.076855 0.000000 0.000000
# 5 0.000000 0.000000 0.000000 0.000000 0.025606 0.000000
# 6 0.000000 0.000000 0.000000 0.000000 0.000000 0.067839
#
#
# Mechanical properties :
#
#
# Convention : Reuss Voigt Hill
#
# Bulk Modulus (GPa) = 7.19748 20.61618 13.90683
# Shear Modulus (GPa) = 14.70016 26.00081 20.35048
#
# Velocity S-wave (km/s) = 2.64432 3.51679 3.11129
# Velocity P-wave (km/s) = 3.57027 5.12805 4.41836
#
# Compressibility (1/GPa) = 0.13893754
#
# Stress axis : x y z
#
# Youngs Moduli (GPa) = 57.07224 9.49565 119.10315
#
# Poissons Ratio (x) = -0.00430 0.05870
# Poissons Ratio (y) = -0.02582 -0.46386
# Poissons Ratio (z) = 0.02813 -0.03698
#
# Static dielectric constant tensor:
#      x y z
#    x 1.840250 0.000000 0.000000 
#    y 0.000000 1.776720 0.000000 
#    z 0.000000 0.000000 1.783000 
# 
# From -- ./inp_files/3646.got.cif
#   From: 2010.05.17/outbox.cif.g08.bks.cpg/sg61_2_cif.got.tgz:3646.got - 2010.06.03 15:17:17.
