data_PCOD9459447
_publ_section_title
;
Structure prediction by ZEFSAII (Michael W. Deem and Ramdas Pophale) SiO2 
 PCOD9459447
Probable space group: P B C A
;
_chemical_formula_sum "Si O2"
_cell_formula_units_Z 48
_cell_length_a 9.586350
_cell_length_b 8.588803
_cell_length_c 27.924990
_cell_angle_alpha 90.000000
_cell_angle_beta 90.000000
_cell_angle_gamma 90.000000
_cell_volume 2299.211637
_symmetry_space_group_name_H-M "P B C A"
_symmetry_group_IT_number 61
_symmetry_cell_setting 'orthorhombic'
loop_
_space_group_symop_operation_xyz
x,y,z
1/2-x,-y,1/2+z
1/2+x,1/2-y,-z
-x,1/2+y,1/2-z
-x,-y,-z
1/2+x,y,1/2-z
1/2-x,1/2+y,z
x,1/2-y,1/2+z
loop_
_atom_site_type_symbol
_atom_site_label
_atom_site_fract_x
_atom_site_fract_y
_atom_site_fract_z
Si Si1 0.956370 0.301745 0.135021
Si Si2 0.293199 0.513549 0.886964
Si Si3 0.897348 0.188656 0.231855
Si Si4 0.803545 0.438926 0.506253
Si Si5 0.398926 0.666931 0.798047
Si Si6 0.925380 0.768653 0.963071
O O1 0.863615 0.456619 0.131039
O O2 0.993344 0.266644 0.189725
O O3 0.063389 0.289535 0.091578
O O4 0.850687 0.158243 0.122838
O O5 0.297395 0.532942 0.943717
O O6 0.385531 0.629202 0.854541
O O7 0.741139 0.248289 0.220871
O O8 0.964806 0.241885 0.281340
O O9 0.901680 0.004601 0.225325
O O10 0.660529 0.356022 0.493257
O O11 0.850310 0.563304 0.466636
O O12 0.922984 0.307965 0.514544
#
# Coordination Sequence:
#
# PCOD9459447 Si02
#       6
#     8   8   8   8   8   8
#     4   9  19  35  55  82 111 144 185 231 275 337
#     4   9  18  34  57  79 109 147 187 222 273 336
#     4  10  20  37  59  83 114 147 188 234 286 339
#     4  10  20  36  57  83 113 150 187 235 278 331
#     4  10  20  36  59  85 112 149 190 235 283 340
#     4  10  21  36  55  80 113 146 187 228 277 329
#
# _framework density 20.876721
#
# number of rings (size 3 to 8) (size 9 to 14) (size 15 to 20)
#    0.000    2.333    0.000    3.000    0.000    4.000 
#    0.000    8.333    0.000    0.000    0.000    0.000 
#    0.000    0.000    0.000    0.000    0.000    0.000 
#
# Total GULP energy -267763.319982 kJ/mol
# GULP energy per Si atom -5578.402500 kJ/mol
# Density = 2.082920 g / cm^3
# Si number density = 20.876721 Si / 1000 Ang^3
#
#
#
# Elastic Constant Matrix: (Units=GPa)
#
#
# Indices 1 2 3 4 5 6 
#
# 1 23.2958 -2.7808 14.2638 0.0000 0.0000 0.0000
# 2 -2.7808 19.8047 2.1324 0.0000 0.0000 0.0000
# 3 14.2638 2.1324 65.5780 0.0000 0.0000 0.0000
# 4 0.0000 0.0000 0.0000 22.4684 0.0000 0.0000
# 5 0.0000 0.0000 0.0000 0.0000 32.0290 0.0000
# 6 0.0000 0.0000 0.0000 0.0000 0.0000 35.2718
#
#
#
# Elastic Compliance Matrix: (Units=1/GPa)
#
#
# Indices 1 2 3 4 5 6 
#
# 1 0.050865 0.008363 -0.011335 0.000000 0.000000 0.000000
# 2 0.008363 0.052045 -0.003511 0.000000 0.000000 0.000000
# 3 -0.011335 -0.003511 0.017829 0.000000 0.000000 0.000000
# 4 0.000000 0.000000 0.000000 0.044507 0.000000 0.000000
# 5 0.000000 0.000000 0.000000 0.000000 0.031222 0.000000
# 6 0.000000 0.000000 0.000000 0.000000 0.000000 0.028351
#
#
# Mechanical properties :
#
#
# Convention : Reuss Voigt Hill
#
# Bulk Modulus (GPa) = 9.27896 15.10103 12.18999
# Shear Modulus (GPa) = 18.26743 24.29137 21.27940
#
# Velocity S-wave (km/s) = 2.96127 3.41480 3.19609
# Velocity P-wave (km/s) = 4.01827 4.77462 4.41268
#
# Compressibility (1/GPa) = 0.10777075
#
# Stress axis : x y z
#
# Youngs Moduli (GPa) = 19.65987 19.21400 56.08918
#
# Poissons Ratio (x) = -0.16068 0.63580
# Poissons Ratio (y) = -0.16441 0.19695
# Poissons Ratio (z) = 0.22285 0.06747
#
# Static dielectric constant tensor:
#      x y z
#    x 1.754420 0.000000 0.000000 
#    y 0.000000 1.755170 0.000000 
#    z 0.000000 0.000000 1.809550 
# 
# From -- ./inp_files/1902.got.cif
#   From: 2010.05.17/outbox.cif.g08.bks.cpg/sg61_1_cif.got.tgz:1902.got - 2010.06.03 15:17:17.
