data_PCOD9459248
_publ_section_title
;
Structure prediction by ZEFSAII (Michael W. Deem and Ramdas Pophale) SiO2 
 PCOD9459248
Probable space group: P B C A
;
_chemical_formula_sum "Si O2"
_cell_formula_units_Z 56
_cell_length_a 14.241147
_cell_length_b 8.733215
_cell_length_c 20.991235
_cell_angle_alpha 90.000000
_cell_angle_beta 90.000000
_cell_angle_gamma 90.000000
_cell_volume 2610.700859
_symmetry_space_group_name_H-M "P B C A"
_symmetry_group_IT_number 61
_symmetry_cell_setting 'orthorhombic'
loop_
_space_group_symop_operation_xyz
x,y,z
1/2-x,-y,1/2+z
1/2+x,1/2-y,-z
-x,1/2+y,1/2-z
-x,-y,-z
1/2+x,y,1/2-z
1/2-x,1/2+y,z
x,1/2-y,1/2+z
loop_
_atom_site_type_symbol
_atom_site_label
_atom_site_fract_x
_atom_site_fract_y
_atom_site_fract_z
Si Si1 0.071787 0.509440 0.907995
Si Si2 0.227918 0.803969 0.333520
Si Si3 0.427547 0.478401 0.081791
Si Si4 0.463937 0.755899 0.002094
Si Si5 0.006629 0.876947 0.719098
Si Si6 0.886134 0.002851 0.165716
Si Si7 0.129132 0.576846 0.713127
O O1 0.161192 0.590483 0.877028
O O2 0.013800 0.637703 0.945931
O O3 0.008409 0.444314 0.850484
O O4 0.091739 0.370971 0.956342
O O5 0.191126 0.634361 0.345754
O O6 0.206582 0.856635 0.260595
O O7 0.336024 0.841509 0.345254
O O8 0.405766 0.621367 0.036398
O O9 0.524247 0.520961 0.120054
O O10 0.354059 0.444995 0.138233
O O11 0.456646 0.333368 0.039198
O O12 0.082984 0.965168 0.761993
O O13 0.045254 0.704653 0.717130
O O14 0.910808 0.918733 0.757051
#
# Coordination Sequence:
#
# PCOD9459248 Si02
#       7
#     8   8   8   8   8   8   8
#     4  10  19  36  55  84 107 139 185 230 260 317
#     4  10  21  35  54  80 110 139 173 223 279 326
#     4  10  19  36  55  84 107 139 185 230 260 317
#     4  10  20  32  58  80 104 140 182 224 268 308
#     4   9  18  32  53  78 104 132 173 224 268 310
#     4  10  21  35  54  80 110 139 173 223 279 326
#     4   9  18  32  53  78 104 132 173 224 268 310
#
# _framework density 21.450178999999999
#
# number of rings (size 3 to 8) (size 9 to 14) (size 15 to 20)
#    0.000    2.286    2.857    0.000    4.000    1.143 
#    0.000    0.000    0.000   10.286    0.000    0.000 
#    0.000    0.000    0.000    0.000    0.000    0.000 
#
# Total GULP energy -312538.432306 kJ/mol
# GULP energy per Si atom -5581.043434 kJ/mol
# Density = 2.140136 g / cm^3
# Si number density = 21.450179 Si / 1000 Ang^3
#
#
#
# Elastic Constant Matrix: (Units=GPa)
#
#
# Indices 1 2 3 4 5 6 
#
# 1 19.3838 5.9762 2.6007 0.0000 0.0000 0.0000
# 2 5.9762 93.0494 38.0884 0.0000 0.0000 0.0000
# 3 2.6007 38.0884 106.9492 0.0000 0.0000 0.0000
# 4 0.0000 0.0000 0.0000 44.1779 0.0000 0.0000
# 5 0.0000 0.0000 0.0000 0.0000 5.0531 0.0000
# 6 0.0000 0.0000 0.0000 0.0000 0.0000 25.5469
#
#
#
# Elastic Compliance Matrix: (Units=1/GPa)
#
#
# Indices 1 2 3 4 5 6 
#
# 1 0.052632 -0.003344 -0.000089 0.000000 0.000000 0.000000
# 2 -0.003344 0.012793 -0.004475 0.000000 0.000000 0.000000
# 3 -0.000089 -0.004475 0.010946 0.000000 0.000000 0.000000
# 4 0.000000 0.000000 0.000000 0.022636 0.000000 0.000000
# 5 0.000000 0.000000 0.000000 0.000000 0.197900 0.000000
# 6 0.000000 0.000000 0.000000 0.000000 0.000000 0.039144
#
#
# Mechanical properties :
#
#
# Convention : Reuss Voigt Hill
#
# Bulk Modulus (GPa) = 16.51356 34.74590 25.62973
# Shear Modulus (GPa) = 13.43896 26.47006 19.95451
#
# Velocity S-wave (km/s) = 2.50575 3.51668 3.05335
# Velocity P-wave (km/s) = 4.01086 5.72040 4.94014
#
# Compressibility (1/GPa) = 0.06055631
#
# Stress axis : x y z
#
# Youngs Moduli (GPa) = 18.99968 78.16486 91.35709
#
# Poissons Ratio (x) = 0.26138 0.00813
# Poissons Ratio (y) = 0.06353 0.40881
# Poissons Ratio (z) = 0.00169 0.34978
#
# Static dielectric constant tensor:
#      x y z
#    x 1.789730 0.000000 0.000000 
#    y 0.000000 1.811330 0.000000 
#    z 0.000000 0.000000 1.807020 
# 
# From -- ./inp_files/4023.got.cif
#   From: 2010.05.17/outbox.cif.g08.bks.cpg/sg61_3_cif.got.tgz:4023.got - 2010.06.03 15:17:17.
