data_PCOD9459797
_publ_section_title
;
Structure prediction by ZEFSAII (Michael W. Deem and Ramdas Pophale) SiO2 
 PCOD9459797
Probable space group: P B C A
;
_chemical_formula_sum "Si O2"
_cell_formula_units_Z 60
_cell_length_a 5.002203
_cell_length_b 17.507646
_cell_length_c 31.722734
_cell_angle_alpha 90.000000
_cell_angle_beta 90.000000
_cell_angle_gamma 90.000000
_cell_volume 2778.175510
_symmetry_space_group_name_H-M "P B C A"
_symmetry_group_IT_number 61
_symmetry_cell_setting 'orthorhombic'
loop_
_space_group_symop_operation_xyz
x,y,z
1/2-x,-y,1/2+z
1/2+x,1/2-y,-z
-x,1/2+y,1/2-z
-x,-y,-z
1/2+x,y,1/2-z
1/2-x,1/2+y,z
x,1/2-y,1/2+z
loop_
_atom_site_type_symbol
_atom_site_label
_atom_site_fract_x
_atom_site_fract_y
_atom_site_fract_z
Si Si1 0.628097 0.279135 0.222596
Si Si2 0.137729 0.861240 0.484474
Si Si3 0.500000 0.500000 0.500000
Si Si4 0.957577 0.326824 0.853610
Si Si5 0.031104 0.578396 0.448181
Si Si6 0.130042 0.227577 0.442128
Si Si7 0.400007 0.539646 0.777926
Si Si8 0.530807 0.570397 0.145264
O O1 0.922358 0.261824 0.239581
O O2 0.553154 0.231162 0.181891
O O3 0.596585 0.369497 0.214236
O O4 0.294154 0.922693 0.516185
O O5 0.286775 0.814836 0.449034
O O6 0.036397 0.797690 0.516861
O O7 0.919274 0.921492 0.470586
O O8 0.289680 0.533140 0.462963
O O9 0.670904 0.361442 0.843044
O O10 0.969797 0.287690 0.899569
O O11 0.170818 0.395663 0.856307
O O12 0.121860 0.667393 0.443026
O O13 0.945793 0.549554 0.402471
O O14 0.111057 0.520408 0.758905
O O15 0.473526 0.494866 0.820032
#
# Coordination Sequence:
#
# PCOD9459797 Si02
#       8
#     8   8   4   8   8   8   8   8
#     4  10  22  41  63  88 127 164 199 256 315 374
#     4  11  19  39  60  85 118 165 207 260 312 376
#     4  10  24  36  58  88 120 158 212 262 312 374
#     4  11  23  39  62  97 124 158 212 264 310 373
#     4  10  21  39  58  85 123 161 203 262 314 368
#     4  10  21  35  63  86 116 165 209 252 316 375
#     4  10  22  41  64  90 124 168 209 248 319 393
#     4  11  23  39  65  92 128 162 207 263 314 370
#
# _framework density 21.596907999999999
#
# number of rings (size 3 to 8) (size 9 to 14) (size 15 to 20)
#    0.000    1.600    2.667    2.000    0.000    4.267 
#    0.000    0.000    8.800    0.000    0.000    0.000 
#    0.000    0.000    0.000    0.000    0.000    0.000 
#
# Total GULP energy -334433.792163 kJ/mol
# GULP energy per Si atom -5573.896536 kJ/mol
# Density = 2.154775 g / cm^3
# Si number density = 21.596908 Si / 1000 Ang^3
#
#
#
# Elastic Constant Matrix: (Units=GPa)
#
#
# Indices 1 2 3 4 5 6 
#
# 1 41.9019 -5.3374 9.0260 0.0000 0.0000 0.0000
# 2 -5.3374 69.2131 38.2044 0.0000 0.0000 0.0000
# 3 9.0260 38.2044 58.3554 0.0000 0.0000 0.0000
# 4 0.0000 0.0000 0.0000 34.2438 0.0000 0.0000
# 5 0.0000 0.0000 0.0000 0.0000 24.6383 0.0000
# 6 0.0000 0.0000 0.0000 0.0000 0.0000 27.5440
#
#
#
# Elastic Compliance Matrix: (Units=1/GPa)
#
#
# Indices 1 2 3 4 5 6 
#
# 1 0.026565 0.006759 -0.008534 0.000000 0.000000 0.000000
# 2 0.006759 0.024344 -0.016983 0.000000 0.000000 0.000000
# 3 -0.008534 -0.016983 0.029575 0.000000 0.000000 0.000000
# 4 0.000000 0.000000 0.000000 0.029202 0.000000 0.000000
# 5 0.000000 0.000000 0.000000 0.000000 0.040587 0.000000
# 6 0.000000 0.000000 0.000000 0.000000 0.000000 0.036306
#
#
# Mechanical properties :
#
#
# Convention : Reuss Voigt Hill
#
# Bulk Modulus (GPa) = 23.27337 28.13962 25.70649
# Shear Modulus (GPa) = 20.97175 25.79037 23.38106
#
# Velocity S-wave (km/s) = 3.11955 3.45943 3.29388
# Velocity P-wave (km/s) = 4.87597 5.38652 5.13759
#
# Compressibility (1/GPa) = 0.04296757
#
# Stress axis : x y z
#
# Youngs Moduli (GPa) = 37.64419 41.07855 33.81258
#
# Poissons Ratio (x) = -0.27766 0.28855
# Poissons Ratio (y) = -0.25444 0.57423
# Poissons Ratio (z) = 0.32125 0.69763
#
# Static dielectric constant tensor:
#      x y z
#    x 5.726350 0.000000 0.000000 
#    y 0.000000 0.238060 0.000000 
#    z 0.000000 0.000000 1.598050 
# 
# From -- ./inp_files/840.got.cif
#   From: 2010.05.17/outbox.cif.g08.bks.cpg/sg61_1_cif.got.tgz:840.got - 2010.06.03 15:17:17.
