data_PCOD9459780
_publ_section_title
;
Structure prediction by ZEFSAII (Michael W. Deem and Ramdas Pophale) SiO2 
 PCOD9459780
Probable space group: P B C A
;
_chemical_formula_sum "Si O2"
_cell_formula_units_Z 48
_cell_length_a 15.779889
_cell_length_b 5.361312
_cell_length_c 21.058775
_cell_angle_alpha 90.000000
_cell_angle_beta 90.000000
_cell_angle_gamma 90.000000
_cell_volume 1781.591492
_symmetry_space_group_name_H-M "P B C A"
_symmetry_group_IT_number 61
_symmetry_cell_setting 'orthorhombic'
loop_
_space_group_symop_operation_xyz
x,y,z
1/2-x,-y,1/2+z
1/2+x,1/2-y,-z
-x,1/2+y,1/2-z
-x,-y,-z
1/2+x,y,1/2-z
1/2-x,1/2+y,z
x,1/2-y,1/2+z
loop_
_atom_site_type_symbol
_atom_site_label
_atom_site_fract_x
_atom_site_fract_y
_atom_site_fract_z
Si Si1 0.555642 0.590835 0.750401
Si Si2 0.970715 0.291267 0.071712
Si Si3 0.221477 0.528822 0.543314
Si Si4 0.218089 0.994659 0.187450
Si Si5 0.806612 0.367259 0.135948
Si Si6 0.533598 0.789248 0.429091
O O1 0.502858 0.334928 0.747186
O O2 0.619980 0.576895 0.810240
O O3 0.624825 0.614515 0.693601
O O4 0.872552 0.361173 0.077027
O O5 0.023902 0.517730 0.102037
O O6 0.004755 0.256722 0.000054
O O7 0.982787 0.017534 0.101500
O O8 0.226724 0.256056 0.513156
O O9 0.253065 0.478526 0.615832
O O10 0.127037 0.623121 0.553536
O O11 0.268954 0.765597 0.217801
O O12 0.746634 0.610172 0.136799
#
# Coordination Sequence:
#
# PCOD9459780 Si02
#       6
#     8   8   8   8   8   8
#     4  12  26  41  65  95 121 168 212 263 316 381
#     4  10  23  39  64  91 123 174 204 259 320 367
#     4  10  21  34  58  87 115 156 195 245 301 358
#     4  10  21  39  58  83 120 157 192 245 308 359
#     4  12  26  45  68  97 133 171 219 271 325 391
#     4  10  21  40  61  91 132 162 212 259 308 378
#
# _framework density 26.942201000000001
#
# number of rings (size 3 to 8) (size 9 to 14) (size 15 to 20)
#    0.000    1.333    0.000    5.000    4.667    1.333 
#    0.000    0.000    0.000    0.000    0.000    0.000 
#    0.000    0.000    0.000    0.000    0.000    0.000 
#
# Total GULP energy -268639.309999 kJ/mol
# GULP energy per Si atom -5596.652292 kJ/mol
# Density = 2.688088 g / cm^3
# Si number density = 26.942201 Si / 1000 Ang^3
#
#
#
# Elastic Constant Matrix: (Units=GPa)
#
#
# Indices 1 2 3 4 5 6 
#
# 1 162.1842 86.0369 19.3037 0.0000 0.0000 0.0000
# 2 86.0369 260.4979 29.9192 0.0000 0.0000 0.0000
# 3 19.3037 29.9192 62.3053 0.0000 0.0000 0.0000
# 4 0.0000 0.0000 0.0000 19.4607 0.0000 0.0000
# 5 0.0000 0.0000 0.0000 0.0000 47.5724 0.0000
# 6 0.0000 0.0000 0.0000 0.0000 0.0000 74.6760
#
#
#
# Elastic Compliance Matrix: (Units=1/GPa)
#
#
# Indices 1 2 3 4 5 6 
#
# 1 0.007561 -0.002358 -0.001210 0.000000 0.000000 0.000000
# 2 -0.002358 0.004798 -0.001574 0.000000 0.000000 0.000000
# 3 -0.001210 -0.001574 0.017181 0.000000 0.000000 0.000000
# 4 0.000000 0.000000 0.000000 0.051385 0.000000 0.000000
# 5 0.000000 0.000000 0.000000 0.000000 0.021021 0.000000
# 6 0.000000 0.000000 0.000000 0.000000 0.000000 0.013391
#
#
# Mechanical properties :
#
#
# Convention : Reuss Voigt Hill
#
# Bulk Modulus (GPa) = 51.93184 83.94522 67.93853
# Shear Modulus (GPa) = 37.86744 51.65700 44.76222
#
# Velocity S-wave (km/s) = 3.75308 4.38348 4.08047
# Velocity P-wave (km/s) = 6.17235 7.53956 6.88995
#
# Compressibility (1/GPa) = 0.01925601
#
# Stress axis : x y z
#
# Youngs Moduli (GPa) = 132.25998 208.40284 58.20537
#
# Poissons Ratio (x) = 0.49146 0.07044
# Poissons Ratio (y) = 0.31190 0.09159
# Poissons Ratio (z) = 0.16005 0.32794
#
# Static dielectric constant tensor:
#      x y z
#    x 2.003080 0.000000 0.000000 
#    y 0.000000 2.195640 0.000000 
#    z 0.000000 0.000000 2.341590 
# 
# From -- ./inp_files/11497.got.cif
#   From: 2010.05.17/outbox.cif.g08.bks.cpg/sg61_6_cif.got.tgz:11497.got - 2010.06.03 15:17:17.
