data_PCOD9459055
_publ_section_title
;
Structure prediction by ZEFSAII (Michael W. Deem and Ramdas Pophale) SiO2 
 PCOD9459055
Probable space group: P B C A
;
_chemical_formula_sum "Si O2"
_cell_formula_units_Z 56
_cell_length_a 15.856661
_cell_length_b 9.020985
_cell_length_c 19.209744
_cell_angle_alpha 90.000000
_cell_angle_beta 90.000000
_cell_angle_gamma 90.000000
_cell_volume 2747.813668
_symmetry_space_group_name_H-M "P B C A"
_symmetry_group_IT_number 61
_symmetry_cell_setting 'orthorhombic'
loop_
_space_group_symop_operation_xyz
x,y,z
1/2-x,-y,1/2+z
1/2+x,1/2-y,-z
-x,1/2+y,1/2-z
-x,-y,-z
1/2+x,y,1/2-z
1/2-x,1/2+y,z
x,1/2-y,1/2+z
loop_
_atom_site_type_symbol
_atom_site_label
_atom_site_fract_x
_atom_site_fract_y
_atom_site_fract_z
Si Si1 0.542994 0.981815 0.097480
Si Si2 0.722822 0.111286 0.096135
Si Si3 0.005037 0.253368 0.978917
Si Si4 0.444217 0.512582 0.805670
Si Si5 0.086237 0.814978 0.258840
Si Si6 0.230624 0.370484 0.303595
Si Si7 0.887694 0.010613 0.034618
O O1 0.635282 0.039411 0.074345
O O2 0.556638 0.903471 0.171061
O O3 0.494845 0.138254 0.087500
O O4 0.506482 0.861369 0.044648
O O5 0.745864 0.033839 0.170017
O O6 0.793365 0.069201 0.041101
O O7 0.725964 0.278932 0.123449
O O8 0.091691 0.159157 0.984079
O O9 0.936696 0.123539 0.984977
O O10 0.441159 0.355732 0.766292
O O11 0.532233 0.597643 0.798314
O O12 0.366079 0.616205 0.778317
O O13 0.424270 0.477267 0.886393
O O14 0.188689 0.822327 0.258102
#
# Coordination Sequence:
#
# PCOD9459055 Si02
#       7
#     8   8   8   8   8   8   8
#     4  10  20  36  56  88 113 151 195 243 295 342
#     4  10  18  33  60  82 113 143 193 256 286 326
#     4  10  20  33  57  81 119 150 184 240 292 352
#     4  11  23  36  60  89 118 155 197 245 302 359
#     4  11  23  37  59  91 118 155 200 245 301 364
#     4  10  19  36  56  85 120 147 196 255 295 333
#     4  10  19  37  56  88 114 150 192 242 301 343
#
# _framework density 20.379839
#
# number of rings (size 3 to 8) (size 9 to 14) (size 15 to 20)
#    0.000    1.714    4.286    2.571    6.000    0.000 
#    0.000    0.000    0.000   10.286    0.000    0.000 
#    0.000    0.000    0.000    0.000    0.000    0.000 
#
# Total GULP energy -311872.390577 kJ/mol
# GULP energy per Si atom -5569.149832 kJ/mol
# Density = 2.033345 g / cm^3
# Si number density = 20.379839 Si / 1000 Ang^3
#
#
#
# Elastic Constant Matrix: (Units=GPa)
#
#
# Indices 1 2 3 4 5 6 
#
# 1 97.6210 32.7828 14.9158 0.0000 0.0000 0.0000
# 2 32.7828 116.4323 14.4936 0.0000 0.0000 0.0000
# 3 14.9158 14.4936 27.3348 0.0000 0.0000 0.0000
# 4 0.0000 0.0000 0.0000 31.2648 0.0000 0.0000
# 5 0.0000 0.0000 0.0000 0.0000 34.3162 0.0000
# 6 0.0000 0.0000 0.0000 0.0000 0.0000 29.4672
#
#
#
# Elastic Compliance Matrix: (Units=1/GPa)
#
#
# Indices 1 2 3 4 5 6 
#
# 1 0.011934 -0.002730 -0.005065 0.000000 0.000000 0.000000
# 2 -0.002730 0.009820 -0.003717 0.000000 0.000000 0.000000
# 3 -0.005065 -0.003717 0.041318 0.000000 0.000000 0.000000
# 4 0.000000 0.000000 0.000000 0.031985 0.000000 0.000000
# 5 0.000000 0.000000 0.000000 0.000000 0.029141 0.000000
# 6 0.000000 0.000000 0.000000 0.000000 0.000000 0.033936
#
#
# Mechanical properties :
#
#
# Convention : Reuss Voigt Hill
#
# Bulk Modulus (GPa) = 24.96958 40.64139 32.80549
# Shear Modulus (GPa) = 25.70598 30.95603 28.33100
#
# Velocity S-wave (km/s) = 3.55539 3.90160 3.73251
# Velocity P-wave (km/s) = 5.39751 6.34680 5.89131
#
# Compressibility (1/GPa) = 0.04004873
#
# Stress axis : x y z
#
# Youngs Moduli (GPa) = 83.79234 101.83292 24.20246
#
# Poissons Ratio (x) = 0.27798 0.12258
# Poissons Ratio (y) = 0.22873 0.08997
# Poissons Ratio (z) = 0.42439 0.37854
#
# Static dielectric constant tensor:
#      x y z
#    x 1.811300 0.000000 0.000000 
#    y 0.000000 1.749240 0.000000 
#    z 0.000000 0.000000 1.736390 
# 
# From -- ./inp_files/10517.got.cif
#   From: 2010.05.17/outbox.cif.g08.bks.cpg/sg61_6_cif.got.tgz:10517.got - 2010.06.03 15:17:17.
