data_PCOD9459668
_publ_section_title
;
Structure prediction by ZEFSAII (Michael W. Deem and Ramdas Pophale) SiO2 
 PCOD9459668
Probable space group: P B C A
;
_chemical_formula_sum "Si O2"
_cell_formula_units_Z 40
_cell_length_a 8.839584
_cell_length_b 14.303942
_cell_length_c 15.036046
_cell_angle_alpha 90.000000
_cell_angle_beta 90.000000
_cell_angle_gamma 90.000000
_cell_volume 1901.171141
_symmetry_space_group_name_H-M "P B C A"
_symmetry_group_IT_number 61
_symmetry_cell_setting 'orthorhombic'
loop_
_space_group_symop_operation_xyz
x,y,z
1/2-x,-y,1/2+z
1/2+x,1/2-y,-z
-x,1/2+y,1/2-z
-x,-y,-z
1/2+x,y,1/2-z
1/2-x,1/2+y,z
x,1/2-y,1/2+z
loop_
_atom_site_type_symbol
_atom_site_label
_atom_site_fract_x
_atom_site_fract_y
_atom_site_fract_z
Si Si1 0.218185 0.488945 0.137410
Si Si2 0.307823 0.325734 0.549923
Si Si3 0.473248 0.115426 0.743252
Si Si4 0.840029 0.652594 0.003909
Si Si5 0.273850 0.790335 0.364857
O O1 0.218707 0.599875 0.126138
O O2 0.370611 0.447941 0.179136
O O3 0.186380 0.447517 0.038451
O O4 0.082543 0.450460 0.198444
O O5 0.484099 0.325673 0.522014
O O6 0.236658 0.223751 0.567823
O O7 0.221998 0.348857 0.457301
O O8 0.365268 0.174212 0.807786
O O9 0.576056 0.187379 0.688714
O O10 0.761921 0.685066 0.096162
#
# Coordination Sequence:
#
# PCOD9459668 Si02
#       5
#     8   8   8   8   8
#     4  11  21  41  65  83 128 158 204 250 309 357
#     4  10  22  39  64  88 116 164 206 246 290 378
#     4  10  21  38  61  94 125 156 193 270 307 346
#     4  10  20  40  64  90 116 164 211 242 296 373
#     4   9  21  38  63  86 124 159 202 247 314 345
#
# _framework density 21.039663999999998
#
# number of rings (size 3 to 8) (size 9 to 14) (size 15 to 20)
#    1.200    0.800    2.000    1.800    0.000    0.800 
#    0.000    8.000    0.000    0.000    0.000    0.000 
#    0.000    0.000    0.000    0.000    0.000    0.000 
#
# Total GULP energy -222954.876448 kJ/mol
# GULP energy per Si atom -5573.871911 kJ/mol
# Density = 2.099178 g / cm^3
# Si number density = 21.039664 Si / 1000 Ang^3
#
#
#
# Elastic Constant Matrix: (Units=GPa)
#
#
# Indices 1 2 3 4 5 6 
#
# 1 54.0205 2.9614 16.1009 0.0000 0.0000 0.0000
# 2 2.9614 37.8628 -0.4338 0.0000 0.0000 0.0000
# 3 16.1009 -0.4338 51.0815 0.0000 0.0000 0.0000
# 4 0.0000 0.0000 0.0000 8.4371 0.0000 0.0000
# 5 0.0000 0.0000 0.0000 0.0000 9.5402 0.0000
# 6 0.0000 0.0000 0.0000 0.0000 0.0000 10.3999
#
#
#
# Elastic Compliance Matrix: (Units=1/GPa)
#
#
# Indices 1 2 3 4 5 6 
#
# 1 0.020537 -0.001681 -0.006488 0.000000 0.000000 0.000000
# 2 -0.001681 0.026551 0.000755 0.000000 0.000000 0.000000
# 3 -0.006488 0.000755 0.021628 0.000000 0.000000 0.000000
# 4 0.000000 0.000000 0.000000 0.118524 0.000000 0.000000
# 5 0.000000 0.000000 0.000000 0.000000 0.104819 0.000000
# 6 0.000000 0.000000 0.000000 0.000000 0.000000 0.096155
#
#
# Mechanical properties :
#
#
# Convention : Reuss Voigt Hill
#
# Bulk Modulus (GPa) = 18.55623 20.02466 19.29045
# Shear Modulus (GPa) = 11.87636 13.96453 12.92045
#
# Velocity S-wave (km/s) = 2.37845 2.57908 2.48079
# Velocity P-wave (km/s) = 4.04740 4.29035 4.17065
#
# Compressibility (1/GPa) = 0.05389024
#
# Stress axis : x y z
#
# Youngs Moduli (GPa) = 48.69195 37.66305 46.23664
#
# Poissons Ratio (x) = 0.06330 0.29997
# Poissons Ratio (y) = 0.08183 -0.03492
# Poissons Ratio (z) = 0.31590 -0.02844
#
# Static dielectric constant tensor:
#      x y z
#    x 1.740880 0.000000 0.000000 
#    y 0.000000 1.749270 0.000000 
#    z 0.000000 0.000000 1.756320 
# 
# From -- ./inp_files/8052.got.cif
#   From: 2010.05.17/outbox.cif.g08.bks.cpg/sg61_5_cif.got.tgz:8052.got - 2010.06.03 15:17:17.
