data_PCOD9459841
_publ_section_title
;
Structure prediction by ZEFSAII (Michael W. Deem and Ramdas Pophale) SiO2 
 PCOD9459841
Probable space group: P B C A
;
_chemical_formula_sum "Si O2"
_cell_formula_units_Z 40
_cell_length_a 9.321098
_cell_length_b 9.653140
_cell_length_c 15.424872
_cell_angle_alpha 90.000000
_cell_angle_beta 90.000000
_cell_angle_gamma 90.000000
_cell_volume 1387.897034
_symmetry_space_group_name_H-M "P B C A"
_symmetry_group_IT_number 61
_symmetry_cell_setting 'orthorhombic'
loop_
_space_group_symop_operation_xyz
x,y,z
1/2-x,-y,1/2+z
1/2+x,1/2-y,-z
-x,1/2+y,1/2-z
-x,-y,-z
1/2+x,y,1/2-z
1/2-x,1/2+y,z
x,1/2-y,1/2+z
loop_
_atom_site_type_symbol
_atom_site_label
_atom_site_fract_x
_atom_site_fract_y
_atom_site_fract_z
Si Si1 0.806614 0.854996 0.453547
Si Si2 0.136653 0.928308 0.700100
Si Si3 0.742894 0.119117 0.680027
Si Si4 0.500289 0.277351 0.074375
Si Si5 0.960669 0.718166 0.315978
O O1 0.839630 0.975188 0.383951
O O2 0.638100 0.841079 0.474386
O O3 0.913822 0.854738 0.534668
O O4 0.870159 0.716513 0.404652
O O5 0.258211 0.976335 0.768177
O O6 0.086271 0.783021 0.657883
O O7 0.017835 0.924339 0.777526
O O8 0.635792 0.125213 0.598160
O O9 0.648940 0.206078 0.750298
O O10 0.896339 0.189554 0.664693
#
# Coordination Sequence:
#
# PCOD9459841 Si02
#       5
#     8   8   8   8   8
#     4  11  24  42  61  89 125 160 201 252 302 357
#     4  10  21  40  66  90 117 162 202 244 305 362
#     4  10  21  37  61  92 122 154 199 249 295 356
#     4  11  24  42  61  89 125 160 201 252 302 357
#     4  10  21  37  61  92 122 154 199 249 295 356
#
# _framework density 28.820581000000001
#
# number of rings (size 3 to 8) (size 9 to 14) (size 15 to 20)
#    0.000    1.600    0.000    6.600    0.000   14.400 
#    0.000    8.000    0.000    0.000    0.000    0.000 
#    0.000    0.000    0.000    0.000    0.000    0.000 
#
# Total GULP energy -222670.106326 kJ/mol
# GULP energy per Si atom -5566.752658 kJ/mol
# Density = 2.875498 g / cm^3
# Si number density = 28.820581 Si / 1000 Ang^3
#
#
#
# Elastic Constant Matrix: (Units=GPa)
#
#
# Indices 1 2 3 4 5 6 
#
# 1 295.2499 31.0775 29.4274 0.0000 0.0000 0.0000
# 2 31.0775 69.9279 -3.6508 0.0000 0.0000 0.0000
# 3 29.4274 -3.6508 53.9151 0.0000 0.0000 0.0000
# 4 0.0000 0.0000 0.0000 49.0537 0.0000 0.0000
# 5 0.0000 0.0000 0.0000 0.0000 25.0092 0.0000
# 6 0.0000 0.0000 0.0000 0.0000 0.0000 29.4997
#
#
#
# Elastic Compliance Matrix: (Units=1/GPa)
#
#
# Indices 1 2 3 4 5 6 
#
# 1 0.003795 -0.001801 -0.002193 0.000000 0.000000 0.000000
# 2 -0.001801 0.015206 0.002013 0.000000 0.000000 0.000000
# 3 -0.002193 0.002013 0.019881 0.000000 0.000000 0.000000
# 4 0.000000 0.000000 0.000000 0.020386 0.000000 0.000000
# 5 0.000000 0.000000 0.000000 0.000000 0.039985 0.000000
# 6 0.000000 0.000000 0.000000 0.000000 0.000000 0.033899
#
#
# Mechanical properties :
#
#
# Convention : Reuss Voigt Hill
#
# Bulk Modulus (GPa) = 28.63795 59.20010 43.91902
# Shear Modulus (GPa) = 33.61225 44.86177 39.23701
#
# Velocity S-wave (km/s) = 3.41876 3.94964 3.69375
# Velocity P-wave (km/s) = 5.05392 6.43312 5.78477
#
# Compressibility (1/GPa) = 0.03491870
#
# Stress axis : x y z
#
# Youngs Moduli (GPa) = 263.49326 65.76353 50.29888
#
# Poissons Ratio (x) = 0.11845 0.11033
# Poissons Ratio (y) = 0.47459 -0.10124
# Poissons Ratio (z) = 0.57795 -0.13237
#
# Static dielectric constant tensor:
#      x y z
#    x 2.243810 0.000000 0.000000 
#    y 0.000000 2.541220 0.000000 
#    z 0.000000 0.000000 2.450700 
# 
# From -- ./inp_files/8819.got.cif
#   From: 2010.05.17/outbox.cif.g08.bks.cpg/sg61_5_cif.got.tgz:8819.got - 2010.06.03 15:17:17.
