data_PCOD9459232
_publ_section_title
;
Structure prediction by ZEFSAII (Michael W. Deem and Ramdas Pophale) SiO2 
 PCOD9459232
Probable space group: P B C A
;
_chemical_formula_sum "Si O2"
_cell_formula_units_Z 56
_cell_length_a 5.226263
_cell_length_b 32.322926
_cell_length_c 15.694977
_cell_angle_alpha 90.000000
_cell_angle_beta 90.000000
_cell_angle_gamma 90.000000
_cell_volume 2651.322836
_symmetry_space_group_name_H-M "P B C A"
_symmetry_group_IT_number 61
_symmetry_cell_setting 'orthorhombic'
loop_
_space_group_symop_operation_xyz
x,y,z
1/2-x,-y,1/2+z
1/2+x,1/2-y,-z
-x,1/2+y,1/2-z
-x,-y,-z
1/2+x,y,1/2-z
1/2-x,1/2+y,z
x,1/2-y,1/2+z
loop_
_atom_site_type_symbol
_atom_site_label
_atom_site_fract_x
_atom_site_fract_y
_atom_site_fract_z
Si Si1 0.903015 0.871743 0.783979
Si Si2 0.250943 0.994296 0.057062
Si Si3 0.097182 0.466274 0.719772
Si Si4 0.784522 0.839571 0.423647
Si Si5 0.289803 0.249142 0.054955
Si Si6 0.778282 0.580707 0.808638
Si Si7 0.784263 0.658428 0.458330
O O1 0.682215 0.851969 0.726205
O O2 0.950851 0.918983 0.755232
O O3 0.805910 0.872525 0.880220
O O4 0.227505 0.029339 0.128934
O O5 0.260421 0.952119 0.113155
O O6 0.500000 0.000000 0.000000
O O7 0.000000 0.000000 0.000000
O O8 0.313889 0.485625 0.780702
O O9 0.769352 0.791304 0.394724
O O10 0.776505 0.873547 0.350228
O O11 0.537980 0.844593 0.484689
O O12 0.039355 0.845740 0.480697
O O13 0.233385 0.203357 0.088234
O O14 0.584171 0.249003 0.023463
O O15 0.536379 0.575631 0.746106
#
# Coordination Sequence:
#
# PCOD9459232 Si02
#       7
#     8   8   8   8   8   8   8
#     4  10  21  34  53  82 114 148 184 230 294 344
#     4  12  26  41  65  92 116 150 209 249 292 357
#     4  10  21  39  58  78 115 154 182 227 294 351
#     4  10  21  36  62  87 114 158 207 241 292 357
#     4   8  16  32  53  84 114 155 197 245 292 341
#     4  12  26  45  65  91 130 164 196 254 320 368
#     4  10  19  35  60  84 123 155 203 252 288 342
#
# _framework density 21.121531000000001
#
# number of rings (size 3 to 8) (size 9 to 14) (size 15 to 20)
#    0.000    1.714    0.000    4.286    4.000    0.000 
#    0.000    1.429    0.000    0.000    0.000    0.000 
#    0.000    0.000    0.000    0.000    0.000    0.000 
#
# Total GULP energy -312237.008747 kJ/mol
# GULP energy per Si atom -5575.660870 kJ/mol
# Density = 2.107346 g / cm^3
# Si number density = 21.121531 Si / 1000 Ang^3
#
#
#
# Elastic Constant Matrix: (Units=GPa)
#
#
# Indices 1 2 3 4 5 6 
#
# 1 156.8134 34.2694 39.0350 0.0000 0.0000 0.0000
# 2 34.2694 107.6307 38.1166 0.0000 0.0000 0.0000
# 3 39.0350 38.1166 72.8936 0.0000 0.0000 0.0000
# 4 0.0000 0.0000 0.0000 15.2467 0.0000 0.0000
# 5 0.0000 0.0000 0.0000 0.0000 42.8705 0.0000
# 6 0.0000 0.0000 0.0000 0.0000 0.0000 18.5897
#
#
#
# Elastic Compliance Matrix: (Units=1/GPa)
#
#
# Indices 1 2 3 4 5 6 
#
# 1 0.007478 -0.001182 -0.003387 0.000000 0.000000 0.000000
# 2 -0.001182 0.011589 -0.005427 0.000000 0.000000 0.000000
# 3 -0.003387 -0.005427 0.018370 0.000000 0.000000 0.000000
# 4 0.000000 0.000000 0.000000 0.065588 0.000000 0.000000
# 5 0.000000 0.000000 0.000000 0.000000 0.023326 0.000000
# 6 0.000000 0.000000 0.000000 0.000000 0.000000 0.053793
#
#
# Mechanical properties :
#
#
# Convention : Reuss Voigt Hill
#
# Bulk Modulus (GPa) = 57.31876 62.24220 59.78048
# Shear Modulus (GPa) = 24.27749 30.40250 27.34000
#
# Velocity S-wave (km/s) = 3.39399 3.79807 3.60170
# Velocity P-wave (km/s) = 6.52345 6.98329 6.75728
#
# Compressibility (1/GPa) = 0.01744630
#
# Stress axis : x y z
#
# Youngs Moduli (GPa) = 133.72023 86.28624 54.43578
#
# Poissons Ratio (x) = 0.10196 0.18436
# Poissons Ratio (y) = 0.15801 0.29544
# Poissons Ratio (z) = 0.45288 0.46831
#
# Static dielectric constant tensor:
#      x y z
#    x 1.754460 0.000000 0.000000 
#    y 0.000000 1.827880 0.000000 
#    z 0.000000 0.000000 1.780180 
# 
# From -- ./inp_files/6871.got.cif
#   From: 2010.05.17/outbox.cif.g08.bks.cpg/sg61_4_cif.got.tgz:6871.got - 2010.06.03 15:17:17.
