data_PCOD9459547
_publ_section_title
;
Structure prediction by ZEFSAII (Michael W. Deem and Ramdas Pophale) SiO2 
 PCOD9459547
Probable space group: P B C A
;
_chemical_formula_sum "Si O2"
_cell_formula_units_Z 48
_cell_length_a 15.221531
_cell_length_b 18.065952
_cell_length_c 8.161619
_cell_angle_alpha 90.000000
_cell_angle_beta 90.000000
_cell_angle_gamma 90.000000
_cell_volume 2244.375430
_symmetry_space_group_name_H-M "P B C A"
_symmetry_group_IT_number 61
_symmetry_cell_setting 'orthorhombic'
loop_
_space_group_symop_operation_xyz
x,y,z
1/2-x,-y,1/2+z
1/2+x,1/2-y,-z
-x,1/2+y,1/2-z
-x,-y,-z
1/2+x,y,1/2-z
1/2-x,1/2+y,z
x,1/2-y,1/2+z
loop_
_atom_site_type_symbol
_atom_site_label
_atom_site_fract_x
_atom_site_fract_y
_atom_site_fract_z
Si Si1 0.822029 0.341460 0.688128
Si Si2 0.921226 0.693017 0.548212
Si Si3 0.751026 0.112639 0.681198
Si Si4 0.226529 0.462182 0.965157
Si Si5 0.375794 0.658545 0.306367
Si Si6 0.390198 0.211995 0.657759
O O1 0.808097 0.427589 0.642411
O O2 0.724111 0.318586 0.744363
O O3 0.844086 0.305522 0.513581
O O4 0.887515 0.300057 0.809100
O O5 0.838118 0.653354 0.629992
O O6 0.905047 0.781370 0.560094
O O7 0.929182 0.665254 0.361376
O O8 0.011618 0.681502 0.645002
O O9 0.830733 0.169005 0.710661
O O10 0.773659 0.049632 0.548968
O O11 0.737604 0.069309 0.853075
O O12 0.141646 0.421985 0.883838
#
# Coordination Sequence:
#
# PCOD9459547 Si02
#       6
#     8   8   8   8   8   8
#     4   9  20  38  58  84 114 154 195 235 297 342
#     4  12  22  36  63  90 120 154 198 246 293 348
#     4  11  21  41  59  88 119 160 198 242 301 349
#     4   9  21  36  64  81 116 165 196 238 300 353
#     4  10  20  38  59  87 113 158 195 238 295 346
#     4  11  22  37  60  92 119 152 198 247 290 352
#
# _framework density 21.386794999999999
#
# number of rings (size 3 to 8) (size 9 to 14) (size 15 to 20)
#    1.000    0.667    1.667    4.000    0.000    0.000 
#    0.000   10.000    0.000    0.000    0.000    0.000 
#    0.000    0.000    0.000    0.000    0.000    0.000 
#
# Total GULP energy -267567.549675 kJ/mol
# GULP energy per Si atom -5574.323952 kJ/mol
# Density = 2.133812 g / cm^3
# Si number density = 21.386795 Si / 1000 Ang^3
#
#
#
# Elastic Constant Matrix: (Units=GPa)
#
#
# Indices 1 2 3 4 5 6 
#
# 1 68.0924 22.6405 13.9126 0.0000 0.0000 0.0000
# 2 22.6405 71.2035 4.6848 0.0000 0.0000 0.0000
# 3 13.9126 4.6848 49.9122 0.0000 0.0000 0.0000
# 4 0.0000 0.0000 0.0000 34.5930 0.0000 0.0000
# 5 0.0000 0.0000 0.0000 0.0000 19.8549 0.0000
# 6 0.0000 0.0000 0.0000 0.0000 0.0000 118.2076
#
#
#
# Elastic Compliance Matrix: (Units=1/GPa)
#
#
# Indices 1 2 3 4 5 6 
#
# 1 0.017306 -0.005218 -0.004334 0.000000 0.000000 0.000000
# 2 -0.005218 0.015705 -0.000020 0.000000 0.000000 0.000000
# 3 -0.004334 -0.000020 0.021245 0.000000 0.000000 0.000000
# 4 0.000000 0.000000 0.000000 0.028908 0.000000 0.000000
# 5 0.000000 0.000000 0.000000 0.000000 0.050365 0.000000
# 6 0.000000 0.000000 0.000000 0.000000 0.000000 0.008460
#
#
# Mechanical properties :
#
#
# Convention : Reuss Voigt Hill
#
# Bulk Modulus (GPa) = 28.47959 30.18712 29.33335
# Shear Modulus (GPa) = 28.92911 44.39579 36.66245
#
# Velocity S-wave (km/s) = 3.68185 4.56109 4.14485
# Velocity P-wave (km/s) = 5.60535 6.47175 6.05407
#
# Compressibility (1/GPa) = 0.03511287
#
# Stress axis : x y z
#
# Youngs Moduli (GPa) = 57.78216 63.67551 47.06957
#
# Poissons Ratio (x) = 0.33224 0.20401
# Poissons Ratio (y) = 0.30149 0.00092
# Poissons Ratio (z) = 0.25044 0.00125
#
# Static dielectric constant tensor:
#      x y z
#    x 1.777360 0.000000 0.000000 
#    y 0.000000 1.772860 0.000000 
#    z 0.000000 0.000000 1.810070 
# 
# From -- ./inp_files/2919.got.cif
#   From: 2010.05.17/outbox.cif.g08.bks.cpg/sg61_2_cif.got.tgz:2919.got - 2010.06.03 15:17:17.
