data_PCOD9459198
_publ_section_title
;
Structure prediction by ZEFSAII (Michael W. Deem and Ramdas Pophale) SiO2 
 PCOD9459198
Probable space group: P B C A
;
_chemical_formula_sum "Si O2"
_cell_formula_units_Z 64
_cell_length_a 18.547781
_cell_length_b 17.649039
_cell_length_c 10.295801
_cell_angle_alpha 90.000000
_cell_angle_beta 90.000000
_cell_angle_gamma 90.000000
_cell_volume 3370.335711
_symmetry_space_group_name_H-M "P B C A"
_symmetry_group_IT_number 61
_symmetry_cell_setting 'orthorhombic'
loop_
_space_group_symop_operation_xyz
x,y,z
1/2-x,-y,1/2+z
1/2+x,1/2-y,-z
-x,1/2+y,1/2-z
-x,-y,-z
1/2+x,y,1/2-z
1/2-x,1/2+y,z
x,1/2-y,1/2+z
loop_
_atom_site_type_symbol
_atom_site_label
_atom_site_fract_x
_atom_site_fract_y
_atom_site_fract_z
Si Si1 0.534188 0.291963 0.586120
Si Si2 0.290142 0.561820 0.341343
Si Si3 0.456603 0.535799 0.384230
Si Si4 0.535522 0.976377 0.634082
Si Si5 0.321150 0.926422 0.317617
Si Si6 0.686919 0.173256 0.944690
Si Si7 0.009607 0.189875 0.137128
Si Si8 0.178204 0.158761 0.088239
O O1 0.514671 0.378419 0.609598
O O2 0.615326 0.301787 0.528711
O O3 0.521172 0.261371 0.731053
O O4 0.491118 0.245018 0.480825
O O5 0.370459 0.537268 0.388017
O O6 0.242890 0.487633 0.319717
O O7 0.267582 0.621461 0.454965
O O8 0.293891 0.606013 0.204589
O O9 0.500000 0.500000 0.500000
O O10 0.480796 0.501635 0.248552
O O11 0.540630 0.884437 0.637211
O O12 0.500000 0.000000 0.500000
O O13 0.607767 0.022728 0.660421
O O14 0.326785 0.877243 0.184624
O O15 0.310922 0.873240 0.443725
O O16 0.711796 0.256901 0.901245
O O17 0.091397 0.160410 0.110905
#
# Coordination Sequence:
#
# PCOD9459198 Si02
#       8
#     8   8   8   8   8   8   8   8
#     4   9  19  32  55  85 113 145 199 244 289 332
#     4  11  21  41  57  89 120 151 200 249 296 355
#     4  10  20  37  58  85 117 153 197 248 290 355
#     4  11  20  35  56  87 116 147 192 233 301 349
#     4  12  24  35  63  90 116 158 192 246 305 365
#     4  10  21  36  60  88 112 153 204 246 287 348
#     4  10  19  34  57  83 117 148 194 253 279 344
#     4  11  20  37  59  88 112 151 202 252 280 347
#
# _framework density 18.989205999999999
#
# number of rings (size 3 to 8) (size 9 to 14) (size 15 to 20)
#    0.000    1.500    5.000    3.000    5.250    1.000 
#    0.000    0.000   11.000    0.000    0.000    0.000 
#    0.000    0.000    0.000    0.000    0.000    0.000 
#
# Total GULP energy -356396.840172 kJ/mol
# GULP energy per Si atom -5568.700628 kJ/mol
# Density = 1.894599 g / cm^3
# Si number density = 18.989206 Si / 1000 Ang^3
#
#
#
# Elastic Constant Matrix: (Units=GPa)
#
#
# Indices 1 2 3 4 5 6 
#
# 1 37.4507 39.7729 17.7642 0.0000 0.0000 0.0000
# 2 39.7729 90.8473 46.8248 0.0000 0.0000 0.0000
# 3 17.7642 46.8248 152.3484 0.0000 0.0000 0.0000
# 4 0.0000 0.0000 0.0000 45.1442 0.0000 0.0000
# 5 0.0000 0.0000 0.0000 0.0000 9.5366 0.0000
# 6 0.0000 0.0000 0.0000 0.0000 0.0000 17.8715
#
#
#
# Elastic Compliance Matrix: (Units=1/GPa)
#
#
# Indices 1 2 3 4 5 6 
#
# 1 0.050051 -0.022463 0.001068 0.000000 0.000000 0.000000
# 2 -0.022463 0.023161 -0.004499 0.000000 0.000000 0.000000
# 3 0.001068 -0.004499 0.007822 0.000000 0.000000 0.000000
# 4 0.000000 0.000000 0.000000 0.022151 0.000000 0.000000
# 5 0.000000 0.000000 0.000000 0.000000 0.104859 0.000000
# 6 0.000000 0.000000 0.000000 0.000000 0.000000 0.055955
#
#
# Mechanical properties :
#
#
# Convention : Reuss Voigt Hill
#
# Bulk Modulus (GPa) = 34.19314 54.37445 44.28379
# Shear Modulus (GPa) = 15.35929 26.26276 20.81102
#
# Velocity S-wave (km/s) = 2.84710 3.72295 3.31409
# Velocity P-wave (km/s) = 5.37156 6.86856 6.16566
#
# Compressibility (1/GPa) = 0.02924564
#
# Stress axis : x y z
#
# Youngs Moduli (GPa) = 19.97970 43.17659 127.84037
#
# Poissons Ratio (x) = 0.96986 -0.13653
# Poissons Ratio (y) = 0.44880 0.57519
# Poissons Ratio (z) = -0.02134 0.19426
#
# Static dielectric constant tensor:
#      x y z
#    x 1.651360 0.000000 0.000000 
#    y 0.000000 1.718040 0.000000 
#    z 0.000000 0.000000 2.155610 
# 
# From -- ./inp_files/3722.got.cif
#   From: 2010.05.17/outbox.cif.g08.bks.cpg/sg61_2_cif.got.tgz:3722.got - 2010.06.03 15:17:17.
