data_PCOD9459333
_publ_section_title
;
Structure prediction by ZEFSAII (Michael W. Deem and Ramdas Pophale) SiO2 
 PCOD9459333
Probable space group: P B C A
;
_chemical_formula_sum "Si O2"
_cell_formula_units_Z 64
_cell_length_a 13.595292
_cell_length_b 16.434464
_cell_length_c 11.804380
_cell_angle_alpha 90.000000
_cell_angle_beta 90.000000
_cell_angle_gamma 90.000000
_cell_volume 2637.468405
_symmetry_space_group_name_H-M "P B C A"
_symmetry_group_IT_number 61
_symmetry_cell_setting 'orthorhombic'
loop_
_space_group_symop_operation_xyz
x,y,z
1/2-x,-y,1/2+z
1/2+x,1/2-y,-z
-x,1/2+y,1/2-z
-x,-y,-z
1/2+x,y,1/2-z
1/2-x,1/2+y,z
x,1/2-y,1/2+z
loop_
_atom_site_type_symbol
_atom_site_label
_atom_site_fract_x
_atom_site_fract_y
_atom_site_fract_z
Si Si1 0.695632 0.548126 0.647331
Si Si2 0.758727 0.626652 0.115678
Si Si3 0.768473 0.711749 0.343377
Si Si4 0.920544 0.365921 0.949497
Si Si5 0.102776 0.138033 0.590972
Si Si6 0.574053 0.580465 0.031461
Si Si7 0.132988 0.404434 0.476483
Si Si8 0.993428 0.004199 0.270683
O O1 0.747717 0.461884 0.672775
O O2 0.641997 0.571049 0.527661
O O3 0.791131 0.605620 0.627442
O O4 0.600604 0.539612 0.727823
O O5 0.780241 0.689443 0.212635
O O6 0.655279 0.646779 0.057847
O O7 0.838928 0.611551 0.021071
O O8 0.656362 0.693630 0.385525
O O9 0.820859 0.797263 0.360472
O O10 0.831433 0.650541 0.421318
O O11 0.979566 0.420706 0.858502
O O12 0.999675 0.328365 0.037924
O O13 0.076464 0.065561 0.676285
O O14 0.482890 0.610583 0.957452
O O15 0.531425 0.545365 0.150640
O O16 0.632398 0.500310 0.988291
#
# Coordination Sequence:
#
# PCOD9459333 Si02
#       8
#     8   8   8   8   8   8   8   8
#     4   9  17  34  65  92 116 159 220 269 310 374
#     4  11  20  37  63  93 125 177 218 262 328 393
#     4  11  24  38  61  91 129 172 214 263 336 402
#     4  10  19  40  64  93 123 168 221 269 317 394
#     4  11  24  39  64  95 133 167 217 274 332 394
#     4  10  21  35  65  95 130 166 221 271 325 380
#     4   9  21  38  55  93 133 165 208 275 325 378
#     4  11  18  38  69  99 120 169 227 275 317 398
#
# _framework density 24.265692999999999
#
# number of rings (size 3 to 8) (size 9 to 14) (size 15 to 20)
#    0.000    1.750    3.750    1.500    0.000    2.000 
#    0.000    0.000    0.000   10.500    0.000    0.000 
#    0.000    0.000    0.000    0.000    0.000    0.000 
#
# Total GULP energy -356661.978095 kJ/mol
# GULP energy per Si atom -5572.843408 kJ/mol
# Density = 2.421046 g / cm^3
# Si number density = 24.265693 Si / 1000 Ang^3
#
#
#
# Elastic Constant Matrix: (Units=GPa)
#
#
# Indices 1 2 3 4 5 6 
#
# 1 158.1033 31.0829 37.4732 0.0000 0.0000 0.0000
# 2 31.0829 63.1663 26.6070 0.0000 0.0000 0.0000
# 3 37.4732 26.6070 63.0444 0.0000 0.0000 0.0000
# 4 0.0000 0.0000 0.0000 24.5585 0.0000 0.0000
# 5 0.0000 0.0000 0.0000 0.0000 27.4175 0.0000
# 6 0.0000 0.0000 0.0000 0.0000 0.0000 19.0047
#
#
#
# Elastic Compliance Matrix: (Units=1/GPa)
#
#
# Indices 1 2 3 4 5 6 
#
# 1 0.007614 -0.002238 -0.003581 0.000000 0.000000 0.000000
# 2 -0.002238 0.019912 -0.007073 0.000000 0.000000 0.000000
# 3 -0.003581 -0.007073 0.020975 0.000000 0.000000 0.000000
# 4 0.000000 0.000000 0.000000 0.040719 0.000000 0.000000
# 5 0.000000 0.000000 0.000000 0.000000 0.036473 0.000000
# 6 0.000000 0.000000 0.000000 0.000000 0.000000 0.052619
#
#
# Mechanical properties :
#
#
# Convention : Reuss Voigt Hill
#
# Bulk Modulus (GPa) = 44.02089 52.73781 48.37935
# Shear Modulus (GPa) = 23.62179 26.80619 25.21399
#
# Velocity S-wave (km/s) = 3.12342 3.32730 3.22697
# Velocity P-wave (km/s) = 5.58465 6.04499 5.81937
#
# Compressibility (1/GPa) = 0.02271649
#
# Stress axis : x y z
#
# Youngs Moduli (GPa) = 131.34124 50.22099 47.67470
#
# Poissons Ratio (x) = 0.11240 0.17072
# Poissons Ratio (y) = 0.29397 0.33721
# Poissons Ratio (z) = 0.47033 0.35522
#
# Static dielectric constant tensor:
#      x y z
#    x 2.060580 0.000000 0.000000 
#    y 0.000000 1.958450 0.000000 
#    z 0.000000 0.000000 2.002420 
# 
# From -- ./inp_files/8005.got.cif
#   From: 2010.05.17/outbox.cif.g08.bks.cpg/sg61_5_cif.got.tgz:8005.got - 2010.06.03 15:17:17.
