data_PCOD9459853
_publ_section_title
;
Structure prediction by ZEFSAII (Michael W. Deem and Ramdas Pophale) SiO2 
 PCOD9459853
Probable space group: P B C A
;
_chemical_formula_sum "Si O2"
_cell_formula_units_Z 64
_cell_length_a 19.333357
_cell_length_b 16.500543
_cell_length_c 9.016591
_cell_angle_alpha 90.000000
_cell_angle_beta 90.000000
_cell_angle_gamma 90.000000
_cell_volume 2876.390706
_symmetry_space_group_name_H-M "P B C A"
_symmetry_group_IT_number 61
_symmetry_cell_setting 'orthorhombic'
loop_
_space_group_symop_operation_xyz
x,y,z
1/2-x,-y,1/2+z
1/2+x,1/2-y,-z
-x,1/2+y,1/2-z
-x,-y,-z
1/2+x,y,1/2-z
1/2-x,1/2+y,z
x,1/2-y,1/2+z
loop_
_atom_site_type_symbol
_atom_site_label
_atom_site_fract_x
_atom_site_fract_y
_atom_site_fract_z
Si Si1 0.803500 0.838112 0.681479
Si Si2 0.242031 0.922737 0.557009
Si Si3 0.472533 0.825680 0.464815
Si Si4 0.759239 0.396027 0.404137
Si Si5 0.957484 0.851672 0.681987
Si Si6 0.394878 0.189971 0.711978
Si Si7 0.832307 0.649434 0.676692
Si Si8 0.092672 0.639709 0.052973
O O1 0.775851 0.851439 0.846363
O O2 0.745255 0.875696 0.577379
O O3 0.878643 0.880569 0.669092
O O4 0.814645 0.743491 0.649761
O O5 0.275042 0.907271 0.397855
O O6 0.159831 0.916352 0.556840
O O7 0.266507 0.008735 0.615685
O O8 0.462354 0.732584 0.411006
O O9 0.469707 0.834708 0.642278
O O10 0.545174 0.849749 0.390503
O O11 0.407181 0.869527 0.388415
O O12 0.821105 0.347245 0.329421
O O13 0.683705 0.365729 0.348093
O O14 0.021505 0.900036 0.611138
O O15 0.393982 0.284345 0.664420
O O16 0.411587 0.175089 0.885046
#
# Coordination Sequence:
#
# PCOD9459853 Si02
#       8
#     8   8   8   8   8   8   8   8
#     4  11  24  40  72  92 125 168 220 269 310 382
#     4  12  25  45  61  95 135 170 209 265 321 384
#     4  10  21  37  65  94 130 158 216 274 317 372
#     4  12  27  41  65  93 136 172 210 263 326 376
#     4  10  21  38  62  99 124 164 214 273 320 366
#     4  11  23  41  64  98 126 170 215 265 321 380
#     4  11  22  44  66  96 121 167 223 264 315 378
#     4  11  23  40  67  93 132 164 218 264 320 383
#
# _framework density 22.250105000000001
#
# number of rings (size 3 to 8) (size 9 to 14) (size 15 to 20)
#    0.000    1.000    2.500    6.000   10.500    0.000 
#    0.000    2.500    0.000    0.000    0.000    0.000 
#    0.000    0.000    0.000    0.000    0.000    0.000 
#
# Total GULP energy -357485.671665 kJ/mol
# GULP energy per Si atom -5585.713620 kJ/mol
# Density = 2.219946 g / cm^3
# Si number density = 22.250105 Si / 1000 Ang^3
#
#
#
# Elastic Constant Matrix: (Units=GPa)
#
#
# Indices 1 2 3 4 5 6 
#
# 1 94.9921 -1.2694 5.6357 0.0000 0.0000 0.0000
# 2 -1.2694 31.1176 -2.0241 0.0000 0.0000 0.0000
# 3 5.6357 -2.0241 90.3434 0.0000 0.0000 0.0000
# 4 0.0000 0.0000 0.0000 10.2938 0.0000 0.0000
# 5 0.0000 0.0000 0.0000 0.0000 38.5921 0.0000
# 6 0.0000 0.0000 0.0000 0.0000 0.0000 -2.9349
#
#
#
# Elastic Compliance Matrix: (Units=1/GPa)
#
#
# Indices 1 2 3 4 5 6 
#
# 1 0.010571 0.000389 -0.000651 0.000000 0.000000 0.000000
# 2 0.000389 0.032197 0.000697 0.000000 0.000000 0.000000
# 3 -0.000651 0.000697 0.011125 0.000000 0.000000 0.000000
# 4 0.000000 0.000000 0.000000 0.097146 0.000000 0.000000
# 5 0.000000 0.000000 0.000000 0.000000 0.025912 0.000000
# 6 0.000000 0.000000 0.000000 0.000000 0.000000 -0.340723
#
#
# Mechanical properties :
#
#
# Convention : Reuss Voigt Hill
#
# Bulk Modulus (GPa) = 18.26017 24.57084 21.41551
# Shear Modulus (GPa) = -34.15582 23.46425 -5.34578
#
# Velocity S-wave (km/s) = -3.92227 3.25093 -1.55171
# Velocity P-wave (km/s) = 3.50537 5.01582 2.53681
#
# Compressibility (1/GPa) = 0.05476399
#
# Stress axis : x y z
#
# Youngs Moduli (GPa) = 94.59849 31.05847 89.88693
#
# Poissons Ratio (x) = -0.01208 0.05849
# Poissons Ratio (y) = -0.03679 -0.06266
# Poissons Ratio (z) = 0.06156 -0.02165
#
# Static dielectric constant tensor:
#      x y z
#    x 1.872020 0.000000 0.000000 
#    y 0.000000 1.783510 0.000000 
#    z 0.000000 0.000000 1.789210 
# 
# From -- ./inp_files/4083.got.cif
#   From: 2010.05.17/outbox.cif.g08.bks.cpg/sg61_3_cif.got.tgz:4083.got - 2010.06.03 15:17:17.
