data_PCOD9459689
_publ_section_title
;
Structure prediction by ZEFSAII (Michael W. Deem and Ramdas Pophale) SiO2 
 PCOD9459689
Probable space group: P B C A
;
_chemical_formula_sum "Si O2"
_cell_formula_units_Z 60
_cell_length_a 12.554860
_cell_length_b 8.554170
_cell_length_c 24.202654
_cell_angle_alpha 90.000000
_cell_angle_beta 90.000000
_cell_angle_gamma 90.000000
_cell_volume 2599.278074
_symmetry_space_group_name_H-M "P B C A"
_symmetry_group_IT_number 61
_symmetry_cell_setting 'orthorhombic'
loop_
_space_group_symop_operation_xyz
x,y,z
1/2-x,-y,1/2+z
1/2+x,1/2-y,-z
-x,1/2+y,1/2-z
-x,-y,-z
1/2+x,y,1/2-z
1/2-x,1/2+y,z
x,1/2-y,1/2+z
loop_
_atom_site_type_symbol
_atom_site_label
_atom_site_fract_x
_atom_site_fract_y
_atom_site_fract_z
Si Si1 0.510276 0.895282 0.690415
Si Si2 0.400413 0.203330 0.903201
Si Si3 0.098431 0.612074 0.188813
Si Si4 0.132269 0.267816 0.047114
Si Si5 0.299002 0.778933 0.164593
Si Si6 0.000000 0.000000 0.000000
Si Si7 0.459587 0.690843 0.888165
Si Si8 0.217507 0.105789 0.436478
O O1 0.577746 0.759278 0.659012
O O2 0.534731 0.902933 0.754565
O O3 0.388362 0.847274 0.681129
O O4 0.537686 0.054052 0.657759
O O5 0.515880 0.177810 0.930535
O O6 0.343115 0.352726 0.933099
O O7 0.325800 0.056607 0.913506
O O8 0.189871 0.742162 0.194608
O O9 0.155477 0.448797 0.177111
O O10 0.027218 0.667538 0.137712
O O11 0.211487 0.263414 0.098609
O O12 0.103590 0.097620 0.024204
O O13 0.176905 0.373429 0.998510
O O14 0.997133 0.120939 0.945411
O O15 0.344114 0.764074 0.900213
#
# Coordination Sequence:
#
# PCOD9459689 Si02
#       8
#     8   8   8   8   8   4   8   8
#     4  11  24  47  70  97 144 180 234 291 339 417
#     4  11  23  43  63  99 135 174 236 272 349 413
#     4  12  27  44  73  99 141 188 234 294 343 415
#     4  10  23  42  68  94 140 173 220 288 341 424
#     4  11  25  46  66 108 135 182 240 282 355 410
#     4  10  20  40  74  92 136 174 218 284 348 414
#     4  11  22  44  69 103 134 182 227 285 357 402
#     4  11  25  39  69  97 134 180 221 282 346 419
#
# _framework density 23.083333
#
# number of rings (size 3 to 8) (size 9 to 14) (size 15 to 20)
#    0.000    1.067    2.667    4.400    1.867    7.467 
#    0.000    1.333    0.000    0.000    0.000    0.000 
#    0.000    0.000    0.000    0.000    0.000    0.000 
#
# Total GULP energy -334948.800922 kJ/mol
# GULP energy per Si atom -5582.480015 kJ/mol
# Density = 2.303079 g / cm^3
# Si number density = 23.083333 Si / 1000 Ang^3
#
#
#
# Elastic Constant Matrix: (Units=GPa)
#
#
# Indices 1 2 3 4 5 6 
#
# 1 47.0479 10.8683 12.6908 0.0000 0.0000 0.0000
# 2 10.8683 69.7537 9.6894 0.0000 0.0000 0.0000
# 3 12.6908 9.6894 93.4738 0.0000 0.0000 0.0000
# 4 0.0000 0.0000 0.0000 18.4493 0.0000 0.0000
# 5 0.0000 0.0000 0.0000 0.0000 13.2293 0.0000
# 6 0.0000 0.0000 0.0000 0.0000 0.0000 36.1306
#
#
#
# Elastic Compliance Matrix: (Units=1/GPa)
#
#
# Indices 1 2 3 4 5 6 
#
# 1 0.022729 -0.003158 -0.002758 0.000000 0.000000 0.000000
# 2 -0.003158 0.014984 -0.001124 0.000000 0.000000 0.000000
# 3 -0.002758 -0.001124 0.011189 0.000000 0.000000 0.000000
# 4 0.000000 0.000000 0.000000 0.054203 0.000000 0.000000
# 5 0.000000 0.000000 0.000000 0.000000 0.075590 0.000000
# 6 0.000000 0.000000 0.000000 0.000000 0.000000 0.027677
#
#
# Mechanical properties :
#
#
# Convention : Reuss Voigt Hill
#
# Bulk Modulus (GPa) = 28.71907 30.75247 29.73577
# Shear Modulus (GPa) = 21.54606 25.36363 23.45484
#
# Velocity S-wave (km/s) = 3.05848 3.31839 3.19108
# Velocity P-wave (km/s) = 4.99408 5.29467 5.14657
#
# Compressibility (1/GPa) = 0.03482007
#
# Stress axis : x y z
#
# Youngs Moduli (GPa) = 43.99753 66.73593 89.37146
#
# Poissons Ratio (x) = 0.21076 0.24653
# Poissons Ratio (y) = 0.13895 0.10050
# Poissons Ratio (z) = 0.12136 0.07504
#
# Static dielectric constant tensor:
#      x y z
#    x 1.828350 0.000000 0.000000 
#    y 0.000000 1.806910 0.000000 
#    z 0.000000 0.000000 1.798180 
# 
# From -- ./inp_files/11463.got.cif
#   From: 2010.05.17/outbox.cif.g08.bks.cpg/sg61_6_cif.got.tgz:11463.got - 2010.06.03 15:17:17.
