data_PCOD9459942
_publ_section_title
;
Structure prediction by ZEFSAII (Michael W. Deem and Ramdas Pophale) SiO2 
 PCOD9459942
Probable space group: P B C A
;
_chemical_formula_sum "Si O2"
_cell_formula_units_Z 64
_cell_length_a 11.634568
_cell_length_b 10.942095
_cell_length_c 22.878349
_cell_angle_alpha 90.000000
_cell_angle_beta 90.000000
_cell_angle_gamma 90.000000
_cell_volume 2912.563643
_symmetry_space_group_name_H-M "P B C A"
_symmetry_group_IT_number 61
_symmetry_cell_setting 'orthorhombic'
loop_
_space_group_symop_operation_xyz
x,y,z
1/2-x,-y,1/2+z
1/2+x,1/2-y,-z
-x,1/2+y,1/2-z
-x,-y,-z
1/2+x,y,1/2-z
1/2-x,1/2+y,z
x,1/2-y,1/2+z
loop_
_atom_site_type_symbol
_atom_site_label
_atom_site_fract_x
_atom_site_fract_y
_atom_site_fract_z
Si Si1 0.624605 0.475552 0.888165
Si Si2 0.069016 0.746772 0.634634
Si Si3 0.828597 0.548510 0.263001
Si Si4 0.920025 0.325912 0.631135
Si Si5 0.447814 0.428277 0.416824
Si Si6 0.160211 0.575482 0.038531
Si Si7 0.662749 0.164736 0.142961
Si Si8 0.578407 0.558280 0.258395
O O1 0.621516 0.612831 0.862855
O O2 0.663904 0.403591 0.829391
O O3 0.499948 0.421929 0.902897
O O4 0.713650 0.460100 0.940205
O O5 0.120517 0.809695 0.577213
O O6 0.082076 0.843660 0.688201
O O7 0.930878 0.733195 0.628684
O O8 0.823381 0.652152 0.212870
O O9 0.701115 0.487079 0.259139
O O10 0.954063 0.489477 0.246150
O O11 0.965831 0.190742 0.621413
O O12 0.786431 0.322973 0.614464
O O13 0.923281 0.367067 0.698190
O O14 0.363020 0.401959 0.470868
O O15 0.570060 0.470229 0.442548
O O16 0.393247 0.539282 0.380719
#
# Coordination Sequence:
#
# PCOD9459942 Si02
#       8
#     8   8   8   8   8   8   8   8
#     4  11  23  37  66  98 126 156 218 266 313 373
#     4  10  21  39  63  91 128 167 201 262 315 368
#     4   9  18  36  57  91 128 162 203 256 311 384
#     4  10  23  40  63  96 123 162 213 256 313 385
#     4  10  23  43  67  84 125 175 207 258 320 374
#     4  10  23  44  62  92 122 166 217 258 313 378
#     4   9  21  41  62  89 131 166 209 251 321 381
#     4   9  18  36  58  89 129 162 203 250 317 374
#
# _framework density 21.973768
#
# number of rings (size 3 to 8) (size 9 to 14) (size 15 to 20)
#    0.000    2.250    1.250    0.000    5.250    1.000 
#    4.500    2.500    0.000    0.000    0.000    0.000 
#    0.000    0.000    0.000    0.000    0.000    0.000 
#
# Total GULP energy -356605.432161 kJ/mol
# GULP energy per Si atom -5571.959878 kJ/mol
# Density = 2.192375 g / cm^3
# Si number density = 21.973768 Si / 1000 Ang^3
#
#
#
# Elastic Constant Matrix: (Units=GPa)
#
#
# Indices 1 2 3 4 5 6 
#
# 1 152.0929 13.8394 25.0012 0.0000 0.0000 0.0000
# 2 13.8394 36.7642 18.2949 0.0000 0.0000 0.0000
# 3 25.0012 18.2949 70.8981 0.0000 0.0000 0.0000
# 4 0.0000 0.0000 0.0000 11.9003 0.0000 0.0000
# 5 0.0000 0.0000 0.0000 0.0000 26.7222 0.0000
# 6 0.0000 0.0000 0.0000 0.0000 0.0000 7.5753
#
#
#
# Elastic Compliance Matrix: (Units=1/GPa)
#
#
# Indices 1 2 3 4 5 6 
#
# 1 0.007063 -0.001629 -0.002071 0.000000 0.000000 0.000000
# 2 -0.001629 0.031583 -0.007576 0.000000 0.000000 0.000000
# 3 -0.002071 -0.007576 0.016790 0.000000 0.000000 0.000000
# 4 0.000000 0.000000 0.000000 0.084032 0.000000 0.000000
# 5 0.000000 0.000000 0.000000 0.000000 0.037422 0.000000
# 6 0.000000 0.000000 0.000000 0.000000 0.000000 0.132008
#
#
# Mechanical properties :
#
#
# Convention : Reuss Voigt Hill
#
# Bulk Modulus (GPa) = 30.40718 41.55846 35.98282
# Shear Modulus (GPa) = 14.60237 22.74753 18.67495
#
# Velocity S-wave (km/s) = 2.58066 3.22096 2.91842
# Velocity P-wave (km/s) = 4.76946 5.72596 5.26946
#
# Compressibility (1/GPa) = 0.03288697
#
# Stress axis : x y z
#
# Youngs Moduli (GPa) = 141.57322 31.66237 59.56011
#
# Poissons Ratio (x) = 0.05156 0.12333
# Poissons Ratio (y) = 0.23056 0.45120
# Poissons Ratio (z) = 0.29314 0.23986
#
# Static dielectric constant tensor:
#      x y z
#    x 1.935910 0.000000 0.000000 
#    y 0.000000 1.771920 0.000000 
#    z 0.000000 0.000000 1.796000 
# 
# From -- ./inp_files/11019.got.cif
#   From: 2010.05.17/outbox.cif.g08.bks.cpg/sg61_6_cif.got.tgz:11019.got - 2010.06.03 15:17:17.
