data_PCOD9459515
_publ_section_title
;
Structure prediction by ZEFSAII (Michael W. Deem and Ramdas Pophale) SiO2 
 PCOD9459515
Probable space group: P B C A
;
_chemical_formula_sum "Si O2"
_cell_formula_units_Z 56
_cell_length_a 23.255475
_cell_length_b 5.128981
_cell_length_c 21.636002
_cell_angle_alpha 90.000000
_cell_angle_beta 90.000000
_cell_angle_gamma 90.000000
_cell_volume 2580.675018
_symmetry_space_group_name_H-M "P B C A"
_symmetry_group_IT_number 61
_symmetry_cell_setting 'orthorhombic'
loop_
_space_group_symop_operation_xyz
x,y,z
1/2-x,-y,1/2+z
1/2+x,1/2-y,-z
-x,1/2+y,1/2-z
-x,-y,-z
1/2+x,y,1/2-z
1/2-x,1/2+y,z
x,1/2-y,1/2+z
loop_
_atom_site_type_symbol
_atom_site_label
_atom_site_fract_x
_atom_site_fract_y
_atom_site_fract_z
Si Si1 0.032576 0.754524 0.818692
Si Si2 0.281042 0.030693 0.372392
Si Si3 0.584258 0.568503 0.304841
Si Si4 0.713508 0.505860 0.276425
Si Si5 0.528397 0.887706 0.401711
Si Si6 0.938749 0.758728 0.004872
Si Si7 0.608419 0.714207 0.567317
O O1 0.070575 0.767366 0.757376
O O2 0.069787 0.630294 0.873668
O O3 0.970703 0.625093 0.806389
O O4 0.016873 0.037404 0.847711
O O5 0.228428 0.227659 0.388147
O O6 0.289649 0.025808 0.298445
O O7 0.332862 0.177673 0.405110
O O8 0.648522 0.460253 0.299342
O O9 0.578514 0.741109 0.366393
O O10 0.756888 0.276623 0.295449
O O11 0.497503 0.721345 0.455394
O O12 0.547895 0.155592 0.435019
O O13 0.895581 0.526247 0.020081
O O14 0.916441 0.029937 0.034045
#
# Coordination Sequence:
#
# PCOD9459515 Si02
#       7
#     8   8   8   8   8   8   8
#     4  11  23  35  61  98 126 162 193 262 328 373
#     4  10  20  37  61  88 119 159 207 261 310 361
#     4  12  22  39  62  94 133 160 204 263 317 378
#     4  10  24  41  61  88 124 171 209 246 303 374
#     4  10  23  38  57  92 126 167 200 248 313 381
#     4  10  23  38  61  87 129 163 207 245 308 383
#     4  11  21  40  61  91 124 161 205 257 311 372
#
# _framework density 21.699748
#
# number of rings (size 3 to 8) (size 9 to 14) (size 15 to 20)
#    0.000    1.429    4.286    0.857    4.000    1.714 
#    2.571    0.000    0.000    5.143    0.000    0.000 
#    0.000    0.000    0.000    0.000    0.000    0.000 
#
# Total GULP energy -312617.922559 kJ/mol
# GULP energy per Si atom -5582.462903 kJ/mol
# Density = 2.165036 g / cm^3
# Si number density = 21.699748 Si / 1000 Ang^3
#
#
#
# Elastic Constant Matrix: (Units=GPa)
#
#
# Indices 1 2 3 4 5 6 
#
# 1 74.8443 -3.9493 9.5409 0.0000 0.0000 0.0000
# 2 -3.9493 70.9912 20.2771 0.0000 0.0000 0.0000
# 3 9.5409 20.2771 65.5699 0.0000 0.0000 0.0000
# 4 0.0000 0.0000 0.0000 27.1381 0.0000 0.0000
# 5 0.0000 0.0000 0.0000 0.0000 26.7887 0.0000
# 6 0.0000 0.0000 0.0000 0.0000 0.0000 28.4906
#
#
#
# Elastic Compliance Matrix: (Units=1/GPa)
#
#
# Indices 1 2 3 4 5 6 
#
# 1 0.013751 0.001466 -0.002454 0.000000 0.000000 0.000000
# 2 0.001466 0.015607 -0.005040 0.000000 0.000000 0.000000
# 3 -0.002454 -0.005040 0.017167 0.000000 0.000000 0.000000
# 4 0.000000 0.000000 0.000000 0.036849 0.000000 0.000000
# 5 0.000000 0.000000 0.000000 0.000000 0.037329 0.000000
# 6 0.000000 0.000000 0.000000 0.000000 0.000000 0.035099
#
#
# Mechanical properties :
#
#
# Convention : Reuss Voigt Hill
#
# Bulk Modulus (GPa) = 29.01156 29.23811 29.12484
# Shear Modulus (GPa) = 27.87877 28.85259 28.36568
#
# Velocity S-wave (km/s) = 3.58823 3.65036 3.61943
# Velocity P-wave (km/s) = 5.52863 5.59196 5.56039
#
# Compressibility (1/GPa) = 0.03446902
#
# Stress axis : x y z
#
# Youngs Moduli (GPa) = 72.72049 64.07258 58.25292
#
# Poissons Ratio (x) = -0.09393 0.14297
# Poissons Ratio (y) = -0.10661 0.29358
# Poissons Ratio (z) = 0.17848 0.32291
#
# Static dielectric constant tensor:
#      x y z
#    x 1.820190 0.000000 0.000000 
#    y 0.000000 1.855400 0.000000 
#    z 0.000000 0.000000 1.823810 
# 
# From -- ./inp_files/1053.got.cif
#   From: 2010.05.17/outbox.cif.g08.bks.cpg/sg61_1_cif.got.tgz:1053.got - 2010.06.03 15:17:17.
