data_PCOD9459671
_publ_section_title
;
Structure prediction by ZEFSAII (Michael W. Deem and Ramdas Pophale) SiO2 
 PCOD9459671
Probable space group: P B C A
;
_chemical_formula_sum "Si O2"
_cell_formula_units_Z 40
_cell_length_a 13.827066
_cell_length_b 9.177962
_cell_length_c 14.456038
_cell_angle_alpha 90.000000
_cell_angle_beta 90.000000
_cell_angle_gamma 90.000000
_cell_volume 1834.533185
_symmetry_space_group_name_H-M "P B C A"
_symmetry_group_IT_number 61
_symmetry_cell_setting 'orthorhombic'
loop_
_space_group_symop_operation_xyz
x,y,z
1/2-x,-y,1/2+z
1/2+x,1/2-y,-z
-x,1/2+y,1/2-z
-x,-y,-z
1/2+x,y,1/2-z
1/2-x,1/2+y,z
x,1/2-y,1/2+z
loop_
_atom_site_type_symbol
_atom_site_label
_atom_site_fract_x
_atom_site_fract_y
_atom_site_fract_z
Si Si1 0.266053 0.814407 0.616079
Si Si2 0.062373 0.784571 0.144816
Si Si3 0.050882 0.672602 0.936258
Si Si4 0.969402 0.612789 0.296204
Si Si5 0.342125 0.563872 0.518268
O O1 0.175707 0.739222 0.666765
O O2 0.362062 0.833764 0.675975
O O3 0.293911 0.722301 0.522987
O O4 0.225913 0.969304 0.584325
O O5 0.997771 0.661766 0.193971
O O6 0.027243 0.942509 0.178701
O O7 0.057088 0.757320 0.034597
O O8 0.045041 0.793637 0.857846
O O9 0.947106 0.592558 0.937222
O O10 0.132485 0.546615 0.934833
#
# Coordination Sequence:
#
# PCOD9459671 Si02
#       5
#     8   8   8   8   8
#     4  10  20  40  64  94 130 176 214 264 336 384
#     4  11  24  40  69  96 134 175 221 271 329 397
#     4   9  21  40  66  91 129 174 222 265 331 390
#     4  11  24  40  69  96 134 175 221 271 329 397
#     4   9  18  36  66  89 120 169 216 261 320 389
#
# _framework density 21.803910999999999
#
# number of rings (size 3 to 8) (size 9 to 14) (size 15 to 20)
#    0.000    2.000    2.000    0.600   14.000    0.000 
#    0.000    8.000    0.000    0.000    0.000    0.000 
#    0.000    0.000    0.000    0.000    0.000    0.000 
#
# Total GULP energy -222935.371259 kJ/mol
# GULP energy per Si atom -5573.384281 kJ/mol
# Density = 2.175428 g / cm^3
# Si number density = 21.803911 Si / 1000 Ang^3
#
#
#
# Elastic Constant Matrix: (Units=GPa)
#
#
# Indices 1 2 3 4 5 6 
#
# 1 92.0356 28.0765 16.3257 0.0000 0.0000 0.0000
# 2 28.0765 116.3753 14.1573 0.0000 0.0000 0.0000
# 3 16.3257 14.1573 51.7101 0.0000 0.0000 0.0000
# 4 0.0000 0.0000 0.0000 33.2887 0.0000 0.0000
# 5 0.0000 0.0000 0.0000 0.0000 20.8140 0.0000
# 6 0.0000 0.0000 0.0000 0.0000 0.0000 6.6148
#
#
#
# Elastic Compliance Matrix: (Units=1/GPa)
#
#
# Indices 1 2 3 4 5 6 
#
# 1 0.012206 -0.002561 -0.003152 0.000000 0.000000 0.000000
# 2 -0.002561 0.009426 -0.001772 0.000000 0.000000 0.000000
# 3 -0.003152 -0.001772 0.020819 0.000000 0.000000 0.000000
# 4 0.000000 0.000000 0.000000 0.030040 0.000000 0.000000
# 5 0.000000 0.000000 0.000000 0.000000 0.048045 0.000000
# 6 0.000000 0.000000 0.000000 0.000000 0.000000 0.151177
#
#
# Mechanical properties :
#
#
# Convention : Reuss Voigt Hill
#
# Bulk Modulus (GPa) = 36.39044 41.91555 39.15300
# Shear Modulus (GPa) = 16.90078 25.58091 21.24085
#
# Velocity S-wave (km/s) = 2.78713 3.42895 3.12457
# Velocity P-wave (km/s) = 5.20419 5.91122 5.56894
#
# Compressibility (1/GPa) = 0.02747974
#
# Stress axis : x y z
#
# Youngs Moduli (GPa) = 81.92761 106.08498 48.03300
#
# Poissons Ratio (x) = 0.27171 0.15142
# Poissons Ratio (y) = 0.20984 0.08512
# Poissons Ratio (z) = 0.25827 0.18800
#
# Static dielectric constant tensor:
#      x y z
#    x 1.805210 0.000000 0.000000 
#    y 0.000000 1.840950 0.000000 
#    z 0.000000 0.000000 1.814810 
# 
# From -- ./inp_files/2646.got.cif
#   From: 2010.05.17/outbox.cif.g08.bks.cpg/sg61_2_cif.got.tgz:2646.got - 2010.06.03 15:17:17.
