data_PCOD9459206
_publ_section_title
;
Structure prediction by ZEFSAII (Michael W. Deem and Ramdas Pophale) SiO2 
 PCOD9459206
Probable space group: P B C A
;
_chemical_formula_sum "Si O2"
_cell_formula_units_Z 48
_cell_length_a 8.094444
_cell_length_b 14.920951
_cell_length_c 17.749567
_cell_angle_alpha 90.000000
_cell_angle_beta 90.000000
_cell_angle_gamma 90.000000
_cell_volume 2143.735944
_symmetry_space_group_name_H-M "P B C A"
_symmetry_group_IT_number 61
_symmetry_cell_setting 'orthorhombic'
loop_
_space_group_symop_operation_xyz
x,y,z
1/2-x,-y,1/2+z
1/2+x,1/2-y,-z
-x,1/2+y,1/2-z
-x,-y,-z
1/2+x,y,1/2-z
1/2-x,1/2+y,z
x,1/2-y,1/2+z
loop_
_atom_site_type_symbol
_atom_site_label
_atom_site_fract_x
_atom_site_fract_y
_atom_site_fract_z
Si Si1 0.460207 0.919401 0.866211
Si Si2 0.519800 0.170641 0.414537
Si Si3 0.685968 0.432067 0.788465
Si Si4 0.209441 0.501061 0.458269
Si Si5 0.871969 0.226332 0.460892
Si Si6 0.098720 0.580018 0.605555
O O1 0.325688 0.914342 0.799708
O O2 0.628544 0.931661 0.819901
O O3 0.388607 0.995113 0.921879
O O4 0.491657 0.833632 0.918817
O O5 0.579640 0.145804 0.330625
O O6 0.394745 0.090743 0.435319
O O7 0.697352 0.176892 0.456254
O O8 0.425871 0.253862 0.453322
O O9 0.617754 0.530132 0.814644
O O10 0.201435 0.515006 0.548031
O O11 0.091207 0.427873 0.420864
O O12 0.850637 0.318482 0.412404
#
# Coordination Sequence:
#
# PCOD9459206 Si02
#       6
#     8   8   8   8   8   8
#     4  11  22  38  60  81 113 153 190 229 294 347
#     4   9  18  33  55  82 115 146 184 227 281 336
#     4  10  21  37  56  81 114 156 189 231 290 349
#     4   9  18  35  57  82 114 154 185 228 282 343
#     4  10  19  34  59  88 113 149 191 238 278 335
#     4   9  18  35  57  82 113 144 191 235 275 329
#
# _framework density 22.390816999999998
#
# number of rings (size 3 to 8) (size 9 to 14) (size 15 to 20)
#    0.000    2.333    0.000    5.000    0.000    0.667 
#    0.000   13.333    0.000    0.000    0.000    0.000 
#    0.000    0.000    0.000    0.000    0.000    0.000 
#
# Total GULP energy -267314.646427 kJ/mol
# GULP energy per Si atom -5569.055134 kJ/mol
# Density = 2.233985 g / cm^3
# Si number density = 22.390817 Si / 1000 Ang^3
#
#
#
# Elastic Constant Matrix: (Units=GPa)
#
#
# Indices 1 2 3 4 5 6 
#
# 1 80.4097 16.6309 19.1534 0.0000 0.0000 0.0000
# 2 16.6309 76.1632 6.9183 0.0000 0.0000 0.0000
# 3 19.1534 6.9183 67.3197 0.0000 0.0000 0.0000
# 4 0.0000 0.0000 0.0000 18.2066 0.0000 0.0000
# 5 0.0000 0.0000 0.0000 0.0000 40.7130 0.0000
# 6 0.0000 0.0000 0.0000 0.0000 0.0000 39.3272
#
#
#
# Elastic Compliance Matrix: (Units=1/GPa)
#
#
# Indices 1 2 3 4 5 6 
#
# 1 0.013868 -0.002695 -0.003669 0.000000 0.000000 0.000000
# 2 -0.002695 0.013777 -0.000649 0.000000 0.000000 0.000000
# 3 -0.003669 -0.000649 0.015965 0.000000 0.000000 0.000000
# 4 0.000000 0.000000 0.000000 0.054925 0.000000 0.000000
# 5 0.000000 0.000000 0.000000 0.000000 0.024562 0.000000
# 6 0.000000 0.000000 0.000000 0.000000 0.000000 0.025428
#
#
# Mechanical properties :
#
#
# Convention : Reuss Voigt Hill
#
# Bulk Modulus (GPa) = 33.80149 34.36644 34.08396
# Shear Modulus (GPa) = 29.00044 31.72868 30.36456
#
# Velocity S-wave (km/s) = 3.60278 3.76844 3.68654
# Velocity P-wave (km/s) = 5.69523 5.85804 5.77721
#
# Compressibility (1/GPa) = 0.02958450
#
# Stress axis : x y z
#
# Youngs Moduli (GPa) = 72.11090 72.58417 62.63721
#
# Poissons Ratio (x) = 0.19560 0.22979
# Poissons Ratio (y) = 0.19433 0.04066
# Poissons Ratio (z) = 0.26454 0.04712
#
# Static dielectric constant tensor:
#      x y z
#    x 1.898880 0.000000 0.000000 
#    y 0.000000 1.880960 0.000000 
#    z 0.000000 0.000000 1.840890 
# 
# From -- ./inp_files/8921.got.cif
#   From: 2010.05.17/outbox.cif.g08.bks.cpg/sg61_5_cif.got.tgz:8921.got - 2010.06.03 15:17:17.
