data_PCOD9459374
_publ_section_title
;
Structure prediction by ZEFSAII (Michael W. Deem and Ramdas Pophale) SiO2 
 PCOD9459374
Probable space group: P B C A
;
_chemical_formula_sum "Si O2"
_cell_formula_units_Z 64
_cell_length_a 8.411312
_cell_length_b 22.512165
_cell_length_c 16.747786
_cell_angle_alpha 90.000000
_cell_angle_beta 90.000000
_cell_angle_gamma 90.000000
_cell_volume 3171.307894
_symmetry_space_group_name_H-M "P B C A"
_symmetry_group_IT_number 61
_symmetry_cell_setting 'orthorhombic'
loop_
_space_group_symop_operation_xyz
x,y,z
1/2-x,-y,1/2+z
1/2+x,1/2-y,-z
-x,1/2+y,1/2-z
-x,-y,-z
1/2+x,y,1/2-z
1/2-x,1/2+y,z
x,1/2-y,1/2+z
loop_
_atom_site_type_symbol
_atom_site_label
_atom_site_fract_x
_atom_site_fract_y
_atom_site_fract_z
Si Si1 0.308679 0.026787 0.876900
Si Si2 0.742808 0.609539 0.767331
Si Si3 0.614885 0.074652 0.924996
Si Si4 0.927793 0.312127 0.025639
Si Si5 0.680822 0.591389 0.086210
Si Si6 0.375758 0.883517 0.490501
Si Si7 0.693621 0.219207 0.103516
Si Si8 0.987977 0.819922 0.166191
O O1 0.334290 0.066062 0.797716
O O2 0.483000 0.023690 0.916501
O O3 0.225288 0.964472 0.859522
O O4 0.195363 0.061724 0.939620
O O5 0.775162 0.573708 0.847716
O O6 0.660565 0.670207 0.798650
O O7 0.893708 0.632763 0.719264
O O8 0.512674 0.136395 0.922771
O O9 0.718645 0.077842 0.004766
O O10 0.778996 0.345674 0.982954
O O11 0.064101 0.288554 0.967571
O O12 0.841053 0.260648 0.075732
O O13 0.498480 0.597432 0.058267
O O14 0.741700 0.653837 0.120832
O O15 0.470078 0.842929 0.425211
O O16 0.595353 0.256315 0.168940
#
# Coordination Sequence:
#
# PCOD9459374 Si02
#       8
#     8   8   8   8   8   8   8   8
#     4  10  21  35  55  87 118 148 201 247 285 347
#     4  11  20  36  59  81 108 148 204 244 279 335
#     4  10  20  35  58  85 109 151 194 242 293 332
#     4   9  19  32  54  87 116 139 185 237 284 349
#     4  11  20  35  58  85 123 153 185 242 307 347
#     4   9  18  34  54  85 114 146 195 238 286 338
#     4  10  20  33  54  84 121 147 180 233 299 353
#     4  10  20  34  56  81 107 145 194 242 279 342
#
# _framework density 20.180947
#
# number of rings (size 3 to 8) (size 9 to 14) (size 15 to 20)
#    0.000    2.000    2.500    3.000    1.750    0.000 
#    0.000    0.000    2.750    0.000    0.000    0.000 
#    0.000    0.000    0.000    0.000    0.000    0.000 
#
# Total GULP energy -356674.639594 kJ/mol
# GULP energy per Si atom -5573.041244 kJ/mol
# Density = 2.013501 g / cm^3
# Si number density = 20.180947 Si / 1000 Ang^3
#
#
#
# Elastic Constant Matrix: (Units=GPa)
#
#
# Indices 1 2 3 4 5 6 
#
# 1 41.9687 -4.1266 3.3052 0.0000 0.0000 0.0000
# 2 -4.1266 54.1228 -3.7900 0.0000 0.0000 0.0000
# 3 3.3052 -3.7900 41.4487 0.0000 0.0000 0.0000
# 4 0.0000 0.0000 0.0000 18.6884 0.0000 0.0000
# 5 0.0000 0.0000 0.0000 0.0000 16.6017 0.0000
# 6 0.0000 0.0000 0.0000 0.0000 0.0000 14.9059
#
#
#
# Elastic Compliance Matrix: (Units=1/GPa)
#
#
# Indices 1 2 3 4 5 6 
#
# 1 0.024135 0.001716 -0.001768 0.000000 0.000000 0.000000
# 2 0.001716 0.018718 0.001575 0.000000 0.000000 0.000000
# 3 -0.001768 0.001575 0.024411 0.000000 0.000000 0.000000
# 4 0.000000 0.000000 0.000000 0.053509 0.000000 0.000000
# 5 0.000000 0.000000 0.000000 0.000000 0.060235 0.000000
# 6 0.000000 0.000000 0.000000 0.000000 0.000000 0.067088
#
#
# Mechanical properties :
#
#
# Convention : Reuss Voigt Hill
#
# Bulk Modulus (GPa) = 14.22255 14.25748 14.24001
# Shear Modulus (GPa) = 18.62297 19.51598 19.06948
#
# Velocity S-wave (km/s) = 3.04106 3.11312 3.07730
# Velocity P-wave (km/s) = 4.40381 4.47238 4.43822
#
# Compressibility (1/GPa) = 0.07031090
#
# Stress axis : x y z
#
# Youngs Moduli (GPa) = 41.43317 53.42550 40.96484
#
# Poissons Ratio (x) = -0.09170 0.07241
# Poissons Ratio (y) = -0.07112 -0.06451
# Poissons Ratio (z) = 0.07324 -0.08413
#
# Static dielectric constant tensor:
#      x y z
#    x 1.756080 0.000000 0.000000 
#    y 0.000000 1.748450 0.000000 
#    z 0.000000 0.000000 1.701630 
# 
# From -- ./inp_files/4087.got.cif
#   From: 2010.05.17/outbox.cif.g08.bks.cpg/sg61_3_cif.got.tgz:4087.got - 2010.06.03 15:17:17.
