data_PCOD9459651
_publ_section_title
;
Structure prediction by ZEFSAII (Michael W. Deem and Ramdas Pophale) SiO2 
 PCOD9459651
Probable space group: P B C A
;
_chemical_formula_sum "Si O2"
_cell_formula_units_Z 56
_cell_length_a 10.892044
_cell_length_b 13.219392
_cell_length_c 13.930520
_cell_angle_alpha 90.000000
_cell_angle_beta 90.000000
_cell_angle_gamma 90.000000
_cell_volume 2005.802629
_symmetry_space_group_name_H-M "P B C A"
_symmetry_group_IT_number 61
_symmetry_cell_setting 'orthorhombic'
loop_
_space_group_symop_operation_xyz
x,y,z
1/2-x,-y,1/2+z
1/2+x,1/2-y,-z
-x,1/2+y,1/2-z
-x,-y,-z
1/2+x,y,1/2-z
1/2-x,1/2+y,z
x,1/2-y,1/2+z
loop_
_atom_site_type_symbol
_atom_site_label
_atom_site_fract_x
_atom_site_fract_y
_atom_site_fract_z
Si Si1 0.663489 0.397311 0.540899
Si Si2 0.753111 0.392275 0.216788
Si Si3 0.866708 0.452227 0.417198
Si Si4 0.433906 0.371247 0.443270
Si Si5 0.817733 0.380104 0.871971
Si Si6 0.923258 0.053578 0.190917
Si Si7 0.383637 0.711224 0.257917
O O1 0.806014 0.392404 0.506054
O O2 0.579512 0.354978 0.451196
O O3 0.604054 0.509549 0.549609
O O4 0.632239 0.333613 0.635295
O O5 0.821606 0.404591 0.316924
O O6 0.847843 0.339620 0.144237
O O7 0.712579 0.503479 0.177779
O O8 0.626172 0.331020 0.228775
O O9 0.787535 0.554897 0.421978
O O10 0.002015 0.489394 0.389428
O O11 0.386975 0.324413 0.543825
O O12 0.908392 0.451962 0.809404
O O13 0.744261 0.313808 0.796106
O O14 0.005911 0.157190 0.199522
#
# Coordination Sequence:
#
# PCOD9459651 Si02
#       7
#     8   8   8   8   8   8   8
#     4  10  20  40  69  93 124 187 225 274 357 428
#     4  11  25  38  64 104 135 176 234 297 337 419
#     4   9  21  37  65  93 126 169 227 283 340 411
#     4  10  20  39  69  93 128 175 233 280 348 422
#     4   9  19  38  68  92 126 177 222 285 343 416
#     4  10  20  44  67  95 134 180 229 282 351 415
#     4  11  23  42  64 100 139 181 232 285 360 421
#
# _framework density 27.918998999999999
#
# number of rings (size 3 to 8) (size 9 to 14) (size 15 to 20)
#    0.000    2.000    1.429    2.571    8.000    2.286 
#    2.571   11.429    0.000    0.000    0.000    0.000 
#    0.000    0.000    0.000    0.000    0.000    0.000 
#
# Total GULP energy -311854.214444 kJ/mol
# GULP energy per Si atom -5568.825258 kJ/mol
# Density = 2.785545 g / cm^3
# Si number density = 27.918999 Si / 1000 Ang^3
#
#
#
# Elastic Constant Matrix: (Units=GPa)
#
#
# Indices 1 2 3 4 5 6 
#
# 1 108.7440 25.7202 28.6462 0.0000 0.0000 0.0000
# 2 25.7202 73.3670 9.4164 0.0000 0.0000 0.0000
# 3 28.6462 9.4164 109.5860 0.0000 0.0000 0.0000
# 4 0.0000 0.0000 0.0000 16.5335 0.0000 0.0000
# 5 0.0000 0.0000 0.0000 0.0000 49.2675 0.0000
# 6 0.0000 0.0000 0.0000 0.0000 0.0000 32.1012
#
#
#
# Elastic Compliance Matrix: (Units=1/GPa)
#
#
# Indices 1 2 3 4 5 6 
#
# 1 0.010661 -0.003417 -0.002493 0.000000 0.000000 0.000000
# 2 -0.003417 0.014878 -0.000385 0.000000 0.000000 0.000000
# 3 -0.002493 -0.000385 0.009810 0.000000 0.000000 0.000000
# 4 0.000000 0.000000 0.000000 0.060483 0.000000 0.000000
# 5 0.000000 0.000000 0.000000 0.000000 0.020297 0.000000
# 6 0.000000 0.000000 0.000000 0.000000 0.000000 0.031151
#
#
# Mechanical properties :
#
#
# Convention : Reuss Voigt Hill
#
# Bulk Modulus (GPa) = 43.94192 46.58473 45.26333
# Shear Modulus (GPa) = 29.85831 34.77473 32.31652
#
# Velocity S-wave (km/s) = 3.27381 3.53308 3.40591
# Velocity P-wave (km/s) = 5.48304 5.77628 5.63157
#
# Compressibility (1/GPa) = 0.02275731
#
# Stress axis : x y z
#
# Youngs Moduli (GPa) = 93.80009 67.21532 101.93608
#
# Poissons Ratio (x) = 0.22970 0.25414
# Poissons Ratio (y) = 0.32055 0.03925
# Poissons Ratio (z) = 0.23386 0.02588
#
# Static dielectric constant tensor:
#      x y z
#    x 2.244340 0.000000 0.000000 
#    y 0.000000 2.255070 0.000000 
#    z 0.000000 0.000000 2.259980 
# 
# From -- ./inp_files/7507.got.cif
#   From: 2010.05.17/outbox.cif.g08.bks.cpg/sg61_4_cif.got.tgz:7507.got - 2010.06.03 15:17:17.
