data_PCOD9459399
_publ_section_title
;
Structure prediction by ZEFSAII (Michael W. Deem and Ramdas Pophale) SiO2 
 PCOD9459399
Probable space group: P B C A
;
_chemical_formula_sum "Si O2"
_cell_formula_units_Z 56
_cell_length_a 8.408233
_cell_length_b 19.100369
_cell_length_c 12.989932
_cell_angle_alpha 90.000000
_cell_angle_beta 90.000000
_cell_angle_gamma 90.000000
_cell_volume 2086.187664
_symmetry_space_group_name_H-M "P B C A"
_symmetry_group_IT_number 61
_symmetry_cell_setting 'orthorhombic'
loop_
_space_group_symop_operation_xyz
x,y,z
1/2-x,-y,1/2+z
1/2+x,1/2-y,-z
-x,1/2+y,1/2-z
-x,-y,-z
1/2+x,y,1/2-z
1/2-x,1/2+y,z
x,1/2-y,1/2+z
loop_
_atom_site_type_symbol
_atom_site_label
_atom_site_fract_x
_atom_site_fract_y
_atom_site_fract_z
Si Si1 0.633696 0.154057 0.664970
Si Si2 0.633639 0.079467 0.392103
Si Si3 0.840988 0.742880 0.353937
Si Si4 0.950655 0.446406 0.853609
Si Si5 0.895749 0.442149 0.251020
Si Si6 0.809551 0.393732 0.631160
Si Si7 0.658719 0.757399 0.036970
O O1 0.656065 0.214847 0.749146
O O2 0.464235 0.119226 0.678795
O O3 0.749502 0.089468 0.690637
O O4 0.700118 0.187963 0.561961
O O5 0.631689 0.159238 0.345324
O O6 0.813086 0.070974 0.435590
O O7 0.455011 0.075047 0.438721
O O8 0.635482 0.010888 0.318406
O O9 0.676043 0.751837 0.415397
O O10 0.985606 0.776726 0.420839
O O11 0.880205 0.410532 0.746796
O O12 0.975867 0.528521 0.830967
O O13 0.129480 0.421045 0.878687
O O14 0.802897 0.313460 0.597984
#
# Coordination Sequence:
#
# PCOD9459399 Si02
#       7
#     8   8   8   8   8   8   8
#     4  12  24  43  72 104 142 185 234 307 362 416
#     4  10  21  40  65  97 134 187 233 284 352 434
#     4  11  27  47  71 105 146 190 242 298 370 434
#     4  11  18  35  66  96 135 179 230 283 350 424
#     4  11  21  39  67 104 138 180 240 292 357 429
#     4  10  20  34  62  99 128 175 233 284 336 421
#     4  11  27  44  68 105 142 185 242 298 361 436
#
# _framework density 26.843222000000001
#
# number of rings (size 3 to 8) (size 9 to 14) (size 15 to 20)
#    0.000    1.143    5.714    1.714    6.000    0.000 
#    0.000    0.714    6.286    2.571    0.000    0.000 
#    0.000    0.000    0.000    0.000    0.000    0.000 
#
# Total GULP energy -312637.252078 kJ/mol
# GULP energy per Si atom -5582.808073 kJ/mol
# Density = 2.678213 g / cm^3
# Si number density = 26.843222 Si / 1000 Ang^3
#
#
#
# Elastic Constant Matrix: (Units=GPa)
#
#
# Indices 1 2 3 4 5 6 
#
# 1 176.0405 4.8638 3.7527 0.0000 0.0000 0.0000
# 2 4.8638 113.0606 26.5712 0.0000 0.0000 0.0000
# 3 3.7527 26.5712 75.9661 0.0000 0.0000 0.0000
# 4 0.0000 0.0000 0.0000 27.8111 0.0000 0.0000
# 5 0.0000 0.0000 0.0000 0.0000 13.8812 0.0000
# 6 0.0000 0.0000 0.0000 0.0000 0.0000 54.6751
#
#
#
# Elastic Compliance Matrix: (Units=1/GPa)
#
#
# Indices 1 2 3 4 5 6 
#
# 1 0.005690 -0.000195 -0.000213 0.000000 0.000000 0.000000
# 2 -0.000195 0.009644 -0.003364 0.000000 0.000000 0.000000
# 3 -0.000213 -0.003364 0.014351 0.000000 0.000000 0.000000
# 4 0.000000 0.000000 0.000000 0.035957 0.000000 0.000000
# 5 0.000000 0.000000 0.000000 0.000000 0.072040 0.000000
# 6 0.000000 0.000000 0.000000 0.000000 0.000000 0.018290
#
#
# Mechanical properties :
#
#
# Convention : Reuss Voigt Hill
#
# Bulk Modulus (GPa) = 45.16224 48.38250 46.77237
# Shear Modulus (GPa) = 29.25780 41.26544 35.26162
#
# Velocity S-wave (km/s) = 3.30502 3.92506 3.62831
# Velocity P-wave (km/s) = 5.60582 6.21327 5.91734
#
# Compressibility (1/GPa) = 0.02214239
#
# Stress axis : x y z
#
# Youngs Moduli (GPa) = 175.73361 103.69485 69.68264
#
# Poissons Ratio (x) = 0.02019 0.01484
# Poissons Ratio (y) = 0.03422 0.23438
# Poissons Ratio (z) = 0.03743 0.34878
#
# Static dielectric constant tensor:
#      x y z
#    x 2.226180 0.000000 0.000000 
#    y 0.000000 2.026990 0.000000 
#    z 0.000000 0.000000 2.195930 
# 
# From -- ./inp_files/7151.got.cif
#   From: 2010.05.17/outbox.cif.g08.bks.cpg/sg61_4_cif.got.tgz:7151.got - 2010.06.03 15:17:17.
