data_PCOD9459807
_publ_section_title
;
Structure prediction by ZEFSAII (Michael W. Deem and Ramdas Pophale) SiO2 
 PCOD9459807
Probable space group: P B C A
;
_chemical_formula_sum "Si O2"
_cell_formula_units_Z 64
_cell_length_a 32.164544
_cell_length_b 5.510892
_cell_length_c 15.041723
_cell_angle_alpha 90.000000
_cell_angle_beta 90.000000
_cell_angle_gamma 90.000000
_cell_volume 2666.225547
_symmetry_space_group_name_H-M "P B C A"
_symmetry_group_IT_number 61
_symmetry_cell_setting 'orthorhombic'
loop_
_space_group_symop_operation_xyz
x,y,z
1/2-x,-y,1/2+z
1/2+x,1/2-y,-z
-x,1/2+y,1/2-z
-x,-y,-z
1/2+x,y,1/2-z
1/2-x,1/2+y,z
x,1/2-y,1/2+z
loop_
_atom_site_type_symbol
_atom_site_label
_atom_site_fract_x
_atom_site_fract_y
_atom_site_fract_z
Si Si1 0.050704 0.686330 0.183362
Si Si2 0.861849 0.184448 0.395554
Si Si3 0.853341 0.415462 0.569817
Si Si4 0.270770 0.108321 0.127183
Si Si5 0.770543 0.147338 0.589661
Si Si6 0.899721 0.816997 0.541572
Si Si7 0.970475 0.823269 0.912970
Si Si8 0.943919 0.219154 0.618317
O O1 0.100376 0.726072 0.170230
O O2 0.038846 0.425723 0.142536
O O3 0.041215 0.695651 0.286713
O O4 0.030743 0.922872 0.138656
O O5 0.849883 0.406184 0.461548
O O6 0.819660 0.095815 0.351616
O O7 0.879814 0.999085 0.469382
O O8 0.816549 0.255204 0.607596
O O9 0.859582 0.698574 0.588183
O O10 0.899183 0.333217 0.598569
O O11 0.251868 0.364160 0.158809
O O12 0.267588 0.121264 0.018611
O O13 0.741545 0.375500 0.620142
O O14 0.932606 0.667661 0.482354
O O15 0.930751 0.939426 0.612006
O O16 0.017503 0.772789 0.946589
#
# Coordination Sequence:
#
# PCOD9459807 Si02
#       8
#     8   8   8   8   8   8   8   8
#     4  11  24  42  62  86 119 163 206 250 303 362
#     4   9  20  37  56  84 118 155 194 244 300 354
#     4  10  21  36  59  87 121 153 199 246 300 358
#     4   9  18  28  52  84 112 141 188 243 294 345
#     4   9  19  32  53  82 115 151 187 239 295 349
#     4  10  22  38  60  88 123 160 201 253 304 361
#     4  11  24  43  62  87 120 164 205 253 304 360
#     4  11  25  38  61  90 122 160 205 254 302 365
#
# _framework density 24.003971
#
# number of rings (size 3 to 8) (size 9 to 14) (size 15 to 20)
#    0.000    2.000    1.250    1.125   14.000    0.500 
#    0.000    0.000    0.000    1.500    0.000    0.000 
#    0.000    0.000    0.000    0.000    0.000    0.000 
#
# Total GULP energy -356952.334557 kJ/mol
# GULP energy per Si atom -5577.380227 kJ/mol
# Density = 2.394934 g / cm^3
# Si number density = 24.003971 Si / 1000 Ang^3
#
#
#
# Elastic Constant Matrix: (Units=GPa)
#
#
# Indices 1 2 3 4 5 6 
#
# 1 144.4348 42.3431 10.4914 0.0000 0.0000 0.0000
# 2 42.3431 105.3887 23.6926 0.0000 0.0000 0.0000
# 3 10.4914 23.6926 39.4587 0.0000 0.0000 0.0000
# 4 0.0000 0.0000 0.0000 14.2769 0.0000 0.0000
# 5 0.0000 0.0000 0.0000 0.0000 13.0293 0.0000
# 6 0.0000 0.0000 0.0000 0.0000 0.0000 41.5459
#
#
#
# Elastic Compliance Matrix: (Units=1/GPa)
#
#
# Indices 1 2 3 4 5 6 
#
# 1 0.007850 -0.003104 -0.000224 0.000000 0.000000 0.000000
# 2 -0.003104 0.012196 -0.006498 0.000000 0.000000 0.000000
# 3 -0.000224 -0.006498 0.029304 0.000000 0.000000 0.000000
# 4 0.000000 0.000000 0.000000 0.070043 0.000000 0.000000
# 5 0.000000 0.000000 0.000000 0.000000 0.076750 0.000000
# 6 0.000000 0.000000 0.000000 0.000000 0.000000 0.024070
#
#
# Mechanical properties :
#
#
# Convention : Reuss Voigt Hill
#
# Bulk Modulus (GPa) = 33.67029 49.14848 41.40939
# Shear Modulus (GPa) = 20.01895 27.95411 23.98653
#
# Velocity S-wave (km/s) = 2.89101 3.41627 3.16456
# Velocity P-wave (km/s) = 5.02010 6.00673 5.53544
#
# Compressibility (1/GPa) = 0.02969977
#
# Stress axis : x y z
#
# Youngs Moduli (GPa) = 127.39452 81.99095 34.12494
#
# Poissons Ratio (x) = 0.25446 0.00763
# Poissons Ratio (y) = 0.39538 0.22175
# Poissons Ratio (z) = 0.02848 0.53278
#
# Static dielectric constant tensor:
#      x y z
#    x 1.922600 0.000000 0.000000 
#    y 0.000000 2.245380 0.000000 
#    z 0.000000 0.000000 1.901160 
# 
# From -- ./inp_files/9914.got.cif
#   From: 2010.05.17/outbox.cif.g08.bks.cpg/sg61_5_cif.got.tgz:9914.got - 2010.06.03 15:17:17.
