data_PCOD9459241
_publ_section_title
;
Structure prediction by ZEFSAII (Michael W. Deem and Ramdas Pophale) SiO2 
 PCOD9459241
Probable space group: P B C A
;
_chemical_formula_sum "Si O2"
_cell_formula_units_Z 64
_cell_length_a 26.115231
_cell_length_b 6.200331
_cell_length_c 17.427209
_cell_angle_alpha 90.000000
_cell_angle_beta 90.000000
_cell_angle_gamma 90.000000
_cell_volume 2821.867293
_symmetry_space_group_name_H-M "P B C A"
_symmetry_group_IT_number 61
_symmetry_cell_setting 'orthorhombic'
loop_
_space_group_symop_operation_xyz
x,y,z
1/2-x,-y,1/2+z
1/2+x,1/2-y,-z
-x,1/2+y,1/2-z
-x,-y,-z
1/2+x,y,1/2-z
1/2-x,1/2+y,z
x,1/2-y,1/2+z
loop_
_atom_site_type_symbol
_atom_site_label
_atom_site_fract_x
_atom_site_fract_y
_atom_site_fract_z
Si Si1 0.668545 0.134488 0.078785
Si Si2 0.428820 0.878829 0.494906
Si Si3 0.100703 0.399883 0.127958
Si Si4 0.864013 0.264148 0.992445
Si Si5 0.255981 0.379069 0.050054
Si Si6 0.434726 0.253151 0.242700
Si Si7 0.129894 0.358848 0.765329
Si Si8 0.465828 0.602203 0.838126
O O1 0.623622 0.286162 0.044779
O O2 0.718603 0.135117 0.024995
O O3 0.672343 0.177821 0.169524
O O4 0.645775 0.892562 0.070532
O O5 0.434045 0.751415 0.574169
O O6 0.470478 0.853753 0.428497
O O7 0.414864 0.125103 0.510466
O O8 0.069994 0.558370 0.182618
O O9 0.136152 0.261970 0.184808
O O10 0.132412 0.549064 0.070971
O O11 0.815076 0.121430 0.974229
O O12 0.248960 0.627392 0.084354
O O13 0.384073 0.396063 0.245512
O O14 0.482562 0.384189 0.210304
O O15 0.444922 0.138561 0.323481
O O16 0.077034 0.264515 0.803427
#
# Coordination Sequence:
#
# PCOD9459241 Si02
#       8
#     8   8   8   8   8   8   8   8
#     4   9  19  34  60  92 111 152 203 256 311 363
#     4  10  19  37  56  86 117 154 203 252 301 383
#     4  10  23  36  56  84 121 166 204 245 320 382
#     4  10  19  36  59  87 122 155 202 253 313 379
#     4  10  19  35  62  95 121 152 200 264 315 373
#     4  11  20  38  57  85 117 165 204 265 317 377
#     4  10  20  38  58  83 123 157 205 258 308 378
#     4  10  21  34  61  84 112 157 213 256 312 364
#
# _framework density 22.680016999999999
#
# number of rings (size 3 to 8) (size 9 to 14) (size 15 to 20)
#    0.000    2.000    2.500    1.500    0.000    0.500 
#    0.000    2.500    0.000    9.000    0.000    0.000 
#    0.000    0.000    0.000    0.000    0.000    0.000 
#
# Total GULP energy -356718.931236 kJ/mol
# GULP energy per Si atom -5573.733301 kJ/mol
# Density = 2.262840 g / cm^3
# Si number density = 22.680017 Si / 1000 Ang^3
#
#
#
# Elastic Constant Matrix: (Units=GPa)
#
#
# Indices 1 2 3 4 5 6 
#
# 1 41.2651 -2.5352 3.4708 0.0000 0.0000 0.0000
# 2 -2.5352 103.3681 18.4722 0.0000 0.0000 0.0000
# 3 3.4708 18.4722 91.4910 0.0000 0.0000 0.0000
# 4 0.0000 0.0000 0.0000 22.1929 0.0000 0.0000
# 5 0.0000 0.0000 0.0000 0.0000 19.9842 0.0000
# 6 0.0000 0.0000 0.0000 0.0000 0.0000 23.9612
#
#
#
# Elastic Compliance Matrix: (Units=1/GPa)
#
#
# Indices 1 2 3 4 5 6 
#
# 1 0.024373 0.000792 -0.001084 0.000000 0.000000 0.000000
# 2 0.000792 0.010062 -0.002062 0.000000 0.000000 0.000000
# 3 -0.001084 -0.002062 0.011387 0.000000 0.000000 0.000000
# 4 0.000000 0.000000 0.000000 0.045059 0.000000 0.000000
# 5 0.000000 0.000000 0.000000 0.000000 0.050040 0.000000
# 6 0.000000 0.000000 0.000000 0.000000 0.000000 0.041734
#
#
# Mechanical properties :
#
#
# Convention : Reuss Voigt Hill
#
# Bulk Modulus (GPa) = 24.32265 30.54887 27.43576
# Shear Modulus (GPa) = 24.86704 27.67543 26.27123
#
# Velocity S-wave (km/s) = 3.31483 3.49701 3.40714
# Velocity P-wave (km/s) = 5.03968 5.45932 5.25369
#
# Compressibility (1/GPa) = 0.04111394
#
# Stress axis : x y z
#
# Youngs Moduli (GPa) = 41.02832 99.38393 87.81629
#
# Poissons Ratio (x) = -0.07867 0.09523
# Poissons Ratio (y) = -0.03248 0.18104
# Poissons Ratio (z) = 0.04449 0.20489
#
# Static dielectric constant tensor:
#      x y z
#    x 1.823800 0.000000 0.000000 
#    y 0.000000 1.954210 0.000000 
#    z 0.000000 0.000000 1.905540 
# 
# From -- ./inp_files/9907.got.cif
#   From: 2010.05.17/outbox.cif.g08.bks.cpg/sg61_5_cif.got.tgz:9907.got - 2010.06.03 15:17:17.
