data_PCOD9459915
_publ_section_title
;
Structure prediction by ZEFSAII (Michael W. Deem and Ramdas Pophale) SiO2 
 PCOD9459915
Probable space group: P B C A
;
_chemical_formula_sum "Si O2"
_cell_formula_units_Z 48
_cell_length_a 9.362719
_cell_length_b 26.182794
_cell_length_c 8.972467
_cell_angle_alpha 90.000000
_cell_angle_beta 90.000000
_cell_angle_gamma 90.000000
_cell_volume 2199.529787
_symmetry_space_group_name_H-M "P B C A"
_symmetry_group_IT_number 61
_symmetry_cell_setting 'orthorhombic'
loop_
_space_group_symop_operation_xyz
x,y,z
1/2-x,-y,1/2+z
1/2+x,1/2-y,-z
-x,1/2+y,1/2-z
-x,-y,-z
1/2+x,y,1/2-z
1/2-x,1/2+y,z
x,1/2-y,1/2+z
loop_
_atom_site_type_symbol
_atom_site_label
_atom_site_fract_x
_atom_site_fract_y
_atom_site_fract_z
Si Si1 0.895260 0.463385 0.092089
Si Si2 0.346027 0.497577 0.073855
Si Si3 0.007762 0.251610 0.121861
Si Si4 0.712505 0.884767 0.442854
Si Si5 0.308869 0.706220 0.360920
Si Si6 0.967962 0.634768 0.755993
O O1 0.857588 0.491015 0.248918
O O2 0.965518 0.409549 0.137678
O O3 0.754612 0.458541 0.990543
O O4 0.000000 0.500000 0.000000
O O5 0.278016 0.443940 0.020792
O O6 0.500000 0.500000 0.000000
O O7 0.847409 0.231086 0.126527
O O8 0.119467 0.213055 0.200686
O O9 0.004016 0.307138 0.199445
O O10 0.076074 0.264217 0.962773
O O11 0.782331 0.849468 0.568416
O O12 0.547143 0.873480 0.401572
O O13 0.800075 0.873265 0.289357
#
# Coordination Sequence:
#
# PCOD9459915 Si02
#       6
#     8   8   8   8   8   8
#     4  11  22  43  67  97 135 176 232 289 343 419
#     4  11  24  42  65  97 134 181 229 288 354 411
#     4  11  22  42  66  95 131 174 221 285 348 419
#     4  10  22  40  64  95 128 174 227 273 347 417
#     4  11  23  42  66  98 133 171 229 281 350 422
#     4  10  21  38  68  91 129 175 225 268 341 427
#
# _framework density 21.822848
#
# number of rings (size 3 to 8) (size 9 to 14) (size 15 to 20)
#    0.000    1.333    1.667    5.000    7.000    0.000 
#    3.000    3.333    0.000    0.000    0.000    0.000 
#    0.000    0.000    0.000    0.000    0.000    0.000 
#
# Total GULP energy -267961.944570 kJ/mol
# GULP energy per Si atom -5582.540512 kJ/mol
# Density = 2.177318 g / cm^3
# Si number density = 21.822848 Si / 1000 Ang^3
#
#
#
# Elastic Constant Matrix: (Units=GPa)
#
#
# Indices 1 2 3 4 5 6 
#
# 1 93.5186 16.3580 -6.0985 0.0000 0.0000 0.0000
# 2 16.3580 74.4163 34.6780 0.0000 0.0000 0.0000
# 3 -6.0985 34.6780 52.6611 0.0000 0.0000 0.0000
# 4 0.0000 0.0000 0.0000 19.5268 0.0000 0.0000
# 5 0.0000 0.0000 0.0000 0.0000 40.4780 0.0000
# 6 0.0000 0.0000 0.0000 0.0000 0.0000 34.9404
#
#
#
# Elastic Compliance Matrix: (Units=1/GPa)
#
#
# Indices 1 2 3 4 5 6 
#
# 1 0.011797 -0.004660 0.004435 0.000000 0.000000 0.000000
# 2 -0.004660 0.021228 -0.014518 0.000000 0.000000 0.000000
# 3 0.004435 -0.014518 0.029064 0.000000 0.000000 0.000000
# 4 0.000000 0.000000 0.000000 0.051212 0.000000 0.000000
# 5 0.000000 0.000000 0.000000 0.000000 0.024705 0.000000
# 6 0.000000 0.000000 0.000000 0.000000 0.000000 0.028620
#
#
# Mechanical properties :
#
#
# Convention : Reuss Voigt Hill
#
# Bulk Modulus (GPa) = 30.67333 34.49681 32.58507
# Shear Modulus (GPa) = 24.15697 30.69961 27.42829
#
# Velocity S-wave (km/s) = 3.33071 3.75476 3.54907
# Velocity P-wave (km/s) = 5.37379 5.88554 5.63547
#
# Compressibility (1/GPa) = 0.03260162
#
# Stress axis : x y z
#
# Youngs Moduli (GPa) = 84.76478 47.10789 34.40739
#
# Poissons Ratio (x) = 0.21952 -0.15259
# Poissons Ratio (y) = 0.39499 0.49954
# Poissons Ratio (z) = -0.37591 0.68393
#
# Static dielectric constant tensor:
#      x y z
#    x 1.981350 0.000000 0.000000 
#    y 0.000000 1.774970 0.000000 
#    z 0.000000 0.000000 1.850750 
# 
# From -- ./inp_files/1864.got.cif
#   From: 2010.05.17/outbox.cif.g08.bks.cpg/sg61_1_cif.got.tgz:1864.got - 2010.06.03 15:17:17.
