data_PCOD9459307
_publ_section_title
;
Structure prediction by ZEFSAII (Michael W. Deem and Ramdas Pophale) SiO2 
 PCOD9459307
Probable space group: P B C A
;
_chemical_formula_sum "Si O2"
_cell_formula_units_Z 40
_cell_length_a 21.688626
_cell_length_b 8.119252
_cell_length_c 8.577399
_cell_angle_alpha 90.000000
_cell_angle_beta 90.000000
_cell_angle_gamma 90.000000
_cell_volume 1510.440680
_symmetry_space_group_name_H-M "P B C A"
_symmetry_group_IT_number 61
_symmetry_cell_setting 'orthorhombic'
loop_
_space_group_symop_operation_xyz
x,y,z
1/2-x,-y,1/2+z
1/2+x,1/2-y,-z
-x,1/2+y,1/2-z
-x,-y,-z
1/2+x,y,1/2-z
1/2-x,1/2+y,z
x,1/2-y,1/2+z
loop_
_atom_site_type_symbol
_atom_site_label
_atom_site_fract_x
_atom_site_fract_y
_atom_site_fract_z
Si Si1 0.454959 0.235518 0.266494
Si Si2 0.320298 0.959568 0.495550
Si Si3 0.219204 0.128121 0.345799
Si Si4 0.952371 0.839919 0.006240
Si Si5 0.607349 0.522648 0.490393
O O1 0.493163 0.123394 0.385992
O O2 0.424095 0.380356 0.366037
O O3 0.510967 0.298617 0.161631
O O4 0.407173 0.134363 0.159895
O O5 0.292965 0.922985 0.667521
O O6 0.304188 0.811666 0.376541
O O7 0.393711 0.958917 0.506842
O O8 0.287908 0.113365 0.413641
O O9 0.177100 0.013649 0.458167
O O10 0.922752 0.657513 0.967174
#
# Coordination Sequence:
#
# PCOD9459307 Si02
#       5
#     8   8   8   8   8
#     4  10  19  38  64  91 128 170 212 264 319 388
#     4  11  24  45  72  97 131 175 222 277 332 398
#     4  11  25  47  69  98 132 173 224 276 336 395
#     4  10  21  41  64  93 130 172 215 265 331 395
#     4  10  23  41  62  93 133 170 218 272 329 396
#
# _framework density 26.482337999999999
#
# number of rings (size 3 to 8) (size 9 to 14) (size 15 to 20)
#    0.000    1.600    0.000    6.000    0.000    4.800 
#    0.000   37.000    0.000    0.000    0.000    0.000 
#    0.000    0.000    0.000    0.000    0.000    0.000 
#
# Total GULP energy -224362.878505 kJ/mol
# GULP energy per Si atom -5609.071963 kJ/mol
# Density = 2.642206 g / cm^3
# Si number density = 26.482338 Si / 1000 Ang^3
#
#
#
# Elastic Constant Matrix: (Units=GPa)
#
#
# Indices 1 2 3 4 5 6 
#
# 1 93.6251 32.4983 29.2204 0.0000 0.0000 0.0000
# 2 32.4983 43.2205 -9.2498 0.0000 0.0000 0.0000
# 3 29.2204 -9.2498 136.3618 0.0000 0.0000 0.0000
# 4 0.0000 0.0000 0.0000 30.7233 0.0000 0.0000
# 5 0.0000 0.0000 0.0000 0.0000 40.1066 0.0000
# 6 0.0000 0.0000 0.0000 0.0000 0.0000 47.9930
#
#
#
# Elastic Compliance Matrix: (Units=1/GPa)
#
#
# Indices 1 2 3 4 5 6 
#
# 1 0.016821 -0.013617 -0.004528 0.000000 0.000000 0.000000
# 2 -0.013617 0.034501 0.005258 0.000000 0.000000 0.000000
# 3 -0.004528 0.005258 0.008660 0.000000 0.000000 0.000000
# 4 0.000000 0.000000 0.000000 0.032549 0.000000 0.000000
# 5 0.000000 0.000000 0.000000 0.000000 0.024934 0.000000
# 6 0.000000 0.000000 0.000000 0.000000 0.000000 0.020836
#
#
# Mechanical properties :
#
#
# Convention : Reuss Voigt Hill
#
# Bulk Modulus (GPa) = 29.23216 42.01613 35.62414
# Shear Modulus (GPa) = 28.49371 38.48049 33.48710
#
# Velocity S-wave (km/s) = 3.28373 3.81604 3.55985
# Velocity P-wave (km/s) = 5.04376 5.94276 5.51162
#
# Compressibility (1/GPa) = 0.03420890
#
# Stress axis : x y z
#
# Youngs Moduli (GPa) = 59.45062 28.98443 115.46783
#
# Poissons Ratio (x) = 0.39468 0.52285
# Poissons Ratio (y) = 0.80953 -0.60716
# Poissons Ratio (z) = 0.26920 -0.15241
#
# Static dielectric constant tensor:
#      x y z
#    x 2.037720 0.000000 0.000000 
#    y 0.000000 2.196610 0.000000 
#    z 0.000000 0.000000 2.124360 
# 
# From -- ./inp_files/1735.got.cif
#   From: 2010.05.17/outbox.cif.g08.bks.cpg/sg61_1_cif.got.tgz:1735.got - 2010.06.03 15:17:17.
