data_PCOD9459418
_publ_section_title
;
Structure prediction by ZEFSAII (Michael W. Deem and Ramdas Pophale) SiO2 
 PCOD9459418
Probable space group: P B C A
;
_chemical_formula_sum "Si O2"
_cell_formula_units_Z 64
_cell_length_a 8.630274
_cell_length_b 32.910352
_cell_length_c 11.364956
_cell_angle_alpha 90.000000
_cell_angle_beta 90.000000
_cell_angle_gamma 90.000000
_cell_volume 3227.935665
_symmetry_space_group_name_H-M "P B C A"
_symmetry_group_IT_number 61
_symmetry_cell_setting 'orthorhombic'
loop_
_space_group_symop_operation_xyz
x,y,z
1/2-x,-y,1/2+z
1/2+x,1/2-y,-z
-x,1/2+y,1/2-z
-x,-y,-z
1/2+x,y,1/2-z
1/2-x,1/2+y,z
x,1/2-y,1/2+z
loop_
_atom_site_type_symbol
_atom_site_label
_atom_site_fract_x
_atom_site_fract_y
_atom_site_fract_z
Si Si1 0.489555 0.441671 0.861714
Si Si2 0.309019 0.395174 0.653125
Si Si3 0.599994 0.886008 0.111684
Si Si4 0.136437 0.969753 0.101501
Si Si5 0.488355 0.250575 0.246898
Si Si6 0.255166 0.698727 0.873517
Si Si7 0.743294 0.195778 0.356036
Si Si8 0.634629 0.429169 0.247003
O O1 0.393165 0.424641 0.748627
O O2 0.633125 0.410118 0.874914
O O3 0.582668 0.484575 0.869604
O O4 0.370177 0.451725 0.969046
O O5 0.400543 0.391895 0.528846
O O6 0.294532 0.348035 0.693378
O O7 0.671253 0.843510 0.154008
O O8 0.434988 0.893599 0.172000
O O9 0.723550 0.917960 0.163226
O O10 0.300897 0.962415 0.162308
O O11 0.003810 0.943707 0.165691
O O12 0.374883 0.267183 0.348000
O O13 0.595560 0.286883 0.199011
O O14 0.600547 0.214982 0.288347
O O15 0.378655 0.229357 0.151583
O O16 0.301045 0.692743 0.008192
#
# Coordination Sequence:
#
# PCOD9459418 Si02
#       8
#     8   8   8   8   8   8   8   8
#     4  11  23  40  59  87 118 154 196 242 297 358
#     4  11  23  39  59  87 121 155 198 245 294 355
#     4  10  21  37  60  86 117 156 196 247 296 348
#     4  10  22  40  62  85 116 153 195 244 297 353
#     4  10  20  36  57  84 113 154 190 235 287 341
#     4  10  20  35  58  83 115 149 192 240 282 344
#     4  10  21  37  57  82 117 151 191 237 287 341
#     4  10  20  40  59  84 116 151 197 247 293 353
#
# _framework density 19.826913000000001
#
# number of rings (size 3 to 8) (size 9 to 14) (size 15 to 20)
#    0.000    1.750    1.250    3.000    1.750    0.000 
#    0.000    1.875    8.250    0.000    0.000    0.000 
#    0.000    0.000    0.000    0.000    0.000    0.000 
#
# Total GULP energy -356316.291310 kJ/mol
# GULP energy per Si atom -5567.442052 kJ/mol
# Density = 1.978179 g / cm^3
# Si number density = 19.826913 Si / 1000 Ang^3
#
#
#
# Elastic Constant Matrix: (Units=GPa)
#
#
# Indices 1 2 3 4 5 6 
#
# 1 31.4841 -11.1862 7.6138 0.0000 0.0000 0.0000
# 2 -11.1862 66.3359 18.2458 0.0000 0.0000 0.0000
# 3 7.6138 18.2458 56.4150 0.0000 0.0000 0.0000
# 4 0.0000 0.0000 0.0000 24.0739 0.0000 0.0000
# 5 0.0000 0.0000 0.0000 0.0000 7.6791 0.0000
# 6 0.0000 0.0000 0.0000 0.0000 0.0000 30.1307
#
#
#
# Elastic Compliance Matrix: (Units=1/GPa)
#
#
# Indices 1 2 3 4 5 6 
#
# 1 0.036531 0.008250 -0.007599 0.000000 0.000000 0.000000
# 2 0.008250 0.018410 -0.007068 0.000000 0.000000 0.000000
# 3 -0.007599 -0.007068 0.021037 0.000000 0.000000 0.000000
# 4 0.000000 0.000000 0.000000 0.041539 0.000000 0.000000
# 5 0.000000 0.000000 0.000000 0.000000 0.130223 0.000000
# 6 0.000000 0.000000 0.000000 0.000000 0.000000 0.033189
#
#
# Mechanical properties :
#
#
# Convention : Reuss Voigt Hill
#
# Bulk Modulus (GPa) = 15.83631 20.39798 18.11715
# Shear Modulus (GPa) = 15.88265 21.68085 18.78175
#
# Velocity S-wave (km/s) = 2.83338 3.31041 3.08114
# Velocity P-wave (km/s) = 4.32535 4.99220 4.67069
#
# Compressibility (1/GPa) = 0.06314600
#
# Stress axis : x y z
#
# Youngs Moduli (GPa) = 27.37411 54.31838 47.53507
#
# Poissons Ratio (x) = -0.44814 0.36120
# Poissons Ratio (y) = -0.22584 0.33596
# Poissons Ratio (z) = 0.20800 0.38390
#
# Static dielectric constant tensor:
#      x y z
#    x 1.695240 0.000000 0.000000 
#    y 0.000000 1.742710 0.000000 
#    z 0.000000 0.000000 1.712220 
# 
# From -- ./inp_files/4622.got.cif
#   From: 2010.05.17/outbox.cif.g08.bks.cpg/sg61_3_cif.got.tgz:4622.got - 2010.06.03 15:17:17.
