data_PCOD9459012
_publ_section_title
;
Structure prediction by ZEFSAII (Michael W. Deem and Ramdas Pophale) SiO2 
 PCOD9459012
Probable space group: P B C A
;
_chemical_formula_sum "Si O2"
_cell_formula_units_Z 48
_cell_length_a 11.244878
_cell_length_b 8.942189
_cell_length_c 19.880852
_cell_angle_alpha 90.000000
_cell_angle_beta 90.000000
_cell_angle_gamma 90.000000
_cell_volume 1999.095700
_symmetry_space_group_name_H-M "P B C A"
_symmetry_group_IT_number 61
_symmetry_cell_setting 'orthorhombic'
loop_
_space_group_symop_operation_xyz
x,y,z
1/2-x,-y,1/2+z
1/2+x,1/2-y,-z
-x,1/2+y,1/2-z
-x,-y,-z
1/2+x,y,1/2-z
1/2-x,1/2+y,z
x,1/2-y,1/2+z
loop_
_atom_site_type_symbol
_atom_site_label
_atom_site_fract_x
_atom_site_fract_y
_atom_site_fract_z
Si Si1 0.226453 0.093329 0.694339
Si Si2 0.216317 0.476470 0.474744
Si Si3 0.684830 0.149292 0.211419
Si Si4 0.685894 0.840424 0.902564
Si Si5 0.641086 0.756115 0.603565
Si Si6 0.548366 0.051385 0.082479
O O1 0.157665 0.212260 0.740015
O O2 0.310788 0.000735 0.744461
O O3 0.287247 0.188683 0.635131
O O4 0.161096 0.960983 0.655812
O O5 0.211672 0.399361 0.547319
O O6 0.127707 0.601089 0.445883
O O7 0.246093 0.347292 0.420718
O O8 0.344326 0.562312 0.471375
O O9 0.595890 0.123660 0.150956
O O10 0.813871 0.180072 0.175324
O O11 0.562338 0.851089 0.941918
O O12 0.540134 0.628511 0.598627
#
# Coordination Sequence:
#
# PCOD9459012 Si02
#       6
#     8   8   8   8   8   8
#     4  10  22  33  58  73 120 150 174 235 285 345
#     4   9  18  33  56  82 110 143 189 227 291 329
#     4  10  17  38  53  85 105 144 196 222 282 332
#     4  11  21  37  52  83 112 152 183 226 293 344
#     4   9  17  32  61  79 104 149 181 245 269 327
#     4   9  20  32  62  77 106 142 197 235 264 332
#
# _framework density 24.010856
#
# number of rings (size 3 to 8) (size 9 to 14) (size 15 to 20)
#    1.000    1.333    1.667    1.500    0.000    1.333 
#    0.000    0.000   14.667    2.000    0.000    0.000 
#    0.000    0.000    0.000    0.000    0.000    0.000 
#
# Total GULP energy -267256.113909 kJ/mol
# GULP energy per Si atom -5567.835706 kJ/mol
# Density = 2.395621 g / cm^3
# Si number density = 24.010856 Si / 1000 Ang^3
#
#
#
# Elastic Constant Matrix: (Units=GPa)
#
#
# Indices 1 2 3 4 5 6 
#
# 1 15.3562 2.1446 -2.9399 0.0000 0.0000 0.0000
# 2 2.1446 121.5695 19.2867 0.0000 0.0000 0.0000
# 3 -2.9399 19.2867 73.4236 0.0000 0.0000 0.0000
# 4 0.0000 0.0000 0.0000 64.1516 0.0000 0.0000
# 5 0.0000 0.0000 0.0000 0.0000 16.8786 0.0000
# 6 0.0000 0.0000 0.0000 0.0000 0.0000 15.8260
#
#
#
# Elastic Compliance Matrix: (Units=1/GPa)
#
#
# Indices 1 2 3 4 5 6 
#
# 1 0.065939 -0.001651 0.003074 0.000000 0.000000 0.000000
# 2 -0.001651 0.008625 -0.002332 0.000000 0.000000 0.000000
# 3 0.003074 -0.002332 0.014355 0.000000 0.000000 0.000000
# 4 0.000000 0.000000 0.000000 0.015588 0.000000 0.000000
# 5 0.000000 0.000000 0.000000 0.000000 0.059247 0.000000
# 6 0.000000 0.000000 0.000000 0.000000 0.000000 0.063187
#
#
# Mechanical properties :
#
#
# Convention : Reuss Voigt Hill
#
# Bulk Modulus (GPa) = 11.48081 27.48136 19.48108
# Shear Modulus (GPa) = 19.39546 32.16175 25.77860
#
# Velocity S-wave (km/s) = 2.84523 3.66384 3.28017
# Velocity P-wave (km/s) = 3.94787 5.41928 4.74100
#
# Compressibility (1/GPa) = 0.08710187
#
# Stress axis : x y z
#
# Youngs Moduli (GPa) = 15.16547 115.94493 69.66143
#
# Poissons Ratio (x) = 0.19142 -0.21413
# Poissons Ratio (y) = 0.02504 0.16243
# Poissons Ratio (z) = -0.04662 0.27034
#
# Static dielectric constant tensor:
#      x y z
#    x 2.052800 0.000000 0.000000 
#    y 0.000000 1.938660 0.000000 
#    z 0.000000 0.000000 1.974910 
# 
# From -- ./inp_files/3845.got.cif
#   From: 2010.05.17/outbox.cif.g08.bks.cpg/sg61_2_cif.got.tgz:3845.got - 2010.06.03 15:17:17.
