data_PCOD9459993
_publ_section_title
;
Structure prediction by ZEFSAII (Michael W. Deem and Ramdas Pophale) SiO2 
 PCOD9459993
Probable space group: P B C A
;
_chemical_formula_sum "Si O2"
_cell_formula_units_Z 64
_cell_length_a 16.215227
_cell_length_b 23.027499
_cell_length_c 8.499497
_cell_angle_alpha 90.000000
_cell_angle_beta 90.000000
_cell_angle_gamma 90.000000
_cell_volume 3173.679232
_symmetry_space_group_name_H-M "P B C A"
_symmetry_group_IT_number 61
_symmetry_cell_setting 'orthorhombic'
loop_
_space_group_symop_operation_xyz
x,y,z
1/2-x,-y,1/2+z
1/2+x,1/2-y,-z
-x,1/2+y,1/2-z
-x,-y,-z
1/2+x,y,1/2-z
1/2-x,1/2+y,z
x,1/2-y,1/2+z
loop_
_atom_site_type_symbol
_atom_site_label
_atom_site_fract_x
_atom_site_fract_y
_atom_site_fract_z
Si Si1 0.577363 0.481948 0.341398
Si Si2 0.154104 0.120575 0.195869
Si Si3 0.964193 0.392462 0.700377
Si Si4 0.192727 0.809879 0.815495
Si Si5 0.657980 0.497985 0.658100
Si Si6 0.188377 0.819751 0.191932
Si Si7 0.559657 0.585177 0.834123
Si Si8 0.706136 0.084649 0.639659
O O1 0.555592 0.545786 0.279183
O O2 0.589779 0.485229 0.526809
O O3 0.513281 0.434146 0.279051
O O4 0.660343 0.457866 0.260446
O O5 0.222060 0.168949 0.234919
O O6 0.057427 0.128972 0.241428
O O7 0.188742 0.064179 0.288020
O O8 0.155850 0.105627 0.010936
O O9 0.888287 0.348063 0.731799
O O10 0.964199 0.406310 0.513765
O O11 0.181141 0.743270 0.766945
O O12 0.200894 0.815678 0.004217
O O13 0.622989 0.531432 0.810994
O O14 0.719370 0.543896 0.580269
O O15 0.105497 0.856933 0.220042
O O16 0.259218 0.859188 0.270178
#
# Coordination Sequence:
#
# PCOD9459993 Si02
#       8
#     8   8   8   8   8   8   8   8
#     4  12  21  38  61  97 137 163 214 269 316 391
#     4  12  23  41  63  94 133 168 215 261 320 384
#     4  11  23  41  66  96 128 174 215 262 327 386
#     4  11  24  46  67  91 124 168 216 271 319 384
#     4  11  22  35  59  97 131 170 210 258 324 382
#     4  10  24  46  67  89 122 165 218 265 325 379
#     4  10  21  40  63  90 128 165 208 265 321 385
#     4  11  22  38  65  91 127 177 208 263 320 379
#
# _framework density 20.165870000000002
#
# number of rings (size 3 to 8) (size 9 to 14) (size 15 to 20)
#    0.000    1.000    2.500    5.250    0.000    3.000 
#    2.250    1.250    0.000    0.000    0.000    0.000 
#    0.000    0.000    0.000    0.000    0.000    0.000 
#
# Total GULP energy -357422.357588 kJ/mol
# GULP energy per Si atom -5584.724337 kJ/mol
# Density = 2.011997 g / cm^3
# Si number density = 20.165870 Si / 1000 Ang^3
#
#
#
# Elastic Constant Matrix: (Units=GPa)
#
#
# Indices 1 2 3 4 5 6 
#
# 1 86.4712 52.9100 28.0647 0.0000 0.0000 0.0000
# 2 52.9100 134.4312 41.6873 0.0000 0.0000 0.0000
# 3 28.0647 41.6873 55.6365 0.0000 0.0000 0.0000
# 4 0.0000 0.0000 0.0000 21.0787 0.0000 0.0000
# 5 0.0000 0.0000 0.0000 0.0000 36.0847 0.0000
# 6 0.0000 0.0000 0.0000 0.0000 0.0000 20.8305
#
#
#
# Elastic Compliance Matrix: (Units=1/GPa)
#
#
# Indices 1 2 3 4 5 6 
#
# 1 0.016009 -0.004946 -0.004370 0.000000 0.000000 0.000000
# 2 -0.004946 0.011218 -0.005911 0.000000 0.000000 0.000000
# 3 -0.004370 -0.005911 0.024607 0.000000 0.000000 0.000000
# 4 0.000000 0.000000 0.000000 0.047441 0.000000 0.000000
# 5 0.000000 0.000000 0.000000 0.000000 0.027713 0.000000
# 6 0.000000 0.000000 0.000000 0.000000 0.000000 0.048007
#
#
# Mechanical properties :
#
#
# Convention : Reuss Voigt Hill
#
# Bulk Modulus (GPa) = 46.76915 57.98476 52.37695
# Shear Modulus (GPa) = 23.52120 25.85723 24.68921
#
# Velocity S-wave (km/s) = 3.41894 3.58471 3.50281
# Velocity P-wave (km/s) = 6.23122 6.77863 6.51068
#
# Compressibility (1/GPa) = 0.02138162
#
# Stress axis : x y z
#
# Youngs Moduli (GPa) = 62.46490 89.13992 40.63916
#
# Poissons Ratio (x) = 0.44088 0.17758
# Poissons Ratio (y) = 0.30894 0.24021
# Poissons Ratio (z) = 0.27294 0.52689
#
# Static dielectric constant tensor:
#      x y z
#    x 1.826980 0.000000 0.000000 
#    y 0.000000 1.667460 0.000000 
#    z 0.000000 0.000000 1.703820 
# 
# From -- ./inp_files/3720.got.cif
#   From: 2010.05.17/outbox.cif.g08.bks.cpg/sg61_2_cif.got.tgz:3720.got - 2010.06.03 15:17:17.
