data_PCOD9459100
_publ_section_title
;
Structure prediction by ZEFSAII (Michael W. Deem and Ramdas Pophale) SiO2 
 PCOD9459100
Probable space group: P B C A
;
_chemical_formula_sum "Si O2"
_cell_formula_units_Z 48
_cell_length_a 24.116414
_cell_length_b 8.791423
_cell_length_c 9.393987
_cell_angle_alpha 90.000000
_cell_angle_beta 90.000000
_cell_angle_gamma 90.000000
_cell_volume 1991.690547
_symmetry_space_group_name_H-M "P B C A"
_symmetry_group_IT_number 61
_symmetry_cell_setting 'orthorhombic'
loop_
_space_group_symop_operation_xyz
x,y,z
1/2-x,-y,1/2+z
1/2+x,1/2-y,-z
-x,1/2+y,1/2-z
-x,-y,-z
1/2+x,y,1/2-z
1/2-x,1/2+y,z
x,1/2-y,1/2+z
loop_
_atom_site_type_symbol
_atom_site_label
_atom_site_fract_x
_atom_site_fract_y
_atom_site_fract_z
Si Si1 0.175847 0.033385 0.663161
Si Si2 0.991911 0.386662 0.786722
Si Si3 0.582467 0.496191 0.529277
Si Si4 0.938305 0.163344 0.990700
Si Si5 0.756543 0.256637 0.931911
Si Si6 0.167880 0.997754 0.966720
O O1 0.139164 0.074240 0.526841
O O2 0.197868 0.865652 0.633581
O O3 0.228295 0.142153 0.678751
O O4 0.144517 0.032462 0.810612
O O5 0.054354 0.414406 0.838499
O O6 0.976811 0.393096 0.621228
O O7 0.958044 0.505907 0.888837
O O8 0.972102 0.225280 0.854899
O O9 0.588298 0.677675 0.551605
O O10 0.887158 0.054539 0.950446
O O11 0.706387 0.364686 0.982109
O O12 0.788719 0.143773 0.038325
#
# Coordination Sequence:
#
# PCOD9459100 Si02
#       6
#     8   8   8   8   8   8
#     4  11  20  40  59  87 123 159 199 258 301 362
#     4   9  19  37  61  84 117 157 197 245 301 360
#     4   9  19  37  60  84 117 160 188 245 305 354
#     4  10  18  37  64  86 115 157 198 245 304 361
#     4  10  23  36  57  90 118 155 210 243 305 359
#     4  11  20  37  61  84 119 161 199 249 307 360
#
# _framework density 24.100128000000002
#
# number of rings (size 3 to 8) (size 9 to 14) (size 15 to 20)
#    1.000    1.000    3.333    1.000    0.000    0.000 
#    6.000    2.500    0.000    0.000    0.000    0.000 
#    0.000    0.000    0.000    0.000    0.000    0.000 
#
# Total GULP energy -267697.621396 kJ/mol
# GULP energy per Si atom -5577.033779 kJ/mol
# Density = 2.404528 g / cm^3
# Si number density = 24.100128 Si / 1000 Ang^3
#
#
#
# Elastic Constant Matrix: (Units=GPa)
#
#
# Indices 1 2 3 4 5 6 
#
# 1 39.1661 7.1324 13.6972 0.0000 0.0000 0.0000
# 2 7.1324 57.9316 16.4354 0.0000 0.0000 0.0000
# 3 13.6972 16.4354 75.6704 0.0000 0.0000 0.0000
# 4 0.0000 0.0000 0.0000 11.6612 0.0000 0.0000
# 5 0.0000 0.0000 0.0000 0.0000 24.9777 0.0000
# 6 0.0000 0.0000 0.0000 0.0000 0.0000 37.8955
#
#
#
# Elastic Compliance Matrix: (Units=1/GPa)
#
#
# Indices 1 2 3 4 5 6 
#
# 1 0.027496 -0.002103 -0.004520 0.000000 0.000000 0.000000
# 2 -0.002103 0.018556 -0.003650 0.000000 0.000000 0.000000
# 3 -0.004520 -0.003650 0.014826 0.000000 0.000000 0.000000
# 4 0.000000 0.000000 0.000000 0.085754 0.000000 0.000000
# 5 0.000000 0.000000 0.000000 0.000000 0.040036 0.000000
# 6 0.000000 0.000000 0.000000 0.000000 0.000000 0.026388
#
#
# Mechanical properties :
#
#
# Convention : Reuss Voigt Hill
#
# Bulk Modulus (GPa) = 24.79385 27.47755 26.13570
# Shear Modulus (GPa) = 20.23911 23.94043 22.08977
#
# Velocity S-wave (km/s) = 2.90106 3.15520 3.03080
# Velocity P-wave (km/s) = 4.64023 4.96990 4.80789
#
# Compressibility (1/GPa) = 0.04033258
#
# Stress axis : x y z
#
# Youngs Moduli (GPa) = 36.36878 53.89078 67.44843
#
# Poissons Ratio (x) = 0.11332 0.30489
# Poissons Ratio (y) = 0.07648 0.24617
# Poissons Ratio (z) = 0.16440 0.19668
#
# Static dielectric constant tensor:
#      x y z
#    x 1.930820 0.000000 0.000000 
#    y 0.000000 1.954810 0.000000 
#    z 0.000000 0.000000 1.945070 
# 
# From -- ./inp_files/6582.got.cif
#   From: 2010.05.17/outbox.cif.g08.bks.cpg/sg61_4_cif.got.tgz:6582.got - 2010.06.03 15:17:17.
