data_PCOD9459533
_publ_section_title
;
Structure prediction by ZEFSAII (Michael W. Deem and Ramdas Pophale) SiO2 
 PCOD9459533
Probable space group: P B C A
;
_chemical_formula_sum "Si O2"
_cell_formula_units_Z 40
_cell_length_a 18.680281
_cell_length_b 9.958768
_cell_length_c 9.095594
_cell_angle_alpha 90.000000
_cell_angle_beta 90.000000
_cell_angle_gamma 90.000000
_cell_volume 1692.076861
_symmetry_space_group_name_H-M "P B C A"
_symmetry_group_IT_number 61
_symmetry_cell_setting 'orthorhombic'
loop_
_space_group_symop_operation_xyz
x,y,z
1/2-x,-y,1/2+z
1/2+x,1/2-y,-z
-x,1/2+y,1/2-z
-x,-y,-z
1/2+x,y,1/2-z
1/2-x,1/2+y,z
x,1/2-y,1/2+z
loop_
_atom_site_type_symbol
_atom_site_label
_atom_site_fract_x
_atom_site_fract_y
_atom_site_fract_z
Si Si1 0.818620 0.017098 0.151637
Si Si2 0.539638 0.113122 0.099227
Si Si3 0.679141 0.454357 0.470672
Si Si4 0.110918 0.715915 0.135655
Si Si5 0.922440 0.508028 0.420739
O O1 0.801671 0.936009 0.300347
O O2 0.865494 0.144356 0.212165
O O3 0.745522 0.060792 0.076659
O O4 0.868501 0.932985 0.042270
O O5 0.475153 0.215482 0.119099
O O6 0.612059 0.137234 0.011575
O O7 0.562970 0.071621 0.262677
O O8 0.500000 0.000000 0.000000
O O9 0.649398 0.610200 0.474974
O O10 0.123137 0.871846 0.115689
O O11 0.000000 0.500000 0.500000
#
# Coordination Sequence:
#
# PCOD9459533 Si02
#       5
#     8   8   8   8   8
#     4  10  21  40  62  99 128 182 225 283 350 408
#     4  10  20  37  64  94 133 177 223 287 330 415
#     4   9  20  38  62  92 132 171 228 284 340 408
#     4   9  23  37  65  97 133 176 229 275 353 407
#     4  12  22  40  67 100 137 180 230 283 349 420
#
# _framework density 23.639589999999998
#
# number of rings (size 3 to 8) (size 9 to 14) (size 15 to 20)
#    1.200    0.800    2.000    1.200    5.600    0.000 
#    0.000    2.000    8.800    0.000    0.000    0.000 
#    0.000    0.000    0.000    0.000    0.000    0.000 
#
# Total GULP energy -222954.946937 kJ/mol
# GULP energy per Si atom -5573.873673 kJ/mol
# Density = 2.358578 g / cm^3
# Si number density = 23.639590 Si / 1000 Ang^3
#
#
#
# Elastic Constant Matrix: (Units=GPa)
#
#
# Indices 1 2 3 4 5 6 
#
# 1 166.7024 0.7265 52.4133 0.0000 0.0000 0.0000
# 2 0.7265 69.3039 6.8674 0.0000 0.0000 0.0000
# 3 52.4133 6.8674 149.6325 0.0000 0.0000 0.0000
# 4 0.0000 0.0000 0.0000 3.6674 0.0000 0.0000
# 5 0.0000 0.0000 0.0000 0.0000 59.4663 0.0000
# 6 0.0000 0.0000 0.0000 0.0000 0.0000 12.8679
#
#
#
# Elastic Compliance Matrix: (Units=1/GPa)
#
#
# Indices 1 2 3 4 5 6 
#
# 1 0.006743 0.000164 -0.002369 0.000000 0.000000 0.000000
# 2 0.000164 0.014499 -0.000723 0.000000 0.000000 0.000000
# 3 -0.002369 -0.000723 0.007546 0.000000 0.000000 0.000000
# 4 0.000000 0.000000 0.000000 0.272674 0.000000 0.000000
# 5 0.000000 0.000000 0.000000 0.000000 0.016816 0.000000
# 6 0.000000 0.000000 0.000000 0.000000 0.000000 0.077712
#
#
# Mechanical properties :
#
#
# Convention : Reuss Voigt Hill
#
# Bulk Modulus (GPa) = 43.60767 56.18368 49.89567
# Shear Modulus (GPa) = 12.21027 36.90909 24.55968
#
# Velocity S-wave (km/s) = 2.27517 3.95565 3.22673
# Velocity P-wave (km/s) = 5.03873 6.68440 5.91904
#
# Compressibility (1/GPa) = 0.02293175
#
# Stress axis : x y z
#
# Youngs Moduli (GPa) = 148.30215 68.96971 132.51705
#
# Poissons Ratio (x) = -0.01132 0.31400
# Poissons Ratio (y) = -0.02434 0.09580
# Poissons Ratio (z) = 0.35140 0.04986
#
# Static dielectric constant tensor:
#      x y z
#    x 1.950000 0.000000 0.000000 
#    y 0.000000 1.775530 0.000000 
#    z 0.000000 0.000000 1.940870 
# 
# From -- ./inp_files/3835.got.cif
#   From: 2010.05.17/outbox.cif.g08.bks.cpg/sg61_2_cif.got.tgz:3835.got - 2010.06.03 15:17:17.
