data_PCOD9459131
_publ_section_title
;
Structure prediction by ZEFSAII (Michael W. Deem and Ramdas Pophale) SiO2 
 PCOD9459131
Probable space group: P B C A
;
_chemical_formula_sum "Si O2"
_cell_formula_units_Z 64
_cell_length_a 29.718271
_cell_length_b 17.862851
_cell_length_c 5.339085
_cell_angle_alpha 90.000000
_cell_angle_beta 90.000000
_cell_angle_gamma 90.000000
_cell_volume 2834.269540
_symmetry_space_group_name_H-M "P B C A"
_symmetry_group_IT_number 61
_symmetry_cell_setting 'orthorhombic'
loop_
_space_group_symop_operation_xyz
x,y,z
1/2-x,-y,1/2+z
1/2+x,1/2-y,-z
-x,1/2+y,1/2-z
-x,-y,-z
1/2+x,y,1/2-z
1/2-x,1/2+y,z
x,1/2-y,1/2+z
loop_
_atom_site_type_symbol
_atom_site_label
_atom_site_fract_x
_atom_site_fract_y
_atom_site_fract_z
Si Si1 0.335012 0.595104 0.081083
Si Si2 0.151203 0.559476 0.847304
Si Si3 0.079615 0.605417 0.542898
Si Si4 0.504753 0.049539 0.753332
Si Si5 0.100660 0.461934 0.231775
Si Si6 0.414750 0.800403 0.744800
Si Si7 0.515778 0.798788 0.741719
Si Si8 0.755957 0.449949 0.920552
O O1 0.331690 0.509933 0.180527
O O2 0.356822 0.587770 0.805830
O O3 0.373170 0.641387 0.228402
O O4 0.282504 0.614689 0.089117
O O5 0.125759 0.623183 0.687641
O O6 0.193859 0.580237 0.017479
O O7 0.113199 0.516900 0.009150
O O8 0.089858 0.521134 0.451888
O O9 0.036927 0.604669 0.728168
O O10 0.059221 0.649450 0.307665
O O11 0.500000 0.000000 0.500000
O O12 0.554536 0.083690 0.780872
O O13 0.500000 0.000000 0.000000
O O14 0.411138 0.752039 0.998129
O O15 0.465515 0.835223 0.731650
O O16 0.517370 0.755434 0.001188
O O17 0.743239 0.503267 0.160307
#
# Coordination Sequence:
#
# PCOD9459131 Si02
#       8
#     8   8   8   8   8   8   8   8
#     4  10  21  36  58  85 117 154 190 243 298 354
#     4  10  20  34  56  87 120 151 187 235 299 360
#     4  10  21  35  54  81 114 152 187 238 285 347
#     4  10  19  30  46  75 110 140 168 212 273 335
#     4  10  19  33  53  84 117 145 184 227 294 350
#     4  10  23  41  61  84 113 153 203 244 282 339
#     4  10  23  41  58  81 110 154 202 243 286 342
#     4  10  20  35  55  84 119 149 182 225 287 356
#
# _framework density 22.580774000000002
#
# number of rings (size 3 to 8) (size 9 to 14) (size 15 to 20)
#    0.000    2.000    2.500    0.750    3.500    1.000 
#    2.250    0.000    0.000    1.500    0.000    0.000 
#    0.000    0.000    0.000    0.000    0.000    0.000 
#
# Total GULP energy -356774.753482 kJ/mol
# GULP energy per Si atom -5574.605523 kJ/mol
# Density = 2.252938 g / cm^3
# Si number density = 22.580774 Si / 1000 Ang^3
#
#
#
# Elastic Constant Matrix: (Units=GPa)
#
#
# Indices 1 2 3 4 5 6 
#
# 1 127.4028 23.3474 22.2221 0.0000 0.0000 0.0000
# 2 23.3474 38.8650 19.3363 0.0000 0.0000 0.0000
# 3 22.2221 19.3363 120.0293 0.0000 0.0000 0.0000
# 4 0.0000 0.0000 0.0000 37.4953 0.0000 0.0000
# 5 0.0000 0.0000 0.0000 0.0000 25.8799 0.0000
# 6 0.0000 0.0000 0.0000 0.0000 0.0000 20.8026
#
#
#
# Elastic Compliance Matrix: (Units=1/GPa)
#
#
# Indices 1 2 3 4 5 6 
#
# 1 0.008900 -0.004921 -0.000855 0.000000 0.000000 0.000000
# 2 -0.004921 0.030693 -0.004033 0.000000 0.000000 0.000000
# 3 -0.000855 -0.004033 0.009139 0.000000 0.000000 0.000000
# 4 0.000000 0.000000 0.000000 0.026670 0.000000 0.000000
# 5 0.000000 0.000000 0.000000 0.000000 0.038640 0.000000
# 6 0.000000 0.000000 0.000000 0.000000 0.000000 0.048071
#
#
# Mechanical properties :
#
#
# Convention : Reuss Voigt Hill
#
# Bulk Modulus (GPa) = 34.34847 46.23431 40.29139
# Shear Modulus (GPa) = 26.11821 31.59498 28.85659
#
# Velocity S-wave (km/s) = 3.40466 3.74464 3.57869
# Velocity P-wave (km/s) = 5.54076 6.26227 5.91253
#
# Compressibility (1/GPa) = 0.02911338
#
# Stress axis : x y z
#
# Youngs Moduli (GPa) = 112.35846 32.58057 109.41686
#
# Poissons Ratio (x) = 0.16034 0.09355
# Poissons Ratio (y) = 0.55294 0.44133
# Poissons Ratio (z) = 0.09606 0.13141
#
# Static dielectric constant tensor:
#      x y z
#    x 1.981000 0.000000 0.000000 
#    y 0.000000 1.826450 0.000000 
#    z 0.000000 0.000000 1.681030 
# 
# From -- ./inp_files/1499.got.cif
#   From: 2010.05.17/outbox.cif.g08.bks.cpg/sg61_1_cif.got.tgz:1499.got - 2010.06.03 15:17:17.
