data_PCOD9459207
_publ_section_title
;
Structure prediction by ZEFSAII (Michael W. Deem and Ramdas Pophale) SiO2 
 PCOD9459207
Probable space group: P B C A
;
_chemical_formula_sum "Si O2"
_cell_formula_units_Z 64
_cell_length_a 14.487042
_cell_length_b 17.772863
_cell_length_c 11.102801
_cell_angle_alpha 90.000000
_cell_angle_beta 90.000000
_cell_angle_gamma 90.000000
_cell_volume 2858.707152
_symmetry_space_group_name_H-M "P B C A"
_symmetry_group_IT_number 61
_symmetry_cell_setting 'orthorhombic'
loop_
_space_group_symop_operation_xyz
x,y,z
1/2-x,-y,1/2+z
1/2+x,1/2-y,-z
-x,1/2+y,1/2-z
-x,-y,-z
1/2+x,y,1/2-z
1/2-x,1/2+y,z
x,1/2-y,1/2+z
loop_
_atom_site_type_symbol
_atom_site_label
_atom_site_fract_x
_atom_site_fract_y
_atom_site_fract_z
Si Si1 0.996968 0.595360 0.617532
Si Si2 0.482372 0.081500 0.878748
Si Si3 0.821149 0.794512 0.738594
Si Si4 0.135374 0.639829 0.239167
Si Si5 0.450624 0.904607 0.862440
Si Si6 0.142945 0.963612 0.960960
Si Si7 0.369547 0.703324 0.000047
Si Si8 0.290414 0.077851 0.005675
O O1 0.992146 0.620757 0.754871
O O2 0.097331 0.563340 0.585157
O O3 0.925024 0.527709 0.592458
O O4 0.965165 0.661069 0.527907
O O5 0.378706 0.097020 0.924960
O O6 0.479881 0.991903 0.847153
O O7 0.547944 0.101038 0.991910
O O8 0.710821 0.794256 0.759508
O O9 0.860633 0.879071 0.711212
O O10 0.848709 0.755057 0.614364
O O11 0.864911 0.766196 0.863978
O O12 0.138232 0.604762 0.370011
O O13 0.031484 0.648926 0.191953
O O14 0.175309 0.579855 0.142644
O O15 0.243254 0.999307 0.973715
O O16 0.288641 0.640450 0.996247
#
# Coordination Sequence:
#
# PCOD9459207 Si02
#       8
#     8   8   8   8   8   8   8   8
#     4  10  21  36  62  89 126 157 207 258 312 385
#     4  10  20  37  62  99 130 155 198 265 324 389
#     4  11  24  44  67  84 125 172 218 263 315 372
#     4  10  20  39  58  87 122 156 202 252 312 376
#     4  10  21  38  65  94 126 163 205 257 329 378
#     4  10  19  34  59  90 118 158 198 252 318 381
#     4  10  24  44  60  86 121 171 220 263 309 376
#     4   9  21  36  58  88 127 158 196 259 318 377
#
# _framework density 22.387744000000001
#
# number of rings (size 3 to 8) (size 9 to 14) (size 15 to 20)
#    0.000    2.000    1.250    1.500    8.750    0.000 
#    4.500    3.750    0.000    0.000    0.000    0.000 
#    0.000    0.000    0.000    0.000    0.000    0.000 
#
# Total GULP energy -357160.304196 kJ/mol
# GULP energy per Si atom -5580.629753 kJ/mol
# Density = 2.233679 g / cm^3
# Si number density = 22.387744 Si / 1000 Ang^3
#
#
#
# Elastic Constant Matrix: (Units=GPa)
#
#
# Indices 1 2 3 4 5 6 
#
# 1 63.6119 6.0630 14.7375 0.0000 0.0000 0.0000
# 2 6.0630 17.1353 16.4680 0.0000 0.0000 0.0000
# 3 14.7375 16.4680 139.5661 0.0000 0.0000 0.0000
# 4 0.0000 0.0000 0.0000 29.8084 0.0000 0.0000
# 5 0.0000 0.0000 0.0000 0.0000 29.1372 0.0000
# 6 0.0000 0.0000 0.0000 0.0000 0.0000 10.5057
#
#
#
# Elastic Compliance Matrix: (Units=1/GPa)
#
#
# Indices 1 2 3 4 5 6 
#
# 1 0.016441 -0.004679 -0.001184 0.000000 0.000000 0.000000
# 2 -0.004679 0.067155 -0.007430 0.000000 0.000000 0.000000
# 3 -0.001184 -0.007430 0.008167 0.000000 0.000000 0.000000
# 4 0.000000 0.000000 0.000000 0.033548 0.000000 0.000000
# 5 0.000000 0.000000 0.000000 0.000000 0.034320 0.000000
# 6 0.000000 0.000000 0.000000 0.000000 0.000000 0.095186
#
#
# Mechanical properties :
#
#
# Convention : Reuss Voigt Hill
#
# Bulk Modulus (GPa) = 15.34301 32.76116 24.05209
# Shear Modulus (GPa) = 16.49465 26.09325 21.29395
#
# Velocity S-wave (km/s) = 2.71730 3.41767 3.08741
# Velocity P-wave (km/s) = 4.08817 5.49902 4.84522
#
# Compressibility (1/GPa) = 0.06517624
#
# Stress axis : x y z
#
# Youngs Moduli (GPa) = 60.82493 14.89090 122.44758
#
# Poissons Ratio (x) = 0.06968 0.14497
# Poissons Ratio (y) = 0.28462 0.90976
# Poissons Ratio (z) = 0.07201 0.11064
#
# Static dielectric constant tensor:
#      x y z
#    x 1.856490 0.000000 0.000000 
#    y 0.000000 1.860130 0.000000 
#    z 0.000000 0.000000 1.824590 
# 
# From -- ./inp_files/5999.got.cif
#   From: 2010.05.17/outbox.cif.g08.bks.cpg/sg61_3_cif.got.tgz:5999.got - 2010.06.03 15:17:17.
