data_PCOD9459518
_publ_section_title
;
Structure prediction by ZEFSAII (Michael W. Deem and Ramdas Pophale) SiO2 
 PCOD9459518
Probable space group: P B C A
;
_chemical_formula_sum "Si O2"
_cell_formula_units_Z 64
_cell_length_a 16.839328
_cell_length_b 13.415847
_cell_length_c 13.319269
_cell_angle_alpha 90.000000
_cell_angle_beta 90.000000
_cell_angle_gamma 90.000000
_cell_volume 3009.007313
_symmetry_space_group_name_H-M "P B C A"
_symmetry_group_IT_number 61
_symmetry_cell_setting 'orthorhombic'
loop_
_space_group_symop_operation_xyz
x,y,z
1/2-x,-y,1/2+z
1/2+x,1/2-y,-z
-x,1/2+y,1/2-z
-x,-y,-z
1/2+x,y,1/2-z
1/2-x,1/2+y,z
x,1/2-y,1/2+z
loop_
_atom_site_type_symbol
_atom_site_label
_atom_site_fract_x
_atom_site_fract_y
_atom_site_fract_z
Si Si1 0.176901 0.549599 0.510094
Si Si2 0.870121 0.660296 0.520297
Si Si3 0.267708 0.602659 0.709830
Si Si4 0.884435 0.196170 0.720076
Si Si5 0.295661 0.392806 0.782282
Si Si6 0.983960 0.059680 0.868348
Si Si7 0.986154 0.827745 0.839645
Si Si8 0.857434 0.717415 0.202238
O O1 0.190510 0.429799 0.501343
O O2 0.229200 0.596726 0.599320
O O3 0.188768 0.597461 0.401479
O O4 0.085426 0.557779 0.547270
O O5 0.916333 0.688096 0.419980
O O6 0.840985 0.751634 0.587226
O O7 0.937902 0.612237 0.591504
O O8 0.194653 0.627740 0.787648
O O9 0.309783 0.498711 0.732877
O O10 0.329362 0.689495 0.730834
O O11 0.844376 0.299226 0.762800
O O12 0.943349 0.125450 0.782192
O O13 0.942694 0.250246 0.640235
O O14 0.202085 0.370993 0.769301
O O15 0.004169 0.945584 0.841382
O O16 0.946934 0.807870 0.730933
#
# Coordination Sequence:
#
# PCOD9459518 Si02
#       8
#     8   8   8   8   8   8   8   8
#     4  10  20  37  62  84 118 163 201 249 298 368
#     4  11  20  37  61  91 116 155 205 246 305 365
#     4  10  23  41  58  87 124 160 212 252 303 362
#     4  10  21  38  61  89 118 166 196 253 309 368
#     4  11  21  39  60  87 122 161 204 248 311 357
#     4  10  20  38  60  90 119 150 206 249 299 371
#     4  11  22  37  65  87 123 157 202 255 308 364
#     4  11  23  37  59  89 123 158 198 259 306 358
#
# _framework density 21.269473000000001
#
# number of rings (size 3 to 8) (size 9 to 14) (size 15 to 20)
#    0.000    1.500    2.500    5.250    1.750    0.000 
#    2.250    1.250    0.000    1.500    0.000    0.000 
#    0.000    0.000    0.000    0.000    0.000    0.000 
#
# Total GULP energy -356835.956692 kJ/mol
# GULP energy per Si atom -5575.561823 kJ/mol
# Density = 2.122106 g / cm^3
# Si number density = 21.269473 Si / 1000 Ang^3
#
#
#
# Elastic Constant Matrix: (Units=GPa)
#
#
# Indices 1 2 3 4 5 6 
#
# 1 37.1739 7.1440 9.1601 0.0000 0.0000 0.0000
# 2 7.1440 81.4289 26.3710 0.0000 0.0000 0.0000
# 3 9.1601 26.3710 57.2499 0.0000 0.0000 0.0000
# 4 0.0000 0.0000 0.0000 30.6198 0.0000 0.0000
# 5 0.0000 0.0000 0.0000 0.0000 21.6129 0.0000
# 6 0.0000 0.0000 0.0000 0.0000 0.0000 37.2517
#
#
#
# Elastic Compliance Matrix: (Units=1/GPa)
#
#
# Indices 1 2 3 4 5 6 
#
# 1 0.028102 -0.001186 -0.003950 0.000000 0.000000 0.000000
# 2 -0.001186 0.014484 -0.006482 0.000000 0.000000 0.000000
# 3 -0.003950 -0.006482 0.021085 0.000000 0.000000 0.000000
# 4 0.000000 0.000000 0.000000 0.032659 0.000000 0.000000
# 5 0.000000 0.000000 0.000000 0.000000 0.046269 0.000000
# 6 0.000000 0.000000 0.000000 0.000000 0.000000 0.026844
#
#
# Mechanical properties :
#
#
# Convention : Reuss Voigt Hill
#
# Bulk Modulus (GPa) = 24.73128 29.02255 26.87692
# Shear Modulus (GPa) = 24.25336 26.77538 25.51437
#
# Velocity S-wave (km/s) = 3.38048 3.55190 3.46725
# Velocity P-wave (km/s) = 5.18553 5.52233 5.35657
#
# Compressibility (1/GPa) = 0.04043463
#
# Stress axis : x y z
#
# Youngs Moduli (GPa) = 35.58478 69.04212 47.42700
#
# Poissons Ratio (x) = 0.08190 0.18733
# Poissons Ratio (y) = 0.04221 0.30742
# Poissons Ratio (z) = 0.14056 0.44753
#
# Static dielectric constant tensor:
#      x y z
#    x 1.803460 0.000000 0.000000 
#    y 0.000000 1.777590 0.000000 
#    z 0.000000 0.000000 1.807390 
# 
# From -- ./inp_files/6297.got.cif
#   From: 2010.05.17/outbox.cif.g08.bks.cpg/sg61_4_cif.got.tgz:6297.got - 2010.06.03 15:17:17.
