data_PCOD9459472
_publ_section_title
;
Structure prediction by ZEFSAII (Michael W. Deem and Ramdas Pophale) SiO2 
 PCOD9459472
Probable space group: P B C A
;
_chemical_formula_sum "Si O2"
_cell_formula_units_Z 56
_cell_length_a 16.647361
_cell_length_b 4.834632
_cell_length_c 27.672374
_cell_angle_alpha 90.000000
_cell_angle_beta 90.000000
_cell_angle_gamma 90.000000
_cell_volume 2227.179591
_symmetry_space_group_name_H-M "P B C A"
_symmetry_group_IT_number 61
_symmetry_cell_setting 'orthorhombic'
loop_
_space_group_symop_operation_xyz
x,y,z
1/2-x,-y,1/2+z
1/2+x,1/2-y,-z
-x,1/2+y,1/2-z
-x,-y,-z
1/2+x,y,1/2-z
1/2-x,1/2+y,z
x,1/2-y,1/2+z
loop_
_atom_site_type_symbol
_atom_site_label
_atom_site_fract_x
_atom_site_fract_y
_atom_site_fract_z
Si Si1 0.195355 0.752795 0.987297
Si Si2 0.697176 0.746525 0.897752
Si Si3 0.468966 0.613517 0.223053
Si Si4 0.065914 0.763135 0.909930
Si Si5 0.521339 0.721296 0.874203
Si Si6 0.200372 0.403923 0.352014
Si Si7 0.698509 0.401164 0.264159
O O1 0.229956 0.053628 0.975098
O O2 0.114802 0.690910 0.958111
O O3 0.183142 0.727711 0.044594
O O4 0.771629 0.943157 0.885932
O O5 0.613382 0.815873 0.873720
O O6 0.528070 0.868263 0.236772
O O7 0.383326 0.763560 0.218118
O O8 0.508002 0.944596 0.324523
O O9 0.032839 0.488455 0.884360
O O10 0.128301 0.947702 0.878810
O O11 0.993452 0.985067 0.915048
O O12 0.221369 0.089958 0.364322
O O13 0.189481 0.409111 0.294264
O O14 0.774280 0.207662 0.277625
#
# Coordination Sequence:
#
# PCOD9459472 Si02
#       7
#     8   8   8   8   8   8   8
#     4  10  21  40  68  98 132 177 213 253 318 385
#     4  10  23  45  69  96 130 167 219 273 320 383
#     4  12  26  45  66  90 129 172 216 269 333 393
#     4  12  23  39  62  97 139 168 214 259 313 402
#     4  12  27  41  65  98 127 174 217 270 337 378
#     4  10  20  36  60  90 126 166 206 256 315 374
#     4  10  22  40  64  91 117 157 215 272 320 375
#
# _framework density 25.143906999999999
#
# number of rings (size 3 to 8) (size 9 to 14) (size 15 to 20)
#    0.000    1.143    0.000    6.000    0.000    6.857 
#    0.000    0.000    0.000    5.143    0.000    0.000 
#    0.000    0.000    0.000    0.000    0.000    0.000 
#
# Total GULP energy -313801.089197 kJ/mol
# GULP energy per Si atom -5603.590879 kJ/mol
# Density = 2.508668 g / cm^3
# Si number density = 25.143907 Si / 1000 Ang^3
#
#
#
# Elastic Constant Matrix: (Units=GPa)
#
#
# Indices 1 2 3 4 5 6 
#
# 1 109.6658 22.5894 22.7776 0.0000 0.0000 0.0000
# 2 22.5894 120.7616 16.9086 0.0000 0.0000 0.0000
# 3 22.7776 16.9086 77.7982 0.0000 0.0000 0.0000
# 4 0.0000 0.0000 0.0000 27.0876 0.0000 0.0000
# 5 0.0000 0.0000 0.0000 0.0000 26.7273 0.0000
# 6 0.0000 0.0000 0.0000 0.0000 0.0000 38.7251
#
#
#
# Elastic Compliance Matrix: (Units=1/GPa)
#
#
# Indices 1 2 3 4 5 6 
#
# 1 0.009966 -0.001501 -0.002592 0.000000 0.000000 0.000000
# 2 -0.001501 0.008767 -0.001466 0.000000 0.000000 0.000000
# 3 -0.002592 -0.001466 0.013931 0.000000 0.000000 0.000000
# 4 0.000000 0.000000 0.000000 0.036917 0.000000 0.000000
# 5 0.000000 0.000000 0.000000 0.000000 0.037415 0.000000
# 6 0.000000 0.000000 0.000000 0.000000 0.000000 0.025823
#
#
# Mechanical properties :
#
#
# Convention : Reuss Voigt Hill
#
# Bulk Modulus (GPa) = 46.41106 48.08632 47.24869
# Shear Modulus (GPa) = 33.08650 34.90467 33.99559
#
# Velocity S-wave (km/s) = 3.63145 3.72989 3.68100
# Velocity P-wave (km/s) = 6.00679 6.14129 6.07441
#
# Compressibility (1/GPa) = 0.02154659
#
# Stress axis : x y z
#
# Youngs Moduli (GPa) = 100.33979 114.06591 71.78190
#
# Poissons Ratio (x) = 0.17126 0.18603
# Poissons Ratio (y) = 0.15065 0.10522
# Poissons Ratio (z) = 0.26004 0.16720
#
# Static dielectric constant tensor:
#      x y z
#    x 2.008530 0.000000 0.000000 
#    y 0.000000 1.910400 0.000000 
#    z 0.000000 0.000000 2.028670 
# 
# From -- ./inp_files/11537.got.cif
#   From: 2010.05.17/outbox.cif.g08.bks.cpg/sg61_6_cif.got.tgz:11537.got - 2010.06.03 15:17:17.
