data_PCOD9459471
_publ_section_title
;
Structure prediction by ZEFSAII (Michael W. Deem and Ramdas Pophale) SiO2 
 PCOD9459471
Probable space group: P B C A
;
_chemical_formula_sum "Si O2"
_cell_formula_units_Z 40
_cell_length_a 7.933972
_cell_length_b 11.171583
_cell_length_c 17.842674
_cell_angle_alpha 90.000000
_cell_angle_beta 90.000000
_cell_angle_gamma 90.000000
_cell_volume 1581.485887
_symmetry_space_group_name_H-M "P B C A"
_symmetry_group_IT_number 61
_symmetry_cell_setting 'orthorhombic'
loop_
_space_group_symop_operation_xyz
x,y,z
1/2-x,-y,1/2+z
1/2+x,1/2-y,-z
-x,1/2+y,1/2-z
-x,-y,-z
1/2+x,y,1/2-z
1/2-x,1/2+y,z
x,1/2-y,1/2+z
loop_
_atom_site_type_symbol
_atom_site_label
_atom_site_fract_x
_atom_site_fract_y
_atom_site_fract_z
Si Si1 0.954651 0.940636 0.348441
Si Si2 0.758880 0.440607 0.726862
Si Si3 0.064183 0.321097 0.656456
Si Si4 0.115052 0.160299 0.981825
Si Si5 0.262160 0.583705 0.498805
O O1 0.021716 0.807169 0.340197
O O2 0.883966 0.948846 0.432134
O O3 0.804434 0.958799 0.288369
O O4 0.097290 0.031427 0.322744
O O5 0.710020 0.331982 0.782192
O O6 0.922490 0.416420 0.677674
O O7 0.130440 0.337670 0.572718
O O8 0.167622 0.295159 0.958563
O O9 0.222950 0.043618 0.958558
O O10 0.919032 0.129115 0.968640
#
# Coordination Sequence:
#
# PCOD9459471 Si02
#       5
#     8   8   8   8   8
#     4  10  20  38  60  90 123 161 202 254 309 363
#     4  10  20  36  60  90 121 164 196 252 302 379
#     4  10  20  38  58  89 123 159 204 251 306 369
#     4  10  22  44  63  92 126 162 211 260 312 370
#     4  10  22  44  64  91 124 164 208 262 308 373
#
# _framework density 25.292670000000001
#
# number of rings (size 3 to 8) (size 9 to 14) (size 15 to 20)
#    0.000    2.000    2.000    1.200    0.000    0.800 
#   18.000    0.000    0.000    0.000    0.000    0.000 
#    0.000    0.000    0.000    0.000    0.000    0.000 
#
# Total GULP energy -223692.009517 kJ/mol
# GULP energy per Si atom -5592.300238 kJ/mol
# Density = 2.523510 g / cm^3
# Si number density = 25.292670 Si / 1000 Ang^3
#
#
#
# Elastic Constant Matrix: (Units=GPa)
#
#
# Indices 1 2 3 4 5 6 
#
# 1 82.9725 15.5115 20.1802 0.0000 0.0000 0.0000
# 2 15.5115 126.3000 37.5627 0.0000 0.0000 0.0000
# 3 20.1802 37.5627 85.0603 0.0000 0.0000 0.0000
# 4 0.0000 0.0000 0.0000 25.6608 0.0000 0.0000
# 5 0.0000 0.0000 0.0000 0.0000 39.9093 0.0000
# 6 0.0000 0.0000 0.0000 0.0000 0.0000 31.7386
#
#
#
# Elastic Compliance Matrix: (Units=1/GPa)
#
#
# Indices 1 2 3 4 5 6 
#
# 1 0.012855 -0.000773 -0.002708 0.000000 0.000000 0.000000
# 2 -0.000773 0.009161 -0.003862 0.000000 0.000000 0.000000
# 3 -0.002708 -0.003862 0.014104 0.000000 0.000000 0.000000
# 4 0.000000 0.000000 0.000000 0.038970 0.000000 0.000000
# 5 0.000000 0.000000 0.000000 0.000000 0.025057 0.000000
# 6 0.000000 0.000000 0.000000 0.000000 0.000000 0.031507
#
#
# Mechanical properties :
#
#
# Convention : Reuss Voigt Hill
#
# Bulk Modulus (GPa) = 46.65613 48.98241 47.81927
# Shear Modulus (GPa) = 32.57593 34.20030 33.38812
#
# Velocity S-wave (km/s) = 3.59271 3.68119 3.63722
# Velocity P-wave (km/s) = 5.97466 6.12181 6.04868
#
# Compressibility (1/GPa) = 0.02143341
#
# Stress axis : x y z
#
# Youngs Moduli (GPa) = 77.78776 109.15509 70.89961
#
# Poissons Ratio (x) = 0.08441 0.19202
# Poissons Ratio (y) = 0.06016 0.27383
# Poissons Ratio (z) = 0.21068 0.42157
#
# Static dielectric constant tensor:
#      x y z
#    x 2.006900 0.000000 0.000000 
#    y 0.000000 2.037840 0.000000 
#    z 0.000000 0.000000 1.960300 
# 
# From -- ./inp_files/2146.got.cif
#   From: 2010.05.17/outbox.cif.g08.bks.cpg/sg61_2_cif.got.tgz:2146.got - 2010.06.03 15:17:17.
