data_PCOD9459935
_publ_section_title
;
Structure prediction by ZEFSAII (Michael W. Deem and Ramdas Pophale) SiO2 
 PCOD9459935
Probable space group: P B C A
;
_chemical_formula_sum "Si O2"
_cell_formula_units_Z 64
_cell_length_a 9.072778
_cell_length_b 15.504316
_cell_length_c 20.524530
_cell_angle_alpha 90.000000
_cell_angle_beta 90.000000
_cell_angle_gamma 90.000000
_cell_volume 2887.128518
_symmetry_space_group_name_H-M "P B C A"
_symmetry_group_IT_number 61
_symmetry_cell_setting 'orthorhombic'
loop_
_space_group_symop_operation_xyz
x,y,z
1/2-x,-y,1/2+z
1/2+x,1/2-y,-z
-x,1/2+y,1/2-z
-x,-y,-z
1/2+x,y,1/2-z
1/2-x,1/2+y,z
x,1/2-y,1/2+z
loop_
_atom_site_type_symbol
_atom_site_label
_atom_site_fract_x
_atom_site_fract_y
_atom_site_fract_z
Si Si1 0.404035 0.838830 0.639880
Si Si2 0.209677 0.983736 0.698590
Si Si3 0.702889 0.907362 0.662898
Si Si4 0.493216 0.858308 0.993299
Si Si5 0.102549 0.855606 0.186676
Si Si6 0.543568 0.514265 0.604314
Si Si7 0.839166 0.752928 0.230994
Si Si8 0.282038 0.214133 0.552313
O O1 0.558042 0.882906 0.623074
O O2 0.427236 0.790688 0.709029
O O3 0.340847 0.774409 0.586911
O O4 0.277402 0.907906 0.654916
O O5 0.342514 0.050771 0.707361
O O6 0.158485 0.942924 0.766039
O O7 0.074137 0.027317 0.661628
O O8 0.798448 0.821395 0.679210
O O9 0.802083 0.980969 0.631268
O O10 0.318515 0.838512 0.001566
O O11 0.548082 0.900804 0.060668
O O12 0.511177 0.933988 0.940172
O O13 0.590599 0.775441 0.975722
O O14 0.198290 0.791284 0.231917
O O15 0.148590 0.841389 0.111343
O O16 0.935119 0.828268 0.198730
#
# Coordination Sequence:
#
# PCOD9459935 Si02
#       8
#     8   8   8   8   8   8   8   8
#     4  10  22  40  61  95 131 170 218 268 332 394
#     4  11  22  41  65  96 141 172 211 269 342 403
#     4  11  23  39  67  97 135 176 213 267 339 407
#     4  11  25  47  71  93 131 182 229 282 333 401
#     4  11  23  39  64 100 134 172 218 273 331 404
#     4  11  24  46  69  98 132 180 224 273 342 409
#     4  10  21  39  62  95 136 173 213 265 333 399
#     4  11  24  45  68  92 129 176 231 285 330 392
#
# _framework density 22.167354
#
# number of rings (size 3 to 8) (size 9 to 14) (size 15 to 20)
#    0.000    1.250    3.750    2.250    7.000    0.000 
#    2.250    0.625    0.000    0.000    0.000    0.000 
#    0.000    0.000    0.000    0.000    0.000    0.000 
#
# Total GULP energy -358047.530820 kJ/mol
# GULP energy per Si atom -5594.492669 kJ/mol
# Density = 2.211690 g / cm^3
# Si number density = 22.167354 Si / 1000 Ang^3
#
#
#
# Elastic Constant Matrix: (Units=GPa)
#
#
# Indices 1 2 3 4 5 6 
#
# 1 58.5756 -14.9575 21.8661 0.0000 0.0000 0.0000
# 2 -14.9575 43.7894 3.1381 0.0000 0.0000 0.0000
# 3 21.8661 3.1381 37.5146 0.0000 0.0000 0.0000
# 4 0.0000 0.0000 0.0000 28.3813 0.0000 0.0000
# 5 0.0000 0.0000 0.0000 0.0000 21.1943 0.0000
# 6 0.0000 0.0000 0.0000 0.0000 0.0000 29.6494
#
#
#
# Elastic Compliance Matrix: (Units=1/GPa)
#
#
# Indices 1 2 3 4 5 6 
#
# 1 0.025409 0.009799 -0.015630 0.000000 0.000000 0.000000
# 2 0.009799 0.026753 -0.007950 0.000000 0.000000 0.000000
# 3 -0.015630 -0.007950 0.036431 0.000000 0.000000 0.000000
# 4 0.000000 0.000000 0.000000 0.035234 0.000000 0.000000
# 5 0.000000 0.000000 0.000000 0.000000 0.047182 0.000000
# 6 0.000000 0.000000 0.000000 0.000000 0.000000 0.033727
#
#
# Mechanical properties :
#
#
# Convention : Reuss Voigt Hill
#
# Bulk Modulus (GPa) = 16.38448 17.77477 17.07963
# Shear Modulus (GPa) = 19.79082 24.50053 22.14568
#
# Velocity S-wave (km/s) = 2.99120 3.32814 3.16416
# Velocity P-wave (km/s) = 4.39739 4.77541 4.59029
#
# Compressibility (1/GPa) = 0.06103336
#
# Stress axis : x y z
#
# Youngs Moduli (GPa) = 39.35657 37.37839 27.44890
#
# Poissons Ratio (x) = -0.36627 0.42902
# Poissons Ratio (y) = -0.38566 0.21821
# Poissons Ratio (z) = 0.61513 0.29714
#
# Static dielectric constant tensor:
#      x y z
#    x 1.815250 0.000000 0.000000 
#    y 0.000000 1.810880 0.000000 
#    z 0.000000 0.000000 1.809350 
# 
# From -- ./inp_files/10167.got.cif
#   From: 2010.05.17/outbox.cif.g08.bks.cpg/sg61_6_cif.got.tgz:10167.got - 2010.06.03 15:17:17.
