data_PCOD9459660
_publ_section_title
;
Structure prediction by ZEFSAII (Michael W. Deem and Ramdas Pophale) SiO2 
 PCOD9459660
Probable space group: P B C A
;
_chemical_formula_sum "Si O2"
_cell_formula_units_Z 64
_cell_length_a 14.795968
_cell_length_b 18.275834
_cell_length_c 10.305927
_cell_angle_alpha 90.000000
_cell_angle_beta 90.000000
_cell_angle_gamma 90.000000
_cell_volume 2786.811859
_symmetry_space_group_name_H-M "P B C A"
_symmetry_group_IT_number 61
_symmetry_cell_setting 'orthorhombic'
loop_
_space_group_symop_operation_xyz
x,y,z
1/2-x,-y,1/2+z
1/2+x,1/2-y,-z
-x,1/2+y,1/2-z
-x,-y,-z
1/2+x,y,1/2-z
1/2-x,1/2+y,z
x,1/2-y,1/2+z
loop_
_atom_site_type_symbol
_atom_site_label
_atom_site_fract_x
_atom_site_fract_y
_atom_site_fract_z
Si Si1 0.820447 0.477377 0.511776
Si Si2 0.276432 0.139269 0.695874
Si Si3 0.769180 0.779333 0.931660
Si Si4 0.122013 0.115464 0.892401
Si Si5 0.012234 0.391553 0.137103
Si Si6 0.618585 0.520042 0.483168
Si Si7 0.600824 0.735918 0.626079
Si Si8 0.146969 0.622487 0.244671
O O1 0.822377 0.417795 0.399289
O O2 0.891453 0.543197 0.521024
O O3 0.724931 0.516573 0.490462
O O4 0.821324 0.433723 0.646459
O O5 0.211546 0.199694 0.626649
O O6 0.211664 0.103474 0.802613
O O7 0.354154 0.187901 0.760007
O O8 0.847657 0.816793 0.016986
O O9 0.680068 0.764517 0.019755
O O10 0.731656 0.834578 0.820982
O O11 0.044127 0.120064 0.784795
O O12 0.926366 0.445570 0.110831
O O13 0.984102 0.312127 0.082926
O O14 0.084794 0.439496 0.056409
O O15 0.596909 0.576621 0.366748
O O16 0.586860 0.816208 0.683083
#
# Coordination Sequence:
#
# PCOD9459660 Si02
#       8
#     8   8   8   8   8   8   8   8
#     4  12  20  38  68  97 117 163 220 266 305 369
#     4  10  21  39  62  90 120 162 213 264 308 366
#     4  10  20  40  62  89 121 161 216 262 306 373
#     4  11  22  38  63  91 126 161 209 267 309 374
#     4  11  22  40  59  89 130 169 200 256 331 389
#     4  11  22  38  64  92 129 166 213 263 321 394
#     4  10  21  38  64  87 127 165 210 257 318 385
#     4  11  20  37  68  95 116 168 219 261 310 382
#
# _framework density 22.965311
#
# number of rings (size 3 to 8) (size 9 to 14) (size 15 to 20)
#    0.000    1.250    6.250    0.750    0.000    0.000 
#    2.250    0.625    0.000    0.000    0.000    0.000 
#    0.000    0.000    0.000    0.000    0.000    0.000 
#
# Total GULP energy -357424.925181 kJ/mol
# GULP energy per Si atom -5584.764456 kJ/mol
# Density = 2.291304 g / cm^3
# Si number density = 22.965311 Si / 1000 Ang^3
#
#
#
# Elastic Constant Matrix: (Units=GPa)
#
#
# Indices 1 2 3 4 5 6 
#
# 1 15.6983 8.6570 -7.9911 0.0000 0.0000 0.0000
# 2 8.6570 135.7583 41.2655 0.0000 0.0000 0.0000
# 3 -7.9911 41.2655 63.2085 0.0000 0.0000 0.0000
# 4 0.0000 0.0000 0.0000 55.9896 0.0000 0.0000
# 5 0.0000 0.0000 0.0000 0.0000 10.2186 0.0000
# 6 0.0000 0.0000 0.0000 0.0000 0.0000 30.0614
#
#
#
# Elastic Compliance Matrix: (Units=1/GPa)
#
#
# Indices 1 2 3 4 5 6 
#
# 1 0.077405 -0.009869 0.016229 0.000000 0.000000 0.000000
# 2 -0.009869 0.010448 -0.008069 0.000000 0.000000 0.000000
# 3 0.016229 -0.008069 0.023140 0.000000 0.000000 0.000000
# 4 0.000000 0.000000 0.000000 0.017860 0.000000 0.000000
# 5 0.000000 0.000000 0.000000 0.000000 0.097861 0.000000
# 6 0.000000 0.000000 0.000000 0.000000 0.000000 0.033265
#
#
# Mechanical properties :
#
#
# Convention : Reuss Voigt Hill
#
# Bulk Modulus (GPa) = 9.29584 33.16977 21.23280
# Shear Modulus (GPa) = 16.70818 30.76951 23.73884
#
# Velocity S-wave (km/s) = 2.70022 3.66433 3.21858
# Velocity P-wave (km/s) = 3.71189 5.69016 4.80396
#
# Compressibility (1/GPa) = 0.10757501
#
# Stress axis : x y z
#
# Youngs Moduli (GPa) = 12.91912 95.71315 43.21544
#
# Poissons Ratio (x) = 0.94458 -0.70133
# Poissons Ratio (y) = 0.12750 0.34869
# Poissons Ratio (z) = -0.20966 0.77226
#
# Static dielectric constant tensor:
#      x y z
#    x 1.922200 0.000000 0.000000 
#    y 0.000000 1.920810 0.000000 
#    z 0.000000 0.000000 1.868310 
# 
# From -- ./inp_files/5996.got.cif
#   From: 2010.05.17/outbox.cif.g08.bks.cpg/sg61_3_cif.got.tgz:5996.got - 2010.06.03 15:17:17.
