data_PCOD9459744
_publ_section_title
;
Structure prediction by ZEFSAII (Michael W. Deem and Ramdas Pophale) SiO2 
 PCOD9459744
Probable space group: P B C A
;
_chemical_formula_sum "Si O2"
_cell_formula_units_Z 44
_cell_length_a 14.737603
_cell_length_b 9.892937
_cell_length_c 12.526896
_cell_angle_alpha 90.000000
_cell_angle_beta 90.000000
_cell_angle_gamma 90.000000
_cell_volume 1826.398613
_symmetry_space_group_name_H-M "P B C A"
_symmetry_group_IT_number 61
_symmetry_cell_setting 'orthorhombic'
loop_
_space_group_symop_operation_xyz
x,y,z
1/2-x,-y,1/2+z
1/2+x,1/2-y,-z
-x,1/2+y,1/2-z
-x,-y,-z
1/2+x,y,1/2-z
1/2-x,1/2+y,z
x,1/2-y,1/2+z
loop_
_atom_site_type_symbol
_atom_site_label
_atom_site_fract_x
_atom_site_fract_y
_atom_site_fract_z
Si Si1 0.659279 0.857124 0.903513
Si Si2 0.491143 0.818075 0.362093
Si Si3 0.952515 0.561006 0.247195
Si Si4 0.500000 0.500000 0.500000
Si Si5 0.747633 0.529288 0.199108
Si Si6 0.304815 0.724909 0.940574
O O1 0.589568 0.731974 0.897836
O O2 0.678106 0.919074 0.788192
O O3 0.607850 0.957839 0.983588
O O4 0.754826 0.812126 0.951652
O O5 0.466619 0.722834 0.259472
O O6 0.414369 0.773220 0.447107
O O7 0.495008 0.975056 0.335572
O O8 0.846963 0.522408 0.252883
O O9 0.986582 0.513461 0.130478
O O10 0.760860 0.640900 0.107405
O O11 0.715995 0.390183 0.147360
#
# Coordination Sequence:
#
# PCOD9459744 Si02
#       6
#     8   8   8   4   8   8
#     4  11  24  44  71 100 142 185 233 292 356 420
#     4  10  23  44  69 104 133 189 227 291 354 419
#     4  10  21  44  69 101 139 182 234 280 361 414
#     4  10  20  42  70  92 134 190 218 272 360 420
#     4  11  24  44  69 104 137 186 232 296 348 421
#     4  11  24  46  70 102 145 179 239 289 352 425
#
# _framework density 24.091125999999999
#
# number of rings (size 3 to 8) (size 9 to 14) (size 15 to 20)
#    0.000    1.455    1.818    3.273    0.000    2.909 
#   19.636    1.818    0.000    0.000    0.000    0.000 
#    0.000    0.000    0.000    0.000    0.000    0.000 
#
# Total GULP energy -245193.761084 kJ/mol
# GULP energy per Si atom -5572.585479 kJ/mol
# Density = 2.403629 g / cm^3
# Si number density = 24.091126 Si / 1000 Ang^3
#
#
#
# Elastic Constant Matrix: (Units=GPa)
#
#
# Indices 1 2 3 4 5 6 
#
# 1 100.3758 6.7722 15.4244 0.0000 0.0000 0.0000
# 2 6.7722 70.9480 6.0473 0.0000 0.0000 0.0000
# 3 15.4244 6.0473 39.6594 0.0000 0.0000 0.0000
# 4 0.0000 0.0000 0.0000 15.8572 0.0000 0.0000
# 5 0.0000 0.0000 0.0000 0.0000 33.8396 0.0000
# 6 0.0000 0.0000 0.0000 0.0000 0.0000 34.6298
#
#
#
# Elastic Compliance Matrix: (Units=1/GPa)
#
#
# Indices 1 2 3 4 5 6 
#
# 1 0.010627 -0.000671 -0.004031 0.000000 0.000000 0.000000
# 2 -0.000671 0.014323 -0.001923 0.000000 0.000000 0.000000
# 3 -0.004031 -0.001923 0.027076 0.000000 0.000000 0.000000
# 4 0.000000 0.000000 0.000000 0.063063 0.000000 0.000000
# 5 0.000000 0.000000 0.000000 0.000000 0.029551 0.000000
# 6 0.000000 0.000000 0.000000 0.000000 0.000000 0.028877
#
#
# Mechanical properties :
#
#
# Convention : Reuss Voigt Hill
#
# Bulk Modulus (GPa) = 25.78906 29.71900 27.75403
# Shear Modulus (GPa) = 25.03865 29.04795 27.04330
#
# Velocity S-wave (km/s) = 3.22736 3.47616 3.35407
# Velocity P-wave (km/s) = 4.96144 5.33615 5.15220
#
# Compressibility (1/GPa) = 0.03877613
#
# Stress axis : x y z
#
# Youngs Moduli (GPa) = 94.09794 69.81885 36.93360
#
# Poissons Ratio (x) = 0.04684 0.14887
# Poissons Ratio (y) = 0.06312 0.07103
# Poissons Ratio (z) = 0.37930 0.13427
#
# Static dielectric constant tensor:
#      x y z
#    x 1.944800 0.000000 0.000000 
#    y 0.000000 2.013100 0.000000 
#    z 0.000000 0.000000 1.835210 
# 
# From -- ./inp_files/7770.got.cif
#   From: 2010.05.17/outbox.cif.g08.bks.cpg/sg61_4_cif.got.tgz:7770.got - 2010.06.03 15:17:17.
