data_PCOD9459885
_publ_section_title
;
Structure prediction by ZEFSAII (Michael W. Deem and Ramdas Pophale) SiO2 
 PCOD9459885
Probable space group: P B C A
;
_chemical_formula_sum "Si O2"
_cell_formula_units_Z 64
_cell_length_a 10.623433
_cell_length_b 8.492337
_cell_length_c 31.673148
_cell_angle_alpha 90.000000
_cell_angle_beta 90.000000
_cell_angle_gamma 90.000000
_cell_volume 2857.480881
_symmetry_space_group_name_H-M "P B C A"
_symmetry_group_IT_number 61
_symmetry_cell_setting 'orthorhombic'
loop_
_space_group_symop_operation_xyz
x,y,z
1/2-x,-y,1/2+z
1/2+x,1/2-y,-z
-x,1/2+y,1/2-z
-x,-y,-z
1/2+x,y,1/2-z
1/2-x,1/2+y,z
x,1/2-y,1/2+z
loop_
_atom_site_type_symbol
_atom_site_label
_atom_site_fract_x
_atom_site_fract_y
_atom_site_fract_z
Si Si1 0.567119 0.768726 0.475955
Si Si2 0.439268 0.271258 0.323525
Si Si3 0.821712 0.624402 0.475786
Si Si4 0.657759 0.661564 0.313171
Si Si5 0.638696 0.348374 0.263201
Si Si6 0.796449 0.556187 0.671108
Si Si7 0.368414 0.858326 0.618211
Si Si8 0.488371 0.687867 0.883665
O O1 0.679132 0.653942 0.491764
O O2 0.437686 0.783511 0.502355
O O3 0.520027 0.732218 0.428118
O O4 0.634982 0.941734 0.477356
O O5 0.522390 0.249006 0.281425
O O6 0.352139 0.423612 0.324414
O O7 0.540060 0.270901 0.361371
O O8 0.348692 0.120618 0.328851
O O9 0.815370 0.683040 0.427220
O O10 0.617962 0.516398 0.284868
O O11 0.731253 0.781782 0.282438
O O12 0.762624 0.607845 0.347285
O O13 0.552320 0.732569 0.343244
O O14 0.648351 0.364690 0.213557
O O15 0.846008 0.648140 0.629767
O O16 0.448121 0.016110 0.612790
#
# Coordination Sequence:
#
# PCOD9459885 Si02
#       8
#     8   8   8   8   8   8   8   8
#     4  10  22  40  65  95 130 165 211 255 323 369
#     4  10  25  41  58  87 118 166 199 258 313 374
#     4  10  21  39  66  96 131 165 206 266 306 388
#     4  11  20  38  62  90 112 160 207 256 299 365
#     4  11  25  37  63  87 120 156 211 257 312 363
#     4  11  25  41  58  84 128 157 209 259 316 371
#     4   9  19  40  62  89 121 156 210 253 305 365
#     4  10  21  38  62  86 121 165 202 256 306 370
#
# _framework density 22.397349999999999
#
# number of rings (size 3 to 8) (size 9 to 14) (size 15 to 20)
#    0.000    1.750    2.500    0.750    5.250    1.500 
#    0.000    0.000    0.000    0.000    0.000    0.000 
#    0.000    0.000    0.000    0.000    0.000    0.000 
#
# Total GULP energy -357507.570306 kJ/mol
# GULP energy per Si atom -5586.055786 kJ/mol
# Density = 2.234637 g / cm^3
# Si number density = 22.397350 Si / 1000 Ang^3
#
#
#
# Elastic Constant Matrix: (Units=GPa)
#
#
# Indices 1 2 3 4 5 6 
#
# 1 71.3299 13.7126 21.1657 0.0000 0.0000 0.0000
# 2 13.7126 30.5392 4.3418 0.0000 0.0000 0.0000
# 3 21.1657 4.3418 63.5302 0.0000 0.0000 0.0000
# 4 0.0000 0.0000 0.0000 3.3138 0.0000 0.0000
# 5 0.0000 0.0000 0.0000 0.0000 28.5645 0.0000
# 6 0.0000 0.0000 0.0000 0.0000 0.0000 37.2085
#
#
#
# Elastic Compliance Matrix: (Units=1/GPa)
#
#
# Indices 1 2 3 4 5 6 
#
# 1 0.016862 -0.006839 -0.005150 0.000000 0.000000 0.000000
# 2 -0.006839 0.035840 -0.000171 0.000000 0.000000 0.000000
# 3 -0.005150 -0.000171 0.017468 0.000000 0.000000 0.000000
# 4 0.000000 0.000000 0.000000 0.301769 0.000000 0.000000
# 5 0.000000 0.000000 0.000000 0.000000 0.035009 0.000000
# 6 0.000000 0.000000 0.000000 0.000000 0.000000 0.026876
#
#
# Mechanical properties :
#
#
# Convention : Reuss Voigt Hill
#
# Bulk Modulus (GPa) = 21.81048 27.09326 24.45187
# Shear Modulus (GPa) = 10.56128 22.22931 16.39529
#
# Velocity S-wave (km/s) = 2.17386 3.15381 2.70852
# Velocity P-wave (km/s) = 4.00749 5.03835 4.55219
#
# Compressibility (1/GPa) = 0.04584951
#
# Stress axis : x y z
#
# Youngs Moduli (GPa) = 59.30334 27.90178 57.24710
#
# Poissons Ratio (x) = 0.19083 0.29485
# Poissons Ratio (y) = 0.40559 0.00978
# Poissons Ratio (z) = 0.30544 0.00477
#
# Static dielectric constant tensor:
#      x y z
#    x 1.859180 0.000000 0.000000 
#    y 0.000000 1.863970 0.000000 
#    z 0.000000 0.000000 1.828860 
# 
# From -- ./inp_files/11797.got.cif
#   From: 2010.05.17/outbox.cif.g08.bks.cpg/sg61_6_cif.got.tgz:11797.got - 2010.06.03 15:17:17.
