data_PCOD9459293
_publ_section_title
;
Structure prediction by ZEFSAII (Michael W. Deem and Ramdas Pophale) SiO2 
 PCOD9459293
Probable space group: P B C A
;
_chemical_formula_sum "Si O2"
_cell_formula_units_Z 40
_cell_length_a 5.603460
_cell_length_b 13.587216
_cell_length_c 20.565042
_cell_angle_alpha 90.000000
_cell_angle_beta 90.000000
_cell_angle_gamma 90.000000
_cell_volume 1565.728138
_symmetry_space_group_name_H-M "P B C A"
_symmetry_group_IT_number 61
_symmetry_cell_setting 'orthorhombic'
loop_
_space_group_symop_operation_xyz
x,y,z
1/2-x,-y,1/2+z
1/2+x,1/2-y,-z
-x,1/2+y,1/2-z
-x,-y,-z
1/2+x,y,1/2-z
1/2-x,1/2+y,z
x,1/2-y,1/2+z
loop_
_atom_site_type_symbol
_atom_site_label
_atom_site_fract_x
_atom_site_fract_y
_atom_site_fract_z
Si Si1 0.624020 0.470864 0.762349
Si Si2 0.465723 0.764283 0.080561
Si Si3 0.649842 0.810257 0.215441
Si Si4 0.740813 0.594759 0.491718
Si Si5 0.860327 0.438585 0.404738
O O1 0.375503 0.417630 0.748107
O O2 0.636889 0.569032 0.716862
O O3 0.618406 0.512226 0.835217
O O4 0.639642 0.771226 0.141996
O O5 0.409520 0.655187 0.058402
O O6 0.235948 0.827982 0.102152
O O7 0.563984 0.822318 0.017852
O O8 0.399647 0.784111 0.250620
O O9 0.670913 0.501096 0.448307
O O10 0.899330 0.561947 0.553187
#
# Coordination Sequence:
#
# PCOD9459293 Si02
#       5
#     8   8   8   8   8
#     4  10  19  37  65  91 122 176 213 265 335 386
#     4  12  22  41  67  91 134 170 221 272 330 401
#     4  10  20  36  66  92 122 176 217 265 336 388
#     4  11  25  40  63  99 125 176 217 270 335 393
#     4  11  23  42  64  92 133 168 221 271 329 399
#
# _framework density 25.547218000000001
#
# number of rings (size 3 to 8) (size 9 to 14) (size 15 to 20)
#    0.000    1.200    6.000    3.000    0.000    0.000 
#    0.000    2.000    0.000    0.000    0.000    0.000 
#    0.000    0.000    0.000    0.000    0.000    0.000 
#
# Total GULP energy -223942.012611 kJ/mol
# GULP energy per Si atom -5598.550315 kJ/mol
# Density = 2.548907 g / cm^3
# Si number density = 25.547218 Si / 1000 Ang^3
#
#
#
# Elastic Constant Matrix: (Units=GPa)
#
#
# Indices 1 2 3 4 5 6 
#
# 1 148.1433 16.6489 21.2254 0.0000 0.0000 0.0000
# 2 16.6489 80.3716 10.6590 0.0000 0.0000 0.0000
# 3 21.2254 10.6590 100.2103 0.0000 0.0000 0.0000
# 4 0.0000 0.0000 0.0000 18.6813 0.0000 0.0000
# 5 0.0000 0.0000 0.0000 0.0000 31.0128 0.0000
# 6 0.0000 0.0000 0.0000 0.0000 0.0000 36.0442
#
#
#
# Elastic Compliance Matrix: (Units=1/GPa)
#
#
# Indices 1 2 3 4 5 6 
#
# 1 0.007090 -0.001288 -0.001365 0.000000 0.000000 0.000000
# 2 -0.001288 0.012854 -0.001094 0.000000 0.000000 0.000000
# 3 -0.001365 -0.001094 0.010385 0.000000 0.000000 0.000000
# 4 0.000000 0.000000 0.000000 0.053530 0.000000 0.000000
# 5 0.000000 0.000000 0.000000 0.000000 0.032245 0.000000
# 6 0.000000 0.000000 0.000000 0.000000 0.000000 0.027744
#
#
# Mechanical properties :
#
#
# Convention : Reuss Voigt Hill
#
# Bulk Modulus (GPa) = 43.79259 47.31019 45.55139
# Shear Modulus (GPa) = 31.45584 35.82712 33.64148
#
# Velocity S-wave (km/s) = 3.51277 3.74891 3.63276
# Velocity P-wave (km/s) = 5.79929 6.10721 5.95524
#
# Compressibility (1/GPa) = 0.02283491
#
# Stress axis : x y z
#
# Youngs Moduli (GPa) = 141.03381 77.79606 96.29719
#
# Poissons Ratio (x) = 0.10018 0.13143
# Poissons Ratio (y) = 0.18162 0.10540
# Poissons Ratio (z) = 0.19249 0.08515
#
# Static dielectric constant tensor:
#      x y z
#    x 2.092020 0.000000 0.000000 
#    y 0.000000 2.013350 0.000000 
#    z 0.000000 0.000000 1.964390 
# 
# From -- ./inp_files/698.got.cif
#   From: 2010.05.17/outbox.cif.g08.bks.cpg/sg61_1_cif.got.tgz:698.got - 2010.06.03 15:17:17.
