data_PCOD9459964
_publ_section_title
;
Structure prediction by ZEFSAII (Michael W. Deem and Ramdas Pophale) SiO2 
 PCOD9459964
Probable space group: P B C A
;
_chemical_formula_sum "Si O2"
_cell_formula_units_Z 64
_cell_length_a 20.657590
_cell_length_b 14.722325
_cell_length_c 9.141493
_cell_angle_alpha 90.000000
_cell_angle_beta 90.000000
_cell_angle_gamma 90.000000
_cell_volume 2780.181732
_symmetry_space_group_name_H-M "P B C A"
_symmetry_group_IT_number 61
_symmetry_cell_setting 'orthorhombic'
loop_
_space_group_symop_operation_xyz
x,y,z
1/2-x,-y,1/2+z
1/2+x,1/2-y,-z
-x,1/2+y,1/2-z
-x,-y,-z
1/2+x,y,1/2-z
1/2-x,1/2+y,z
x,1/2-y,1/2+z
loop_
_atom_site_type_symbol
_atom_site_label
_atom_site_fract_x
_atom_site_fract_y
_atom_site_fract_z
Si Si1 0.320556 0.754282 0.399696
Si Si2 0.486893 0.920792 0.646007
Si Si3 0.729387 0.904499 0.195478
Si Si4 0.002459 0.886552 0.191505
Si Si5 0.410703 0.744359 0.652817
Si Si6 0.870611 0.274337 0.361376
Si Si7 0.135814 0.875262 0.846252
Si Si8 0.261340 0.562658 0.486417
O O1 0.276020 0.843214 0.406519
O O2 0.388618 0.753984 0.485756
O O3 0.341411 0.751414 0.231370
O O4 0.284312 0.663130 0.444347
O O5 0.475175 0.910658 0.470756
O O6 0.451975 0.831070 0.703655
O O7 0.564303 0.915499 0.662267
O O8 0.465824 0.014634 0.722319
O O9 0.677930 0.839910 0.274598
O O10 0.763696 0.947196 0.339676
O O11 0.700578 0.984741 0.098230
O O12 0.057414 0.809404 0.178266
O O13 0.949099 0.846536 0.301623
O O14 0.865824 0.293559 0.533508
O O15 0.852808 0.173903 0.307936
O O16 0.188591 0.941887 0.916998
#
# Coordination Sequence:
#
# PCOD9459964 Si02
#       8
#     8   8   8   8   8   8   8   8
#     4  12  26  43  67  97 140 178 227 279 344 405
#     4  10  22  40  67  96 131 177 217 275 334 401
#     4  11  26  44  68  99 132 178 222 279 338 402
#     4  10  22  41  66  98 131 172 224 269 333 406
#     4  12  24  42  69  96 135 181 222 279 341 408
#     4  10  21  40  65  92 126 166 217 265 325 391
#     4  10  21  39  65  90 124 168 217 263 326 389
#     4  11  26  43  67  99 132 174 227 276 336 404
#
# _framework density 23.020077000000001
#
# number of rings (size 3 to 8) (size 9 to 14) (size 15 to 20)
#    0.000    1.250    5.000    0.000    5.250    2.000 
#    0.000    0.625    0.000    0.000    0.000    0.000 
#    0.000    0.000    0.000    0.000    0.000    0.000 
#
# Total GULP energy -357205.311108 kJ/mol
# GULP energy per Si atom -5581.332986 kJ/mol
# Density = 2.296768 g / cm^3
# Si number density = 23.020077 Si / 1000 Ang^3
#
#
#
# Elastic Constant Matrix: (Units=GPa)
#
#
# Indices 1 2 3 4 5 6 
#
# 1 50.8581 6.9813 -2.8520 0.0000 0.0000 0.0000
# 2 6.9813 94.8788 27.6630 0.0000 0.0000 0.0000
# 3 -2.8520 27.6630 53.3288 0.0000 0.0000 0.0000
# 4 0.0000 0.0000 0.0000 36.3553 0.0000 0.0000
# 5 0.0000 0.0000 0.0000 0.0000 30.6735 0.0000
# 6 0.0000 0.0000 0.0000 0.0000 0.0000 15.8404
#
#
#
# Elastic Compliance Matrix: (Units=1/GPa)
#
#
# Indices 1 2 3 4 5 6 
#
# 1 0.020074 -0.002109 0.002168 0.000000 0.000000 0.000000
# 2 -0.002109 0.012639 -0.006669 0.000000 0.000000 0.000000
# 3 0.002168 -0.006669 0.022327 0.000000 0.000000 0.000000
# 4 0.000000 0.000000 0.000000 0.027506 0.000000 0.000000
# 5 0.000000 0.000000 0.000000 0.000000 0.032601 0.000000
# 6 0.000000 0.000000 0.000000 0.000000 0.000000 0.063130
#
#
# Mechanical properties :
#
#
# Convention : Reuss Voigt Hill
#
# Bulk Modulus (GPa) = 23.91272 29.18335 26.54803
# Shear Modulus (GPa) = 24.33821 27.72539 26.03180
#
# Velocity S-wave (km/s) = 3.25508 3.47421 3.36643
# Velocity P-wave (km/s) = 4.95356 5.36641 5.16411
#
# Compressibility (1/GPa) = 0.04181875
#
# Stress axis : x y z
#
# Youngs Moduli (GPa) = 49.81660 79.11760 44.78884
#
# Poissons Ratio (x) = 0.16686 -0.09708
# Poissons Ratio (y) = 0.10506 0.29870
# Poissons Ratio (z) = -0.10798 0.52765
#
# Static dielectric constant tensor:
#      x y z
#    x 1.889650 0.000000 0.000000 
#    y 0.000000 1.884870 0.000000 
#    z 0.000000 0.000000 1.854090 
# 
# From -- ./inp_files/4329.got.cif
#   From: 2010.05.17/outbox.cif.g08.bks.cpg/sg61_3_cif.got.tgz:4329.got - 2010.06.03 15:17:17.
