data_PCOD9459003
_publ_section_title
;
Structure prediction by ZEFSAII (Michael W. Deem and Ramdas Pophale) SiO2 
 PCOD9459003
Probable space group: P B C A
;
_chemical_formula_sum "Si O2"
_cell_formula_units_Z 56
_cell_length_a 18.445408
_cell_length_b 9.033847
_cell_length_c 17.967222
_cell_angle_alpha 90.000000
_cell_angle_beta 90.000000
_cell_angle_gamma 90.000000
_cell_volume 2993.931991
_symmetry_space_group_name_H-M "P B C A"
_symmetry_group_IT_number 61
_symmetry_cell_setting 'orthorhombic'
loop_
_space_group_symop_operation_xyz
x,y,z
1/2-x,-y,1/2+z
1/2+x,1/2-y,-z
-x,1/2+y,1/2-z
-x,-y,-z
1/2+x,y,1/2-z
1/2-x,1/2+y,z
x,1/2-y,1/2+z
loop_
_atom_site_type_symbol
_atom_site_label
_atom_site_fract_x
_atom_site_fract_y
_atom_site_fract_z
Si Si1 0.758380 0.175414 0.601024
Si Si2 0.153960 0.430659 0.956870
Si Si3 0.085155 0.451652 0.798728
Si Si4 0.327060 0.076892 0.308449
Si Si5 0.218618 0.047260 0.182849
Si Si6 0.945392 0.881236 0.248788
Si Si7 0.334169 0.665698 0.617128
O O1 0.700419 0.290372 0.570674
O O2 0.817474 0.278454 0.641629
O O3 0.794880 0.074557 0.538908
O O4 0.718585 0.060647 0.656330
O O5 0.102666 0.465122 0.886523
O O6 0.132051 0.387702 0.039621
O O7 0.155580 0.476994 0.745318
O O8 0.024109 0.565291 0.772473
O O9 0.058733 0.281490 0.787331
O O10 0.285021 0.114281 0.231963
O O11 0.406923 0.010923 0.299388
O O12 0.184502 0.161596 0.124504
O O13 0.258641 0.915822 0.139046
O O14 0.892056 0.869466 0.319173
#
# Coordination Sequence:
#
# PCOD9459003 Si02
#       7
#     8   8   8   8   8   8   8
#     4  10  18  31  58  86 109 140 188 237 275 333
#     4  11  21  35  57  88 115 152 181 234 289 347
#     4  11  22  36  59  82 113 150 198 229 281 329
#     4  10  17  34  56  84 107 138 191 241 275 320
#     4  10  19  36  59  84 110 145 186 245 276 334
#     4  10  23  37  55  84 111 151 189 239 274 336
#     4  10  22  37  56  85 121 144 184 231 299 334
#
# _framework density 18.704499999999999
#
# number of rings (size 3 to 8) (size 9 to 14) (size 15 to 20)
#    0.000    1.714    4.286    2.571    2.000    1.714 
#    0.000    0.000    0.000    3.429    0.000    0.000 
#    0.000    0.000    0.000    0.000    0.000    0.000 
#
# Total GULP energy -312064.940523 kJ/mol
# GULP energy per Si atom -5572.588224 kJ/mol
# Density = 1.866193 g / cm^3
# Si number density = 18.704500 Si / 1000 Ang^3
#
#
#
# Elastic Constant Matrix: (Units=GPa)
#
#
# Indices 1 2 3 4 5 6 
#
# 1 54.1286 13.5381 -5.1812 0.0000 0.0000 0.0000
# 2 13.5381 70.2380 12.7500 0.0000 0.0000 0.0000
# 3 -5.1812 12.7500 43.9300 0.0000 0.0000 0.0000
# 4 0.0000 0.0000 0.0000 10.7947 0.0000 0.0000
# 5 0.0000 0.0000 0.0000 0.0000 4.4495 0.0000
# 6 0.0000 0.0000 0.0000 0.0000 0.0000 24.7694
#
#
#
# Elastic Compliance Matrix: (Units=1/GPa)
#
#
# Indices 1 2 3 4 5 6 
#
# 1 0.019953 -0.004511 0.003662 0.000000 0.000000 0.000000
# 2 -0.004511 0.016049 -0.005190 0.000000 0.000000 0.000000
# 3 0.003662 -0.005190 0.024702 0.000000 0.000000 0.000000
# 4 0.000000 0.000000 0.000000 0.092638 0.000000 0.000000
# 5 0.000000 0.000000 0.000000 0.000000 0.224746 0.000000
# 6 0.000000 0.000000 0.000000 0.000000 0.000000 0.040372
#
#
# Mechanical properties :
#
#
# Convention : Reuss Voigt Hill
#
# Bulk Modulus (GPa) = 20.56450 23.39004 21.97727
# Shear Modulus (GPa) = 11.19205 17.81536 14.50370
#
# Velocity S-wave (km/s) = 2.44880 3.08955 2.78764
# Velocity P-wave (km/s) = 4.36048 5.02586 4.70495
#
# Compressibility (1/GPa) = 0.04862750
#
# Stress axis : x y z
#
# Youngs Moduli (GPa) = 50.11707 62.30979 40.48295
#
# Poissons Ratio (x) = 0.28106 -0.14827
# Poissons Ratio (y) = 0.22607 0.21010
# Poissons Ratio (z) = -0.18355 0.32338
#
# Static dielectric constant tensor:
#      x y z
#    x 1.653940 0.000000 0.000000 
#    y 0.000000 1.664620 0.000000 
#    z 0.000000 0.000000 1.692450 
# 
# From -- ./inp_files/9747.got.cif
#   From: 2010.05.17/outbox.cif.g08.bks.cpg/sg61_5_cif.got.tgz:9747.got - 2010.06.03 15:17:17.
