data_PCOD9459719
_publ_section_title
;
Structure prediction by ZEFSAII (Michael W. Deem and Ramdas Pophale) SiO2 
 PCOD9459719
Probable space group: P B C A
;
_chemical_formula_sum "Si O2"
_cell_formula_units_Z 64
_cell_length_a 14.219176
_cell_length_b 13.269566
_cell_length_c 12.836897
_cell_angle_alpha 90.000000
_cell_angle_beta 90.000000
_cell_angle_gamma 90.000000
_cell_volume 2422.095179
_symmetry_space_group_name_H-M "P B C A"
_symmetry_group_IT_number 61
_symmetry_cell_setting 'orthorhombic'
loop_
_space_group_symop_operation_xyz
x,y,z
1/2-x,-y,1/2+z
1/2+x,1/2-y,-z
-x,1/2+y,1/2-z
-x,-y,-z
1/2+x,y,1/2-z
1/2-x,1/2+y,z
x,1/2-y,1/2+z
loop_
_atom_site_type_symbol
_atom_site_label
_atom_site_fract_x
_atom_site_fract_y
_atom_site_fract_z
Si Si1 0.369141 0.738743 0.315196
Si Si2 0.053834 0.666359 0.272042
Si Si3 0.290405 0.634205 0.490197
Si Si4 0.315848 0.073026 0.687871
Si Si5 0.806067 0.093575 0.568309
Si Si6 0.537123 0.445339 0.193302
Si Si7 0.745806 0.655518 0.349774
Si Si8 0.989573 0.856302 0.410008
O O1 0.463013 0.670185 0.304519
O O2 0.284413 0.698757 0.385711
O O3 0.402909 0.850577 0.347094
O O4 0.326790 0.724174 0.200021
O O5 0.145766 0.680839 0.202089
O O6 0.029471 0.755316 0.353309
O O7 0.955610 0.930639 0.317862
O O8 0.226913 0.636640 0.592801
O O9 0.276441 0.520811 0.450220
O O10 0.399316 0.656093 0.519200
O O11 0.298669 0.110349 0.806713
O O12 0.063408 0.940459 0.830594
O O13 0.273046 0.960338 0.680449
O O14 0.757827 0.155702 0.474954
O O15 0.917112 0.098416 0.540232
O O16 0.427477 0.430932 0.169583
#
# Coordination Sequence:
#
# PCOD9459719 Si02
#       8
#     8   8   8   8   8   8   8   8
#     4  11  23  46  75 114 154 208 262 322 401 489
#     4  11  23  46  74 110 163 202 264 331 401 478
#     4  11  21  42  78 113 153 197 267 321 403 486
#     4  10  21  42  78 118 154 201 267 328 402 475
#     4  10  20  41  79 115 148 201 261 325 405 468
#     4  10  21  45  73 105 160 209 249 334 394 469
#     4  11  22  44  80 111 155 202 264 331 396 494
#     4  10  22  42  73 113 150 206 254 327 394 481
#
# _framework density 26.423404999999999
#
# number of rings (size 3 to 8) (size 9 to 14) (size 15 to 20)
#    0.000    1.500    2.500    3.375    0.000    0.000 
#   22.500    3.125    8.250    0.000    0.000    0.000 
#    0.000    0.000    0.000    0.000    0.000    0.000 
#
# Total GULP energy -358488.635667 kJ/mol
# GULP energy per Si atom -5601.384932 kJ/mol
# Density = 2.636326 g / cm^3
# Si number density = 26.423405 Si / 1000 Ang^3
#
#
#
# Elastic Constant Matrix: (Units=GPa)
#
#
# Indices 1 2 3 4 5 6 
#
# 1 111.1335 12.1670 46.1165 0.0000 0.0000 0.0000
# 2 12.1670 121.9254 26.7896 0.0000 0.0000 0.0000
# 3 46.1165 26.7896 116.8271 0.0000 0.0000 0.0000
# 4 0.0000 0.0000 0.0000 39.6041 0.0000 0.0000
# 5 0.0000 0.0000 0.0000 0.0000 53.1540 0.0000
# 6 0.0000 0.0000 0.0000 0.0000 0.0000 42.5383
#
#
#
# Elastic Compliance Matrix: (Units=1/GPa)
#
#
# Indices 1 2 3 4 5 6 
#
# 1 0.010763 -0.000148 -0.004215 0.000000 0.000000 0.000000
# 2 -0.000148 0.008639 -0.001923 0.000000 0.000000 0.000000
# 3 -0.004215 -0.001923 0.010664 0.000000 0.000000 0.000000
# 4 0.000000 0.000000 0.000000 0.025250 0.000000 0.000000
# 5 0.000000 0.000000 0.000000 0.000000 0.018813 0.000000
# 6 0.000000 0.000000 0.000000 0.000000 0.000000 0.023508
#
#
# Mechanical properties :
#
#
# Convention : Reuss Voigt Hill
#
# Bulk Modulus (GPa) = 57.15646 57.78136 57.46891
# Shear Modulus (GPa) = 43.08830 44.71347 43.90089
#
# Velocity S-wave (km/s) = 4.04256 4.11809 4.08050
# Velocity P-wave (km/s) = 6.59300 6.67282 6.63303
#
# Compressibility (1/GPa) = 0.01749583
#
# Stress axis : x y z
#
# Youngs Moduli (GPa) = 92.90748 115.75504 93.77086
#
# Poissons Ratio (x) = 0.01713 0.39523
# Poissons Ratio (y) = 0.01375 0.18028
# Poissons Ratio (z) = 0.39159 0.22255
#
# Static dielectric constant tensor:
#      x y z
#    x 2.036970 0.000000 0.000000 
#    y 0.000000 2.138520 0.000000 
#    z 0.000000 0.000000 2.068830 
# 
# From -- ./inp_files/5986.got.cif
#   From: 2010.05.17/outbox.cif.g08.bks.cpg/sg61_3_cif.got.tgz:5986.got - 2010.06.03 15:17:17.
