data_PCOD9459362
_publ_section_title
;
Structure prediction by ZEFSAII (Michael W. Deem and Ramdas Pophale) SiO2 
 PCOD9459362
Probable space group: P B C A
;
_chemical_formula_sum "Si O2"
_cell_formula_units_Z 28
_cell_length_a 12.534774
_cell_length_b 15.240917
_cell_length_c 5.477100
_cell_angle_alpha 90.000000
_cell_angle_beta 90.000000
_cell_angle_gamma 90.000000
_cell_volume 1046.353127
_symmetry_space_group_name_H-M "P B C A"
_symmetry_group_IT_number 61
_symmetry_cell_setting 'orthorhombic'
loop_
_space_group_symop_operation_xyz
x,y,z
1/2-x,-y,1/2+z
1/2+x,1/2-y,-z
-x,1/2+y,1/2-z
-x,-y,-z
1/2+x,y,1/2-z
1/2-x,1/2+y,z
x,1/2-y,1/2+z
loop_
_atom_site_type_symbol
_atom_site_label
_atom_site_fract_x
_atom_site_fract_y
_atom_site_fract_z
Si Si1 0.214416 0.734720 0.377480
Si Si2 0.296528 0.537654 0.329356
Si Si3 0.000000 0.000000 0.000000
Si Si4 0.055660 0.198724 0.874974
O O1 0.154150 0.747135 0.628709
O O2 0.261923 0.637741 0.367875
O O3 0.312908 0.802830 0.378140
O O4 0.277077 0.495590 0.598977
O O5 0.414148 0.523674 0.224479
O O6 0.989592 0.898368 0.097278
O O7 0.035332 0.243741 0.615786
#
# Coordination Sequence:
#
# PCOD9459362 Si02
#       4
#     8   8   4   8
#     4  10  19  43  72  96 152 201 231 321 398 421
#     4  12  28  46  74 118 148 205 270 315 392 471
#     4  12  26  50  84 106 164 206 262 334 384 480
#     4  10  22  41  74 106 143 208 244 309 406 437
#
# _framework density 26.759606999999999
#
# number of rings (size 3 to 8) (size 9 to 14) (size 15 to 20)
#    0.000    1.143    5.714    1.714    4.000    4.571 
#    0.000    8.571    0.000    0.000    0.000    0.000 
#    0.000    0.000    0.000    0.000    0.000    0.000 
#
# Total GULP energy -155868.251254 kJ/mol
# GULP energy per Si atom -5566.723259 kJ/mol
# Density = 2.669870 g / cm^3
# Si number density = 26.759607 Si / 1000 Ang^3
#
#
#
# Elastic Constant Matrix: (Units=GPa)
#
#
# Indices 1 2 3 4 5 6 
#
# 1 51.6419 1.9764 46.0232 0.0000 0.0000 0.0000
# 2 1.9764 135.2403 78.2327 0.0000 0.0000 0.0000
# 3 46.0232 78.2327 264.0812 0.0000 0.0000 0.0000
# 4 0.0000 0.0000 0.0000 13.3977 0.0000 0.0000
# 5 0.0000 0.0000 0.0000 0.0000 50.9291 0.0000
# 6 0.0000 0.0000 0.0000 0.0000 0.0000 -6.8215
#
#
#
# Elastic Compliance Matrix: (Units=1/GPa)
#
#
# Indices 1 2 3 4 5 6 
#
# 1 0.023580 0.002453 -0.004836 0.000000 0.000000 0.000000
# 2 0.002453 0.009179 -0.003147 0.000000 0.000000 0.000000
# 3 -0.004836 -0.003147 0.005562 0.000000 0.000000 0.000000
# 4 0.000000 0.000000 0.000000 0.074640 0.000000 0.000000
# 5 0.000000 0.000000 0.000000 0.000000 0.019635 0.000000
# 6 0.000000 0.000000 0.000000 0.000000 0.000000 -0.146595
#
#
# Mechanical properties :
#
#
# Convention : Reuss Voigt Hill
#
# Bulk Modulus (GPa) = 36.68246 78.15866 57.42056
# Shear Modulus (GPa) = 813.41058 33.14980 423.28019
#
# Velocity S-wave (km/s) = 17.45364 3.52348 12.59056
# Velocity P-wave (km/s) = 20.49172 6.76936 15.25999
#
# Compressibility (1/GPa) = 0.02726098
#
# Stress axis : x y z
#
# Youngs Moduli (GPa) = 42.40840 108.94868 179.80055
#
# Poissons Ratio (x) = -0.26725 0.86955
# Poissons Ratio (y) = -0.10403 0.56576
# Poissons Ratio (z) = 0.20509 0.34282
#
# Static dielectric constant tensor:
#      x y z
#    x 2.224800 0.000000 0.000000 
#    y 0.000000 2.002840 0.000000 
#    z 0.000000 0.000000 2.113720 
# 
# From -- ./inp_files/298.got.cif
#   From: 2010.05.17/outbox.cif.g08.bks.cpg/sg61_1_cif.got.tgz:298.got - 2010.06.03 15:17:17.
