data_PCOD9459788
_publ_section_title
;
Structure prediction by ZEFSAII (Michael W. Deem and Ramdas Pophale) SiO2 
 PCOD9459788
Probable space group: P B C A
;
_chemical_formula_sum "Si O2"
_cell_formula_units_Z 64
_cell_length_a 5.268353
_cell_length_b 19.682851
_cell_length_c 30.663693
_cell_angle_alpha 90.000000
_cell_angle_beta 90.000000
_cell_angle_gamma 90.000000
_cell_volume 3179.708660
_symmetry_space_group_name_H-M "P B C A"
_symmetry_group_IT_number 61
_symmetry_cell_setting 'orthorhombic'
loop_
_space_group_symop_operation_xyz
x,y,z
1/2-x,-y,1/2+z
1/2+x,1/2-y,-z
-x,1/2+y,1/2-z
-x,-y,-z
1/2+x,y,1/2-z
1/2-x,1/2+y,z
x,1/2-y,1/2+z
loop_
_atom_site_type_symbol
_atom_site_label
_atom_site_fract_x
_atom_site_fract_y
_atom_site_fract_z
Si Si1 0.114389 0.774473 0.069113
Si Si2 0.407426 0.667198 0.491235
Si Si3 0.451507 0.640334 0.277776
Si Si4 0.247734 0.978588 0.974029
Si Si5 0.587287 0.644209 0.662625
Si Si6 0.010513 0.513863 0.779185
Si Si7 0.771211 0.109683 0.568369
Si Si8 0.391969 0.229274 0.667468
O O1 0.987426 0.848731 0.073287
O O2 0.302746 0.783694 0.029011
O O3 0.181756 0.753746 0.117579
O O4 0.940979 0.714866 0.050209
O O5 0.250916 0.602655 0.473537
O O6 0.631624 0.633305 0.520493
O O7 0.662628 0.645504 0.239270
O O8 0.478155 0.563826 0.296235
O O9 0.527810 0.701984 0.308834
O O10 0.248422 0.028240 0.932164
O O11 0.500000 0.000000 0.000000
O O12 0.000000 0.000000 0.000000
O O13 0.563406 0.571104 0.685071
O O14 0.563843 0.633757 0.609940
O O15 0.361425 0.690133 0.682827
O O16 0.861299 0.679820 0.669562
O O17 0.235023 0.521697 0.743318
#
# Coordination Sequence:
#
# PCOD9459788 Si02
#       8
#     8   8   8   8   8   8   8   8
#     4  11  21  35  59  83 119 159 203 249 300 355
#     4  11  20  36  58  80 114 161 203 244 301 353
#     4  10  22  42  66  90 125 162 197 249 309 371
#     4  10  21  35  56  80 108 147 197 243 290 347
#     4  11  23  38  62  89 125 160 200 255 308 361
#     4  10  22  41  64  90 121 158 202 246 306 377
#     4  10  21  37  55  82 117 155 199 250 299 349
#     4  11  24  39  60  94 126 159 204 254 306 365
#
# _framework density 20.127628000000001
#
# number of rings (size 3 to 8) (size 9 to 14) (size 15 to 20)
#    0.000    1.500    3.750    1.500    0.000    4.000 
#    0.000    0.000    0.000    6.000    0.000    0.000 
#    0.000    0.000    0.000    0.000    0.000    0.000 
#
# Total GULP energy -356411.697966 kJ/mol
# GULP energy per Si atom -5568.932781 kJ/mol
# Density = 2.008182 g / cm^3
# Si number density = 20.127628 Si / 1000 Ang^3
#
#
#
# Elastic Constant Matrix: (Units=GPa)
#
#
# Indices 1 2 3 4 5 6 
#
# 1 77.4695 4.8747 -9.2503 0.0000 0.0000 0.0000
# 2 4.8747 95.0997 32.1647 0.0000 0.0000 0.0000
# 3 -9.2503 32.1647 31.4213 0.0000 0.0000 0.0000
# 4 0.0000 0.0000 0.0000 34.3406 0.0000 0.0000
# 5 0.0000 0.0000 0.0000 0.0000 19.2505 0.0000
# 6 0.0000 0.0000 0.0000 0.0000 0.0000 21.5468
#
#
#
# Elastic Compliance Matrix: (Units=1/GPa)
#
#
# Indices 1 2 3 4 5 6 
#
# 1 0.013998 -0.003229 0.007427 0.000000 0.000000 0.000000
# 2 -0.003229 0.016829 -0.018178 0.000000 0.000000 0.000000
# 3 0.007427 -0.018178 0.052620 0.000000 0.000000 0.000000
# 4 0.000000 0.000000 0.000000 0.029120 0.000000 0.000000
# 5 0.000000 0.000000 0.000000 0.000000 0.051947 0.000000
# 6 0.000000 0.000000 0.000000 0.000000 0.000000 0.046411
#
#
# Mechanical properties :
#
#
# Convention : Reuss Voigt Hill
#
# Bulk Modulus (GPa) = 18.02239 28.84094 23.43166
# Shear Modulus (GPa) = 19.42647 26.77435 23.10041
#
# Velocity S-wave (km/s) = 3.11008 3.65119 3.39144
# Velocity P-wave (km/s) = 4.67657 5.66878 5.19641
#
# Compressibility (1/GPa) = 0.05548653
#
# Stress axis : x y z
#
# Youngs Moduli (GPa) = 71.43699 59.42140 19.00418
#
# Poissons Ratio (x) = 0.19190 -0.14114
# Poissons Ratio (y) = 0.23071 0.34546
# Poissons Ratio (z) = -0.53056 1.08015
#
# Static dielectric constant tensor:
#      x y z
#    x 1.790140 0.000000 0.000000 
#    y 0.000000 1.788580 0.000000 
#    z 0.000000 0.000000 0.494720 
# 
# From -- ./inp_files/11635.got.cif
#   From: 2010.05.17/outbox.cif.g08.bks.cpg/sg61_6_cif.got.tgz:11635.got - 2010.06.03 15:17:17.
