data_PCOD9459568
_publ_section_title
;
Structure prediction by ZEFSAII (Michael W. Deem and Ramdas Pophale) SiO2 
 PCOD9459568
Probable space group: P B C A
;
_chemical_formula_sum "Si O2"
_cell_formula_units_Z 64
_cell_length_a 33.520398
_cell_length_b 5.290204
_cell_length_c 14.917788
_cell_angle_alpha 90.000000
_cell_angle_beta 90.000000
_cell_angle_gamma 90.000000
_cell_volume 2645.367521
_symmetry_space_group_name_H-M "P B C A"
_symmetry_group_IT_number 61
_symmetry_cell_setting 'orthorhombic'
loop_
_space_group_symop_operation_xyz
x,y,z
1/2-x,-y,1/2+z
1/2+x,1/2-y,-z
-x,1/2+y,1/2-z
-x,-y,-z
1/2+x,y,1/2-z
1/2-x,1/2+y,z
x,1/2-y,1/2+z
loop_
_atom_site_type_symbol
_atom_site_label
_atom_site_fract_x
_atom_site_fract_y
_atom_site_fract_z
Si Si1 0.848700 0.594727 0.906004
Si Si2 0.739726 0.953170 0.897680
Si Si3 0.227757 0.086124 0.302181
Si Si4 0.908537 0.421852 0.786571
Si Si5 0.368314 0.081847 0.491984
Si Si6 0.493750 0.156049 0.189310
Si Si7 0.571425 0.299910 0.105765
Si Si8 0.860888 0.414815 0.169762
O O1 0.844691 0.848374 0.964016
O O2 0.865975 0.344315 0.954902
O O3 0.805860 0.503022 0.873632
O O4 0.880696 0.635918 0.828397
O O5 0.756188 0.193057 0.949141
O O6 0.765050 0.926264 0.806190
O O7 0.252573 0.843960 0.335108
O O8 0.181014 0.055502 0.320692
O O9 0.948071 0.364926 0.842645
O O10 0.925461 0.517456 0.691942
O O11 0.879443 0.191633 0.761620
O O12 0.412429 0.962421 0.477289
O O13 0.353387 0.170276 0.393937
O O14 0.495023 0.400121 0.255977
O O15 0.526848 0.194505 0.112122
O O16 0.604638 0.084043 0.124015
#
# Coordination Sequence:
#
# PCOD9459568 Si02
#       8
#     8   8   8   8   8   8   8   8
#     4  12  25  43  67  96 136 174 225 270 338 405
#     4  10  21  39  61  90 125 160 203 275 330 374
#     4  10  23  37  62  97 125 154 213 278 322 376
#     4  10  23  37  71 104 128 171 227 283 329 389
#     4  11  26  44  66  93 136 188 214 265 330 420
#     4  10  20  38  62 104 137 163 218 288 336 382
#     4  10  22  42  71  97 133 180 223 273 332 401
#     4  11  22  44  72  94 131 180 225 267 339 401
#
# _framework density 24.193237
#
# number of rings (size 3 to 8) (size 9 to 14) (size 15 to 20)
#    0.000    1.500    2.500    2.250    8.750    0.000 
#    0.000    5.000    0.000    0.000    0.000    0.000 
#    0.000    0.000    0.000    0.000    0.000    0.000 
#
# Total GULP energy -357618.572490 kJ/mol
# GULP energy per Si atom -5587.790195 kJ/mol
# Density = 2.413817 g / cm^3
# Si number density = 24.193237 Si / 1000 Ang^3
#
#
#
# Elastic Constant Matrix: (Units=GPa)
#
#
# Indices 1 2 3 4 5 6 
#
# 1 138.1057 29.2914 1.9845 0.0000 0.0000 0.0000
# 2 29.2914 163.0104 14.3208 0.0000 0.0000 0.0000
# 3 1.9845 14.3208 24.4258 0.0000 0.0000 0.0000
# 4 0.0000 0.0000 0.0000 23.6533 0.0000 0.0000
# 5 0.0000 0.0000 0.0000 0.0000 2.6248 0.0000
# 6 0.0000 0.0000 0.0000 0.0000 0.0000 26.6604
#
#
#
# Elastic Compliance Matrix: (Units=1/GPa)
#
#
# Indices 1 2 3 4 5 6 
#
# 1 0.007529 -0.001370 0.000191 0.000000 0.000000 0.000000
# 2 -0.001370 0.006717 -0.003827 0.000000 0.000000 0.000000
# 3 0.000191 -0.003827 0.043168 0.000000 0.000000 0.000000
# 4 0.000000 0.000000 0.000000 0.042277 0.000000 0.000000
# 5 0.000000 0.000000 0.000000 0.000000 0.380978 0.000000
# 6 0.000000 0.000000 0.000000 0.000000 0.000000 0.037509
#
#
# Mechanical properties :
#
#
# Convention : Reuss Voigt Hill
#
# Bulk Modulus (GPa) = 21.09540 46.30391 33.69966
# Shear Modulus (GPa) = 9.19135 29.25071 19.22103
#
# Velocity S-wave (km/s) = 1.95125 3.48090 2.82171
# Velocity P-wave (km/s) = 3.71685 5.94444 4.95738
#
# Compressibility (1/GPa) = 0.04740370
#
# Stress axis : x y z
#
# Youngs Moduli (GPa) = 132.82731 148.87861 23.16508
#
# Poissons Ratio (x) = 0.20391 -0.00443
# Poissons Ratio (y) = 0.18192 0.08865
# Poissons Ratio (z) = -0.02542 0.56973
#
# Static dielectric constant tensor:
#      x y z
#    x 1.955260 0.000000 0.000000 
#    y 0.000000 2.023060 0.000000 
#    z 0.000000 0.000000 2.057310 
# 
# From -- ./inp_files/9922.got.cif
#   From: 2010.05.17/outbox.cif.g08.bks.cpg/sg61_5_cif.got.tgz:9922.got - 2010.06.03 15:17:17.
