data_PCOD9459857
_publ_section_title
;
Structure prediction by ZEFSAII (Michael W. Deem and Ramdas Pophale) SiO2 
 PCOD9459857
Probable space group: P B C A
;
_chemical_formula_sum "Si O2"
_cell_formula_units_Z 64
_cell_length_a 9.204936
_cell_length_b 10.815216
_cell_length_c 31.666842
_cell_angle_alpha 90.000000
_cell_angle_beta 90.000000
_cell_angle_gamma 90.000000
_cell_volume 3152.540873
_symmetry_space_group_name_H-M "P B C A"
_symmetry_group_IT_number 61
_symmetry_cell_setting 'orthorhombic'
loop_
_space_group_symop_operation_xyz
x,y,z
1/2-x,-y,1/2+z
1/2+x,1/2-y,-z
-x,1/2+y,1/2-z
-x,-y,-z
1/2+x,y,1/2-z
1/2-x,1/2+y,z
x,1/2-y,1/2+z
loop_
_atom_site_type_symbol
_atom_site_label
_atom_site_fract_x
_atom_site_fract_y
_atom_site_fract_z
Si Si1 0.028596 0.980707 0.396909
Si Si2 0.302817 0.088343 0.433633
Si Si3 0.007094 0.538679 0.805900
Si Si4 0.770262 0.647946 0.746177
Si Si5 0.537697 0.752590 0.806888
Si Si6 0.381849 0.241528 0.099240
Si Si7 0.620708 0.177096 0.532407
Si Si8 0.060832 0.256420 0.563813
O O1 0.187395 0.042105 0.399111
O O2 0.918611 0.094649 0.401600
O O3 0.009686 0.908029 0.353066
O O4 0.008282 0.880013 0.433271
O O5 0.230558 0.209173 0.456062
O O6 0.453273 0.142003 0.416010
O O7 0.326479 0.964695 0.461600
O O8 0.148995 0.574637 0.779767
O O9 0.863398 0.574690 0.780690
O O10 0.003910 0.393772 0.812510
O O11 0.671699 0.741674 0.773954
O O12 0.894432 0.692804 0.713833
O O13 0.582951 0.708007 0.853707
O O14 0.486722 0.304349 0.064761
O O15 0.215768 0.254738 0.086098
O O16 0.577375 0.200030 0.484289
#
# Coordination Sequence:
#
# PCOD9459857 Si02
#       8
#     8   8   8   8   8   8   8   8
#     4  10  24  41  62  91 130 166 218 268 326 392
#     4  11  24  44  65  94 126 175 219 269 323 391
#     4  10  21  39  61  92 123 163 208 259 321 386
#     4  10  21  37  66  88 124 163 207 257 323 389
#     4  10  21  41  60  94 128 161 210 261 322 387
#     4  10  25  40  63  96 132 167 214 277 326 388
#     4  11  25  43  68  96 134 174 227 267 330 382
#     4  12  24  42  67  93 129 173 224 271 325 381
#
# _framework density 20.301083999999999
#
# number of rings (size 3 to 8) (size 9 to 14) (size 15 to 20)
#    0.000    1.500    1.250    2.625    5.250    2.000 
#    0.000    1.250    0.000    0.000    0.000    0.000 
#    0.000    0.000    0.000    0.000    0.000    0.000 
#
# Total GULP energy -357037.279007 kJ/mol
# GULP energy per Si atom -5578.707484 kJ/mol
# Density = 2.025488 g / cm^3
# Si number density = 20.301084 Si / 1000 Ang^3
#
#
#
# Elastic Constant Matrix: (Units=GPa)
#
#
# Indices 1 2 3 4 5 6 
#
# 1 128.5973 30.6213 43.0439 0.0000 0.0000 0.0000
# 2 30.6213 72.5468 8.3273 0.0000 0.0000 0.0000
# 3 43.0439 8.3273 69.5056 0.0000 0.0000 0.0000
# 4 0.0000 0.0000 0.0000 27.4610 0.0000 0.0000
# 5 0.0000 0.0000 0.0000 0.0000 26.2798 0.0000
# 6 0.0000 0.0000 0.0000 0.0000 0.0000 20.6633
#
#
#
# Elastic Compliance Matrix: (Units=1/GPa)
#
#
# Indices 1 2 3 4 5 6 
#
# 1 0.010767 -0.003832 -0.006209 0.000000 0.000000 0.000000
# 2 -0.003832 0.015340 0.000535 0.000000 0.000000 0.000000
# 3 -0.006209 0.000535 0.018168 0.000000 0.000000 0.000000
# 4 0.000000 0.000000 0.000000 0.036415 0.000000 0.000000
# 5 0.000000 0.000000 0.000000 0.000000 0.038052 0.000000
# 6 0.000000 0.000000 0.000000 0.000000 0.000000 0.048395
#
#
# Mechanical properties :
#
#
# Convention : Reuss Voigt Hill
#
# Bulk Modulus (GPa) = 39.58139 48.29273 43.93706
# Shear Modulus (GPa) = 25.69775 27.45798 26.57787
#
# Velocity S-wave (km/s) = 3.56171 3.68168 3.62219
# Velocity P-wave (km/s) = 6.03771 6.47402 6.25966
#
# Compressibility (1/GPa) = 0.02526440
#
# Stress axis : x y z
#
# Youngs Moduli (GPa) = 92.87805 65.18828 55.04138
#
# Poissons Ratio (x) = 0.24980 0.34173
# Poissons Ratio (y) = 0.35590 -0.02946
# Poissons Ratio (z) = 0.57665 -0.03489
#
# Static dielectric constant tensor:
#      x y z
#    x 1.734240 0.000000 0.000000 
#    y 0.000000 1.710730 0.000000 
#    z 0.000000 0.000000 1.700830 
# 
# From -- ./inp_files/11717.got.cif
#   From: 2010.05.17/outbox.cif.g08.bks.cpg/sg61_6_cif.got.tgz:11717.got - 2010.06.03 15:17:17.
