data_PCOD9459240
_publ_section_title
;
Structure prediction by ZEFSAII (Michael W. Deem and Ramdas Pophale) SiO2 
 PCOD9459240
Probable space group: P B C A
;
_chemical_formula_sum "Si O2"
_cell_formula_units_Z 60
_cell_length_a 9.653380
_cell_length_b 17.475702
_cell_length_c 15.269227
_cell_angle_alpha 90.000000
_cell_angle_beta 90.000000
_cell_angle_gamma 90.000000
_cell_volume 2575.912368
_symmetry_space_group_name_H-M "P B C A"
_symmetry_group_IT_number 61
_symmetry_cell_setting 'orthorhombic'
loop_
_space_group_symop_operation_xyz
x,y,z
1/2-x,-y,1/2+z
1/2+x,1/2-y,-z
-x,1/2+y,1/2-z
-x,-y,-z
1/2+x,y,1/2-z
1/2-x,1/2+y,z
x,1/2-y,1/2+z
loop_
_atom_site_type_symbol
_atom_site_label
_atom_site_fract_x
_atom_site_fract_y
_atom_site_fract_z
Si Si1 0.196494 0.631304 0.490730
Si Si2 0.714380 0.922393 0.330973
Si Si3 0.000000 0.500000 0.500000
Si Si4 0.850051 0.239452 0.648341
Si Si5 0.470321 0.585696 0.410280
Si Si6 0.540554 0.582200 0.655061
Si Si7 0.794077 0.909299 0.915010
Si Si8 0.604285 0.192171 0.252910
O O1 0.167543 0.636782 0.593985
O O2 0.121737 0.553980 0.457147
O O3 0.155261 0.701751 0.431772
O O4 0.361095 0.618000 0.479623
O O5 0.629166 0.921191 0.243612
O O6 0.878229 0.913713 0.319973
O O7 0.679758 0.004986 0.374641
O O8 0.104708 0.421227 0.502604
O O9 0.895135 0.157670 0.613113
O O10 0.709455 0.250846 0.703592
O O11 0.968558 0.264618 0.716007
O O12 0.445346 0.495475 0.398982
O O13 0.631322 0.598377 0.428712
O O14 0.432801 0.626553 0.317889
O O15 0.836259 0.848213 0.840783
#
# Coordination Sequence:
#
# PCOD9459240 Si02
#       8
#     8   8   4   8   8   8   8   8
#     4  10  23  42  65  97 132 166 222 280 320 389
#     4  10  23  41  66  92 130 165 218 272 320 393
#     4  10  20  34  60  92 128 158 206 274 322 368
#     4  11  23  39  66  94 132 170 217 272 331 395
#     4  10  22  39  67  92 130 170 219 275 325 388
#     4  11  23  41  64  93 131 173 213 267 337 393
#     4  10  19  35  61  94 123 165 215 270 322 373
#     4  11  19  37  63  95 124 169 220 269 312 392
#
# _framework density 23.292718000000001
#
# number of rings (size 3 to 8) (size 9 to 14) (size 15 to 20)
#    0.000    1.600    4.000    0.800    0.000    6.933 
#    0.000    5.333    2.933    0.000    0.000    0.000 
#    0.000    0.000    0.000    0.000    0.000    0.000 
#
# Total GULP energy -334558.325634 kJ/mol
# GULP energy per Si atom -5575.972094 kJ/mol
# Density = 2.323970 g / cm^3
# Si number density = 23.292718 Si / 1000 Ang^3
#
#
#
# Elastic Constant Matrix: (Units=GPa)
#
#
# Indices 1 2 3 4 5 6 
#
# 1 30.7219 -1.5798 -0.2388 0.0000 0.0000 0.0000
# 2 -1.5798 58.5804 14.4620 0.0000 0.0000 0.0000
# 3 -0.2388 14.4620 72.3485 0.0000 0.0000 0.0000
# 4 0.0000 0.0000 0.0000 3.1586 0.0000 0.0000
# 5 0.0000 0.0000 0.0000 0.0000 14.8053 0.0000
# 6 0.0000 0.0000 0.0000 0.0000 0.0000 19.1441
#
#
#
# Elastic Compliance Matrix: (Units=1/GPa)
#
#
# Indices 1 2 3 4 5 6 
#
# 1 0.032596 0.000897 -0.000072 0.000000 0.000000 0.000000
# 2 0.000897 0.017981 -0.003591 0.000000 0.000000 0.000000
# 3 -0.000072 -0.003591 0.014540 0.000000 0.000000 0.000000
# 4 0.000000 0.000000 0.000000 0.316595 0.000000 0.000000
# 5 0.000000 0.000000 0.000000 0.000000 0.067543 0.000000
# 6 0.000000 0.000000 0.000000 0.000000 0.000000 0.052235
#
#
# Mechanical properties :
#
#
# Convention : Reuss Voigt Hill
#
# Bulk Modulus (GPa) = 16.78303 20.77084 18.77694
# Shear Modulus (GPa) = 9.48974 17.35544 13.42259
#
# Velocity S-wave (km/s) = 2.02064 2.73262 2.40314
# Velocity P-wave (km/s) = 3.55877 4.34660 3.97227
#
# Compressibility (1/GPa) = 0.05958400
#
# Stress axis : x y z
#
# Youngs Moduli (GPa) = 30.67894 55.61314 68.77749
#
# Poissons Ratio (x) = -0.04987 0.00493
# Poissons Ratio (y) = -0.02751 0.24701
# Poissons Ratio (z) = 0.00220 0.19973
#
# Static dielectric constant tensor:
#      x y z
#    x 1.822210 0.000000 0.000000 
#    y 0.000000 1.911310 0.000000 
#    z 0.000000 0.000000 1.389270 
# 
# From -- ./inp_files/8998.got.cif
#   From: 2010.05.17/outbox.cif.g08.bks.cpg/sg61_5_cif.got.tgz:8998.got - 2010.06.03 15:17:17.
