data_PCOD9459946
_publ_section_title
;
Structure prediction by ZEFSAII (Michael W. Deem and Ramdas Pophale) SiO2 
 PCOD9459946
Probable space group: P B C A
;
_chemical_formula_sum "Si O2"
_cell_formula_units_Z 40
_cell_length_a 10.420418
_cell_length_b 13.398990
_cell_length_c 11.808333
_cell_angle_alpha 90.000000
_cell_angle_beta 90.000000
_cell_angle_gamma 90.000000
_cell_volume 1648.715783
_symmetry_space_group_name_H-M "P B C A"
_symmetry_group_IT_number 61
_symmetry_cell_setting 'orthorhombic'
loop_
_space_group_symop_operation_xyz
x,y,z
1/2-x,-y,1/2+z
1/2+x,1/2-y,-z
-x,1/2+y,1/2-z
-x,-y,-z
1/2+x,y,1/2-z
1/2-x,1/2+y,z
x,1/2-y,1/2+z
loop_
_atom_site_type_symbol
_atom_site_label
_atom_site_fract_x
_atom_site_fract_y
_atom_site_fract_z
Si Si1 0.813100 0.297781 0.300533
Si Si2 0.272904 0.504455 0.282496
Si Si3 0.096137 0.908823 0.977113
Si Si4 0.453723 0.746689 0.172352
Si Si5 0.459245 0.516059 0.629596
O O1 0.775949 0.382264 0.207247
O O2 0.837977 0.362539 0.412422
O O3 0.693828 0.223560 0.304144
O O4 0.945079 0.242834 0.273885
O O5 0.203451 0.554106 0.389194
O O6 0.177403 0.522908 0.176177
O O7 0.425702 0.525168 0.288941
O O8 0.012240 0.820353 0.924566
O O9 0.000000 0.000000 0.000000
O O10 0.451699 0.864223 0.142618
O O11 0.500000 0.500000 0.500000
#
# Coordination Sequence:
#
# PCOD9459946 Si02
#       5
#     8   8   8   8   8
#     4  10  23  45  66  97 138 180 235 287 350 425
#     4  10  21  39  63  93 130 172 221 277 337 413
#     4  12  25  41  68 102 139 181 231 295 356 419
#     4  10  24  42  66  96 133 178 228 288 346 423
#     4  10  21  41  66  94 133 179 227 283 345 412
#
# _framework density 24.261308
#
# number of rings (size 3 to 8) (size 9 to 14) (size 15 to 20)
#    0.000    1.600    0.000    6.000    0.000    9.600 
#    0.000    0.000    0.000    0.000    0.000    0.000 
#    0.000    0.000    0.000    0.000    0.000    0.000 
#
# Total GULP energy -223715.019714 kJ/mol
# GULP energy per Si atom -5592.875493 kJ/mol
# Density = 2.420609 g / cm^3
# Si number density = 24.261308 Si / 1000 Ang^3
#
#
#
# Elastic Constant Matrix: (Units=GPa)
#
#
# Indices 1 2 3 4 5 6 
#
# 1 214.3414 54.7886 72.5914 0.0000 0.0000 0.0000
# 2 54.7886 96.7809 29.0137 0.0000 0.0000 0.0000
# 3 72.5914 29.0137 102.8272 0.0000 0.0000 0.0000
# 4 0.0000 0.0000 0.0000 43.0404 0.0000 0.0000
# 5 0.0000 0.0000 0.0000 0.0000 38.8264 0.0000
# 6 0.0000 0.0000 0.0000 0.0000 0.0000 48.8408
#
#
#
# Elastic Compliance Matrix: (Units=1/GPa)
#
#
# Indices 1 2 3 4 5 6 
#
# 1 0.006675 -0.002585 -0.003983 0.000000 0.000000 0.000000
# 2 -0.002585 0.012288 -0.001643 0.000000 0.000000 0.000000
# 3 -0.003983 -0.001643 0.013000 0.000000 0.000000 0.000000
# 4 0.000000 0.000000 0.000000 0.023234 0.000000 0.000000
# 5 0.000000 0.000000 0.000000 0.000000 0.025756 0.000000
# 6 0.000000 0.000000 0.000000 0.000000 0.000000 0.020475
#
#
# Mechanical properties :
#
#
# Convention : Reuss Voigt Hill
#
# Bulk Modulus (GPa) = 64.33716 80.74855 72.54285
# Shear Modulus (GPa) = 40.64062 43.31192 41.97627
#
# Velocity S-wave (km/s) = 4.09726 4.22978 4.16405
# Velocity P-wave (km/s) = 6.99710 7.56372 7.28592
#
# Compressibility (1/GPa) = 0.01554312
#
# Stress axis : x y z
#
# Youngs Moduli (GPa) = 149.81078 81.37823 76.92122
#
# Poissons Ratio (x) = 0.21035 0.30638
# Poissons Ratio (y) = 0.38723 0.12634
# Poissons Ratio (z) = 0.59669 0.13366
#
# Static dielectric constant tensor:
#      x y z
#    x 2.049670 0.000000 0.000000 
#    y 0.000000 2.000600 0.000000 
#    z 0.000000 0.000000 1.935180 
# 
# From -- ./inp_files/5114.got.cif
#   From: 2010.05.17/outbox.cif.g08.bks.cpg/sg61_3_cif.got.tgz:5114.got - 2010.06.03 15:17:17.
