data_PCOD9459028
_publ_section_title
;
Structure prediction by ZEFSAII (Michael W. Deem and Ramdas Pophale) SiO2 
 PCOD9459028
Probable space group: P B C A
;
_chemical_formula_sum "Si O2"
_cell_formula_units_Z 48
_cell_length_a 16.129261
_cell_length_b 8.171796
_cell_length_c 18.801931
_cell_angle_alpha 90.000000
_cell_angle_beta 90.000000
_cell_angle_gamma 90.000000
_cell_volume 2478.189089
_symmetry_space_group_name_H-M "P B C A"
_symmetry_group_IT_number 61
_symmetry_cell_setting 'orthorhombic'
loop_
_space_group_symop_operation_xyz
x,y,z
1/2-x,-y,1/2+z
1/2+x,1/2-y,-z
-x,1/2+y,1/2-z
-x,-y,-z
1/2+x,y,1/2-z
1/2-x,1/2+y,z
x,1/2-y,1/2+z
loop_
_atom_site_type_symbol
_atom_site_label
_atom_site_fract_x
_atom_site_fract_y
_atom_site_fract_z
Si Si1 0.049008 0.331965 0.780618
Si Si2 0.467894 0.337178 0.089866
Si Si3 0.365162 0.657052 0.654098
Si Si4 0.977838 0.286391 0.572552
Si Si5 0.390347 0.203375 0.795899
Si Si6 0.307256 0.285682 0.663478
O O1 0.107429 0.220303 0.731886
O O2 0.081651 0.516123 0.784006
O O3 0.029795 0.259935 0.858007
O O4 0.961096 0.319136 0.739491
O O5 0.497742 0.523979 0.084717
O O6 0.376913 0.325182 0.125186
O O7 0.465565 0.263131 0.010983
O O8 0.444350 0.684660 0.603664
O O9 0.337172 0.470436 0.654814
O O10 0.283973 0.759577 0.633297
O O11 0.898100 0.241946 0.620863
O O12 0.310691 0.237952 0.747446
#
# Coordination Sequence:
#
# PCOD9459028 Si02
#       6
#     8   8   8   8   8   8
#     4  10  18  31  52  76 102 133 172 211 252 304
#     4  10  20  35  55  79 108 141 177 215 259 313
#     4  11  21  35  55  78 106 137 175 220 266 313
#     4  10  20  35  55  79 108 141 177 215 259 313
#     4  10  18  31  52  76 102 133 172 211 252 304
#     4  11  21  35  55  78 106 137 175 220 266 313
#
# _framework density 19.368981999999999
#
# number of rings (size 3 to 8) (size 9 to 14) (size 15 to 20)
#    0.000    1.667    0.000   11.000    0.000    2.667 
#    0.000    1.667    0.000    8.000    0.000    0.000 
#    0.000    0.000    0.000    0.000    0.000    0.000 
#
# Total GULP energy -267993.063668 kJ/mol
# GULP energy per Si atom -5583.188826 kJ/mol
# Density = 1.932490 g / cm^3
# Si number density = 19.368982 Si / 1000 Ang^3
#
#
#
# Elastic Constant Matrix: (Units=GPa)
#
#
# Indices 1 2 3 4 5 6 
#
# 1 50.4588 -11.3610 8.9638 0.0000 0.0000 0.0000
# 2 -11.3610 52.9418 2.5460 0.0000 0.0000 0.0000
# 3 8.9638 2.5460 121.4801 0.0000 0.0000 0.0000
# 4 0.0000 0.0000 0.0000 27.0342 0.0000 0.0000
# 5 0.0000 0.0000 0.0000 0.0000 12.3643 0.0000
# 6 0.0000 0.0000 0.0000 0.0000 0.0000 24.3069
#
#
#
# Elastic Compliance Matrix: (Units=1/GPa)
#
#
# Indices 1 2 3 4 5 6 
#
# 1 0.021153 0.004619 -0.001658 0.000000 0.000000 0.000000
# 2 0.004619 0.019916 -0.000758 0.000000 0.000000 0.000000
# 3 -0.001658 -0.000758 0.008370 0.000000 0.000000 0.000000
# 4 0.000000 0.000000 0.000000 0.036990 0.000000 0.000000
# 5 0.000000 0.000000 0.000000 0.000000 0.080878 0.000000
# 6 0.000000 0.000000 0.000000 0.000000 0.000000 0.041141
#
#
# Mechanical properties :
#
#
# Convention : Reuss Voigt Hill
#
# Bulk Modulus (GPa) = 18.57178 25.01981 21.79580
# Shear Modulus (GPa) = 22.52352 27.72319 25.12336
#
# Velocity S-wave (km/s) = 3.41378 3.78738 3.60542
# Velocity P-wave (km/s) = 5.01475 5.66314 5.34878
#
# Compressibility (1/GPa) = 0.05384512
#
# Stress axis : x y z
#
# Youngs Moduli (GPa) = 47.27552 50.21006 119.47427
#
# Poissons Ratio (x) = -0.23192 0.19804
# Poissons Ratio (y) = -0.21836 0.09059
# Poissons Ratio (z) = 0.07836 0.03807
#
# Static dielectric constant tensor:
#      x y z
#    x 1.708370 0.000000 0.000000 
#    y 0.000000 1.692710 0.000000 
#    z 0.000000 0.000000 1.711240 
# 
# From -- ./inp_files/9616.got.cif
#   From: 2010.05.17/outbox.cif.g08.bks.cpg/sg61_5_cif.got.tgz:9616.got - 2010.06.03 15:17:17.
