data_PCOD9459936
_publ_section_title
;
Structure prediction by ZEFSAII (Michael W. Deem and Ramdas Pophale) SiO2 
 PCOD9459936
Probable space group: P B C A
;
_chemical_formula_sum "Si O2"
_cell_formula_units_Z 60
_cell_length_a 11.188413
_cell_length_b 8.308282
_cell_length_c 22.043811
_cell_angle_alpha 90.000000
_cell_angle_beta 90.000000
_cell_angle_gamma 90.000000
_cell_volume 2049.115304
_symmetry_space_group_name_H-M "P B C A"
_symmetry_group_IT_number 61
_symmetry_cell_setting 'orthorhombic'
loop_
_space_group_symop_operation_xyz
x,y,z
1/2-x,-y,1/2+z
1/2+x,1/2-y,-z
-x,1/2+y,1/2-z
-x,-y,-z
1/2+x,y,1/2-z
1/2-x,1/2+y,z
x,1/2-y,1/2+z
loop_
_atom_site_type_symbol
_atom_site_label
_atom_site_fract_x
_atom_site_fract_y
_atom_site_fract_z
Si Si1 0.527075 0.156692 0.438370
Si Si2 0.851410 0.799305 0.656060
Si Si3 0.220367 0.899008 0.962356
Si Si4 0.500000 0.000000 0.000000
Si Si5 0.511953 0.869194 0.176021
Si Si6 0.422575 0.135633 0.688568
Si Si7 0.203085 0.208748 0.207169
Si Si8 0.199084 0.622329 0.050313
O O1 0.414969 0.040770 0.453679
O O2 0.525796 0.303829 0.486049
O O3 0.479457 0.239591 0.376735
O O4 0.663324 0.095120 0.429761
O O5 0.771678 0.809241 0.596092
O O6 0.782111 0.777540 0.720017
O O7 0.953804 0.662682 0.654241
O O8 0.913198 0.972266 0.664946
O O9 0.209884 0.800061 0.024761
O O10 0.319302 0.031467 0.981068
O O11 0.572008 0.948465 0.932396
O O12 0.548675 0.808143 0.243079
O O13 0.369958 0.869012 0.187862
O O14 0.321866 0.262663 0.667257
O O15 0.367522 0.957330 0.694908
#
# Coordination Sequence:
#
# PCOD9459936 Si02
#       8
#     8   8   8   4   8   8   8   8
#     4  11  23  43  71  98 142 176 237 290 350 421
#     4  10  21  40  66  97 139 184 232 298 348 431
#     4  11  23  41  68 102 130 182 231 282 353 419
#     4  10  22  44  68 100 138 182 220 290 358 406
#     4  10  22  40  64  97 130 181 231 282 350 422
#     4  10  21  40  65  95 142 178 234 292 355 428
#     4  10  21  39  62  98 136 188 232 294 361 422
#     4  11  23  44  67  99 136 181 229 290 348 420
#
# _framework density 29.280926999999998
#
# number of rings (size 3 to 8) (size 9 to 14) (size 15 to 20)
#    0.000    1.600    1.333    3.600    0.000    3.200 
#    7.200    0.000    0.000    0.000    0.000    0.000 
#    0.000    0.000    0.000    0.000    0.000    0.000 
#
# Total GULP energy -334443.123812 kJ/mol
# GULP energy per Si atom -5574.052064 kJ/mol
# Density = 2.921428 g / cm^3
# Si number density = 29.280927 Si / 1000 Ang^3
#
#
#
# Elastic Constant Matrix: (Units=GPa)
#
#
# Indices 1 2 3 4 5 6 
#
# 1 143.3887 20.2495 1.5228 0.0000 0.0000 0.0000
# 2 20.2495 90.6098 -0.6941 0.0000 0.0000 0.0000
# 3 1.5228 -0.6941 56.9560 0.0000 0.0000 0.0000
# 4 0.0000 0.0000 0.0000 41.9759 0.0000 0.0000
# 5 0.0000 0.0000 0.0000 0.0000 30.0923 0.0000
# 6 0.0000 0.0000 0.0000 0.0000 0.0000 40.4225
#
#
#
# Elastic Compliance Matrix: (Units=1/GPa)
#
#
# Indices 1 2 3 4 5 6 
#
# 1 0.007204 -0.001612 -0.000212 0.000000 0.000000 0.000000
# 2 -0.001612 0.011398 0.000182 0.000000 0.000000 0.000000
# 3 -0.000212 0.000182 0.017565 0.000000 0.000000 0.000000
# 4 0.000000 0.000000 0.000000 0.023823 0.000000 0.000000
# 5 0.000000 0.000000 0.000000 0.000000 0.033231 0.000000
# 6 0.000000 0.000000 0.000000 0.000000 0.000000 0.024739
#
#
# Mechanical properties :
#
#
# Convention : Reuss Voigt Hill
#
# Bulk Modulus (GPa) = 30.41041 37.01231 33.71136
# Shear Modulus (GPa) = 37.82008 40.48988 39.15498
#
# Velocity S-wave (km/s) = 3.59782 3.72265 3.66077
# Velocity P-wave (km/s) = 5.25998 5.58080 5.42276
#
# Compressibility (1/GPa) = 0.03288348
#
# Stress axis : x y z
#
# Youngs Moduli (GPa) = 138.81387 87.73560 56.93039
#
# Poissons Ratio (x) = 0.14139 0.01208
# Poissons Ratio (y) = 0.22371 -0.01036
# Poissons Ratio (z) = 0.02946 -0.01597
#
# Static dielectric constant tensor:
#      x y z
#    x 1.487220 0.000000 0.000000 
#    y 0.000000 1.519940 0.000000 
#    z 0.000000 0.000000 2.375630 
# 
# From -- ./inp_files/11451.got.cif
#   From: 2010.05.17/outbox.cif.g08.bks.cpg/sg61_6_cif.got.tgz:11451.got - 2010.06.03 15:17:17.
