data_PCOD9459750
_publ_section_title
;
Structure prediction by ZEFSAII (Michael W. Deem and Ramdas Pophale) SiO2 
 PCOD9459750
Probable space group: P B C A
;
_chemical_formula_sum "Si O2"
_cell_formula_units_Z 60
_cell_length_a 7.159816
_cell_length_b 25.503669
_cell_length_c 12.348899
_cell_angle_alpha 90.000000
_cell_angle_beta 90.000000
_cell_angle_gamma 90.000000
_cell_volume 2254.928436
_symmetry_space_group_name_H-M "P B C A"
_symmetry_group_IT_number 61
_symmetry_cell_setting 'orthorhombic'
loop_
_space_group_symop_operation_xyz
x,y,z
1/2-x,-y,1/2+z
1/2+x,1/2-y,-z
-x,1/2+y,1/2-z
-x,-y,-z
1/2+x,y,1/2-z
1/2-x,1/2+y,z
x,1/2-y,1/2+z
loop_
_atom_site_type_symbol
_atom_site_label
_atom_site_fract_x
_atom_site_fract_y
_atom_site_fract_z
Si Si1 0.072504 0.955394 0.123782
Si Si2 0.957131 0.363758 0.202348
Si Si3 0.696380 0.806433 0.387884
Si Si4 0.713954 0.543053 0.094606
Si Si5 0.757836 0.895903 0.003723
Si Si6 0.725127 0.665359 0.116306
Si Si7 0.500000 0.500000 0.500000
Si Si8 0.849824 0.191465 0.353164
O O1 0.950261 0.924221 0.033362
O O2 0.065918 0.917180 0.226706
O O3 0.961363 0.009555 0.135678
O O4 0.250857 0.965429 0.041786
O O5 0.941241 0.316980 0.288603
O O6 0.799037 0.363760 0.111304
O O7 0.145275 0.350138 0.137846
O O8 0.622795 0.819212 0.506194
O O9 0.745095 0.745683 0.386823
O O10 0.725656 0.602563 0.126960
O O11 0.896566 0.510137 0.122020
O O12 0.602629 0.940287 0.991329
O O13 0.757099 0.858589 0.900874
O O14 0.641908 0.688870 0.224379
O O15 0.937806 0.686398 0.103925
#
# Coordination Sequence:
#
# PCOD9459750 Si02
#       8
#     8   8   8   8   8   8   4   8
#     4  10  23  41  74 110 146 190 244 299 377 443
#     4  12  23  46  72 109 141 195 244 314 365 450
#     4  12  27  47  76 102 149 190 257 306 373 444
#     4  10  21  45  71 111 149 193 241 307 367 452
#     4  11  24  43  71 103 145 186 247 296 374 442
#     4  12  27  50  72 108 151 195 246 309 371 450
#     4  10  20  42  74 102 148 192 232 308 366 446
#     4  12  29  46  72 105 145 200 247 307 374 437
#
# _framework density 26.608383
#
# number of rings (size 3 to 8) (size 9 to 14) (size 15 to 20)
#    0.000    0.800    5.333    0.800    3.733    3.200 
#    0.000    0.000    0.000    0.000    0.000    0.000 
#    0.000    0.000    0.000    0.000    0.000    0.000 
#
# Total GULP energy -335210.320710 kJ/mol
# GULP energy per Si atom -5586.838678 kJ/mol
# Density = 2.654782 g / cm^3
# Si number density = 26.608383 Si / 1000 Ang^3
#
#
#
# Elastic Constant Matrix: (Units=GPa)
#
#
# Indices 1 2 3 4 5 6 
#
# 1 65.7350 8.5493 8.3624 0.0000 0.0000 0.0000
# 2 8.5493 173.4383 50.2867 0.0000 0.0000 0.0000
# 3 8.3624 50.2867 137.7013 0.0000 0.0000 0.0000
# 4 0.0000 0.0000 0.0000 37.9022 0.0000 0.0000
# 5 0.0000 0.0000 0.0000 0.0000 21.7173 0.0000
# 6 0.0000 0.0000 0.0000 0.0000 0.0000 34.3096
#
#
#
# Elastic Compliance Matrix: (Units=1/GPa)
#
#
# Indices 1 2 3 4 5 6 
#
# 1 0.015377 -0.000545 -0.000735 0.000000 0.000000 0.000000
# 2 -0.000545 0.006468 -0.002329 0.000000 0.000000 0.000000
# 3 -0.000735 -0.002329 0.008157 0.000000 0.000000 0.000000
# 4 0.000000 0.000000 0.000000 0.026384 0.000000 0.000000
# 5 0.000000 0.000000 0.000000 0.000000 0.046046 0.000000
# 6 0.000000 0.000000 0.000000 0.000000 0.000000 0.029146
#
#
# Mechanical properties :
#
#
# Convention : Reuss Voigt Hill
#
# Bulk Modulus (GPa) = 43.88902 56.80792 50.34847
# Shear Modulus (GPa) = 34.15525 39.43091 36.79308
#
# Velocity S-wave (km/s) = 3.58666 3.85372 3.72259
# Velocity P-wave (km/s) = 5.80366 6.41853 6.11882
#
# Compressibility (1/GPa) = 0.02278474
#
# Stress axis : x y z
#
# Youngs Moduli (GPa) = 65.03239 154.61133 122.59114
#
# Poissons Ratio (x) = 0.08425 0.09008
# Poissons Ratio (y) = 0.03544 0.28550
# Poissons Ratio (z) = 0.04779 0.36007
#
# Static dielectric constant tensor:
#      x y z
#    x -5.721400 0.000000 0.000000 
#    y 0.000000 1.398970 0.000000 
#    z 0.000000 0.000000 1.879750 
# 
# From -- ./inp_files/4919.got.cif
#   From: 2010.05.17/outbox.cif.g08.bks.cpg/sg61_3_cif.got.tgz:4919.got - 2010.06.03 15:17:17.
