data_PCOD9459947
_publ_section_title
;
Structure prediction by ZEFSAII (Michael W. Deem and Ramdas Pophale) SiO2 
 PCOD9459947
Probable space group: P B C A
;
_chemical_formula_sum "Si O2"
_cell_formula_units_Z 60
_cell_length_a 8.537446
_cell_length_b 29.012399
_cell_length_c 9.923110
_cell_angle_alpha 90.000000
_cell_angle_beta 90.000000
_cell_angle_gamma 90.000000
_cell_volume 2457.872876
_symmetry_space_group_name_H-M "P B C A"
_symmetry_group_IT_number 61
_symmetry_cell_setting 'orthorhombic'
loop_
_space_group_symop_operation_xyz
x,y,z
1/2-x,-y,1/2+z
1/2+x,1/2-y,-z
-x,1/2+y,1/2-z
-x,-y,-z
1/2+x,y,1/2-z
1/2-x,1/2+y,z
x,1/2-y,1/2+z
loop_
_atom_site_type_symbol
_atom_site_label
_atom_site_fract_x
_atom_site_fract_y
_atom_site_fract_z
Si Si1 0.411088 0.927270 0.721407
Si Si2 0.178443 0.516795 0.387929
Si Si3 0.000000 0.500000 0.000000
Si Si4 0.256090 0.874317 0.276582
Si Si5 0.539114 0.777836 0.922168
Si Si6 0.517494 0.563039 0.766433
Si Si7 0.723361 0.732298 0.691275
Si Si8 0.136189 0.880908 0.581179
O O1 0.544682 0.943211 0.617405
O O2 0.291381 0.967137 0.764270
O O3 0.295980 0.887180 0.669217
O O4 0.511676 0.917925 0.858984
O O5 0.305620 0.508512 0.501789
O O6 0.079158 0.471010 0.361022
O O7 0.023203 0.535540 0.872543
O O8 0.436383 0.886711 0.260383
O O9 0.237117 0.820194 0.256338
O O10 0.197421 0.883602 0.429281
O O11 0.184179 0.916528 0.190197
O O12 0.672737 0.761655 0.818873
O O13 0.381189 0.752248 0.876215
O O14 0.543103 0.833022 0.907210
O O15 0.591239 0.766395 0.074352
#
# Coordination Sequence:
#
# PCOD9459947 Si02
#       8
#     8   8   4   8   8   8   8   8
#     4  10  21  39  63  97 135 176 241 287 365 425
#     4  11  22  40  65  95 131 183 237 297 354 428
#     4  12  24  42  68  96 138 188 242 302 360 440
#     4  11  25  44  66 101 142 184 246 302 362 436
#     4  11  23  44  72 107 148 193 248 302 384 463
#     4  12  24  43  67  95 137 188 238 300 363 421
#     4  11  24  44  74 107 149 195 249 311 380 460
#     4  10  23  43  68 100 141 183 233 307 361 444
#
# _framework density 24.411352000000001
#
# number of rings (size 3 to 8) (size 9 to 14) (size 15 to 20)
#    0.000    1.067    2.667    3.200    1.867    3.200 
#    0.000    4.667    0.000    0.000    0.000    0.000 
#    0.000    0.000    0.000    0.000    0.000    0.000 
#
# Total GULP energy -334144.714915 kJ/mol
# GULP energy per Si atom -5569.078582 kJ/mol
# Density = 2.435579 g / cm^3
# Si number density = 24.411352 Si / 1000 Ang^3
#
#
#
# Elastic Constant Matrix: (Units=GPa)
#
#
# Indices 1 2 3 4 5 6 
#
# 1 89.9995 31.1313 14.5476 0.0000 0.0000 0.0000
# 2 31.1313 87.4561 28.9099 0.0000 0.0000 0.0000
# 3 14.5476 28.9099 65.5713 0.0000 0.0000 0.0000
# 4 0.0000 0.0000 0.0000 31.1651 0.0000 0.0000
# 5 0.0000 0.0000 0.0000 0.0000 45.4218 0.0000
# 6 0.0000 0.0000 0.0000 0.0000 0.0000 49.3761
#
#
#
# Elastic Compliance Matrix: (Units=1/GPa)
#
#
# Indices 1 2 3 4 5 6 
#
# 1 0.012724 -0.004210 -0.000967 0.000000 0.000000 0.000000
# 2 -0.004210 0.014778 -0.005581 0.000000 0.000000 0.000000
# 3 -0.000967 -0.005581 0.017926 0.000000 0.000000 0.000000
# 4 0.000000 0.000000 0.000000 0.032087 0.000000 0.000000
# 5 0.000000 0.000000 0.000000 0.000000 0.022016 0.000000
# 6 0.000000 0.000000 0.000000 0.000000 0.000000 0.020253
#
#
# Mechanical properties :
#
#
# Convention : Reuss Voigt Hill
#
# Bulk Modulus (GPa) = 41.82095 43.57828 42.69962
# Shear Modulus (GPa) = 33.49651 36.42182 34.95916
#
# Velocity S-wave (km/s) = 3.70830 3.86684 3.78840
# Velocity P-wave (km/s) = 5.95855 6.15036 6.05521
#
# Compressibility (1/GPa) = 0.02391146
#
# Stress axis : x y z
#
# Youngs Moduli (GPa) = 78.59441 67.66911 55.78518
#
# Poissons Ratio (x) = 0.28485 0.05394
# Poissons Ratio (y) = 0.33085 0.31136
# Poissons Ratio (z) = 0.07599 0.37769
#
# Static dielectric constant tensor:
#      x y z
#    x 2.012630 0.000000 0.000000 
#    y 0.000000 2.013530 0.000000 
#    z 0.000000 0.000000 1.994370 
# 
# From -- ./inp_files/4903.got.cif
#   From: 2010.05.17/outbox.cif.g08.bks.cpg/sg61_3_cif.got.tgz:4903.got - 2010.06.03 15:17:17.
