data_PCOD9459256
_publ_section_title
;
Structure prediction by ZEFSAII (Michael W. Deem and Ramdas Pophale) SiO2 
 PCOD9459256
Probable space group: P B C A
;
_chemical_formula_sum "Si O2"
_cell_formula_units_Z 56
_cell_length_a 25.452578
_cell_length_b 5.073425
_cell_length_c 21.263179
_cell_angle_alpha 90.000000
_cell_angle_beta 90.000000
_cell_angle_gamma 90.000000
_cell_volume 2745.751420
_symmetry_space_group_name_H-M "P B C A"
_symmetry_group_IT_number 61
_symmetry_cell_setting 'orthorhombic'
loop_
_space_group_symop_operation_xyz
x,y,z
1/2-x,-y,1/2+z
1/2+x,1/2-y,-z
-x,1/2+y,1/2-z
-x,-y,-z
1/2+x,y,1/2-z
1/2-x,1/2+y,z
x,1/2-y,1/2+z
loop_
_atom_site_type_symbol
_atom_site_label
_atom_site_fract_x
_atom_site_fract_y
_atom_site_fract_z
Si Si1 0.288065 0.649873 0.293526
Si Si2 0.432265 0.030740 0.437430
Si Si3 0.931041 0.245653 0.858372
Si Si4 0.452784 0.745428 0.560596
Si Si5 0.870099 0.552518 0.764945
Si Si6 0.873946 0.167503 0.650265
Si Si7 0.041934 0.297939 0.811769
O O1 0.249306 0.897123 0.297126
O O2 0.324813 0.726386 0.233384
O O3 0.333685 0.575926 0.344524
O O4 0.484858 0.203224 0.448705
O O5 0.443513 0.866009 0.374360
O O6 0.426273 0.834156 0.495576
O O7 0.382696 0.208476 0.417924
O O8 0.931939 0.954437 0.887191
O O9 0.880437 0.359161 0.822711
O O10 0.979855 0.270246 0.809581
O O11 0.943505 0.452267 0.914534
O O12 0.856846 0.374002 0.703782
O O13 0.924688 0.696525 0.747015
O O14 0.932305 0.078442 0.672586
#
# Coordination Sequence:
#
# PCOD9459256 Si02
#       7
#     8   8   8   8   8   8   8
#     4  11  22  40  60  84 112 141 188 247 310 351
#     4   9  19  35  52  80 115 157 202 231 278 326
#     4  11  23  35  51  83 118 159 196 227 271 345
#     4  10  22  34  54  77 118 165 196 230 264 336
#     4  10  23  35  57  83 121 147 192 234 296 356
#     4  10  19  36  57  87 111 151 186 243 287 360
#     4   9  20  31  53  79 119 155 187 229 283 337
#
# _framework density 20.395147000000001
#
# number of rings (size 3 to 8) (size 9 to 14) (size 15 to 20)
#    0.000    2.000    2.857    0.000    8.000    1.714 
#    0.000    0.000    0.000    0.000    0.000    6.000 
#    0.000    0.000    0.000    0.000    0.000    0.000 
#
# Total GULP energy -312305.062170 kJ/mol
# GULP energy per Si atom -5576.876110 kJ/mol
# Density = 2.034873 g / cm^3
# Si number density = 20.395147 Si / 1000 Ang^3
#
#
#
# Elastic Constant Matrix: (Units=GPa)
#
#
# Indices 1 2 3 4 5 6 
#
# 1 65.2270 20.9261 20.2388 0.0000 0.0000 0.0000
# 2 20.9261 91.3000 14.3810 0.0000 0.0000 0.0000
# 3 20.2388 14.3810 51.7919 0.0000 0.0000 0.0000
# 4 0.0000 0.0000 0.0000 26.1493 0.0000 0.0000
# 5 0.0000 0.0000 0.0000 0.0000 13.3798 0.0000
# 6 0.0000 0.0000 0.0000 0.0000 0.0000 45.7380
#
#
#
# Elastic Compliance Matrix: (Units=1/GPa)
#
#
# Indices 1 2 3 4 5 6 
#
# 1 0.018303 -0.003209 -0.006261 0.000000 0.000000 0.000000
# 2 -0.003209 0.012016 -0.002083 0.000000 0.000000 0.000000
# 3 -0.006261 -0.002083 0.022333 0.000000 0.000000 0.000000
# 4 0.000000 0.000000 0.000000 0.038242 0.000000 0.000000
# 5 0.000000 0.000000 0.000000 0.000000 0.074740 0.000000
# 6 0.000000 0.000000 0.000000 0.000000 0.000000 0.021864
#
#
# Mechanical properties :
#
#
# Convention : Reuss Voigt Hill
#
# Bulk Modulus (GPa) = 33.84440 35.49007 34.66724
# Shear Modulus (GPa) = 22.68056 27.23829 24.95942
#
# Velocity S-wave (km/s) = 3.33837 3.65845 3.50207
# Velocity P-wave (km/s) = 5.61159 5.94009 5.77818
#
# Compressibility (1/GPa) = 0.02954698
#
# Stress axis : x y z
#
# Youngs Moduli (GPa) = 54.63477 83.21943 44.77658
#
# Poissons Ratio (x) = 0.26704 0.28037
# Poissons Ratio (y) = 0.17532 0.09325
# Poissons Ratio (z) = 0.34209 0.17332
#
# Static dielectric constant tensor:
#      x y z
#    x 1.774700 0.000000 0.000000 
#    y 0.000000 1.851120 0.000000 
#    z 0.000000 0.000000 1.746850 
# 
# From -- ./inp_files/10662.got.cif
#   From: 2010.05.17/outbox.cif.g08.bks.cpg/sg61_6_cif.got.tgz:10662.got - 2010.06.03 15:17:17.
