data_PCOD9459005
_publ_section_title
;
Structure prediction by ZEFSAII (Michael W. Deem and Ramdas Pophale) SiO2 
 PCOD9459005
Probable space group: P B C A
;
_chemical_formula_sum "Si O2"
_cell_formula_units_Z 56
_cell_length_a 15.544419
_cell_length_b 7.236654
_cell_length_c 18.801097
_cell_angle_alpha 90.000000
_cell_angle_beta 90.000000
_cell_angle_gamma 90.000000
_cell_volume 2114.927541
_symmetry_space_group_name_H-M "P B C A"
_symmetry_group_IT_number 61
_symmetry_cell_setting 'orthorhombic'
loop_
_space_group_symop_operation_xyz
x,y,z
1/2-x,-y,1/2+z
1/2+x,1/2-y,-z
-x,1/2+y,1/2-z
-x,-y,-z
1/2+x,y,1/2-z
1/2-x,1/2+y,z
x,1/2-y,1/2+z
loop_
_atom_site_type_symbol
_atom_site_label
_atom_site_fract_x
_atom_site_fract_y
_atom_site_fract_z
Si Si1 0.362215 0.185290 0.750592
Si Si2 0.364768 0.799888 0.950208
Si Si3 0.307526 0.466340 0.116231
Si Si4 0.603534 0.485008 0.168286
Si Si5 0.985555 0.025356 0.308252
Si Si6 0.457914 0.778073 0.587790
Si Si7 0.685317 0.843475 0.984485
O O1 0.293777 0.119143 0.693574
O O2 0.334432 0.344453 0.806466
O O3 0.415666 0.021775 0.788106
O O4 0.435311 0.282592 0.699538
O O5 0.438367 0.728269 0.004354
O O6 0.271447 0.731078 0.977686
O O7 0.362900 0.021631 0.961423
O O8 0.373186 0.692893 0.876654
O O9 0.372030 0.636256 0.122462
O O10 0.219785 0.530955 0.080504
O O11 0.351747 0.332762 0.056604
O O12 0.566456 0.424403 0.244347
O O13 0.534369 0.598656 0.120306
O O14 0.969760 0.927966 0.382599
#
# Coordination Sequence:
#
# PCOD9459005 Si02
#       7
#     8   8   8   8   8   8   8
#     4   9  16  30  53  75 112 131 171 210 270 323
#     4  10  19  37  55  74 107 140 188 219 272 313
#     4  10  17  35  53  79  97 136 187 222 256 319
#     4   9  19  31  55  83 111 138 168 222 286 325
#     4   9  17  30  53  84 107 140 159 212 281 323
#     4  10  18  32  60  80 107 139 175 222 271 336
#     4   9  21  33  58  70 101 147 183 227 260 304
#
# _framework density 26.478449000000001
#
# number of rings (size 3 to 8) (size 9 to 14) (size 15 to 20)
#    0.857    1.714    1.429    1.286    0.000    0.000 
#    0.000    2.143   28.286    0.000    0.000    0.000 
#    0.000    0.000    0.000    0.000    0.000    0.000 
#
# Total GULP energy -312548.936997 kJ/mol
# GULP energy per Si atom -5581.231018 kJ/mol
# Density = 2.641818 g / cm^3
# Si number density = 26.478449 Si / 1000 Ang^3
#
#
#
# Elastic Constant Matrix: (Units=GPa)
#
#
# Indices 1 2 3 4 5 6 
#
# 1 44.8471 13.8443 27.7418 0.0000 0.0000 0.0000
# 2 13.8443 79.2492 9.9601 0.0000 0.0000 0.0000
# 3 27.7418 9.9601 106.4028 0.0000 0.0000 0.0000
# 4 0.0000 0.0000 0.0000 29.7816 0.0000 0.0000
# 5 0.0000 0.0000 0.0000 0.0000 36.2012 0.0000
# 6 0.0000 0.0000 0.0000 0.0000 0.0000 24.1181
#
#
#
# Elastic Compliance Matrix: (Units=1/GPa)
#
#
# Indices 1 2 3 4 5 6 
#
# 1 0.027779 -0.003989 -0.006869 0.000000 0.000000 0.000000
# 2 -0.003989 0.013342 -0.000209 0.000000 0.000000 0.000000
# 3 -0.006869 -0.000209 0.011209 0.000000 0.000000 0.000000
# 4 0.000000 0.000000 0.000000 0.033578 0.000000 0.000000
# 5 0.000000 0.000000 0.000000 0.000000 0.027623 0.000000
# 6 0.000000 0.000000 0.000000 0.000000 0.000000 0.041463
#
#
# Mechanical properties :
#
#
# Convention : Reuss Voigt Hill
#
# Bulk Modulus (GPa) = 33.11873 37.06573 35.09223
# Shear Modulus (GPa) = 26.71051 29.95037 28.33044
#
# Velocity S-wave (km/s) = 3.17955 3.36686 3.27455
# Velocity P-wave (km/s) = 5.10043 5.39845 5.25155
#
# Compressibility (1/GPa) = 0.03019439
#
# Stress axis : x y z
#
# Youngs Moduli (GPa) = 35.99884 74.95363 89.21611
#
# Poissons Ratio (x) = 0.29902 0.61284
# Poissons Ratio (y) = 0.14362 0.01862
# Poissons Ratio (z) = 0.24728 0.01564
#
# Static dielectric constant tensor:
#      x y z
#    x 2.107370 0.000000 0.000000 
#    y 0.000000 2.150090 0.000000 
#    z 0.000000 0.000000 2.071470 
# 
# From -- ./inp_files/9750.got.cif
#   From: 2010.05.17/outbox.cif.g08.bks.cpg/sg61_5_cif.got.tgz:9750.got - 2010.06.03 15:17:17.
