data_PCOD9459661
_publ_section_title
;
Structure prediction by ZEFSAII (Michael W. Deem and Ramdas Pophale) SiO2 
 PCOD9459661
Probable space group: P B C A
;
_chemical_formula_sum "Si O2"
_cell_formula_units_Z 56
_cell_length_a 17.896414
_cell_length_b 16.484594
_cell_length_c 7.984870
_cell_angle_alpha 90.000000
_cell_angle_beta 90.000000
_cell_angle_gamma 90.000000
_cell_volume 2355.657372
_symmetry_space_group_name_H-M "P B C A"
_symmetry_group_IT_number 61
_symmetry_cell_setting 'orthorhombic'
loop_
_space_group_symop_operation_xyz
x,y,z
1/2-x,-y,1/2+z
1/2+x,1/2-y,-z
-x,1/2+y,1/2-z
-x,-y,-z
1/2+x,y,1/2-z
1/2-x,1/2+y,z
x,1/2-y,1/2+z
loop_
_atom_site_type_symbol
_atom_site_label
_atom_site_fract_x
_atom_site_fract_y
_atom_site_fract_z
Si Si1 0.611320 0.643320 0.407773
Si Si2 0.473822 0.867937 0.692097
Si Si3 0.809287 0.660594 0.832156
Si Si4 0.403068 0.737330 0.933544
Si Si5 0.135976 0.676616 0.722857
Si Si6 0.712530 0.993943 0.025365
Si Si7 0.865302 0.010060 0.891083
O O1 0.548661 0.606962 0.286968
O O2 0.623863 0.732726 0.336561
O O3 0.593517 0.657200 0.604457
O O4 0.680367 0.581707 0.420405
O O5 0.468893 0.801540 0.543598
O O6 0.431141 0.946372 0.623596
O O7 0.429631 0.817468 0.836725
O O8 0.832318 0.734466 0.955296
O O9 0.872722 0.670016 0.693162
O O10 0.726290 0.670899 0.758446
O O11 0.809161 0.577451 0.934244
O O12 0.113638 0.604810 0.595173
O O13 0.802013 0.989392 0.025714
O O14 0.676700 0.994535 0.209471
#
# Coordination Sequence:
#
# PCOD9459661 Si02
#       7
#     8   8   8   8   8   8   8
#     4  11  24  42  62  91 127 168 206 254 319 380
#     4  11  23  42  62  92 127 167 206 255 317 382
#     4  10  20  40  62  96 117 159 212 262 312 359
#     4  10  22  37  66  88 123 162 207 259 309 378
#     4  10  23  39  64  89 122 163 208 259 311 373
#     4  10  23  40  63  92 124 161 211 264 311 368
#     4  10  23  41  64  92 123 165 211 263 313 371
#
# _framework density 23.772559000000001
#
# number of rings (size 3 to 8) (size 9 to 14) (size 15 to 20)
#    0.000    1.714    1.429    1.714   10.000    4.571 
#    5.143    0.714    0.000    0.000    0.000    0.000 
#    0.000    0.000    0.000    0.000    0.000    0.000 
#
# Total GULP energy -313145.073285 kJ/mol
# GULP energy per Si atom -5591.876309 kJ/mol
# Density = 2.371845 g / cm^3
# Si number density = 23.772559 Si / 1000 Ang^3
#
#
#
# Elastic Constant Matrix: (Units=GPa)
#
#
# Indices 1 2 3 4 5 6 
#
# 1 36.4742 16.6202 -4.7212 0.0000 0.0000 0.0000
# 2 16.6202 75.4438 -9.6201 0.0000 0.0000 0.0000
# 3 -4.7212 -9.6201 46.7842 0.0000 0.0000 0.0000
# 4 0.0000 0.0000 0.0000 36.7639 0.0000 0.0000
# 5 0.0000 0.0000 0.0000 0.0000 27.4890 0.0000
# 6 0.0000 0.0000 0.0000 0.0000 0.0000 38.3348
#
#
#
# Elastic Compliance Matrix: (Units=1/GPa)
#
#
# Indices 1 2 3 4 5 6 
#
# 1 0.030615 -0.006521 0.001748 0.000000 0.000000 0.000000
# 2 -0.006521 0.015001 0.002427 0.000000 0.000000 0.000000
# 3 0.001748 0.002427 0.022050 0.000000 0.000000 0.000000
# 4 0.000000 0.000000 0.000000 0.027201 0.000000 0.000000
# 5 0.000000 0.000000 0.000000 0.000000 0.036378 0.000000
# 6 0.000000 0.000000 0.000000 0.000000 0.000000 0.026086
#
#
# Mechanical properties :
#
#
# Convention : Reuss Voigt Hill
#
# Bulk Modulus (GPa) = 15.87988 18.14000 17.00994
# Shear Modulus (GPa) = 27.32029 30.94576 29.13303
#
# Velocity S-wave (km/s) = 3.39372 3.61188 3.50450
# Velocity P-wave (km/s) = 4.69583 5.00415 4.85244
#
# Compressibility (1/GPa) = 0.06297278
#
# Stress axis : x y z
#
# Youngs Moduli (GPa) = 32.66422 66.66239 45.35119
#
# Poissons Ratio (x) = 0.43473 -0.07929
# Poissons Ratio (y) = 0.21302 -0.11005
# Poissons Ratio (z) = -0.05711 -0.16176
#
# Static dielectric constant tensor:
#      x y z
#    x 1.909850 0.000000 0.000000 
#    y 0.000000 1.882730 0.000000 
#    z 0.000000 0.000000 1.942580 
# 
# From -- ./inp_files/3951.got.cif
#   From: 2010.05.17/outbox.cif.g08.bks.cpg/sg61_2_cif.got.tgz:3951.got - 2010.06.03 15:17:17.
