data_PCOD9459878
_publ_section_title
;
Structure prediction by ZEFSAII (Michael W. Deem and Ramdas Pophale) SiO2 
 PCOD9459878
Probable space group: P B C A
;
_chemical_formula_sum "Si O2"
_cell_formula_units_Z 64
_cell_length_a 13.748530
_cell_length_b 8.213927
_cell_length_c 23.389006
_cell_angle_alpha 90.000000
_cell_angle_beta 90.000000
_cell_angle_gamma 90.000000
_cell_volume 2641.306924
_symmetry_space_group_name_H-M "P B C A"
_symmetry_group_IT_number 61
_symmetry_cell_setting 'orthorhombic'
loop_
_space_group_symop_operation_xyz
x,y,z
1/2-x,-y,1/2+z
1/2+x,1/2-y,-z
-x,1/2+y,1/2-z
-x,-y,-z
1/2+x,y,1/2-z
1/2-x,1/2+y,z
x,1/2-y,1/2+z
loop_
_atom_site_type_symbol
_atom_site_label
_atom_site_fract_x
_atom_site_fract_y
_atom_site_fract_z
Si Si1 0.802810 0.858497 0.094709
Si Si2 0.383980 0.554729 0.253535
Si Si3 0.016749 0.492566 0.350972
Si Si4 0.787616 0.651849 0.802037
Si Si5 0.645963 0.789680 0.400083
Si Si6 0.609746 0.490142 0.614557
Si Si7 0.570346 0.169973 0.901313
Si Si8 0.712746 0.110137 0.465512
O O1 0.840501 0.674562 0.093337
O O2 0.691209 0.870204 0.111797
O O3 0.870840 0.960286 0.137648
O O4 0.806810 0.930238 0.030763
O O5 0.472467 0.503002 0.212364
O O6 0.350306 0.737709 0.240264
O O7 0.286779 0.458375 0.233301
O O8 0.411992 0.530408 0.318427
O O9 0.961869 0.337633 0.380855
O O10 0.982310 0.664070 0.378513
O O11 0.712834 0.748176 0.844700
O O12 0.866904 0.594705 0.848955
O O13 0.677736 0.663368 0.448857
O O14 0.681874 0.963633 0.424801
O O15 0.513591 0.546099 0.582167
O O16 0.644333 0.236618 0.948651
#
# Coordination Sequence:
#
# PCOD9459878 Si02
#       8
#     8   8   8   8   8   8   8   8
#     4  12  26  41  58  87 122 160 203 245 303 371
#     4  10  21  38  61  87 119 158 194 249 306 349
#     4   9  21  39  60  86 115 152 202 247 296 360
#     4   9  18  37  63  91 118 148 198 249 296 356
#     4   9  18  36  63  92 117 151 198 248 301 358
#     4  12  26  40  57  84 120 160 203 247 302 368
#     4   9  21  40  61  88 118 153 202 250 293 356
#     4  10  21  38  63  90 123 159 194 252 309 351
#
# _framework density 24.230429999999998
#
# number of rings (size 3 to 8) (size 9 to 14) (size 15 to 20)
#    0.000    2.000    0.000    4.500    0.000   10.500 
#    0.000    0.000    0.000    0.000    0.000    0.000 
#    0.000    0.000    0.000    0.000    0.000    0.000 
#
# Total GULP energy -357827.547862 kJ/mol
# GULP energy per Si atom -5591.055435 kJ/mol
# Density = 2.417528 g / cm^3
# Si number density = 24.230430 Si / 1000 Ang^3
#
#
#
# Elastic Constant Matrix: (Units=GPa)
#
#
# Indices 1 2 3 4 5 6 
#
# 1 105.4060 22.1752 14.7195 0.0000 0.0000 0.0000
# 2 22.1752 57.9262 11.0906 0.0000 0.0000 0.0000
# 3 14.7195 11.0906 79.7134 0.0000 0.0000 0.0000
# 4 0.0000 0.0000 0.0000 21.0062 0.0000 0.0000
# 5 0.0000 0.0000 0.0000 0.0000 17.0920 0.0000
# 6 0.0000 0.0000 0.0000 0.0000 0.0000 25.0250
#
#
#
# Elastic Compliance Matrix: (Units=1/GPa)
#
#
# Indices 1 2 3 4 5 6 
#
# 1 0.010471 -0.003738 -0.001413 0.000000 0.000000 0.000000
# 2 -0.003738 0.019070 -0.001963 0.000000 0.000000 0.000000
# 3 -0.001413 -0.001963 0.013079 0.000000 0.000000 0.000000
# 4 0.000000 0.000000 0.000000 0.047605 0.000000 0.000000
# 5 0.000000 0.000000 0.000000 0.000000 0.058507 0.000000
# 6 0.000000 0.000000 0.000000 0.000000 0.000000 0.039960
#
#
# Mechanical properties :
#
#
# Convention : Reuss Voigt Hill
#
# Bulk Modulus (GPa) = 35.22192 37.66846 36.44519
# Shear Modulus (GPa) = 23.54225 25.62867 24.58546
#
# Velocity S-wave (km/s) = 3.12043 3.25577 3.18882
# Velocity P-wave (km/s) = 5.24886 5.45097 5.35087
#
# Compressibility (1/GPa) = 0.02839141
#
# Stress axis : x y z
#
# Youngs Moduli (GPa) = 95.50305 52.43817 76.45809
#
# Poissons Ratio (x) = 0.19600 0.10807
# Poissons Ratio (y) = 0.35697 0.15009
# Poissons Ratio (z) = 0.13499 0.10294
#
# Static dielectric constant tensor:
#      x y z
#    x 1.912360 0.000000 0.000000 
#    y 0.000000 1.979270 0.000000 
#    z 0.000000 0.000000 1.869150 
# 
# From -- ./inp_files/11067.got.cif
#   From: 2010.05.17/outbox.cif.g08.bks.cpg/sg61_6_cif.got.tgz:11067.got - 2010.06.03 15:17:17.
