data_PCOD9459697
_publ_section_title
;
Structure prediction by ZEFSAII (Michael W. Deem and Ramdas Pophale) SiO2 
 PCOD9459697
Probable space group: P B C A
;
_chemical_formula_sum "Si O2"
_cell_formula_units_Z 48
_cell_length_a 10.932483
_cell_length_b 9.763391
_cell_length_c 17.553445
_cell_angle_alpha 90.000000
_cell_angle_beta 90.000000
_cell_angle_gamma 90.000000
_cell_volume 1873.621475
_symmetry_space_group_name_H-M "P B C A"
_symmetry_group_IT_number 61
_symmetry_cell_setting 'orthorhombic'
loop_
_space_group_symop_operation_xyz
x,y,z
1/2-x,-y,1/2+z
1/2+x,1/2-y,-z
-x,1/2+y,1/2-z
-x,-y,-z
1/2+x,y,1/2-z
1/2-x,1/2+y,z
x,1/2-y,1/2+z
loop_
_atom_site_type_symbol
_atom_site_label
_atom_site_fract_x
_atom_site_fract_y
_atom_site_fract_z
Si Si1 0.249995 0.124536 0.298974
Si Si2 0.897435 0.620791 0.746080
Si Si3 0.852028 0.894189 0.407755
Si Si4 0.890699 0.223982 0.826897
Si Si5 0.805987 0.472280 0.536520
Si Si6 0.978694 0.786481 0.032518
O O1 0.139096 0.219623 0.269665
O O2 0.360854 0.195633 0.250614
O O3 0.256977 0.110396 0.390256
O O4 0.277390 0.967761 0.275109
O O5 0.928929 0.578550 0.832132
O O6 0.018817 0.599273 0.695708
O O7 0.736114 0.819620 0.366564
O O8 0.790651 0.997002 0.468448
O O9 0.930074 0.800240 0.462953
O O10 0.965409 0.293843 0.896053
O O11 0.867830 0.615067 0.558617
O O12 0.913000 0.381541 0.499457
#
# Coordination Sequence:
#
# PCOD9459697 Si02
#       6
#     8   8   8   8   8   8
#     4  11  24  42  68  98 134 186 230 290 350 416
#     4  11  24  43  66 100 141 181 237 288 342 420
#     4  10  23  38  68  97 133 183 227 288 349 413
#     4  10  22  41  65  97 138 177 235 279 349 414
#     4  10  21  37  69  90 132 184 226 283 358 406
#     4  10  20  41  62  96 132 178 231 287 344 422
#
# _framework density 25.618836000000002
#
# number of rings (size 3 to 8) (size 9 to 14) (size 15 to 20)
#    0.000    1.667    1.667    2.000    4.667    2.667 
#    0.000    0.833    0.000    0.000    0.000    0.000 
#    0.000    0.000    0.000    0.000    0.000    0.000 
#
# Total GULP energy -267825.062554 kJ/mol
# GULP energy per Si atom -5579.688803 kJ/mol
# Density = 2.556053 g / cm^3
# Si number density = 25.618836 Si / 1000 Ang^3
#
#
#
# Elastic Constant Matrix: (Units=GPa)
#
#
# Indices 1 2 3 4 5 6 
#
# 1 44.7646 10.3141 16.3579 0.0000 0.0000 0.0000
# 2 10.3141 55.0730 19.5932 0.0000 0.0000 0.0000
# 3 16.3579 19.5932 178.1404 0.0000 0.0000 0.0000
# 4 0.0000 0.0000 0.0000 38.4490 0.0000 0.0000
# 5 0.0000 0.0000 0.0000 0.0000 52.1726 0.0000
# 6 0.0000 0.0000 0.0000 0.0000 0.0000 30.6978
#
#
#
# Elastic Compliance Matrix: (Units=1/GPa)
#
#
# Indices 1 2 3 4 5 6 
#
# 1 0.023871 -0.003841 -0.001769 0.000000 0.000000 0.000000
# 2 -0.003841 0.019515 -0.001794 0.000000 0.000000 0.000000
# 3 -0.001769 -0.001794 0.005973 0.000000 0.000000 0.000000
# 4 0.000000 0.000000 0.000000 0.026009 0.000000 0.000000
# 5 0.000000 0.000000 0.000000 0.000000 0.019167 0.000000
# 6 0.000000 0.000000 0.000000 0.000000 0.000000 0.032576
#
#
# Mechanical properties :
#
#
# Convention : Reuss Voigt Hill
#
# Bulk Modulus (GPa) = 28.94286 41.16758 35.05522
# Shear Modulus (GPa) = 32.58691 39.71139 36.14915
#
# Velocity S-wave (km/s) = 3.57037 3.94138 3.76045
# Velocity P-wave (km/s) = 5.32153 6.06769 5.70682
#
# Compressibility (1/GPa) = 0.03455083
#
# Stress axis : x y z
#
# Youngs Moduli (GPa) = 41.89241 51.24209 167.41107
#
# Poissons Ratio (x) = 0.19682 0.29623
# Poissons Ratio (y) = 0.16091 0.30029
# Poissons Ratio (z) = 0.07413 0.09191
#
# Static dielectric constant tensor:
#      x y z
#    x 2.089940 0.000000 0.000000 
#    y 0.000000 2.073760 0.000000 
#    z 0.000000 0.000000 2.032150 
# 
# From -- ./inp_files/9175.got.cif
#   From: 2010.05.17/outbox.cif.g08.bks.cpg/sg61_5_cif.got.tgz:9175.got - 2010.06.03 15:17:17.
