data_PCOD9459604
_publ_section_title
;
Structure prediction by ZEFSAII (Michael W. Deem and Ramdas Pophale) SiO2 
 PCOD9459604
Probable space group: P B C A
;
_chemical_formula_sum "Si O2"
_cell_formula_units_Z 64
_cell_length_a 9.269491
_cell_length_b 12.722734
_cell_length_c 27.523115
_cell_angle_alpha 90.000000
_cell_angle_beta 90.000000
_cell_angle_gamma 90.000000
_cell_volume 3245.890906
_symmetry_space_group_name_H-M "P B C A"
_symmetry_group_IT_number 61
_symmetry_cell_setting 'orthorhombic'
loop_
_space_group_symop_operation_xyz
x,y,z
1/2-x,-y,1/2+z
1/2+x,1/2-y,-z
-x,1/2+y,1/2-z
-x,-y,-z
1/2+x,y,1/2-z
1/2-x,1/2+y,z
x,1/2-y,1/2+z
loop_
_atom_site_type_symbol
_atom_site_label
_atom_site_fract_x
_atom_site_fract_y
_atom_site_fract_z
Si Si1 0.478774 0.351761 0.302786
Si Si2 0.710331 0.950144 0.462983
Si Si3 0.038344 0.581092 0.079835
Si Si4 0.120734 0.860769 0.409456
Si Si5 0.105426 0.421492 0.451927
Si Si6 0.435747 0.780725 0.010193
Si Si7 0.731878 0.274529 0.751750
Si Si8 0.484505 0.396713 0.693126
O O1 0.445401 0.327617 0.358873
O O2 0.340368 0.307597 0.273942
O O3 0.620873 0.290355 0.285348
O O4 0.498837 0.477664 0.298408
O O5 0.557994 0.938394 0.436501
O O6 0.804931 0.844522 0.465208
O O7 0.806135 0.038541 0.437077
O O8 0.671322 0.980396 0.518706
O O9 0.030619 0.620716 0.135037
O O10 0.942733 0.475370 0.077835
O O11 0.981994 0.660009 0.039094
O O12 0.291341 0.877813 0.410376
O O13 0.068327 0.785686 0.452442
O O14 0.102759 0.334807 0.494403
O O15 0.626155 0.338369 0.714979
O O16 0.840855 0.351994 0.780621
#
# Coordination Sequence:
#
# PCOD9459604 Si02
#       8
#     8   8   8   8   8   8   8   8
#     4  10  22  41  66  91 123 159 200 261 313 368
#     4  10  21  37  54  82 122 154 199 242 284 342
#     4  10  20  39  58  81 119 162 190 242 297 356
#     4  10  20  39  57  85 121 160 197 240 296 353
#     4  11  21  34  56  85 116 160 201 240 279 344
#     4  11  20  37  57  81 122 165 191 233 294 349
#     4  10  22  43  65  91 118 154 208 258 314 376
#     4  10  22  41  65  90 119 158 200 254 316 365
#
# _framework density 19.717237000000001
#
# number of rings (size 3 to 8) (size 9 to 14) (size 15 to 20)
#    0.000    1.750    2.500    2.250    1.750    1.000 
#    4.500    6.250    0.000    0.000    0.000    0.000 
#    0.000    0.000    0.000    0.000    0.000    0.000 
#
# Total GULP energy -357281.574704 kJ/mol
# GULP energy per Si atom -5582.524605 kJ/mol
# Density = 1.967236 g / cm^3
# Si number density = 19.717237 Si / 1000 Ang^3
#
#
#
# Elastic Constant Matrix: (Units=GPa)
#
#
# Indices 1 2 3 4 5 6 
#
# 1 156.3345 31.2979 50.7043 0.0000 0.0000 0.0000
# 2 31.2979 53.9121 36.5115 0.0000 0.0000 0.0000
# 3 50.7043 36.5115 92.4020 0.0000 0.0000 0.0000
# 4 0.0000 0.0000 0.0000 9.8772 0.0000 0.0000
# 5 0.0000 0.0000 0.0000 0.0000 11.2310 0.0000
# 6 0.0000 0.0000 0.0000 0.0000 0.0000 19.8463
#
#
#
# Elastic Compliance Matrix: (Units=1/GPa)
#
#
# Indices 1 2 3 4 5 6 
#
# 1 0.007981 -0.002276 -0.003480 0.000000 0.000000 0.000000
# 2 -0.002276 0.025975 -0.009015 0.000000 0.000000 0.000000
# 3 -0.003480 -0.009015 0.016294 0.000000 0.000000 0.000000
# 4 0.000000 0.000000 0.000000 0.101244 0.000000 0.000000
# 5 0.000000 0.000000 0.000000 0.000000 0.089040 0.000000
# 6 0.000000 0.000000 0.000000 0.000000 0.000000 0.050387
#
#
# Mechanical properties :
#
#
# Convention : Reuss Voigt Hill
#
# Bulk Modulus (GPa) = 48.29030 59.96398 54.12714
# Shear Modulus (GPa) = 15.27346 20.46655 17.87001
#
# Velocity S-wave (km/s) = 2.78623 3.22530 3.01377
# Velocity P-wave (km/s) = 5.90723 6.65943 6.29458
#
# Compressibility (1/GPa) = 0.02070809
#
# Stress axis : x y z
#
# Youngs Moduli (GPa) = 125.29861 38.49798 61.37290
#
# Poissons Ratio (x) = 0.08764 0.21357
# Poissons Ratio (y) = 0.28524 0.55325
# Poissons Ratio (z) = 0.43603 0.34705
#
# Static dielectric constant tensor:
#      x y z
#    x 1.731050 0.000000 0.000000 
#    y 0.000000 1.699350 0.000000 
#    z 0.000000 0.000000 1.679550 
# 
# From -- ./inp_files/8682.got.cif
#   From: 2010.05.17/outbox.cif.g08.bks.cpg/sg61_5_cif.got.tgz:8682.got - 2010.06.03 15:17:17.
