data_PCOD9459151
_publ_section_title
;
Structure prediction by ZEFSAII (Michael W. Deem and Ramdas Pophale) SiO2 
 PCOD9459151
Probable space group: P B C A
;
_chemical_formula_sum "Si O2"
_cell_formula_units_Z 64
_cell_length_a 5.506387
_cell_length_b 24.303949
_cell_length_c 26.721763
_cell_angle_alpha 90.000000
_cell_angle_beta 90.000000
_cell_angle_gamma 90.000000
_cell_volume 3576.092009
_symmetry_space_group_name_H-M "P B C A"
_symmetry_group_IT_number 61
_symmetry_cell_setting 'orthorhombic'
loop_
_space_group_symop_operation_xyz
x,y,z
1/2-x,-y,1/2+z
1/2+x,1/2-y,-z
-x,1/2+y,1/2-z
-x,-y,-z
1/2+x,y,1/2-z
1/2-x,1/2+y,z
x,1/2-y,1/2+z
loop_
_atom_site_type_symbol
_atom_site_label
_atom_site_fract_x
_atom_site_fract_y
_atom_site_fract_z
Si Si1 0.410302 0.235129 0.765498
Si Si2 0.652401 0.643323 0.378382
Si Si3 0.994135 0.736516 0.371303
Si Si4 0.747487 0.430796 0.480174
Si Si5 0.244248 0.057428 0.041704
Si Si6 0.282381 0.315060 0.060445
Si Si7 0.874690 0.722572 0.047422
Si Si8 0.493311 0.859627 0.772981
O O1 0.677260 0.208006 0.760349
O O2 0.353109 0.243332 0.824176
O O3 0.472718 0.294555 0.740333
O O4 0.739751 0.588582 0.405563
O O5 0.557247 0.682616 0.423095
O O6 0.469646 0.633196 0.332814
O O7 0.852888 0.682532 0.353179
O O8 0.133832 0.716634 0.420406
O O9 0.829529 0.786493 0.390925
O O10 0.754786 0.491205 0.455843
O O11 0.491124 0.427293 0.510525
O O12 0.769188 0.380229 0.441949
O O13 0.989164 0.426287 0.515099
O O14 0.542564 0.285767 0.053201
O O15 0.147243 0.294468 0.009742
O O16 0.251568 0.882618 0.746622
#
# Coordination Sequence:
#
# PCOD9459151 Si02
#       8
#     8   8   8   8   8   8   8   8
#     4  10  19  35  50  70 106 140 173 219 264 323
#     4  11  21  32  55  78 109 142 187 219 273 333
#     4  11  22  32  51  77 110 149 178 213 279 328
#     4  10  22  40  54  74 110 143 187 220 266 305
#     4  10  22  37  58  77  99 149 183 228 262 317
#     4  11  22  32  49  76 112 149 177 224 257 325
#     4  11  21  32  46  78 112 148 178 214 265 322
#     4  10  19  32  50  76 107 138 166 223 277 323
#
# _framework density 17.896630999999999
#
# number of rings (size 3 to 8) (size 9 to 14) (size 15 to 20)
#    0.000    1.500    5.000    2.250    5.250    0.000 
#    0.000    0.000    0.000    0.000    0.000    1.750 
#    0.000    0.000    0.000    0.000    0.000    0.000 
#
# Total GULP energy -356492.241674 kJ/mol
# GULP energy per Si atom -5570.191276 kJ/mol
# Density = 1.785590 g / cm^3
# Si number density = 17.896631 Si / 1000 Ang^3
#
#
#
# Elastic Constant Matrix: (Units=GPa)
#
#
# Indices 1 2 3 4 5 6 
#
# 1 86.5863 6.1393 9.4206 0.0000 0.0000 0.0000
# 2 6.1393 68.7205 15.8172 0.0000 0.0000 0.0000
# 3 9.4206 15.8172 81.5038 0.0000 0.0000 0.0000
# 4 0.0000 0.0000 0.0000 11.2182 0.0000 0.0000
# 5 0.0000 0.0000 0.0000 0.0000 16.6469 0.0000
# 6 0.0000 0.0000 0.0000 0.0000 0.0000 7.6292
#
#
#
# Elastic Compliance Matrix: (Units=1/GPa)
#
#
# Indices 1 2 3 4 5 6 
#
# 1 0.011735 -0.000771 -0.001207 0.000000 0.000000 0.000000
# 2 -0.000771 0.015283 -0.002877 0.000000 0.000000 0.000000
# 3 -0.001207 -0.002877 0.012967 0.000000 0.000000 0.000000
# 4 0.000000 0.000000 0.000000 0.089141 0.000000 0.000000
# 5 0.000000 0.000000 0.000000 0.000000 0.060071 0.000000
# 6 0.000000 0.000000 0.000000 0.000000 0.000000 0.131075
#
#
# Mechanical properties :
#
#
# Convention : Reuss Voigt Hill
#
# Bulk Modulus (GPa) = 33.02897 33.28498 33.15697
# Shear Modulus (GPa) = 14.70273 20.79444 17.74859
#
# Velocity S-wave (km/s) = 2.86935 3.41239 3.15259
# Velocity P-wave (km/s) = 5.42891 5.84506 5.64082
#
# Compressibility (1/GPa) = 0.03027645
#
# Stress axis : x y z
#
# Youngs Moduli (GPa) = 85.21436 65.43359 77.11799
#
# Poissons Ratio (x) = 0.05042 0.09307
# Poissons Ratio (y) = 0.06567 0.22185
# Poissons Ratio (z) = 0.10284 0.18824
#
# Static dielectric constant tensor:
#      x y z
#    x 1.760030 0.000000 0.000000 
#    y 0.000000 1.594680 0.000000 
#    z 0.000000 0.000000 1.618600 
# 
# From -- ./inp_files/1250.got.cif
#   From: 2010.05.17/outbox.cif.g08.bks.cpg/sg61_1_cif.got.tgz:1250.got - 2010.06.03 15:17:17.
