data_PCOD9459495
_publ_section_title
;
Structure prediction by ZEFSAII (Michael W. Deem and Ramdas Pophale) SiO2 
 PCOD9459495
Probable space group: P B C A
;
_chemical_formula_sum "Si O2"
_cell_formula_units_Z 44
_cell_length_a 23.474403
_cell_length_b 14.859409
_cell_length_c 5.044796
_cell_angle_alpha 90.000000
_cell_angle_beta 90.000000
_cell_angle_gamma 90.000000
_cell_volume 1759.704327
_symmetry_space_group_name_H-M "P B C A"
_symmetry_group_IT_number 61
_symmetry_cell_setting 'orthorhombic'
loop_
_space_group_symop_operation_xyz
x,y,z
1/2-x,-y,1/2+z
1/2+x,1/2-y,-z
-x,1/2+y,1/2-z
-x,-y,-z
1/2+x,y,1/2-z
1/2-x,1/2+y,z
x,1/2-y,1/2+z
loop_
_atom_site_type_symbol
_atom_site_label
_atom_site_fract_x
_atom_site_fract_y
_atom_site_fract_z
Si Si1 0.438828 0.120739 0.560608
Si Si2 0.612190 0.042514 0.720050
Si Si3 0.168385 0.800012 0.229892
Si Si4 0.214087 0.988239 0.446154
Si Si5 0.560137 0.313650 0.878255
Si Si6 0.000000 0.500000 0.000000
O O1 0.400580 0.197226 0.693890
O O2 0.495235 0.145701 0.392708
O O3 0.460812 0.055696 0.788912
O O4 0.396771 0.060277 0.381400
O O5 0.604233 0.109664 0.472919
O O6 0.556082 0.055586 0.894990
O O7 0.667871 0.047968 0.897345
O O8 0.188724 0.725868 0.438609
O O9 0.186448 0.895669 0.343989
O O10 0.239953 0.030180 0.178533
O O11 0.566012 0.238044 0.105150
#
# Coordination Sequence:
#
# PCOD9459495 Si02
#       6
#     8   8   8   8   8   4
#     4  11  23  40  69 104 149 192 238 290 375 449
#     4  11  25  44  72 101 144 193 251 299 366 450
#     4  12  25  45  74 111 148 178 243 322 378 413
#     4  12  27  50  77 104 140 199 258 301 366 452
#     4  11  26  40  63 104 150 189 234 287 368 443
#     4  10  20  36  70 102 140 182 234 290 358 442
#
# _framework density 25.004197000000001
#
# number of rings (size 3 to 8) (size 9 to 14) (size 15 to 20)
#    0.000    0.727    1.818    6.545   10.182    0.000 
#    0.000    5.455    0.000    0.000    0.000    0.000 
#    0.000    0.000    0.000    0.000    0.000    0.000 
#
# Total GULP energy -245517.660433 kJ/mol
# GULP energy per Si atom -5579.946828 kJ/mol
# Density = 2.494729 g / cm^3
# Si number density = 25.004197 Si / 1000 Ang^3
#
#
#
# Elastic Constant Matrix: (Units=GPa)
#
#
# Indices 1 2 3 4 5 6 
#
# 1 56.6202 4.3804 26.8723 0.0000 0.0000 0.0000
# 2 4.3804 63.5800 22.6754 0.0000 0.0000 0.0000
# 3 26.8723 22.6754 122.1922 0.0000 0.0000 0.0000
# 4 0.0000 0.0000 0.0000 53.8030 0.0000 0.0000
# 5 0.0000 0.0000 0.0000 0.0000 40.5365 0.0000
# 6 0.0000 0.0000 0.0000 0.0000 0.0000 16.5028
#
#
#
# Elastic Compliance Matrix: (Units=1/GPa)
#
#
# Indices 1 2 3 4 5 6 
#
# 1 0.019722 0.000201 -0.004375 0.000000 0.000000 0.000000
# 2 0.000201 0.016845 -0.003170 0.000000 0.000000 0.000000
# 3 -0.004375 -0.003170 0.009734 0.000000 0.000000 0.000000
# 4 0.000000 0.000000 0.000000 0.018586 0.000000 0.000000
# 5 0.000000 0.000000 0.000000 0.000000 0.024669 0.000000
# 6 0.000000 0.000000 0.000000 0.000000 0.000000 0.060596
#
#
# Mechanical properties :
#
#
# Convention : Reuss Voigt Hill
#
# Bulk Modulus (GPa) = 31.63113 38.91651 35.27382
# Shear Modulus (GPa) = 28.50989 34.73274 31.62131
#
# Velocity S-wave (km/s) = 3.38035 3.73107 3.56004
# Velocity P-wave (km/s) = 5.28332 5.84457 5.57102
#
# Compressibility (1/GPa) = 0.03161442
#
# Stress axis : x y z
#
# Youngs Moduli (GPa) = 50.70433 59.36478 102.73055
#
# Poissons Ratio (x) = -0.01196 0.44941
# Poissons Ratio (y) = -0.01021 0.32568
# Poissons Ratio (z) = 0.22181 0.18820
#
# Static dielectric constant tensor:
#      x y z
#    x 1.968130 0.000000 0.000000 
#    y 0.000000 2.037450 0.000000 
#    z 0.000000 0.000000 2.041490 
# 
# From -- ./inp_files/1312.got.cif
#   From: 2010.05.17/outbox.cif.g08.bks.cpg/sg61_1_cif.got.tgz:1312.got - 2010.06.03 15:17:17.
