data_PCOD9459815
_publ_section_title
;
Structure prediction by ZEFSAII (Michael W. Deem and Ramdas Pophale) SiO2 
 PCOD9459815
Probable space group: P B C A
;
_chemical_formula_sum "Si O2"
_cell_formula_units_Z 56
_cell_length_a 12.240578
_cell_length_b 9.787164
_cell_length_c 22.342738
_cell_angle_alpha 90.000000
_cell_angle_beta 90.000000
_cell_angle_gamma 90.000000
_cell_volume 2676.672174
_symmetry_space_group_name_H-M "P B C A"
_symmetry_group_IT_number 61
_symmetry_cell_setting 'orthorhombic'
loop_
_space_group_symop_operation_xyz
x,y,z
1/2-x,-y,1/2+z
1/2+x,1/2-y,-z
-x,1/2+y,1/2-z
-x,-y,-z
1/2+x,y,1/2-z
1/2-x,1/2+y,z
x,1/2-y,1/2+z
loop_
_atom_site_type_symbol
_atom_site_label
_atom_site_fract_x
_atom_site_fract_y
_atom_site_fract_z
Si Si1 0.988992 0.641769 0.571867
Si Si2 0.394072 0.683746 0.801153
Si Si3 0.725825 0.841381 0.287634
Si Si4 0.825524 0.171327 0.396575
Si Si5 0.058085 0.084943 0.635334
Si Si6 0.923476 0.655736 0.438308
Si Si7 0.459680 0.966064 0.752245
O O1 0.924186 0.698063 0.629569
O O2 0.930954 0.673318 0.509535
O O3 0.009710 0.480298 0.577278
O O4 0.099542 0.960478 0.595055
O O5 0.270370 0.695944 0.777964
O O6 0.439028 0.534137 0.782471
O O7 0.452871 0.804146 0.762086
O O8 0.675155 0.718328 0.326482
O O9 0.643938 0.968363 0.281656
O O10 0.832564 0.880178 0.326249
O O11 0.703049 0.146291 0.418189
O O12 0.889456 0.293692 0.428540
O O13 0.968499 0.031271 0.681585
O O14 0.028018 0.215865 0.597187
#
# Coordination Sequence:
#
# PCOD9459815 Si02
#       7
#     8   8   8   8   8   8   8
#     4  11  23  45  63  91 129 166 217 273 318 378
#     4  11  24  38  64  93 131 163 211 264 321 387
#     4  10  21  36  62  93 129 167 204 252 321 395
#     4  11  20  42  70  91 123 169 216 260 318 391
#     4  10  21  37  63  93 118 165 215 257 309 378
#     4  10  24  41  66  90 121 175 217 262 322 380
#     4  11  21  39  60  97 126 166 205 262 326 383
#
# _framework density 20.921500999999999
#
# number of rings (size 3 to 8) (size 9 to 14) (size 15 to 20)
#    0.000    1.429    2.857    2.571    6.000    1.714 
#    2.571    1.429    0.000    0.000    0.000    0.000 
#    0.000    0.000    0.000    0.000    0.000    0.000 
#
# Total GULP energy -312621.610874 kJ/mol
# GULP energy per Si atom -5582.528766 kJ/mol
# Density = 2.087388 g / cm^3
# Si number density = 20.921501 Si / 1000 Ang^3
#
#
#
# Elastic Constant Matrix: (Units=GPa)
#
#
# Indices 1 2 3 4 5 6 
#
# 1 43.2426 -6.7561 23.4019 0.0000 0.0000 0.0000
# 2 -6.7561 74.3667 16.8752 0.0000 0.0000 0.0000
# 3 23.4019 16.8752 92.8318 0.0000 0.0000 0.0000
# 4 0.0000 0.0000 0.0000 31.2298 0.0000 0.0000
# 5 0.0000 0.0000 0.0000 0.0000 31.4391 0.0000
# 6 0.0000 0.0000 0.0000 0.0000 0.0000 18.3495
#
#
#
# Elastic Compliance Matrix: (Units=1/GPa)
#
#
# Indices 1 2 3 4 5 6 
#
# 1 0.028056 0.004332 -0.007860 0.000000 0.000000 0.000000
# 2 0.004332 0.014694 -0.003763 0.000000 0.000000 0.000000
# 3 -0.007860 -0.003763 0.013438 0.000000 0.000000 0.000000
# 4 0.000000 0.000000 0.000000 0.032021 0.000000 0.000000
# 5 0.000000 0.000000 0.000000 0.000000 0.031807 0.000000
# 6 0.000000 0.000000 0.000000 0.000000 0.000000 0.054497
#
#
# Mechanical properties :
#
#
# Convention : Reuss Voigt Hill
#
# Bulk Modulus (GPa) = 24.03498 30.83146 27.43322
# Shear Modulus (GPa) = 24.63482 27.99834 26.31658
#
# Velocity S-wave (km/s) = 3.43518 3.66219 3.55050
# Velocity P-wave (km/s) = 5.21987 5.71410 5.47256
#
# Compressibility (1/GPa) = 0.04160603
#
# Stress axis : x y z
#
# Youngs Moduli (GPa) = 35.64299 68.05292 74.41721
#
# Poissons Ratio (x) = -0.29484 0.58493
# Poissons Ratio (y) = -0.15442 0.28006
# Poissons Ratio (z) = 0.28016 0.25611
#
# Static dielectric constant tensor:
#      x y z
#    x 1.773270 0.000000 0.000000 
#    y 0.000000 1.786030 0.000000 
#    z 0.000000 0.000000 1.773820 
# 
# From -- ./inp_files/10999.got.cif
#   From: 2010.05.17/outbox.cif.g08.bks.cpg/sg61_6_cif.got.tgz:10999.got - 2010.06.03 15:17:17.
