data_PCOD9459193
_publ_section_title
;
Structure prediction by ZEFSAII (Michael W. Deem and Ramdas Pophale) SiO2 
 PCOD9459193
Probable space group: P B C A
;
_chemical_formula_sum "Si O2"
_cell_formula_units_Z 64
_cell_length_a 20.425234
_cell_length_b 12.731178
_cell_length_c 11.289337
_cell_angle_alpha 90.000000
_cell_angle_beta 90.000000
_cell_angle_gamma 90.000000
_cell_volume 2935.648597
_symmetry_space_group_name_H-M "P B C A"
_symmetry_group_IT_number 61
_symmetry_cell_setting 'orthorhombic'
loop_
_space_group_symop_operation_xyz
x,y,z
1/2-x,-y,1/2+z
1/2+x,1/2-y,-z
-x,1/2+y,1/2-z
-x,-y,-z
1/2+x,y,1/2-z
1/2-x,1/2+y,z
x,1/2-y,1/2+z
loop_
_atom_site_type_symbol
_atom_site_label
_atom_site_fract_x
_atom_site_fract_y
_atom_site_fract_z
Si Si1 0.799240 0.770869 0.351485
Si Si2 0.842362 0.180451 0.342372
Si Si3 0.402908 0.838708 0.833251
Si Si4 0.926724 0.360476 0.440378
Si Si5 0.623244 0.151879 0.534162
Si Si6 0.520517 0.064420 0.357228
Si Si7 0.817881 0.974950 0.496572
Si Si8 0.824431 0.050951 0.104684
O O1 0.723474 0.750383 0.327905
O O2 0.846947 0.716950 0.252142
O O3 0.815632 0.708759 0.473760
O O4 0.813151 0.890995 0.388082
O O5 0.904742 0.252087 0.379009
O O6 0.842879 0.122011 0.215820
O O7 0.831157 0.089417 0.441543
O O8 0.422365 0.742376 0.916068
O O9 0.465357 0.884061 0.766897
O O10 0.372028 0.930250 0.912945
O O11 0.971576 0.438033 0.358588
O O12 0.855753 0.403085 0.484155
O O13 0.964483 0.380217 0.566095
O O14 0.585029 0.094399 0.431109
O O15 0.644417 0.063644 0.624621
O O16 0.751291 0.966850 0.573312
#
# Coordination Sequence:
#
# PCOD9459193 Si02
#       8
#     8   8   8   8   8   8   8   8
#     4  10  19  34  55  85 123 167 202 242 316 383
#     4  12  23  36  59  93 130 164 207 265 314 374
#     4  10  20  37  62  86 116 168 204 250 318 384
#     4  10  23  42  61  87 120 163 218 264 308 378
#     4   9  19  36  58  83 120 159 208 250 311 383
#     4   9  21  43  65  82 116 167 212 260 316 376
#     4  11  22  36  56  92 130 158 203 262 311 381
#     4  11  21  36  58  89 130 164 202 263 317 379
#
# _framework density 21.800974
#
# number of rings (size 3 to 8) (size 9 to 14) (size 15 to 20)
#    0.000    1.750    3.750    0.750    0.000    2.000 
#    4.500    2.500    0.000    8.250    0.000    0.000 
#    0.000    0.000    0.000    0.000    0.000    0.000 
#
# Total GULP energy -356432.022478 kJ/mol
# GULP energy per Si atom -5569.250351 kJ/mol
# Density = 2.175135 g / cm^3
# Si number density = 21.800974 Si / 1000 Ang^3
#
#
#
# Elastic Constant Matrix: (Units=GPa)
#
#
# Indices 1 2 3 4 5 6 
#
# 1 36.5990 17.1181 -6.2150 0.0000 0.0000 0.0000
# 2 17.1181 80.3654 22.8239 0.0000 0.0000 0.0000
# 3 -6.2150 22.8239 46.6152 0.0000 0.0000 0.0000
# 4 0.0000 0.0000 0.0000 26.4925 0.0000 0.0000
# 5 0.0000 0.0000 0.0000 0.0000 27.0575 0.0000
# 6 0.0000 0.0000 0.0000 0.0000 0.0000 26.6557
#
#
#
# Elastic Compliance Matrix: (Units=1/GPa)
#
#
# Indices 1 2 3 4 5 6 
#
# 1 0.033450 -0.009747 0.009232 0.000000 0.000000 0.000000
# 2 -0.009747 0.017293 -0.009767 0.000000 0.000000 0.000000
# 3 0.009232 -0.009767 0.027465 0.000000 0.000000 0.000000
# 4 0.000000 0.000000 0.000000 0.037747 0.000000 0.000000
# 5 0.000000 0.000000 0.000000 0.000000 0.036958 0.000000
# 6 0.000000 0.000000 0.000000 0.000000 0.000000 0.037515
#
#
# Mechanical properties :
#
#
# Convention : Reuss Voigt Hill
#
# Bulk Modulus (GPa) = 17.34756 25.67038 21.50897
# Shear Modulus (GPa) = 21.71970 24.69798 23.20884
#
# Velocity S-wave (km/s) = 3.15980 3.36949 3.26633
# Velocity P-wave (km/s) = 4.61378 5.19022 4.91047
#
# Compressibility (1/GPa) = 0.05764500
#
# Stress axis : x y z
#
# Youngs Moduli (GPa) = 29.89565 57.82690 36.40989
#
# Poissons Ratio (x) = 0.56363 -0.33614
# Poissons Ratio (y) = 0.29139 0.35560
# Poissons Ratio (z) = -0.27600 0.56477
#
# Static dielectric constant tensor:
#      x y z
#    x 1.829940 0.000000 0.000000 
#    y 0.000000 1.883210 0.000000 
#    z 0.000000 0.000000 1.836300 
# 
# From -- ./inp_files/6637.got.cif
#   From: 2010.05.17/outbox.cif.g08.bks.cpg/sg61_4_cif.got.tgz:6637.got - 2010.06.03 15:17:17.
