data_PCOD9459641
_publ_section_title
;
Structure prediction by ZEFSAII (Michael W. Deem and Ramdas Pophale) SiO2 
 PCOD9459641
Probable space group: P B C A
;
_chemical_formula_sum "Si O2"
_cell_formula_units_Z 56
_cell_length_a 29.723098
_cell_length_b 5.172009
_cell_length_c 14.005429
_cell_angle_alpha 90.000000
_cell_angle_beta 90.000000
_cell_angle_gamma 90.000000
_cell_volume 2153.028415
_symmetry_space_group_name_H-M "P B C A"
_symmetry_group_IT_number 61
_symmetry_cell_setting 'orthorhombic'
loop_
_space_group_symop_operation_xyz
x,y,z
1/2-x,-y,1/2+z
1/2+x,1/2-y,-z
-x,1/2+y,1/2-z
-x,-y,-z
1/2+x,y,1/2-z
1/2-x,1/2+y,z
x,1/2-y,1/2+z
loop_
_atom_site_type_symbol
_atom_site_label
_atom_site_fract_x
_atom_site_fract_y
_atom_site_fract_z
Si Si1 0.725894 0.101770 0.795880
Si Si2 0.616213 0.473398 0.958452
Si Si3 0.356176 0.474724 0.460254
Si Si4 0.872875 0.698071 0.246818
Si Si5 0.027438 0.249972 0.523418
Si Si6 0.529183 0.105841 0.763302
Si Si7 0.764704 0.334992 0.513729
O O1 0.756280 0.333098 0.757138
O O2 0.673184 0.146845 0.773573
O O3 0.742796 0.103551 0.908762
O O4 0.618642 0.473332 0.842952
O O5 0.576773 0.309348 0.012340
O O6 0.608577 0.767790 0.993876
O O7 0.652115 0.249197 0.987209
O O8 0.363409 0.529698 0.348236
O O9 0.314097 0.284596 0.483556
O O10 0.918752 0.868614 0.227452
O O11 0.034567 0.228813 0.634229
O O12 0.000000 0.500000 0.500000
O O13 0.000000 0.000000 0.500000
O O14 0.492990 0.319615 0.722782
O O15 0.763670 0.610946 0.562909
#
# Coordination Sequence:
#
# PCOD9459641 Si02
#       7
#     8   8   8   8   8   8   8
#     4  10  21  40  69 100 144 189 238 309 375 447
#     4  11  26  47  69 107 150 190 249 322 368 454
#     4  12  26  44  76 108 146 200 249 309 385 454
#     4  11  28  48  76 113 152 204 261 313 390 465
#     4  11  24  43  72 102 138 194 245 304 388 439
#     4  11  27  47  73 107 153 198 253 325 379 443
#     4  10  20  39  65  99 142 186 238 298 373 441
#
# _framework density 26.009872000000001
#
# number of rings (size 3 to 8) (size 9 to 14) (size 15 to 20)
#    0.000    1.143    0.000    6.000    6.000    8.000 
#    0.000    0.000    0.000    0.000    0.000    0.000 
#    0.000    0.000    0.000    0.000    0.000    0.000 
#
# Total GULP energy -312039.240849 kJ/mol
# GULP energy per Si atom -5572.129301 kJ/mol
# Density = 2.595067 g / cm^3
# Si number density = 26.009872 Si / 1000 Ang^3
#
#
#
# Elastic Constant Matrix: (Units=GPa)
#
#
# Indices 1 2 3 4 5 6 
#
# 1 83.3753 -11.0362 -4.1287 0.0000 0.0000 0.0000
# 2 -11.0362 135.6623 22.9429 0.0000 0.0000 0.0000
# 3 -4.1287 22.9429 160.5826 0.0000 0.0000 0.0000
# 4 0.0000 0.0000 0.0000 31.4097 0.0000 0.0000
# 5 0.0000 0.0000 0.0000 0.0000 24.8316 0.0000
# 6 0.0000 0.0000 0.0000 0.0000 0.0000 114.6486
#
#
#
# Elastic Compliance Matrix: (Units=1/GPa)
#
#
# Indices 1 2 3 4 5 6 
#
# 1 0.012129 0.000957 0.000175 0.000000 0.000000 0.000000
# 2 0.000957 0.007629 -0.001065 0.000000 0.000000 0.000000
# 3 0.000175 -0.001065 0.006384 0.000000 0.000000 0.000000
# 4 0.000000 0.000000 0.000000 0.031837 0.000000 0.000000
# 5 0.000000 0.000000 0.000000 0.000000 0.040271 0.000000
# 6 0.000000 0.000000 0.000000 0.000000 0.000000 0.008722
#
#
# Mechanical properties :
#
#
# Convention : Reuss Voigt Hill
#
# Bulk Modulus (GPa) = 38.05715 43.90847 40.98281
# Shear Modulus (GPa) = 43.25310 58.96745 51.11028
#
# Velocity S-wave (km/s) = 4.08235 4.76659 4.43768
# Velocity P-wave (km/s) = 6.07325 6.87110 6.48446
#
# Compressibility (1/GPa) = 0.02627627
#
# Stress axis : x y z
#
# Youngs Moduli (GPa) = 82.44486 131.07383 156.64048
#
# Poissons Ratio (x) = -0.12545 -0.02743
# Poissons Ratio (y) = -0.07891 0.16689
# Poissons Ratio (z) = -0.01444 0.13965
#
# Static dielectric constant tensor:
#      x y z
#    x 2.250100 0.000000 0.000000 
#    y 0.000000 2.849700 0.000000 
#    z 0.000000 0.000000 2.145530 
# 
# From -- ./inp_files/8647.got.cif
#   From: 2010.05.17/outbox.cif.g08.bks.cpg/sg61_5_cif.got.tgz:8647.got - 2010.06.03 15:17:17.
