data_PCOD9459566
_publ_section_title
;
Structure prediction by ZEFSAII (Michael W. Deem and Ramdas Pophale) SiO2 
 PCOD9459566
Probable space group: P B C A
;
_chemical_formula_sum "Si O2"
_cell_formula_units_Z 56
_cell_length_a 5.453547
_cell_length_b 27.886686
_cell_length_c 15.000039
_cell_angle_alpha 90.000000
_cell_angle_beta 90.000000
_cell_angle_gamma 90.000000
_cell_volume 2281.226223
_symmetry_space_group_name_H-M "P B C A"
_symmetry_group_IT_number 61
_symmetry_cell_setting 'orthorhombic'
loop_
_space_group_symop_operation_xyz
x,y,z
1/2-x,-y,1/2+z
1/2+x,1/2-y,-z
-x,1/2+y,1/2-z
-x,-y,-z
1/2+x,y,1/2-z
1/2-x,1/2+y,z
x,1/2-y,1/2+z
loop_
_atom_site_type_symbol
_atom_site_label
_atom_site_fract_x
_atom_site_fract_y
_atom_site_fract_z
Si Si1 0.761676 0.325201 0.729139
Si Si2 0.912898 0.260591 0.956039
Si Si3 0.906579 0.016196 0.804496
Si Si4 0.415740 0.813806 0.307458
Si Si5 0.700898 0.088418 0.372284
Si Si6 0.047529 0.602018 0.566194
Si Si7 0.587680 0.360873 0.552309
O O1 0.507709 0.298535 0.746629
O O2 0.715045 0.371850 0.792538
O O3 0.771009 0.339726 0.626417
O O4 0.037957 0.227812 0.880500
O O5 0.889451 0.318121 0.945721
O O6 0.136402 0.257423 0.028028
O O7 0.654500 0.025573 0.751054
O O8 0.914384 0.050811 0.889625
O O9 0.895576 0.960635 0.832711
O O10 0.656819 0.812065 0.244111
O O11 0.413613 0.863274 0.364730
O O12 0.569599 0.097168 0.467741
O O13 0.983155 0.090443 0.405382
O O14 0.302341 0.628544 0.542584
#
# Coordination Sequence:
#
# PCOD9459566 Si02
#       7
#     8   8   8   8   8   8   8
#     4  10  20  38  61  99 136 178 224 299 371 423
#     4  12  26  49  76 111 148 199 258 319 384 452
#     4  12  29  50  75 109 155 199 254 313 380 458
#     4  12  28  50  76 109 159 204 257 314 382 457
#     4  11  25  45  75 108 151 192 251 316 384 445
#     4  12  26  48  77 109 147 209 257 309 381 461
#     4  11  25  42  78 106 148 193 253 315 386 457
#
# _framework density 24.548199
#
# number of rings (size 3 to 8) (size 9 to 14) (size 15 to 20)
#    0.000    0.571    2.857    4.714    6.000    2.857 
#    0.000    0.000    0.000    0.000    0.000    0.000 
#    0.000    0.000    0.000    0.000    0.000    0.000 
#
# Total GULP energy -312868.006855 kJ/mol
# GULP energy per Si atom -5586.928694 kJ/mol
# Density = 2.449233 g / cm^3
# Si number density = 24.548199 Si / 1000 Ang^3
#
#
#
# Elastic Constant Matrix: (Units=GPa)
#
#
# Indices 1 2 3 4 5 6 
#
# 1 126.9883 -1.2815 21.5919 0.0000 0.0000 0.0000
# 2 -1.2815 75.7935 25.8425 0.0000 0.0000 0.0000
# 3 21.5919 25.8425 67.8321 0.0000 0.0000 0.0000
# 4 0.0000 0.0000 0.0000 51.9909 0.0000 0.0000
# 5 0.0000 0.0000 0.0000 0.0000 58.4383 0.0000
# 6 0.0000 0.0000 0.0000 0.0000 0.0000 13.7404
#
#
#
# Elastic Compliance Matrix: (Units=1/GPa)
#
#
# Indices 1 2 3 4 5 6 
#
# 1 0.008421 0.001214 -0.003143 0.000000 0.000000 0.000000
# 2 0.001214 0.015338 -0.006230 0.000000 0.000000 0.000000
# 3 -0.003143 -0.006230 0.018116 0.000000 0.000000 0.000000
# 4 0.000000 0.000000 0.000000 0.019234 0.000000 0.000000
# 5 0.000000 0.000000 0.000000 0.000000 0.017112 0.000000
# 6 0.000000 0.000000 0.000000 0.000000 0.000000 0.072778
#
#
# Mechanical properties :
#
#
# Convention : Reuss Voigt Hill
#
# Bulk Modulus (GPa) = 39.12691 40.32442 39.72566
# Shear Modulus (GPa) = 28.43520 39.79798 34.11659
#
# Velocity S-wave (km/s) = 3.40713 4.03080 3.73202
# Velocity P-wave (km/s) = 5.60816 6.17458 5.89818
#
# Compressibility (1/GPa) = 0.02555786
#
# Stress axis : x y z
#
# Youngs Moduli (GPa) = 118.74465 65.19556 55.19880
#
# Poissons Ratio (x) = -0.07915 0.17350
# Poissons Ratio (y) = -0.14417 0.34389
# Poissons Ratio (z) = 0.37324 0.40617
#
# Static dielectric constant tensor:
#      x y z
#    x 2.148170 0.000000 0.000000 
#    y 0.000000 1.957030 0.000000 
#    z 0.000000 0.000000 1.990410 
# 
# From -- ./inp_files/6877.got.cif
#   From: 2010.05.17/outbox.cif.g08.bks.cpg/sg61_4_cif.got.tgz:6877.got - 2010.06.03 15:17:17.
