data_PCOD9459908
_publ_section_title
;
Structure prediction by ZEFSAII (Michael W. Deem and Ramdas Pophale) SiO2 
 PCOD9459908
Probable space group: P B C A
;
_chemical_formula_sum "Si O2"
_cell_formula_units_Z 48
_cell_length_a 15.747569
_cell_length_b 16.126624
_cell_length_c 8.935353
_cell_angle_alpha 90.000000
_cell_angle_beta 90.000000
_cell_angle_gamma 90.000000
_cell_volume 2269.178681
_symmetry_space_group_name_H-M "P B C A"
_symmetry_group_IT_number 61
_symmetry_cell_setting 'orthorhombic'
loop_
_space_group_symop_operation_xyz
x,y,z
1/2-x,-y,1/2+z
1/2+x,1/2-y,-z
-x,1/2+y,1/2-z
-x,-y,-z
1/2+x,y,1/2-z
1/2-x,1/2+y,z
x,1/2-y,1/2+z
loop_
_atom_site_type_symbol
_atom_site_label
_atom_site_fract_x
_atom_site_fract_y
_atom_site_fract_z
Si Si1 0.206549 0.918256 0.519692
Si Si2 0.433700 0.754339 0.668426
Si Si3 0.479293 0.092220 0.874370
Si Si4 0.948382 0.925048 0.701140
Si Si5 0.809092 0.756834 0.082078
Si Si6 0.246463 0.420336 0.845924
O O1 0.116007 0.910628 0.437634
O O2 0.258672 0.836301 0.474387
O O3 0.194530 0.922367 0.699331
O O4 0.252232 0.001768 0.457708
O O5 0.496523 0.678964 0.696521
O O6 0.474445 0.841342 0.716715
O O7 0.342525 0.737555 0.748182
O O8 0.400895 0.755299 0.499071
O O9 0.490327 0.013434 0.765726
O O10 0.538019 0.082777 0.021856
O O11 0.847755 0.929058 0.726736
O O12 0.757932 0.669766 0.074160
#
# Coordination Sequence:
#
# PCOD9459908 Si02
#       6
#     8   8   8   8   8   8
#     4  11  24  39  66  97 127 161 219 265 314 369
#     4  11  20  41  66  89 120 175 208 251 315 391
#     4  10  21  38  66  93 124 166 204 270 307 367
#     4   9  19  39  63  85 124 162 206 240 320 377
#     4  11  22  41  66  87 128 171 212 251 319 390
#     4  10  22  40  63  93 127 170 205 257 318 385
#
# _framework density 21.153030000000001
#
# number of rings (size 3 to 8) (size 9 to 14) (size 15 to 20)
#    0.000    1.667    6.667    0.000    2.333    1.333 
#    0.000    0.833    7.333    0.000    0.000    0.000 
#    0.000    0.000    0.000    0.000    0.000    0.000 
#
# Total GULP energy -267516.713771 kJ/mol
# GULP energy per Si atom -5573.264870 kJ/mol
# Density = 2.110488 g / cm^3
# Si number density = 21.153030 Si / 1000 Ang^3
#
#
#
# Elastic Constant Matrix: (Units=GPa)
#
#
# Indices 1 2 3 4 5 6 
#
# 1 38.6452 38.4202 -1.4945 0.0000 0.0000 0.0000
# 2 38.4202 230.0435 48.8882 0.0000 0.0000 0.0000
# 3 -1.4945 48.8882 43.0446 0.0000 0.0000 0.0000
# 4 0.0000 0.0000 0.0000 34.1288 0.0000 0.0000
# 5 0.0000 0.0000 0.0000 0.0000 25.2745 0.0000
# 6 0.0000 0.0000 0.0000 0.0000 0.0000 36.6292
#
#
#
# Elastic Compliance Matrix: (Units=1/GPa)
#
#
# Indices 1 2 3 4 5 6 
#
# 1 0.034047 -0.007827 0.010071 0.000000 0.000000 0.000000
# 2 -0.007827 0.007529 -0.008823 0.000000 0.000000 0.000000
# 3 0.010071 -0.008823 0.033602 0.000000 0.000000 0.000000
# 4 0.000000 0.000000 0.000000 0.029301 0.000000 0.000000
# 5 0.000000 0.000000 0.000000 0.000000 0.039566 0.000000
# 6 0.000000 0.000000 0.000000 0.000000 0.000000 0.027301
#
#
# Mechanical properties :
#
#
# Convention : Reuss Voigt Hill
#
# Bulk Modulus (GPa) = 16.12346 53.70678 34.91512
# Shear Modulus (GPa) = 24.36933 34.26780 29.31857
#
# Velocity S-wave (km/s) = 3.39787 4.02928 3.72697
# Velocity P-wave (km/s) = 4.79925 6.86233 5.92134
#
# Compressibility (1/GPa) = 0.06202141
#
# Stress axis : x y z
#
# Youngs Moduli (GPa) = 29.37127 132.81646 29.75995
#
# Poissons Ratio (x) = 1.03950 -0.29972
# Poissons Ratio (y) = 0.22988 0.26257
# Poissons Ratio (z) = -0.29580 1.17185
#
# Static dielectric constant tensor:
#      x y z
#    x 1.772200 0.000000 0.000000 
#    y 0.000000 1.819620 0.000000 
#    z 0.000000 0.000000 1.754830 
# 
# From -- ./inp_files/3448.got.cif
#   From: 2010.05.17/outbox.cif.g08.bks.cpg/sg61_2_cif.got.tgz:3448.got - 2010.06.03 15:17:17.
