data_PCOD9459337
_publ_section_title
;
Structure prediction by ZEFSAII (Michael W. Deem and Ramdas Pophale) SiO2 
 PCOD9459337
Probable space group: P B C A
;
_chemical_formula_sum "Si O2"
_cell_formula_units_Z 40
_cell_length_a 14.884746
_cell_length_b 8.939820
_cell_length_c 14.504599
_cell_angle_alpha 90.000000
_cell_angle_beta 90.000000
_cell_angle_gamma 90.000000
_cell_volume 1930.082750
_symmetry_space_group_name_H-M "P B C A"
_symmetry_group_IT_number 61
_symmetry_cell_setting 'orthorhombic'
loop_
_space_group_symop_operation_xyz
x,y,z
1/2-x,-y,1/2+z
1/2+x,1/2-y,-z
-x,1/2+y,1/2-z
-x,-y,-z
1/2+x,y,1/2-z
1/2-x,1/2+y,z
x,1/2-y,1/2+z
loop_
_atom_site_type_symbol
_atom_site_label
_atom_site_fract_x
_atom_site_fract_y
_atom_site_fract_z
Si Si1 0.052274 0.096583 0.217195
Si Si2 0.819659 0.777269 0.166820
Si Si3 0.927812 0.394858 0.445563
Si Si4 0.142903 0.624604 0.365164
Si Si5 0.463621 0.597879 0.415906
O O1 0.099391 0.990601 0.142716
O O2 0.956756 0.145509 0.175680
O O3 0.118686 0.229267 0.246709
O O4 0.033173 0.018285 0.316258
O O5 0.831469 0.951171 0.148727
O O6 0.717489 0.729676 0.178994
O O7 0.863810 0.672911 0.085132
O O8 0.858902 0.350106 0.524797
O O9 0.000000 0.500000 0.500000
O O10 0.974953 0.245265 0.410647
O O11 0.500000 0.500000 0.500000
#
# Coordination Sequence:
#
# PCOD9459337 Si02
#       5
#     8   8   8   8   8
#     4   9  20  42  63  92 131 171 219 268 328 389
#     4  10  24  41  62 100 129 171 226 269 332 390
#     4  10  19  40  66  88 123 176 211 266 329 387
#     4  11  23  43  67  95 134 175 222 278 332 397
#     4  10  22  39  64  95 125 169 218 264 332 385
#
# _framework density 20.724498000000001
#
# number of rings (size 3 to 8) (size 9 to 14) (size 15 to 20)
#    1.200    0.800    4.000    0.000    2.800    9.600 
#    3.600    0.000    0.000    0.000    0.000    0.000 
#    0.000    0.000    0.000    0.000    0.000    0.000 
#
# Total GULP energy -222839.811542 kJ/mol
# GULP energy per Si atom -5570.995289 kJ/mol
# Density = 2.067733 g / cm^3
# Si number density = 20.724498 Si / 1000 Ang^3
#
#
#
# Elastic Constant Matrix: (Units=GPa)
#
#
# Indices 1 2 3 4 5 6 
#
# 1 93.3324 4.2217 9.2562 0.0000 0.0000 0.0000
# 2 4.2217 31.5784 5.7651 0.0000 0.0000 0.0000
# 3 9.2562 5.7651 103.7628 0.0000 0.0000 0.0000
# 4 0.0000 0.0000 0.0000 21.7385 0.0000 0.0000
# 5 0.0000 0.0000 0.0000 0.0000 23.6847 0.0000
# 6 0.0000 0.0000 0.0000 0.0000 0.0000 18.9734
#
#
#
# Elastic Compliance Matrix: (Units=1/GPa)
#
#
# Indices 1 2 3 4 5 6 
#
# 1 0.010862 -0.001288 -0.000897 0.000000 0.000000 0.000000
# 2 -0.001288 0.032144 -0.001671 0.000000 0.000000 0.000000
# 3 -0.000897 -0.001671 0.009810 0.000000 0.000000 0.000000
# 4 0.000000 0.000000 0.000000 0.046001 0.000000 0.000000
# 5 0.000000 0.000000 0.000000 0.000000 0.042221 0.000000
# 6 0.000000 0.000000 0.000000 0.000000 0.000000 0.052705
#
#
# Mechanical properties :
#
#
# Convention : Reuss Voigt Hill
#
# Bulk Modulus (GPa) = 22.17143 29.68441 25.92792
# Shear Modulus (GPa) = 23.09551 26.84134 24.96843
#
# Velocity S-wave (km/s) = 3.34189 3.60272 3.47476
# Velocity P-wave (km/s) = 5.06087 5.62678 5.35131
#
# Compressibility (1/GPa) = 0.04510308
#
# Stress axis : x y z
#
# Youngs Moduli (GPa) = 92.06694 31.10955 101.93415
#
# Poissons Ratio (x) = 0.04008 0.09147
# Poissons Ratio (y) = 0.11861 0.17034
# Poissons Ratio (z) = 0.08262 0.05199
#
# Static dielectric constant tensor:
#      x y z
#    x 1.798030 0.000000 0.000000 
#    y 0.000000 1.723350 0.000000 
#    z 0.000000 0.000000 1.799110 
# 
# From -- ./inp_files/9393.got.cif
#   From: 2010.05.17/outbox.cif.g08.bks.cpg/sg61_5_cif.got.tgz:9393.got - 2010.06.03 15:17:17.
