data_PCOD9459863
_publ_section_title
;
Structure prediction by ZEFSAII (Michael W. Deem and Ramdas Pophale) SiO2 
 PCOD9459863
Probable space group: P B C A
;
_chemical_formula_sum "Si O2"
_cell_formula_units_Z 64
_cell_length_a 14.557937
_cell_length_b 9.488394
_cell_length_c 21.267105
_cell_angle_alpha 90.000000
_cell_angle_beta 90.000000
_cell_angle_gamma 90.000000
_cell_volume 2937.655883
_symmetry_space_group_name_H-M "P B C A"
_symmetry_group_IT_number 61
_symmetry_cell_setting 'orthorhombic'
loop_
_space_group_symop_operation_xyz
x,y,z
1/2-x,-y,1/2+z
1/2+x,1/2-y,-z
-x,1/2+y,1/2-z
-x,-y,-z
1/2+x,y,1/2-z
1/2-x,1/2+y,z
x,1/2-y,1/2+z
loop_
_atom_site_type_symbol
_atom_site_label
_atom_site_fract_x
_atom_site_fract_y
_atom_site_fract_z
Si Si1 0.575428 0.497603 0.199846
Si Si2 0.241773 0.424756 0.477247
Si Si3 0.554696 0.195620 0.575792
Si Si4 0.517435 0.698125 0.711046
Si Si5 0.150638 0.813255 0.047321
Si Si6 0.112988 0.482815 0.874397
Si Si7 0.681799 0.853673 0.306952
Si Si8 0.770493 0.885403 0.738723
O O1 0.560311 0.402841 0.138160
O O2 0.561385 0.402279 0.261817
O O3 0.508209 0.635053 0.199997
O O4 0.676950 0.564255 0.204404
O O5 0.150187 0.337249 0.459372
O O6 0.311123 0.329465 0.517283
O O7 0.205188 0.560176 0.514293
O O8 0.300432 0.471732 0.416460
O O9 0.459165 0.165551 0.540382
O O10 0.554150 0.362208 0.591900
O O11 0.559417 0.620449 0.650019
O O12 0.589414 0.682127 0.768783
O O13 0.171486 0.812596 0.121480
O O14 0.150662 0.405144 0.812068
O O15 0.755089 0.766898 0.266461
O O16 0.707297 0.014809 0.297270
#
# Coordination Sequence:
#
# PCOD9459863 Si02
#       8
#     8   8   8   8   8   8   8   8
#     4  11  21  40  67 106 143 180 225 296 365 442
#     4  12  27  49  72 102 141 197 252 301 358 433
#     4  12  25  47  75 100 144 189 249 309 358 438
#     4  10  23  38  68 107 142 175 227 292 371 438
#     4  12  27  49  70  99 143 193 249 298 364 427
#     4  11  24  44  73 106 139 188 241 304 360 433
#     4  10  21  40  60  95 132 175 217 285 348 431
#     4  10  21  37  69  97 135 173 223 282 371 429
#
# _framework density 21.786078
#
# number of rings (size 3 to 8) (size 9 to 14) (size 15 to 20)
#    0.000    1.000    3.750    2.625    7.000    1.500 
#    2.250    0.000    0.000    0.000    0.000    0.000 
#    0.000    0.000    0.000    0.000    0.000    0.000 
#
# Total GULP energy -357821.260207 kJ/mol
# GULP energy per Si atom -5590.957191 kJ/mol
# Density = 2.173649 g / cm^3
# Si number density = 21.786078 Si / 1000 Ang^3
#
#
#
# Elastic Constant Matrix: (Units=GPa)
#
#
# Indices 1 2 3 4 5 6 
#
# 1 85.8592 47.9277 25.9079 0.0000 0.0000 0.0000
# 2 47.9277 71.2921 15.8824 0.0000 0.0000 0.0000
# 3 25.9079 15.8824 70.2792 0.0000 0.0000 0.0000
# 4 0.0000 0.0000 0.0000 23.2997 0.0000 0.0000
# 5 0.0000 0.0000 0.0000 0.0000 16.7100 0.0000
# 6 0.0000 0.0000 0.0000 0.0000 0.0000 30.8452
#
#
#
# Elastic Compliance Matrix: (Units=1/GPa)
#
#
# Indices 1 2 3 4 5 6 
#
# 1 0.019935 -0.012388 -0.004549 0.000000 0.000000 0.000000
# 2 -0.012388 0.022469 -0.000511 0.000000 0.000000 0.000000
# 3 -0.004549 -0.000511 0.016021 0.000000 0.000000 0.000000
# 4 0.000000 0.000000 0.000000 0.042919 0.000000 0.000000
# 5 0.000000 0.000000 0.000000 0.000000 0.059844 0.000000
# 6 0.000000 0.000000 0.000000 0.000000 0.000000 0.032420
#
#
# Mechanical properties :
#
#
# Convention : Reuss Voigt Hill
#
# Bulk Modulus (GPa) = 42.50162 45.20738 43.85450
# Shear Modulus (GPa) = 21.15518 23.35180 22.25349
#
# Velocity S-wave (km/s) = 3.11953 3.27749 3.19949
# Velocity P-wave (km/s) = 5.70318 5.92606 5.81569
#
# Compressibility (1/GPa) = 0.02352851
#
# Stress axis : x y z
#
# Youngs Moduli (GPa) = 50.16294 44.50586 62.41627
#
# Poissons Ratio (x) = 0.55135 0.28395
# Poissons Ratio (y) = 0.62143 0.03189
# Poissons Ratio (z) = 0.22820 0.02274
#
# Static dielectric constant tensor:
#      x y z
#    x 1.858480 0.000000 0.000000 
#    y 0.000000 1.799580 0.000000 
#    z 0.000000 0.000000 1.742920 
# 
# From -- ./inp_files/10548.got.cif
#   From: 2010.05.17/outbox.cif.g08.bks.cpg/sg61_6_cif.got.tgz:10548.got - 2010.06.03 15:17:17.
