data_PCOD9459443
_publ_section_title
;
Structure prediction by ZEFSAII (Michael W. Deem and Ramdas Pophale) SiO2 
 PCOD9459443
Probable space group: P B C A
;
_chemical_formula_sum "Si O2"
_cell_formula_units_Z 64
_cell_length_a 11.411585
_cell_length_b 9.883405
_cell_length_c 28.767736
_cell_angle_alpha 90.000000
_cell_angle_beta 90.000000
_cell_angle_gamma 90.000000
_cell_volume 3244.578202
_symmetry_space_group_name_H-M "P B C A"
_symmetry_group_IT_number 61
_symmetry_cell_setting 'orthorhombic'
loop_
_space_group_symop_operation_xyz
x,y,z
1/2-x,-y,1/2+z
1/2+x,1/2-y,-z
-x,1/2+y,1/2-z
-x,-y,-z
1/2+x,y,1/2-z
1/2-x,1/2+y,z
x,1/2-y,1/2+z
loop_
_atom_site_type_symbol
_atom_site_label
_atom_site_fract_x
_atom_site_fract_y
_atom_site_fract_z
Si Si1 0.120094 0.467281 0.971768
Si Si2 0.108987 0.531636 0.466433
Si Si3 0.648801 0.847772 0.258096
Si Si4 0.117888 0.274170 0.407275
Si Si5 0.668010 0.149916 0.251954
Si Si6 0.618026 0.711819 0.596918
Si Si7 0.034208 0.655116 0.174066
Si Si8 0.452769 0.848358 0.181656
O O1 0.257877 0.483941 0.988246
O O2 0.113370 0.313719 0.954334
O O3 0.115794 0.564855 0.926934
O O4 0.000000 0.500000 0.000000
O O5 0.101057 0.427613 0.423167
O O6 0.095738 0.679818 0.443883
O O7 0.000000 0.500000 0.500000
O O8 0.703306 0.996191 0.262844
O O9 0.729270 0.741007 0.231251
O O10 0.617928 0.771233 0.305599
O O11 0.534920 0.867262 0.226794
O O12 0.248914 0.260645 0.386949
O O13 0.024870 0.211975 0.372217
O O14 0.565234 0.146096 0.214153
O O15 0.632979 0.233501 0.298298
O O16 0.526565 0.710488 0.638699
O O17 0.084174 0.502491 0.168522
#
# Coordination Sequence:
#
# PCOD9459443 Si02
#       8
#     8   8   8   8   8   8   8   8
#     4  10  20  38  62  83 112 152 192 237 302 362
#     4  10  22  38  58  87 120 146 192 249 300 358
#     4  10  21  36  55  80 115 154 191 236 289 344
#     4  10  20  36  59  86 112 147 192 245 288 347
#     4  10  21  36  55  80 115 154 191 236 289 344
#     4  10  20  36  59  86 112 147 192 245 288 347
#     4  10  20  36  56  82 112 148 195 239 287 342
#     4  10  20  36  56  82 112 148 195 239 287 342
#
# _framework density 19.725214999999999
#
# number of rings (size 3 to 8) (size 9 to 14) (size 15 to 20)
#    0.000    2.000    1.250    2.250    1.750    1.000 
#    0.000    2.500    0.000    0.000    0.000    0.000 
#    0.000    0.000    0.000    0.000    0.000    0.000 
#
# Total GULP energy -356306.127393 kJ/mol
# GULP energy per Si atom -5567.283241 kJ/mol
# Density = 1.968032 g / cm^3
# Si number density = 19.725215 Si / 1000 Ang^3
#
#
#
# Elastic Constant Matrix: (Units=GPa)
#
#
# Indices 1 2 3 4 5 6 
#
# 1 68.9259 6.0650 24.9062 0.0000 0.0000 0.0000
# 2 6.0650 108.1204 -6.9986 0.0000 0.0000 0.0000
# 3 24.9062 -6.9986 44.7106 0.0000 0.0000 0.0000
# 4 0.0000 0.0000 0.0000 391.5241 0.0000 0.0000
# 5 0.0000 0.0000 0.0000 0.0000 22.8837 0.0000
# 6 0.0000 0.0000 0.0000 0.0000 0.0000 21.8083
#
#
#
# Elastic Compliance Matrix: (Units=1/GPa)
#
#
# Indices 1 2 3 4 5 6 
#
# 1 0.018476 -0.001720 -0.010561 0.000000 0.000000 0.000000
# 2 -0.001720 0.009504 0.002446 0.000000 0.000000 0.000000
# 3 -0.010561 0.002446 0.028632 0.000000 0.000000 0.000000
# 4 0.000000 0.000000 0.000000 0.002554 0.000000 0.000000
# 5 0.000000 0.000000 0.000000 0.000000 0.043699 0.000000
# 6 0.000000 0.000000 0.000000 0.000000 0.000000 0.045854
#
#
# Mechanical properties :
#
#
# Convention : Reuss Voigt Hill
#
# Bulk Modulus (GPa) = 27.07045 29.96691 28.51868
# Shear Modulus (GPa) = 27.66953 100.42884 64.04918
#
# Velocity S-wave (km/s) = 3.74939 7.14314 5.70449
# Velocity P-wave (km/s) = 5.70066 9.12457 7.60774
#
# Compressibility (1/GPa) = 0.03694065
#
# Stress axis : x y z
#
# Youngs Moduli (GPa) = 54.12422 105.22164 34.92576
#
# Poissons Ratio (x) = 0.18099 0.36886
# Poissons Ratio (y) = 0.09310 -0.08542
# Poissons Ratio (z) = 0.57163 -0.25735
#
# Static dielectric constant tensor:
#      x y z
#    x 1.800510 0.000000 0.000000 
#    y 0.000000 1.702220 0.000000 
#    z 0.000000 0.000000 1.663210 
# 
# From -- ./inp_files/11784.got.cif
#   From: 2010.05.17/outbox.cif.g08.bks.cpg/sg61_6_cif.got.tgz:11784.got - 2010.06.03 15:17:17.
