data_PCOD9459335
_publ_section_title
;
Structure prediction by ZEFSAII (Michael W. Deem and Ramdas Pophale) SiO2 
 PCOD9459335
Probable space group: P B C A
;
_chemical_formula_sum "Si O2"
_cell_formula_units_Z 64
_cell_length_a 18.437474
_cell_length_b 12.305254
_cell_length_c 11.361484
_cell_angle_alpha 90.000000
_cell_angle_beta 90.000000
_cell_angle_gamma 90.000000
_cell_volume 2577.668502
_symmetry_space_group_name_H-M "P B C A"
_symmetry_group_IT_number 61
_symmetry_cell_setting 'orthorhombic'
loop_
_space_group_symop_operation_xyz
x,y,z
1/2-x,-y,1/2+z
1/2+x,1/2-y,-z
-x,1/2+y,1/2-z
-x,-y,-z
1/2+x,y,1/2-z
1/2-x,1/2+y,z
x,1/2-y,1/2+z
loop_
_atom_site_type_symbol
_atom_site_label
_atom_site_fract_x
_atom_site_fract_y
_atom_site_fract_z
Si Si1 0.476967 0.962940 0.677159
Si Si2 0.622909 0.007783 0.534875
Si Si3 0.785250 0.455066 0.726898
Si Si4 0.495565 0.699920 0.370017
Si Si5 0.266441 0.124802 0.598479
Si Si6 0.569742 0.578825 0.582767
Si Si7 0.156003 0.357879 0.921876
Si Si8 0.373153 0.245674 0.749819
O O1 0.407434 0.951494 0.591808
O O2 0.466008 0.036243 0.794403
O O3 0.547249 0.997401 0.604504
O O4 0.491468 0.847893 0.737997
O O5 0.682378 0.044214 0.633384
O O6 0.669925 0.903297 0.493149
O O7 0.763084 0.513514 0.846358
O O8 0.715008 0.390722 0.677008
O O9 0.851264 0.371513 0.747845
O O10 0.521284 0.617660 0.473310
O O11 0.411472 0.722046 0.397047
O O12 0.563335 0.778028 0.347484
O O13 0.201962 0.183527 0.531389
O O14 0.301189 0.189432 0.703108
O O15 0.620840 0.477076 0.550467
O O16 0.609035 0.687802 0.627885
#
# Coordination Sequence:
#
# PCOD9459335 Si02
#       8
#     8   8   8   8   8   8   8   8
#     4  10  19  40  66 102 132 178 235 291 356 425
#     4  10  21  38  71 100 135 187 234 291 359 431
#     4  11  23  43  70 103 143 192 240 297 363 438
#     4  11  24  41  71 104 136 185 241 305 354 441
#     4  11  23  45  67 104 142 196 236 302 369 436
#     4  11  23  42  72 102 135 190 238 303 364 434
#     4  10  22  43  69  97 142 176 244 294 361 424
#     4  12  25  44  71  99 146 192 250 290 375 437
#
# _framework density 24.828638999999999
#
# number of rings (size 3 to 8) (size 9 to 14) (size 15 to 20)
#    0.000    1.250    3.750    3.000    5.250    0.000 
#    2.250    1.250    0.000    0.000    0.000    0.000 
#    0.000    0.000    0.000    0.000    0.000    0.000 
#
# Total GULP energy -356748.450491 kJ/mol
# GULP energy per Si atom -5574.194539 kJ/mol
# Density = 2.477213 g / cm^3
# Si number density = 24.828639 Si / 1000 Ang^3
#
#
#
# Elastic Constant Matrix: (Units=GPa)
#
#
# Indices 1 2 3 4 5 6 
#
# 1 148.1692 12.2322 46.2351 0.0000 0.0000 0.0000
# 2 12.2322 30.3990 2.5219 0.0000 0.0000 0.0000
# 3 46.2351 2.5219 102.4229 0.0000 0.0000 0.0000
# 4 0.0000 0.0000 0.0000 -0.0974 0.0000 0.0000
# 5 0.0000 0.0000 0.0000 0.0000 61.4396 0.0000
# 6 0.0000 0.0000 0.0000 0.0000 0.0000 29.6996
#
#
#
# Elastic Compliance Matrix: (Units=1/GPa)
#
#
# Indices 1 2 3 4 5 6 
#
# 1 0.008114 -0.002967 -0.003590 0.000000 0.000000 0.000000
# 2 -0.002967 0.034048 0.000501 0.000000 0.000000 0.000000
# 3 -0.003590 0.000501 0.011372 0.000000 0.000000 0.000000
# 4 0.000000 0.000000 0.000000-10.271060 0.000000 0.000000
# 5 0.000000 0.000000 0.000000 0.000000 0.016276 0.000000
# 6 0.000000 0.000000 0.000000 0.000000 0.000000 0.033671
#
#
# Mechanical properties :
#
#
# Convention : Reuss Voigt Hill
#
# Bulk Modulus (GPa) = 24.14171 44.77439 34.45805
# Shear Modulus (GPa) = -0.49302 32.87517 16.19108
#
# Velocity S-wave (km/s) = -0.44609 3.64274 2.55642
# Velocity P-wave (km/s) = 3.07882 5.98041 4.75628
#
# Compressibility (1/GPa) = 0.04142208
#
# Stress axis : x y z
#
# Youngs Moduli (GPa) = 123.24128 29.37015 87.93856
#
# Poissons Ratio (x) = 0.08715 0.31568
# Poissons Ratio (y) = 0.36568 -0.04406
# Poissons Ratio (z) = 0.44241 -0.01472
#
# Static dielectric constant tensor:
#      x y z
#    x 2.011930 0.000000 0.000000 
#    y 0.000000 2.168110 0.000000 
#    z 0.000000 0.000000 1.974230 
# 
# From -- ./inp_files/6282.got.cif
#   From: 2010.05.17/outbox.cif.g08.bks.cpg/sg61_4_cif.got.tgz:6282.got - 2010.06.03 15:17:17.
