data_PCOD9459563
_publ_section_title
;
Structure prediction by ZEFSAII (Michael W. Deem and Ramdas Pophale) SiO2 
 PCOD9459563
Probable space group: P B C A
;
_chemical_formula_sum "Si O2"
_cell_formula_units_Z 24
_cell_length_a 4.959774
_cell_length_b 16.483619
_cell_length_c 13.848331
_cell_angle_alpha 90.000000
_cell_angle_beta 90.000000
_cell_angle_gamma 90.000000
_cell_volume 1132.170646
_symmetry_space_group_name_H-M "P B C A"
_symmetry_group_IT_number 61
_symmetry_cell_setting 'orthorhombic'
loop_
_space_group_symop_operation_xyz
x,y,z
1/2-x,-y,1/2+z
1/2+x,1/2-y,-z
-x,1/2+y,1/2-z
-x,-y,-z
1/2+x,y,1/2-z
1/2-x,1/2+y,z
x,1/2-y,1/2+z
loop_
_atom_site_type_symbol
_atom_site_label
_atom_site_fract_x
_atom_site_fract_y
_atom_site_fract_z
Si Si1 0.725345 0.608415 0.809082
Si Si2 0.056996 0.301943 0.489279
Si Si3 0.253305 0.966304 0.560523
O O1 0.531684 0.626368 0.718867
O O2 0.594499 0.656328 0.898414
O O3 0.730209 0.513216 0.838411
O O4 0.306721 0.244153 0.460397
O O5 0.202257 0.370211 0.555708
O O6 0.500000 0.000000 0.500000
O O7 0.000000 0.000000 0.500000
#
# Coordination Sequence:
#
# PCOD9459563 Si02
#       3
#     8   8   8
#     4  11  22  39  61  88 118 156 204 258 302 350
#     4  11  22  39  62  88 122 164 201 246 313 382
#     4  10  20  38  61  84 114 160 207 242 294 378
#
# _framework density 21.198219000000002
#
# number of rings (size 3 to 8) (size 9 to 14) (size 15 to 20)
#    0.000    1.333    0.000   10.000    0.000    0.000 
#    0.000   10.000    0.000    0.000    0.000    0.000 
#    0.000    0.000    0.000    0.000    0.000    0.000 
#
# Total GULP energy -133779.494480 kJ/mol
# GULP energy per Si atom -5574.145603 kJ/mol
# Density = 2.114997 g / cm^3
# Si number density = 21.198219 Si / 1000 Ang^3
#
#
#
# Elastic Constant Matrix: (Units=GPa)
#
#
# Indices 1 2 3 4 5 6 
#
# 1 162.9290 37.8125 13.6049 0.0000 0.0000 0.0000
# 2 37.8125 103.8073 26.4283 0.0000 0.0000 0.0000
# 3 13.6049 26.4283 51.3474 0.0000 0.0000 0.0000
# 4 0.0000 0.0000 0.0000 26.4617 0.0000 0.0000
# 5 0.0000 0.0000 0.0000 0.0000 40.2844 0.0000
# 6 0.0000 0.0000 0.0000 0.0000 0.0000 34.4581
#
#
#
# Elastic Compliance Matrix: (Units=1/GPa)
#
#
# Indices 1 2 3 4 5 6 
#
# 1 0.006720 -0.002295 -0.000599 0.000000 0.000000 0.000000
# 2 -0.002295 0.011870 -0.005501 0.000000 0.000000 0.000000
# 3 -0.000599 -0.005501 0.022465 0.000000 0.000000 0.000000
# 4 0.000000 0.000000 0.000000 0.037791 0.000000 0.000000
# 5 0.000000 0.000000 0.000000 0.000000 0.024824 0.000000
# 6 0.000000 0.000000 0.000000 0.000000 0.000000 0.029021
#
#
# Mechanical properties :
#
#
# Convention : Reuss Voigt Hill
#
# Bulk Modulus (GPa) = 41.21314 52.64168 46.92741
# Shear Modulus (GPa) = 31.73191 36.25670 33.99430
#
# Velocity S-wave (km/s) = 3.87319 4.14014 4.00889
# Velocity P-wave (km/s) = 6.28380 6.90951 6.60407
#
# Compressibility (1/GPa) = 0.02426410
#
# Stress axis : x y z
#
# Youngs Moduli (GPa) = 148.80088 84.24673 44.51286
#
# Poissons Ratio (x) = 0.19338 0.02667
# Poissons Ratio (y) = 0.34156 0.24487
# Poissons Ratio (z) = 0.08916 0.46346
#
# Static dielectric constant tensor:
#      x y z
#    x 1.727410 0.000000 0.000000 
#    y 0.000000 1.918460 0.000000 
#    z 0.000000 0.000000 1.781320 
# 
# From -- ./inp_files/281.got.cif
#   From: 2010.05.17/outbox.cif.g08.bks.cpg/sg61_1_cif.got.tgz:281.got - 2010.06.03 15:17:17.
