data_PCOD9459493
_publ_section_title
;
Structure prediction by ZEFSAII (Michael W. Deem and Ramdas Pophale) SiO2 
 PCOD9459493
Probable space group: P B C A
;
_chemical_formula_sum "Si O2"
_cell_formula_units_Z 64
_cell_length_a 14.629878
_cell_length_b 8.105944
_cell_length_c 22.184618
_cell_angle_alpha 90.000000
_cell_angle_beta 90.000000
_cell_angle_gamma 90.000000
_cell_volume 2630.851038
_symmetry_space_group_name_H-M "P B C A"
_symmetry_group_IT_number 61
_symmetry_cell_setting 'orthorhombic'
loop_
_space_group_symop_operation_xyz
x,y,z
1/2-x,-y,1/2+z
1/2+x,1/2-y,-z
-x,1/2+y,1/2-z
-x,-y,-z
1/2+x,y,1/2-z
1/2-x,1/2+y,z
x,1/2-y,1/2+z
loop_
_atom_site_type_symbol
_atom_site_label
_atom_site_fract_x
_atom_site_fract_y
_atom_site_fract_z
Si Si1 0.889868 0.131013 0.711356
Si Si2 0.497379 0.419510 0.839981
Si Si3 0.864195 0.178781 0.335181
Si Si4 0.124044 0.611684 0.454726
Si Si5 0.569365 0.276045 0.669374
Si Si6 0.635919 0.066139 0.429653
Si Si7 0.745711 0.169251 0.602867
Si Si8 0.202266 0.119441 0.603394
O O1 0.974706 0.246833 0.690852
O O2 0.861628 0.231266 0.770772
O O3 0.809130 0.148065 0.662106
O O4 0.915047 0.935154 0.713781
O O5 0.457682 0.391151 0.907321
O O6 0.446094 0.580795 0.811846
O O7 0.600762 0.457215 0.860455
O O8 0.782051 0.266050 0.370117
O O9 0.968786 0.193903 0.358884
O O10 0.843097 0.984762 0.342992
O O11 0.093307 0.548354 0.519231
O O12 0.195602 0.488609 0.422940
O O13 0.183181 0.775605 0.448757
O O14 0.657192 0.275511 0.625465
O O15 0.636549 0.263583 0.435246
O O16 0.740429 0.005188 0.436953
#
# Coordination Sequence:
#
# PCOD9459493 Si02
#       8
#     8   8   8   8   8   8   8   8
#     4  11  25  43  67  95 136 175 219 280 344 395
#     4  10  23  41  65  97 129 169 221 279 327 407
#     4  11  25  43  66  97 128 187 225 276 339 410
#     4  10  20  36  67  92 125 172 217 270 352 391
#     4  11  23  43  65  94 139 168 223 277 333 396
#     4  11  20  42  63  93 131 173 221 279 336 406
#     4  10  21  41  63  98 130 168 223 282 331 414
#     4  10  24  41  64  90 135 172 227 277 335 398
#
# _framework density 24.326730999999999
#
# number of rings (size 3 to 8) (size 9 to 14) (size 15 to 20)
#    0.000    1.500    2.500    1.875    3.500    0.000 
#    4.500    0.000    0.000    6.000    0.000    0.000 
#    0.000    0.000    0.000    0.000    0.000    0.000 
#
# Total GULP energy -356357.634380 kJ/mol
# GULP energy per Si atom -5568.088037 kJ/mol
# Density = 2.427136 g / cm^3
# Si number density = 24.326731 Si / 1000 Ang^3
#
#
#
# Elastic Constant Matrix: (Units=GPa)
#
#
# Indices 1 2 3 4 5 6 
#
# 1 90.8661 10.6411 1.5099 0.0000 0.0000 0.0000
# 2 10.6411 78.3009 3.8289 0.0000 0.0000 0.0000
# 3 1.5099 3.8289 63.5608 0.0000 0.0000 0.0000
# 4 0.0000 0.0000 0.0000 33.8391 0.0000 0.0000
# 5 0.0000 0.0000 0.0000 0.0000 34.5322 0.0000
# 6 0.0000 0.0000 0.0000 0.0000 0.0000 38.8160
#
#
#
# Elastic Compliance Matrix: (Units=1/GPa)
#
#
# Indices 1 2 3 4 5 6 
#
# 1 0.011185 -0.001512 -0.000175 0.000000 0.000000 0.000000
# 2 -0.001512 0.013013 -0.000748 0.000000 0.000000 0.000000
# 3 -0.000175 -0.000748 0.015782 0.000000 0.000000 0.000000
# 4 0.000000 0.000000 0.000000 0.029552 0.000000 0.000000
# 5 0.000000 0.000000 0.000000 0.000000 0.028958 0.000000
# 6 0.000000 0.000000 0.000000 0.000000 0.000000 0.025763
#
#
# Mechanical properties :
#
#
# Convention : Reuss Voigt Hill
#
# Bulk Modulus (GPa) = 28.48017 29.40975 28.94496
# Shear Modulus (GPa) = 35.50491 35.88732 35.69612
#
# Velocity S-wave (km/s) = 3.82449 3.84503 3.83477
# Velocity P-wave (km/s) = 5.58883 5.64164 5.61530
#
# Compressibility (1/GPa) = 0.03511215
#
# Stress axis : x y z
#
# Youngs Moduli (GPa) = 89.40453 76.84484 63.36259
#
# Poissons Ratio (x) = 0.11615 0.01107
# Poissons Ratio (y) = 0.13514 0.04740
# Poissons Ratio (z) = 0.01561 0.05748
#
# Static dielectric constant tensor:
#      x y z
#    x 2.167570 0.000000 0.000000 
#    y 0.000000 2.114060 0.000000 
#    z 0.000000 0.000000 1.988470 
# 
# From -- ./inp_files/11077.got.cif
#   From: 2010.05.17/outbox.cif.g08.bks.cpg/sg61_6_cif.got.tgz:11077.got - 2010.06.03 15:17:17.
