data_PCOD9459900
_publ_section_title
;
Structure prediction by ZEFSAII (Michael W. Deem and Ramdas Pophale) SiO2 
 PCOD9459900
Probable space group: P B C A
;
_chemical_formula_sum "Si O2"
_cell_formula_units_Z 32
_cell_length_a 5.076072
_cell_length_b 17.492432
_cell_length_c 17.107220
_cell_angle_alpha 90.000000
_cell_angle_beta 90.000000
_cell_angle_gamma 90.000000
_cell_volume 1518.998722
_symmetry_space_group_name_H-M "P B C A"
_symmetry_group_IT_number 61
_symmetry_cell_setting 'orthorhombic'
loop_
_space_group_symop_operation_xyz
x,y,z
1/2-x,-y,1/2+z
1/2+x,1/2-y,-z
-x,1/2+y,1/2-z
-x,-y,-z
1/2+x,y,1/2-z
1/2-x,1/2+y,z
x,1/2-y,1/2+z
loop_
_atom_site_type_symbol
_atom_site_label
_atom_site_fract_x
_atom_site_fract_y
_atom_site_fract_z
Si Si1 0.389348 0.416756 0.704349
Si Si2 0.595340 0.291568 0.029715
Si Si3 0.750011 0.455734 0.967986
Si Si4 0.893132 0.268293 0.298003
O O1 0.685943 0.437869 0.726968
O O2 0.282223 0.451900 0.624987
O O3 0.387955 0.324356 0.695918
O O4 0.488473 0.297298 0.118024
O O5 0.337831 0.268301 0.978623
O O6 0.720054 0.369620 0.998813
O O7 0.500000 0.500000 0.000000
O O8 0.000000 0.500000 0.000000
O O9 0.105051 0.291070 0.231841
#
# Coordination Sequence:
#
# PCOD9459900 Si02
#       4
#     8   8   8   8
#     4  10  21  40  66  94 126 171 223 268 322 401
#     4  12  24  42  69  97 130 172 225 274 334 391
#     4  12  26  44  65 100 138 176 219 275 339 403
#     4  10  21  38  64  98 128 163 221 281 324 380
#
# _framework density 21.066509
#
# number of rings (size 3 to 8) (size 9 to 14) (size 15 to 20)
#    0.000    1.000    2.500    4.500    7.000    0.000 
#    0.000    7.500    0.000    0.000    0.000    0.000 
#    0.000    0.000    0.000    0.000    0.000    0.000 
#
# Total GULP energy -178975.218218 kJ/mol
# GULP energy per Si atom -5592.975569 kJ/mol
# Density = 2.101856 g / cm^3
# Si number density = 21.066509 Si / 1000 Ang^3
#
#
#
# Elastic Constant Matrix: (Units=GPa)
#
#
# Indices 1 2 3 4 5 6 
#
# 1 128.3635 24.8723 21.9299 0.0000 0.0000 0.0000
# 2 24.8723 38.4949 25.3008 0.0000 0.0000 0.0000
# 3 21.9299 25.3008 114.4082 0.0000 0.0000 0.0000
# 4 0.0000 0.0000 0.0000 27.0552 0.0000 0.0000
# 5 0.0000 0.0000 0.0000 0.0000 34.1812 0.0000
# 6 0.0000 0.0000 0.0000 0.0000 0.0000 37.0699
#
#
#
# Elastic Compliance Matrix: (Units=1/GPa)
#
#
# Indices 1 2 3 4 5 6 
#
# 1 0.008931 -0.005435 -0.000510 0.000000 0.000000 0.000000
# 2 -0.005435 0.033703 -0.006411 0.000000 0.000000 0.000000
# 3 -0.000510 -0.006411 0.010256 0.000000 0.000000 0.000000
# 4 0.000000 0.000000 0.000000 0.036961 0.000000 0.000000
# 5 0.000000 0.000000 0.000000 0.000000 0.029256 0.000000
# 6 0.000000 0.000000 0.000000 0.000000 0.000000 0.026976
#
#
# Mechanical properties :
#
#
# Convention : Reuss Voigt Hill
#
# Bulk Modulus (GPa) = 35.48988 47.27473 41.38230
# Shear Modulus (GPa) = 27.74868 33.60550 30.67709
#
# Velocity S-wave (km/s) = 3.63325 3.99834 3.82016
# Velocity P-wave (km/s) = 5.87230 6.61854 6.25655
#
# Compressibility (1/GPa) = 0.02817705
#
# Stress axis : x y z
#
# Youngs Moduli (GPa) = 111.97433 29.67079 97.50168
#
# Poissons Ratio (x) = 0.16126 0.04971
# Poissons Ratio (y) = 0.60859 0.62513
# Poissons Ratio (z) = 0.05709 0.19023
#
# Static dielectric constant tensor:
#      x y z
#    x 1.718690 0.000000 0.000000 
#    y 0.000000 1.719920 0.000000 
#    z 0.000000 0.000000 1.740160 
# 
# From -- ./inp_files/335.got.cif
#   From: 2010.05.17/outbox.cif.g08.bks.cpg/sg61_1_cif.got.tgz:335.got - 2010.06.03 15:17:17.
