data_PCOD9459254
_publ_section_title
;
Structure prediction by ZEFSAII (Michael W. Deem and Ramdas Pophale) SiO2 
 PCOD9459254
Probable space group: P B C A
;
_chemical_formula_sum "Si O2"
_cell_formula_units_Z 64
_cell_length_a 7.194129
_cell_length_b 11.096307
_cell_length_c 32.518371
_cell_angle_alpha 90.000000
_cell_angle_beta 90.000000
_cell_angle_gamma 90.000000
_cell_volume 2595.885104
_symmetry_space_group_name_H-M "P B C A"
_symmetry_group_IT_number 61
_symmetry_cell_setting 'orthorhombic'
loop_
_space_group_symop_operation_xyz
x,y,z
1/2-x,-y,1/2+z
1/2+x,1/2-y,-z
-x,1/2+y,1/2-z
-x,-y,-z
1/2+x,y,1/2-z
1/2-x,1/2+y,z
x,1/2-y,1/2+z
loop_
_atom_site_type_symbol
_atom_site_label
_atom_site_fract_x
_atom_site_fract_y
_atom_site_fract_z
Si Si1 0.970403 0.467381 0.952339
Si Si2 0.389008 0.784038 0.071530
Si Si3 0.878847 0.615854 0.493895
Si Si4 0.998946 0.493373 0.193928
Si Si5 0.503277 0.260272 0.166547
Si Si6 0.447649 0.765450 0.660355
Si Si7 0.436385 0.498163 0.209737
Si Si8 0.440123 0.720471 0.924711
O O1 0.963726 0.580852 0.923405
O O2 0.762782 0.416418 0.957620
O O3 0.093766 0.360400 0.935500
O O4 0.000000 0.500000 0.000000
O O5 0.462784 0.733819 0.027699
O O6 0.461915 0.713053 0.111259
O O7 0.163683 0.801771 0.068952
O O8 0.000000 0.500000 0.500000
O O9 0.830627 0.648034 0.540642
O O10 0.937441 0.621642 0.174439
O O11 0.959812 0.361151 0.174551
O O12 0.223754 0.494929 0.194621
O O13 0.936120 0.502734 0.241205
O O14 0.277180 0.250366 0.164676
O O15 0.534751 0.372196 0.197307
O O16 0.586717 0.300688 0.122910
O O17 0.509787 0.879163 0.688089
#
# Coordination Sequence:
#
# PCOD9459254 Si02
#       8
#     8   8   8   8   8   8   8   8
#     4  11  21  36  56  77 111 150 189 226 280 336
#     4  10  20  35  57  82 110 146 192 236 273 326
#     4  11  22  34  57  83 109 146 188 237 278 321
#     4  10  19  36  57  82 109 143 179 224 279 336
#     4   9  19  33  57  83 108 142 185 229 272 322
#     4   9  19  33  56  85 107 140 189 229 267 323
#     4  10  20  34  59  82 109 141 180 226 275 339
#     4  10  20  35  57  82 109 144 193 237 272 323
#
# _framework density 24.654406000000002
#
# number of rings (size 3 to 8) (size 9 to 14) (size 15 to 20)
#    0.000    2.000    2.500    1.500    1.750    3.000 
#    0.000    0.000    8.250    0.000    0.000    0.000 
#    0.000    0.000    0.000    0.000    0.000    0.000 
#
# Total GULP energy -357158.823920 kJ/mol
# GULP energy per Si atom -5580.606624 kJ/mol
# Density = 2.459829 g / cm^3
# Si number density = 24.654406 Si / 1000 Ang^3
#
#
#
# Elastic Constant Matrix: (Units=GPa)
#
#
# Indices 1 2 3 4 5 6 
#
# 1 73.6819 0.6425 -8.5291 0.0000 0.0000 0.0000
# 2 0.6425 107.6221 31.8664 0.0000 0.0000 0.0000
# 3 -8.5291 31.8664 123.9019 0.0000 0.0000 0.0000
# 4 0.0000 0.0000 0.0000 47.0644 0.0000 0.0000
# 5 0.0000 0.0000 0.0000 0.0000 17.8215 0.0000
# 6 0.0000 0.0000 0.0000 0.0000 0.0000 -8.2715
#
#
#
# Elastic Compliance Matrix: (Units=1/GPa)
#
#
# Indices 1 2 3 4 5 6 
#
# 1 0.013696 -0.000391 0.001043 0.000000 0.000000 0.000000
# 2 -0.000391 0.010069 -0.002617 0.000000 0.000000 0.000000
# 3 0.001043 -0.002617 0.008816 0.000000 0.000000 0.000000
# 4 0.000000 0.000000 0.000000 0.021247 0.000000 0.000000
# 5 0.000000 0.000000 0.000000 0.000000 0.056112 0.000000
# 6 0.000000 0.000000 0.000000 0.000000 0.000000 -0.120897
#
#
# Mechanical properties :
#
#
# Convention : Reuss Voigt Hill
#
# Bulk Modulus (GPa) = 34.90070 39.24062 37.07066
# Shear Modulus (GPa) = 1982.76733 30.07127 1006.41930
#
# Velocity S-wave (km/s) = 28.38961 3.49623 20.22614
# Velocity P-wave (km/s) = 32.99718 5.67882 23.67554
#
# Compressibility (1/GPa) = 0.02865272
#
# Stress axis : x y z
#
# Youngs Moduli (GPa) = 73.01384 99.31630 113.43451
#
# Poissons Ratio (x) = 0.03880 -0.11834
# Poissons Ratio (y) = 0.02852 0.29680
# Poissons Ratio (z) = -0.07617 0.25986
#
# Static dielectric constant tensor:
#      x y z
#    x 1.831410 0.000000 0.000000 
#    y 0.000000 1.603930 0.000000 
#    z 0.000000 0.000000 1.897810 
# 
# From -- ./inp_files/11735.got.cif
#   From: 2010.05.17/outbox.cif.g08.bks.cpg/sg61_6_cif.got.tgz:11735.got - 2010.06.03 15:17:17.
