data_PCOD9459943
_publ_section_title
;
Structure prediction by ZEFSAII (Michael W. Deem and Ramdas Pophale) SiO2 
 PCOD9459943
Probable space group: P B C A
;
_chemical_formula_sum "Si O2"
_cell_formula_units_Z 56
_cell_length_a 14.273986
_cell_length_b 7.627435
_cell_length_c 20.181341
_cell_angle_alpha 90.000000
_cell_angle_beta 90.000000
_cell_angle_gamma 90.000000
_cell_volume 2197.221310
_symmetry_space_group_name_H-M "P B C A"
_symmetry_group_IT_number 61
_symmetry_cell_setting 'orthorhombic'
loop_
_space_group_symop_operation_xyz
x,y,z
1/2-x,-y,1/2+z
1/2+x,1/2-y,-z
-x,1/2+y,1/2-z
-x,-y,-z
1/2+x,y,1/2-z
1/2-x,1/2+y,z
x,1/2-y,1/2+z
loop_
_atom_site_type_symbol
_atom_site_label
_atom_site_fract_x
_atom_site_fract_y
_atom_site_fract_z
Si Si1 0.596553 0.542764 0.089932
Si Si2 0.754894 0.002640 0.337371
Si Si3 0.103752 0.513771 0.264350
Si Si4 0.110958 0.940962 0.417196
Si Si5 0.388706 0.059368 0.770830
Si Si6 0.604012 0.529148 0.947717
Si Si7 0.405351 0.075799 0.059299
O O1 0.618232 0.455708 0.159687
O O2 0.638409 0.736977 0.088046
O O3 0.483316 0.564280 0.086916
O O4 0.624329 0.453800 0.020642
O O5 0.672331 0.034367 0.285017
O O6 0.692906 0.956992 0.401386
O O7 0.826140 0.914193 0.284932
O O8 0.836751 0.099107 0.378722
O O9 0.122207 0.726760 0.263194
O O10 0.997616 0.480382 0.242464
O O11 0.138879 0.007236 0.344436
O O12 0.139521 0.001448 0.491371
O O13 0.998103 0.970896 0.420874
O O14 0.566022 0.726410 0.958671
#
# Coordination Sequence:
#
# PCOD9459943 Si02
#       7
#     8   8   8   8   8   8   8
#     4   9  20  40  65  91 125 167 213 267 326 384
#     4  12  24  36  62  98 132 172 218 270 322 394
#     4  11  24  42  65  96 133 175 219 272 331 392
#     4   9  20  40  65  91 125 167 213 267 326 384
#     4  11  24  42  65  96 133 175 219 272 331 392
#     4  10  21  39  63  93 126 166 216 266 322 387
#     4  10  21  39  63  93 126 166 216 266 322 387
#
# _framework density 25.486737000000002
#
# number of rings (size 3 to 8) (size 9 to 14) (size 15 to 20)
#    0.000    1.714    2.857    0.857    0.000    5.714 
#    0.000    0.000    0.000    0.000    0.000    0.000 
#    0.000    0.000    0.000    0.000    0.000    0.000 
#
# Total GULP energy -311806.578093 kJ/mol
# GULP energy per Si atom -5567.974609 kJ/mol
# Density = 2.542873 g / cm^3
# Si number density = 25.486737 Si / 1000 Ang^3
#
#
#
# Elastic Constant Matrix: (Units=GPa)
#
#
# Indices 1 2 3 4 5 6 
#
# 1 106.6022 -5.0170 35.5311 0.0000 0.0000 0.0000
# 2 -5.0170 61.9751 -4.3975 0.0000 0.0000 0.0000
# 3 35.5311 -4.3975 225.9087 0.0000 0.0000 0.0000
# 4 0.0000 0.0000 0.0000 2.9231 0.0000 0.0000
# 5 0.0000 0.0000 0.0000 0.0000 68.8021 0.0000
# 6 0.0000 0.0000 0.0000 0.0000 0.0000 -28.2084
#
#
#
# Elastic Compliance Matrix: (Units=1/GPa)
#
#
# Indices 1 2 3 4 5 6 
#
# 1 0.009929 0.000694 -0.001548 0.000000 0.000000 0.000000
# 2 0.000694 0.016206 0.000206 0.000000 0.000000 0.000000
# 3 -0.001548 0.000206 0.004674 0.000000 0.000000 0.000000
# 4 0.000000 0.000000 0.000000 0.342101 0.000000 0.000000
# 5 0.000000 0.000000 0.000000 0.000000 0.014534 0.000000
# 6 0.000000 0.000000 0.000000 0.000000 0.000000 -0.035450
#
#
# Mechanical properties :
#
#
# Convention : Reuss Voigt Hill
#
# Bulk Modulus (GPa) = 33.88233 49.63549 41.75891
# Shear Modulus (GPa) = 13.76921 33.26132 23.51527
#
# Velocity S-wave (km/s) = 2.32685 3.61646 3.04081
# Velocity P-wave (km/s) = 4.53232 6.07912 5.36179
#
# Compressibility (1/GPa) = 0.02951391
#
# Stress axis : x y z
#
# Youngs Moduli (GPa) = 100.71154 61.70428 213.94569
#
# Poissons Ratio (x) = -0.04282 0.33123
# Poissons Ratio (y) = -0.06989 -0.04414
# Poissons Ratio (z) = 0.15592 -0.01273
#
# Static dielectric constant tensor:
#      x y z
#    x 1.950090 0.000000 0.000000 
#    y 0.000000 2.112710 0.000000 
#    z 0.000000 0.000000 2.056170 
# 
# From -- ./inp_files/10467.got.cif
#   From: 2010.05.17/outbox.cif.g08.bks.cpg/sg61_6_cif.got.tgz:10467.got - 2010.06.03 15:17:17.
