data_PCOD9459402
_publ_section_title
;
Structure prediction by ZEFSAII (Michael W. Deem and Ramdas Pophale) SiO2 
 PCOD9459402
Probable space group: P B C A
;
_chemical_formula_sum "Si O2"
_cell_formula_units_Z 56
_cell_length_a 24.898802
_cell_length_b 5.251172
_cell_length_c 19.108190
_cell_angle_alpha 90.000000
_cell_angle_beta 90.000000
_cell_angle_gamma 90.000000
_cell_volume 2498.355560
_symmetry_space_group_name_H-M "P B C A"
_symmetry_group_IT_number 61
_symmetry_cell_setting 'orthorhombic'
loop_
_space_group_symop_operation_xyz
x,y,z
1/2-x,-y,1/2+z
1/2+x,1/2-y,-z
-x,1/2+y,1/2-z
-x,-y,-z
1/2+x,y,1/2-z
1/2-x,1/2+y,z
x,1/2-y,1/2+z
loop_
_atom_site_type_symbol
_atom_site_label
_atom_site_fract_x
_atom_site_fract_y
_atom_site_fract_z
Si Si1 0.628180 0.216406 0.946977
Si Si2 0.230693 0.281805 0.496789
Si Si3 0.515848 0.371037 0.207621
Si Si4 0.078068 0.725964 0.613298
Si Si5 0.627697 0.597153 0.237730
Si Si6 0.280560 0.168703 0.845030
Si Si7 0.285994 0.868598 0.175315
O O1 0.666928 0.239745 0.015055
O O2 0.598989 0.475729 0.925944
O O3 0.590391 0.972962 0.934420
O O4 0.676196 0.172739 0.891669
O O5 0.237574 0.553837 0.533351
O O6 0.268363 0.329298 0.428199
O O7 0.513074 0.112565 0.253941
O O8 0.483526 0.309945 0.136969
O O9 0.576470 0.468203 0.202009
O O10 0.107719 0.768702 0.689382
O O11 0.660653 0.776278 0.184775
O O12 0.668922 0.383190 0.264188
O O13 0.243781 0.404154 0.821116
O O14 0.256767 0.142069 0.177242
#
# Coordination Sequence:
#
# PCOD9459402 Si02
#       7
#     8   8   8   8   8   8   8
#     4  11  20  34  53  77 108 143 181 228 276 320
#     4  10  20  36  55  78 106 142 186 228 271 326
#     4  10  20  35  53  77 112 149 187 223 269 329
#     4  10  21  34  53  82 109 144 184 225 278 326
#     4  10  21  35  54  78 114 150 178 224 272 326
#     4  10  22  37  54  80 110 146 187 224 270 334
#     4  11  20  29  44  72 107 138 168 206 260 325
#
# _framework density 22.414743999999999
#
# number of rings (size 3 to 8) (size 9 to 14) (size 15 to 20)
#    0.000    1.714    0.000    6.857    0.000    5.714 
#    0.000    0.000    0.000    0.000    0.000   24.000 
#    0.000    0.000    0.000    0.000    0.000    0.000 
#
# Total GULP energy -312315.170492 kJ/mol
# GULP energy per Si atom -5577.056616 kJ/mol
# Density = 2.236373 g / cm^3
# Si number density = 22.414744 Si / 1000 Ang^3
#
#
#
# Elastic Constant Matrix: (Units=GPa)
#
#
# Indices 1 2 3 4 5 6 
#
# 1 71.9269 14.7994 0.8435 0.0000 0.0000 0.0000
# 2 14.7994 153.2732 -10.7450 0.0000 0.0000 0.0000
# 3 0.8435 -10.7450 33.5486 0.0000 0.0000 0.0000
# 4 0.0000 0.0000 0.0000 14.0767 0.0000 0.0000
# 5 0.0000 0.0000 0.0000 0.0000 18.9711 0.0000
# 6 0.0000 0.0000 0.0000 0.0000 0.0000 26.4158
#
#
#
# Elastic Compliance Matrix: (Units=1/GPa)
#
#
# Indices 1 2 3 4 5 6 
#
# 1 0.014207 -0.001429 -0.000815 0.000000 0.000000 0.000000
# 2 -0.001429 0.006818 0.002220 0.000000 0.000000 0.000000
# 3 -0.000815 0.002220 0.030539 0.000000 0.000000 0.000000
# 4 0.000000 0.000000 0.000000 0.071040 0.000000 0.000000
# 5 0.000000 0.000000 0.000000 0.000000 0.052712 0.000000
# 6 0.000000 0.000000 0.000000 0.000000 0.000000 0.037856
#
#
# Mechanical properties :
#
#
# Convention : Reuss Voigt Hill
#
# Bulk Modulus (GPa) = 19.41182 29.83829 24.62506
# Shear Modulus (GPa) = 21.70227 28.81609 25.25918
#
# Velocity S-wave (km/s) = 3.11499 3.58940 3.36058
# Velocity P-wave (km/s) = 4.64937 5.52442 5.10567
#
# Compressibility (1/GPa) = 0.05151501
#
# Stress axis : x y z
#
# Youngs Moduli (GPa) = 70.39000 146.67357 32.74519
#
# Poissons Ratio (x) = 0.20957 0.02668
# Poissons Ratio (y) = 0.10058 -0.07268
# Poissons Ratio (z) = 0.05736 -0.32555
#
# Static dielectric constant tensor:
#      x y z
#    x 1.873390 0.000000 0.000000 
#    y 0.000000 1.952200 0.000000 
#    z 0.000000 0.000000 2.081230 
# 
# From -- ./inp_files/10660.got.cif
#   From: 2010.05.17/outbox.cif.g08.bks.cpg/sg61_6_cif.got.tgz:10660.got - 2010.06.03 15:17:17.
