data_PCOD9459510
_publ_section_title
;
Structure prediction by ZEFSAII (Michael W. Deem and Ramdas Pophale) SiO2 
 PCOD9459510
Probable space group: P B C A
;
_chemical_formula_sum "Si O2"
_cell_formula_units_Z 48
_cell_length_a 9.060648
_cell_length_b 9.296036
_cell_length_c 29.045490
_cell_angle_alpha 90.000000
_cell_angle_beta 90.000000
_cell_angle_gamma 90.000000
_cell_volume 2446.446726
_symmetry_space_group_name_H-M "P B C A"
_symmetry_group_IT_number 61
_symmetry_cell_setting 'orthorhombic'
loop_
_space_group_symop_operation_xyz
x,y,z
1/2-x,-y,1/2+z
1/2+x,1/2-y,-z
-x,1/2+y,1/2-z
-x,-y,-z
1/2+x,y,1/2-z
1/2-x,1/2+y,z
x,1/2-y,1/2+z
loop_
_atom_site_type_symbol
_atom_site_label
_atom_site_fract_x
_atom_site_fract_y
_atom_site_fract_z
Si Si1 0.901081 0.512745 0.292855
Si Si2 0.547180 0.430382 0.367988
Si Si3 0.579440 0.891003 0.034977
Si Si4 0.881881 0.613794 0.483502
Si Si5 0.204626 0.131261 0.117431
Si Si6 0.900649 0.655179 0.771785
O O1 0.903502 0.550281 0.346995
O O2 0.756689 0.417026 0.282648
O O3 0.891808 0.672017 0.269876
O O4 0.034428 0.421114 0.272852
O O5 0.436461 0.431590 0.411105
O O6 0.633339 0.582047 0.366598
O O7 0.664007 0.299637 0.379192
O O8 0.498260 0.389201 0.316349
O O9 0.480611 0.751542 0.026812
O O10 0.747679 0.868238 0.019066
O O11 0.500000 0.000000 0.000000
O O12 0.810974 0.575989 0.434289
O O13 0.000000 0.500000 0.500000
#
# Coordination Sequence:
#
# PCOD9459510 Si02
#       6
#     8   8   8   8   8   8
#     4  10  20  37  60  85 116 156 198 243 300 355
#     4   9  19  35  58  84 117 153 194 241 290 354
#     4  11  21  37  60  85 119 156 195 245 293 349
#     4  11  23  38  58  86 117 154 202 246 293 357
#     4   9  19  35  58  83 115 151 194 237 292 356
#     4  10  20  37  60  86 118 156 198 246 298 357
#
# _framework density 19.620293
#
# number of rings (size 3 to 8) (size 9 to 14) (size 15 to 20)
#    0.000    2.000    1.667    2.000    2.333    1.333 
#    3.000    0.000    0.000    0.000    0.000    0.000 
#    0.000    0.000    0.000    0.000    0.000    0.000 
#
# Total GULP energy -267519.882445 kJ/mol
# GULP energy per Si atom -5573.330884 kJ/mol
# Density = 1.957564 g / cm^3
# Si number density = 19.620293 Si / 1000 Ang^3
#
#
#
# Elastic Constant Matrix: (Units=GPa)
#
#
# Indices 1 2 3 4 5 6 
#
# 1 53.3816 -7.9523 3.7859 0.0000 0.0000 0.0000
# 2 -7.9523 54.9606 1.9042 0.0000 0.0000 0.0000
# 3 3.7859 1.9042 54.9177 0.0000 0.0000 0.0000
# 4 0.0000 0.0000 0.0000 23.0066 0.0000 0.0000
# 5 0.0000 0.0000 0.0000 0.0000 32.1607 0.0000
# 6 0.0000 0.0000 0.0000 0.0000 0.0000 26.9329
#
#
#
# Elastic Compliance Matrix: (Units=1/GPa)
#
#
# Indices 1 2 3 4 5 6 
#
# 1 0.019257 0.002836 -0.001426 0.000000 0.000000 0.000000
# 2 0.002836 0.018634 -0.000842 0.000000 0.000000 0.000000
# 3 -0.001426 -0.000842 0.018337 0.000000 0.000000 0.000000
# 4 0.000000 0.000000 0.000000 0.043466 0.000000 0.000000
# 5 0.000000 0.000000 0.000000 0.000000 0.031094 0.000000
# 6 0.000000 0.000000 0.000000 0.000000 0.000000 0.037129
#
#
# Mechanical properties :
#
#
# Convention : Reuss Voigt Hill
#
# Bulk Modulus (GPa) = 17.43256 17.63727 17.53492
# Shear Modulus (GPa) = 26.89601 27.45485 27.17543
#
# Velocity S-wave (km/s) = 3.70648 3.74479 3.72569
# Velocity P-wave (km/s) = 5.21743 5.26372 5.24063
#
# Compressibility (1/GPa) = 0.05736391
#
# Stress axis : x y z
#
# Youngs Moduli (GPa) = 51.93026 53.66450 54.53588
#
# Poissons Ratio (x) = -0.15217 0.07776
# Poissons Ratio (y) = -0.14726 0.04590
# Poissons Ratio (z) = 0.07404 0.04516
#
# Static dielectric constant tensor:
#      x y z
#    x 1.664660 0.000000 0.000000 
#    y 0.000000 1.623880 0.000000 
#    z 0.000000 0.000000 1.766740 
# 
# From -- ./inp_files/1856.got.cif
#   From: 2010.05.17/outbox.cif.g08.bks.cpg/sg61_1_cif.got.tgz:1856.got - 2010.06.03 15:17:17.
