data_PCOD9459819
_publ_section_title
;
Structure prediction by ZEFSAII (Michael W. Deem and Ramdas Pophale) SiO2 
 PCOD9459819
Probable space group: P B C A
;
_chemical_formula_sum "Si O2"
_cell_formula_units_Z 64
_cell_length_a 20.142696
_cell_length_b 8.911886
_cell_length_c 18.351396
_cell_angle_alpha 90.000000
_cell_angle_beta 90.000000
_cell_angle_gamma 90.000000
_cell_volume 3294.248278
_symmetry_space_group_name_H-M "P B C A"
_symmetry_group_IT_number 61
_symmetry_cell_setting 'orthorhombic'
loop_
_space_group_symop_operation_xyz
x,y,z
1/2-x,-y,1/2+z
1/2+x,1/2-y,-z
-x,1/2+y,1/2-z
-x,-y,-z
1/2+x,y,1/2-z
1/2-x,1/2+y,z
x,1/2-y,1/2+z
loop_
_atom_site_type_symbol
_atom_site_label
_atom_site_fract_x
_atom_site_fract_y
_atom_site_fract_z
Si Si1 0.436623 0.597196 0.028269
Si Si2 0.951120 0.408841 0.189995
Si Si3 0.238599 0.057655 0.328683
Si Si4 0.535191 0.855268 0.030793
Si Si5 0.172423 0.789847 0.241593
Si Si6 0.960852 0.757864 0.207600
Si Si7 0.908737 0.189753 0.893847
Si Si8 0.341732 0.672312 0.892461
O O1 0.475364 0.744111 0.052858
O O2 0.405593 0.487157 0.087853
O O3 0.500000 0.500000 0.000000
O O4 0.383060 0.641754 0.966510
O O5 0.932575 0.405558 0.105707
O O6 0.900533 0.290185 0.224063
O O7 0.948426 0.580355 0.217125
O O8 0.020722 0.343515 0.218417
O O9 0.281837 0.164949 0.276803
O O10 0.193594 0.166020 0.379495
O O11 0.199926 0.947627 0.273145
O O12 0.286578 0.954247 0.377759
O O13 0.582201 0.779297 0.970027
O O14 0.500000 0.000000 0.000000
O O15 0.154814 0.773780 0.156286
O O16 0.897120 0.832168 0.170734
O O17 0.022270 0.778010 0.150018
#
# Coordination Sequence:
#
# PCOD9459819 Si02
#       8
#     8   8   8   8   8   8   8   8
#     4  10  21  36  63  90 127 161 194 264 328 376
#     4  11  24  35  64  98 128 162 204 270 326 384
#     4  10  24  40  65  85 119 177 208 270 292 377
#     4  11  21  36  57  94 131 159 191 250 343 374
#     4  10  23  42  63  86 122 160 228 248 317 368
#     4  11  22  38  62  96 130 158 210 266 319 379
#     4  10  22  39  60  93 125 160 199 263 328 379
#     4  11  21  42  61  92 126 160 221 251 320 377
#
# _framework density 19.427802
#
# number of rings (size 3 to 8) (size 9 to 14) (size 15 to 20)
#    0.000    1.500    5.000    0.000   10.500    0.000 
#    0.000    2.500    0.000    0.000    0.000    0.000 
#    0.000    0.000    0.000    0.000    0.000    0.000 
#
# Total GULP energy -356523.264794 kJ/mol
# GULP energy per Si atom -5570.676012 kJ/mol
# Density = 1.938358 g / cm^3
# Si number density = 19.427802 Si / 1000 Ang^3
#
#
#
# Elastic Constant Matrix: (Units=GPa)
#
#
# Indices 1 2 3 4 5 6 
#
# 1 54.3252 0.1044 -9.2025 0.0000 0.0000 0.0000
# 2 0.1044 68.6585 -8.8470 0.0000 0.0000 0.0000
# 3 -9.2025 -8.8470 35.3381 0.0000 0.0000 0.0000
# 4 0.0000 0.0000 0.0000 18.0879 0.0000 0.0000
# 5 0.0000 0.0000 0.0000 0.0000 32.3851 0.0000
# 6 0.0000 0.0000 0.0000 0.0000 0.0000 16.2717
#
#
#
# Elastic Compliance Matrix: (Units=1/GPa)
#
#
# Indices 1 2 3 4 5 6 
#
# 1 0.019284 0.000638 0.005182 0.000000 0.000000 0.000000
# 2 0.000638 0.015071 0.003939 0.000000 0.000000 0.000000
# 3 0.005182 0.003939 0.030634 0.000000 0.000000 0.000000
# 4 0.000000 0.000000 0.000000 0.055286 0.000000 0.000000
# 5 0.000000 0.000000 0.000000 0.000000 0.030878 0.000000
# 6 0.000000 0.000000 0.000000 0.000000 0.000000 0.061457
#
#
# Mechanical properties :
#
#
# Convention : Reuss Voigt Hill
#
# Bulk Modulus (GPa) = 11.83317 13.60352 12.71835
# Shear Modulus (GPa) = 22.59781 25.10007 23.84894
#
# Velocity S-wave (km/s) = 3.41423 3.59829 3.50747
# Velocity P-wave (km/s) = 4.65260 4.92757 4.79205
#
# Compressibility (1/GPa) = 0.08450819
#
# Stress axis : x y z
#
# Youngs Moduli (GPa) = 51.85599 66.35049 32.64383
#
# Poissons Ratio (x) = -0.04236 -0.16915
# Poissons Ratio (y) = -0.03310 -0.12860
# Poissons Ratio (z) = -0.26870 -0.26138
#
# Static dielectric constant tensor:
#      x y z
#    x 1.707570 0.000000 0.000000 
#    y 0.000000 1.715310 0.000000 
#    z 0.000000 0.000000 1.789010 
# 
# From -- ./inp_files/9798.got.cif
#   From: 2010.05.17/outbox.cif.g08.bks.cpg/sg61_5_cif.got.tgz:9798.got - 2010.06.03 15:17:17.
