data_PCOD9459615
_publ_section_title
;
Structure prediction by ZEFSAII (Michael W. Deem and Ramdas Pophale) SiO2 
 PCOD9459615
Probable space group: P B C A
;
_chemical_formula_sum "Si O2"
_cell_formula_units_Z 64
_cell_length_a 15.346298
_cell_length_b 19.973740
_cell_length_c 8.788133
_cell_angle_alpha 90.000000
_cell_angle_beta 90.000000
_cell_angle_gamma 90.000000
_cell_volume 2693.764595
_symmetry_space_group_name_H-M "P B C A"
_symmetry_group_IT_number 61
_symmetry_cell_setting 'orthorhombic'
loop_
_space_group_symop_operation_xyz
x,y,z
1/2-x,-y,1/2+z
1/2+x,1/2-y,-z
-x,1/2+y,1/2-z
-x,-y,-z
1/2+x,y,1/2-z
1/2-x,1/2+y,z
x,1/2-y,1/2+z
loop_
_atom_site_type_symbol
_atom_site_label
_atom_site_fract_x
_atom_site_fract_y
_atom_site_fract_z
Si Si1 0.003033 0.415895 0.372132
Si Si2 0.547978 0.448160 0.796588
Si Si3 0.430144 0.678454 0.333730
Si Si4 0.500723 0.704522 0.639663
Si Si5 0.751114 0.975750 0.776095
Si Si6 0.744074 0.167743 0.369383
Si Si7 0.198583 0.909551 0.034718
Si Si8 0.688859 0.760486 0.589632
O O1 0.016416 0.489607 0.304152
O O2 0.012405 0.358905 0.248520
O O3 0.901553 0.413758 0.417465
O O4 0.051902 0.414672 0.534237
O O5 0.520659 0.392178 0.678291
O O6 0.644160 0.472186 0.752565
O O7 0.429526 0.699325 0.507105
O O8 0.482939 0.732510 0.243215
O O9 0.341170 0.669761 0.239470
O O10 0.596636 0.721150 0.571929
O O11 0.730617 0.910568 0.882270
O O12 0.709137 0.953871 0.617725
O O13 0.739685 0.049923 0.846455
O O14 0.741591 0.205549 0.530308
O O15 0.806728 0.213988 0.263935
O O16 0.208323 0.830426 0.000333
#
# Coordination Sequence:
#
# PCOD9459615 Si02
#       8
#     8   8   8   8   8   8   8   8
#     4  10  21  39  63  89 123 164 208 261 321 372
#     4   9  20  41  60  85 123 161 203 254 309 371
#     4  11  22  39  60  87 123 160 206 257 312 382
#     4  12  24  39  65  95 122 162 211 262 319 380
#     4   9  21  38  60  86 119 160 203 249 304 368
#     4  10  22  39  57  83 119 158 197 248 308 367
#     4  10  20  39  61  89 123 160 208 258 310 371
#     4  11  22  38  60  88 122 156 202 257 309 366
#
# _framework density 23.758571
#
# number of rings (size 3 to 8) (size 9 to 14) (size 15 to 20)
#    0.000    1.750    0.000    4.500    0.000    5.500 
#    0.000   15.000    0.000    0.000    0.000    0.000 
#    0.000    0.000    0.000    0.000    0.000    0.000 
#
# Total GULP energy -357073.073013 kJ/mol
# GULP energy per Si atom -5579.266766 kJ/mol
# Density = 2.370450 g / cm^3
# Si number density = 23.758571 Si / 1000 Ang^3
#
#
#
# Elastic Constant Matrix: (Units=GPa)
#
#
# Indices 1 2 3 4 5 6 
#
# 1 48.0564 -1.9137 1.6042 0.0000 0.0000 0.0000
# 2 -1.9137 112.9583 49.2412 0.0000 0.0000 0.0000
# 3 1.6042 49.2412 66.9301 0.0000 0.0000 0.0000
# 4 0.0000 0.0000 0.0000 53.0655 0.0000 0.0000
# 5 0.0000 0.0000 0.0000 0.0000 31.6321 0.0000
# 6 0.0000 0.0000 0.0000 0.0000 0.0000 -4.5161
#
#
#
# Elastic Compliance Matrix: (Units=1/GPa)
#
#
# Indices 1 2 3 4 5 6 
#
# 1 0.020880 0.000842 -0.001120 0.000000 0.000000 0.000000
# 2 0.000842 0.013066 -0.009633 0.000000 0.000000 0.000000
# 3 -0.001120 -0.009633 0.022055 0.000000 0.000000 0.000000
# 4 0.000000 0.000000 0.000000 0.018845 0.000000 0.000000
# 5 0.000000 0.000000 0.000000 0.000000 0.031613 0.000000
# 6 0.000000 0.000000 0.000000 0.000000 0.000000 -0.221430
#
#
# Mechanical properties :
#
#
# Convention : Reuss Voigt Hill
#
# Bulk Modulus (GPa) = 27.64044 36.20089 31.92066
# Shear Modulus (GPa) = -60.17678 27.97049 -16.10314
#
# Velocity S-wave (km/s) = -5.03820 3.43487 -2.60625
# Velocity P-wave (km/s) = 4.71014 5.56787 2.09949
#
# Compressibility (1/GPa) = 0.03617888
#
# Stress axis : x y z
#
# Youngs Moduli (GPa) = 47.89319 76.53167 45.34088
#
# Poissons Ratio (x) = -0.06443 0.05078
# Poissons Ratio (y) = -0.04032 0.43678
# Poissons Ratio (z) = 0.05363 0.73725
#
# Static dielectric constant tensor:
#      x y z
#    x 1.984280 0.000000 0.000000 
#    y 0.000000 2.034910 0.000000 
#    z 0.000000 0.000000 1.914290 
# 
# From -- ./inp_files/3733.got.cif
#   From: 2010.05.17/outbox.cif.g08.bks.cpg/sg61_2_cif.got.tgz:3733.got - 2010.06.03 15:17:17.
