data_PCOD9459766
_publ_section_title
;
Structure prediction by ZEFSAII (Michael W. Deem and Ramdas Pophale) SiO2 
 PCOD9459766
Probable space group: P B C A
;
_chemical_formula_sum "Si O2"
_cell_formula_units_Z 64
_cell_length_a 10.999962
_cell_length_b 28.171448
_cell_length_c 9.785542
_cell_angle_alpha 90.000000
_cell_angle_beta 90.000000
_cell_angle_gamma 90.000000
_cell_volume 3032.391288
_symmetry_space_group_name_H-M "P B C A"
_symmetry_group_IT_number 61
_symmetry_cell_setting 'orthorhombic'
loop_
_space_group_symop_operation_xyz
x,y,z
1/2-x,-y,1/2+z
1/2+x,1/2-y,-z
-x,1/2+y,1/2-z
-x,-y,-z
1/2+x,y,1/2-z
1/2-x,1/2+y,z
x,1/2-y,1/2+z
loop_
_atom_site_type_symbol
_atom_site_label
_atom_site_fract_x
_atom_site_fract_y
_atom_site_fract_z
Si Si1 0.080815 0.463752 0.748492
Si Si2 0.539838 0.228236 0.796228
Si Si3 0.335096 0.520063 0.779643
Si Si4 0.995211 0.194585 0.000758
Si Si5 0.153935 0.396678 0.503818
Si Si6 0.372485 0.356880 0.364185
Si Si7 0.414434 0.919886 0.032277
Si Si8 0.248489 0.337388 0.086254
O O1 0.202564 0.494962 0.780411
O O2 0.126448 0.423613 0.643816
O O3 0.040311 0.441920 0.892753
O O4 0.958478 0.489458 0.692732
O O5 0.531714 0.225244 0.632821
O O6 0.429433 0.195788 0.855989
O O7 0.657582 0.200571 0.848946
O O8 0.536863 0.279740 0.862322
O O9 0.337956 0.562830 0.888263
O O10 0.353313 0.541067 0.627985
O O11 0.851182 0.188521 0.998826
O O12 0.050892 0.142567 0.979134
O O13 0.278134 0.366757 0.485386
O O14 0.479346 0.394771 0.381827
O O15 0.307954 0.362869 0.218207
O O16 0.320853 0.877446 0.002322
#
# Coordination Sequence:
#
# PCOD9459766 Si02
#       8
#     8   8   8   8   8   8   8   8
#     4  12  28  41  66 107 139 176 232 298 349 402
#     4  10  23  42  65 101 128 176 227 272 345 397
#     4  12  24  45  69  96 137 187 231 282 350 427
#     4  11  25  40  68  97 134 174 223 282 334 411
#     4  12  24  44  70  97 137 182 231 282 347 409
#     4  10  20  44  69  94 128 185 226 269 333 425
#     4  11  23  43  69  96 136 178 227 279 348 402
#     4  10  21  41  70  94 128 176 231 270 332 424
#
# _framework density 21.105457000000001
#
# number of rings (size 3 to 8) (size 9 to 14) (size 15 to 20)
#    0.000    1.000    2.500    4.500    5.250    2.000 
#    2.250    0.000    0.000    0.000    0.000    0.000 
#    0.000    0.000    0.000    0.000    0.000    0.000 
#
# Total GULP energy -357647.970570 kJ/mol
# GULP energy per Si atom -5588.249540 kJ/mol
# Density = 2.105742 g / cm^3
# Si number density = 21.105457 Si / 1000 Ang^3
#
#
#
# Elastic Constant Matrix: (Units=GPa)
#
#
# Indices 1 2 3 4 5 6 
#
# 1 76.7804 11.7826 -16.4602 0.0000 0.0000 0.0000
# 2 11.7826 33.4393 13.1657 0.0000 0.0000 0.0000
# 3 -16.4602 13.1657 39.4536 0.0000 0.0000 0.0000
# 4 0.0000 0.0000 0.0000 30.8845 0.0000 0.0000
# 5 0.0000 0.0000 0.0000 0.0000 5.7442 0.0000
# 6 0.0000 0.0000 0.0000 0.0000 0.0000 6.5102
#
#
#
# Elastic Compliance Matrix: (Units=1/GPa)
#
#
# Indices 1 2 3 4 5 6 
#
# 1 0.016768 -0.009973 0.010324 0.000000 0.000000 0.000000
# 2 -0.009973 0.040360 -0.017629 0.000000 0.000000 0.000000
# 3 0.010324 -0.017629 0.035536 0.000000 0.000000 0.000000
# 4 0.000000 0.000000 0.000000 0.032379 0.000000 0.000000
# 5 0.000000 0.000000 0.000000 0.000000 0.174089 0.000000
# 6 0.000000 0.000000 0.000000 0.000000 0.000000 0.153605
#
#
# Mechanical properties :
#
#
# Convention : Reuss Voigt Hill
#
# Bulk Modulus (GPa) = 17.20954 18.51661 17.86308
# Shear Modulus (GPa) = 9.86853 18.04013 13.95433
#
# Velocity S-wave (km/s) = 2.16471 2.92680 2.57412
# Velocity P-wave (km/s) = 3.79733 4.49600 4.16135
#
# Compressibility (1/GPa) = 0.05810729
#
# Stress axis : x y z
#
# Youngs Moduli (GPa) = 59.63833 24.77716 28.14047
#
# Poissons Ratio (x) = 0.24710 -0.29051
# Poissons Ratio (y) = 0.59476 0.49608
# Poissons Ratio (z) = -0.61568 0.43679
#
# Static dielectric constant tensor:
#      x y z
#    x 1.826940 0.000000 0.000000 
#    y 0.000000 1.768920 0.000000 
#    z 0.000000 0.000000 1.731400 
# 
# From -- ./inp_files/2467.got.cif
#   From: 2010.05.17/outbox.cif.g08.bks.cpg/sg61_2_cif.got.tgz:2467.got - 2010.06.03 15:17:17.
