data_PCOD9459284
_publ_section_title
;
Structure prediction by ZEFSAII (Michael W. Deem and Ramdas Pophale) SiO2 
 PCOD9459284
Probable space group: P B C A
;
_chemical_formula_sum "Si O2"
_cell_formula_units_Z 40
_cell_length_a 13.123035
_cell_length_b 15.120205
_cell_length_c 8.742982
_cell_angle_alpha 90.000000
_cell_angle_beta 90.000000
_cell_angle_gamma 90.000000
_cell_volume 1734.808537
_symmetry_space_group_name_H-M "P B C A"
_symmetry_group_IT_number 61
_symmetry_cell_setting 'orthorhombic'
loop_
_space_group_symop_operation_xyz
x,y,z
1/2-x,-y,1/2+z
1/2+x,1/2-y,-z
-x,1/2+y,1/2-z
-x,-y,-z
1/2+x,y,1/2-z
1/2-x,1/2+y,z
x,1/2-y,1/2+z
loop_
_atom_site_type_symbol
_atom_site_label
_atom_site_fract_x
_atom_site_fract_y
_atom_site_fract_z
Si Si1 0.716201 0.446989 0.484734
Si Si2 0.600977 0.193322 0.567462
Si Si3 0.991620 0.944572 0.294908
Si Si4 0.092369 0.136501 0.277086
Si Si5 0.794040 0.116229 0.666970
O O1 0.603558 0.451269 0.409179
O O2 0.697564 0.390899 0.638092
O O3 0.748881 0.540949 0.551076
O O4 0.783000 0.410679 0.345981
O O5 0.546751 0.110795 0.649729
O O6 0.548754 0.284821 0.617551
O O7 0.603316 0.179466 0.388055
O O8 0.717165 0.195160 0.633117
O O9 0.085990 0.887796 0.361294
O O10 0.030755 0.044196 0.263439
#
# Coordination Sequence:
#
# PCOD9459284 Si02
#       5
#     8   8   8   8   8
#     4  10  21  38  62  90 122 162 206 257 314 376
#     4  11  23  40  62  91 126 166 211 261 319 382
#     4  10  22  42  66  93 126 166 210 263 322 383
#     4  11  22  41  62  89 128 164 208 269 317 374
#     4  10  19  37  60  87 118 156 201 250 309 371
#
# _framework density 23.057297999999999
#
# number of rings (size 3 to 8) (size 9 to 14) (size 15 to 20)
#    0.000    1.600    0.000    7.800    0.000    1.600 
#    0.000   22.000    0.000    0.000    0.000    0.000 
#    0.000    0.000    0.000    0.000    0.000    0.000 
#
# Total GULP energy -223307.831006 kJ/mol
# GULP energy per Si atom -5582.695775 kJ/mol
# Density = 2.300482 g / cm^3
# Si number density = 23.057298 Si / 1000 Ang^3
#
#
#
# Elastic Constant Matrix: (Units=GPa)
#
#
# Indices 1 2 3 4 5 6 
#
# 1 81.7284 37.9278 12.6089 0.0000 0.0000 0.0000
# 2 37.9278 121.4639 40.2956 0.0000 0.0000 0.0000
# 3 12.6089 40.2956 117.9765 0.0000 0.0000 0.0000
# 4 0.0000 0.0000 0.0000 34.9431 0.0000 0.0000
# 5 0.0000 0.0000 0.0000 0.0000 25.5044 0.0000
# 6 0.0000 0.0000 0.0000 0.0000 0.0000 26.2004
#
#
#
# Elastic Compliance Matrix: (Units=1/GPa)
#
#
# Indices 1 2 3 4 5 6 
#
# 1 0.014309 -0.004467 -0.000004 0.000000 0.000000 0.000000
# 2 -0.004467 0.010679 -0.003170 0.000000 0.000000 0.000000
# 3 -0.000004 -0.003170 0.009559 0.000000 0.000000 0.000000
# 4 0.000000 0.000000 0.000000 0.028618 0.000000 0.000000
# 5 0.000000 0.000000 0.000000 0.000000 0.039209 0.000000
# 6 0.000000 0.000000 0.000000 0.000000 0.000000 0.038167
#
#
# Mechanical properties :
#
#
# Convention : Reuss Voigt Hill
#
# Bulk Modulus (GPa) = 51.90338 55.87038 53.88688
# Shear Modulus (GPa) = 30.81741 32.68535 31.75138
#
# Velocity S-wave (km/s) = 3.65986 3.76915 3.71491
# Velocity P-wave (km/s) = 6.35759 6.57462 6.46702
#
# Compressibility (1/GPa) = 0.01926657
#
# Stress axis : x y z
#
# Youngs Moduli (GPa) = 69.88522 93.63786 104.60849
#
# Poissons Ratio (x) = 0.41827 0.00038
# Poissons Ratio (y) = 0.31217 0.33163
# Poissons Ratio (z) = 0.00025 0.29685
#
# Static dielectric constant tensor:
#      x y z
#    x 1.878350 0.000000 0.000000 
#    y 0.000000 1.933590 0.000000 
#    z 0.000000 0.000000 1.885790 
# 
# From -- ./inp_files/2660.got.cif
#   From: 2010.05.17/outbox.cif.g08.bks.cpg/sg61_2_cif.got.tgz:2660.got - 2010.06.03 15:17:17.
