data_PCOD9459424
_publ_section_title
;
Structure prediction by ZEFSAII (Michael W. Deem and Ramdas Pophale) SiO2 
 PCOD9459424
Probable space group: P B C A
;
_chemical_formula_sum "Si O2"
_cell_formula_units_Z 52
_cell_length_a 17.632091
_cell_length_b 15.650273
_cell_length_c 7.974499
_cell_angle_alpha 90.000000
_cell_angle_beta 90.000000
_cell_angle_gamma 90.000000
_cell_volume 2200.539376
_symmetry_space_group_name_H-M "P B C A"
_symmetry_group_IT_number 61
_symmetry_cell_setting 'orthorhombic'
loop_
_space_group_symop_operation_xyz
x,y,z
1/2-x,-y,1/2+z
1/2+x,1/2-y,-z
-x,1/2+y,1/2-z
-x,-y,-z
1/2+x,y,1/2-z
1/2-x,1/2+y,z
x,1/2-y,1/2+z
loop_
_atom_site_type_symbol
_atom_site_label
_atom_site_fract_x
_atom_site_fract_y
_atom_site_fract_z
Si Si1 0.500000 0.000000 0.500000
Si Si2 0.949288 0.460014 0.790717
Si Si3 0.821236 0.927937 0.455584
Si Si4 0.597020 0.225416 0.801075
Si Si5 0.038823 0.624277 0.858498
Si Si6 0.206019 0.573046 0.825454
Si Si7 0.645820 0.119494 0.476772
O O1 0.538297 0.918308 0.613368
O O2 0.411730 0.958814 0.522334
O O3 0.871133 0.502512 0.848184
O O4 0.003498 0.544844 0.745407
O O5 0.977439 0.409134 0.951841
O O6 0.865878 0.840266 0.436250
O O7 0.743978 0.916414 0.354233
O O8 0.812744 0.974133 0.632681
O O9 0.507295 0.209179 0.821714
O O10 0.618442 0.181068 0.628118
O O11 0.631823 0.317997 0.821418
O O12 0.128295 0.625144 0.837851
O O13 0.268406 0.597339 0.967289
#
# Coordination Sequence:
#
# PCOD9459424 Si02
#       7
#     4   8   8   8   8   8   8
#     4  12  20  38  60  92 118 160 212 256 286 396
#     4   9  18  33  58  88 115 156 201 251 297 382
#     4   9  19  37  57  87 123 148 207 245 312 372
#     4  10  22  44  57  87 121 169 206 256 308 385
#     4   9  18  36  60  83 119 157 205 248 315 364
#     4  10  20  35  59  91 118 153 198 267 300 372
#     4  11  25  40  62  91 129 161 215 254 317 368
#
# _framework density 23.630571
#
# number of rings (size 3 to 8) (size 9 to 14) (size 15 to 20)
#    0.000    2.154    4.615    0.923    4.308    1.231 
#    0.000    4.615    0.000    0.000    0.000    0.000 
#    0.000    0.000    0.000    0.000    0.000    0.000 
#
# Total GULP energy -289537.744083 kJ/mol
# GULP energy per Si atom -5568.033540 kJ/mol
# Density = 2.357679 g / cm^3
# Si number density = 23.630571 Si / 1000 Ang^3
#
#
#
# Elastic Constant Matrix: (Units=GPa)
#
#
# Indices 1 2 3 4 5 6 
#
# 1 163.4871 34.9343 13.3614 0.0000 0.0000 0.0000
# 2 34.9343 64.6743 9.3289 0.0000 0.0000 0.0000
# 3 13.3614 9.3289 51.7490 0.0000 0.0000 0.0000
# 4 0.0000 0.0000 0.0000 27.1493 0.0000 0.0000
# 5 0.0000 0.0000 0.0000 0.0000 29.9143 0.0000
# 6 0.0000 0.0000 0.0000 0.0000 0.0000 14.8780
#
#
#
# Elastic Compliance Matrix: (Units=1/GPa)
#
#
# Indices 1 2 3 4 5 6 
#
# 1 0.006981 -0.003605 -0.001153 0.000000 0.000000 0.000000
# 2 -0.003605 0.017736 -0.002267 0.000000 0.000000 0.000000
# 3 -0.001153 -0.002267 0.020030 0.000000 0.000000 0.000000
# 4 0.000000 0.000000 0.000000 0.036833 0.000000 0.000000
# 5 0.000000 0.000000 0.000000 0.000000 0.033429 0.000000
# 6 0.000000 0.000000 0.000000 0.000000 0.000000 0.067214
#
#
# Mechanical properties :
#
#
# Convention : Reuss Voigt Hill
#
# Bulk Modulus (GPa) = 32.57371 43.90664 38.24017
# Shear Modulus (GPa) = 24.21256 29.20736 26.70996
#
# Velocity S-wave (km/s) = 3.20445 3.51949 3.36566
# Velocity P-wave (km/s) = 5.24460 5.92761 5.59653
#
# Compressibility (1/GPa) = 0.03069960
#
# Stress axis : x y z
#
# Youngs Moduli (GPa) = 143.24299 56.38218 49.92439
#
# Poissons Ratio (x) = 0.20324 0.05755
# Poissons Ratio (y) = 0.51634 0.11316
# Poissons Ratio (z) = 0.16512 0.12780
#
# Static dielectric constant tensor:
#      x y z
#    x 1.840600 0.000000 0.000000 
#    y 0.000000 1.648110 0.000000 
#    z 0.000000 0.000000 -0.981500 
# 
# From -- ./inp_files/3536.got.cif
#   From: 2010.05.17/outbox.cif.g08.bks.cpg/sg61_2_cif.got.tgz:3536.got - 2010.06.03 15:17:17.
