data_PCOD9459015
_publ_section_title
;
Structure prediction by ZEFSAII (Michael W. Deem and Ramdas Pophale) SiO2 
 PCOD9459015
Probable space group: P B C A
;
_chemical_formula_sum "Si O2"
_cell_formula_units_Z 64
_cell_length_a 22.585707
_cell_length_b 5.272343
_cell_length_c 33.521622
_cell_angle_alpha 90.000000
_cell_angle_beta 90.000000
_cell_angle_gamma 90.000000
_cell_volume 3991.741145
_symmetry_space_group_name_H-M "P B C A"
_symmetry_group_IT_number 61
_symmetry_cell_setting 'orthorhombic'
loop_
_space_group_symop_operation_xyz
x,y,z
1/2-x,-y,1/2+z
1/2+x,1/2-y,-z
-x,1/2+y,1/2-z
-x,-y,-z
1/2+x,y,1/2-z
1/2-x,1/2+y,z
x,1/2-y,1/2+z
loop_
_atom_site_type_symbol
_atom_site_label
_atom_site_fract_x
_atom_site_fract_y
_atom_site_fract_z
Si Si1 0.213052 0.951950 0.364672
Si Si2 0.973952 0.985536 0.300462
Si Si3 0.889081 0.536225 0.072448
Si Si4 0.910796 0.035683 0.027259
Si Si5 0.078488 0.514746 0.740186
Si Si6 0.953180 0.531296 0.440687
Si Si7 0.523887 0.531220 0.395381
Si Si8 0.211456 0.524315 0.769865
O O1 0.239622 0.674503 0.372861
O O2 0.156619 0.001210 0.391889
O O3 0.199566 0.971414 0.317565
O O4 0.942306 0.731275 0.284571
O O5 0.974574 0.998955 0.348026
O O6 0.039769 0.988152 0.281065
O O7 0.940796 0.231067 0.282811
O O8 0.880558 0.799422 0.049225
O O9 0.955382 0.533452 0.090460
O O10 0.884903 0.301739 0.041889
O O11 0.979245 0.032469 0.042444
O O12 0.912941 0.001540 0.979758
O O13 0.148080 0.513408 0.748706
O O14 0.945605 0.794636 0.417601
O O15 0.948671 0.294094 0.410943
O O16 0.251358 0.278151 0.760656
#
# Coordination Sequence:
#
# PCOD9459015 Si02
#       8
#     8   8   8   8   8   8   8   8
#     4  10  20  32  46  67  94 122 156 196 228 261
#     4  10  20  32  49  71 100 133 158 194 241 293
#     4  10  18  29  46  65  93 127 157 184 222 279
#     4   9  17  28  43  65  91 123 151 179 220 261
#     4  10  20  34  49  70 100 129 162 197 238 292
#     4   9  17  28  43  65  95 120 148 186 216 263
#     4  10  18  29  46  68  94 126 156 184 228 279
#     4  10  20  34  52  71  95 128 164 202 239 278
#
# _framework density 16.033104000000002
#
# number of rings (size 3 to 8) (size 9 to 14) (size 15 to 20)
#    0.000    2.250    0.000    3.750    0.000    3.000 
#    0.000    7.500    0.000    0.000    0.000    0.000 
#    0.000   70.000    0.000    0.000    0.000    0.000 
#
# Total GULP energy -356992.242281 kJ/mol
# GULP energy per Si atom -5578.003786 kJ/mol
# Density = 1.599661 g / cm^3
# Si number density = 16.033104 Si / 1000 Ang^3
#
#
#
# Elastic Constant Matrix: (Units=GPa)
#
#
# Indices 1 2 3 4 5 6 
#
# 1 58.3567 9.4273 13.9693 0.0000 0.0000 0.0000
# 2 9.4273 65.6835 0.9304 0.0000 0.0000 0.0000
# 3 13.9693 0.9304 60.5433 0.0000 0.0000 0.0000
# 4 0.0000 0.0000 0.0000 17.5586 0.0000 0.0000
# 5 0.0000 0.0000 0.0000 0.0000 19.2490 0.0000
# 6 0.0000 0.0000 0.0000 0.0000 0.0000 9.9796
#
#
#
# Elastic Compliance Matrix: (Units=1/GPa)
#
#
# Indices 1 2 3 4 5 6 
#
# 1 0.018573 -0.002606 -0.004245 0.000000 0.000000 0.000000
# 2 -0.002606 0.015593 0.000362 0.000000 0.000000 0.000000
# 3 -0.004245 0.000362 0.017491 0.000000 0.000000 0.000000
# 4 0.000000 0.000000 0.000000 0.056952 0.000000 0.000000
# 5 0.000000 0.000000 0.000000 0.000000 0.051951 0.000000
# 6 0.000000 0.000000 0.000000 0.000000 0.000000 0.100205
#
#
# Mechanical properties :
#
#
# Convention : Reuss Voigt Hill
#
# Bulk Modulus (GPa) = 25.85398 25.91530 25.88464
# Shear Modulus (GPa) = 17.44367 20.04120 18.74243
#
# Velocity S-wave (km/s) = 3.30203 3.53935 3.42275
# Velocity P-wave (km/s) = 5.54060 5.73597 5.63913
#
# Compressibility (1/GPa) = 0.03867876
#
# Stress axis : x y z
#
# Youngs Moduli (GPa) = 53.84104 64.12983 57.17190
#
# Poissons Ratio (x) = 0.16710 0.24272
# Poissons Ratio (y) = 0.14029 -0.02067
# Poissons Ratio (z) = 0.22858 -0.02319
#
# Static dielectric constant tensor:
#      x y z
#    x 1.506240 0.000000 0.000000 
#    y 0.000000 1.542710 0.000000 
#    z 0.000000 0.000000 1.513800 
# 
# From -- ./inp_files/11840.got.cif
#   From: 2010.05.17/outbox.cif.g08.bks.cpg/sg61_6_cif.got.tgz:11840.got - 2010.06.03 15:17:17.
