data_PCOD9459831
_publ_section_title
;
Structure prediction by ZEFSAII (Michael W. Deem and Ramdas Pophale) SiO2 
 PCOD9459831
Probable space group: P B C A
;
_chemical_formula_sum "Si O2"
_cell_formula_units_Z 56
_cell_length_a 13.034638
_cell_length_b 11.783214
_cell_length_c 13.252257
_cell_angle_alpha 90.000000
_cell_angle_beta 90.000000
_cell_angle_gamma 90.000000
_cell_volume 2035.413211
_symmetry_space_group_name_H-M "P B C A"
_symmetry_group_IT_number 61
_symmetry_cell_setting 'orthorhombic'
loop_
_space_group_symop_operation_xyz
x,y,z
1/2-x,-y,1/2+z
1/2+x,1/2-y,-z
-x,1/2+y,1/2-z
-x,-y,-z
1/2+x,y,1/2-z
1/2-x,1/2+y,z
x,1/2-y,1/2+z
loop_
_atom_site_type_symbol
_atom_site_label
_atom_site_fract_x
_atom_site_fract_y
_atom_site_fract_z
Si Si1 0.780055 0.435186 0.877764
Si Si2 0.510890 0.664195 0.619705
Si Si3 0.907407 0.082743 0.120977
Si Si4 0.010890 0.664195 0.119705
Si Si5 0.719945 0.935186 0.122236
Si Si6 0.165544 0.250000 0.750000
Si Si7 0.907407 0.082743 0.879023
O O1 0.900816 0.426004 0.854019
O O2 0.728004 0.324371 0.829436
O O3 0.704640 0.538301 0.846543
O O4 0.775951 0.426915 0.000000
O O5 0.488022 0.655604 0.500000
O O6 0.599184 0.573996 0.645981
O O7 0.408267 0.669897 0.683516
O O8 0.562851 0.787825 0.640217
O O9 0.795360 0.038301 0.153457
O O10 0.904594 0.074163 0.000000
O O11 0.000000 1.000000 0.152809
O O12 0.908267 0.669897 0.183516
O O13 0.062851 0.787825 0.140217
O O14 0.771996 0.824371 0.170564
#
# Coordination Sequence:
#
# PCOD9459831 Si02
#       7
#     8   8   8   8   8   8   8
#     4  10  21  37  59  86 115 149 192 239 284 336
#     4  10  21  37  59  86 115 149 192 239 284 336
#     4   9  16  34  61  84 108 152 199 231 275 344
#     4  10  21  37  59  86 115 149 192 239 284 336
#     4  10  21  37  59  86 115 149 192 239 284 336
#     4  12  20  34  54  84 118 150 184 232 286 342
#     4   9  16  34  61  84 108 152 199 231 275 344
#
# _framework density 27.512841000000002
#
# number of rings (size 3 to 8) (size 9 to 14) (size 15 to 20)
#    0.000    2.000    2.857    1.714    0.000    0.000 
#    0.000    8.571    0.000    0.000    0.000   18.000 
#    0.000    0.000    0.000    0.000    0.000    0.000 
#
# Total GULP energy -314449.150557 kJ/mol
# GULP energy per Si atom -5615.163403 kJ/mol
# Density = 2.745022 g / cm^3
# Si number density = 27.512841 Si / 1000 Ang^3
#
#
#
# Elastic Constant Matrix: (Units=GPa)
#
#
# Indices 1 2 3 4 5 6 
#
# 1 190.2563 34.1184 69.7883 0.0000 0.0000 0.0000
# 2 34.1184 105.9868 28.6511 0.0000 0.0000 0.0000
# 3 69.7883 28.6511 114.0595 0.0000 0.0000 0.0000
# 4 0.0000 0.0000 0.0000 46.2374 0.0000 0.0000
# 5 0.0000 0.0000 0.0000 0.0000 50.8474 0.0000
# 6 0.0000 0.0000 0.0000 0.0000 0.0000 49.5416
#
#
#
# Elastic Compliance Matrix: (Units=1/GPa)
#
#
# Indices 1 2 3 4 5 6 
#
# 1 0.006907 -0.001160 -0.003935 0.000000 0.000000 0.000000
# 2 -0.001160 0.010317 -0.001882 0.000000 0.000000 0.000000
# 3 -0.003935 -0.001882 0.011648 0.000000 0.000000 0.000000
# 4 0.000000 0.000000 0.000000 0.021628 0.000000 0.000000
# 5 0.000000 0.000000 0.000000 0.000000 0.019667 0.000000
# 6 0.000000 0.000000 0.000000 0.000000 0.000000 0.020185
#
#
# Mechanical properties :
#
#
# Convention : Reuss Voigt Hill
#
# Bulk Modulus (GPa) = 67.02964 75.04648 71.03806
# Shear Modulus (GPa) = 45.75464 47.84158 46.79811
#
# Velocity S-wave (km/s) = 4.08245 4.17451 4.12874
# Velocity P-wave (km/s) = 6.82919 7.11137 6.97170
#
# Compressibility (1/GPa) = 0.01491877
#
# Stress axis : x y z
#
# Youngs Moduli (GPa) = 144.77039 96.92498 85.85317
#
# Poissons Ratio (x) = 0.11242 0.33784
# Poissons Ratio (y) = 0.16791 0.16157
# Poissons Ratio (z) = 0.56968 0.18241
#
# Static dielectric constant tensor:
#      x y z
#    x 2.083120 0.000000 0.000000 
#    y 0.000000 2.138630 0.000000 
#    z 0.000000 0.000000 2.172250 
# 
# From -- ./inp_files/7929.got.cif
#   From: 2010.05.17/outbox.cif.g08.bks.cpg/sg61_4_cif.got.tgz:7929.got - 2010.06.03 15:17:17.
