data_PCOD9459891
_publ_section_title
;
Structure prediction by ZEFSAII (Michael W. Deem and Ramdas Pophale) SiO2 
 PCOD9459891
Probable space group: P B C A
;
_chemical_formula_sum "Si O2"
_cell_formula_units_Z 56
_cell_length_a 11.539226
_cell_length_b 19.853606
_cell_length_c 10.662208
_cell_angle_alpha 90.000000
_cell_angle_beta 90.000000
_cell_angle_gamma 90.000000
_cell_volume 2442.661171
_symmetry_space_group_name_H-M "P B C A"
_symmetry_group_IT_number 61
_symmetry_cell_setting 'orthorhombic'
loop_
_space_group_symop_operation_xyz
x,y,z
1/2-x,-y,1/2+z
1/2+x,1/2-y,-z
-x,1/2+y,1/2-z
-x,-y,-z
1/2+x,y,1/2-z
1/2-x,1/2+y,z
x,1/2-y,1/2+z
loop_
_atom_site_type_symbol
_atom_site_label
_atom_site_fract_x
_atom_site_fract_y
_atom_site_fract_z
Si Si1 0.231880 0.621857 0.770425
Si Si2 0.327059 0.032090 0.564860
Si Si3 0.414702 0.810702 0.674301
Si Si4 0.573292 0.097074 0.545105
Si Si5 0.526041 0.818395 0.085892
Si Si6 0.804401 0.239274 0.932049
Si Si7 0.678104 0.136844 0.075353
O O1 0.234531 0.551557 0.695192
O O2 0.352076 0.630705 0.844571
O O3 0.125550 0.632625 0.865066
O O4 0.199681 0.678174 0.666140
O O5 0.458650 0.058159 0.587752
O O6 0.261255 0.074319 0.455612
O O7 0.340017 0.955821 0.521669
O O8 0.470476 0.852705 0.561758
O O9 0.484271 0.740223 0.682112
O O10 0.288376 0.791467 0.620767
O O11 0.391647 0.855619 0.795993
O O12 0.579546 0.777169 0.968301
O O13 0.415762 0.858460 0.036308
O O14 0.753486 0.205390 0.059138
#
# Coordination Sequence:
#
# PCOD9459891 Si02
#       7
#     8   8   8   8   8   8   8
#     4  11  23  42  72  96 134 179 225 287 337 411
#     4  10  26  46  68  95 132 179 233 279 331 409
#     4  11  22  37  67  95 138 172 215 279 341 408
#     4  11  25  47  70  95 130 186 225 276 350 398
#     4  11  22  39  65 106 134 174 225 276 359 405
#     4  10  21  38  62  98 134 170 213 273 338 416
#     4  10  23  39  61  97 131 171 222 279 329 400
#
# _framework density 22.925818
#
# number of rings (size 3 to 8) (size 9 to 14) (size 15 to 20)
#    0.000    1.429    1.429    3.429   10.000    1.143 
#    0.000    0.714    0.000    0.000    0.000    0.000 
#    0.000    0.000    0.000    0.000    0.000    0.000 
#
# Total GULP energy -312848.130511 kJ/mol
# GULP energy per Si atom -5586.573759 kJ/mol
# Density = 2.287364 g / cm^3
# Si number density = 22.925818 Si / 1000 Ang^3
#
#
#
# Elastic Constant Matrix: (Units=GPa)
#
#
# Indices 1 2 3 4 5 6 
#
# 1 78.5895 2.2487 5.9532 0.0000 0.0000 0.0000
# 2 2.2487 48.4355 11.3577 0.0000 0.0000 0.0000
# 3 5.9532 11.3577 77.8898 0.0000 0.0000 0.0000
# 4 0.0000 0.0000 0.0000 26.4622 0.0000 0.0000
# 5 0.0000 0.0000 0.0000 0.0000 8.8447 0.0000
# 6 0.0000 0.0000 0.0000 0.0000 0.0000 31.3794
#
#
#
# Elastic Compliance Matrix: (Units=1/GPa)
#
#
# Indices 1 2 3 4 5 6 
#
# 1 0.012805 -0.000378 -0.000924 0.000000 0.000000 0.000000
# 2 -0.000378 0.021388 -0.003090 0.000000 0.000000 0.000000
# 3 -0.000924 -0.003090 0.013360 0.000000 0.000000 0.000000
# 4 0.000000 0.000000 0.000000 0.037790 0.000000 0.000000
# 5 0.000000 0.000000 0.000000 0.000000 0.113061 0.000000
# 6 0.000000 0.000000 0.000000 0.000000 0.000000 0.031868
#
#
# Mechanical properties :
#
#
# Convention : Reuss Voigt Hill
#
# Bulk Modulus (GPa) = 25.79300 27.11490 26.45395
# Shear Modulus (GPa) = 19.84296 25.69428 22.76862
#
# Velocity S-wave (km/s) = 2.94518 3.35140 3.15484
# Velocity P-wave (km/s) = 4.77917 5.17965 4.98344
#
# Compressibility (1/GPa) = 0.03877021
#
# Stress axis : x y z
#
# Youngs Moduli (GPa) = 78.09377 46.75501 74.85148
#
# Poissons Ratio (x) = 0.01767 0.06913
# Poissons Ratio (y) = 0.02951 0.23128
# Poissons Ratio (z) = 0.07213 0.14447
#
# Static dielectric constant tensor:
#      x y z
#    x 1.830740 0.000000 0.000000 
#    y 0.000000 1.873010 0.000000 
#    z 0.000000 0.000000 1.931020 
# 
# From -- ./inp_files/5341.got.cif
#   From: 2010.05.17/outbox.cif.g08.bks.cpg/sg61_3_cif.got.tgz:5341.got - 2010.06.03 15:17:17.
