data_PCOD9459166
_publ_section_title
;
Structure prediction by ZEFSAII (Michael W. Deem and Ramdas Pophale) SiO2 
 PCOD9459166
Probable space group: P B C A
;
_chemical_formula_sum "Si O2"
_cell_formula_units_Z 64
_cell_length_a 17.341850
_cell_length_b 10.196187
_cell_length_c 14.072924
_cell_angle_alpha 90.000000
_cell_angle_beta 90.000000
_cell_angle_gamma 90.000000
_cell_volume 2488.384913
_symmetry_space_group_name_H-M "P B C A"
_symmetry_group_IT_number 61
_symmetry_cell_setting 'orthorhombic'
loop_
_space_group_symop_operation_xyz
x,y,z
1/2-x,-y,1/2+z
1/2+x,1/2-y,-z
-x,1/2+y,1/2-z
-x,-y,-z
1/2+x,y,1/2-z
1/2-x,1/2+y,z
x,1/2-y,1/2+z
loop_
_atom_site_type_symbol
_atom_site_label
_atom_site_fract_x
_atom_site_fract_y
_atom_site_fract_z
Si Si1 0.628698 0.206621 0.493789
Si Si2 0.083685 0.565516 0.410026
Si Si3 0.215557 0.301971 0.856152
Si Si4 0.224907 0.569966 0.744905
Si Si5 0.609412 0.509227 0.310139
Si Si6 0.417158 0.541185 0.158851
Si Si7 0.949422 0.735807 0.724364
Si Si8 0.540798 0.720166 0.446913
O O1 0.703368 0.283406 0.531713
O O2 0.631856 0.164947 0.384206
O O3 0.547807 0.286641 0.511363
O O4 0.624981 0.058300 0.540573
O O5 0.107519 0.572569 0.298492
O O6 0.088329 0.695332 0.475798
O O7 0.991985 0.536044 0.406829
O O8 0.219915 0.448956 0.819733
O O9 0.133367 0.238112 0.825593
O O10 0.272884 0.204883 0.802944
O O11 0.302143 0.541389 0.684538
O O12 0.148181 0.561114 0.682519
O O13 0.554100 0.381675 0.298564
O O14 0.584275 0.595307 0.401310
O O15 0.454848 0.611857 0.249793
O O16 0.017608 0.706278 0.651681
#
# Coordination Sequence:
#
# PCOD9459166 Si02
#       8
#     8   8   8   8   8   8   8   8
#     4  10  20  38  60  88 119 156 205 267 303 373
#     4  11  20  35  63  89 117 158 210 260 304 366
#     4   9  19  38  58  81 124 158 201 255 312 364
#     4  10  21  39  59  88 120 168 205 253 320 384
#     4  11  21  38  59  86 128 158 201 269 315 367
#     4  10  20  35  62  88 116 162 213 242 315 387
#     4   9  18  35  58  81 121 157 192 259 313 358
#     4  10  19  32  59  90 110 154 207 245 307 371
#
# _framework density 25.719494999999998
#
# number of rings (size 3 to 8) (size 9 to 14) (size 15 to 20)
#    0.000    2.000    5.000    1.500    0.000    2.000 
#    2.250    6.250    0.000    0.000    0.000    0.000 
#    0.000    0.000    0.000    0.000    0.000    0.000 
#
# Total GULP energy -356499.306134 kJ/mol
# GULP energy per Si atom -5570.301658 kJ/mol
# Density = 2.566096 g / cm^3
# Si number density = 25.719495 Si / 1000 Ang^3
#
#
#
# Elastic Constant Matrix: (Units=GPa)
#
#
# Indices 1 2 3 4 5 6 
#
# 1 99.8956 17.6252 22.5974 0.0000 0.0000 0.0000
# 2 17.6252 69.8057 7.9661 0.0000 0.0000 0.0000
# 3 22.5974 7.9661 63.3883 0.0000 0.0000 0.0000
# 4 0.0000 0.0000 0.0000 38.5301 0.0000 0.0000
# 5 0.0000 0.0000 0.0000 0.0000 28.7191 0.0000
# 6 0.0000 0.0000 0.0000 0.0000 0.0000 31.7181
#
#
#
# Elastic Compliance Matrix: (Units=1/GPa)
#
#
# Indices 1 2 3 4 5 6 
#
# 1 0.011279 -0.002424 -0.003716 0.000000 0.000000 0.000000
# 2 -0.002424 0.015055 -0.001028 0.000000 0.000000 0.000000
# 3 -0.003716 -0.001028 0.017230 0.000000 0.000000 0.000000
# 4 0.000000 0.000000 0.000000 0.025954 0.000000 0.000000
# 5 0.000000 0.000000 0.000000 0.000000 0.034820 0.000000
# 6 0.000000 0.000000 0.000000 0.000000 0.000000 0.031528
#
#
# Mechanical properties :
#
#
# Convention : Reuss Voigt Hill
#
# Bulk Modulus (GPa) = 34.21420 36.60744 35.41082
# Shear Modulus (GPa) = 31.26119 32.12020 31.69069
#
# Velocity S-wave (km/s) = 3.49014 3.53776 3.51403
# Velocity P-wave (km/s) = 5.43812 5.56345 5.50114
#
# Compressibility (1/GPa) = 0.02922763
#
# Stress axis : x y z
#
# Youngs Moduli (GPa) = 88.66258 66.42426 58.03920
#
# Poissons Ratio (x) = 0.16099 0.21568
# Poissons Ratio (y) = 0.21489 0.05966
# Poissons Ratio (z) = 0.32949 0.06828
#
# Static dielectric constant tensor:
#      x y z
#    x 2.074500 0.000000 0.000000 
#    y 0.000000 2.189860 0.000000 
#    z 0.000000 0.000000 2.280000 
# 
# From -- ./inp_files/9724.got.cif
#   From: 2010.05.17/outbox.cif.g08.bks.cpg/sg61_5_cif.got.tgz:9724.got - 2010.06.03 15:17:17.
