data_PCOD9459523
_publ_section_title
;
Structure prediction by ZEFSAII (Michael W. Deem and Ramdas Pophale) SiO2 
 PCOD9459523
Probable space group: P B C A
;
_chemical_formula_sum "Si O2"
_cell_formula_units_Z 64
_cell_length_a 19.718612
_cell_length_b 11.439990
_cell_length_c 14.691767
_cell_angle_alpha 90.000000
_cell_angle_beta 90.000000
_cell_angle_gamma 90.000000
_cell_volume 3314.179438
_symmetry_space_group_name_H-M "P B C A"
_symmetry_group_IT_number 61
_symmetry_cell_setting 'orthorhombic'
loop_
_space_group_symop_operation_xyz
x,y,z
1/2-x,-y,1/2+z
1/2+x,1/2-y,-z
-x,1/2+y,1/2-z
-x,-y,-z
1/2+x,y,1/2-z
1/2-x,1/2+y,z
x,1/2-y,1/2+z
loop_
_atom_site_type_symbol
_atom_site_label
_atom_site_fract_x
_atom_site_fract_y
_atom_site_fract_z
Si Si1 0.348982 0.906590 0.782387
Si Si2 0.500109 0.170067 0.202976
Si Si3 0.798343 0.337299 0.720938
Si Si4 0.385347 0.039089 0.596583
Si Si5 0.161230 0.055861 0.904250
Si Si6 0.189078 0.874549 0.400872
Si Si7 0.478534 0.572588 0.811041
Si Si8 0.129354 0.808996 0.593553
O O1 0.420215 0.850764 0.809811
O O2 0.282893 0.826351 0.771592
O O3 0.359802 0.971182 0.685707
O O4 0.331151 0.002625 0.857824
O O5 0.496055 0.306481 0.238858
O O6 0.449967 0.171164 0.116445
O O7 0.477601 0.052944 0.258930
O O8 0.815651 0.442364 0.652967
O O9 0.829488 0.223284 0.673538
O O10 0.829673 0.359183 0.820090
O O11 0.363576 0.976821 0.504713
O O12 0.466232 0.051266 0.609778
O O13 0.357047 0.170310 0.594419
O O14 0.229400 0.131525 0.912875
O O15 0.095457 0.099573 0.850254
O O16 0.153087 0.856632 0.497101
#
# Coordination Sequence:
#
# PCOD9459523 Si02
#       8
#     8   8   8   8   8   8   8   8
#     4  10  22  39  60  89 125 159 208 263 312 372
#     4  10  22  40  65  93 126 167 211 261 314 379
#     4  11  21  38  61  86 121 167 204 261 321 371
#     4  10  20  37  62  90 120 163 212 256 311 382
#     4  11  21  37  61  91 121 162 210 257 315 376
#     4  11  23  37  62  86 123 162 208 262 315 374
#     4  10  21  39  66  93 129 164 212 260 317 376
#     4  11  21  39  61  88 120 164 211 254 318 384
#
# _framework density 19.310963999999998
#
# number of rings (size 3 to 8) (size 9 to 14) (size 15 to 20)
#    0.000    1.500    3.750    1.875    0.000    0.500 
#    0.000    0.000   13.750    0.000    0.000    0.000 
#    0.000    0.000    0.000    0.000    0.000    0.000 
#
# Total GULP energy -356666.630889 kJ/mol
# GULP energy per Si atom -5572.916108 kJ/mol
# Density = 1.926701 g / cm^3
# Si number density = 19.310964 Si / 1000 Ang^3
#
#
#
# Elastic Constant Matrix: (Units=GPa)
#
#
# Indices 1 2 3 4 5 6 
#
# 1 103.2192 13.0048 41.6240 0.0000 0.0000 0.0000
# 2 13.0048 77.5556 40.4391 0.0000 0.0000 0.0000
# 3 41.6240 40.4391 89.7300 0.0000 0.0000 0.0000
# 4 0.0000 0.0000 0.0000 17.1675 0.0000 0.0000
# 5 0.0000 0.0000 0.0000 0.0000 22.3880 0.0000
# 6 0.0000 0.0000 0.0000 0.0000 0.0000 1.1406
#
#
#
# Elastic Compliance Matrix: (Units=1/GPa)
#
#
# Indices 1 2 3 4 5 6 
#
# 1 0.011997 0.001164 -0.006090 0.000000 0.000000 0.000000
# 2 0.001164 0.016968 -0.008187 0.000000 0.000000 0.000000
# 3 -0.006090 -0.008187 0.017659 0.000000 0.000000 0.000000
# 4 0.000000 0.000000 0.000000 0.058250 0.000000 0.000000
# 5 0.000000 0.000000 0.000000 0.000000 0.044667 0.000000
# 6 0.000000 0.000000 0.000000 0.000000 0.000000 0.876737
#
#
# Mechanical properties :
#
#
# Convention : Reuss Voigt Hill
#
# Bulk Modulus (GPa) = 49.02384 51.18230 50.10307
# Shear Modulus (GPa) = 4.72009 19.83501 12.27755
#
# Velocity S-wave (km/s) = 1.56511 3.20838 2.52421
# Velocity P-wave (km/s) = 5.35796 6.34718 5.87343
#
# Compressibility (1/GPa) = 0.02039824
#
# Stress axis : x y z
#
# Youngs Moduli (GPa) = 83.35257 58.93610 56.62865
#
# Poissons Ratio (x) = -0.06857 0.34485
# Poissons Ratio (y) = -0.09698 0.46360
# Poissons Ratio (z) = 0.50759 0.48249
#
# Static dielectric constant tensor:
#      x y z
#    x 1.704690 0.000000 0.000000 
#    y 0.000000 1.698920 0.000000 
#    z 0.000000 0.000000 1.628240 
# 
# From -- ./inp_files/5991.got.cif
#   From: 2010.05.17/outbox.cif.g08.bks.cpg/sg61_3_cif.got.tgz:5991.got - 2010.06.03 15:17:17.
