data_PCOD9459743
_publ_section_title
;
Structure prediction by ZEFSAII (Michael W. Deem and Ramdas Pophale) SiO2 
 PCOD9459743
Probable space group: P B C A
;
_chemical_formula_sum "Si O2"
_cell_formula_units_Z 44
_cell_length_a 9.488610
_cell_length_b 16.614293
_cell_length_c 10.032635
_cell_angle_alpha 90.000000
_cell_angle_beta 90.000000
_cell_angle_gamma 90.000000
_cell_volume 1581.610262
_symmetry_space_group_name_H-M "P B C A"
_symmetry_group_IT_number 61
_symmetry_cell_setting 'orthorhombic'
loop_
_space_group_symop_operation_xyz
x,y,z
1/2-x,-y,1/2+z
1/2+x,1/2-y,-z
-x,1/2+y,1/2-z
-x,-y,-z
1/2+x,y,1/2-z
1/2-x,1/2+y,z
x,1/2-y,1/2+z
loop_
_atom_site_type_symbol
_atom_site_label
_atom_site_fract_x
_atom_site_fract_y
_atom_site_fract_z
Si Si1 0.212010 0.204585 0.721375
Si Si2 0.554138 0.657759 0.595265
Si Si3 0.000000 0.500000 0.500000
Si Si4 0.442502 0.322782 0.007320
Si Si5 0.730559 0.622251 0.242240
Si Si6 0.512690 0.018795 0.175238
O O1 0.289156 0.176352 0.855186
O O2 0.052124 0.178105 0.716675
O O3 0.307833 0.166386 0.605424
O O4 0.205714 0.299371 0.690918
O O5 0.514167 0.727702 0.487748
O O6 0.526282 0.562577 0.589427
O O7 0.035641 0.402796 0.488603
O O8 0.983710 0.502228 0.335294
O O9 0.375862 0.335722 0.860509
O O10 0.636533 0.565606 0.335851
O O11 0.846707 0.572601 0.160580
#
# Coordination Sequence:
#
# PCOD9459743 Si02
#       6
#     8   8   4   8   8   8
#     4  11  22  44  66  99 140 177 238 280 355 424
#     4  11  24  42  69 100 133 184 224 296 347 414
#     4  10  20  42  70  90 130 184 222 266 352 416
#     4  10  23  42  67 100 133 183 226 285 354 420
#     4  10  23  42  67  95 135 178 223 287 342 411
#     4  11  22  44  66  98 135 176 227 281 348 410
#
# _framework density 27.819748000000001
#
# number of rings (size 3 to 8) (size 9 to 14) (size 15 to 20)
#    0.000    1.455    1.818    4.364    0.000    4.364 
#   19.636    1.818    0.000    0.000    0.000    0.000 
#    0.000    0.000    0.000    0.000    0.000    0.000 
#
# Total GULP energy -245007.904189 kJ/mol
# GULP energy per Si atom -5568.361459 kJ/mol
# Density = 2.775643 g / cm^3
# Si number density = 27.819748 Si / 1000 Ang^3
#
#
#
# Elastic Constant Matrix: (Units=GPa)
#
#
# Indices 1 2 3 4 5 6 
#
# 1 126.1894 74.3193 -1.2618 0.0000 0.0000 0.0000
# 2 74.3193 257.0264 19.8700 0.0000 0.0000 0.0000
# 3 -1.2618 19.8700 71.7799 0.0000 0.0000 0.0000
# 4 0.0000 0.0000 0.0000 48.0330 0.0000 0.0000
# 5 0.0000 0.0000 0.0000 0.0000 33.2915 0.0000
# 6 0.0000 0.0000 0.0000 0.0000 0.0000 34.9512
#
#
#
# Elastic Compliance Matrix: (Units=1/GPa)
#
#
# Indices 1 2 3 4 5 6 
#
# 1 0.009615 -0.002854 0.000959 0.000000 0.000000 0.000000
# 2 -0.002854 0.004823 -0.001385 0.000000 0.000000 0.000000
# 3 0.000959 -0.001385 0.014332 0.000000 0.000000 0.000000
# 4 0.000000 0.000000 0.000000 0.020819 0.000000 0.000000
# 5 0.000000 0.000000 0.000000 0.000000 0.030038 0.000000
# 6 0.000000 0.000000 0.000000 0.000000 0.000000 0.028611
#
#
# Mechanical properties :
#
#
# Convention : Reuss Voigt Hill
#
# Bulk Modulus (GPa) = 45.02652 71.20564 58.11608
# Shear Modulus (GPa) = 40.91571 47.39300 44.15436
#
# Velocity S-wave (km/s) = 3.83919 4.13192 3.98824
# Velocity P-wave (km/s) = 5.98938 6.95806 6.49181
#
# Compressibility (1/GPa) = 0.02220913
#
# Stress axis : x y z
#
# Youngs Moduli (GPa) = 104.00090 207.33542 69.77486
#
# Poissons Ratio (x) = 0.59182 -0.06693
# Poissons Ratio (y) = 0.29686 0.09666
# Poissons Ratio (z) = -0.09976 0.28722
#
# Static dielectric constant tensor:
#      x y z
#    x 2.123620 0.000000 0.000000 
#    y 0.000000 2.165620 0.000000 
#    z 0.000000 0.000000 2.238620 
# 
# From -- ./inp_files/5213.got.cif
#   From: 2010.05.17/outbox.cif.g08.bks.cpg/sg61_3_cif.got.tgz:5213.got - 2010.06.03 15:17:17.
