data_PCOD9459149
_publ_section_title
;
Structure prediction by ZEFSAII (Michael W. Deem and Ramdas Pophale) SiO2 
 PCOD9459149
Probable space group: P B C A
;
_chemical_formula_sum "Si O2"
_cell_formula_units_Z 56
_cell_length_a 5.279546
_cell_length_b 22.433832
_cell_length_c 23.404044
_cell_angle_alpha 90.000000
_cell_angle_beta 90.000000
_cell_angle_gamma 90.000000
_cell_volume 2771.985456
_symmetry_space_group_name_H-M "P B C A"
_symmetry_group_IT_number 61
_symmetry_cell_setting 'orthorhombic'
loop_
_space_group_symop_operation_xyz
x,y,z
1/2-x,-y,1/2+z
1/2+x,1/2-y,-z
-x,1/2+y,1/2-z
-x,-y,-z
1/2+x,y,1/2-z
1/2-x,1/2+y,z
x,1/2-y,1/2+z
loop_
_atom_site_type_symbol
_atom_site_label
_atom_site_fract_x
_atom_site_fract_y
_atom_site_fract_z
Si Si1 0.044031 0.213046 0.500589
Si Si2 0.282672 0.887975 0.911803
Si Si3 0.768009 0.551491 0.456773
Si Si4 0.828317 0.387830 0.077153
Si Si5 0.830323 0.058359 0.889938
Si Si6 0.650431 0.385484 0.721165
Si Si7 0.111380 0.980041 0.231044
O O1 0.302275 0.247091 0.517702
O O2 0.130860 0.168172 0.450235
O O3 0.927404 0.174605 0.552678
O O4 0.512185 0.934806 0.920934
O O5 0.276025 0.876006 0.844299
O O6 0.011367 0.911418 0.934259
O O7 0.699041 0.571642 0.520202
O O8 0.827847 0.482466 0.446467
O O9 0.552850 0.393195 0.105338
O O10 0.052768 0.414292 0.115248
O O11 0.889577 0.014753 0.837024
O O12 0.375317 0.361884 0.738621
O O13 0.628432 0.456863 0.735349
O O14 0.363076 0.946952 0.249232
#
# Coordination Sequence:
#
# PCOD9459149 Si02
#       7
#     8   8   8   8   8   8   8
#     4  11  23  42  63  84 112 147 200 258 307 349
#     4  11  21  36  59  88 117 156 196 240 296 349
#     4  11  20  34  53  81 124 158 184 220 277 357
#     4  11  23  36  54  85 114 151 197 233 281 353
#     4  12  21  34  54  82 123 161 184 223 280 349
#     4  10  19  32  51  81 117 149 186 230 273 337
#     4  10  19  32  49  75 110 154 193 220 259 324
#
# _framework density 20.202124000000001
#
# number of rings (size 3 to 8) (size 9 to 14) (size 15 to 20)
#    0.000    1.143    0.000   11.143    0.000    0.000 
#    0.000    0.000    0.000    0.000    0.000   20.000 
#    0.000    0.000    0.000    0.000    0.000    0.000 
#
# Total GULP energy -312579.392070 kJ/mol
# GULP energy per Si atom -5581.774858 kJ/mol
# Density = 2.015614 g / cm^3
# Si number density = 20.202124 Si / 1000 Ang^3
#
#
#
# Elastic Constant Matrix: (Units=GPa)
#
#
# Indices 1 2 3 4 5 6 
#
# 1 163.0335 16.6929 8.3679 0.0000 0.0000 0.0000
# 2 16.6929 44.6619 -2.3462 0.0000 0.0000 0.0000
# 3 8.3679 -2.3462 48.7194 0.0000 0.0000 0.0000
# 4 0.0000 0.0000 0.0000 10.8328 0.0000 0.0000
# 5 0.0000 0.0000 0.0000 0.0000 29.0025 0.0000
# 6 0.0000 0.0000 0.0000 0.0000 0.0000 27.0102
#
#
#
# Elastic Compliance Matrix: (Units=1/GPa)
#
#
# Indices 1 2 3 4 5 6 
#
# 1 0.006450 -0.002475 -0.001227 0.000000 0.000000 0.000000
# 2 -0.002475 0.023397 0.001552 0.000000 0.000000 0.000000
# 3 -0.001227 0.001552 0.020811 0.000000 0.000000 0.000000
# 4 0.000000 0.000000 0.000000 0.092312 0.000000 0.000000
# 5 0.000000 0.000000 0.000000 0.000000 0.034480 0.000000
# 6 0.000000 0.000000 0.000000 0.000000 0.000000 0.037023
#
#
# Mechanical properties :
#
#
# Convention : Reuss Voigt Hill
#
# Bulk Modulus (GPa) = 21.57146 33.53822 27.55484
# Shear Modulus (GPa) = 21.34684 28.94913 25.14798
#
# Velocity S-wave (km/s) = 3.25416 3.78957 3.53203
# Velocity P-wave (km/s) = 4.98201 5.98207 5.50480
#
# Compressibility (1/GPa) = 0.04635756
#
# Stress axis : x y z
#
# Youngs Moduli (GPa) = 155.03560 42.74026 48.05110
#
# Poissons Ratio (x) = 0.10579 0.05896
# Poissons Ratio (y) = 0.38376 -0.07457
# Poissons Ratio (z) = 0.19024 -0.06633
#
# Static dielectric constant tensor:
#      x y z
#    x 1.831790 0.000000 0.000000 
#    y 0.000000 1.731630 0.000000 
#    z 0.000000 0.000000 1.750470 
# 
# From -- ./inp_files/9995.got.cif
#   From: 2010.05.17/outbox.cif.g08.bks.cpg/sg61_5_cif.got.tgz:9995.got - 2010.06.03 15:17:17.
