data_PCOD9459974
_publ_section_title
;
Structure prediction by ZEFSAII (Michael W. Deem and Ramdas Pophale) SiO2 
 PCOD9459974
Probable space group: P B C A
;
_chemical_formula_sum "Si O2"
_cell_formula_units_Z 48
_cell_length_a 8.925359
_cell_length_b 28.381610
_cell_length_c 8.381511
_cell_angle_alpha 90.000000
_cell_angle_beta 90.000000
_cell_angle_gamma 90.000000
_cell_volume 2123.171329
_symmetry_space_group_name_H-M "P B C A"
_symmetry_group_IT_number 61
_symmetry_cell_setting 'orthorhombic'
loop_
_space_group_symop_operation_xyz
x,y,z
1/2-x,-y,1/2+z
1/2+x,1/2-y,-z
-x,1/2+y,1/2-z
-x,-y,-z
1/2+x,y,1/2-z
1/2-x,1/2+y,z
x,1/2-y,1/2+z
loop_
_atom_site_type_symbol
_atom_site_label
_atom_site_fract_x
_atom_site_fract_y
_atom_site_fract_z
Si Si1 0.606237 0.040428 0.073161
Si Si2 0.443076 0.394737 0.376496
Si Si3 0.109477 0.520730 0.633028
Si Si4 0.571667 0.705160 0.076891
Si Si5 0.864985 0.656693 0.633601
Si Si6 0.273085 0.751333 0.202140
O O1 0.648565 0.022502 0.248207
O O2 0.513420 0.087749 0.042326
O O3 0.750156 0.041329 0.961006
O O4 0.500000 0.000000 0.000000
O O5 0.450373 0.437362 0.246186
O O6 0.546811 0.355619 0.295490
O O7 0.272615 0.378304 0.393003
O O8 0.000000 0.500000 0.500000
O O9 0.435819 0.738141 0.136568
O O10 0.691903 0.705988 0.219305
O O11 0.486333 0.659452 0.008361
O O12 0.661830 0.726324 0.927145
O O13 0.796049 0.708427 0.663705
#
# Coordination Sequence:
#
# PCOD9459974 Si02
#       6
#     8   8   8   8   8   8
#     4  10  21  39  67  96 130 176 230 264 329 409
#     4  11  23  42  66  99 137 180 221 285 349 406
#     4  11  23  42  71  98 131 179 229 273 330 415
#     4  12  23  42  69  98 131 179 238 287 347 423
#     4  12  23  41  70  97 138 177 224 286 362 388
#     4  12  23  42  70  96 130 181 241 285 341 430
#
# _framework density 22.607692
#
# number of rings (size 3 to 8) (size 9 to 14) (size 15 to 20)
#    0.000    0.667    6.667    2.000    2.333    0.000 
#    0.000    1.667    0.000    0.000    0.000    0.000 
#    0.000    0.000    0.000    0.000    0.000    0.000 
#
# Total GULP energy -268159.559219 kJ/mol
# GULP energy per Si atom -5586.657484 kJ/mol
# Density = 2.255624 g / cm^3
# Si number density = 22.607692 Si / 1000 Ang^3
#
#
#
# Elastic Constant Matrix: (Units=GPa)
#
#
# Indices 1 2 3 4 5 6 
#
# 1 82.4851 -2.6870 7.6544 0.0000 0.0000 0.0000
# 2 -2.6870 38.4771 -1.1542 0.0000 0.0000 0.0000
# 3 7.6544 -1.1542 53.8313 0.0000 0.0000 0.0000
# 4 0.0000 0.0000 0.0000 34.4178 0.0000 0.0000
# 5 0.0000 0.0000 0.0000 0.0000 39.1954 0.0000
# 6 0.0000 0.0000 0.0000 0.0000 0.0000 40.6732
#
#
#
# Elastic Compliance Matrix: (Units=1/GPa)
#
#
# Indices 1 2 3 4 5 6 
#
# 1 0.012311 0.000808 -0.001733 0.000000 0.000000 0.000000
# 2 0.000808 0.026059 0.000444 0.000000 0.000000 0.000000
# 3 -0.001733 0.000444 0.018833 0.000000 0.000000 0.000000
# 4 0.000000 0.000000 0.000000 0.029055 0.000000 0.000000
# 5 0.000000 0.000000 0.000000 0.000000 0.025513 0.000000
# 6 0.000000 0.000000 0.000000 0.000000 0.000000 0.024586
#
#
# Mechanical properties :
#
#
# Convention : Reuss Voigt Hill
#
# Bulk Modulus (GPa) = 17.78120 20.26886 19.02503
# Shear Modulus (GPa) = 32.03774 34.25596 33.14685
#
# Velocity S-wave (km/s) = 3.76855 3.89682 3.83322
# Velocity P-wave (km/s) = 5.17862 5.40666 5.29387
#
# Compressibility (1/GPa) = 0.05623917
#
# Stress axis : x y z
#
# Youngs Moduli (GPa) = 81.23112 38.37417 53.09964
#
# Poissons Ratio (x) = -0.03100 0.09203
# Poissons Ratio (y) = -0.06561 -0.02357
# Poissons Ratio (z) = 0.14079 -0.01703
#
# Static dielectric constant tensor:
#      x y z
#    x 1.864410 0.000000 0.000000 
#    y 0.000000 1.928390 0.000000 
#    z 0.000000 0.000000 1.879720 
# 
# From -- ./inp_files/1851.got.cif
#   From: 2010.05.17/outbox.cif.g08.bks.cpg/sg61_1_cif.got.tgz:1851.got - 2010.06.03 15:17:17.
