data_PCOD9459833
_publ_section_title
;
Structure prediction by ZEFSAII (Michael W. Deem and Ramdas Pophale) SiO2 
 PCOD9459833
Probable space group: P B C A
;
_chemical_formula_sum "Si O2"
_cell_formula_units_Z 48
_cell_length_a 14.266639
_cell_length_b 8.163216
_cell_length_c 17.329282
_cell_angle_alpha 90.000000
_cell_angle_beta 90.000000
_cell_angle_gamma 90.000000
_cell_volume 2018.196875
_symmetry_space_group_name_H-M "P B C A"
_symmetry_group_IT_number 61
_symmetry_cell_setting 'orthorhombic'
loop_
_space_group_symop_operation_xyz
x,y,z
1/2-x,-y,1/2+z
1/2+x,1/2-y,-z
-x,1/2+y,1/2-z
-x,-y,-z
1/2+x,y,1/2-z
1/2-x,1/2+y,z
x,1/2-y,1/2+z
loop_
_atom_site_type_symbol
_atom_site_label
_atom_site_fract_x
_atom_site_fract_y
_atom_site_fract_z
Si Si1 0.234216 0.477285 0.648640
Si Si2 0.228769 0.535769 0.328996
Si Si3 0.878604 0.271269 0.932068
Si Si4 0.449726 0.648857 0.847223
Si Si5 0.621075 0.842094 0.110864
Si Si6 0.446102 0.698682 0.179783
O O1 0.255695 0.505696 0.739049
O O2 0.180031 0.619846 0.603667
O O3 0.329889 0.426004 0.607952
O O4 0.158557 0.327530 0.649115
O O5 0.153663 0.412773 0.368211
O O6 0.327342 0.512362 0.371951
O O7 0.179899 0.711813 0.337223
O O8 0.986321 0.241560 0.908791
O O9 0.869304 0.287515 0.023110
O O10 0.504685 0.478855 0.828261
O O11 0.444532 0.749212 0.768371
O O12 0.513748 0.824989 0.135987
#
# Coordination Sequence:
#
# PCOD9459833 Si02
#       6
#     8   8   8   8   8   8
#     4  11  22  40  64  87 116 158 206 248 293 356
#     4  11  22  40  64  87 116 158 206 248 293 356
#     4  11  23  38  59  89 123 157 195 247 309 362
#     4  10  21  37  60  85 114 152 199 248 296 355
#     4  11  23  38  59  89 123 157 195 247 309 362
#     4  10  21  37  60  85 114 152 199 248 296 355
#
# _framework density 23.783605999999999
#
# number of rings (size 3 to 8) (size 9 to 14) (size 15 to 20)
#    0.000    1.333    0.000    8.000    0.000    7.333 
#    0.000    0.000    0.000   11.000    0.000    0.000 
#    0.000    0.000    0.000    0.000    0.000    0.000 
#
# Total GULP energy -268739.915019 kJ/mol
# GULP energy per Si atom -5598.748230 kJ/mol
# Density = 2.372947 g / cm^3
# Si number density = 23.783606 Si / 1000 Ang^3
#
#
#
# Elastic Constant Matrix: (Units=GPa)
#
#
# Indices 1 2 3 4 5 6 
#
# 1 131.3534 28.7044 22.6603 0.0000 0.0000 0.0000
# 2 28.7044 38.5262 2.9488 0.0000 0.0000 0.0000
# 3 22.6603 2.9488 81.5391 0.0000 0.0000 0.0000
# 4 0.0000 0.0000 0.0000 22.1203 0.0000 0.0000
# 5 0.0000 0.0000 0.0000 0.0000 5.4793 0.0000
# 6 0.0000 0.0000 0.0000 0.0000 0.0000 48.5624
#
#
#
# Elastic Compliance Matrix: (Units=1/GPa)
#
#
# Indices 1 2 3 4 5 6 
#
# 1 0.009540 -0.006924 -0.002401 0.000000 0.000000 0.000000
# 2 -0.006924 0.031054 0.000801 0.000000 0.000000 0.000000
# 3 -0.002401 0.000801 0.012902 0.000000 0.000000 0.000000
# 4 0.000000 0.000000 0.000000 0.045207 0.000000 0.000000
# 5 0.000000 0.000000 0.000000 0.000000 0.182506 0.000000
# 6 0.000000 0.000000 0.000000 0.000000 0.000000 0.020592
#
#
# Mechanical properties :
#
#
# Convention : Reuss Voigt Hill
#
# Bulk Modulus (GPa) = 27.43577 40.00508 33.72043
# Shear Modulus (GPa) = 15.10572 28.37275 21.73924
#
# Velocity S-wave (km/s) = 2.52292 3.45766 3.02659
# Velocity P-wave (km/s) = 4.47744 5.72691 5.14028
#
# Compressibility (1/GPa) = 0.03644877
#
# Stress axis : x y z
#
# Youngs Moduli (GPa) = 104.81706 32.20178 77.50544
#
# Poissons Ratio (x) = 0.22298 0.18609
# Poissons Ratio (y) = 0.72580 -0.06211
# Poissons Ratio (z) = 0.25166 -0.02580
#
# Static dielectric constant tensor:
#      x y z
#    x 1.916380 0.000000 0.000000 
#    y 0.000000 1.987180 0.000000 
#    z 0.000000 0.000000 1.787410 
# 
# From -- ./inp_files/3461.got.cif
#   From: 2010.05.17/outbox.cif.g08.bks.cpg/sg61_2_cif.got.tgz:3461.got - 2010.06.03 15:17:17.
