data_PCOD9459549
_publ_section_title
;
Structure prediction by ZEFSAII (Michael W. Deem and Ramdas Pophale) SiO2 
 PCOD9459549
Probable space group: P B C A
;
_chemical_formula_sum "Si O2"
_cell_formula_units_Z 48
_cell_length_a 16.931072
_cell_length_b 16.349549
_cell_length_c 9.908062
_cell_angle_alpha 90.000000
_cell_angle_beta 90.000000
_cell_angle_gamma 90.000000
_cell_volume 2742.704059
_symmetry_space_group_name_H-M "P B C A"
_symmetry_group_IT_number 61
_symmetry_cell_setting 'orthorhombic'
loop_
_space_group_symop_operation_xyz
x,y,z
1/2-x,-y,1/2+z
1/2+x,1/2-y,-z
-x,1/2+y,1/2-z
-x,-y,-z
1/2+x,y,1/2-z
1/2-x,1/2+y,z
x,1/2-y,1/2+z
loop_
_atom_site_type_symbol
_atom_site_label
_atom_site_fract_x
_atom_site_fract_y
_atom_site_fract_z
Si Si1 0.652979 0.911388 0.949295
Si Si2 0.937748 0.248574 0.871777
Si Si3 0.661126 0.437131 0.944596
Si Si4 0.483435 0.665511 0.127249
Si Si5 0.571839 0.499679 0.202875
Si Si6 0.596235 0.578646 0.753729
O O1 0.621466 0.821235 0.911150
O O2 0.747111 0.917011 0.943909
O O3 0.615278 0.972676 0.839069
O O4 0.623044 0.930722 0.099736
O O5 0.893962 0.171121 0.805421
O O6 0.998664 0.285443 0.763176
O O7 0.984039 0.217141 0.002531
O O8 0.606138 0.363104 0.892337
O O9 0.642017 0.514455 0.848312
O O10 0.629664 0.459586 0.093916
O O11 0.534171 0.581481 0.136217
O O12 0.496925 0.442319 0.233267
#
# Coordination Sequence:
#
# PCOD9459549 Si02
#       6
#     8   8   8   8   8   8
#     4  11  24  36  58  93 125 145 198 253 301 335
#     4  11  20  38  61  83 114 161 197 237 284 355
#     4  11  21  40  59  89 119 157 192 249 303 343
#     4  10  20  38  60  82 111 158 202 231 286 364
#     4  10  20  38  65  82 115 159 204 232 288 361
#     4  11  20  39  65  83 116 162 201 237 287 360
#
# _framework density 17.500976999999999
#
# number of rings (size 3 to 8) (size 9 to 14) (size 15 to 20)
#    0.000    1.333    5.000    2.500    0.000    0.000 
#    3.000    0.000    0.000    0.000    0.000    0.000 
#    0.000    0.000    0.000    0.000    0.000    0.000 
#
# Total GULP energy -268121.763879 kJ/mol
# GULP energy per Si atom -5585.870081 kJ/mol
# Density = 1.746114 g / cm^3
# Si number density = 17.500977 Si / 1000 Ang^3
#
#
#
# Elastic Constant Matrix: (Units=GPa)
#
#
# Indices 1 2 3 4 5 6 
#
# 1 111.0386 46.0371 69.6629 0.0000 0.0000 0.0000
# 2 46.0371 74.3279 48.0740 0.0000 0.0000 0.0000
# 3 69.6629 48.0740 140.7231 0.0000 0.0000 0.0000
# 4 0.0000 0.0000 0.0000 10.1589 0.0000 0.0000
# 5 0.0000 0.0000 0.0000 0.0000 23.6517 0.0000
# 6 0.0000 0.0000 0.0000 0.0000 0.0000 16.4201
#
#
#
# Elastic Compliance Matrix: (Units=1/GPa)
#
#
# Indices 1 2 3 4 5 6 
#
# 1 0.014703 -0.005647 -0.005350 0.000000 0.000000 0.000000
# 2 -0.005647 0.019438 -0.003845 0.000000 0.000000 0.000000
# 3 -0.005350 -0.003845 0.011068 0.000000 0.000000 0.000000
# 4 0.000000 0.000000 0.000000 0.098436 0.000000 0.000000
# 5 0.000000 0.000000 0.000000 0.000000 0.042280 0.000000
# 6 0.000000 0.000000 0.000000 0.000000 0.000000 0.060901
#
#
# Mechanical properties :
#
#
# Convention : Reuss Voigt Hill
#
# Bulk Modulus (GPa) = 64.40619 72.62641 68.51630
# Shear Modulus (GPa) = 17.75026 20.86717 19.30872
#
# Velocity S-wave (km/s) = 3.18817 3.45678 3.32519
# Velocity P-wave (km/s) = 7.10169 7.58426 7.34694
#
# Compressibility (1/GPa) = 0.01552646
#
# Stress axis : x y z
#
# Youngs Moduli (GPa) = 68.01196 51.44443 90.35095
#
# Poissons Ratio (x) = 0.29050 0.48334
# Poissons Ratio (y) = 0.38406 0.34741
# Poissons Ratio (z) = 0.36383 0.19781
#
# Static dielectric constant tensor:
#      x y z
#    x 1.553240 0.000000 0.000000 
#    y 0.000000 1.595820 0.000000 
#    z 0.000000 0.000000 1.594140 
# 
# From -- ./inp_files/2857.got.cif
#   From: 2010.05.17/outbox.cif.g08.bks.cpg/sg61_2_cif.got.tgz:2857.got - 2010.06.03 15:17:17.
