data_PCOD9459871
_publ_section_title
;
Structure prediction by ZEFSAII (Michael W. Deem and Ramdas Pophale) SiO2 
 PCOD9459871
Probable space group: P B C A
;
_chemical_formula_sum "Si O2"
_cell_formula_units_Z 64
_cell_length_a 13.253722
_cell_length_b 26.402268
_cell_length_c 7.716775
_cell_angle_alpha 90.000000
_cell_angle_beta 90.000000
_cell_angle_gamma 90.000000
_cell_volume 2700.318113
_symmetry_space_group_name_H-M "P B C A"
_symmetry_group_IT_number 61
_symmetry_cell_setting 'orthorhombic'
loop_
_space_group_symop_operation_xyz
x,y,z
1/2-x,-y,1/2+z
1/2+x,1/2-y,-z
-x,1/2+y,1/2-z
-x,-y,-z
1/2+x,y,1/2-z
1/2-x,1/2+y,z
x,1/2-y,1/2+z
loop_
_atom_site_type_symbol
_atom_site_label
_atom_site_fract_x
_atom_site_fract_y
_atom_site_fract_z
Si Si1 0.767424 0.659669 0.722144
Si Si2 0.923712 0.762805 0.093613
Si Si3 0.760297 0.202792 0.115745
Si Si4 0.078443 0.707664 0.849010
Si Si5 0.812341 0.558647 0.914906
Si Si6 0.553387 0.514787 0.273835
Si Si7 0.714637 0.901764 0.773498
Si Si8 0.850428 0.526297 0.418380
O O1 0.653620 0.659738 0.641737
O O2 0.809485 0.606267 0.787352
O O3 0.842200 0.690832 0.595071
O O4 0.754798 0.688631 0.911946
O O5 0.021605 0.791370 0.167033
O O6 0.848342 0.722230 0.186298
O O7 0.981902 0.723986 0.963978
O O8 0.841762 0.246909 0.133034
O O9 0.798612 0.156595 0.231608
O O10 0.918410 0.528826 0.911748
O O11 0.731873 0.515427 0.862525
O O12 0.770654 0.578208 0.098259
O O13 0.612160 0.567345 0.304112
O O14 0.440704 0.524782 0.216824
O O15 0.604699 0.490232 0.101027
O O16 0.792992 0.920189 0.918352
#
# Coordination Sequence:
#
# PCOD9459871 Si02
#       8
#     8   8   8   8   8   8   8   8
#     4  10  21  38  59  84 115 150 194 238 287 351
#     4  11  22  39  59  82 114 150 190 241 289 351
#     4  10  21  38  58  84 115 152 192 242 290 341
#     4  11  22  39  60  83 114 151 191 238 293 347
#     4   9  19  36  55  80 109 146 182 230 276 327
#     4   9  18  35  56  80 111 147 183 225 281 329
#     4   9  19  36  55  77 114 143 183 232 274 329
#     4   9  18  35  56  80 111 146 184 227 275 333
#
# _framework density 23.700913
#
# number of rings (size 3 to 8) (size 9 to 14) (size 15 to 20)
#    0.000    2.250    2.500    0.000    0.000    2.500 
#    9.000    0.000    0.000    0.000    0.000    0.000 
#    0.000    0.000    0.000    0.000    0.000    0.000 
#
# Total GULP energy -356571.399272 kJ/mol
# GULP energy per Si atom -5571.428114 kJ/mol
# Density = 2.364697 g / cm^3
# Si number density = 23.700913 Si / 1000 Ang^3
#
#
#
# Elastic Constant Matrix: (Units=GPa)
#
#
# Indices 1 2 3 4 5 6 
#
# 1 76.4850 -14.4440 -1.0758 0.0000 0.0000 0.0000
# 2 -14.4440 67.0715 -7.9277 0.0000 0.0000 0.0000
# 3 -1.0758 -7.9277 51.9701 0.0000 0.0000 0.0000
# 4 0.0000 0.0000 0.0000 24.5633 0.0000 0.0000
# 5 0.0000 0.0000 0.0000 0.0000 30.1171 0.0000
# 6 0.0000 0.0000 0.0000 0.0000 0.0000 20.3105
#
#
#
# Elastic Compliance Matrix: (Units=1/GPa)
#
#
# Indices 1 2 3 4 5 6 
#
# 1 0.013657 0.003029 0.000745 0.000000 0.000000 0.000000
# 2 0.003029 0.015855 0.002481 0.000000 0.000000 0.000000
# 3 0.000745 0.002481 0.019636 0.000000 0.000000 0.000000
# 4 0.000000 0.000000 0.000000 0.040711 0.000000 0.000000
# 5 0.000000 0.000000 0.000000 0.000000 0.033204 0.000000
# 6 0.000000 0.000000 0.000000 0.000000 0.000000 0.049236
#
#
# Mechanical properties :
#
#
# Convention : Reuss Voigt Hill
#
# Bulk Modulus (GPa) = 16.21847 16.51462 16.36655
# Shear Modulus (GPa) = 27.72531 29.59645 28.66088
#
# Velocity S-wave (km/s) = 3.42394 3.53760 3.48123
# Velocity P-wave (km/s) = 4.74226 4.86510 4.80407
#
# Compressibility (1/GPa) = 0.06165810
#
# Stress axis : x y z
#
# Youngs Moduli (GPa) = 73.22266 63.07136 50.92748
#
# Poissons Ratio (x) = -0.19105 -0.03793
# Poissons Ratio (y) = -0.22180 -0.12637
# Poissons Ratio (z) = -0.05453 -0.15650
#
# Static dielectric constant tensor:
#      x y z
#    x 1.867780 0.000000 0.000000 
#    y 0.000000 1.904010 0.000000 
#    z 0.000000 0.000000 2.108410 
# 
# From -- ./inp_files/5475.got.cif
#   From: 2010.05.17/outbox.cif.g08.bks.cpg/sg61_3_cif.got.tgz:5475.got - 2010.06.03 15:17:17.
