data_PCOD9459007
_publ_section_title
;
Structure prediction by ZEFSAII (Michael W. Deem and Ramdas Pophale) SiO2 
 PCOD9459007
Probable space group: P B C A
;
_chemical_formula_sum "Si O2"
_cell_formula_units_Z 56
_cell_length_a 7.645063
_cell_length_b 15.004782
_cell_length_c 17.587430
_cell_angle_alpha 90.000000
_cell_angle_beta 90.000000
_cell_angle_gamma 90.000000
_cell_volume 2017.498129
_symmetry_space_group_name_H-M "P B C A"
_symmetry_group_IT_number 61
_symmetry_cell_setting 'orthorhombic'
loop_
_space_group_symop_operation_xyz
x,y,z
1/2-x,-y,1/2+z
1/2+x,1/2-y,-z
-x,1/2+y,1/2-z
-x,-y,-z
1/2+x,y,1/2-z
1/2-x,1/2+y,z
x,1/2-y,1/2+z
loop_
_atom_site_type_symbol
_atom_site_label
_atom_site_fract_x
_atom_site_fract_y
_atom_site_fract_z
Si Si1 0.456913 0.369978 0.664769
Si Si2 0.218918 0.505798 0.601162
Si Si3 0.783210 0.724547 0.604469
Si Si4 0.380616 0.740898 0.673842
Si Si5 0.755629 0.588202 0.727356
Si Si6 0.659303 0.826129 0.462711
Si Si7 0.572261 0.913130 0.671854
O O1 0.387642 0.443464 0.606724
O O2 0.621856 0.313770 0.638974
O O3 0.289651 0.307221 0.686353
O O4 0.503520 0.418579 0.742235
O O5 0.199424 0.555625 0.686010
O O6 0.206935 0.570372 0.530207
O O7 0.054105 0.441203 0.603930
O O8 0.966484 0.678299 0.573916
O O9 0.688944 0.649802 0.656798
O O10 0.679496 0.757784 0.530624
O O11 0.390107 0.666659 0.740781
O O12 0.313505 0.700231 0.595949
O O13 0.547613 0.805174 0.666268
O O14 0.799577 0.497251 0.682218
#
# Coordination Sequence:
#
# PCOD9459007 Si02
#       7
#     8   8   8   8   8   8   8
#     4   9  19  34  62  87 118 151 207 259 314 371
#     4   9  19  36  60  89 119 156 201 269 314 359
#     4  11  21  41  58  88 122 169 204 250 307 376
#     4   9  19  36  58  87 118 159 201 260 317 357
#     4  10  19  34  61  88 118 154 203 261 310 360
#     4  10  22  40  58  84 128 170 205 250 308 371
#     4  10  17  35  62  89 113 152 203 254 318 358
#
# _framework density 27.757152000000001
#
# number of rings (size 3 to 8) (size 9 to 14) (size 15 to 20)
#    0.000    2.286    2.857    0.000    0.000    0.571 
#   10.286    0.714    0.000    0.000    0.000    0.000 
#    0.000    0.000    0.000    0.000    0.000    0.000 
#
# Total GULP energy -311804.161184 kJ/mol
# GULP energy per Si atom -5567.931450 kJ/mol
# Density = 2.769398 g / cm^3
# Si number density = 27.757152 Si / 1000 Ang^3
#
#
#
# Elastic Constant Matrix: (Units=GPa)
#
#
# Indices 1 2 3 4 5 6 
#
# 1 -20.5719 -48.8691 19.1864 0.0000 0.0000 0.0000
# 2 -48.8691 105.2883 3.2143 0.0000 0.0000 0.0000
# 3 19.1864 3.2143 34.6342 0.0000 0.0000 0.0000
# 4 0.0000 0.0000 0.0000 38.2855 0.0000 0.0000
# 5 0.0000 0.0000 0.0000 0.0000 38.0709 0.0000
# 6 0.0000 0.0000 0.0000 0.0000 0.0000 1.8746
#
#
#
# Elastic Compliance Matrix: (Units=1/GPa)
#
#
# Indices 1 2 3 4 5 6 
#
# 1 -0.017974 -0.008671 0.010762 0.000000 0.000000 0.000000
# 2 -0.008671 0.005342 0.004308 0.000000 0.000000 0.000000
# 3 0.010762 0.004308 0.022512 0.000000 0.000000 0.000000
# 4 0.000000 0.000000 0.000000 0.026120 0.000000 0.000000
# 5 0.000000 0.000000 0.000000 0.000000 0.026267 0.000000
# 6 0.000000 0.000000 0.000000 0.000000 0.000000 0.533433
#
#
# Mechanical properties :
#
#
# Convention : Reuss Voigt Hill
#
# Bulk Modulus (GPa) = 44.09927 7.37932 25.73929
# Shear Modulus (GPa) = 8.46797 25.36749 16.91773
#
# Velocity S-wave (km/s) = 1.74853 3.02637 2.47147
# Velocity P-wave (km/s) = 4.47197 3.85697 4.17581
#
# Compressibility (1/GPa) = 0.02267611
#
# Stress axis : x y z
#
# Youngs Moduli (GPa) = -55.63529 187.21269 44.42166
#
# Poissons Ratio (x) = 1.62336 -0.47806
# Poissons Ratio (y) = -0.48242 -0.19136
# Poissons Ratio (z) = 0.59874 -0.80649
#
# Static dielectric constant tensor:
#      x y z
#    x 2.285850 0.000000 0.000000 
#    y 0.000000 3.101860 0.000000 
#    z 0.000000 0.000000 2.589810 
# 
# From -- ./inp_files/9321.got.cif
#   From: 2010.05.17/outbox.cif.g08.bks.cpg/sg61_5_cif.got.tgz:9321.got - 2010.06.03 15:17:17.
