data_PCOD9459578
_publ_section_title
;
Structure prediction by ZEFSAII (Michael W. Deem and Ramdas Pophale) SiO2 
 PCOD9459578
Probable space group: P B C A
;
_chemical_formula_sum "Si O2"
_cell_formula_units_Z 60
_cell_length_a 5.405206
_cell_length_b 24.524585
_cell_length_c 18.891640
_cell_angle_alpha 90.000000
_cell_angle_beta 90.000000
_cell_angle_gamma 90.000000
_cell_volume 2504.283997
_symmetry_space_group_name_H-M "P B C A"
_symmetry_group_IT_number 61
_symmetry_cell_setting 'orthorhombic'
loop_
_space_group_symop_operation_xyz
x,y,z
1/2-x,-y,1/2+z
1/2+x,1/2-y,-z
-x,1/2+y,1/2-z
-x,-y,-z
1/2+x,y,1/2-z
1/2-x,1/2+y,z
x,1/2-y,1/2+z
loop_
_atom_site_type_symbol
_atom_site_label
_atom_site_fract_x
_atom_site_fract_y
_atom_site_fract_z
Si Si1 0.500000 0.000000 0.000000
Si Si2 0.037015 0.085266 0.580588
Si Si3 0.361754 0.437620 0.208770
Si Si4 0.666696 0.455528 0.875482
Si Si5 0.179575 0.322030 0.456357
Si Si6 0.039639 0.717672 0.090933
Si Si7 0.292951 0.384841 0.948412
Si Si8 0.145163 0.859093 0.705569
O O1 0.743627 0.981830 0.948669
O O2 0.379114 0.030409 0.921815
O O3 0.255370 0.088956 0.636563
O O4 0.122672 0.075240 0.497050
O O5 0.888458 0.140869 0.578575
O O6 0.637951 0.424610 0.235806
O O7 0.358324 0.500993 0.186834
O O8 0.423725 0.420023 0.889991
O O9 0.855255 0.408862 0.849899
O O10 0.292393 0.286608 0.521006
O O11 0.061074 0.278340 0.404507
O O12 0.991537 0.362618 0.494880
O O13 0.835223 0.670361 0.077878
O O14 0.172119 0.696456 0.160545
O O15 0.889105 0.861781 0.747014
#
# Coordination Sequence:
#
# PCOD9459578 Si02
#       8
#     4   8   8   8   8   8   8   8
#     4  10  20  38  62  98 132 162 222 288 360 400
#     4  10  24  39  66 100 135 177 229 294 352 425
#     4  11  27  46  68  95 138 196 240 275 337 424
#     4  11  22  41  69 102 140 173 231 288 356 417
#     4  11  21  41  67 104 130 171 226 302 365 403
#     4  11  23  40  69 100 136 175 231 288 358 426
#     4  11  21  40  69 103 133 169 219 301 368 403
#     4  12  26  44  67  97 143 188 229 276 339 428
#
# _framework density 23.958942
#
# number of rings (size 3 to 8) (size 9 to 14) (size 15 to 20)
#    0.000    1.067    4.000    2.400    1.867    5.333 
#    0.000    1.333    0.000    0.000    0.000    0.000 
#    0.000    0.000    0.000    0.000    0.000    0.000 
#
# Total GULP energy -334926.351345 kJ/mol
# GULP energy per Si atom -5582.105856 kJ/mol
# Density = 2.390441 g / cm^3
# Si number density = 23.958942 Si / 1000 Ang^3
#
#
#
# Elastic Constant Matrix: (Units=GPa)
#
#
# Indices 1 2 3 4 5 6 
#
# 1 79.4718 18.1798 20.6285 0.0000 0.0000 0.0000
# 2 18.1798 95.2732 14.4720 0.0000 0.0000 0.0000
# 3 20.6285 14.4720 58.3839 0.0000 0.0000 0.0000
# 4 0.0000 0.0000 0.0000 35.6927 0.0000 0.0000
# 5 0.0000 0.0000 0.0000 0.0000 53.7340 0.0000
# 6 0.0000 0.0000 0.0000 0.0000 0.0000 34.5477
#
#
#
# Elastic Compliance Matrix: (Units=1/GPa)
#
#
# Indices 1 2 3 4 5 6 
#
# 1 0.014220 -0.002027 -0.004522 0.000000 0.000000 0.000000
# 2 -0.002027 0.011196 -0.002059 0.000000 0.000000 0.000000
# 3 -0.004522 -0.002059 0.019236 0.000000 0.000000 0.000000
# 4 0.000000 0.000000 0.000000 0.028017 0.000000 0.000000
# 5 0.000000 0.000000 0.000000 0.000000 0.018610 0.000000
# 6 0.000000 0.000000 0.000000 0.000000 0.000000 0.028946
#
#
# Mechanical properties :
#
#
# Convention : Reuss Voigt Hill
#
# Bulk Modulus (GPa) = 36.44754 37.74327 37.09540
# Shear Modulus (GPa) = 34.10964 36.78477 35.44720
#
# Velocity S-wave (km/s) = 3.77725 3.92257 3.85060
# Velocity P-wave (km/s) = 5.85397 6.02519 5.94020
#
# Compressibility (1/GPa) = 0.02743670
#
# Stress axis : x y z
#
# Youngs Moduli (GPa) = 70.32109 89.32062 51.98532
#
# Poissons Ratio (x) = 0.18102 0.23508
# Poissons Ratio (y) = 0.14251 0.10704
# Poissons Ratio (z) = 0.31800 0.18392
#
# Static dielectric constant tensor:
#      x y z
#    x 2.088980 0.000000 0.000000 
#    y 0.000000 2.138780 0.000000 
#    z 0.000000 0.000000 1.993480 
# 
# From -- ./inp_files/8777.got.cif
#   From: 2010.05.17/outbox.cif.g08.bks.cpg/sg61_5_cif.got.tgz:8777.got - 2010.06.03 15:17:17.
