data_PCOD9459786
_publ_section_title
;
Structure prediction by ZEFSAII (Michael W. Deem and Ramdas Pophale) SiO2 
 PCOD9459786
Probable space group: P B C A
;
_chemical_formula_sum "Si O2"
_cell_formula_units_Z 64
_cell_length_a 20.842767
_cell_length_b 15.600238
_cell_length_c 10.298731
_cell_angle_alpha 90.000000
_cell_angle_beta 90.000000
_cell_angle_gamma 90.000000
_cell_volume 3348.654277
_symmetry_space_group_name_H-M "P B C A"
_symmetry_group_IT_number 61
_symmetry_cell_setting 'orthorhombic'
loop_
_space_group_symop_operation_xyz
x,y,z
1/2-x,-y,1/2+z
1/2+x,1/2-y,-z
-x,1/2+y,1/2-z
-x,-y,-z
1/2+x,y,1/2-z
1/2-x,1/2+y,z
x,1/2-y,1/2+z
loop_
_atom_site_type_symbol
_atom_site_label
_atom_site_fract_x
_atom_site_fract_y
_atom_site_fract_z
Si Si1 0.013192 0.603424 0.859322
Si Si2 0.861994 0.799391 0.022093
Si Si3 0.047238 0.589551 0.146929
Si Si4 0.124159 0.175926 0.692949
Si Si5 0.318498 0.014096 0.214271
Si Si6 0.791798 0.517847 0.495615
Si Si7 0.417573 0.436399 0.108143
Si Si8 0.012554 0.377767 0.598001
O O1 0.985018 0.505772 0.858766
O O2 0.951648 0.661358 0.827964
O O3 0.065803 0.605944 0.745710
O O4 0.040946 0.623594 0.001072
O O5 0.842803 0.723601 0.926535
O O6 0.820719 0.885857 0.006057
O O7 0.933390 0.823200 0.972900
O O8 0.863934 0.775021 0.172535
O O9 0.120065 0.575795 0.195156
O O10 0.008412 0.642494 0.255387
O O11 0.152651 0.081497 0.708562
O O12 0.286213 0.018867 0.357327
O O13 0.270456 0.022907 0.094015
O O14 0.844652 0.459398 0.422385
O O15 0.455545 0.527359 0.105342
O O16 0.450163 0.383312 0.992342
#
# Coordination Sequence:
#
# PCOD9459786 Si02
#       8
#     8   8   8   8   8   8   8   8
#     4   9  17  29  49  77 105 130 163 210 268 312
#     4  10  21  35  54  79 109 142 176 219 276 334
#     4   9  17  29  49  78 105 129 164 218 262 308
#     4  10  21  36  53  79 112 140 174 223 274 330
#     4  10  21  36  53  80 110 141 188 231 264 315
#     4  10  21  35  54  80 107 143 188 229 267 316
#     4   9  15  29  51  74 100 130 163 212 264 307
#     4   9  15  29  51  73 100 131 164 204 265 318
#
# _framework density 19.112154
#
# number of rings (size 3 to 8) (size 9 to 14) (size 15 to 20)
#    0.000    2.500    2.500    0.000    3.500    1.000 
#    0.000    0.000    0.000    3.000    0.000    0.000 
#    0.000    0.000    0.000    0.000    0.000    0.000 
#
# Total GULP energy -356782.896607 kJ/mol
# GULP energy per Si atom -5574.732759 kJ/mol
# Density = 1.906865 g / cm^3
# Si number density = 19.112154 Si / 1000 Ang^3
#
#
#
# Elastic Constant Matrix: (Units=GPa)
#
#
# Indices 1 2 3 4 5 6 
#
# 1 57.0123 -6.2289 27.5084 0.0000 0.0000 0.0000
# 2 -6.2289 13.7523 10.1496 0.0000 0.0000 0.0000
# 3 27.5084 10.1496 152.0224 0.0000 0.0000 0.0000
# 4 0.0000 0.0000 0.0000 14.3044 0.0000 0.0000
# 5 0.0000 0.0000 0.0000 0.0000 29.9734 0.0000
# 6 0.0000 0.0000 0.0000 0.0000 0.0000 4.1100
#
#
#
# Elastic Compliance Matrix: (Units=1/GPa)
#
#
# Indices 1 2 3 4 5 6 
#
# 1 0.021250 0.013109 -0.004720 0.000000 0.000000 0.000000
# 2 0.013109 0.084570 -0.008018 0.000000 0.000000 0.000000
# 3 -0.004720 -0.008018 0.007967 0.000000 0.000000 0.000000
# 4 0.000000 0.000000 0.000000 0.069909 0.000000 0.000000
# 5 0.000000 0.000000 0.000000 0.000000 0.033363 0.000000
# 6 0.000000 0.000000 0.000000 0.000000 0.000000 0.243309
#
#
# Mechanical properties :
#
#
# Convention : Reuss Voigt Hill
#
# Bulk Modulus (GPa) = 8.73154 31.73834 20.23494
# Shear Modulus (GPa) = 10.04411 22.43474 16.23943
#
# Velocity S-wave (km/s) = 2.29494 3.42986 2.91811
# Velocity P-wave (km/s) = 3.40600 5.68574 4.68661
#
# Compressibility (1/GPa) = 0.11452730
#
# Stress axis : x y z
#
# Youngs Moduli (GPa) = 47.05924 11.82452 125.51073
#
# Poissons Ratio (x) = -0.15500 0.59245
# Poissons Ratio (y) = -0.61688 1.00637
# Poissons Ratio (z) = 0.22213 0.09481
#
# Static dielectric constant tensor:
#      x y z
#    x 1.638440 0.000000 0.000000 
#    y 0.000000 1.699550 0.000000 
#    z 0.000000 0.000000 1.690080 
# 
# From -- ./inp_files/4386.got.cif
#   From: 2010.05.17/outbox.cif.g08.bks.cpg/sg61_3_cif.got.tgz:4386.got - 2010.06.03 15:17:17.
