data_PCOD9459902
_publ_section_title
;
Structure prediction by ZEFSAII (Michael W. Deem and Ramdas Pophale) SiO2 
 PCOD9459902
Probable space group: P B C A
;
_chemical_formula_sum "Si O2"
_cell_formula_units_Z 56
_cell_length_a 14.314969
_cell_length_b 18.742376
_cell_length_c 9.327419
_cell_angle_alpha 90.000000
_cell_angle_beta 90.000000
_cell_angle_gamma 90.000000
_cell_volume 2502.514165
_symmetry_space_group_name_H-M "P B C A"
_symmetry_group_IT_number 61
_symmetry_cell_setting 'orthorhombic'
loop_
_space_group_symop_operation_xyz
x,y,z
1/2-x,-y,1/2+z
1/2+x,1/2-y,-z
-x,1/2+y,1/2-z
-x,-y,-z
1/2+x,y,1/2-z
1/2-x,1/2+y,z
x,1/2-y,1/2+z
loop_
_atom_site_type_symbol
_atom_site_label
_atom_site_fract_x
_atom_site_fract_y
_atom_site_fract_z
Si Si1 0.401862 0.976341 0.069946
Si Si2 0.958465 0.463049 0.640926
Si Si3 0.128022 0.393169 0.806374
Si Si4 0.286643 0.389969 0.582924
Si Si5 0.817159 0.717303 0.612742
Si Si6 0.868603 0.188774 0.178866
Si Si7 0.436411 0.747494 0.660368
O O1 0.407102 0.985094 0.243190
O O2 0.331729 0.039125 0.025713
O O3 0.371618 0.908242 0.975555
O O4 0.500000 0.000000 0.000000
O O5 0.901216 0.388244 0.610177
O O6 0.000000 0.500000 0.500000
O O7 0.048573 0.439551 0.731321
O O8 0.222599 0.408504 0.720536
O O9 0.097756 0.314691 0.757095
O O10 0.230271 0.350358 0.462008
O O11 0.360222 0.334522 0.653859
O O12 0.729872 0.773072 0.638042
O O13 0.890225 0.743053 0.492378
O O14 0.877800 0.690634 0.748853
O O15 0.952456 0.245420 0.156709
#
# Coordination Sequence:
#
# PCOD9459902 Si02
#       7
#     8   8   8   8   8   8   8
#     4   9  19  38  62  87 121 168 208 254 326 387
#     4   9  19  37  63  93 128 162 212 265 321 383
#     4   9  18  39  58  83 125 164 206 258 320 381
#     4  10  21  38  65  88 126 169 210 270 319 382
#     4  11  21  42  62  91 125 165 220 258 329 392
#     4  10  21  41  65  87 133 171 204 268 335 373
#     4  10  23  39  63  89 124 166 213 272 318 386
#
# _framework density 22.377496000000001
#
# number of rings (size 3 to 8) (size 9 to 14) (size 15 to 20)
#    0.000    2.286    2.857    0.857    2.000    2.286 
#    5.143    4.286    0.000    0.000    0.000    0.000 
#    0.000    0.000    0.000    0.000    0.000    0.000 
#
# Total GULP energy -311821.832704 kJ/mol
# GULP energy per Si atom -5568.247013 kJ/mol
# Density = 2.232656 g / cm^3
# Si number density = 22.377496 Si / 1000 Ang^3
#
#
#
# Elastic Constant Matrix: (Units=GPa)
#
#
# Indices 1 2 3 4 5 6 
#
# 1 114.8461 15.1905 16.6259 0.0000 0.0000 0.0000
# 2 15.1905 52.0573 27.6426 0.0000 0.0000 0.0000
# 3 16.6259 27.6426 109.7558 0.0000 0.0000 0.0000
# 4 0.0000 0.0000 0.0000 35.5617 0.0000 0.0000
# 5 0.0000 0.0000 0.0000 0.0000 21.2281 0.0000
# 6 0.0000 0.0000 0.0000 0.0000 0.0000 18.7867
#
#
#
# Elastic Compliance Matrix: (Units=1/GPa)
#
#
# Indices 1 2 3 4 5 6 
#
# 1 0.009121 -0.002225 -0.000821 0.000000 0.000000 0.000000
# 2 -0.002225 0.022718 -0.005385 0.000000 0.000000 0.000000
# 3 -0.000821 -0.005385 0.010592 0.000000 0.000000 0.000000
# 4 0.000000 0.000000 0.000000 0.028120 0.000000 0.000000
# 5 0.000000 0.000000 0.000000 0.000000 0.047107 0.000000
# 6 0.000000 0.000000 0.000000 0.000000 0.000000 0.053229
#
#
# Mechanical properties :
#
#
# Convention : Reuss Voigt Hill
#
# Bulk Modulus (GPa) = 39.11110 43.95304 41.53207
# Shear Modulus (GPa) = 25.47486 29.59532 27.53509
#
# Velocity S-wave (km/s) = 3.37770 3.64063 3.51163
# Velocity P-wave (km/s) = 5.72081 6.11200 5.91963
#
# Compressibility (1/GPa) = 0.02556819
#
# Stress axis : x y z
#
# Youngs Moduli (GPa) = 109.64283 44.01754 94.41387
#
# Poissons Ratio (x) = 0.09796 0.07752
# Poissons Ratio (y) = 0.24400 0.50838
# Poissons Ratio (z) = 0.09003 0.23702
#
# Static dielectric constant tensor:
#      x y z
#    x 2.248300 0.000000 0.000000 
#    y 0.000000 2.000560 0.000000 
#    z 0.000000 0.000000 1.975240 
# 
# From -- ./inp_files/3073.got.cif
#   From: 2010.05.17/outbox.cif.g08.bks.cpg/sg61_2_cif.got.tgz:3073.got - 2010.06.03 15:17:17.
