data_PCOD9459779
_publ_section_title
;
Structure prediction by ZEFSAII (Michael W. Deem and Ramdas Pophale) SiO2 
 PCOD9459779
Probable space group: P B C A
;
_chemical_formula_sum "Si O2"
_cell_formula_units_Z 64
_cell_length_a 18.366245
_cell_length_b 8.040134
_cell_length_c 23.007743
_cell_angle_alpha 90.000000
_cell_angle_beta 90.000000
_cell_angle_gamma 90.000000
_cell_volume 3397.486016
_symmetry_space_group_name_H-M "P B C A"
_symmetry_group_IT_number 61
_symmetry_cell_setting 'orthorhombic'
loop_
_space_group_symop_operation_xyz
x,y,z
1/2-x,-y,1/2+z
1/2+x,1/2-y,-z
-x,1/2+y,1/2-z
-x,-y,-z
1/2+x,y,1/2-z
1/2-x,1/2+y,z
x,1/2-y,1/2+z
loop_
_atom_site_type_symbol
_atom_site_label
_atom_site_fract_x
_atom_site_fract_y
_atom_site_fract_z
Si Si1 0.443726 0.812327 0.943560
Si Si2 0.854781 0.640777 0.814702
Si Si3 0.880383 0.218691 0.192496
Si Si4 0.024952 0.984110 0.877197
Si Si5 0.371679 0.925465 0.841054
Si Si6 0.256069 0.882296 0.740189
Si Si7 0.984411 0.798872 0.227003
Si Si8 0.453930 0.863326 0.078226
O O1 0.472851 0.629436 0.925154
O O2 0.372518 0.839237 0.903490
O O3 0.496857 0.967881 0.925347
O O4 0.431957 0.826526 0.011905
O O5 0.791042 0.523737 0.790713
O O6 0.814795 0.816822 0.806280
O O7 0.923013 0.630463 0.770547
O O8 0.887202 0.606091 0.877719
O O9 0.895683 0.060275 0.151322
O O10 0.880171 0.379076 0.152009
O O11 0.810200 0.225457 0.233142
O O12 0.949445 0.236595 0.234698
O O13 0.991567 0.808603 0.897971
O O14 0.987240 0.070175 0.821064
O O15 0.304110 0.904697 0.798250
O O16 0.441481 0.844956 0.808036
#
# Coordination Sequence:
#
# PCOD9459779 Si02
#       8
#     8   8   8   8   8   8   8   8
#     4  10  23  41  66  93 126 166 222 267 316 368
#     4  11  22  40  58  90 129 166 205 261 326 391
#     4  12  20  35  60  95 124 161 199 261 318 384
#     4  11  21  35  65  96 124 161 208 259 319 382
#     4  10  21  38  55  86 124 168 198 258 314 376
#     4  11  24  36  59  91 130 161 209 250 329 396
#     4  10  21  33  59  95 123 157 203 257 324 382
#     4  11  23  42  65  93 128 166 213 280 316 372
#
# _framework density 18.837458000000002
#
# number of rings (size 3 to 8) (size 9 to 14) (size 15 to 20)
#    0.000    1.250    5.000    1.125    5.250    0.000 
#    0.000    0.000    5.500    0.000    0.000    0.000 
#    0.000    0.000    0.000    0.000    0.000    0.000 
#
# Total GULP energy -356435.373605 kJ/mol
# GULP energy per Si atom -5569.302713 kJ/mol
# Density = 1.879458 g / cm^3
# Si number density = 18.837458 Si / 1000 Ang^3
#
#
#
# Elastic Constant Matrix: (Units=GPa)
#
#
# Indices 1 2 3 4 5 6 
#
# 1 89.7084 28.6352 53.7754 0.0000 0.0000 0.0000
# 2 28.6352 82.2927 31.5368 0.0000 0.0000 0.0000
# 3 53.7754 31.5368 132.6334 0.0000 0.0000 0.0000
# 4 0.0000 0.0000 0.0000 29.6987 0.0000 0.0000
# 5 0.0000 0.0000 0.0000 0.0000 23.4270 0.0000
# 6 0.0000 0.0000 0.0000 0.0000 0.0000 20.5904
#
#
#
# Elastic Compliance Matrix: (Units=1/GPa)
#
#
# Indices 1 2 3 4 5 6 
#
# 1 0.015493 -0.003283 -0.005501 0.000000 0.000000 0.000000
# 2 -0.003283 0.014066 -0.002013 0.000000 0.000000 0.000000
# 3 -0.005501 -0.002013 0.010249 0.000000 0.000000 0.000000
# 4 0.000000 0.000000 0.000000 0.033671 0.000000 0.000000
# 5 0.000000 0.000000 0.000000 0.000000 0.042686 0.000000
# 6 0.000000 0.000000 0.000000 0.000000 0.000000 0.048566
#
#
# Mechanical properties :
#
#
# Convention : Reuss Voigt Hill
#
# Bulk Modulus (GPa) = 54.90691 59.16994 57.03843
# Shear Modulus (GPa) = 25.98813 27.45569 26.72191
#
# Velocity S-wave (km/s) = 3.71832 3.82187 3.77045
# Velocity P-wave (km/s) = 6.90258 7.13825 7.02140
#
# Compressibility (1/GPa) = 0.01821264
#
# Stress axis : x y z
#
# Youngs Moduli (GPa) = 64.54713 71.09507 97.57442
#
# Poissons Ratio (x) = 0.23339 0.53674
# Poissons Ratio (y) = 0.21190 0.19646
# Poissons Ratio (z) = 0.35506 0.14315
#
# Static dielectric constant tensor:
#      x y z
#    x 1.648310 0.000000 0.000000 
#    y 0.000000 1.802430 0.000000 
#    z 0.000000 0.000000 1.645910 
# 
# From -- ./inp_files/11139.got.cif
#   From: 2010.05.17/outbox.cif.g08.bks.cpg/sg61_6_cif.got.tgz:11139.got - 2010.06.03 15:17:17.
