data_PCOD9459839
_publ_section_title
;
Structure prediction by ZEFSAII (Michael W. Deem and Ramdas Pophale) SiO2 
 PCOD9459839
Probable space group: P B C A
;
_chemical_formula_sum "Si O2"
_cell_formula_units_Z 48
_cell_length_a 16.513229
_cell_length_b 10.646834
_cell_length_c 12.067525
_cell_angle_alpha 90.000000
_cell_angle_beta 90.000000
_cell_angle_gamma 90.000000
_cell_volume 2121.635109
_symmetry_space_group_name_H-M "P B C A"
_symmetry_group_IT_number 61
_symmetry_cell_setting 'orthorhombic'
loop_
_space_group_symop_operation_xyz
x,y,z
1/2-x,-y,1/2+z
1/2+x,1/2-y,-z
-x,1/2+y,1/2-z
-x,-y,-z
1/2+x,y,1/2-z
1/2-x,1/2+y,z
x,1/2-y,1/2+z
loop_
_atom_site_type_symbol
_atom_site_label
_atom_site_fract_x
_atom_site_fract_y
_atom_site_fract_z
Si Si1 0.296943 0.080489 0.748660
Si Si2 0.255932 0.682606 0.125965
Si Si3 0.039139 0.393216 0.137248
Si Si4 0.421197 0.660159 0.037158
Si Si5 0.031903 0.905208 0.144188
Si Si6 0.368148 0.066171 0.982126
O O1 0.242587 0.198083 0.708330
O O2 0.386492 0.128156 0.709602
O O3 0.307313 0.050040 0.878767
O O4 0.271854 0.949700 0.689700
O O5 0.326360 0.687310 0.032792
O O6 0.171672 0.671567 0.059679
O O7 0.051393 0.244000 0.141428
O O8 0.029071 0.450087 0.258705
O O9 0.955182 0.408649 0.071667
O O10 0.110777 0.451631 0.064249
O O11 0.435494 0.516216 0.066637
O O12 0.478422 0.687235 0.931933
#
# Coordination Sequence:
#
# PCOD9459839 Si02
#       6
#     8   8   8   8   8   8
#     4  10  23  41  61  89 126 162 205 257 312 371
#     4  11  23  39  60  90 125 161 199 251 315 372
#     4  10  21  39  64  88 118 164 213 258 310 376
#     4  10  21  37  61  90 123 163 210 258 316 377
#     4   9  21  40  61  89 121 163 214 263 310 373
#     4  10  23  40  61  90 121 158 205 255 311 374
#
# _framework density 22.62406
#
# number of rings (size 3 to 8) (size 9 to 14) (size 15 to 20)
#    0.000    2.000    0.000    2.000    0.000   13.333 
#    0.000    1.667    0.000    0.000    0.000    0.000 
#    0.000    0.000    0.000    0.000    0.000    0.000 
#
# Total GULP energy -267229.491900 kJ/mol
# GULP energy per Si atom -5567.281081 kJ/mol
# Density = 2.257257 g / cm^3
# Si number density = 22.624060 Si / 1000 Ang^3
#
#
#
# Elastic Constant Matrix: (Units=GPa)
#
#
# Indices 1 2 3 4 5 6 
#
# 1 68.7359 16.2400 28.7400 0.0000 0.0000 0.0000
# 2 16.2400 33.1937 -11.0038 0.0000 0.0000 0.0000
# 3 28.7400 -11.0038 71.9861 0.0000 0.0000 0.0000
# 4 0.0000 0.0000 0.0000 19.8776 0.0000 0.0000
# 5 0.0000 0.0000 0.0000 0.0000 29.4434 0.0000
# 6 0.0000 0.0000 0.0000 0.0000 0.0000 27.1216
#
#
#
# Elastic Compliance Matrix: (Units=1/GPa)
#
#
# Indices 1 2 3 4 5 6 
#
# 1 0.022856 -0.014966 -0.011413 0.000000 0.000000 0.000000
# 2 -0.014966 0.041534 0.012324 0.000000 0.000000 0.000000
# 3 -0.011413 0.012324 0.020332 0.000000 0.000000 0.000000
# 4 0.000000 0.000000 0.000000 0.050308 0.000000 0.000000
# 5 0.000000 0.000000 0.000000 0.000000 0.033963 0.000000
# 6 0.000000 0.000000 0.000000 0.000000 0.000000 0.036871
#
#
# Mechanical properties :
#
#
# Convention : Reuss Voigt Hill
#
# Bulk Modulus (GPa) = 17.66406 26.87422 22.26914
# Shear Modulus (GPa) = 19.77496 24.61782 22.19639
#
# Velocity S-wave (km/s) = 2.95967 3.30225 3.13564
# Velocity P-wave (km/s) = 4.41635 5.14240 4.79314
#
# Compressibility (1/GPa) = 0.05661212
#
# Stress axis : x y z
#
# Youngs Moduli (GPa) = 43.75144 24.07682 49.18367
#
# Poissons Ratio (x) = 0.36033 0.56133
# Poissons Ratio (y) = 0.65478 -0.60613
# Poissons Ratio (z) = 0.49933 -0.29672
#
# Static dielectric constant tensor:
#      x y z
#    x 1.905170 0.000000 0.000000 
#    y 0.000000 1.891990 0.000000 
#    z 0.000000 0.000000 1.859640 
# 
# From -- ./inp_files/5256.got.cif
#   From: 2010.05.17/outbox.cif.g08.bks.cpg/sg61_3_cif.got.tgz:5256.got - 2010.06.03 15:17:17.
