data_PCOD9459952
_publ_section_title
;
Structure prediction by ZEFSAII (Michael W. Deem and Ramdas Pophale) SiO2 
 PCOD9459952
Probable space group: P B C A
;
_chemical_formula_sum "Si O2"
_cell_formula_units_Z 56
_cell_length_a 23.277890
_cell_length_b 13.259019
_cell_length_c 9.435196
_cell_angle_alpha 90.000000
_cell_angle_beta 90.000000
_cell_angle_gamma 90.000000
_cell_volume 2912.097630
_symmetry_space_group_name_H-M "P B C A"
_symmetry_group_IT_number 61
_symmetry_cell_setting 'orthorhombic'
loop_
_space_group_symop_operation_xyz
x,y,z
1/2-x,-y,1/2+z
1/2+x,1/2-y,-z
-x,1/2+y,1/2-z
-x,-y,-z
1/2+x,y,1/2-z
1/2-x,1/2+y,z
x,1/2-y,1/2+z
loop_
_atom_site_type_symbol
_atom_site_label
_atom_site_fract_x
_atom_site_fract_y
_atom_site_fract_z
Si Si1 0.343935 0.425379 0.276687
Si Si2 0.194884 0.914136 0.961123
Si Si3 0.722049 0.125069 0.629581
Si Si4 0.306459 0.697804 0.561897
Si Si5 0.906556 0.266397 0.632668
Si Si6 0.412494 0.931837 0.973621
Si Si7 0.538871 0.868929 0.888351
O O1 0.290282 0.395477 0.377067
O O2 0.383652 0.326811 0.273566
O O3 0.379353 0.515942 0.343368
O O4 0.320274 0.446771 0.121323
O O5 0.147958 0.834077 0.910358
O O6 0.195139 0.013708 0.865606
O O7 0.257766 0.864048 0.973813
O O8 0.709744 0.185847 0.773615
O O9 0.699073 0.189737 0.498415
O O10 0.368539 0.648345 0.538850
O O11 0.935837 0.213548 0.497906
O O12 0.948493 0.332370 0.729917
O O13 0.472032 0.884263 0.922074
O O14 0.429239 0.024845 0.077659
#
# Coordination Sequence:
#
# PCOD9459952 Si02
#       7
#     8   8   8   8   8   8   8
#     4  10  21  39  64  92 124 164 202 262 313 382
#     4  11  22  39  64  96 128 163 207 260 324 377
#     4  11  24  37  61  97 126 169 202 253 326 380
#     4  11  24  39  62  93 130 166 203 264 318 381
#     4  11  20  41  65  95 119 163 212 260 307 385
#     4  10  22  43  62  89 126 169 210 261 311 374
#     4  10  23  40  69  87 121 169 217 254 313 365
#
# _framework density 19.230122999999999
#
# number of rings (size 3 to 8) (size 9 to 14) (size 15 to 20)
#    0.000    1.429    4.286    0.857    2.000    1.143 
#    0.000    2.143    0.000    0.000    0.000    0.000 
#    0.000    0.000    0.000    0.000    0.000    0.000 
#
# Total GULP energy -312770.378596 kJ/mol
# GULP energy per Si atom -5585.185332 kJ/mol
# Density = 1.918635 g / cm^3
# Si number density = 19.230123 Si / 1000 Ang^3
#
#
#
# Elastic Constant Matrix: (Units=GPa)
#
#
# Indices 1 2 3 4 5 6 
#
# 1 104.2898 25.0721 14.7871 0.0000 0.0000 0.0000
# 2 25.0721 61.4831 14.1380 0.0000 0.0000 0.0000
# 3 14.7871 14.1380 33.5754 0.0000 0.0000 0.0000
# 4 0.0000 0.0000 0.0000 16.5107 0.0000 0.0000
# 5 0.0000 0.0000 0.0000 0.0000 23.7384 0.0000
# 6 0.0000 0.0000 0.0000 0.0000 0.0000 37.3120
#
#
#
# Elastic Compliance Matrix: (Units=1/GPa)
#
#
# Indices 1 2 3 4 5 6 
#
# 1 0.010943 -0.003714 -0.003256 0.000000 0.000000 0.000000
# 2 -0.003714 0.019269 -0.006478 0.000000 0.000000 0.000000
# 3 -0.003256 -0.006478 0.033945 0.000000 0.000000 0.000000
# 4 0.000000 0.000000 0.000000 0.060567 0.000000 0.000000
# 5 0.000000 0.000000 0.000000 0.000000 0.042126 0.000000
# 6 0.000000 0.000000 0.000000 0.000000 0.000000 0.026801
#
#
# Mechanical properties :
#
#
# Convention : Reuss Voigt Hill
#
# Bulk Modulus (GPa) = 26.83701 34.14920 30.49311
# Shear Modulus (GPa) = 21.46230 25.20231 23.33231
#
# Velocity S-wave (km/s) = 3.34440 3.62410 3.48705
# Velocity P-wave (km/s) = 5.37581 5.94213 5.66605
#
# Compressibility (1/GPa) = 0.03726197
#
# Stress axis : x y z
#
# Youngs Moduli (GPa) = 91.38167 51.89759 29.45911
#
# Poissons Ratio (x) = 0.19274 0.09591
# Poissons Ratio (y) = 0.33938 0.19084
# Poissons Ratio (z) = 0.29751 0.33620
#
# Static dielectric constant tensor:
#      x y z
#    x 1.651370 0.000000 0.000000 
#    y 0.000000 1.668810 0.000000 
#    z 0.000000 0.000000 1.664240 
# 
# From -- ./inp_files/3956.got.cif
#   From: 2010.05.17/outbox.cif.g08.bks.cpg/sg61_2_cif.got.tgz:3956.got - 2010.06.03 15:17:17.
