data_PCOD9459659
_publ_section_title
;
Structure prediction by ZEFSAII (Michael W. Deem and Ramdas Pophale) SiO2 
 PCOD9459659
Probable space group: P B C A
;
_chemical_formula_sum "Si O2"
_cell_formula_units_Z 56
_cell_length_a 13.549578
_cell_length_b 12.591882
_cell_length_c 17.284796
_cell_angle_alpha 90.000000
_cell_angle_beta 90.000000
_cell_angle_gamma 90.000000
_cell_volume 2949.040065
_symmetry_space_group_name_H-M "P B C A"
_symmetry_group_IT_number 61
_symmetry_cell_setting 'orthorhombic'
loop_
_space_group_symop_operation_xyz
x,y,z
1/2-x,-y,1/2+z
1/2+x,1/2-y,-z
-x,1/2+y,1/2-z
-x,-y,-z
1/2+x,y,1/2-z
1/2-x,1/2+y,z
x,1/2-y,1/2+z
loop_
_atom_site_type_symbol
_atom_site_label
_atom_site_fract_x
_atom_site_fract_y
_atom_site_fract_z
Si Si1 0.326562 0.958670 0.330206
Si Si2 0.667761 0.567348 0.798154
Si Si3 0.765223 0.603193 0.043029
Si Si4 0.482110 0.056516 0.227979
Si Si5 0.925617 0.759774 0.630609
Si Si6 0.166463 0.973403 0.596479
Si Si7 0.873446 0.232680 0.931739
O O1 0.239470 0.917799 0.274631
O O2 0.394271 0.856803 0.343823
O O3 0.281581 0.008838 0.406968
O O4 0.391946 0.050426 0.288708
O O5 0.570350 0.510959 0.765375
O O6 0.733823 0.494619 0.855090
O O7 0.645866 0.670416 0.850560
O O8 0.832207 0.676532 0.097559
O O9 0.831992 0.551417 0.976028
O O10 0.679564 0.668632 0.999630
O O11 0.525625 0.168915 0.198938
O O12 0.429048 0.009031 0.151134
O O13 0.008780 0.744983 0.564782
O O14 0.167392 0.851309 0.571848
#
# Coordination Sequence:
#
# PCOD9459659 Si02
#       7
#     8   8   8   8   8   8   8
#     4  11  23  40  65  96 123 162 211 257 319 370
#     4  10  20  40  62  87 125 156 201 268 306 367
#     4  11  23  43  60  93 128 168 205 260 307 376
#     4  10  21  41  62  91 120 160 205 261 307 371
#     4  11  23  40  64  92 126 163 214 254 314 373
#     4   9  22  40  61  87 124 162 208 248 314 371
#     4  10  22  41  63  89 125 164 209 255 315 372
#
# _framework density 18.989229999999999
#
# number of rings (size 3 to 8) (size 9 to 14) (size 15 to 20)
#    0.000    1.714    2.857    0.857    2.000    4.000 
#    5.143    0.000    0.000    0.000    0.000    0.000 
#    0.000    0.000    0.000    0.000    0.000    0.000 
#
# Total GULP energy -312338.546458 kJ/mol
# GULP energy per Si atom -5577.474044 kJ/mol
# Density = 1.894601 g / cm^3
# Si number density = 18.989230 Si / 1000 Ang^3
#
#
#
# Elastic Constant Matrix: (Units=GPa)
#
#
# Indices 1 2 3 4 5 6 
#
# 1 73.5101 16.9172 9.9357 0.0000 0.0000 0.0000
# 2 16.9172 54.2104 10.5666 0.0000 0.0000 0.0000
# 3 9.9357 10.5666 54.2093 0.0000 0.0000 0.0000
# 4 0.0000 0.0000 0.0000 15.0894 0.0000 0.0000
# 5 0.0000 0.0000 0.0000 0.0000 17.3257 0.0000
# 6 0.0000 0.0000 0.0000 0.0000 0.0000 31.0953
#
#
#
# Elastic Compliance Matrix: (Units=1/GPa)
#
#
# Indices 1 2 3 4 5 6 
#
# 1 0.014840 -0.004263 -0.001889 0.000000 0.000000 0.000000
# 2 -0.004263 0.020400 -0.003195 0.000000 0.000000 0.000000
# 3 -0.001889 -0.003195 0.019416 0.000000 0.000000 0.000000
# 4 0.000000 0.000000 0.000000 0.066272 0.000000 0.000000
# 5 0.000000 0.000000 0.000000 0.000000 0.057718 0.000000
# 6 0.000000 0.000000 0.000000 0.000000 0.000000 0.032159
#
#
# Mechanical properties :
#
#
# Convention : Reuss Voigt Hill
#
# Bulk Modulus (GPa) = 27.80720 28.52987 28.16853
# Shear Modulus (GPa) = 20.70520 22.33610 21.52065
#
# Velocity S-wave (km/s) = 3.30565 3.43337 3.37012
# Velocity P-wave (km/s) = 5.40789 5.54745 5.47811
#
# Compressibility (1/GPa) = 0.03596190
#
# Stress axis : x y z
#
# Youngs Moduli (GPa) = 67.38584 49.02039 51.50380
#
# Poissons Ratio (x) = 0.20897 0.09729
# Poissons Ratio (y) = 0.28725 0.16456
# Poissons Ratio (z) = 0.12729 0.15662
#
# Static dielectric constant tensor:
#      x y z
#    x 1.673660 0.000000 0.000000 
#    y 0.000000 1.630440 0.000000 
#    z 0.000000 0.000000 1.656920 
# 
# From -- ./inp_files/5822.got.cif
#   From: 2010.05.17/outbox.cif.g08.bks.cpg/sg61_3_cif.got.tgz:5822.got - 2010.06.03 15:17:17.
