data_PCOD9459949
_publ_section_title
;
Structure prediction by ZEFSAII (Michael W. Deem and Ramdas Pophale) SiO2 
 PCOD9459949
Probable space group: P B C A
;
_chemical_formula_sum "Si O2"
_cell_formula_units_Z 56
_cell_length_a 9.312781
_cell_length_b 20.091622
_cell_length_c 12.612929
_cell_angle_alpha 90.000000
_cell_angle_beta 90.000000
_cell_angle_gamma 90.000000
_cell_volume 2359.990963
_symmetry_space_group_name_H-M "P B C A"
_symmetry_group_IT_number 61
_symmetry_cell_setting 'orthorhombic'
loop_
_space_group_symop_operation_xyz
x,y,z
1/2-x,-y,1/2+z
1/2+x,1/2-y,-z
-x,1/2+y,1/2-z
-x,-y,-z
1/2+x,y,1/2-z
1/2-x,1/2+y,z
x,1/2-y,1/2+z
loop_
_atom_site_type_symbol
_atom_site_label
_atom_site_fract_x
_atom_site_fract_y
_atom_site_fract_z
Si Si1 0.991393 0.802397 0.119205
Si Si2 0.643158 0.505874 0.102796
Si Si3 0.997919 0.156603 0.352817
Si Si4 0.268913 0.133287 0.977044
Si Si5 0.480976 0.892786 0.178826
Si Si6 0.404536 0.525246 0.249935
Si Si7 0.247955 0.634963 0.519058
O O1 0.003679 0.733063 0.181427
O O2 0.987325 0.861709 0.204890
O O3 0.127757 0.811024 0.043263
O O4 0.851458 0.812203 0.046891
O O5 0.697607 0.438591 0.047054
O O6 0.476787 0.506047 0.138202
O O7 0.740946 0.515963 0.210812
O O8 0.678147 0.570007 0.032938
O O9 0.847955 0.137709 0.409944
O O10 0.043900 0.100245 0.270784
O O11 0.123713 0.154551 0.440930
O O12 0.396123 0.141430 0.891363
O O13 0.325578 0.881491 0.129637
O O14 0.518186 0.970832 0.174231
#
# Coordination Sequence:
#
# PCOD9459949 Si02
#       7
#     8   8   8   8   8   8   8
#     4  12  22  38  63  93 124 168 218 258 317 391
#     4  10  21  40  65  95 125 169 211 276 316 370
#     4  10  23  43  58  92 131 174 202 266 334 377
#     4  10  21  39  64  90 125 169 214 263 322 384
#     4  10  21  41  65  88 125 168 211 267 317 380
#     4  10  21  40  63  92 125 159 219 261 317 370
#     4  10  23  41  62  90 128 166 211 262 323 378
#
# _framework density 23.728905000000001
#
# number of rings (size 3 to 8) (size 9 to 14) (size 15 to 20)
#    0.000    1.714    1.429    2.571    2.000    5.143 
#   15.429    0.000    0.000    0.000    0.000    0.000 
#    0.000    0.000    0.000    0.000    0.000    0.000 
#
# Total GULP energy -313116.835781 kJ/mol
# GULP energy per Si atom -5591.372068 kJ/mol
# Density = 2.367490 g / cm^3
# Si number density = 23.728905 Si / 1000 Ang^3
#
#
#
# Elastic Constant Matrix: (Units=GPa)
#
#
# Indices 1 2 3 4 5 6 
#
# 1 112.8618 12.1224 29.1607 0.0000 0.0000 0.0000
# 2 12.1224 118.1334 1.5777 0.0000 0.0000 0.0000
# 3 29.1607 1.5777 27.5958 0.0000 0.0000 0.0000
# 4 0.0000 0.0000 0.0000 28.5981 0.0000 0.0000
# 5 0.0000 0.0000 0.0000 0.0000 26.9113 0.0000
# 6 0.0000 0.0000 0.0000 0.0000 0.0000 22.0612
#
#
#
# Elastic Compliance Matrix: (Units=1/GPa)
#
#
# Indices 1 2 3 4 5 6 
#
# 1 0.012327 -0.001092 -0.012964 0.000000 0.000000 0.000000
# 2 -0.001092 0.008568 0.000664 0.000000 0.000000 0.000000
# 3 -0.012964 0.000664 0.049898 0.000000 0.000000 0.000000
# 4 0.000000 0.000000 0.000000 0.034967 0.000000 0.000000
# 5 0.000000 0.000000 0.000000 0.000000 0.037159 0.000000
# 6 0.000000 0.000000 0.000000 0.000000 0.000000 0.045328
#
#
# Mechanical properties :
#
#
# Convention : Reuss Voigt Hill
#
# Bulk Modulus (GPa) = 22.72201 38.25697 30.48949
# Shear Modulus (GPa) = 21.76731 29.89613 25.83172
#
# Velocity S-wave (km/s) = 3.03204 3.55336 3.30300
# Velocity P-wave (km/s) = 4.67484 5.74393 5.23674
#
# Compressibility (1/GPa) = 0.04401019
#
# Stress axis : x y z
#
# Youngs Moduli (GPa) = 81.12137 116.71086 20.04073
#
# Poissons Ratio (x) = 0.12743 0.25980
# Poissons Ratio (y) = 0.08857 -0.01330
# Poissons Ratio (z) = 1.05164 -0.07748
#
# Static dielectric constant tensor:
#      x y z
#    x 1.888210 0.000000 0.000000 
#    y 0.000000 1.880950 0.000000 
#    z 0.000000 0.000000 1.921350 
# 
# From -- ./inp_files/7150.got.cif
#   From: 2010.05.17/outbox.cif.g08.bks.cpg/sg61_4_cif.got.tgz:7150.got - 2010.06.03 15:17:17.
