data_PCOD9459999
_publ_section_title
;
Structure prediction by ZEFSAII (Michael W. Deem and Ramdas Pophale) SiO2 
 PCOD9459999
Probable space group: P B C A
;
_chemical_formula_sum "Si O2"
_cell_formula_units_Z 48
_cell_length_a 13.755084
_cell_length_b 27.091143
_cell_length_c 5.016137
_cell_angle_alpha 90.000000
_cell_angle_beta 90.000000
_cell_angle_gamma 90.000000
_cell_volume 1869.218045
_symmetry_space_group_name_H-M "P B C A"
_symmetry_group_IT_number 61
_symmetry_cell_setting 'orthorhombic'
loop_
_space_group_symop_operation_xyz
x,y,z
1/2-x,-y,1/2+z
1/2+x,1/2-y,-z
-x,1/2+y,1/2-z
-x,-y,-z
1/2+x,y,1/2-z
1/2-x,1/2+y,z
x,1/2-y,1/2+z
loop_
_atom_site_type_symbol
_atom_site_label
_atom_site_fract_x
_atom_site_fract_y
_atom_site_fract_z
Si Si1 0.210323 0.781183 0.051382
Si Si2 0.698122 0.613930 0.700980
Si Si3 0.580559 0.420542 0.154157
Si Si4 0.444847 0.778797 0.068085
Si Si5 0.312961 0.488082 0.028221
Si Si6 0.975614 0.381254 0.852514
O O1 0.181752 0.738954 0.263544
O O2 0.177783 0.834806 0.148379
O O3 0.328092 0.784113 0.052505
O O4 0.813354 0.605964 0.659162
O O5 0.664929 0.565977 0.865454
O O6 0.637506 0.613837 0.427017
O O7 0.601429 0.476601 0.068559
O O8 0.515026 0.392740 0.938348
O O9 0.533026 0.417374 0.443708
O O10 0.470454 0.766339 0.371255
O O11 0.491690 0.827476 0.950951
O O12 0.260358 0.514278 0.278825
#
# Coordination Sequence:
#
# PCOD9459999 Si02
#       6
#     8   8   8   8   8   8
#     4  10  23  39  67  97 129 179 220 276 338 396
#     4  11  26  46  72 102 140 179 233 278 345 407
#     4  11  25  46  68 100 144 175 229 284 336 407
#     4  10  21  40  64  93 132 177 223 273 339 403
#     4  10  23  43  71 100 135 186 221 279 343 403
#     4  12  26  42  72 102 132 187 225 284 344 402
#
# _framework density 25.679188
#
# number of rings (size 3 to 8) (size 9 to 14) (size 15 to 20)
#    0.000    1.333    1.667    3.000    4.667    9.333 
#    0.000    0.000    0.000    0.000    0.000    0.000 
#    0.000    0.000    0.000    0.000    0.000    0.000 
#
# Total GULP energy -269394.042997 kJ/mol
# GULP energy per Si atom -5612.375896 kJ/mol
# Density = 2.562074 g / cm^3
# Si number density = 25.679188 Si / 1000 Ang^3
#
#
#
# Elastic Constant Matrix: (Units=GPa)
#
#
# Indices 1 2 3 4 5 6 
#
# 1 108.4733 22.7731 4.8276 0.0000 0.0000 0.0000
# 2 22.7731 142.6313 15.8744 0.0000 0.0000 0.0000
# 3 4.8276 15.8744 82.7908 0.0000 0.0000 0.0000
# 4 0.0000 0.0000 0.0000 39.6243 0.0000 0.0000
# 5 0.0000 0.0000 0.0000 0.0000 42.7401 0.0000
# 6 0.0000 0.0000 0.0000 0.0000 0.0000 27.7388
#
#
#
# Elastic Compliance Matrix: (Units=1/GPa)
#
#
# Indices 1 2 3 4 5 6 
#
# 1 0.009545 -0.001494 -0.000270 0.000000 0.000000 0.000000
# 2 -0.001494 0.007398 -0.001331 0.000000 0.000000 0.000000
# 3 -0.000270 -0.001331 0.012350 0.000000 0.000000 0.000000
# 4 0.000000 0.000000 0.000000 0.025237 0.000000 0.000000
# 5 0.000000 0.000000 0.000000 0.000000 0.023397 0.000000
# 6 0.000000 0.000000 0.000000 0.000000 0.000000 0.036051
#
#
# Mechanical properties :
#
#
# Convention : Reuss Voigt Hill
#
# Bulk Modulus (GPa) = 43.28760 46.76062 45.02411
# Shear Modulus (GPa) = 39.10288 41.38201 40.24244
#
# Velocity S-wave (km/s) = 3.90647 4.01870 3.96298
# Velocity P-wave (km/s) = 6.10254 6.30733 6.20578
#
# Compressibility (1/GPa) = 0.02310131
#
# Stress axis : x y z
#
# Youngs Moduli (GPa) = 104.77235 135.17580 80.97387
#
# Poissons Ratio (x) = 0.20193 0.02187
# Poissons Ratio (y) = 0.15651 0.10780
# Poissons Ratio (z) = 0.02830 0.17997
#
# Static dielectric constant tensor:
#      x y z
#    x 2.074500 0.000000 0.000000 
#    y 0.000000 1.976440 0.000000 
#    z 0.000000 0.000000 1.952590 
# 
# From -- ./inp_files/515.got.cif
#   From: 2010.05.17/outbox.cif.g08.bks.cpg/sg61_1_cif.got.tgz:515.got - 2010.06.03 15:17:17.
