data_PCOD9459128
_publ_section_title
;
Structure prediction by ZEFSAII (Michael W. Deem and Ramdas Pophale) SiO2 
 PCOD9459128
Probable space group: P B C A
;
_chemical_formula_sum "Si O2"
_cell_formula_units_Z 44
_cell_length_a 17.280170
_cell_length_b 11.480503
_cell_length_c 8.727404
_cell_angle_alpha 90.000000
_cell_angle_beta 90.000000
_cell_angle_gamma 90.000000
_cell_volume 1731.386422
_symmetry_space_group_name_H-M "P B C A"
_symmetry_group_IT_number 61
_symmetry_cell_setting 'orthorhombic'
loop_
_space_group_symop_operation_xyz
x,y,z
1/2-x,-y,1/2+z
1/2+x,1/2-y,-z
-x,1/2+y,1/2-z
-x,-y,-z
1/2+x,y,1/2-z
1/2-x,1/2+y,z
x,1/2-y,1/2+z
loop_
_atom_site_type_symbol
_atom_site_label
_atom_site_fract_x
_atom_site_fract_y
_atom_site_fract_z
Si Si1 0.500000 0.000000 0.500000
Si Si2 0.355578 0.952378 0.703348
Si Si3 0.273302 0.976583 0.386888
Si Si4 0.014425 0.797358 0.482380
Si Si5 0.104367 0.627359 0.272734
Si Si6 0.404835 0.685841 0.779038
O O1 0.570563 0.988379 0.371064
O O2 0.437959 0.024089 0.362030
O O3 0.293117 0.960840 0.564605
O O4 0.383780 0.823068 0.749320
O O5 0.316240 0.018076 0.844760
O O6 0.322612 0.874740 0.305856
O O7 0.307753 0.097438 0.314398
O O8 0.949203 0.853720 0.375395
O O9 0.964623 0.694638 0.572828
O O10 0.073096 0.738033 0.364930
O O11 0.066084 0.861793 0.606872
#
# Coordination Sequence:
#
# PCOD9459128 Si02
#       6
#     4   8   8   8   8   8
#     4  10  18  42  72  92 134 180 236 290 350 432
#     4  11  24  44  70 103 137 191 240 295 366 431
#     4  11  26  44  67 102 145 184 239 301 368 429
#     4  10  19  39  72 100 136 183 235 280 361 429
#     4  10  21  41  67 103 132 181 234 296 350 432
#     4  11  21  43  70  99 142 190 229 296 368 430
#
# _framework density 25.413160000000001
#
# number of rings (size 3 to 8) (size 9 to 14) (size 15 to 20)
#    0.000    1.455    5.455    1.091    2.545    0.727 
#    9.818    5.455    0.000    0.000    0.000    0.000 
#    0.000    0.000    0.000    0.000    0.000    0.000 
#
# Total GULP energy -245142.335274 kJ/mol
# GULP energy per Si atom -5571.416711 kJ/mol
# Density = 2.535532 g / cm^3
# Si number density = 25.413160 Si / 1000 Ang^3
#
#
#
# Elastic Constant Matrix: (Units=GPa)
#
#
# Indices 1 2 3 4 5 6 
#
# 1 95.6550 9.2584 35.0974 0.0000 0.0000 0.0000
# 2 9.2584 49.2505 4.3853 0.0000 0.0000 0.0000
# 3 35.0974 4.3853 54.2787 0.0000 0.0000 0.0000
# 4 0.0000 0.0000 0.0000 17.9247 0.0000 0.0000
# 5 0.0000 0.0000 0.0000 0.0000 60.0431 0.0000
# 6 0.0000 0.0000 0.0000 0.0000 0.0000 5.5069
#
#
#
# Elastic Compliance Matrix: (Units=1/GPa)
#
#
# Indices 1 2 3 4 5 6 
#
# 1 0.013866 -0.001821 -0.008819 0.000000 0.000000 0.000000
# 2 -0.001821 0.020691 -0.000494 0.000000 0.000000 0.000000
# 3 -0.008819 -0.000494 0.024166 0.000000 0.000000 0.000000
# 4 0.000000 0.000000 0.000000 0.055789 0.000000 0.000000
# 5 0.000000 0.000000 0.000000 0.000000 0.016655 0.000000
# 6 0.000000 0.000000 0.000000 0.000000 0.000000 0.181589
#
#
# Mechanical properties :
#
#
# Convention : Reuss Voigt Hill
#
# Bulk Modulus (GPa) = 27.43165 32.96292 30.19728
# Shear Modulus (GPa) = 14.40194 26.72449 20.56322
#
# Velocity S-wave (km/s) = 2.38315 3.24636 2.84765
# Velocity P-wave (km/s) = 4.28839 5.20103 4.76660
#
# Compressibility (1/GPa) = 0.03645425
#
# Stress axis : x y z
#
# Youngs Moduli (GPa) = 72.11685 48.33083 41.38069
#
# Poissons Ratio (x) = 0.08803 0.36494
# Poissons Ratio (y) = 0.13135 0.02044
# Poissons Ratio (z) = 0.63600 0.02387
#
# Static dielectric constant tensor:
#      x y z
#    x 1.655080 0.000000 0.000000 
#    y 0.000000 0.735390 0.000000 
#    z 0.000000 0.000000 1.877720 
# 
# From -- ./inp_files/3384.got.cif
#   From: 2010.05.17/outbox.cif.g08.bks.cpg/sg61_2_cif.got.tgz:3384.got - 2010.06.03 15:17:17.
