data_PCOD9459811
_publ_section_title
;
Structure prediction by ZEFSAII (Michael W. Deem and Ramdas Pophale) SiO2 
 PCOD9459811
Probable space group: P B C A
;
_chemical_formula_sum "Si O2"
_cell_formula_units_Z 64
_cell_length_a 19.299860
_cell_length_b 9.728279
_cell_length_c 14.756156
_cell_angle_alpha 90.000000
_cell_angle_beta 90.000000
_cell_angle_gamma 90.000000
_cell_volume 2770.533552
_symmetry_space_group_name_H-M "P B C A"
_symmetry_group_IT_number 61
_symmetry_cell_setting 'orthorhombic'
loop_
_space_group_symop_operation_xyz
x,y,z
1/2-x,-y,1/2+z
1/2+x,1/2-y,-z
-x,1/2+y,1/2-z
-x,-y,-z
1/2+x,y,1/2-z
1/2-x,1/2+y,z
x,1/2-y,1/2+z
loop_
_atom_site_type_symbol
_atom_site_label
_atom_site_fract_x
_atom_site_fract_y
_atom_site_fract_z
Si Si1 0.121597 0.860579 0.665675
Si Si2 0.127486 0.344850 0.748231
Si Si3 0.238459 0.263052 0.110680
Si Si4 0.625013 0.443140 0.173563
Si Si5 0.520853 0.062537 0.383925
Si Si6 0.706298 0.668248 0.075042
Si Si7 0.314504 0.368721 0.270977
Si Si8 0.061034 0.795899 0.020156
O O1 0.196914 0.844087 0.618286
O O2 0.119571 0.995669 0.724697
O O3 0.123443 0.732370 0.737188
O O4 0.063232 0.826546 0.592489
O O5 0.171716 0.303960 0.657468
O O6 0.052670 0.382635 0.708254
O O7 0.340091 0.980673 0.792804
O O8 0.126881 0.218877 0.816433
O O9 0.264792 0.375807 0.183554
O O10 0.241043 0.322308 0.009213
O O11 0.553299 0.490712 0.129012
O O12 0.687359 0.521868 0.121386
O O13 0.504629 0.183396 0.455470
O O14 0.567779 0.941295 0.425623
O O15 0.722356 0.776561 0.153729
O O16 0.631137 0.716435 0.037351
#
# Coordination Sequence:
#
# PCOD9459811 Si02
#       8
#     8   8   8   8   8   8   8   8
#     4   8  17  38  64  87 123 180 212 273 337 395
#     4  12  23  39  67 106 133 176 230 286 340 404
#     4   9  21  39  73  89 134 173 221 276 344 405
#     4  10  23  36  70  94 134 176 231 270 339 402
#     4  10  21  36  61  95 132 180 230 276 329 403
#     4   9  18  43  69  94 123 182 217 269 345 406
#     4   9  20  38  68  94 134 170 219 279 338 408
#     4   9  17  37  68  83 126 177 230 263 331 394
#
# _framework density 23.100242999999999
#
# number of rings (size 3 to 8) (size 9 to 14) (size 15 to 20)
#    0.750    1.750    1.250    0.000    3.500    1.000 
#    0.000    8.125   22.000    0.000    0.000    0.000 
#    0.000    0.000    0.000    0.000    0.000    0.000 
#
# Total GULP energy -357071.282484 kJ/mol
# GULP energy per Si atom -5579.238789 kJ/mol
# Density = 2.304767 g / cm^3
# Si number density = 23.100243 Si / 1000 Ang^3
#
#
#
# Elastic Constant Matrix: (Units=GPa)
#
#
# Indices 1 2 3 4 5 6 
#
# 1 42.5000 8.5077 10.1169 0.0000 0.0000 0.0000
# 2 8.5077 106.0716 15.8860 0.0000 0.0000 0.0000
# 3 10.1169 15.8860 78.9649 0.0000 0.0000 0.0000
# 4 0.0000 0.0000 0.0000 9.8937 0.0000 0.0000
# 5 0.0000 0.0000 0.0000 0.0000 29.8791 0.0000
# 6 0.0000 0.0000 0.0000 0.0000 0.0000 23.1254
#
#
#
# Elastic Compliance Matrix: (Units=1/GPa)
#
#
# Indices 1 2 3 4 5 6 
#
# 1 0.024512 -0.001542 -0.002830 0.000000 0.000000 0.000000
# 2 -0.001542 0.009817 -0.001777 0.000000 0.000000 0.000000
# 3 -0.002830 -0.001777 0.013384 0.000000 0.000000 0.000000
# 4 0.000000 0.000000 0.000000 0.101075 0.000000 0.000000
# 5 0.000000 0.000000 0.000000 0.000000 0.033468 0.000000
# 6 0.000000 0.000000 0.000000 0.000000 0.000000 0.043242
#
#
# Mechanical properties :
#
#
# Convention : Reuss Voigt Hill
#
# Bulk Modulus (GPa) = 28.23766 32.95087 30.59426
# Shear Modulus (GPa) = 20.03180 25.44803 22.73992
#
# Velocity S-wave (km/s) = 2.94797 3.32269 3.14092
# Velocity P-wave (km/s) = 4.88240 5.38661 5.14069
#
# Compressibility (1/GPa) = 0.03541370
#
# Stress axis : x y z
#
# Youngs Moduli (GPa) = 40.79663 101.85896 74.71587
#
# Poissons Ratio (x) = 0.15708 0.21146
# Poissons Ratio (y) = 0.06291 0.13281
# Poissons Ratio (z) = 0.11546 0.18105
#
# Static dielectric constant tensor:
#      x y z
#    x 1.911920 0.000000 0.000000 
#    y 0.000000 1.860500 0.000000 
#    z 0.000000 0.000000 1.947260 
# 
# From -- ./inp_files/9802.got.cif
#   From: 2010.05.17/outbox.cif.g08.bks.cpg/sg61_5_cif.got.tgz:9802.got - 2010.06.03 15:17:17.
