data_PCOD9459053
_publ_section_title
;
Structure prediction by ZEFSAII (Michael W. Deem and Ramdas Pophale) SiO2 
 PCOD9459053
Probable space group: P B C A
;
_chemical_formula_sum "Si O2"
_cell_formula_units_Z 56
_cell_length_a 30.633484
_cell_length_b 5.518078
_cell_length_c 13.315209
_cell_angle_alpha 90.000000
_cell_angle_beta 90.000000
_cell_angle_gamma 90.000000
_cell_volume 2250.775688
_symmetry_space_group_name_H-M "P B C A"
_symmetry_group_IT_number 61
_symmetry_cell_setting 'orthorhombic'
loop_
_space_group_symop_operation_xyz
x,y,z
1/2-x,-y,1/2+z
1/2+x,1/2-y,-z
-x,1/2+y,1/2-z
-x,-y,-z
1/2+x,y,1/2-z
1/2-x,1/2+y,z
x,1/2-y,1/2+z
loop_
_atom_site_type_symbol
_atom_site_label
_atom_site_fract_x
_atom_site_fract_y
_atom_site_fract_z
Si Si1 0.474753 0.610332 0.769376
Si Si2 0.646094 0.169184 0.012189
Si Si3 0.073749 0.553157 0.452357
Si Si4 0.274281 0.362967 0.854814
Si Si5 0.241731 0.330775 0.076938
Si Si6 0.634266 0.847422 0.189269
Si Si7 0.089087 0.830840 0.626769
O O1 0.493201 0.875428 0.741783
O O2 0.457171 0.609538 0.883660
O O3 0.435843 0.529970 0.693722
O O4 0.693261 0.195659 0.965143
O O5 0.622789 0.964968 0.945603
O O6 0.615049 0.398929 0.011193
O O7 0.648958 0.084286 0.128490
O O8 0.093267 0.747185 0.374192
O O9 0.056857 0.687579 0.551525
O O10 0.253591 0.622357 0.829064
O O11 0.323685 0.326919 0.817751
O O12 0.272781 0.346201 0.978030
O O13 0.245937 0.585535 0.132323
O O14 0.615667 0.850186 0.300770
#
# Coordination Sequence:
#
# PCOD9459053 Si02
#       7
#     8   8   8   8   8   8   8
#     4  11  28  50  77 105 140 179 225 284 356 433
#     4  11  22  40  70  96 139 190 235 293 345 416
#     4  10  24  43  72 101 138 179 227 282 355 418
#     4  10  18  33  59  89 125 178 233 281 336 390
#     4  10  19  34  61  93 129 182 234 280 342 393
#     4  10  21  40  64  94 136 185 235 282 344 413
#     4  10  26  44  67 106 136 182 234 285 346 431
#
# _framework density 24.880310000000001
#
# number of rings (size 3 to 8) (size 9 to 14) (size 15 to 20)
#    0.000    1.714    2.857    1.714   10.000    2.286 
#    0.000    1.429    0.000    0.000    0.000    0.000 
#    0.000    0.000    0.000    0.000    0.000    0.000 
#
# Total GULP energy -313275.851316 kJ/mol
# GULP energy per Si atom -5594.211631 kJ/mol
# Density = 2.482368 g / cm^3
# Si number density = 24.880310 Si / 1000 Ang^3
#
#
#
# Elastic Constant Matrix: (Units=GPa)
#
#
# Indices 1 2 3 4 5 6 
#
# 1 66.2048 10.3783 15.1681 0.0000 0.0000 0.0000
# 2 10.3783 131.7717 26.8416 0.0000 0.0000 0.0000
# 3 15.1681 26.8416 113.6053 0.0000 0.0000 0.0000
# 4 0.0000 0.0000 0.0000 9.9862 0.0000 0.0000
# 5 0.0000 0.0000 0.0000 0.0000 8.1858 0.0000
# 6 0.0000 0.0000 0.0000 0.0000 0.0000 8.3338
#
#
#
# Elastic Compliance Matrix: (Units=1/GPa)
#
#
# Indices 1 2 3 4 5 6 
#
# 1 0.015671 -0.000849 -0.001892 0.000000 0.000000 0.000000
# 2 -0.000849 0.008019 -0.001781 0.000000 0.000000 0.000000
# 3 -0.001892 -0.001781 0.009476 0.000000 0.000000 0.000000
# 4 0.000000 0.000000 0.000000 0.100138 0.000000 0.000000
# 5 0.000000 0.000000 0.000000 0.000000 0.122163 0.000000
# 6 0.000000 0.000000 0.000000 0.000000 0.000000 0.119993
#
#
# Mechanical properties :
#
#
# Convention : Reuss Voigt Hill
#
# Bulk Modulus (GPa) = 41.45630 46.26195 43.85913
# Shear Modulus (GPa) = 12.73743 22.58076 17.65909
#
# Velocity S-wave (km/s) = 2.26508 3.01587 2.66703
# Velocity P-wave (km/s) = 4.85173 5.54630 5.21060
#
# Compressibility (1/GPa) = 0.02412178
#
# Stress axis : x y z
#
# Youngs Moduli (GPa) = 63.81155 124.71049 105.53161
#
# Poissons Ratio (x) = 0.10587 0.19964
# Poissons Ratio (y) = 0.05417 0.18797
# Poissons Ratio (z) = 0.12072 0.22214
#
# Static dielectric constant tensor:
#      x y z
#    x 1.979760 0.000000 0.000000 
#    y 0.000000 2.025280 0.000000 
#    z 0.000000 0.000000 1.980600 
# 
# From -- ./inp_files/606.got.cif
#   From: 2010.05.17/outbox.cif.g08.bks.cpg/sg61_1_cif.got.tgz:606.got - 2010.06.03 15:17:17.
