data_PCOD9459376
_publ_section_title
;
Structure prediction by ZEFSAII (Michael W. Deem and Ramdas Pophale) SiO2 
 PCOD9459376
Probable space group: P B C A
;
_chemical_formula_sum "Si O2"
_cell_formula_units_Z 64
_cell_length_a 16.900920
_cell_length_b 9.226923
_cell_length_c 19.516699
_cell_angle_alpha 90.000000
_cell_angle_beta 90.000000
_cell_angle_gamma 90.000000
_cell_volume 3043.502106
_symmetry_space_group_name_H-M "P B C A"
_symmetry_group_IT_number 61
_symmetry_cell_setting 'orthorhombic'
loop_
_space_group_symop_operation_xyz
x,y,z
1/2-x,-y,1/2+z
1/2+x,1/2-y,-z
-x,1/2+y,1/2-z
-x,-y,-z
1/2+x,y,1/2-z
1/2-x,1/2+y,z
x,1/2-y,1/2+z
loop_
_atom_site_type_symbol
_atom_site_label
_atom_site_fract_x
_atom_site_fract_y
_atom_site_fract_z
Si Si1 0.003247 0.722601 0.135922
Si Si2 0.961305 0.346639 0.512807
Si Si3 0.324622 0.668326 0.845332
Si Si4 0.793725 0.179087 0.971014
Si Si5 0.746561 0.579314 0.238763
Si Si6 0.294208 0.456606 0.458047
Si Si7 0.025659 0.563221 0.925416
Si Si8 0.162132 0.662169 0.683549
O O1 0.915563 0.787179 0.144568
O O2 0.004963 0.546684 0.132599
O O3 0.029120 0.766431 0.059449
O O4 0.069559 0.795781 0.183282
O O5 0.867492 0.367844 0.519068
O O6 0.993532 0.235233 0.570239
O O7 0.000000 0.500000 0.500000
O O8 0.281373 0.815274 0.819832
O O9 0.315502 0.538608 0.789988
O O10 0.273755 0.603662 0.908274
O O11 0.809046 0.130600 0.894014
O O12 0.792818 0.350892 0.976303
O O13 0.718881 0.112643 0.009100
O O14 0.707934 0.694436 0.290521
O O15 0.814287 0.477108 0.271516
O O16 0.379089 0.445528 0.422913
O O17 0.000000 0.500000 0.000000
#
# Coordination Sequence:
#
# PCOD9459376 Si02
#       8
#     8   8   8   8   8   8   8   8
#     4  10  20  36  57  83 114 146 193 247 294 345
#     4   9  18  32  50  80 118 150 179 222 286 354
#     4  11  22  38  61  87 115 154 196 247 300 355
#     4  10  20  33  56  84 113 147 185 235 289 352
#     4  10  23  42  60  78 113 159 205 243 289 361
#     4  11  20  34  58  89 119 150 191 237 299 364
#     4   9  19  34  52  80 120 157 185 230 292 358
#     4  10  22  41  60  83 114 155 201 245 294 357
#
# _framework density 21.028407000000001
#
# number of rings (size 3 to 8) (size 9 to 14) (size 15 to 20)
#    0.000    2.000    0.000    4.500    0.000    3.000 
#    0.000    5.000    0.000    0.000    0.000    0.000 
#    0.000    0.000    0.000    0.000    0.000    0.000 
#
# Total GULP energy -356717.530034 kJ/mol
# GULP energy per Si atom -5573.711407 kJ/mol
# Density = 2.098055 g / cm^3
# Si number density = 21.028407 Si / 1000 Ang^3
#
#
#
# Elastic Constant Matrix: (Units=GPa)
#
#
# Indices 1 2 3 4 5 6 
#
# 1 95.5208 31.9995 18.8294 0.0000 0.0000 0.0000
# 2 31.9995 130.5725 16.2661 0.0000 0.0000 0.0000
# 3 18.8294 16.2661 36.9593 0.0000 0.0000 0.0000
# 4 0.0000 0.0000 0.0000 28.9551 0.0000 0.0000
# 5 0.0000 0.0000 0.0000 0.0000 19.1102 0.0000
# 6 0.0000 0.0000 0.0000 0.0000 0.0000 23.3075
#
#
#
# Elastic Compliance Matrix: (Units=1/GPa)
#
#
# Indices 1 2 3 4 5 6 
#
# 1 0.012289 -0.002361 -0.005222 0.000000 0.000000 0.000000
# 2 -0.002361 0.008557 -0.002563 0.000000 0.000000 0.000000
# 3 -0.005222 -0.002563 0.030845 0.000000 0.000000 0.000000
# 4 0.000000 0.000000 0.000000 0.034536 0.000000 0.000000
# 5 0.000000 0.000000 0.000000 0.000000 0.052328 0.000000
# 6 0.000000 0.000000 0.000000 0.000000 0.000000 0.042905
#
#
# Mechanical properties :
#
#
# Convention : Reuss Voigt Hill
#
# Bulk Modulus (GPa) = 31.84795 44.13807 37.99301
# Shear Modulus (GPa) = 23.56071 27.33840 25.44956
#
# Velocity S-wave (km/s) = 3.35090 3.60956 3.48263
# Velocity P-wave (km/s) = 5.49085 6.19735 5.85477
#
# Compressibility (1/GPa) = 0.03139919
#
# Stress axis : x y z
#
# Youngs Moduli (GPa) = 81.37185 116.86992 32.42016
#
# Poissons Ratio (x) = 0.27596 0.16929
# Poissons Ratio (y) = 0.19214 0.08309
# Poissons Ratio (z) = 0.42490 0.29952
#
# Static dielectric constant tensor:
#      x y z
#    x 1.862010 0.000000 0.000000 
#    y 0.000000 1.821860 0.000000 
#    z 0.000000 0.000000 1.783200 
# 
# From -- ./inp_files/10546.got.cif
#   From: 2010.05.17/outbox.cif.g08.bks.cpg/sg61_6_cif.got.tgz:10546.got - 2010.06.03 15:17:17.
