data_PCOD9459199
_publ_section_title
;
Structure prediction by ZEFSAII (Michael W. Deem and Ramdas Pophale) SiO2 
 PCOD9459199
Probable space group: P B C A
;
_chemical_formula_sum "Si O2"
_cell_formula_units_Z 44
_cell_length_a 13.057896
_cell_length_b 13.396164
_cell_length_c 8.825378
_cell_angle_alpha 90.000000
_cell_angle_beta 90.000000
_cell_angle_gamma 90.000000
_cell_volume 1543.785568
_symmetry_space_group_name_H-M "P B C A"
_symmetry_group_IT_number 61
_symmetry_cell_setting 'orthorhombic'
loop_
_space_group_symop_operation_xyz
x,y,z
1/2-x,-y,1/2+z
1/2+x,1/2-y,-z
-x,1/2+y,1/2-z
-x,-y,-z
1/2+x,y,1/2-z
1/2-x,1/2+y,z
x,1/2-y,1/2+z
loop_
_atom_site_type_symbol
_atom_site_label
_atom_site_fract_x
_atom_site_fract_y
_atom_site_fract_z
Si Si1 0.265621 0.493390 0.372965
Si Si2 0.432960 0.154744 0.859567
Si Si3 0.172608 0.824295 0.037662
Si Si4 0.500000 0.000000 0.000000
Si Si5 0.421960 0.875810 0.725340
Si Si6 0.859560 0.806503 0.075668
O O1 0.372849 0.444456 0.442022
O O2 0.203088 0.568309 0.475547
O O3 0.313051 0.566541 0.248089
O O4 0.202271 0.394607 0.339785
O O5 0.388080 0.158047 0.693101
O O6 0.537461 0.109044 0.917315
O O7 0.398456 0.256369 0.931474
O O8 0.275406 0.755804 0.023608
O O9 0.501265 0.940429 0.821028
O O10 0.429734 0.862159 0.546604
O O11 0.412881 0.768190 0.807399
#
# Coordination Sequence:
#
# PCOD9459199 Si02
#       6
#     8   8   8   4   8   8
#     4   9  17  31  55  82 107 134 171 219 273 314
#     4  10  21  35  56  80 111 145 179 224 267 326
#     4  10  19  34  57  84 108 136 178 227 277 318
#     4  10  22  40  54  72 106 152 190 214 266 326
#     4  10  21  35  56  80 111 145 179 224 267 326
#     4  10  19  34  57  84 108 136 178 227 277 318
#
# _framework density 28.501367999999999
#
# number of rings (size 3 to 8) (size 9 to 14) (size 15 to 20)
#    0.000    2.182    0.000    5.455    0.000    4.364 
#    0.000    1.818    0.000    3.273    0.000    0.000 
#    0.000    0.000    0.000    0.000    0.000    0.000 
#
# Total GULP energy -245641.038885 kJ/mol
# GULP energy per Si atom -5582.750884 kJ/mol
# Density = 2.843650 g / cm^3
# Si number density = 28.501368 Si / 1000 Ang^3
#
#
#
# Elastic Constant Matrix: (Units=GPa)
#
#
# Indices 1 2 3 4 5 6 
#
# 1 80.2538 32.0786 19.9572 0.0000 0.0000 0.0000
# 2 32.0786 142.7681 12.9523 0.0000 0.0000 0.0000
# 3 19.9572 12.9523 91.8131 0.0000 0.0000 0.0000
# 4 0.0000 0.0000 0.0000 59.4519 0.0000 0.0000
# 5 0.0000 0.0000 0.0000 0.0000 43.6760 0.0000
# 6 0.0000 0.0000 0.0000 0.0000 0.0000 56.2294
#
#
#
# Elastic Compliance Matrix: (Units=1/GPa)
#
#
# Indices 1 2 3 4 5 6 
#
# 1 0.014318 -0.002973 -0.002693 0.000000 0.000000 0.000000
# 2 -0.002973 0.007712 -0.000442 0.000000 0.000000 0.000000
# 3 -0.002693 -0.000442 0.011539 0.000000 0.000000 0.000000
# 4 0.000000 0.000000 0.000000 0.016820 0.000000 0.000000
# 5 0.000000 0.000000 0.000000 0.000000 0.022896 0.000000
# 6 0.000000 0.000000 0.000000 0.000000 0.000000 0.017784
#
#
# Mechanical properties :
#
#
# Convention : Reuss Voigt Hill
#
# Bulk Modulus (GPa) = 46.82762 49.42348 48.12555
# Shear Modulus (GPa) = 45.28805 48.52792 46.90799
#
# Velocity S-wave (km/s) = 3.99052 4.13080 4.06127
# Velocity P-wave (km/s) = 6.13987 6.33480 6.23810
#
# Compressibility (1/GPa) = 0.02135492
#
# Stress axis : x y z
#
# Youngs Moduli (GPa) = 69.83988 129.66082 86.65978
#
# Poissons Ratio (x) = 0.38547 0.23337
# Poissons Ratio (y) = 0.20763 0.03829
# Poissons Ratio (z) = 0.18808 0.05728
#
# Static dielectric constant tensor:
#      x y z
#    x 2.488400 0.000000 0.000000 
#    y 0.000000 2.257560 0.000000 
#    z 0.000000 0.000000 2.261730 
# 
# From -- ./inp_files/3372.got.cif
#   From: 2010.05.17/outbox.cif.g08.bks.cpg/sg61_2_cif.got.tgz:3372.got - 2010.06.03 15:17:17.
