data_PCOD9459117
_publ_section_title
;
Structure prediction by ZEFSAII (Michael W. Deem and Ramdas Pophale) SiO2 
 PCOD9459117
Probable space group: P B C A
;
_chemical_formula_sum "Si O2"
_cell_formula_units_Z 48
_cell_length_a 17.305734
_cell_length_b 15.922452
_cell_length_c 9.521666
_cell_angle_alpha 90.000000
_cell_angle_beta 90.000000
_cell_angle_gamma 90.000000
_cell_volume 2623.692390
_symmetry_space_group_name_H-M "P B C A"
_symmetry_group_IT_number 61
_symmetry_cell_setting 'orthorhombic'
loop_
_space_group_symop_operation_xyz
x,y,z
1/2-x,-y,1/2+z
1/2+x,1/2-y,-z
-x,1/2+y,1/2-z
-x,-y,-z
1/2+x,y,1/2-z
1/2-x,1/2+y,z
x,1/2-y,1/2+z
loop_
_atom_site_type_symbol
_atom_site_label
_atom_site_fract_x
_atom_site_fract_y
_atom_site_fract_z
Si Si1 0.516577 0.583839 0.087829
Si Si2 0.051240 0.156686 0.832919
Si Si3 0.836608 0.504541 0.690092
Si Si4 0.567603 0.346987 0.653961
Si Si5 0.536986 0.586594 0.561619
Si Si6 0.679071 0.017568 0.024482
O O1 0.599436 0.567620 0.158527
O O2 0.454339 0.599531 0.209086
O O3 0.500000 0.500000 0.000000
O O4 0.502629 0.654586 0.971282
O O5 0.081158 0.250536 0.806857
O O6 0.002081 0.117406 0.704656
O O7 0.122442 0.092433 0.851846
O O8 0.761377 0.487697 0.598145
O O9 0.818329 0.510731 0.855759
O O10 0.490973 0.349040 0.556446
O O11 0.635104 0.396411 0.571546
O O12 0.500000 0.500000 0.500000
O O13 0.625610 0.560700 0.575236
#
# Coordination Sequence:
#
# PCOD9459117 Si02
#       6
#     8   8   8   8   8   8
#     4  10  21  37  63  91 113 152 212 247 286 371
#     4  11  22  38  65  93 121 155 209 259 306 349
#     4  11  23  40  61  90 121 163 206 241 304 376
#     4  11  21  40  64  88 123 159 201 264 306 343
#     4  10  18  40  64  84 114 162 202 245 296 363
#     4  11  23  39  64  86 122 166 202 245 302 373
#
# _framework density 18.294829
#
# number of rings (size 3 to 8) (size 9 to 14) (size 15 to 20)
#    0.000    1.333    5.000    4.000    7.000    0.000 
#    0.000    3.333    0.000    0.000    0.000    0.000 
#    0.000    0.000    0.000    0.000    0.000    0.000 
#
# Total GULP energy -267510.718642 kJ/mol
# GULP energy per Si atom -5573.139972 kJ/mol
# Density = 1.825319 g / cm^3
# Si number density = 18.294829 Si / 1000 Ang^3
#
#
#
# Elastic Constant Matrix: (Units=GPa)
#
#
# Indices 1 2 3 4 5 6 
#
# 1 105.3275 39.3270 51.7231 0.0000 0.0000 0.0000
# 2 39.3270 94.1991 31.9654 0.0000 0.0000 0.0000
# 3 51.7231 31.9654 142.1871 0.0000 0.0000 0.0000
# 4 0.0000 0.0000 0.0000 13.3569 0.0000 0.0000
# 5 0.0000 0.0000 0.0000 0.0000 33.8625 0.0000
# 6 0.0000 0.0000 0.0000 0.0000 0.0000 13.6818
#
#
#
# Elastic Compliance Matrix: (Units=1/GPa)
#
#
# Indices 1 2 3 4 5 6 
#
# 1 0.012871 -0.004097 -0.003761 0.000000 0.000000 0.000000
# 2 -0.004097 0.012797 -0.001386 0.000000 0.000000 0.000000
# 3 -0.003761 -0.001386 0.008713 0.000000 0.000000 0.000000
# 4 0.000000 0.000000 0.000000 0.074868 0.000000 0.000000
# 5 0.000000 0.000000 0.000000 0.000000 0.029531 0.000000
# 6 0.000000 0.000000 0.000000 0.000000 0.000000 0.073090
#
#
# Mechanical properties :
#
#
# Convention : Reuss Voigt Hill
#
# Bulk Modulus (GPa) = 62.92739 65.30498 64.11619
# Shear Modulus (GPa) = 21.21742 26.76013 23.98877
#
# Velocity S-wave (km/s) = 3.40920 3.82870 3.62502
# Velocity P-wave (km/s) = 7.06879 7.43765 7.25556
#
# Compressibility (1/GPa) = 0.01589133
#
# Stress axis : x y z
#
# Youngs Moduli (GPa) = 77.69484 78.14440 114.77400
#
# Poissons Ratio (x) = 0.32017 0.43165
# Poissons Ratio (y) = 0.31833 0.15913
# Poissons Ratio (z) = 0.29220 0.10834
#
# Static dielectric constant tensor:
#      x y z
#    x 1.642100 0.000000 0.000000 
#    y 0.000000 1.673960 0.000000 
#    z 0.000000 0.000000 1.682140 
# 
# From -- ./inp_files/3450.got.cif
#   From: 2010.05.17/outbox.cif.g08.bks.cpg/sg61_2_cif.got.tgz:3450.got - 2010.06.03 15:17:17.
