data_PCOD9459177
_publ_section_title
;
Structure prediction by ZEFSAII (Michael W. Deem and Ramdas Pophale) SiO2 
 PCOD9459177
Probable space group: P B C A
;
_chemical_formula_sum "Si O2"
_cell_formula_units_Z 64
_cell_length_a 19.570223
_cell_length_b 9.073974
_cell_length_c 14.049528
_cell_angle_alpha 90.000000
_cell_angle_beta 90.000000
_cell_angle_gamma 90.000000
_cell_volume 2494.910893
_symmetry_space_group_name_H-M "P B C A"
_symmetry_group_IT_number 61
_symmetry_cell_setting 'orthorhombic'
loop_
_space_group_symop_operation_xyz
x,y,z
1/2-x,-y,1/2+z
1/2+x,1/2-y,-z
-x,1/2+y,1/2-z
-x,-y,-z
1/2+x,y,1/2-z
1/2-x,1/2+y,z
x,1/2-y,1/2+z
loop_
_atom_site_type_symbol
_atom_site_label
_atom_site_fract_x
_atom_site_fract_y
_atom_site_fract_z
Si Si1 0.664103 0.652589 0.062599
Si Si2 0.790168 0.664629 0.541454
Si Si3 0.402795 0.624628 0.518929
Si Si4 0.158581 0.815083 0.166015
Si Si5 0.978739 0.039546 0.767957
Si Si6 0.597035 0.230431 0.770756
Si Si7 0.230106 0.390056 0.688147
Si Si8 0.951823 0.344337 0.064297
O O1 0.687367 0.489071 0.085625
O O2 0.722424 0.769417 0.086865
O O3 0.659172 0.664871 0.947630
O O4 0.590585 0.704639 0.097232
O O5 0.849341 0.786303 0.542645
O O6 0.779540 0.637046 0.426829
O O7 0.388295 0.650780 0.629028
O O8 0.479752 0.686137 0.505965
O O9 0.403594 0.453009 0.495298
O O10 0.082052 0.855303 0.194701
O O11 0.192715 0.664851 0.202832
O O12 0.210645 0.941069 0.203249
O O13 0.973646 0.057257 0.653915
O O14 0.052139 0.114632 0.790684
O O15 0.953812 0.872521 0.789861
O O16 0.671473 0.301813 0.753152
#
# Coordination Sequence:
#
# PCOD9459177 Si02
#       8
#     8   8   8   8   8   8   8   8
#     4  10  19  33  56  83 110 144 186 228 272 330
#     4   9  17  32  55  79 105 143 191 229 260 322
#     4   9  19  37  57  79 109 149 191 230 273 333
#     4   9  18  32  53  76 103 139 181 222 263 319
#     4  10  21  37  56  83 114 143 181 233 284 331
#     4   9  19  36  57  79 108 147 191 227 269 333
#     4   8  16  31  51  78 101 131 184 229 256 309
#     4  10  21  36  55  82 118 149 179 231 293 333
#
# _framework density 25.65222
#
# number of rings (size 3 to 8) (size 9 to 14) (size 15 to 20)
#    0.000    2.750    0.000    1.500    0.000    7.500 
#    0.000    7.500    0.000    0.000    0.000    0.000 
#    0.000    0.000    0.000    0.000    0.000    0.000 
#
# Total GULP energy -357781.689465 kJ/mol
# GULP energy per Si atom -5590.338898 kJ/mol
# Density = 2.559383 g / cm^3
# Si number density = 25.652220 Si / 1000 Ang^3
#
#
#
# Elastic Constant Matrix: (Units=GPa)
#
#
# Indices 1 2 3 4 5 6 
#
# 1 86.7911 25.8783 -3.6904 0.0000 0.0000 0.0000
# 2 25.8783 35.3823 -4.3141 0.0000 0.0000 0.0000
# 3 -3.6904 -4.3141 67.6489 0.0000 0.0000 0.0000
# 4 0.0000 0.0000 0.0000 18.1136 0.0000 0.0000
# 5 0.0000 0.0000 0.0000 0.0000 29.0359 0.0000
# 6 0.0000 0.0000 0.0000 0.0000 0.0000 46.6620
#
#
#
# Elastic Compliance Matrix: (Units=1/GPa)
#
#
# Indices 1 2 3 4 5 6 
#
# 1 0.014736 -0.010764 0.000117 0.000000 0.000000 0.000000
# 2 -0.010764 0.036346 0.001731 0.000000 0.000000 0.000000
# 3 0.000117 0.001731 0.014899 0.000000 0.000000 0.000000
# 4 0.000000 0.000000 0.000000 0.055207 0.000000 0.000000
# 5 0.000000 0.000000 0.000000 0.000000 0.034440 0.000000
# 6 0.000000 0.000000 0.000000 0.000000 0.000000 0.021431
#
#
# Mechanical properties :
#
#
# Convention : Reuss Voigt Hill
#
# Bulk Modulus (GPa) = 20.76826 25.06334 22.91580
# Shear Modulus (GPa) = 23.70335 30.22552 26.96444
#
# Velocity S-wave (km/s) = 3.04308 3.43633 3.24567
# Velocity P-wave (km/s) = 4.52336 5.05333 4.79567
#
# Compressibility (1/GPa) = 0.04815040
#
# Stress axis : x y z
#
# Youngs Moduli (GPa) = 67.85973 27.51322 67.11873
#
# Poissons Ratio (x) = 0.29614 -0.00789
# Poissons Ratio (y) = 0.73042 -0.11616
# Poissons Ratio (z) = -0.00797 -0.04762
#
# Static dielectric constant tensor:
#      x y z
#    x 2.054660 0.000000 0.000000 
#    y 0.000000 1.982600 0.000000 
#    z 0.000000 0.000000 2.091140 
# 
# From -- ./inp_files/9772.got.cif
#   From: 2010.05.17/outbox.cif.g08.bks.cpg/sg61_5_cif.got.tgz:9772.got - 2010.06.03 15:17:17.
