data_PCOD9459930
_publ_section_title
;
Structure prediction by ZEFSAII (Michael W. Deem and Ramdas Pophale) SiO2 
 PCOD9459930
Probable space group: P B C A
;
_chemical_formula_sum "Si O2"
_cell_formula_units_Z 56
_cell_length_a 15.254892
_cell_length_b 29.029620
_cell_length_c 5.200737
_cell_angle_alpha 90.000000
_cell_angle_beta 90.000000
_cell_angle_gamma 90.000000
_cell_volume 2303.113709
_symmetry_space_group_name_H-M "P B C A"
_symmetry_group_IT_number 61
_symmetry_cell_setting 'orthorhombic'
loop_
_space_group_symop_operation_xyz
x,y,z
1/2-x,-y,1/2+z
1/2+x,1/2-y,-z
-x,1/2+y,1/2-z
-x,-y,-z
1/2+x,y,1/2-z
1/2-x,1/2+y,z
x,1/2-y,1/2+z
loop_
_atom_site_type_symbol
_atom_site_label
_atom_site_fract_x
_atom_site_fract_y
_atom_site_fract_z
Si Si1 0.251946 0.279988 0.722018
Si Si2 0.700057 0.114611 0.355940
Si Si3 0.298504 0.047260 0.472380
Si Si4 0.627405 0.458533 0.256015
Si Si5 0.040508 0.723826 0.332905
Si Si6 0.483321 0.627671 0.311157
Si Si7 0.050077 0.915365 0.216145
O O1 0.226743 0.243973 0.494494
O O2 0.220509 0.331009 0.637058
O O3 0.357075 0.286146 0.770243
O O4 0.663231 0.086989 0.604072
O O5 0.616476 0.111127 0.162317
O O6 0.780947 0.086425 0.238408
O O7 0.200398 0.030435 0.529697
O O8 0.349763 0.070007 0.708542
O O9 0.360111 0.004295 0.412365
O O10 0.524553 0.451601 0.304448
O O11 0.022500 0.736647 0.625908
O O12 0.982905 0.680178 0.269117
O O13 0.535516 0.623921 0.575043
O O14 0.526099 0.599741 0.074260
#
# Coordination Sequence:
#
# PCOD9459930 Si02
#       7
#     8   8   8   8   8   8   8
#     4  10  24  41  65  98 131 175 233 282 344 420
#     4  11  25  43  68  98 143 181 232 296 348 420
#     4  12  24  44  73  98 144 192 227 294 354 414
#     4  11  25  46  66 109 139 185 240 285 347 428
#     4  10  21  39  62  92 131 172 225 288 344 410
#     4  11  24  44  64 101 135 179 239 284 348 424
#     4  11  26  43  70 100 140 185 234 286 344 418
#
# _framework density 24.314909
#
# number of rings (size 3 to 8) (size 9 to 14) (size 15 to 20)
#    0.000    1.143    2.857    2.143    6.000    2.286 
#    0.000    2.857    0.000    0.000    0.000    0.000 
#    0.000    0.000    0.000    0.000    0.000    0.000 
#
# Total GULP energy -312788.116157 kJ/mol
# GULP energy per Si atom -5585.502074 kJ/mol
# Density = 2.425957 g / cm^3
# Si number density = 24.314909 Si / 1000 Ang^3
#
#
#
# Elastic Constant Matrix: (Units=GPa)
#
#
# Indices 1 2 3 4 5 6 
#
# 1 70.3506 3.0130 14.5745 0.0000 0.0000 0.0000
# 2 3.0130 46.2482 8.7383 0.0000 0.0000 0.0000
# 3 14.5745 8.7383 65.3422 0.0000 0.0000 0.0000
# 4 0.0000 0.0000 0.0000 26.0389 0.0000 0.0000
# 5 0.0000 0.0000 0.0000 0.0000 27.3018 0.0000
# 6 0.0000 0.0000 0.0000 0.0000 0.0000 20.0463
#
#
#
# Elastic Compliance Matrix: (Units=1/GPa)
#
#
# Indices 1 2 3 4 5 6 
#
# 1 0.014909 -0.000352 -0.003278 0.000000 0.000000 0.000000
# 2 -0.000352 0.022191 -0.002889 0.000000 0.000000 0.000000
# 3 -0.003278 -0.002889 0.016422 0.000000 0.000000 0.000000
# 4 0.000000 0.000000 0.000000 0.038404 0.000000 0.000000
# 5 0.000000 0.000000 0.000000 0.000000 0.036628 0.000000
# 6 0.000000 0.000000 0.000000 0.000000 0.000000 0.049884
#
#
# Mechanical properties :
#
#
# Convention : Reuss Voigt Hill
#
# Bulk Modulus (GPa) = 24.70178 26.06586 25.38382
# Shear Modulus (GPa) = 24.39373 25.05177 24.72275
#
# Velocity S-wave (km/s) = 3.17084 3.21332 3.19215
# Velocity P-wave (km/s) = 4.85662 4.95082 4.90395
#
# Compressibility (1/GPa) = 0.04048291
#
# Stress axis : x y z
#
# Youngs Moduli (GPa) = 67.07470 45.06277 60.89523
#
# Poissons Ratio (x) = 0.01586 0.19963
# Poissons Ratio (y) = 0.02360 0.17594
# Poissons Ratio (z) = 0.21989 0.13019
#
# Static dielectric constant tensor:
#      x y z
#    x 1.948750 0.000000 0.000000 
#    y 0.000000 1.930620 0.000000 
#    z 0.000000 0.000000 2.049820 
# 
# From -- ./inp_files/588.got.cif
#   From: 2010.05.17/outbox.cif.g08.bks.cpg/sg61_1_cif.got.tgz:588.got - 2010.06.03 15:17:17.
