data_PCOD9459698
_publ_section_title
;
Structure prediction by ZEFSAII (Michael W. Deem and Ramdas Pophale) SiO2 
 PCOD9459698
Probable space group: P B C A
;
_chemical_formula_sum "Si O2"
_cell_formula_units_Z 64
_cell_length_a 14.012522
_cell_length_b 8.141727
_cell_length_c 24.878878
_cell_angle_alpha 90.000000
_cell_angle_beta 90.000000
_cell_angle_gamma 90.000000
_cell_volume 2838.334878
_symmetry_space_group_name_H-M "P B C A"
_symmetry_group_IT_number 61
_symmetry_cell_setting 'orthorhombic'
loop_
_space_group_symop_operation_xyz
x,y,z
1/2-x,-y,1/2+z
1/2+x,1/2-y,-z
-x,1/2+y,1/2-z
-x,-y,-z
1/2+x,y,1/2-z
1/2-x,1/2+y,z
x,1/2-y,1/2+z
loop_
_atom_site_type_symbol
_atom_site_label
_atom_site_fract_x
_atom_site_fract_y
_atom_site_fract_z
Si Si1 0.409865 0.826409 0.786218
Si Si2 0.397291 0.318010 0.527029
Si Si3 0.723164 0.147494 0.596539
Si Si4 0.030438 0.316657 0.569636
Si Si5 0.970248 0.820023 0.110094
Si Si6 0.806812 0.143632 0.173179
Si Si7 0.507005 0.811555 0.187801
Si Si8 0.719205 0.489284 0.979769
O O1 0.467376 0.703500 0.826365
O O2 0.295687 0.836320 0.798427
O O3 0.425233 0.754419 0.727238
O O4 0.455797 0.005094 0.798875
O O5 0.471360 0.280378 0.477607
O O6 0.451169 0.287147 0.582021
O O7 0.329781 0.474275 0.536823
O O8 0.319981 0.172254 0.522276
O O9 0.630285 0.260078 0.591266
O O10 0.811627 0.242581 0.619335
O O11 0.731146 0.056473 0.541940
O O12 0.695489 0.032153 0.646244
O O13 0.135586 0.377307 0.548077
O O14 0.981910 0.496256 0.585214
O O15 0.025768 0.218871 0.626089
O O16 0.901732 0.194684 0.202788
#
# Coordination Sequence:
#
# PCOD9459698 Si02
#       8
#     8   8   8   8   8   8   8   8
#     4  11  27  42  70  99 126 172 224 280 334 391
#     4  11  22  39  61  95 131 177 216 270 330 398
#     4  11  18  37  63  95 127 164 211 270 308 382
#     4  11  21  42  65  93 133 180 217 267 337 396
#     4  10  20  41  63  90 128 170 220 267 322 390
#     4  11  23  39  67  99 124 163 219 267 322 384
#     4  12  24  45  66  96 132 168 217 276 334 396
#     4  11  21  36  62  94 130 176 213 258 335 391
#
# _framework density 22.548432999999999
#
# number of rings (size 3 to 8) (size 9 to 14) (size 15 to 20)
#    0.000    1.000    5.000    3.000    1.750    1.000 
#    2.250    1.250    0.000    0.000    0.000    0.000 
#    0.000    0.000    0.000    0.000    0.000    0.000 
#
# Total GULP energy -356809.720397 kJ/mol
# GULP energy per Si atom -5575.151881 kJ/mol
# Density = 2.249711 g / cm^3
# Si number density = 22.548433 Si / 1000 Ang^3
#
#
#
# Elastic Constant Matrix: (Units=GPa)
#
#
# Indices 1 2 3 4 5 6 
#
# 1 92.4779 9.7876 34.0728 0.0000 0.0000 0.0000
# 2 9.7876 48.8953 17.3294 0.0000 0.0000 0.0000
# 3 34.0728 17.3294 89.9013 0.0000 0.0000 0.0000
# 4 0.0000 0.0000 0.0000 23.8673 0.0000 0.0000
# 5 0.0000 0.0000 0.0000 0.0000 19.8683 0.0000
# 6 0.0000 0.0000 0.0000 0.0000 0.0000 34.0854
#
#
#
# Elastic Compliance Matrix: (Units=1/GPa)
#
#
# Indices 1 2 3 4 5 6 
#
# 1 0.012605 -0.000891 -0.004605 0.000000 0.000000 0.000000
# 2 -0.000891 0.022014 -0.003906 0.000000 0.000000 0.000000
# 3 -0.004605 -0.003906 0.013622 0.000000 0.000000 0.000000
# 4 0.000000 0.000000 0.000000 0.041898 0.000000 0.000000
# 5 0.000000 0.000000 0.000000 0.000000 0.050331 0.000000
# 6 0.000000 0.000000 0.000000 0.000000 0.000000 0.029338
#
#
# Mechanical properties :
#
#
# Convention : Reuss Voigt Hill
#
# Bulk Modulus (GPa) = 33.97159 39.29490 36.63324
# Shear Modulus (GPa) = 25.19844 26.90318 26.05081
#
# Velocity S-wave (km/s) = 3.34657 3.45792 3.40270
# Velocity P-wave (km/s) = 5.48009 5.77993 5.63201
#
# Compressibility (1/GPa) = 0.02943636
#
# Stress axis : x y z
#
# Youngs Moduli (GPa) = 79.33666 45.42464 73.41241
#
# Poissons Ratio (x) = 0.04047 0.33810
# Poissons Ratio (y) = 0.07068 0.28674
# Poissons Ratio (z) = 0.36538 0.17742
#
# Static dielectric constant tensor:
#      x y z
#    x 1.968990 0.000000 0.000000 
#    y 0.000000 1.935720 0.000000 
#    z 0.000000 0.000000 1.854800 
# 
# From -- ./inp_files/11083.got.cif
#   From: 2010.05.17/outbox.cif.g08.bks.cpg/sg61_6_cif.got.tgz:11083.got - 2010.06.03 15:17:17.
