data_PCOD9459746
_publ_section_title
;
Structure prediction by ZEFSAII (Michael W. Deem and Ramdas Pophale) SiO2 
 PCOD9459746
Probable space group: P B C A
;
_chemical_formula_sum "Si O2"
_cell_formula_units_Z 60
_cell_length_a 27.087801
_cell_length_b 7.513367
_cell_length_c 12.403124
_cell_angle_alpha 90.000000
_cell_angle_beta 90.000000
_cell_angle_gamma 90.000000
_cell_volume 2524.291116
_symmetry_space_group_name_H-M "P B C A"
_symmetry_group_IT_number 61
_symmetry_cell_setting 'orthorhombic'
loop_
_space_group_symop_operation_xyz
x,y,z
1/2-x,-y,1/2+z
1/2+x,1/2-y,-z
-x,1/2+y,1/2-z
-x,-y,-z
1/2+x,y,1/2-z
1/2-x,1/2+y,z
x,1/2-y,1/2+z
loop_
_atom_site_type_symbol
_atom_site_label
_atom_site_fract_x
_atom_site_fract_y
_atom_site_fract_z
Si Si1 0.798617 0.426010 0.978836
Si Si2 0.500000 0.000000 0.500000
Si Si3 0.361967 0.475214 0.711584
Si Si4 0.946136 0.009232 0.612738
Si Si5 0.898594 0.853911 0.080647
Si Si6 0.686268 0.510742 0.935026
Si Si7 0.539908 0.810216 0.889939
Si Si8 0.155467 0.604541 0.796391
O O1 0.825613 0.534799 0.883590
O O2 0.740476 0.442552 0.964034
O O3 0.814860 0.221386 0.961710
O O4 0.817218 0.469749 0.098250
O O5 0.446090 0.973280 0.443099
O O6 0.527206 0.896191 0.395398
O O7 0.380808 0.620362 0.796246
O O8 0.408919 0.381374 0.654525
O O9 0.335207 0.315641 0.778130
O O10 0.918429 0.842874 0.557165
O O11 0.995165 0.922505 0.662427
O O12 0.963023 0.143064 0.518926
O O13 0.903500 0.090575 0.685493
O O14 0.854574 0.912136 0.004397
O O15 0.673585 0.502551 0.808897
#
# Coordination Sequence:
#
# PCOD9459746 Si02
#       8
#     8   4   8   8   8   8   8   8
#     4  11  25  44  67  98 133 176 230 293 348 420
#     4  10  20  42  70  98 140 184 232 288 350 428
#     4  11  23  43  70  95 140 185 230 289 353 421
#     4  10  23  40  66 102 142 179 227 287 342 418
#     4  11  24  42  67 104 140 182 234 284 352 428
#     4  11  27  43  69 101 131 181 230 289 356 423
#     4  10  21  40  68 103 138 186 227 292 350 414
#     4  11  23  44  69  93 134 178 226 287 351 420
#
# _framework density 23.769051999999999
#
# number of rings (size 3 to 8) (size 9 to 14) (size 15 to 20)
#    0.000    1.333    2.667    2.400    3.733    5.333 
#    0.000    1.333    0.000    0.000    0.000    0.000 
#    0.000    0.000    0.000    0.000    0.000    0.000 
#
# Total GULP energy -334725.750062 kJ/mol
# GULP energy per Si atom -5578.762501 kJ/mol
# Density = 2.371495 g / cm^3
# Si number density = 23.769052 Si / 1000 Ang^3
#
#
#
# Elastic Constant Matrix: (Units=GPa)
#
#
# Indices 1 2 3 4 5 6 
#
# 1 143.3548 -22.2905 42.9578 0.0000 0.0000 0.0000
# 2 -22.2905 26.8233 -8.5872 0.0000 0.0000 0.0000
# 3 42.9578 -8.5872 111.1970 0.0000 0.0000 0.0000
# 4 0.0000 0.0000 0.0000 11.1064 0.0000 0.0000
# 5 0.0000 0.0000 0.0000 0.0000 34.5882 0.0000
# 6 0.0000 0.0000 0.0000 0.0000 0.0000 9.6066
#
#
#
# Elastic Compliance Matrix: (Units=1/GPa)
#
#
# Indices 1 2 3 4 5 6 
#
# 1 0.008850 0.006418 -0.002923 0.000000 0.000000 0.000000
# 2 0.006418 0.042881 0.000832 0.000000 0.000000 0.000000
# 3 -0.002923 0.000832 0.010187 0.000000 0.000000 0.000000
# 4 0.000000 0.000000 0.000000 0.090038 0.000000 0.000000
# 5 0.000000 0.000000 0.000000 0.000000 0.028912 0.000000
# 6 0.000000 0.000000 0.000000 0.000000 0.000000 0.104095
#
#
# Mechanical properties :
#
#
# Convention : Reuss Voigt Hill
#
# Bulk Modulus (GPa) = 14.17002 33.94839 24.05920
# Shear Modulus (GPa) = 16.67603 29.01324 22.84464
#
# Velocity S-wave (km/s) = 2.65162 3.49754 3.10354
# Velocity P-wave (km/s) = 3.91781 5.53390 4.79444
#
# Compressibility (1/GPa) = 0.07057153
#
# Stress axis : x y z
#
# Youngs Moduli (GPa) = 112.99874 23.32033 98.16842
#
# Poissons Ratio (x) = -0.14968 0.28696
# Poissons Ratio (y) = -0.72526 -0.08167
# Poissons Ratio (z) = 0.33031 -0.01940
#
# Static dielectric constant tensor:
#      x y z
#    x 1.844310 0.000000 0.000000 
#    y 0.000000 1.957510 0.000000 
#    z 0.000000 0.000000 1.889640 
# 
# From -- ./inp_files/6710.got.cif
#   From: 2010.05.17/outbox.cif.g08.bks.cpg/sg61_4_cif.got.tgz:6710.got - 2010.06.03 15:17:17.
