data_PCOD9459141
_publ_section_title
;
Structure prediction by ZEFSAII (Michael W. Deem and Ramdas Pophale) SiO2 
 PCOD9459141
Probable space group: P B C A
;
_chemical_formula_sum "Si O2"
_cell_formula_units_Z 56
_cell_length_a 5.282014
_cell_length_b 29.525758
_cell_length_c 20.301864
_cell_angle_alpha 90.000000
_cell_angle_beta 90.000000
_cell_angle_gamma 90.000000
_cell_volume 3166.186683
_symmetry_space_group_name_H-M "P B C A"
_symmetry_group_IT_number 61
_symmetry_cell_setting 'orthorhombic'
loop_
_space_group_symop_operation_xyz
x,y,z
1/2-x,-y,1/2+z
1/2+x,1/2-y,-z
-x,1/2+y,1/2-z
-x,-y,-z
1/2+x,y,1/2-z
1/2-x,1/2+y,z
x,1/2-y,1/2+z
loop_
_atom_site_type_symbol
_atom_site_label
_atom_site_fract_x
_atom_site_fract_y
_atom_site_fract_z
Si Si1 0.766331 0.494593 0.413474
Si Si2 0.716619 0.657156 0.570355
Si Si3 0.233249 0.385717 0.287801
Si Si4 0.265324 0.951164 0.946304
Si Si5 0.227436 0.014605 0.732743
Si Si6 0.715955 0.647274 0.019083
Si Si7 0.794695 0.745233 0.041575
O O1 0.753868 0.460795 0.474964
O O2 0.532759 0.529060 0.422921
O O3 0.735155 0.471327 0.343141
O O4 0.032895 0.520741 0.415918
O O5 0.740445 0.628310 0.636677
O O6 0.451424 0.648649 0.532732
O O7 0.741583 0.710995 0.586230
O O8 0.950999 0.646807 0.521047
O O9 0.473676 0.369360 0.245514
O O10 0.229473 0.440400 0.278039
O O11 0.238697 0.897851 0.938242
O O12 0.476419 0.987888 0.751229
O O13 0.739255 0.693594 0.061019
O O14 0.585417 0.752176 0.983088
#
# Coordination Sequence:
#
# PCOD9459141 Si02
#       7
#     8   8   8   8   8   8   8
#     4  10  21  36  46  72 104 130 177 211 264 299
#     4  10  19  31  51  74 110 132 161 214 245 315
#     4  10  21  32  45  75  98 136 170 195 251 308
#     4  10  21  33  52  71  99 142 167 217 258 306
#     4  10  21  33  51  70  97 133 172 208 256 310
#     4  10  19  31  53  76 100 136 172 202 261 305
#     4   8  16  30  46  74 102 129 159 193 247 299
#
# _framework density 17.686892
#
# number of rings (size 3 to 8) (size 9 to 14) (size 15 to 20)
#    0.000    2.286    0.000    2.571    8.000    0.000 
#    0.000    0.000    0.000    0.000    0.000    6.000 
#    0.000    0.000    0.000    0.000    0.000    0.000 
#
# Total GULP energy -312055.673038 kJ/mol
# GULP energy per Si atom -5572.422733 kJ/mol
# Density = 1.764664 g / cm^3
# Si number density = 17.686892 Si / 1000 Ang^3
#
#
#
# Elastic Constant Matrix: (Units=GPa)
#
#
# Indices 1 2 3 4 5 6 
#
# 1 102.7733 -16.5692 -1.7634 0.0000 0.0000 0.0000
# 2 -16.5692 74.6928 -2.0234 0.0000 0.0000 0.0000
# 3 -1.7634 -2.0234 36.5714 0.0000 0.0000 0.0000
# 4 0.0000 0.0000 0.0000 21.6248 0.0000 0.0000
# 5 0.0000 0.0000 0.0000 0.0000 15.6885 0.0000
# 6 0.0000 0.0000 0.0000 0.0000 0.0000 12.3446
#
#
#
# Elastic Compliance Matrix: (Units=1/GPa)
#
#
# Indices 1 2 3 4 5 6 
#
# 1 0.010105 0.002258 0.000612 0.000000 0.000000 0.000000
# 2 0.002258 0.013913 0.000879 0.000000 0.000000 0.000000
# 3 0.000612 0.000879 0.027422 0.000000 0.000000 0.000000
# 4 0.000000 0.000000 0.000000 0.046243 0.000000 0.000000
# 5 0.000000 0.000000 0.000000 0.000000 0.063741 0.000000
# 6 0.000000 0.000000 0.000000 0.000000 0.000000 0.081007
#
#
# Mechanical properties :
#
#
# Convention : Reuss Voigt Hill
#
# Bulk Modulus (GPa) = 16.96718 19.25841 18.11279
# Shear Modulus (GPa) = 19.64030 25.55781 22.59906
#
# Velocity S-wave (km/s) = 3.33595 3.80546 3.57841
# Velocity P-wave (km/s) = 4.94489 5.49735 5.22842
#
# Compressibility (1/GPa) = 0.05893732
#
# Stress axis : x y z
#
# Youngs Moduli (GPa) = 98.96376 71.87572 36.46722
#
# Poissons Ratio (x) = -0.16230 -0.02232
# Poissons Ratio (y) = -0.22347 -0.03204
# Poissons Ratio (z) = -0.06058 -0.06315
#
# Static dielectric constant tensor:
#      x y z
#    x 1.704910 0.000000 0.000000 
#    y 0.000000 1.619260 0.000000 
#    z 0.000000 0.000000 1.594400 
# 
# From -- ./inp_files/1464.got.cif
#   From: 2010.05.17/outbox.cif.g08.bks.cpg/sg61_1_cif.got.tgz:1464.got - 2010.06.03 15:17:17.
