data_PCOD9459639
_publ_section_title
;
Structure prediction by ZEFSAII (Michael W. Deem and Ramdas Pophale) SiO2 
 PCOD9459639
Probable space group: P B C A
;
_chemical_formula_sum "Si O2"
_cell_formula_units_Z 48
_cell_length_a 14.377621
_cell_length_b 15.985402
_cell_length_c 9.109971
_cell_angle_alpha 90.000000
_cell_angle_beta 90.000000
_cell_angle_gamma 90.000000
_cell_volume 2093.763324
_symmetry_space_group_name_H-M "P B C A"
_symmetry_group_IT_number 61
_symmetry_cell_setting 'orthorhombic'
loop_
_space_group_symop_operation_xyz
x,y,z
1/2-x,-y,1/2+z
1/2+x,1/2-y,-z
-x,1/2+y,1/2-z
-x,-y,-z
1/2+x,y,1/2-z
1/2-x,1/2+y,z
x,1/2-y,1/2+z
loop_
_atom_site_type_symbol
_atom_site_label
_atom_site_fract_x
_atom_site_fract_y
_atom_site_fract_z
Si Si1 0.047405 0.213132 0.457271
Si Si2 0.629592 0.386748 0.047820
Si Si3 0.494788 0.922951 0.178380
Si Si4 0.695491 0.844567 0.223403
Si Si5 0.361015 0.310683 0.957855
Si Si6 0.013123 0.093225 0.211919
O O1 0.225129 0.105132 0.864628
O O2 0.046705 0.176507 0.294414
O O3 0.060173 0.136641 0.568099
O O4 0.945158 0.253276 0.478967
O O5 0.549341 0.408476 0.162555
O O6 0.618116 0.287864 0.017174
O O7 0.596616 0.431836 0.898738
O O8 0.599091 0.889347 0.183039
O O9 0.493159 0.022771 0.167185
O O10 0.698194 0.839854 0.401093
O O11 0.690648 0.749682 0.158128
O O12 0.418262 0.383977 0.874683
#
# Coordination Sequence:
#
# PCOD9459639 Si02
#       6
#     8   8   8   8   8   8
#     4  10  20  40  63  94 125 172 225 272 326 406
#     4  11  23  39  67  97 131 176 231 272 333 406
#     4  11  23  42  65  95 138 174 221 279 346 403
#     4  11  23  39  63  97 130 172 226 277 332 399
#     4  10  20  39  65  91 129 171 221 280 333 388
#     4  11  21  41  67  94 131 179 218 280 342 401
#
# _framework density 22.925225999999999
#
# number of rings (size 3 to 8) (size 9 to 14) (size 15 to 20)
#    0.000    1.333    5.000    3.000    4.667    0.000 
#    0.000    6.667    0.000    0.000    0.000    0.000 
#    0.000    0.000    0.000    0.000    0.000    0.000 
#
# Total GULP energy -268067.038747 kJ/mol
# GULP energy per Si atom -5584.729974 kJ/mol
# Density = 2.287305 g / cm^3
# Si number density = 22.925226 Si / 1000 Ang^3
#
#
#
# Elastic Constant Matrix: (Units=GPa)
#
#
# Indices 1 2 3 4 5 6 
#
# 1 71.4758 -3.0282 -3.3949 0.0000 0.0000 0.0000
# 2 -3.0282 51.7112 -7.5446 0.0000 0.0000 0.0000
# 3 -3.3949 -7.5446 52.4057 0.0000 0.0000 0.0000
# 4 0.0000 0.0000 0.0000 41.1158 0.0000 0.0000
# 5 0.0000 0.0000 0.0000 0.0000 17.1631 0.0000
# 6 0.0000 0.0000 0.0000 0.0000 0.0000 9.6709
#
#
#
# Elastic Compliance Matrix: (Units=1/GPa)
#
#
# Indices 1 2 3 4 5 6 
#
# 1 0.014082 0.000978 0.001053 0.000000 0.000000 0.000000
# 2 0.000978 0.019821 0.002917 0.000000 0.000000 0.000000
# 3 0.001053 0.002917 0.019570 0.000000 0.000000 0.000000
# 4 0.000000 0.000000 0.000000 0.024322 0.000000 0.000000
# 5 0.000000 0.000000 0.000000 0.000000 0.058265 0.000000
# 6 0.000000 0.000000 0.000000 0.000000 0.000000 0.103403
#
#
# Mechanical properties :
#
#
# Convention : Reuss Voigt Hill
#
# Bulk Modulus (GPa) = 15.78036 16.40636 16.09336
# Shear Modulus (GPa) = 19.94502 26.22732 23.08617
#
# Velocity S-wave (km/s) = 2.95278 3.38603 3.17680
# Velocity P-wave (km/s) = 4.30390 4.73909 4.52673
#
# Compressibility (1/GPa) = 0.06336993
#
# Stress axis : x y z
#
# Youngs Moduli (GPa) = 71.01155 50.45148 51.09853
#
# Poissons Ratio (x) = -0.04936 -0.05381
# Poissons Ratio (y) = -0.06947 -0.14905
# Poissons Ratio (z) = -0.07478 -0.14716
#
# Static dielectric constant tensor:
#      x y z
#    x 1.840690 0.000000 0.000000 
#    y 0.000000 1.955970 0.000000 
#    z 0.000000 0.000000 1.897270 
# 
# From -- ./inp_files/2856.got.cif
#   From: 2010.05.17/outbox.cif.g08.bks.cpg/sg61_2_cif.got.tgz:2856.got - 2010.06.03 15:17:17.
