data_PCOD9459684
_publ_section_title
;
Structure prediction by ZEFSAII (Michael W. Deem and Ramdas Pophale) SiO2 
 PCOD9459684
Probable space group: P B C A
;
_chemical_formula_sum "Si O2"
_cell_formula_units_Z 64
_cell_length_a 24.064183
_cell_length_b 10.474467
_cell_length_c 9.537745
_cell_angle_alpha 90.000000
_cell_angle_beta 90.000000
_cell_angle_gamma 90.000000
_cell_volume 2404.079147
_symmetry_space_group_name_H-M "P B C A"
_symmetry_group_IT_number 61
_symmetry_cell_setting 'orthorhombic'
loop_
_space_group_symop_operation_xyz
x,y,z
1/2-x,-y,1/2+z
1/2+x,1/2-y,-z
-x,1/2+y,1/2-z
-x,-y,-z
1/2+x,y,1/2-z
1/2-x,1/2+y,z
x,1/2-y,1/2+z
loop_
_atom_site_type_symbol
_atom_site_label
_atom_site_fract_x
_atom_site_fract_y
_atom_site_fract_z
Si Si1 0.781938 0.008320 0.015058
Si Si2 0.417422 0.502402 0.421532
Si Si3 0.176569 0.346594 0.753674
Si Si4 0.603977 0.685823 0.782443
Si Si5 0.517020 0.621413 0.249846
Si Si6 0.420789 0.722364 0.616185
Si Si7 0.232884 0.839882 0.245604
Si Si8 0.905259 0.988578 0.032337
O O1 0.743869 0.947665 0.135740
O O2 0.843330 0.032503 0.082318
O O3 0.802788 0.912921 0.889931
O O4 0.752036 0.110560 0.911617
O O5 0.362152 0.564495 0.348699
O O6 0.411082 0.356621 0.376338
O O7 0.473958 0.549473 0.347990
O O8 0.420453 0.577899 0.565536
O O9 0.132627 0.237054 0.713670
O O10 0.231060 0.275842 0.805074
O O11 0.567639 0.805923 0.823284
O O12 0.669755 0.702023 0.778882
O O13 0.589339 0.568821 0.886881
O O14 0.545793 0.533551 0.133446
O O15 0.477743 0.732808 0.185650
O O16 0.411350 0.837510 0.501906
#
# Coordination Sequence:
#
# PCOD9459684 Si02
#       8
#     8   8   8   8   8   8   8   8
#     4  10  23  42  65  98 130 180 220 274 341 401
#     4  11  22  41  65  94 134 168 223 280 336 401
#     4  10  20  40  67  94 123 176 225 268 332 410
#     4  11  24  43  62  97 135 170 215 288 338 386
#     4  11  23  37  66  94 126 177 217 273 335 411
#     4  10  21  38  67  94 123 176 219 275 337 402
#     4  11  24  41  68  98 137 174 223 283 336 411
#     4  10  20  44  65  92 129 176 224 265 341 415
#
# _framework density 26.621420000000001
#
# number of rings (size 3 to 8) (size 9 to 14) (size 15 to 20)
#    0.000    1.500    5.000    2.625    3.500    4.500 
#    0.000    1.250    0.000    0.000    0.000    0.000 
#    0.000    0.000    0.000    0.000    0.000    0.000 
#
# Total GULP energy -357961.425441 kJ/mol
# GULP energy per Si atom -5593.147273 kJ/mol
# Density = 2.656083 g / cm^3
# Si number density = 26.621420 Si / 1000 Ang^3
#
#
#
# Elastic Constant Matrix: (Units=GPa)
#
#
# Indices 1 2 3 4 5 6 
#
# 1 133.4983 10.7565 25.2095 0.0000 0.0000 0.0000
# 2 10.7565 63.2757 3.1992 0.0000 0.0000 0.0000
# 3 25.2095 3.1992 85.9757 0.0000 0.0000 0.0000
# 4 0.0000 0.0000 0.0000 28.9406 0.0000 0.0000
# 5 0.0000 0.0000 0.0000 0.0000 25.3793 0.0000
# 6 0.0000 0.0000 0.0000 0.0000 0.0000 38.0787
#
#
#
# Elastic Compliance Matrix: (Units=1/GPa)
#
#
# Indices 1 2 3 4 5 6 
#
# 1 0.008027 -0.001248 -0.002307 0.000000 0.000000 0.000000
# 2 -0.001248 0.016028 -0.000231 0.000000 0.000000 0.000000
# 3 -0.002307 -0.000231 0.012316 0.000000 0.000000 0.000000
# 4 0.000000 0.000000 0.000000 0.034554 0.000000 0.000000
# 5 0.000000 0.000000 0.000000 0.000000 0.039402 0.000000
# 6 0.000000 0.000000 0.000000 0.000000 0.000000 0.026261
#
#
# Mechanical properties :
#
#
# Convention : Reuss Voigt Hill
#
# Bulk Modulus (GPa) = 34.72258 40.12002 37.42130
# Shear Modulus (GPa) = 32.51840 34.71869 33.61855
#
# Velocity S-wave (km/s) = 3.49881 3.61524 3.55750
# Velocity P-wave (km/s) = 5.42159 5.70350 5.56433
#
# Compressibility (1/GPa) = 0.02879971
#
# Stress axis : x y z
#
# Youngs Moduli (GPa) = 124.58010 62.39222 81.19331
#
# Poissons Ratio (x) = 0.07786 0.18733
# Poissons Ratio (y) = 0.15546 0.01872
# Poissons Ratio (z) = 0.28743 0.01438
#
# Static dielectric constant tensor:
#      x y z
#    x 2.053320 0.000000 0.000000 
#    y 0.000000 2.170890 0.000000 
#    z 0.000000 0.000000 2.184490 
# 
# From -- ./inp_files/6628.got.cif
#   From: 2010.05.17/outbox.cif.g08.bks.cpg/sg61_4_cif.got.tgz:6628.got - 2010.06.03 15:17:17.
