data_PCOD9459629
_publ_section_title
;
Structure prediction by ZEFSAII (Michael W. Deem and Ramdas Pophale) SiO2 
 PCOD9459629
Probable space group: P B C A
;
_chemical_formula_sum "Si O2"
_cell_formula_units_Z 60
_cell_length_a 17.405945
_cell_length_b 5.185958
_cell_length_c 25.642708
_cell_angle_alpha 90.000000
_cell_angle_beta 90.000000
_cell_angle_gamma 90.000000
_cell_volume 2314.677495
_symmetry_space_group_name_H-M "P B C A"
_symmetry_group_IT_number 61
_symmetry_cell_setting 'orthorhombic'
loop_
_space_group_symop_operation_xyz
x,y,z
1/2-x,-y,1/2+z
1/2+x,1/2-y,-z
-x,1/2+y,1/2-z
-x,-y,-z
1/2+x,y,1/2-z
1/2-x,1/2+y,z
x,1/2-y,1/2+z
loop_
_atom_site_type_symbol
_atom_site_label
_atom_site_fract_x
_atom_site_fract_y
_atom_site_fract_z
Si Si1 0.198866 0.483553 0.420627
Si Si2 0.228168 0.371023 0.598267
Si Si3 0.136912 0.687394 0.010815
Si Si4 0.795457 0.102644 0.190035
Si Si5 0.094433 0.133633 0.727786
Si Si6 0.000000 0.000000 0.500000
Si Si7 0.458904 0.138601 0.686574
Si Si8 0.451043 0.957484 0.575007
O O1 0.230876 0.194693 0.421554
O O2 0.155800 0.587996 0.471081
O O3 0.162004 0.534563 0.364241
O O4 0.253939 0.617846 0.629357
O O5 0.290734 0.363610 0.549225
O O6 0.140162 0.392965 0.582198
O O7 0.094925 0.448910 0.984889
O O8 0.056681 0.773362 0.041513
O O9 0.777419 0.406060 0.188885
O O10 0.838961 0.003245 0.240393
O O11 0.071927 0.929514 0.682947
O O12 0.025466 0.143669 0.770343
O O13 0.101885 0.422291 0.706454
O O14 0.007733 0.225412 0.547640
O O15 0.483196 0.036432 0.630539
#
# Coordination Sequence:
#
# PCOD9459629 Si02
#       8
#     8   8   8   8   8   4   8   8
#     4  10  22  39  66  97 129 178 224 264 331 409
#     4  10  20  39  64  84 129 174 214 260 320 388
#     4  11  24  42  62  96 137 184 220 275 335 402
#     4  10  21  40  65  99 132 164 219 282 337 400
#     4  10  22  46  68  98 126 178 213 289 343 407
#     4  12  26  42  64 100 138 172 228 288 326 392
#     4  10  24  43  72  94 132 171 229 270 350 403
#     4  11  25  44  65 101 134 178 228 284 326 414
#
# _framework density 25.921538000000002
#
# number of rings (size 3 to 8) (size 9 to 14) (size 15 to 20)
#    0.000    1.600    1.333    2.800    5.600    0.000 
#    0.000    8.000    0.000    0.000    0.000    0.000 
#    0.000    0.000    0.000    0.000    0.000    0.000 
#
# Total GULP energy -334521.487759 kJ/mol
# GULP energy per Si atom -5575.358129 kJ/mol
# Density = 2.586254 g / cm^3
# Si number density = 25.921538 Si / 1000 Ang^3
#
#
#
# Elastic Constant Matrix: (Units=GPa)
#
#
# Indices 1 2 3 4 5 6 
#
# 1 67.0591 13.9662 9.2745 0.0000 0.0000 0.0000
# 2 13.9662 91.5057 -6.1758 0.0000 0.0000 0.0000
# 3 9.2745 -6.1758 66.9915 0.0000 0.0000 0.0000
# 4 0.0000 0.0000 0.0000 30.4098 0.0000 0.0000
# 5 0.0000 0.0000 0.0000 0.0000 15.8326 0.0000
# 6 0.0000 0.0000 0.0000 0.0000 0.0000 23.0212
#
#
#
# Elastic Compliance Matrix: (Units=1/GPa)
#
#
# Indices 1 2 3 4 5 6 
#
# 1 0.015783 -0.002572 -0.002422 0.000000 0.000000 0.000000
# 2 -0.002572 0.011416 0.001409 0.000000 0.000000 0.000000
# 3 -0.002422 0.001409 0.015392 0.000000 0.000000 0.000000
# 4 0.000000 0.000000 0.000000 0.032884 0.000000 0.000000
# 5 0.000000 0.000000 0.000000 0.000000 0.063161 0.000000
# 6 0.000000 0.000000 0.000000 0.000000 0.000000 0.043438
#
#
# Mechanical properties :
#
#
# Convention : Reuss Voigt Hill
#
# Bulk Modulus (GPa) = 28.23315 28.85400 28.54357
# Shear Modulus (GPa) = 24.86907 27.75215 26.31061
#
# Velocity S-wave (km/s) = 3.10078 3.27558 3.18938
# Velocity P-wave (km/s) = 4.87187 5.04593 4.95966
#
# Compressibility (1/GPa) = 0.03541936
#
# Stress axis : x y z
#
# Youngs Moduli (GPa) = 63.35950 87.59665 64.96690
#
# Poissons Ratio (x) = 0.22533 0.15736
# Poissons Ratio (y) = 0.16298 -0.09151
# Poissons Ratio (z) = 0.15347 -0.12338
#
# Static dielectric constant tensor:
#      x y z
#    x 2.710680 0.000000 0.000000 
#    y 0.000000 5.261440 0.000000 
#    z 0.000000 0.000000 3.662030 
# 
# From -- ./inp_files/8772.got.cif
#   From: 2010.05.17/outbox.cif.g08.bks.cpg/sg61_5_cif.got.tgz:8772.got - 2010.06.03 15:17:17.
