data_PCOD9459192
_publ_section_title
;
Structure prediction by ZEFSAII (Michael W. Deem and Ramdas Pophale) SiO2 
 PCOD9459192
Probable space group: P B C A
;
_chemical_formula_sum "Si O2"
_cell_formula_units_Z 56
_cell_length_a 9.472799
_cell_length_b 16.939369
_cell_length_c 12.973654
_cell_angle_alpha 90.000000
_cell_angle_beta 90.000000
_cell_angle_gamma 90.000000
_cell_volume 2081.794526
_symmetry_space_group_name_H-M "P B C A"
_symmetry_group_IT_number 61
_symmetry_cell_setting 'orthorhombic'
loop_
_space_group_symop_operation_xyz
x,y,z
1/2-x,-y,1/2+z
1/2+x,1/2-y,-z
-x,1/2+y,1/2-z
-x,-y,-z
1/2+x,y,1/2-z
1/2-x,1/2+y,z
x,1/2-y,1/2+z
loop_
_atom_site_type_symbol
_atom_site_label
_atom_site_fract_x
_atom_site_fract_y
_atom_site_fract_z
Si Si1 0.943151 0.768689 0.492962
Si Si2 0.826537 0.229928 0.865195
Si Si3 0.060882 0.929444 0.431350
Si Si4 0.203765 0.431918 0.181523
Si Si5 0.006316 0.144462 0.155580
Si Si6 0.659367 0.473451 0.988814
Si Si7 0.755345 0.891269 0.739419
O O1 0.014742 0.722583 0.588342
O O2 0.016552 0.852839 0.494966
O O3 0.995881 0.732040 0.384138
O O4 0.776912 0.769533 0.467223
O O5 0.773533 0.153589 0.799610
O O6 0.802567 0.311121 0.799824
O O7 0.229531 0.940239 0.428100
O O8 0.966477 0.926242 0.328014
O O9 0.000000 0.000000 0.500000
O O10 0.264799 0.454525 0.068603
O O11 0.237065 0.516606 0.231756
O O12 0.851421 0.110970 0.143932
O O13 0.125946 0.101206 0.086431
O O14 0.078344 0.126136 0.265836
O O15 0.500000 0.500000 0.000000
#
# Coordination Sequence:
#
# PCOD9459192 Si02
#       7
#     8   8   8   8   8   8   8
#     4  10  19  34  57  87 115 146 194 247 297 353
#     4  10  20  36  60  86 116 152 195 246 299 361
#     4   9  17  32  56  83 112 145 181 232 299 362
#     4   9  19  35  57  82 111 152 195 237 293 362
#     4  10  22  38  56  80 116 156 195 244 296 353
#     4  10  19  34  55  84 114 140 185 245 298 349
#     4  10  22  41  57  80 118 159 199 243 299 362
#
# _framework density 26.899868000000001
#
# number of rings (size 3 to 8) (size 9 to 14) (size 15 to 20)
#    0.000    2.286    0.000    4.286    0.000    2.286 
#    0.000   10.000    0.000    0.000    0.000    0.000 
#    0.000    0.000    0.000    0.000    0.000    0.000 
#
# Total GULP energy -311871.415870 kJ/mol
# GULP energy per Si atom -5569.132426 kJ/mol
# Density = 2.683864 g / cm^3
# Si number density = 26.899868 Si / 1000 Ang^3
#
#
#
# Elastic Constant Matrix: (Units=GPa)
#
#
# Indices 1 2 3 4 5 6 
#
# 1 131.4055 49.9682 33.2960 0.0000 0.0000 0.0000
# 2 49.9682 173.5680 42.4624 0.0000 0.0000 0.0000
# 3 33.2960 42.4624 43.1141 0.0000 0.0000 0.0000
# 4 0.0000 0.0000 0.0000 25.1514 0.0000 0.0000
# 5 0.0000 0.0000 0.0000 0.0000 35.8610 0.0000
# 6 0.0000 0.0000 0.0000 0.0000 0.0000 43.2102
#
#
#
# Elastic Compliance Matrix: (Units=1/GPa)
#
#
# Indices 1 2 3 4 5 6 
#
# 1 0.009666 -0.001260 -0.006224 0.000000 0.000000 0.000000
# 2 -0.001260 0.007755 -0.006664 0.000000 0.000000 0.000000
# 3 -0.006224 -0.006664 0.034564 0.000000 0.000000 0.000000
# 4 0.000000 0.000000 0.000000 0.039759 0.000000 0.000000
# 5 0.000000 0.000000 0.000000 0.000000 0.027885 0.000000
# 6 0.000000 0.000000 0.000000 0.000000 0.000000 0.023143
#
#
# Mechanical properties :
#
#
# Convention : Reuss Voigt Hill
#
# Bulk Modulus (GPa) = 42.21436 66.61563 54.41500
# Shear Modulus (GPa) = 27.93843 35.66859 31.80351
#
# Velocity S-wave (km/s) = 3.22624 3.64535 3.44218
# Velocity P-wave (km/s) = 5.44108 6.52197 6.00589
#
# Compressibility (1/GPa) = 0.02368862
#
# Stress axis : x y z
#
# Youngs Moduli (GPa) = 103.45268 128.95641 28.93166
#
# Poissons Ratio (x) = 0.16251 0.18007
# Poissons Ratio (y) = 0.13037 0.19280
# Poissons Ratio (z) = 0.64388 0.85938
#
# Static dielectric constant tensor:
#      x y z
#    x 2.264700 0.000000 0.000000 
#    y 0.000000 2.085800 0.000000 
#    z 0.000000 0.000000 2.609030 
# 
# From -- ./inp_files/10158.got.cif
#   From: 2010.05.17/outbox.cif.g08.bks.cpg/sg61_6_cif.got.tgz:10158.got - 2010.06.03 15:17:17.
