data_PCOD9459236
_publ_section_title
;
Structure prediction by ZEFSAII (Michael W. Deem and Ramdas Pophale) SiO2 
 PCOD9459236
Probable space group: P B C A
;
_chemical_formula_sum "Si O2"
_cell_formula_units_Z 40
_cell_length_a 8.461774
_cell_length_b 17.616915
_cell_length_c 13.488663
_cell_angle_alpha 90.000000
_cell_angle_beta 90.000000
_cell_angle_gamma 90.000000
_cell_volume 2010.759759
_symmetry_space_group_name_H-M "P B C A"
_symmetry_group_IT_number 61
_symmetry_cell_setting 'orthorhombic'
loop_
_space_group_symop_operation_xyz
x,y,z
1/2-x,-y,1/2+z
1/2+x,1/2-y,-z
-x,1/2+y,1/2-z
-x,-y,-z
1/2+x,y,1/2-z
1/2-x,1/2+y,z
x,1/2-y,1/2+z
loop_
_atom_site_type_symbol
_atom_site_label
_atom_site_fract_x
_atom_site_fract_y
_atom_site_fract_z
Si Si1 0.082838 0.684759 0.649811
Si Si2 0.439970 0.637971 0.655083
Si Si3 0.070808 0.488434 0.887975
Si Si4 0.405069 0.148941 0.061249
Si Si5 0.626168 0.062029 0.535621
O O1 0.253610 0.645827 0.650415
O O2 0.107278 0.767294 0.603414
O O3 0.014867 0.689737 0.760542
O O4 0.962192 0.630773 0.590433
O O5 0.485109 0.550671 0.678845
O O6 0.518888 0.655322 0.548918
O O7 0.022405 0.402118 0.870908
O O8 0.750977 0.514572 0.603963
O O9 0.000000 0.500000 0.000000
O O10 0.239905 0.103124 0.046191
O O11 0.500000 0.000000 0.500000
#
# Coordination Sequence:
#
# PCOD9459236 Si02
#       5
#     8   8   8   8   8
#     4  12  22  37  60  87 121 156 197 250 306 361
#     4  10  21  38  58  84 116 155 197 240 298 362
#     4   8  17  37  59  79 109 147 194 240 285 347
#     4  10  21  39  62  88 118 155 202 257 300 351
#     4  10  19  35  61  86 114 157 196 239 302 363
#
# _framework density 19.892979
#
# number of rings (size 3 to 8) (size 9 to 14) (size 15 to 20)
#    0.000    2.400    0.000    7.200    0.000    0.000 
#    0.000   10.000    0.000    2.400    0.000    0.000 
#    0.000    0.000    0.000    0.000    0.000    0.000 
#
# Total GULP energy -223020.494084 kJ/mol
# GULP energy per Si atom -5575.512352 kJ/mol
# Density = 1.984770 g / cm^3
# Si number density = 19.892979 Si / 1000 Ang^3
#
#
#
# Elastic Constant Matrix: (Units=GPa)
#
#
# Indices 1 2 3 4 5 6 
#
# 1 156.5042 80.2505 21.1021 0.0000 0.0000 0.0000
# 2 80.2505 141.4364 35.7566 0.0000 0.0000 0.0000
# 3 21.1021 35.7566 41.1873 0.0000 0.0000 0.0000
# 4 0.0000 0.0000 0.0000 12.3362 0.0000 0.0000
# 5 0.0000 0.0000 0.0000 0.0000 16.1960 0.0000
# 6 0.0000 0.0000 0.0000 0.0000 0.0000 26.9542
#
#
#
# Elastic Compliance Matrix: (Units=1/GPa)
#
#
# Indices 1 2 3 4 5 6 
#
# 1 0.009013 -0.005056 -0.000228 0.000000 0.000000 0.000000
# 2 -0.005056 0.011895 -0.007736 0.000000 0.000000 0.000000
# 3 -0.000228 -0.007736 0.031112 0.000000 0.000000 0.000000
# 4 0.000000 0.000000 0.000000 0.081062 0.000000 0.000000
# 5 0.000000 0.000000 0.000000 0.000000 0.061744 0.000000
# 6 0.000000 0.000000 0.000000 0.000000 0.000000 0.037100
#
#
# Mechanical properties :
#
#
# Convention : Reuss Voigt Hill
#
# Bulk Modulus (GPa) = 38.49220 68.14959 53.32089
# Shear Modulus (GPa) = 18.75279 24.56519 21.65899
#
# Velocity S-wave (km/s) = 3.07365 3.51788 3.30324
# Velocity P-wave (km/s) = 5.65580 7.12974 6.43511
#
# Compressibility (1/GPa) = 0.02597929
#
# Stress axis : x y z
#
# Youngs Moduli (GPa) = 110.94981 84.06905 32.14166
#
# Poissons Ratio (x) = 0.42508 0.00734
# Poissons Ratio (y) = 0.56100 0.24865
# Poissons Ratio (z) = 0.02532 0.65036
#
# Static dielectric constant tensor:
#      x y z
#    x 1.712530 0.000000 0.000000 
#    y 0.000000 1.767200 0.000000 
#    z 0.000000 0.000000 1.733640 
# 
# From -- ./inp_files/4778.got.cif
#   From: 2010.05.17/outbox.cif.g08.bks.cpg/sg61_3_cif.got.tgz:4778.got - 2010.06.03 15:17:17.
