data_PCOD9459508
_publ_section_title
;
Structure prediction by ZEFSAII (Michael W. Deem and Ramdas Pophale) SiO2 
 PCOD9459508
Probable space group: P B C A
;
_chemical_formula_sum "Si O2"
_cell_formula_units_Z 40
_cell_length_a 8.957451
_cell_length_b 18.761615
_cell_length_c 10.203980
_cell_angle_alpha 90.000000
_cell_angle_beta 90.000000
_cell_angle_gamma 90.000000
_cell_volume 1714.842584
_symmetry_space_group_name_H-M "P B C A"
_symmetry_group_IT_number 61
_symmetry_cell_setting 'orthorhombic'
loop_
_space_group_symop_operation_xyz
x,y,z
1/2-x,-y,1/2+z
1/2+x,1/2-y,-z
-x,1/2+y,1/2-z
-x,-y,-z
1/2+x,y,1/2-z
1/2-x,1/2+y,z
x,1/2-y,1/2+z
loop_
_atom_site_type_symbol
_atom_site_label
_atom_site_fract_x
_atom_site_fract_y
_atom_site_fract_z
Si Si1 0.830153 0.918880 0.957039
Si Si2 0.406495 0.692095 0.494443
Si Si3 0.699436 0.791500 0.836126
Si Si4 0.833957 0.414904 0.474264
Si Si5 0.337405 0.343134 0.311117
O O1 0.772252 0.887081 0.095366
O O2 0.008297 0.909647 0.951940
O O3 0.747339 0.873439 0.844964
O O4 0.795915 0.002475 0.954806
O O5 0.311982 0.755485 0.558683
O O6 0.529466 0.713811 0.387917
O O7 0.293963 0.629843 0.454422
O O8 0.006233 0.840118 0.386721
O O9 0.710021 0.739376 0.712696
O O10 0.849608 0.378487 0.331148
#
# Coordination Sequence:
#
# PCOD9459508 Si02
#       5
#     8   8   8   8   8
#     4  10  22  40  63  90 122 157 199 247 298 355
#     4  10  21  36  60  86 116 155 197 245 297 352
#     4  10  20  37  59  86 117 152 196 242 293 353
#     4  10  20  39  63  89 122 157 197 248 300 355
#     4  10  21  39  61  84 119 161 197 245 300 352
#
# _framework density 23.325755000000001
#
# number of rings (size 3 to 8) (size 9 to 14) (size 15 to 20)
#    0.000    2.000    0.000    4.800    0.000    6.400 
#    0.000   18.000    0.000    0.000    0.000    0.000 
#    0.000    0.000    0.000    0.000    0.000    0.000 
#
# Total GULP energy -223885.809924 kJ/mol
# GULP energy per Si atom -5597.145248 kJ/mol
# Density = 2.327266 g / cm^3
# Si number density = 23.325755 Si / 1000 Ang^3
#
#
#
# Elastic Constant Matrix: (Units=GPa)
#
#
# Indices 1 2 3 4 5 6 
#
# 1 104.0122 48.5422 -6.7507 0.0000 0.0000 0.0000
# 2 48.5422 140.1505 5.0593 0.0000 0.0000 0.0000
# 3 -6.7507 5.0593 73.8234 0.0000 0.0000 0.0000
# 4 0.0000 0.0000 0.0000 25.7692 0.0000 0.0000
# 5 0.0000 0.0000 0.0000 0.0000 13.1529 0.0000
# 6 0.0000 0.0000 0.0000 0.0000 0.0000 46.3613
#
#
#
# Elastic Compliance Matrix: (Units=1/GPa)
#
#
# Indices 1 2 3 4 5 6 
#
# 1 0.011599 -0.004066 0.001339 0.000000 0.000000 0.000000
# 2 -0.004066 0.008578 -0.000960 0.000000 0.000000 0.000000
# 3 0.001339 -0.000960 0.013734 0.000000 0.000000 0.000000
# 4 0.000000 0.000000 0.000000 0.038806 0.000000 0.000000
# 5 0.000000 0.000000 0.000000 0.000000 0.076029 0.000000
# 6 0.000000 0.000000 0.000000 0.000000 0.000000 0.021570
#
#
# Mechanical properties :
#
#
# Convention : Reuss Voigt Hill
#
# Bulk Modulus (GPa) = 37.68092 45.74308 41.71200
# Shear Modulus (GPa) = 26.80482 35.13235 30.96858
#
# Velocity S-wave (km/s) = 3.39359 3.88514 3.64765
# Velocity P-wave (km/s) = 5.61645 6.30705 5.97174
#
# Compressibility (1/GPa) = 0.02653863
#
# Stress axis : x y z
#
# Youngs Moduli (GPa) = 86.21740 116.57757 72.81162
#
# Poissons Ratio (x) = 0.47396 -0.09751
# Poissons Ratio (y) = 0.35053 0.06987
# Poissons Ratio (z) = -0.11547 0.11187
#
# Static dielectric constant tensor:
#      x y z
#    x 1.891640 0.000000 0.000000 
#    y 0.000000 1.869000 0.000000 
#    z 0.000000 0.000000 1.951380 
# 
# From -- ./inp_files/4799.got.cif
#   From: 2010.05.17/outbox.cif.g08.bks.cpg/sg61_3_cif.got.tgz:4799.got - 2010.06.03 15:17:17.
