data_PCOD9459753
_publ_section_title
;
Structure prediction by ZEFSAII (Michael W. Deem and Ramdas Pophale) SiO2 
 PCOD9459753
Probable space group: P B C A
;
_chemical_formula_sum "Si O2"
_cell_formula_units_Z 56
_cell_length_a 7.232995
_cell_length_b 16.951873
_cell_length_c 18.383615
_cell_angle_alpha 90.000000
_cell_angle_beta 90.000000
_cell_angle_gamma 90.000000
_cell_volume 2254.066742
_symmetry_space_group_name_H-M "P B C A"
_symmetry_group_IT_number 61
_symmetry_cell_setting 'orthorhombic'
loop_
_space_group_symop_operation_xyz
x,y,z
1/2-x,-y,1/2+z
1/2+x,1/2-y,-z
-x,1/2+y,1/2-z
-x,-y,-z
1/2+x,y,1/2-z
1/2-x,1/2+y,z
x,1/2-y,1/2+z
loop_
_atom_site_type_symbol
_atom_site_label
_atom_site_fract_x
_atom_site_fract_y
_atom_site_fract_z
Si Si1 0.146206 0.045994 0.360884
Si Si2 0.442805 0.784415 0.884357
Si Si3 0.755616 0.010505 0.286389
Si Si4 0.585685 0.627530 0.870483
Si Si5 0.449068 0.798727 0.054387
Si Si6 0.649750 0.143259 0.378981
Si Si7 0.231948 0.429094 0.469919
O O1 0.181247 0.010521 0.440613
O O2 0.171602 0.139694 0.360657
O O3 0.277575 0.009654 0.299872
O O4 0.944332 0.020744 0.331684
O O5 0.454038 0.700323 0.845440
O O6 0.650924 0.815808 0.873843
O O7 0.413393 0.772519 0.970875
O O8 0.634436 0.088006 0.308767
O O9 0.659756 0.929820 0.309278
O O10 0.766569 0.660374 0.912789
O O11 0.456993 0.581984 0.926635
O O12 0.479633 0.717502 0.099671
O O13 0.617381 0.861027 0.051002
O O14 0.675778 0.083782 0.446919
#
# Coordination Sequence:
#
# PCOD9459753 Si02
#       7
#     8   8   8   8   8   8   8
#     4  11  24  46  64  94 136 178 221 272 331 395
#     4   9  21  40  67  94 135 172 215 274 335 383
#     4  11  24  45  64  93 138 173 225 275 324 400
#     4  11  22  41  66  99 132 171 219 271 325 399
#     4  10  20  43  66  97 141 164 214 286 319 392
#     4   9  21  39  67 100 129 173 222 267 338 386
#     4  11  22  40  68 100 129 175 217 268 338 387
#
# _framework density 24.843985
#
# number of rings (size 3 to 8) (size 9 to 14) (size 15 to 20)
#    0.000    1.714    2.857    0.857    2.000    2.286 
#   10.286    1.429    0.000    0.000    0.000    0.000 
#    0.000    0.000    0.000    0.000    0.000    0.000 
#
# Total GULP energy -313145.319665 kJ/mol
# GULP energy per Si atom -5591.880708 kJ/mol
# Density = 2.478744 g / cm^3
# Si number density = 24.843985 Si / 1000 Ang^3
#
#
#
# Elastic Constant Matrix: (Units=GPa)
#
#
# Indices 1 2 3 4 5 6 
#
# 1 80.8348 23.6641 -1.6123 0.0000 0.0000 0.0000
# 2 23.6641 106.2805 17.2901 0.0000 0.0000 0.0000
# 3 -1.6123 17.2901 40.6062 0.0000 0.0000 0.0000
# 4 0.0000 0.0000 0.0000 23.9276 0.0000 0.0000
# 5 0.0000 0.0000 0.0000 0.0000 18.7571 0.0000
# 6 0.0000 0.0000 0.0000 0.0000 0.0000 27.4251
#
#
#
# Elastic Compliance Matrix: (Units=1/GPa)
#
#
# Indices 1 2 3 4 5 6 
#
# 1 0.013373 -0.003292 0.001933 0.000000 0.000000 0.000000
# 2 -0.003292 0.010920 -0.004780 0.000000 0.000000 0.000000
# 3 0.001933 -0.004780 0.026739 0.000000 0.000000 0.000000
# 4 0.000000 0.000000 0.000000 0.041793 0.000000 0.000000
# 5 0.000000 0.000000 0.000000 0.000000 0.053313 0.000000
# 6 0.000000 0.000000 0.000000 0.000000 0.000000 0.036463
#
#
# Mechanical properties :
#
#
# Convention : Reuss Voigt Hill
#
# Bulk Modulus (GPa) = 25.80470 34.04504 29.92487
# Shear Modulus (GPa) = 24.06187 26.58060 25.32124
#
# Velocity S-wave (km/s) = 3.11548 3.27448 3.19597
# Velocity P-wave (km/s) = 4.83227 5.29430 5.06855
#
# Compressibility (1/GPa) = 0.03875263
#
# Stress axis : x y z
#
# Youngs Moduli (GPa) = 74.77644 91.57718 37.39859
#
# Poissons Ratio (x) = 0.30148 -0.07228
# Poissons Ratio (y) = 0.24617 0.17878
# Poissons Ratio (z) = -0.14452 0.43777
#
# Static dielectric constant tensor:
#      x y z
#    x 2.020360 0.000000 0.000000 
#    y 0.000000 2.047670 0.000000 
#    z 0.000000 0.000000 1.947540 
# 
# From -- ./inp_files/10134.got.cif
#   From: 2010.05.17/outbox.cif.g08.bks.cpg/sg61_6_cif.got.tgz:10134.got - 2010.06.03 15:17:17.
