data_PCOD9459106
_publ_section_title
;
Structure prediction by ZEFSAII (Michael W. Deem and Ramdas Pophale) SiO2 
 PCOD9459106
Probable space group: P B C A
;
_chemical_formula_sum "Si O2"
_cell_formula_units_Z 48
_cell_length_a 4.978490
_cell_length_b 18.234767
_cell_length_c 21.551933
_cell_angle_alpha 90.000000
_cell_angle_beta 90.000000
_cell_angle_gamma 90.000000
_cell_volume 1956.519072
_symmetry_space_group_name_H-M "P B C A"
_symmetry_group_IT_number 61
_symmetry_cell_setting 'orthorhombic'
loop_
_space_group_symop_operation_xyz
x,y,z
1/2-x,-y,1/2+z
1/2+x,1/2-y,-z
-x,1/2+y,1/2-z
-x,-y,-z
1/2+x,y,1/2-z
1/2-x,1/2+y,z
x,1/2-y,1/2+z
loop_
_atom_site_type_symbol
_atom_site_label
_atom_site_fract_x
_atom_site_fract_y
_atom_site_fract_z
Si Si1 0.078268 0.501250 0.883811
Si Si2 0.063130 0.707036 0.477141
Si Si3 0.667004 0.788202 0.668954
Si Si4 0.671619 0.628731 0.326859
Si Si5 0.967286 0.374255 0.208774
Si Si6 0.118366 0.434023 0.556522
O O1 0.101963 0.579671 0.852559
O O2 0.354684 0.468622 0.911097
O O3 0.972488 0.450091 0.825317
O O4 0.848492 0.495920 0.937562
O O5 0.311932 0.739011 0.515115
O O6 0.158655 0.708425 0.405512
O O7 0.983727 0.622505 0.495398
O O8 0.471794 0.853380 0.694687
O O9 0.564866 0.710913 0.692031
O O10 0.970798 0.805974 0.686403
O O11 0.722414 0.625231 0.401163
O O12 0.760485 0.390665 0.264463
#
# Coordination Sequence:
#
# PCOD9459106 Si02
#       6
#     8   8   8   8   8   8
#     4  10  18  38  62  80 114 162 196 243 292 355
#     4  11  19  32  62  95 121 154 202 244 307 373
#     4  11  21  39  60  89 127 157 195 259 315 346
#     4   9  16  35  63  80 108 159 195 243 298 343
#     4  12  27  43  60  87 122 163 206 247 312 379
#     4   9  17  33  59  85 112 151 195 247 282 336
#
# _framework density 24.533366999999998
#
# number of rings (size 3 to 8) (size 9 to 14) (size 15 to 20)
#    1.000    0.667    3.333    5.000    0.000    0.000 
#    0.000    5.000    0.000    6.000    0.000    0.000 
#    0.000    0.000    0.000    0.000    0.000    0.000 
#
# Total GULP energy -267327.616926 kJ/mol
# GULP energy per Si atom -5569.325353 kJ/mol
# Density = 2.447753 g / cm^3
# Si number density = 24.533367 Si / 1000 Ang^3
#
#
#
# Elastic Constant Matrix: (Units=GPa)
#
#
# Indices 1 2 3 4 5 6 
#
# 1 130.5179 21.8231 -3.1619 0.0000 0.0000 0.0000
# 2 21.8231 67.6927 8.8003 0.0000 0.0000 0.0000
# 3 -3.1619 8.8003 55.7704 0.0000 0.0000 0.0000
# 4 0.0000 0.0000 0.0000 45.3226 0.0000 0.0000
# 5 0.0000 0.0000 0.0000 0.0000 3.7591 0.0000
# 6 0.0000 0.0000 0.0000 0.0000 0.0000 6.3682
#
#
#
# Elastic Compliance Matrix: (Units=1/GPa)
#
#
# Indices 1 2 3 4 5 6 
#
# 1 0.008142 -0.002741 0.000894 0.000000 0.000000 0.000000
# 2 -0.002741 0.016005 -0.002681 0.000000 0.000000 0.000000
# 3 0.000894 -0.002681 0.018404 0.000000 0.000000 0.000000
# 4 0.000000 0.000000 0.000000 0.022064 0.000000 0.000000
# 5 0.000000 0.000000 0.000000 0.000000 0.266023 0.000000
# 6 0.000000 0.000000 0.000000 0.000000 0.000000 0.157029
#
#
# Mechanical properties :
#
#
# Convention : Reuss Voigt Hill
#
# Bulk Modulus (GPa) = 29.85487 34.32267 32.08877
# Shear Modulus (GPa) = 9.84468 26.19128 18.01798
#
# Velocity S-wave (km/s) = 2.00536 3.27093 2.71297
# Velocity P-wave (km/s) = 4.19016 5.31844 4.78766
#
# Compressibility (1/GPa) = 0.03349538
#
# Stress axis : x y z
#
# Youngs Moduli (GPa) = 122.82364 62.48119 54.33490
#
# Poissons Ratio (x) = 0.17126 -0.04858
# Poissons Ratio (y) = 0.33666 0.14567
# Poissons Ratio (z) = -0.10982 0.16750
#
# Static dielectric constant tensor:
#      x y z
#    x 1.959620 0.000000 0.000000 
#    y 0.000000 2.088890 0.000000 
#    z 0.000000 0.000000 2.124230 
# 
# From -- ./inp_files/10732.got.cif
#   From: 2010.05.17/outbox.cif.g08.bks.cpg/sg61_6_cif.got.tgz:10732.got - 2010.06.03 15:17:17.
