data_PCOD9459931
_publ_section_title
;
Structure prediction by ZEFSAII (Michael W. Deem and Ramdas Pophale) SiO2 
 PCOD9459931
Probable space group: P B C A
;
_chemical_formula_sum "Si O2"
_cell_formula_units_Z 48
_cell_length_a 19.688249
_cell_length_b 19.157868
_cell_length_c 5.232539
_cell_angle_alpha 90.000000
_cell_angle_beta 90.000000
_cell_angle_gamma 90.000000
_cell_volume 1973.634571
_symmetry_space_group_name_H-M "P B C A"
_symmetry_group_IT_number 61
_symmetry_cell_setting 'orthorhombic'
loop_
_space_group_symop_operation_xyz
x,y,z
1/2-x,-y,1/2+z
1/2+x,1/2-y,-z
-x,1/2+y,1/2-z
-x,-y,-z
1/2+x,y,1/2-z
1/2-x,1/2+y,z
x,1/2-y,1/2+z
loop_
_atom_site_type_symbol
_atom_site_label
_atom_site_fract_x
_atom_site_fract_y
_atom_site_fract_z
Si Si1 0.047508 0.406013 0.446582
Si Si2 0.154897 0.706795 0.124641
Si Si3 0.289002 0.422819 0.874710
Si Si4 0.491781 0.793362 0.835655
Si Si5 0.843667 0.553944 0.879959
Si Si6 0.909993 0.045748 0.782034
O O1 0.111489 0.390091 0.268622
O O2 0.068356 0.484977 0.520645
O O3 0.038311 0.362996 0.706333
O O4 0.976790 0.406054 0.288569
O O5 0.173835 0.755759 0.363217
O O6 0.187957 0.631583 0.161881
O O7 0.073458 0.697845 0.151090
O O8 0.296949 0.503634 0.794696
O O9 0.210983 0.410366 0.938332
O O10 0.344745 0.415358 0.101625
O O11 0.473856 0.736711 0.613348
O O12 0.891035 0.498063 0.031246
#
# Coordination Sequence:
#
# PCOD9459931 Si02
#       6
#     8   8   8   8   8   8
#     4  10  22  39  60  95 125 159 214 266 323 392
#     4  10  23  41  64  93 125 174 221 264 312 383
#     4  11  22  39  63  93 129 166 217 264 323 389
#     4  10  22  39  64  90 124 171 217 266 317 382
#     4  11  23  37  64  95 127 169 204 272 334 385
#     4  10  21  39  62  93 125 160 206 265 329 374
#
# _framework density 24.320609999999999
#
# number of rings (size 3 to 8) (size 9 to 14) (size 15 to 20)
#    0.000    1.667    3.333    0.500    4.667    1.333 
#    0.000    1.667    0.000    0.000    0.000    0.000 
#    0.000    0.000    0.000    0.000    0.000    0.000 
#
# Total GULP energy -268482.460237 kJ/mol
# GULP energy per Si atom -5593.384588 kJ/mol
# Density = 2.426526 g / cm^3
# Si number density = 24.320610 Si / 1000 Ang^3
#
#
#
# Elastic Constant Matrix: (Units=GPa)
#
#
# Indices 1 2 3 4 5 6 
#
# 1 57.5894 21.7400 25.8103 0.0000 0.0000 0.0000
# 2 21.7400 74.0627 8.1536 0.0000 0.0000 0.0000
# 3 25.8103 8.1536 69.9474 0.0000 0.0000 0.0000
# 4 0.0000 0.0000 0.0000 44.4796 0.0000 0.0000
# 5 0.0000 0.0000 0.0000 0.0000 15.4781 0.0000
# 6 0.0000 0.0000 0.0000 0.0000 0.0000 16.3339
#
#
#
# Elastic Compliance Matrix: (Units=1/GPa)
#
#
# Indices 1 2 3 4 5 6 
#
# 1 0.023113 -0.005921 -0.007838 0.000000 0.000000 0.000000
# 2 -0.005921 0.015195 0.000414 0.000000 0.000000 0.000000
# 3 -0.007838 0.000414 0.017140 0.000000 0.000000 0.000000
# 4 0.000000 0.000000 0.000000 0.022482 0.000000 0.000000
# 5 0.000000 0.000000 0.000000 0.000000 0.064608 0.000000
# 6 0.000000 0.000000 0.000000 0.000000 0.000000 0.061223
#
#
# Mechanical properties :
#
#
# Convention : Reuss Voigt Hill
#
# Bulk Modulus (GPa) = 34.77533 34.77859 34.77696
# Shear Modulus (GPa) = 20.83012 24.98468 22.90740
#
# Velocity S-wave (km/s) = 2.92974 3.20864 3.07236
# Velocity P-wave (km/s) = 5.07684 5.29700 5.18809
#
# Compressibility (1/GPa) = 0.02875602
#
# Stress axis : x y z
#
# Youngs Moduli (GPa) = 43.26656 65.81256 58.34146
#
# Poissons Ratio (x) = 0.38970 0.45729
# Poissons Ratio (y) = 0.25620 -0.02414
# Poissons Ratio (z) = 0.33913 -0.02723
#
# Static dielectric constant tensor:
#      x y z
#    x 1.940020 0.000000 0.000000 
#    y 0.000000 1.962340 0.000000 
#    z 0.000000 0.000000 2.038280 
# 
# From -- ./inp_files/980.got.cif
#   From: 2010.05.17/outbox.cif.g08.bks.cpg/sg61_1_cif.got.tgz:980.got - 2010.06.03 15:17:17.
