data_PCOD9459762
_publ_section_title
;
Structure prediction by ZEFSAII (Michael W. Deem and Ramdas Pophale) SiO2 
 PCOD9459762
Probable space group: P B C A
;
_chemical_formula_sum "Si O2"
_cell_formula_units_Z 40
_cell_length_a 13.361269
_cell_length_b 19.829362
_cell_length_c 7.648945
_cell_angle_alpha 90.000000
_cell_angle_beta 90.000000
_cell_angle_gamma 90.000000
_cell_volume 2026.553097
_symmetry_space_group_name_H-M "P B C A"
_symmetry_group_IT_number 61
_symmetry_cell_setting 'orthorhombic'
loop_
_space_group_symop_operation_xyz
x,y,z
1/2-x,-y,1/2+z
1/2+x,1/2-y,-z
-x,1/2+y,1/2-z
-x,-y,-z
1/2+x,y,1/2-z
1/2-x,1/2+y,z
x,1/2-y,1/2+z
loop_
_atom_site_type_symbol
_atom_site_label
_atom_site_fract_x
_atom_site_fract_y
_atom_site_fract_z
Si Si1 0.623158 0.161189 0.802400
Si Si2 0.293288 0.413070 0.734579
Si Si3 0.598340 0.637350 0.578422
Si Si4 0.213774 0.293844 0.540743
Si Si5 0.786344 0.445183 0.370139
O O1 0.511376 0.160057 0.873321
O O2 0.633234 0.177444 0.596618
O O3 0.684386 0.220700 0.896846
O O4 0.679539 0.091356 0.839431
O O5 0.387971 0.400831 0.606913
O O6 0.227953 0.345459 0.702508
O O7 0.230306 0.475992 0.660596
O O8 0.318747 0.428014 0.933538
O O9 0.678868 0.698345 0.557646
O O10 0.640659 0.588041 0.728117
#
# Coordination Sequence:
#
# PCOD9459762 Si02
#       5
#     8   8   8   8   8
#     4  11  21  41  63  94 128 168 217 266 309 388
#     4  10  20  44  63  91 129 172 201 266 328 370
#     4   9  23  40  63  95 122 169 215 251 323 375
#     4   9  22  40  59  89 129 165 209 261 319 367
#     4  11  20  41  68  89 134 162 208 270 317 378
#
# _framework density 19.737949
#
# number of rings (size 3 to 8) (size 9 to 14) (size 15 to 20)
#    1.200    0.800    2.000    1.200    0.000    4.000 
#    7.200    2.000    0.000    0.000    0.000    0.000 
#    0.000    0.000    0.000    0.000    0.000    0.000 
#
# Total GULP energy -223045.971917 kJ/mol
# GULP energy per Si atom -5576.149298 kJ/mol
# Density = 1.969302 g / cm^3
# Si number density = 19.737949 Si / 1000 Ang^3
#
#
#
# Elastic Constant Matrix: (Units=GPa)
#
#
# Indices 1 2 3 4 5 6 
#
# 1 56.8838 28.1793 -17.0937 0.0000 0.0000 0.0000
# 2 28.1793 52.3390 -4.7912 0.0000 0.0000 0.0000
# 3 -17.0937 -4.7912 62.2849 0.0000 0.0000 0.0000
# 4 0.0000 0.0000 0.0000 24.1764 0.0000 0.0000
# 5 0.0000 0.0000 0.0000 0.0000 18.8113 0.0000
# 6 0.0000 0.0000 0.0000 0.0000 0.0000 5.0160
#
#
#
# Elastic Compliance Matrix: (Units=1/GPa)
#
#
# Indices 1 2 3 4 5 6 
#
# 1 0.026106 -0.013494 0.006127 0.000000 0.000000 0.000000
# 2 -0.013494 0.026217 -0.001687 0.000000 0.000000 0.000000
# 3 0.006127 -0.001687 0.017607 0.000000 0.000000 0.000000
# 4 0.000000 0.000000 0.000000 0.041363 0.000000 0.000000
# 5 0.000000 0.000000 0.000000 0.000000 0.053160 0.000000
# 6 0.000000 0.000000 0.000000 0.000000 0.000000 0.199362
#
#
# Mechanical properties :
#
#
# Convention : Reuss Voigt Hill
#
# Bulk Modulus (GPa) = 19.29742 20.45515 19.87629
# Shear Modulus (GPa) = 12.52516 20.61496 16.57006
#
# Velocity S-wave (km/s) = 2.52180 3.23527 2.90056
# Velocity P-wave (km/s) = 4.27520 4.93375 4.61623
#
# Compressibility (1/GPa) = 0.05182039
#
# Stress axis : x y z
#
# Youngs Moduli (GPa) = 38.30584 38.14285 56.79596
#
# Poissons Ratio (x) = 0.51472 -0.34796
# Poissons Ratio (y) = 0.51692 0.09580
# Poissons Ratio (z) = -0.23468 0.06434
#
# Static dielectric constant tensor:
#      x y z
#    x 1.663840 0.000000 0.000000 
#    y 0.000000 1.681940 0.000000 
#    z 0.000000 0.000000 1.731860 
# 
# From -- ./inp_files/2120.got.cif
#   From: 2010.05.17/outbox.cif.g08.bks.cpg/sg61_2_cif.got.tgz:2120.got - 2010.06.03 15:17:17.
