data_PCOD9459479
_publ_section_title
;
Structure prediction by ZEFSAII (Michael W. Deem and Ramdas Pophale) SiO2 
 PCOD9459479
Probable space group: P B C A
;
_chemical_formula_sum "Si O2"
_cell_formula_units_Z 60
_cell_length_a 31.037839
_cell_length_b 9.733351
_cell_length_c 8.427525
_cell_angle_alpha 90.000000
_cell_angle_beta 90.000000
_cell_angle_gamma 90.000000
_cell_volume 2545.973685
_symmetry_space_group_name_H-M "P B C A"
_symmetry_group_IT_number 61
_symmetry_cell_setting 'orthorhombic'
loop_
_space_group_symop_operation_xyz
x,y,z
1/2-x,-y,1/2+z
1/2+x,1/2-y,-z
-x,1/2+y,1/2-z
-x,-y,-z
1/2+x,y,1/2-z
1/2-x,1/2+y,z
x,1/2-y,1/2+z
loop_
_atom_site_type_symbol
_atom_site_label
_atom_site_fract_x
_atom_site_fract_y
_atom_site_fract_z
Si Si1 0.656928 0.947052 0.475257
Si Si2 0.871244 0.300942 0.799102
Si Si3 0.759300 0.371617 0.622587
Si Si4 0.500000 0.500000 0.000000
Si Si5 0.532230 0.637762 0.329330
Si Si6 0.793076 0.087630 0.477606
Si Si7 0.413133 0.882088 0.642146
Si Si8 0.053118 0.131696 0.475863
O O1 0.649574 0.848214 0.324586
O O2 0.636314 0.870626 0.628978
O O3 0.706090 0.959111 0.520372
O O4 0.631954 0.083835 0.436769
O O5 0.922397 0.286152 0.823266
O O6 0.843321 0.387537 0.928495
O O7 0.772369 0.214671 0.578784
O O8 0.715376 0.442337 0.563804
O O9 0.769788 0.399087 0.805603
O O10 0.482612 0.419996 0.838623
O O11 0.550300 0.475835 0.938849
O O12 0.540720 0.508799 0.442166
O O13 0.490073 0.710646 0.406511
O O14 0.416535 0.899495 0.828897
O O15 0.425524 0.726998 0.604123
#
# Coordination Sequence:
#
# PCOD9459479 Si02
#       8
#     8   8   8   4   8   8   8   8
#     4  10  23  40  64  93 127 161 210 262 313 376
#     4  10  22  39  64  90 125 160 208 258 311 376
#     4  10  21  42  66  99 128 170 211 262 326 390
#     4  10  20  36  62  80 118 158 204 256 304 364
#     4  10  21  41  59  91 116 169 210 257 316 370
#     4  10  21  41  67  95 130 165 208 264 321 391
#     4  11  22  40  57  90 120 167 206 262 311 366
#     4  10  24  38  60  82 128 160 215 259 311 365
#
# _framework density 23.566621999999999
#
# number of rings (size 3 to 8) (size 9 to 14) (size 15 to 20)
#    0.000    1.867    1.333    1.600    3.733    1.067 
#    4.800    0.000    0.000    0.000    0.000    0.000 
#    0.000    0.000    0.000    0.000    0.000    0.000 
#
# Total GULP energy -334432.343329 kJ/mol
# GULP energy per Si atom -5573.872389 kJ/mol
# Density = 2.351298 g / cm^3
# Si number density = 23.566622 Si / 1000 Ang^3
#
#
#
# Elastic Constant Matrix: (Units=GPa)
#
#
# Indices 1 2 3 4 5 6 
#
# 1 43.6868 0.8411 -20.5581 0.0000 0.0000 0.0000
# 2 0.8411 25.3633 17.6402 0.0000 0.0000 0.0000
# 3 -20.5581 17.6402 77.8856 0.0000 0.0000 0.0000
# 4 0.0000 0.0000 0.0000 31.9986 0.0000 0.0000
# 5 0.0000 0.0000 0.0000 0.0000 22.6861 0.0000
# 6 0.0000 0.0000 0.0000 0.0000 0.0000 89.7297
#
#
#
# Elastic Compliance Matrix: (Units=1/GPa)
#
#
# Indices 1 2 3 4 5 6 
#
# 1 0.027140 -0.006982 0.008745 0.000000 0.000000 0.000000
# 2 -0.006982 0.048595 -0.012849 0.000000 0.000000 0.000000
# 3 0.008745 -0.012849 0.018058 0.000000 0.000000 0.000000
# 4 0.000000 0.000000 0.000000 0.031251 0.000000 0.000000
# 5 0.000000 0.000000 0.000000 0.000000 0.044080 0.000000
# 6 0.000000 0.000000 0.000000 0.000000 0.000000 0.011145
#
#
# Mechanical properties :
#
#
# Convention : Reuss Voigt Hill
#
# Bulk Modulus (GPa) = 13.96254 15.86466 14.91360
# Shear Modulus (GPa) = 22.09310 38.81705 30.45508
#
# Velocity S-wave (km/s) = 3.06514 4.06288 3.59875
# Velocity P-wave (km/s) = 4.29702 5.36244 4.85902
#
# Compressibility (1/GPa) = 0.07162021
#
# Stress axis : x y z
#
# Youngs Moduli (GPa) = 36.84610 20.57814 55.37759
#
# Poissons Ratio (x) = 0.14368 -0.48428
# Poissons Ratio (y) = 0.25727 0.71156
# Poissons Ratio (z) = -0.32222 0.26441
#
# Static dielectric constant tensor:
#      x y z
#    x 2.047330 0.000000 0.000000 
#    y 0.000000 1.956720 0.000000 
#    z 0.000000 0.000000 1.853430 
# 
# From -- ./inp_files/4604.got.cif
#   From: 2010.05.17/outbox.cif.g08.bks.cpg/sg61_3_cif.got.tgz:4604.got - 2010.06.03 15:17:17.
