data_PCOD9459606
_publ_section_title
;
Structure prediction by ZEFSAII (Michael W. Deem and Ramdas Pophale) SiO2 
 PCOD9459606
Probable space group: P B C A
;
_chemical_formula_sum "Si O2"
_cell_formula_units_Z 64
_cell_length_a 30.298124
_cell_length_b 8.794766
_cell_length_c 12.815055
_cell_angle_alpha 90.000000
_cell_angle_beta 90.000000
_cell_angle_gamma 90.000000
_cell_volume 3414.762488
_symmetry_space_group_name_H-M "P B C A"
_symmetry_group_IT_number 61
_symmetry_cell_setting 'orthorhombic'
loop_
_space_group_symop_operation_xyz
x,y,z
1/2-x,-y,1/2+z
1/2+x,1/2-y,-z
-x,1/2+y,1/2-z
-x,-y,-z
1/2+x,y,1/2-z
1/2-x,1/2+y,z
x,1/2-y,1/2+z
loop_
_atom_site_type_symbol
_atom_site_label
_atom_site_fract_x
_atom_site_fract_y
_atom_site_fract_z
Si Si1 0.468627 0.428395 0.343044
Si Si2 0.970219 0.788344 0.178216
Si Si3 0.758749 0.795040 0.663673
Si Si4 0.199996 0.026702 0.966314
Si Si5 0.951233 0.225881 0.970756
Si Si6 0.610609 0.766141 0.278562
Si Si7 0.396071 0.005280 0.383318
Si Si8 0.296940 0.060301 0.704687
O O1 0.470593 0.607126 0.325836
O O2 0.510466 0.350609 0.286827
O O3 0.465235 0.370646 0.461017
O O4 0.425017 0.364316 0.285985
O O5 0.006700 0.836259 0.092045
O O6 0.922797 0.858692 0.154569
O O7 0.781309 0.684288 0.579505
O O8 0.721552 0.893564 0.604302
O O9 0.737087 0.686712 0.751614
O O10 0.791314 0.915476 0.718835
O O11 0.147454 0.027249 0.949627
O O12 0.211593 0.993670 0.086473
O O13 0.913295 0.267117 0.887871
O O14 0.930509 0.102708 0.048296
O O15 0.617499 0.611431 0.214129
O O16 0.655192 0.861067 0.290984
#
# Coordination Sequence:
#
# PCOD9459606 Si02
#       8
#     8   8   8   8   8   8   8   8
#     4  10  22  38  59  85 121 160 205 252 305 361
#     4  11  22  38  60  86 120 161 205 253 302 364
#     4  10  24  40  67  92 125 163 209 259 317 378
#     4  11  22  42  64  94 125 164 209 255 315 380
#     4  10  20  39  59  84 118 165 203 247 311 364
#     4  10  21  38  60  88 122 162 198 256 308 368
#     4  11  22  37  60  90 123 158 205 254 306 366
#     4  11  21  42  65  92 127 165 205 259 318 376
#
# _framework density 18.742152999999998
#
# number of rings (size 3 to 8) (size 9 to 14) (size 15 to 20)
#    0.000    1.500    2.500    3.750    1.750    1.000 
#    0.000    1.250    0.000    0.000    0.000    0.000 
#    0.000    0.000    0.000    0.000    0.000    0.000 
#
# Total GULP energy -357414.526172 kJ/mol
# GULP energy per Si atom -5584.601971 kJ/mol
# Density = 1.869950 g / cm^3
# Si number density = 18.742153 Si / 1000 Ang^3
#
#
#
# Elastic Constant Matrix: (Units=GPa)
#
#
# Indices 1 2 3 4 5 6 
#
# 1 68.1926 34.9125 19.3974 0.0000 0.0000 0.0000
# 2 34.9125 75.9254 22.7344 0.0000 0.0000 0.0000
# 3 19.3974 22.7344 93.4653 0.0000 0.0000 0.0000
# 4 0.0000 0.0000 0.0000 19.8515 0.0000 0.0000
# 5 0.0000 0.0000 0.0000 0.0000 21.7444 0.0000
# 6 0.0000 0.0000 0.0000 0.0000 0.0000 24.9746
#
#
#
# Elastic Compliance Matrix: (Units=1/GPa)
#
#
# Indices 1 2 3 4 5 6 
#
# 1 0.019525 -0.008375 -0.002015 0.000000 0.000000 0.000000
# 2 -0.008375 0.017798 -0.002591 0.000000 0.000000 0.000000
# 3 -0.002015 -0.002591 0.011748 0.000000 0.000000 0.000000
# 4 0.000000 0.000000 0.000000 0.050374 0.000000 0.000000
# 5 0.000000 0.000000 0.000000 0.000000 0.045989 0.000000
# 6 0.000000 0.000000 0.000000 0.000000 0.000000 0.040041
#
#
# Mechanical properties :
#
#
# Convention : Reuss Voigt Hill
#
# Bulk Modulus (GPa) = 43.27397 43.51909 43.39653
# Shear Modulus (GPa) = 22.81663 24.01672 23.41667
#
# Velocity S-wave (km/s) = 3.49291 3.58359 3.53854
# Velocity P-wave (km/s) = 6.27745 6.35556 6.31663
#
# Compressibility (1/GPa) = 0.02310858
#
# Stress axis : x y z
#
# Youngs Moduli (GPa) = 51.21590 56.18735 85.12384
#
# Poissons Ratio (x) = 0.47056 0.17153
# Poissons Ratio (y) = 0.42892 0.22056
# Poissons Ratio (z) = 0.10320 0.14558
#
# Static dielectric constant tensor:
#      x y z
#    x 1.627980 0.000000 0.000000 
#    y 0.000000 1.629520 0.000000 
#    z 0.000000 0.000000 1.655510 
# 
# From -- ./inp_files/2459.got.cif
#   From: 2010.05.17/outbox.cif.g08.bks.cpg/sg61_2_cif.got.tgz:2459.got - 2010.06.03 15:17:17.
