data_PCOD9459247
_publ_section_title
;
Structure prediction by ZEFSAII (Michael W. Deem and Ramdas Pophale) SiO2 
 PCOD9459247
Probable space group: P B C A
;
_chemical_formula_sum "Si O2"
_cell_formula_units_Z 56
_cell_length_a 16.755343
_cell_length_b 8.696747
_cell_length_c 17.138463
_cell_angle_alpha 90.000000
_cell_angle_beta 90.000000
_cell_angle_gamma 90.000000
_cell_volume 2497.365053
_symmetry_space_group_name_H-M "P B C A"
_symmetry_group_IT_number 61
_symmetry_cell_setting 'orthorhombic'
loop_
_space_group_symop_operation_xyz
x,y,z
1/2-x,-y,1/2+z
1/2+x,1/2-y,-z
-x,1/2+y,1/2-z
-x,-y,-z
1/2+x,y,1/2-z
1/2-x,1/2+y,z
x,1/2-y,1/2+z
loop_
_atom_site_type_symbol
_atom_site_label
_atom_site_fract_x
_atom_site_fract_y
_atom_site_fract_z
Si Si1 0.928472 0.553836 0.056208
Si Si2 0.025956 0.823982 0.676403
Si Si3 0.764637 0.640591 0.866218
Si Si4 0.635975 0.076602 0.348940
Si Si5 0.414807 0.918645 0.479088
Si Si6 0.844206 0.356127 0.948492
Si Si7 0.545798 0.504162 0.182599
O O1 0.913595 0.733574 0.035340
O O2 0.960834 0.554337 0.144020
O O3 0.862819 0.427875 0.032592
O O4 0.000000 0.500000 0.000000
O O5 0.079974 0.789375 0.599835
O O6 0.979255 0.671282 0.700028
O O7 0.077103 0.900404 0.744447
O O8 0.819795 0.766801 0.825404
O O9 0.691122 0.563696 0.819407
O O10 0.818408 0.504090 0.898196
O O11 0.724165 0.731835 0.938434
O O12 0.637497 0.059460 0.443817
O O13 0.542519 0.077818 0.331072
O O14 0.400022 0.997068 0.394821
O O15 0.500000 0.000000 0.500000
#
# Coordination Sequence:
#
# PCOD9459247 Si02
#       7
#     8   8   8   8   8   8   8
#     4   9  18  32  53  78 105 130 170 223 265 308
#     4  10  21  35  54  80 110 141 178 225 270 316
#     4  10  20  32  58  78 106 142 176 222 260 334
#     4  10  19  36  55  83 103 137 182 221 273 317
#     4   9  18  32  53  78 105 130 170 223 265 308
#     4  10  19  36  55  83 103 137 182 221 273 317
#     4  10  21  35  54  80 110 141 178 225 270 316
#
# _framework density 22.423632999999999
#
# number of rings (size 3 to 8) (size 9 to 14) (size 15 to 20)
#    0.000    2.286    2.857    0.000    4.000    1.143 
#    0.000    0.000    0.000   10.286    0.000    0.000 
#    0.000    0.000    0.000    0.000    0.000    0.000 
#
# Total GULP energy -311857.662398 kJ/mol
# GULP energy per Si atom -5568.886829 kJ/mol
# Density = 2.237260 g / cm^3
# Si number density = 22.423633 Si / 1000 Ang^3
#
#
#
# Elastic Constant Matrix: (Units=GPa)
#
#
# Indices 1 2 3 4 5 6 
#
# 1 42.6747 6.0385 -13.4091 0.0000 0.0000 0.0000
# 2 6.0385 75.9263 4.9347 0.0000 0.0000 0.0000
# 3 -13.4091 4.9347 63.2450 0.0000 0.0000 0.0000
# 4 0.0000 0.0000 0.0000 25.1132 0.0000 0.0000
# 5 0.0000 0.0000 0.0000 0.0000 20.3225 0.0000
# 6 0.0000 0.0000 0.0000 0.0000 0.0000 39.9596
#
#
#
# Elastic Compliance Matrix: (Units=1/GPa)
#
#
# Indices 1 2 3 4 5 6 
#
# 1 0.025532 -0.002395 0.005600 0.000000 0.000000 0.000000
# 2 -0.002395 0.013462 -0.001558 0.000000 0.000000 0.000000
# 3 0.005600 -0.001558 0.017120 0.000000 0.000000 0.000000
# 4 0.000000 0.000000 0.000000 0.039820 0.000000 0.000000
# 5 0.000000 0.000000 0.000000 0.000000 0.049206 0.000000
# 6 0.000000 0.000000 0.000000 0.000000 0.000000 0.025025
#
#
# Mechanical properties :
#
#
# Convention : Reuss Voigt Hill
#
# Bulk Modulus (GPa) = 16.83246 19.66381 18.24814
# Shear Modulus (GPa) = 26.78467 29.36452 28.07459
#
# Velocity S-wave (km/s) = 3.45988 3.62267 3.54221
# Velocity P-wave (km/s) = 4.84602 5.12705 4.98851
#
# Compressibility (1/GPa) = 0.05940901
#
# Stress axis : x y z
#
# Youngs Moduli (GPa) = 39.16725 74.28112 58.40994
#
# Poissons Ratio (x) = 0.17787 -0.32709
# Poissons Ratio (y) = 0.09379 0.09101
# Poissons Ratio (z) = -0.21934 0.11574
#
# Static dielectric constant tensor:
#      x y z
#    x 1.934930 0.000000 0.000000 
#    y 0.000000 1.862590 0.000000 
#    z 0.000000 0.000000 1.886300 
# 
# From -- ./inp_files/3639.got.cif
#   From: 2010.05.17/outbox.cif.g08.bks.cpg/sg61_2_cif.got.tgz:3639.got - 2010.06.03 15:17:17.
