data_PCOD9459856
_publ_section_title
;
Structure prediction by ZEFSAII (Michael W. Deem and Ramdas Pophale) SiO2 
 PCOD9459856
Probable space group: P B C A
;
_chemical_formula_sum "Si O2"
_cell_formula_units_Z 64
_cell_length_a 29.327966
_cell_length_b 20.057183
_cell_length_c 5.204976
_cell_angle_alpha 90.000000
_cell_angle_beta 90.000000
_cell_angle_gamma 90.000000
_cell_volume 3061.756246
_symmetry_space_group_name_H-M "P B C A"
_symmetry_group_IT_number 61
_symmetry_cell_setting 'orthorhombic'
loop_
_space_group_symop_operation_xyz
x,y,z
1/2-x,-y,1/2+z
1/2+x,1/2-y,-z
-x,1/2+y,1/2-z
-x,-y,-z
1/2+x,y,1/2-z
1/2-x,1/2+y,z
x,1/2-y,1/2+z
loop_
_atom_site_type_symbol
_atom_site_label
_atom_site_fract_x
_atom_site_fract_y
_atom_site_fract_z
Si Si1 0.897353 0.489635 0.679947
Si Si2 0.591329 0.642646 0.461938
Si Si3 0.534798 0.553895 0.811198
Si Si4 0.815953 0.213172 0.551314
Si Si5 0.724921 0.577558 0.370185
Si Si6 0.810261 0.494427 0.368645
Si Si7 0.504079 0.204609 0.206225
Si Si8 0.550723 0.080307 0.984539
O O1 0.885500 0.420222 0.817849
O O2 0.948576 0.469589 0.586988
O O3 0.862703 0.502908 0.448635
O O4 0.902584 0.556226 0.849944
O O5 0.571255 0.608592 0.717550
O O6 0.630680 0.694732 0.518749
O O7 0.547058 0.673155 0.320047
O O8 0.487003 0.586673 0.742131
O O9 0.539927 0.486011 0.648778
O O10 0.807052 0.227807 0.848865
O O11 0.786761 0.151964 0.446308
O O12 0.778190 0.558929 0.397000
O O13 0.698612 0.532794 0.584092
O O14 0.709340 0.556535 0.084801
O O15 0.508730 0.241724 0.476543
O O16 0.540894 0.145529 0.153859
#
# Coordination Sequence:
#
# PCOD9459856 Si02
#       8
#     8   8   8   8   8   8   8   8
#     4  11  20  33  64  87 117 149 191 263 306 346
#     4  10  22  35  54  87 117 148 203 236 301 357
#     4   9  19  34  57  82 119 152 187 257 300 349
#     4  12  24  36  58  85 126 165 192 227 285 374
#     4  10  21  41  57  90 120 157 197 237 309 353
#     4  10  21  37  66  86 120 148 195 264 297 351
#     4  11  25  40  56  76 113 163 201 239 286 354
#     4   9  21  36  53  85 113 155 201 242 303 351
#
# _framework density 20.903036
#
# number of rings (size 3 to 8) (size 9 to 14) (size 15 to 20)
#    0.000    1.750    1.250    3.375    8.750    0.000 
#    0.000    0.000    0.000    1.500    0.000    0.000 
#    0.000    0.000    0.000    0.000    0.000    0.000 
#
# Total GULP energy -357187.765596 kJ/mol
# GULP energy per Si atom -5581.058837 kJ/mol
# Density = 2.085546 g / cm^3
# Si number density = 20.903036 Si / 1000 Ang^3
#
#
#
# Elastic Constant Matrix: (Units=GPa)
#
#
# Indices 1 2 3 4 5 6 
#
# 1 35.5291 10.6158 3.7150 0.0000 0.0000 0.0000
# 2 10.6158 75.5352 11.3661 0.0000 0.0000 0.0000
# 3 3.7150 11.3661 61.0986 0.0000 0.0000 0.0000
# 4 0.0000 0.0000 0.0000 32.5165 0.0000 0.0000
# 5 0.0000 0.0000 0.0000 0.0000 26.3988 0.0000
# 6 0.0000 0.0000 0.0000 0.0000 0.0000 37.3408
#
#
#
# Elastic Compliance Matrix: (Units=1/GPa)
#
#
# Indices 1 2 3 4 5 6 
#
# 1 0.029445 -0.003980 -0.001050 0.000000 0.000000 0.000000
# 2 -0.003980 0.014158 -0.002392 0.000000 0.000000 0.000000
# 3 -0.001050 -0.002392 0.016876 0.000000 0.000000 0.000000
# 4 0.000000 0.000000 0.000000 0.030754 0.000000 0.000000
# 5 0.000000 0.000000 0.000000 0.000000 0.037880 0.000000
# 6 0.000000 0.000000 0.000000 0.000000 0.000000 0.026780
#
#
# Mechanical properties :
#
#
# Convention : Reuss Voigt Hill
#
# Bulk Modulus (GPa) = 21.91301 24.83963 23.37632
# Shear Modulus (GPa) = 26.88908 29.01561 27.95235
#
# Velocity S-wave (km/s) = 3.59049 3.72977 3.66079
# Velocity P-wave (km/s) = 5.26258 5.51881 5.39222
#
# Compressibility (1/GPa) = 0.04563500
#
# Stress axis : x y z
#
# Youngs Moduli (GPa) = 33.96159 70.63060 59.25651
#
# Poissons Ratio (x) = 0.28113 0.06221
# Poissons Ratio (y) = 0.13518 0.14173
# Poissons Ratio (z) = 0.03566 0.16894
#
# Static dielectric constant tensor:
#      x y z
#    x 1.804790 0.000000 0.000000 
#    y 0.000000 1.761650 0.000000 
#    z 0.000000 0.000000 1.809060 
# 
# From -- ./inp_files/1501.got.cif
#   From: 2010.05.17/outbox.cif.g08.bks.cpg/sg61_1_cif.got.tgz:1501.got - 2010.06.03 15:17:17.
