data_PCOD9459718
_publ_section_title
;
Structure prediction by ZEFSAII (Michael W. Deem and Ramdas Pophale) SiO2 
 PCOD9459718
Probable space group: P B C A
;
_chemical_formula_sum "Si O2"
_cell_formula_units_Z 64
_cell_length_a 9.527276
_cell_length_b 14.263918
_cell_length_c 16.691874
_cell_angle_alpha 90.000000
_cell_angle_beta 90.000000
_cell_angle_gamma 90.000000
_cell_volume 2268.363643
_symmetry_space_group_name_H-M "P B C A"
_symmetry_group_IT_number 61
_symmetry_cell_setting 'orthorhombic'
loop_
_space_group_symop_operation_xyz
x,y,z
1/2-x,-y,1/2+z
1/2+x,1/2-y,-z
-x,1/2+y,1/2-z
-x,-y,-z
1/2+x,y,1/2-z
1/2-x,1/2+y,z
x,1/2-y,1/2+z
loop_
_atom_site_type_symbol
_atom_site_label
_atom_site_fract_x
_atom_site_fract_y
_atom_site_fract_z
Si Si1 0.891982 0.643324 0.906614
Si Si2 0.121148 0.940381 0.144341
Si Si3 0.350714 0.167684 0.182509
Si Si4 0.168516 0.745934 0.422139
Si Si5 0.377286 0.527049 0.748168
Si Si6 0.631102 0.203797 0.205891
Si Si7 0.689616 0.433992 0.569861
Si Si8 0.233990 0.099138 0.025826
O O1 0.721011 0.643640 0.890706
O O2 0.937623 0.579555 0.830749
O O3 0.009946 0.721678 0.916198
O O4 0.900602 0.590716 0.991447
O O5 0.212095 0.962084 0.225471
O O6 0.961773 0.938064 0.174579
O O7 0.138910 0.025386 0.078194
O O8 0.474866 0.240371 0.196907
O O9 0.192576 0.195219 0.205999
O O10 0.345414 0.123076 0.095486
O O11 0.391441 0.085340 0.245204
O O12 0.249565 0.762281 0.338815
O O13 0.175208 0.634739 0.437128
O O14 0.272345 0.797043 0.486301
O O15 0.629549 0.108698 0.151753
O O16 0.723562 0.540542 0.553100
#
# Coordination Sequence:
#
# PCOD9459718 Si02
#       8
#     8   8   8   8   8   8   8   8
#     4   9  19  39  68  97 134 182 244 295 352 433
#     4   8  18  34  64 107 133 182 230 296 362 437
#     4  11  20  42  70 106 139 195 234 317 371 445
#     4  10  23  42  66 107 134 197 246 309 353 456
#     4   9  18  35  66 103 135 177 233 289 368 429
#     4  10  25  41  68 104 149 185 247 295 380 440
#     4   9  21  43  71 104 135 186 248 298 360 447
#     4  10  20  41  75 102 135 192 246 306 369 436
#
# _framework density 28.214172999999999
#
# number of rings (size 3 to 8) (size 9 to 14) (size 15 to 20)
#    1.500    1.000    1.250    2.250    1.750    2.500 
#    6.750    1.250    5.500    9.000    0.000    0.000 
#    0.000    0.000    0.000    0.000    0.000    0.000 
#
# Total GULP energy -356490.766809 kJ/mol
# GULP energy per Si atom -5570.168231 kJ/mol
# Density = 2.814996 g / cm^3
# Si number density = 28.214173 Si / 1000 Ang^3
#
#
#
# Elastic Constant Matrix: (Units=GPa)
#
#
# Indices 1 2 3 4 5 6 
#
# 1 142.3630 14.9885 59.4812 0.0000 0.0000 0.0000
# 2 14.9885 71.5186 5.9270 0.0000 0.0000 0.0000
# 3 59.4812 5.9270 108.5102 0.0000 0.0000 0.0000
# 4 0.0000 0.0000 0.0000 45.7773 0.0000 0.0000
# 5 0.0000 0.0000 0.0000 0.0000 55.2441 0.0000
# 6 0.0000 0.0000 0.0000 0.0000 0.0000 32.4307
#
#
#
# Elastic Compliance Matrix: (Units=1/GPa)
#
#
# Indices 1 2 3 4 5 6 
#
# 1 0.009275 -0.001529 -0.005000 0.000000 0.000000 0.000000
# 2 -0.001529 0.014298 0.000057 0.000000 0.000000 0.000000
# 3 -0.005000 0.000057 0.011954 0.000000 0.000000 0.000000
# 4 0.000000 0.000000 0.000000 0.021845 0.000000 0.000000
# 5 0.000000 0.000000 0.000000 0.000000 0.018101 0.000000
# 6 0.000000 0.000000 0.000000 0.000000 0.000000 0.030835
#
#
# Mechanical properties :
#
#
# Convention : Reuss Voigt Hill
#
# Bulk Modulus (GPa) = 44.28403 53.68724 48.98564
# Shear Modulus (GPa) = 39.43849 42.82342 41.13096
#
# Velocity S-wave (km/s) = 3.74281 3.90012 3.82227
# Velocity P-wave (km/s) = 5.86582 6.27304 6.07285
#
# Compressibility (1/GPa) = 0.02258150
#
# Stress axis : x y z
#
# Youngs Moduli (GPa) = 107.82177 69.93920 83.65646
#
# Poissons Ratio (x) = 0.10696 0.41832
# Poissons Ratio (y) = 0.16489 -0.00480
# Poissons Ratio (z) = 0.53916 -0.00401
#
# Static dielectric constant tensor:
#      x y z
#    x 2.266460 0.000000 0.000000 
#    y 0.000000 2.249340 0.000000 
#    z 0.000000 0.000000 2.143430 
# 
# From -- ./inp_files/10164.got.cif
#   From: 2010.05.17/outbox.cif.g08.bks.cpg/sg61_6_cif.got.tgz:10164.got - 2010.06.03 15:17:17.
