data_PCOD9459001
_publ_section_title
;
Structure prediction by ZEFSAII (Michael W. Deem and Ramdas Pophale) SiO2 
 PCOD9459001
Probable space group: P B C A
;
_chemical_formula_sum "Si O2"
_cell_formula_units_Z 64
_cell_length_a 28.811290
_cell_length_b 9.545145
_cell_length_c 10.505829
_cell_angle_alpha 90.000000
_cell_angle_beta 90.000000
_cell_angle_gamma 90.000000
_cell_volume 2889.186399
_symmetry_space_group_name_H-M "P B C A"
_symmetry_group_IT_number 61
_symmetry_cell_setting 'orthorhombic'
loop_
_space_group_symop_operation_xyz
x,y,z
1/2-x,-y,1/2+z
1/2+x,1/2-y,-z
-x,1/2+y,1/2-z
-x,-y,-z
1/2+x,y,1/2-z
1/2-x,1/2+y,z
x,1/2-y,1/2+z
loop_
_atom_site_type_symbol
_atom_site_label
_atom_site_fract_x
_atom_site_fract_y
_atom_site_fract_z
Si Si1 0.360301 0.444268 0.114702
Si Si2 0.689276 0.296157 0.744867
Si Si3 0.121779 0.125827 0.899899
Si Si4 0.447090 0.979468 0.756280
Si Si5 0.729605 0.629449 0.812767
Si Si6 0.957909 0.646343 0.773809
Si Si7 0.112527 0.426229 0.010339
Si Si8 0.714971 0.006684 0.036734
O O1 0.338438 0.574149 0.196266
O O2 0.413227 0.440723 0.157646
O O3 0.322480 0.328228 0.147885
O O4 0.359778 0.489635 0.968940
O O5 0.653649 0.170992 0.718274
O O6 0.731852 0.246293 0.825967
O O7 0.710626 0.345235 0.611089
O O8 0.068686 0.115789 0.858167
O O9 0.124337 0.260944 0.991847
O O10 0.457988 0.817376 0.714421
O O11 0.492655 0.071853 0.777236
O O12 0.416477 0.968149 0.884513
O O13 0.728786 0.585795 0.662186
O O14 0.749134 0.520511 0.920356
O O15 0.924318 0.572302 0.876410
O O16 0.161306 0.510415 0.011268
#
# Coordination Sequence:
#
# PCOD9459001 Si02
#       8
#     8   8   8   8   8   8   8   8
#     4  11  20  37  59  84 122 160 198 256 317 369
#     4  10  18  35  60  85 115 159 217 245 305 387
#     4  10  17  33  60  89 113 154 208 256 301 377
#     4  11  22  40  64  93 120 166 205 267 316 378
#     4  11  21  34  60  92 122 157 208 268 307 387
#     4  11  22  37  67  92 122 162 219 257 319 391
#     4  10  18  39  62  87 116 168 210 254 312 394
#     4  10  21  35  61  90 121 163 216 258 321 383
#
# _framework density 22.151564
#
# number of rings (size 3 to 8) (size 9 to 14) (size 15 to 20)
#    0.000    1.500    6.250    3.375    0.000    1.500 
#    0.000    0.000   16.500    0.000    0.000    0.000 
#    0.000    0.000    0.000    0.000    0.000    0.000 
#
# Total GULP energy -356600.774551 kJ/mol
# GULP energy per Si atom -5571.887102 kJ/mol
# Density = 2.210115 g / cm^3
# Si number density = 22.151564 Si / 1000 Ang^3
#
#
#
# Elastic Constant Matrix: (Units=GPa)
#
#
# Indices 1 2 3 4 5 6 
#
# 1 121.7919 38.1163 12.6969 0.0000 0.0000 0.0000
# 2 38.1163 18.0724 11.9634 0.0000 0.0000 0.0000
# 3 12.6969 11.9634 47.5046 0.0000 0.0000 0.0000
# 4 0.0000 0.0000 0.0000 17.1789 0.0000 0.0000
# 5 0.0000 0.0000 0.0000 0.0000 37.8107 0.0000
# 6 0.0000 0.0000 0.0000 0.0000 0.0000 38.4897
#
#
#
# Elastic Compliance Matrix: (Units=1/GPa)
#
#
# Indices 1 2 3 4 5 6 
#
# 1 0.026715 -0.061945 0.008460 0.000000 0.000000 0.000000
# 2 -0.061945 0.210035 -0.036338 0.000000 0.000000 0.000000
# 3 0.008460 -0.036338 0.027941 0.000000 0.000000 0.000000
# 4 0.000000 0.000000 0.000000 0.058211 0.000000 0.000000
# 5 0.000000 0.000000 0.000000 0.000000 0.026448 0.000000
# 6 0.000000 0.000000 0.000000 0.000000 0.000000 0.025981
#
#
# Mechanical properties :
#
#
# Convention : Reuss Voigt Hill
#
# Bulk Modulus (GPa) = 11.75856 34.76911 23.26383
# Shear Modulus (GPa) = 8.57155 27.00200 17.78677
#
# Velocity S-wave (km/s) = 1.96924 3.49516 2.83673
# Velocity P-wave (km/s) = 3.23887 5.65847 4.61023
#
# Compressibility (1/GPa) = 0.08504444
#
# Stress axis : x y z
#
# Youngs Moduli (GPa) = 37.43187 4.76111 35.78994
#
# Poissons Ratio (x) = 0.29493 -0.30277
# Poissons Ratio (y) = 2.31871 1.30054
# Poissons Ratio (z) = -0.31666 0.17301
#
# Static dielectric constant tensor:
#      x y z
#    x 1.854130 0.000000 0.000000 
#    y 0.000000 1.920820 0.000000 
#    z 0.000000 0.000000 1.880810 
# 
# From -- ./inp_files/6719.got.cif
#   From: 2010.05.17/outbox.cif.g08.bks.cpg/sg61_4_cif.got.tgz:6719.got - 2010.06.03 15:17:17.
