data_PCOD9459223
_publ_section_title
;
Structure prediction by ZEFSAII (Michael W. Deem and Ramdas Pophale) SiO2 
 PCOD9459223
Probable space group: P B C A
;
_chemical_formula_sum "Si O2"
_cell_formula_units_Z 64
_cell_length_a 13.838916
_cell_length_b 10.414415
_cell_length_c 21.626393
_cell_angle_alpha 90.000000
_cell_angle_beta 90.000000
_cell_angle_gamma 90.000000
_cell_volume 3116.886901
_symmetry_space_group_name_H-M "P B C A"
_symmetry_group_IT_number 61
_symmetry_cell_setting 'orthorhombic'
loop_
_space_group_symop_operation_xyz
x,y,z
1/2-x,-y,1/2+z
1/2+x,1/2-y,-z
-x,1/2+y,1/2-z
-x,-y,-z
1/2+x,y,1/2-z
1/2-x,1/2+y,z
x,1/2-y,1/2+z
loop_
_atom_site_type_symbol
_atom_site_label
_atom_site_fract_x
_atom_site_fract_y
_atom_site_fract_z
Si Si1 0.787732 0.953669 0.416413
Si Si2 0.721434 0.310931 0.840016
Si Si3 0.789115 0.584760 0.059812
Si Si4 0.596863 0.188156 0.741052
Si Si5 0.006683 0.496301 0.886389
Si Si6 0.277975 0.842026 0.368686
Si Si7 0.417688 0.213291 0.811370
Si Si8 0.096833 0.911976 0.727267
O O1 0.781981 0.816125 0.382318
O O2 0.765848 0.934695 0.488303
O O3 0.899257 0.005330 0.413828
O O4 0.722185 0.061094 0.382388
O O5 0.640003 0.296302 0.786598
O O6 0.822349 0.322671 0.803155
O O7 0.903266 0.557277 0.075067
O O8 0.730831 0.478834 0.099190
O O9 0.763747 0.727191 0.082718
O O10 0.628142 0.190938 0.670815
O O11 0.482791 0.173811 0.752539
O O12 0.638875 0.054781 0.768211
O O13 0.029960 0.645033 0.868767
O O14 0.993403 0.424777 0.819724
O O15 0.190648 0.833737 0.319093
O O16 0.418571 0.364224 0.797285
#
# Coordination Sequence:
#
# PCOD9459223 Si02
#       8
#     8   8   8   8   8   8   8   8
#     4  11  22  40  63  88 121 162 221 246 306 368
#     4  11  20  38  62  87 117 158 199 260 296 365
#     4  11  23  40  61  86 122 167 205 260 304 365
#     4  11  21  39  60  91 125 158 196 257 309 377
#     4   9  20  37  58  87 117 165 207 247 304 373
#     4  11  23  37  62  89 122 160 201 250 319 369
#     4  10  19  35  57  88 121 154 191 246 306 369
#     4  10  19  36  57  93 122 149 202 245 311 371
#
# _framework density 20.533308000000002
#
# number of rings (size 3 to 8) (size 9 to 14) (size 15 to 20)
#    0.000    1.500    5.000    2.625    0.000    0.000 
#    4.500    0.000    2.750    0.750    0.000    0.000 
#    0.000    0.000    0.000    0.000    0.000    0.000 
#
# Total GULP energy -356550.777944 kJ/mol
# GULP energy per Si atom -5571.105905 kJ/mol
# Density = 2.048657 g / cm^3
# Si number density = 20.533308 Si / 1000 Ang^3
#
#
#
# Elastic Constant Matrix: (Units=GPa)
#
#
# Indices 1 2 3 4 5 6 
#
# 1 52.7645 2.6828 -4.4003 0.0000 0.0000 0.0000
# 2 2.6828 45.6687 4.9578 0.0000 0.0000 0.0000
# 3 -4.4003 4.9578 55.4795 0.0000 0.0000 0.0000
# 4 0.0000 0.0000 0.0000 30.9614 0.0000 0.0000
# 5 0.0000 0.0000 0.0000 0.0000 19.6448 0.0000
# 6 0.0000 0.0000 0.0000 0.0000 0.0000 22.8645
#
#
#
# Elastic Compliance Matrix: (Units=1/GPa)
#
#
# Indices 1 2 3 4 5 6 
#
# 1 0.019155 -0.001303 0.001636 0.000000 0.000000 0.000000
# 2 -0.001303 0.022200 -0.002087 0.000000 0.000000 0.000000
# 3 0.001636 -0.002087 0.018341 0.000000 0.000000 0.000000
# 4 0.000000 0.000000 0.000000 0.032298 0.000000 0.000000
# 5 0.000000 0.000000 0.000000 0.000000 0.050904 0.000000
# 6 0.000000 0.000000 0.000000 0.000000 0.000000 0.043736
#
#
# Mechanical properties :
#
#
# Convention : Reuss Voigt Hill
#
# Bulk Modulus (GPa) = 17.79773 17.82150 17.80961
# Shear Modulus (GPa) = 23.93815 24.73896 24.33856
#
# Velocity S-wave (km/s) = 3.41812 3.47482 3.44658
# Velocity P-wave (km/s) = 4.92591 4.97969 4.95287
#
# Compressibility (1/GPa) = 0.05618695
#
# Stress axis : x y z
#
# Youngs Moduli (GPa) = 52.20632 45.04517 54.52287
#
# Poissons Ratio (x) = 0.05869 -0.08918
# Poissons Ratio (y) = 0.06801 0.11380
# Poissons Ratio (z) = -0.08539 0.09402
#
# Static dielectric constant tensor:
#      x y z
#    x 1.769350 0.000000 0.000000 
#    y 0.000000 1.833140 0.000000 
#    z 0.000000 0.000000 1.751880 
# 
# From -- ./inp_files/11071.got.cif
#   From: 2010.05.17/outbox.cif.g08.bks.cpg/sg61_6_cif.got.tgz:11071.got - 2010.06.03 15:17:17.
