data_PCOD9459185
_publ_section_title
;
Structure prediction by ZEFSAII (Michael W. Deem and Ramdas Pophale) SiO2 
 PCOD9459185
Probable space group: P B C A
;
_chemical_formula_sum "Si O2"
_cell_formula_units_Z 48
_cell_length_a 10.072384
_cell_length_b 5.033621
_cell_length_c 33.595140
_cell_angle_alpha 90.000000
_cell_angle_beta 90.000000
_cell_angle_gamma 90.000000
_cell_volume 1703.292533
_symmetry_space_group_name_H-M "P B C A"
_symmetry_group_IT_number 61
_symmetry_cell_setting 'orthorhombic'
loop_
_space_group_symop_operation_xyz
x,y,z
1/2-x,-y,1/2+z
1/2+x,1/2-y,-z
-x,1/2+y,1/2-z
-x,-y,-z
1/2+x,y,1/2-z
1/2-x,1/2+y,z
x,1/2-y,1/2+z
loop_
_atom_site_type_symbol
_atom_site_label
_atom_site_fract_x
_atom_site_fract_y
_atom_site_fract_z
Si Si1 0.847182 0.798630 0.902327
Si Si2 0.658890 0.197842 0.654328
Si Si3 0.558391 0.169704 0.241869
Si Si4 0.653304 0.287893 0.987092
Si Si5 0.173157 0.138505 0.676367
Si Si6 0.154598 0.182450 0.429569
O O1 0.731991 0.573520 0.902905
O O2 0.919839 0.764784 0.944559
O O3 0.917569 0.747443 0.859863
O O4 0.782407 0.403497 0.653672
O O5 0.593086 0.257726 0.696849
O O6 0.583782 0.258147 0.612543
O O7 0.429074 0.355514 0.250824
O O8 0.634490 0.302238 0.278807
O O9 0.730198 0.566777 0.987978
O O10 0.579112 0.239782 0.028887
O O11 0.299796 0.330609 0.670973
O O12 0.276760 0.395047 0.429502
#
# Coordination Sequence:
#
# PCOD9459185 Si02
#       6
#     8   8   8   8   8   8
#     4   8  14  23  40  64  90 116 146 184 228 269
#     4  10  19  34  53  72  94 126 162 196 233 282
#     4  12  24  36  50  72  98 126 158 200 246 284
#     4   8  12  20  34  60  92 114 136 180 230 266
#     4  10  19  34  53  72  94 126 162 196 233 282
#     4   8  14  23  40  64  90 116 146 184 228 269
#
# _framework density 28.180712
#
# number of rings (size 3 to 8) (size 9 to 14) (size 15 to 20)
#    0.000    2.667    0.000    3.000    0.000    0.000 
#    0.000    0.000    0.000    0.000    0.000    2.333 
#    0.000    0.000    0.000    0.000    0.000    0.000 
#
# Total GULP energy -268205.358402 kJ/mol
# GULP energy per Si atom -5587.611633 kJ/mol
# Density = 2.811657 g / cm^3
# Si number density = 28.180712 Si / 1000 Ang^3
#
#
#
# Elastic Constant Matrix: (Units=GPa)
#
#
# Indices 1 2 3 4 5 6 
#
# 1 47.7804 28.3266 28.3482 0.0000 0.0000 0.0000
# 2 28.3266 155.8911 6.0387 0.0000 0.0000 0.0000
# 3 28.3482 6.0387 317.0344 0.0000 0.0000 0.0000
# 4 0.0000 0.0000 0.0000 23.6891 0.0000 0.0000
# 5 0.0000 0.0000 0.0000 0.0000 11.1884 0.0000
# 6 0.0000 0.0000 0.0000 0.0000 0.0000 28.3746
#
#
#
# Elastic Compliance Matrix: (Units=1/GPa)
#
#
# Indices 1 2 3 4 5 6 
#
# 1 0.024821 -0.004427 -0.002135 0.000000 0.000000 0.000000
# 2 -0.004427 0.007209 0.000259 0.000000 0.000000 0.000000
# 3 -0.002135 0.000259 0.003340 0.000000 0.000000 0.000000
# 4 0.000000 0.000000 0.000000 0.042214 0.000000 0.000000
# 5 0.000000 0.000000 0.000000 0.000000 0.089378 0.000000
# 6 0.000000 0.000000 0.000000 0.000000 0.000000 0.035243
#
#
# Mechanical properties :
#
#
# Convention : Reuss Voigt Hill
#
# Bulk Modulus (GPa) = 43.93231 71.79255 57.86243
# Shear Modulus (GPa) = 22.48205 43.18324 32.83265
#
# Velocity S-wave (km/s) = 2.82757 3.91879 3.41702
# Velocity P-wave (km/s) = 5.12675 6.78285 6.01209
#
# Compressibility (1/GPa) = 0.02276229
#
# Stress axis : x y z
#
# Youngs Moduli (GPa) = 40.28908 138.71139 299.38183
#
# Poissons Ratio (x) = 0.61413 0.63919
# Poissons Ratio (y) = 0.17838 -0.07741
# Poissons Ratio (z) = 0.08602 -0.03587
#
# Static dielectric constant tensor:
#      x y z
#    x 2.270130 0.000000 0.000000 
#    y 0.000000 2.279170 0.000000 
#    z 0.000000 0.000000 2.353420 
# 
# From -- ./inp_files/6864.got.cif
#   From: 2010.05.17/outbox.cif.g08.bks.cpg/sg61_4_cif.got.tgz:6864.got - 2010.06.03 15:17:17.
