data_PCOD9459013
_publ_section_title
;
Structure prediction by ZEFSAII (Michael W. Deem and Ramdas Pophale) SiO2 
 PCOD9459013
Probable space group: P B C A
;
_chemical_formula_sum "Si O2"
_cell_formula_units_Z 40
_cell_length_a 8.898134
_cell_length_b 13.095240
_cell_length_c 13.418958
_cell_angle_alpha 90.000000
_cell_angle_beta 90.000000
_cell_angle_gamma 90.000000
_cell_volume 1563.619931
_symmetry_space_group_name_H-M "P B C A"
_symmetry_group_IT_number 61
_symmetry_cell_setting 'orthorhombic'
loop_
_space_group_symop_operation_xyz
x,y,z
1/2-x,-y,1/2+z
1/2+x,1/2-y,-z
-x,1/2+y,1/2-z
-x,-y,-z
1/2+x,y,1/2-z
1/2-x,1/2+y,z
x,1/2-y,1/2+z
loop_
_atom_site_type_symbol
_atom_site_label
_atom_site_fract_x
_atom_site_fract_y
_atom_site_fract_z
Si Si1 0.241097 0.513056 0.453302
Si Si2 0.648258 0.360464 0.715487
Si Si3 0.382313 0.866946 0.113742
Si Si4 0.561607 0.145432 0.446546
Si Si5 0.602750 0.789113 0.270639
O O1 0.314030 0.540751 0.348189
O O2 0.357493 0.539785 0.540837
O O3 0.174988 0.401879 0.472667
O O4 0.096944 0.589235 0.461396
O O5 0.619672 0.380069 0.833306
O O6 0.565802 0.232749 0.948088
O O7 0.787463 0.282371 0.705309
O O8 0.495563 0.862867 0.206934
O O9 0.216667 0.845416 0.157692
O O10 0.505086 0.204511 0.179727
#
# Coordination Sequence:
#
# PCOD9459013 Si02
#       5
#     8   8   8   8   8
#     4  11  21  38  67  86 122 165 210 248 302 382
#     4  10  17  38  62  82 125 162 186 263 312 347
#     4  10  20  39  61  91 118 166 199 252 306 366
#     4   9  22  42  57  94 119 164 204 252 315 357
#     4   8  18  35  58  86 125 153 199 242 312 355
#
# _framework density 25.581665000000001
#
# number of rings (size 3 to 8) (size 9 to 14) (size 15 to 20)
#    0.000    2.800    4.000    0.000    2.800    0.000 
#    7.200    4.000    0.000    0.000    0.000    0.000 
#    0.000    0.000    0.000    0.000    0.000    0.000 
#
# Total GULP energy -223773.183604 kJ/mol
# GULP energy per Si atom -5594.329590 kJ/mol
# Density = 2.552344 g / cm^3
# Si number density = 25.581665 Si / 1000 Ang^3
#
#
#
# Elastic Constant Matrix: (Units=GPa)
#
#
# Indices 1 2 3 4 5 6 
#
# 1 144.6015 26.6829 37.9695 0.0000 0.0000 0.0000
# 2 26.6829 23.6378 2.9081 0.0000 0.0000 0.0000
# 3 37.9695 2.9081 92.6659 0.0000 0.0000 0.0000
# 4 0.0000 0.0000 0.0000 23.3103 0.0000 0.0000
# 5 0.0000 0.0000 0.0000 0.0000 22.0708 0.0000
# 6 0.0000 0.0000 0.0000 0.0000 0.0000 24.1267
#
#
#
# Elastic Compliance Matrix: (Units=1/GPa)
#
#
# Indices 1 2 3 4 5 6 
#
# 1 0.009857 -0.010672 -0.003704 0.000000 0.000000 0.000000
# 2 -0.010672 0.054022 0.002677 0.000000 0.000000 0.000000
# 3 -0.003704 0.002677 0.012225 0.000000 0.000000 0.000000
# 4 0.000000 0.000000 0.000000 0.042899 0.000000 0.000000
# 5 0.000000 0.000000 0.000000 0.000000 0.045309 0.000000
# 6 0.000000 0.000000 0.000000 0.000000 0.000000 0.041448
#
#
# Mechanical properties :
#
#
# Convention : Reuss Voigt Hill
#
# Bulk Modulus (GPa) = 18.97249 44.00289 31.48769
# Shear Modulus (GPa) = 20.26532 26.79120 23.52826
#
# Velocity S-wave (km/s) = 2.81763 3.23968 3.03600
# Velocity P-wave (km/s) = 4.24475 5.58859 4.96237
#
# Compressibility (1/GPa) = 0.05270789
#
# Stress axis : x y z
#
# Youngs Moduli (GPa) = 101.44685 18.51094 81.79833
#
# Poissons Ratio (x) = 0.19754 0.30299
# Poissons Ratio (y) = 1.08260 -0.21900
# Poissons Ratio (z) = 0.37577 -0.04956
#
# Static dielectric constant tensor:
#      x y z
#    x 2.031970 0.000000 0.000000 
#    y 0.000000 1.993080 0.000000 
#    z 0.000000 0.000000 2.046040 
# 
# From -- ./inp_files/5087.got.cif
#   From: 2010.05.17/outbox.cif.g08.bks.cpg/sg61_3_cif.got.tgz:5087.got - 2010.06.03 15:17:17.
