data_PCOD9459680
_publ_section_title
;
Structure prediction by ZEFSAII (Michael W. Deem and Ramdas Pophale) SiO2 
 PCOD9459680
Probable space group: P B C A
;
_chemical_formula_sum "Si O2"
_cell_formula_units_Z 60
_cell_length_a 8.340784
_cell_length_b 12.763019
_cell_length_c 24.796143
_cell_angle_alpha 90.000000
_cell_angle_beta 90.000000
_cell_angle_gamma 90.000000
_cell_volume 2639.638308
_symmetry_space_group_name_H-M "P B C A"
_symmetry_group_IT_number 61
_symmetry_cell_setting 'orthorhombic'
loop_
_space_group_symop_operation_xyz
x,y,z
1/2-x,-y,1/2+z
1/2+x,1/2-y,-z
-x,1/2+y,1/2-z
-x,-y,-z
1/2+x,y,1/2-z
1/2-x,1/2+y,z
x,1/2-y,1/2+z
loop_
_atom_site_type_symbol
_atom_site_label
_atom_site_fract_x
_atom_site_fract_y
_atom_site_fract_z
Si Si1 0.023925 0.679678 0.489527
Si Si2 0.128203 0.015638 0.732659
Si Si3 0.818999 0.000177 0.939882
Si Si4 0.500000 0.500000 0.500000
Si Si5 0.978191 0.809579 0.682321
Si Si6 0.941186 0.543098 0.322868
Si Si7 0.654234 0.160407 0.063201
Si Si8 0.671617 0.241559 0.789143
O O1 0.102199 0.602468 0.533456
O O2 0.164989 0.699858 0.446587
O O3 0.883185 0.609497 0.464672
O O4 0.959226 0.784256 0.517683
O O5 0.091239 0.128806 0.708928
O O6 0.039175 0.923771 0.700670
O O7 0.313834 0.998364 0.720548
O O8 0.102502 0.999226 0.796580
O O9 0.882365 0.998053 0.879328
O O10 0.630984 0.002311 0.950493
O O11 0.357917 0.540584 0.456768
O O12 0.144159 0.743471 0.690470
O O13 0.912024 0.813573 0.621927
O O14 0.846560 0.772568 0.725896
O O15 0.924769 0.668596 0.320983
#
# Coordination Sequence:
#
# PCOD9459680 Si02
#       8
#     8   8   8   4   8   8   8   8
#     4  10  24  42  68  93 133 169 233 273 346 406
#     4  10  21  37  62  94 125 173 220 277 328 418
#     4  10  22  43  66  95 131 180 213 295 337 408
#     4  10  20  40  66  96 134 162 234 264 334 402
#     4  10  23  41  63  94 136 172 226 281 348 412
#     4  10  22  40  62  93 134 170 223 275 342 397
#     4  11  23  42  66  96 131 179 217 290 337 413
#     4  10  21  38  62  93 127 171 222 276 334 420
#
# _framework density 22.730384999999998
#
# number of rings (size 3 to 8) (size 9 to 14) (size 15 to 20)
#    0.000    1.867    0.000    3.200    3.733    4.267 
#    4.800    1.333   11.733    0.000    0.000    0.000 
#    0.000    0.000    0.000    0.000    0.000    0.000 
#
# Total GULP energy -334201.601234 kJ/mol
# GULP energy per Si atom -5570.026687 kJ/mol
# Density = 2.267865 g / cm^3
# Si number density = 22.730385 Si / 1000 Ang^3
#
#
#
# Elastic Constant Matrix: (Units=GPa)
#
#
# Indices 1 2 3 4 5 6 
#
# 1 42.5955 13.6180 25.5013 0.0000 0.0000 0.0000
# 2 13.6180 57.8406 13.2152 0.0000 0.0000 0.0000
# 3 25.5013 13.2152 88.5297 0.0000 0.0000 0.0000
# 4 0.0000 0.0000 0.0000 10.7685 0.0000 0.0000
# 5 0.0000 0.0000 0.0000 0.0000 34.2906 0.0000
# 6 0.0000 0.0000 0.0000 0.0000 0.0000 10.1449
#
#
#
# Elastic Compliance Matrix: (Units=1/GPa)
#
#
# Indices 1 2 3 4 5 6 
#
# 1 0.029827 -0.005238 -0.007810 0.000000 0.000000 0.000000
# 2 -0.005238 0.018819 -0.001300 0.000000 0.000000 0.000000
# 3 -0.007810 -0.001300 0.013739 0.000000 0.000000 0.000000
# 4 0.000000 0.000000 0.000000 0.092864 0.000000 0.000000
# 5 0.000000 0.000000 0.000000 0.000000 0.029163 0.000000
# 6 0.000000 0.000000 0.000000 0.000000 0.000000 0.098572
#
#
# Mechanical properties :
#
#
# Convention : Reuss Voigt Hill
#
# Bulk Modulus (GPa) = 29.68332 32.62610 31.15471
# Shear Modulus (GPa) = 15.48417 20.14953 17.81685
#
# Velocity S-wave (km/s) = 2.61283 2.98057 2.80274
# Velocity P-wave (km/s) = 4.71060 5.12150 4.92034
#
# Compressibility (1/GPa) = 0.03368896
#
# Stress axis : x y z
#
# Youngs Moduli (GPa) = 33.52665 53.13707 72.78326
#
# Poissons Ratio (x) = 0.27834 0.56843
# Poissons Ratio (y) = 0.17562 0.09464
# Poissons Ratio (z) = 0.26184 0.06910
#
# Static dielectric constant tensor:
#      x y z
#    x 1.946740 0.000000 0.000000 
#    y 0.000000 2.031660 0.000000 
#    z 0.000000 0.000000 1.859000 
# 
# From -- ./inp_files/10896.got.cif
#   From: 2010.05.17/outbox.cif.g08.bks.cpg/sg61_6_cif.got.tgz:10896.got - 2010.06.03 15:17:17.
