data_PCOD9459558
_publ_section_title
;
Structure prediction by ZEFSAII (Michael W. Deem and Ramdas Pophale) SiO2 
 PCOD9459558
Probable space group: P B C A
;
_chemical_formula_sum "Si O2"
_cell_formula_units_Z 64
_cell_length_a 15.623060
_cell_length_b 20.016423
_cell_length_c 8.861125
_cell_angle_alpha 90.000000
_cell_angle_beta 90.000000
_cell_angle_gamma 90.000000
_cell_volume 2771.031316
_symmetry_space_group_name_H-M "P B C A"
_symmetry_group_IT_number 61
_symmetry_cell_setting 'orthorhombic'
loop_
_space_group_symop_operation_xyz
x,y,z
1/2-x,-y,1/2+z
1/2+x,1/2-y,-z
-x,1/2+y,1/2-z
-x,-y,-z
1/2+x,y,1/2-z
1/2-x,1/2+y,z
x,1/2-y,1/2+z
loop_
_atom_site_type_symbol
_atom_site_label
_atom_site_fract_x
_atom_site_fract_y
_atom_site_fract_z
Si Si1 0.081819 0.731950 0.833529
Si Si2 0.375371 0.839468 0.593658
Si Si3 0.901283 0.712433 0.729312
Si Si4 0.434908 0.146142 0.130263
Si Si5 0.140824 0.543043 0.536451
Si Si6 0.767735 0.148101 0.794752
Si Si7 0.513077 0.452325 0.820252
Si Si8 0.228345 0.573887 0.014654
O O1 0.078418 0.809892 0.783897
O O2 0.173143 0.705925 0.776341
O O3 0.000343 0.695331 0.754983
O O4 0.066282 0.705658 0.004852
O O5 0.376096 0.797127 0.442222
O O6 0.395219 0.789374 0.725979
O O7 0.440860 0.899853 0.567289
O O8 0.285236 0.874408 0.611366
O O9 0.828499 0.673112 0.823294
O O10 0.509717 0.092566 0.169604
O O11 0.364748 0.093448 0.070154
O O12 0.178168 0.615708 0.570893
O O13 0.075128 0.516083 0.667331
O O14 0.225027 0.496469 0.533857
O O15 0.081589 0.535880 0.387324
O O16 0.762490 0.093502 0.660873
#
# Coordination Sequence:
#
# PCOD9459558 Si02
#       8
#     8   8   8   8   8   8   8   8
#     4  11  23  40  64  95 136 165 215 271 335 403
#     4  10  20  38  60  91 125 167 212 265 327 399
#     4  11  21  38  63  90 130 168 208 266 328 398
#     4  11  23  41  64  99 130 172 210 274 336 398
#     4  10  22  43  64  91 121 179 227 269 331 392
#     4  10  23  41  59  93 126 168 219 272 323 392
#     4  10  22  40  67  89 126 172 222 275 333 395
#     4   9  22  41  59  89 130 163 218 272 316 394
#
# _framework density 23.096093
#
# number of rings (size 3 to 8) (size 9 to 14) (size 15 to 20)
#    0.000    1.750    1.250    2.250    3.500    1.000 
#    4.500    1.250    0.000    0.000    0.000    0.000 
#    0.000    0.000    0.000    0.000    0.000    0.000 
#
# Total GULP energy -356609.729093 kJ/mol
# GULP energy per Si atom -5572.027017 kJ/mol
# Density = 2.304353 g / cm^3
# Si number density = 23.096093 Si / 1000 Ang^3
#
#
#
# Elastic Constant Matrix: (Units=GPa)
#
#
# Indices 1 2 3 4 5 6 
#
# 1 66.1726 11.3443 -0.9436 0.0000 0.0000 0.0000
# 2 11.3443 38.4495 7.4142 0.0000 0.0000 0.0000
# 3 -0.9436 7.4142 13.1723 0.0000 0.0000 0.0000
# 4 0.0000 0.0000 0.0000 18.2291 0.0000 0.0000
# 5 0.0000 0.0000 0.0000 0.0000 22.7573 0.0000
# 6 0.0000 0.0000 0.0000 0.0000 0.0000 36.8964
#
#
#
# Elastic Compliance Matrix: (Units=1/GPa)
#
#
# Indices 1 2 3 4 5 6 
#
# 1 0.016131 -0.005589 0.004301 0.000000 0.000000 0.000000
# 2 -0.005589 0.031111 -0.017912 0.000000 0.000000 0.000000
# 3 0.004301 -0.017912 0.086307 0.000000 0.000000 0.000000
# 4 0.000000 0.000000 0.000000 0.054857 0.000000 0.000000
# 5 0.000000 0.000000 0.000000 0.000000 0.043942 0.000000
# 6 0.000000 0.000000 0.000000 0.000000 0.000000 0.027103
#
#
# Mechanical properties :
#
#
# Convention : Reuss Voigt Hill
#
# Bulk Modulus (GPa) = 10.50961 17.04714 13.77838
# Shear Modulus (GPa) = 15.17144 22.24188 18.70666
#
# Velocity S-wave (km/s) = 2.56575 3.10661 2.84905
# Velocity P-wave (km/s) = 3.65208 4.50167 4.09895
#
# Compressibility (1/GPa) = 0.09515101
#
# Stress axis : x y z
#
# Youngs Moduli (GPa) = 61.99059 32.14298 11.58657
#
# Poissons Ratio (x) = 0.17965 -0.04984
# Poissons Ratio (y) = 0.34646 0.20753
# Poissons Ratio (z) = -0.26665 0.57573
#
# Static dielectric constant tensor:
#      x y z
#    x 1.944750 0.000000 0.000000 
#    y 0.000000 1.850840 0.000000 
#    z 0.000000 0.000000 1.922380 
# 
# From -- ./inp_files/3200.got.cif
#   From: 2010.05.17/outbox.cif.g08.bks.cpg/sg61_2_cif.got.tgz:3200.got - 2010.06.03 15:17:17.
