data_PCOD9459265
_publ_section_title
;
Structure prediction by ZEFSAII (Michael W. Deem and Ramdas Pophale) SiO2 
 PCOD9459265
Probable space group: P B C A
;
_chemical_formula_sum "Si O2"
_cell_formula_units_Z 56
_cell_length_a 12.974517
_cell_length_b 12.101724
_cell_length_c 13.692278
_cell_angle_alpha 90.000000
_cell_angle_beta 90.000000
_cell_angle_gamma 90.000000
_cell_volume 2149.879663
_symmetry_space_group_name_H-M "P B C A"
_symmetry_group_IT_number 61
_symmetry_cell_setting 'orthorhombic'
loop_
_space_group_symop_operation_xyz
x,y,z
1/2-x,-y,1/2+z
1/2+x,1/2-y,-z
-x,1/2+y,1/2-z
-x,-y,-z
1/2+x,y,1/2-z
1/2-x,1/2+y,z
x,1/2-y,1/2+z
loop_
_atom_site_type_symbol
_atom_site_label
_atom_site_fract_x
_atom_site_fract_y
_atom_site_fract_z
Si Si1 0.273824 0.668582 0.553839
Si Si2 0.327102 0.962222 0.531380
Si Si3 0.024303 0.044589 0.878275
Si Si4 0.942453 0.242334 0.479730
Si Si5 0.185688 0.860716 0.374645
Si Si6 0.626018 0.201357 0.760383
Si Si7 0.404327 0.603370 0.376509
O O1 0.257903 0.539530 0.580987
O O2 0.162474 0.720074 0.573869
O O3 0.358716 0.716158 0.625208
O O4 0.315002 0.656122 0.444754
O O5 0.382455 0.016423 0.434110
O O6 0.259202 0.873157 0.472498
O O7 0.421700 0.973802 0.607686
O O8 0.056304 0.098089 0.776017
O O9 0.015898 0.156282 0.947393
O O10 0.904164 0.221670 0.589994
O O11 0.992589 0.129425 0.439087
O O12 0.261180 0.824897 0.287870
O O13 0.132079 0.979395 0.357069
O O14 0.586735 0.315218 0.714844
#
# Coordination Sequence:
#
# PCOD9459265 Si02
#       7
#     8   8   8   8   8   8   8
#     4  10  20  38  62  89 124 164 203 263 314 370
#     4   8  16  33  60  85 113 154 202 247 310 362
#     4   8  16  33  60  87 114 157 207 255 296 374
#     4  10  19  36  62  84 123 164 206 254 317 374
#     4  10  19  36  62  84 122 163 203 259 320 375
#     4  10  20  38  60  88 125 162 209 261 315 373
#     4  10  21  40  60  88 123 162 209 256 316 383
#
# _framework density 26.047971
#
# number of rings (size 3 to 8) (size 9 to 14) (size 15 to 20)
#    0.000    2.571    1.429    0.429    0.000    0.000 
#   12.857    0.000    0.000    0.000    0.000    0.000 
#    0.000    0.000    0.000    0.000    0.000    0.000 
#
# Total GULP energy -312137.083278 kJ/mol
# GULP energy per Si atom -5573.876487 kJ/mol
# Density = 2.598868 g / cm^3
# Si number density = 26.047971 Si / 1000 Ang^3
#
#
#
# Elastic Constant Matrix: (Units=GPa)
#
#
# Indices 1 2 3 4 5 6 
#
# 1 97.5104 16.3425 2.6616 0.0000 0.0000 0.0000
# 2 16.3425 75.5308 9.3465 0.0000 0.0000 0.0000
# 3 2.6616 9.3465 52.5424 0.0000 0.0000 0.0000
# 4 0.0000 0.0000 0.0000 27.8974 0.0000 0.0000
# 5 0.0000 0.0000 0.0000 0.0000 28.3165 0.0000
# 6 0.0000 0.0000 0.0000 0.0000 0.0000 39.7443
#
#
#
# Elastic Compliance Matrix: (Units=1/GPa)
#
#
# Indices 1 2 3 4 5 6 
#
# 1 0.010642 -0.002286 -0.000132 0.000000 0.000000 0.000000
# 2 -0.002286 0.014029 -0.002380 0.000000 0.000000 0.000000
# 3 -0.000132 -0.002380 0.019462 0.000000 0.000000 0.000000
# 4 0.000000 0.000000 0.000000 0.035846 0.000000 0.000000
# 5 0.000000 0.000000 0.000000 0.000000 0.035315 0.000000
# 6 0.000000 0.000000 0.000000 0.000000 0.000000 0.025161
#
#
# Mechanical properties :
#
#
# Convention : Reuss Voigt Hill
#
# Bulk Modulus (GPa) = 28.95487 31.36496 30.15991
# Shear Modulus (GPa) = 30.94756 32.34049 31.64402
#
# Velocity S-wave (km/s) = 3.45062 3.52742 3.48923
# Velocity P-wave (km/s) = 5.19767 5.35328 5.27605
#
# Compressibility (1/GPa) = 0.03453651
#
# Stress axis : x y z
#
# Youngs Moduli (GPa) = 93.96643 71.28207 51.38144
#
# Poissons Ratio (x) = 0.16297 0.00680
# Poissons Ratio (y) = 0.21483 0.12227
# Poissons Ratio (z) = 0.01244 0.16963
#
# Static dielectric constant tensor:
#      x y z
#    x 2.103180 0.000000 0.000000 
#    y 0.000000 2.268200 0.000000 
#    z 0.000000 0.000000 2.050510 
# 
# From -- ./inp_files/5836.got.cif
#   From: 2010.05.17/outbox.cif.g08.bks.cpg/sg61_3_cif.got.tgz:5836.got - 2010.06.03 15:17:17.
