data_PCOD9459929
_publ_section_title
;
Structure prediction by ZEFSAII (Michael W. Deem and Ramdas Pophale) SiO2 
 PCOD9459929
Probable space group: P B C A
;
_chemical_formula_sum "Si O2"
_cell_formula_units_Z 48
_cell_length_a 9.616634
_cell_length_b 29.484321
_cell_length_c 8.959036
_cell_angle_alpha 90.000000
_cell_angle_beta 90.000000
_cell_angle_gamma 90.000000
_cell_volume 2540.244385
_symmetry_space_group_name_H-M "P B C A"
_symmetry_group_IT_number 61
_symmetry_cell_setting 'orthorhombic'
loop_
_space_group_symop_operation_xyz
x,y,z
1/2-x,-y,1/2+z
1/2+x,1/2-y,-z
-x,1/2+y,1/2-z
-x,-y,-z
1/2+x,y,1/2-z
1/2-x,1/2+y,z
x,1/2-y,1/2+z
loop_
_atom_site_type_symbol
_atom_site_label
_atom_site_fract_x
_atom_site_fract_y
_atom_site_fract_z
Si Si1 0.826537 0.289016 0.424935
Si Si2 0.860998 0.018166 0.073096
Si Si3 0.885034 0.467872 0.925905
Si Si4 0.965373 0.117029 0.592018
Si Si5 0.003978 0.719303 0.879373
Si Si6 0.712300 0.891870 0.391896
O O1 0.664823 0.274585 0.388944
O O2 0.902675 0.258127 0.546188
O O3 0.932474 0.285124 0.285736
O O4 0.817962 0.342463 0.463003
O O5 0.868144 0.022249 0.251268
O O6 0.826094 0.066657 0.998771
O O7 0.749223 0.981691 0.019217
O O8 0.000000 0.000000 0.000000
O O9 0.923840 0.416065 0.958417
O O10 0.000000 0.500000 0.000000
O O11 0.962408 0.169985 0.549597
O O12 0.869239 0.107107 0.735228
O O13 0.123384 0.106258 0.638120
#
# Coordination Sequence:
#
# PCOD9459929 Si02
#       6
#     8   8   8   8   8   8
#     4  10  21  39  63  91 126 164 207 260 314 380
#     4  12  26  41  63  93 124 166 209 258 317 369
#     4  12  24  43  63  89 126 162 210 260 309 374
#     4  10  22  40  64  90 123 162 206 259 311 373
#     4  10  21  39  62  92 124 165 209 257 318 375
#     4  10  22  41  63  91 123 161 207 256 315 373
#
# _framework density 18.895820000000001
#
# number of rings (size 3 to 8) (size 9 to 14) (size 15 to 20)
#    0.000    1.333    1.667    4.000    2.333    2.667 
#    0.000    0.000    0.000    0.000    0.000    0.000 
#    0.000    0.000    0.000    0.000    0.000    0.000 
#
# Total GULP energy -267906.405508 kJ/mol
# GULP energy per Si atom -5581.383448 kJ/mol
# Density = 1.885281 g / cm^3
# Si number density = 18.895820 Si / 1000 Ang^3
#
#
#
# Elastic Constant Matrix: (Units=GPa)
#
#
# Indices 1 2 3 4 5 6 
#
# 1 116.4570 26.3534 7.3719 0.0000 0.0000 0.0000
# 2 26.3534 78.9492 18.8444 0.0000 0.0000 0.0000
# 3 7.3719 18.8444 58.8767 0.0000 0.0000 0.0000
# 4 0.0000 0.0000 0.0000 37.1633 0.0000 0.0000
# 5 0.0000 0.0000 0.0000 0.0000 26.7904 0.0000
# 6 0.0000 0.0000 0.0000 0.0000 0.0000 33.3018
#
#
#
# Elastic Compliance Matrix: (Units=1/GPa)
#
#
# Indices 1 2 3 4 5 6 
#
# 1 0.009290 -0.003057 -0.000185 0.000000 0.000000 0.000000
# 2 -0.003057 0.014720 -0.004329 0.000000 0.000000 0.000000
# 3 -0.000185 -0.004329 0.018393 0.000000 0.000000 0.000000
# 4 0.000000 0.000000 0.000000 0.026908 0.000000 0.000000
# 5 0.000000 0.000000 0.000000 0.000000 0.037327 0.000000
# 6 0.000000 0.000000 0.000000 0.000000 0.000000 0.030028
#
#
# Mechanical properties :
#
#
# Convention : Reuss Voigt Hill
#
# Bulk Modulus (GPa) = 36.68009 39.93581 38.30795
# Shear Modulus (GPa) = 31.07606 32.89864 31.98735
#
# Velocity S-wave (km/s) = 4.05977 4.17712 4.11886
# Velocity P-wave (km/s) = 6.43657 6.66671 6.55265
#
# Compressibility (1/GPa) = 0.02726274
#
# Stress axis : x y z
#
# Youngs Moduli (GPa) = 107.63870 67.93469 54.36785
#
# Poissons Ratio (x) = 0.20768 0.01005
# Poissons Ratio (y) = 0.32905 0.23534
# Poissons Ratio (z) = 0.01989 0.29406
#
# Static dielectric constant tensor:
#      x y z
#    x 1.626420 0.000000 0.000000 
#    y 0.000000 1.676530 0.000000 
#    z 0.000000 0.000000 1.611220 
# 
# From -- ./inp_files/1848.got.cif
#   From: 2010.05.17/outbox.cif.g08.bks.cpg/sg61_1_cif.got.tgz:1848.got - 2010.06.03 15:17:17.
