data_PCOD9459897
_publ_section_title
;
Structure prediction by ZEFSAII (Michael W. Deem and Ramdas Pophale) SiO2 
 PCOD9459897
Probable space group: P B C A
;
_chemical_formula_sum "Si O2"
_cell_formula_units_Z 60
_cell_length_a 16.055872
_cell_length_b 17.849812
_cell_length_c 8.864277
_cell_angle_alpha 90.000000
_cell_angle_beta 90.000000
_cell_angle_gamma 90.000000
_cell_volume 2540.451233
_symmetry_space_group_name_H-M "P B C A"
_symmetry_group_IT_number 61
_symmetry_cell_setting 'orthorhombic'
loop_
_space_group_symop_operation_xyz
x,y,z
1/2-x,-y,1/2+z
1/2+x,1/2-y,-z
-x,1/2+y,1/2-z
-x,-y,-z
1/2+x,y,1/2-z
1/2-x,1/2+y,z
x,1/2-y,1/2+z
loop_
_atom_site_type_symbol
_atom_site_label
_atom_site_fract_x
_atom_site_fract_y
_atom_site_fract_z
Si Si1 0.361209 0.621777 0.596859
Si Si2 0.519228 0.606909 0.410974
Si Si3 0.161320 0.837793 0.788686
Si Si4 0.370782 0.885832 0.430284
Si Si5 0.575746 0.965600 0.208865
Si Si6 0.000000 0.000000 0.000000
Si Si7 0.257405 0.982344 0.908774
Si Si8 0.754333 0.759387 0.975668
O O1 0.430443 0.637490 0.469439
O O2 0.402716 0.612610 0.757915
O O3 0.309852 0.547946 0.551609
O O4 0.293861 0.686875 0.602377
O O5 0.570074 0.651420 0.283868
O O6 0.495591 0.526445 0.338175
O O7 0.570464 0.592411 0.567404
O O8 0.195922 0.916597 0.852767
O O9 0.184608 0.773447 0.910235
O O10 0.215681 0.814233 0.645573
O O11 0.439172 0.926417 0.531548
O O12 0.333094 0.804661 0.458845
O O13 0.293521 0.943074 0.433411
O O14 0.555504 0.948519 0.381213
O O15 0.667506 0.000529 0.204865
#
# Coordination Sequence:
#
# PCOD9459897 Si02
#       8
#     8   8   8   8   8   4   8   8
#     4  10  23  46  67  98 142 194 230 297 377 441
#     4  10  21  43  65  90 138 185 225 281 360 432
#     4  11  23  44  67  99 134 187 240 293 363 451
#     4  12  24  44  71 106 143 178 246 316 369 447
#     4  10  21  38  64 101 138 175 224 295 364 417
#     4  12  24  38  66 112 136 172 240 314 374 438
#     4  10  24  40  73 100 135 185 238 300 372 445
#     4  11  24  46  68  97 141 186 243 292 365 454
#
# _framework density 23.617851999999999
#
# number of rings (size 3 to 8) (size 9 to 14) (size 15 to 20)
#    0.000    1.333    2.667    2.400    7.467    0.000 
#    2.400    2.667    0.000    0.000    0.000    0.000 
#    0.000    0.000    0.000    0.000    0.000    0.000 
#
# Total GULP energy -334115.855529 kJ/mol
# GULP energy per Si atom -5568.597592 kJ/mol
# Density = 2.356410 g / cm^3
# Si number density = 23.617852 Si / 1000 Ang^3
#
#
#
# Elastic Constant Matrix: (Units=GPa)
#
#
# Indices 1 2 3 4 5 6 
#
# 1 50.3619 4.4455 16.4645 0.0000 0.0000 0.0000
# 2 4.4455 60.5646 4.6791 0.0000 0.0000 0.0000
# 3 16.4645 4.6791 71.9868 0.0000 0.0000 0.0000
# 4 0.0000 0.0000 0.0000 13.7024 0.0000 0.0000
# 5 0.0000 0.0000 0.0000 0.0000 39.9681 0.0000
# 6 0.0000 0.0000 0.0000 0.0000 0.0000 42.0945
#
#
#
# Elastic Compliance Matrix: (Units=1/GPa)
#
#
# Indices 1 2 3 4 5 6 
#
# 1 0.021548 -0.001207 -0.004850 0.000000 0.000000 0.000000
# 2 -0.001207 0.016662 -0.000807 0.000000 0.000000 0.000000
# 3 -0.004850 -0.000807 0.015053 0.000000 0.000000 0.000000
# 4 0.000000 0.000000 0.000000 0.072980 0.000000 0.000000
# 5 0.000000 0.000000 0.000000 0.000000 0.025020 0.000000
# 6 0.000000 0.000000 0.000000 0.000000 0.000000 0.023756
#
#
# Mechanical properties :
#
#
# Convention : Reuss Voigt Hill
#
# Bulk Modulus (GPa) = 25.29348 26.01016 25.65182
# Shear Modulus (GPa) = 24.76149 29.64127 27.20138
#
# Velocity S-wave (km/s) = 3.24145 3.54649 3.39740
# Velocity P-wave (km/s) = 4.97414 5.27323 5.12587
#
# Compressibility (1/GPa) = 0.03953589
#
# Stress axis : x y z
#
# Youngs Moduli (GPa) = 46.40710 60.01601 66.43122
#
# Poissons Ratio (x) = 0.07244 0.32219
# Poissons Ratio (y) = 0.05601 0.05361
# Poissons Ratio (z) = 0.22508 0.04843
#
# Static dielectric constant tensor:
#      x y z
#    x 1.905930 0.000000 0.000000 
#    y 0.000000 1.860130 0.000000 
#    z 0.000000 0.000000 2.008200 
# 
# From -- ./inp_files/3601.got.cif
#   From: 2010.05.17/outbox.cif.g08.bks.cpg/sg61_2_cif.got.tgz:3601.got - 2010.06.03 15:17:17.
