data_PCOD9459575
_publ_section_title
;
Structure prediction by ZEFSAII (Michael W. Deem and Ramdas Pophale) SiO2 
 PCOD9459575
Probable space group: P B C A
;
_chemical_formula_sum "Si O2"
_cell_formula_units_Z 40
_cell_length_a 14.471548
_cell_length_b 6.923427
_cell_length_c 14.921940
_cell_angle_alpha 90.000000
_cell_angle_beta 90.000000
_cell_angle_gamma 90.000000
_cell_volume 1495.069550
_symmetry_space_group_name_H-M "P B C A"
_symmetry_group_IT_number 61
_symmetry_cell_setting 'orthorhombic'
loop_
_space_group_symop_operation_xyz
x,y,z
1/2-x,-y,1/2+z
1/2+x,1/2-y,-z
-x,1/2+y,1/2-z
-x,-y,-z
1/2+x,y,1/2-z
1/2-x,1/2+y,z
x,1/2-y,1/2+z
loop_
_atom_site_type_symbol
_atom_site_label
_atom_site_fract_x
_atom_site_fract_y
_atom_site_fract_z
Si Si1 0.886018 0.780536 0.489978
Si Si2 0.566162 0.972875 0.702556
Si Si3 0.387818 0.414576 0.106407
Si Si4 0.295416 0.487237 0.657579
Si Si5 0.943267 0.065032 0.630752
O O1 0.807908 0.866744 0.425148
O O2 0.980647 0.845019 0.438819
O O3 0.877770 0.548110 0.482786
O O4 0.883693 0.905601 0.579808
O O5 0.495681 0.069097 0.632044
O O6 0.655488 0.059131 0.751623
O O7 0.495437 0.965021 0.786840
O O8 0.598505 0.762372 0.669558
O O9 0.314319 0.524119 0.171479
O O10 0.353306 0.196816 0.119998
#
# Coordination Sequence:
#
# PCOD9459575 Si02
#       5
#     8   8   8   8   8
#     4   9  20  37  56  84 121 158 200 259 301 377
#     4  10  20  38  62  90 122 164 204 262 318 374
#     4  11  21  37  63  88 123 168 216 259 321 379
#     4  11  21  37  63  88 123 168 216 259 321 379
#     4   9  18  37  58  85 121 150 202 251 305 369
#
# _framework density 26.754605999999999
#
# number of rings (size 3 to 8) (size 9 to 14) (size 15 to 20)
#    0.000    2.000    4.000    0.000    0.000    0.000 
#    3.600    6.000    0.000    0.000    0.000    0.000 
#    0.000    0.000    0.000    0.000    0.000    0.000 
#
# Total GULP energy -223017.956361 kJ/mol
# GULP energy per Si atom -5575.448909 kJ/mol
# Density = 2.669371 g / cm^3
# Si number density = 26.754606 Si / 1000 Ang^3
#
#
#
# Elastic Constant Matrix: (Units=GPa)
#
#
# Indices 1 2 3 4 5 6 
#
# 1 111.8426 7.3004 10.3651 0.0000 0.0000 0.0000
# 2 7.3004 128.8582 9.9177 0.0000 0.0000 0.0000
# 3 10.3651 9.9177 47.0948 0.0000 0.0000 0.0000
# 4 0.0000 0.0000 0.0000 35.9027 0.0000 0.0000
# 5 0.0000 0.0000 0.0000 0.0000 27.6392 0.0000
# 6 0.0000 0.0000 0.0000 0.0000 0.0000 23.9454
#
#
#
# Elastic Compliance Matrix: (Units=1/GPa)
#
#
# Indices 1 2 3 4 5 6 
#
# 1 0.009145 -0.000369 -0.001935 0.000000 0.000000 0.000000
# 2 -0.000369 0.007903 -0.001583 0.000000 0.000000 0.000000
# 3 -0.001935 -0.001583 0.021993 0.000000 0.000000 0.000000
# 4 0.000000 0.000000 0.000000 0.027853 0.000000 0.000000
# 5 0.000000 0.000000 0.000000 0.000000 0.036181 0.000000
# 6 0.000000 0.000000 0.000000 0.000000 0.000000 0.041762
#
#
# Mechanical properties :
#
#
# Convention : Reuss Voigt Hill
#
# Bulk Modulus (GPa) = 31.98310 38.10689 35.04499
# Shear Modulus (GPa) = 30.66872 34.84494 32.75683
#
# Velocity S-wave (km/s) = 3.38937 3.61278 3.50286
# Velocity P-wave (km/s) = 5.22468 5.62823 5.43021
#
# Compressibility (1/GPa) = 0.03126651
#
# Stress axis : x y z
#
# Youngs Moduli (GPa) = 109.35475 126.53064 45.46897
#
# Poissons Ratio (x) = 0.04671 0.08798
# Poissons Ratio (y) = 0.04037 0.07198
# Poissons Ratio (z) = 0.21159 0.20031
#
# Static dielectric constant tensor:
#      x y z
#    x 2.127880 0.000000 0.000000 
#    y 0.000000 2.228830 0.000000 
#    z 0.000000 0.000000 2.204800 
# 
# From -- ./inp_files/2726.got.cif
#   From: 2010.05.17/outbox.cif.g08.bks.cpg/sg61_2_cif.got.tgz:2726.got - 2010.06.03 15:17:17.
