data_PCOD9459219
_publ_section_title
;
Structure prediction by ZEFSAII (Michael W. Deem and Ramdas Pophale) SiO2 
 PCOD9459219
Probable space group: P B C A
;
_chemical_formula_sum "Si O2"
_cell_formula_units_Z 56
_cell_length_a 9.931275
_cell_length_b 20.488915
_cell_length_c 13.992984
_cell_angle_alpha 90.000000
_cell_angle_beta 90.000000
_cell_angle_gamma 90.000000
_cell_volume 2847.307067
_symmetry_space_group_name_H-M "P B C A"
_symmetry_group_IT_number 61
_symmetry_cell_setting 'orthorhombic'
loop_
_space_group_symop_operation_xyz
x,y,z
1/2-x,-y,1/2+z
1/2+x,1/2-y,-z
-x,1/2+y,1/2-z
-x,-y,-z
1/2+x,y,1/2-z
1/2-x,1/2+y,z
x,1/2-y,1/2+z
loop_
_atom_site_type_symbol
_atom_site_label
_atom_site_fract_x
_atom_site_fract_y
_atom_site_fract_z
Si Si1 0.619249 0.530943 0.372725
Si Si2 0.866685 0.548900 0.700023
Si Si3 0.381508 0.160142 0.497038
Si Si4 0.893602 0.304525 0.083485
Si Si5 0.603615 0.096416 0.007740
Si Si6 0.129680 0.862999 0.216054
Si Si7 0.828449 0.901615 0.001523
O O1 0.627676 0.516411 0.261163
O O2 0.486588 0.569501 0.405538
O O3 0.611842 0.461934 0.429925
O O4 0.748947 0.568369 0.413078
O O5 0.759055 0.595974 0.751591
O O6 0.829537 0.546139 0.588654
O O7 0.008907 0.585183 0.708425
O O8 0.392116 0.230244 0.448413
O O9 0.250615 0.120548 0.463936
O O10 0.359911 0.168238 0.611732
O O11 0.520619 0.121307 0.482295
O O12 0.897486 0.313349 0.197689
O O13 0.760661 0.341644 0.043058
O O14 0.019201 0.344493 0.039667
#
# Coordination Sequence:
#
# PCOD9459219 Si02
#       7
#     8   8   8   8   8   8   8
#     4  10  19  38  60  79 122 149 191 243 284 357
#     4  10  19  36  58  84 108 148 197 240 277 343
#     4  11  20  35  58  87 117 145 195 248 283 339
#     4  10  19  36  59  81 114 153 192 235 294 349
#     4  10  20  34  58  85 109 157 188 231 304 339
#     4  10  19  35  56  85 105 147 203 231 276 347
#     4   9  22  34  59  91 112 150 203 240 292 342
#
# _framework density 19.667705999999999
#
# number of rings (size 3 to 8) (size 9 to 14) (size 15 to 20)
#    0.000    2.000    2.857    0.857    2.000    0.571 
#    0.000    0.000    9.429    0.000    0.000    0.000 
#    0.000    0.000    0.000    0.000    0.000    0.000 
#
# Total GULP energy -312879.829078 kJ/mol
# GULP energy per Si atom -5587.139805 kJ/mol
# Density = 1.962294 g / cm^3
# Si number density = 19.667706 Si / 1000 Ang^3
#
#
#
# Elastic Constant Matrix: (Units=GPa)
#
#
# Indices 1 2 3 4 5 6 
#
# 1 141.1769 32.5913 20.8006 0.0000 0.0000 0.0000
# 2 32.5913 90.8387 44.5102 0.0000 0.0000 0.0000
# 3 20.8006 44.5102 73.3653 0.0000 0.0000 0.0000
# 4 0.0000 0.0000 0.0000 31.2381 0.0000 0.0000
# 5 0.0000 0.0000 0.0000 0.0000 -3.7789 0.0000
# 6 0.0000 0.0000 0.0000 0.0000 0.0000 14.1909
#
#
#
# Elastic Compliance Matrix: (Units=1/GPa)
#
#
# Indices 1 2 3 4 5 6 
#
# 1 0.007750 -0.002425 -0.000726 0.000000 0.000000 0.000000
# 2 -0.002425 0.016424 -0.009277 0.000000 0.000000 0.000000
# 3 -0.000726 -0.009277 0.019465 0.000000 0.000000 0.000000
# 4 0.000000 0.000000 0.000000 0.032012 0.000000 0.000000
# 5 0.000000 0.000000 0.000000 0.000000 -0.264627 0.000000
# 6 0.000000 0.000000 0.000000 0.000000 0.000000 0.070467
#
#
# Mechanical properties :
#
#
# Convention : Reuss Voigt Hill
#
# Bulk Modulus (GPa) = 53.23975 55.68721 54.46348
# Shear Modulus (GPa) = -57.21388 22.16195 -17.52596
#
# Velocity S-wave (km/s) = -5.39939 3.36045 -2.98837
# Velocity P-wave (km/s) = 3.42678 6.59032 3.98055
#
# Compressibility (1/GPa) = 0.01878296
#
# Stress axis : x y z
#
# Youngs Moduli (GPa) = 129.03100 60.88617 51.37541
#
# Poissons Ratio (x) = 0.14763 0.03731
# Poissons Ratio (y) = 0.31287 0.47661
# Poissons Ratio (z) = 0.09371 0.56484
#
# Static dielectric constant tensor:
#      x y z
#    x 1.692720 0.000000 0.000000 
#    y 0.000000 1.657280 0.000000 
#    z 0.000000 0.000000 1.699210 
# 
# From -- ./inp_files/3996.got.cif
#   From: 2010.05.17/outbox.cif.g08.bks.cpg/sg61_2_cif.got.tgz:3996.got - 2010.06.03 15:17:17.
