data_PCOD9459877
_publ_section_title
;
Structure prediction by ZEFSAII (Michael W. Deem and Ramdas Pophale) SiO2 
 PCOD9459877
Probable space group: P B C A
;
_chemical_formula_sum "Si O2"
_cell_formula_units_Z 48
_cell_length_a 7.895745
_cell_length_b 19.456634
_cell_length_c 14.050480
_cell_angle_alpha 90.000000
_cell_angle_beta 90.000000
_cell_angle_gamma 90.000000
_cell_volume 2158.499660
_symmetry_space_group_name_H-M "P B C A"
_symmetry_group_IT_number 61
_symmetry_cell_setting 'orthorhombic'
loop_
_space_group_symop_operation_xyz
x,y,z
1/2-x,-y,1/2+z
1/2+x,1/2-y,-z
-x,1/2+y,1/2-z
-x,-y,-z
1/2+x,y,1/2-z
1/2-x,1/2+y,z
x,1/2-y,1/2+z
loop_
_atom_site_type_symbol
_atom_site_label
_atom_site_fract_x
_atom_site_fract_y
_atom_site_fract_z
Si Si1 0.264052 0.829993 0.455085
Si Si2 0.578628 0.076567 0.701197
Si Si3 0.785904 0.582988 0.896913
Si Si4 0.879322 0.067091 0.400032
Si Si5 0.370248 0.177768 0.446227
Si Si6 0.744423 0.071361 0.200642
O O1 0.316813 0.868754 0.359372
O O2 0.139778 0.877265 0.517815
O O3 0.438497 0.823966 0.515290
O O4 0.188633 0.755632 0.435036
O O5 0.390978 0.073932 0.659551
O O6 0.582023 0.096423 0.812290
O O7 0.662210 0.001709 0.687711
O O8 0.834526 0.508723 0.939214
O O9 0.747446 0.640280 0.974338
O O10 0.747512 0.082541 0.314093
O O11 0.059596 0.067526 0.346767
O O12 0.343189 0.132376 0.352269
#
# Coordination Sequence:
#
# PCOD9459877 Si02
#       6
#     8   8   8   8   8   8
#     4  11  24  40  58  84 119 156 194 237 288 344
#     4  10  21  38  61  87 115 149 190 238 287 339
#     4  10  21  38  61  87 115 149 190 238 287 339
#     4  11  22  38  62  88 115 150 192 239 288 341
#     4  11  24  40  58  84 119 156 194 237 288 344
#     4  11  22  38  62  88 115 150 192 239 288 341
#
# _framework density 22.237667999999999
#
# number of rings (size 3 to 8) (size 9 to 14) (size 15 to 20)
#    0.000    1.333    0.000    8.000    0.000   10.667 
#    0.000    3.333    0.000    0.000    0.000    0.000 
#    0.000    0.000    0.000    0.000    0.000    0.000 
#
# Total GULP energy -268895.244427 kJ/mol
# GULP energy per Si atom -5601.984259 kJ/mol
# Density = 2.218705 g / cm^3
# Si number density = 22.237668 Si / 1000 Ang^3
#
#
#
# Elastic Constant Matrix: (Units=GPa)
#
#
# Indices 1 2 3 4 5 6 
#
# 1 80.6841 -4.8566 -9.0847 0.0000 0.0000 0.0000
# 2 -4.8566 111.0145 34.1692 0.0000 0.0000 0.0000
# 3 -9.0847 34.1692 68.8498 0.0000 0.0000 0.0000
# 4 0.0000 0.0000 0.0000 -27.6792 0.0000 0.0000
# 5 0.0000 0.0000 0.0000 0.0000 41.1193 0.0000
# 6 0.0000 0.0000 0.0000 0.0000 0.0000 -13.2042
#
#
#
# Elastic Compliance Matrix: (Units=1/GPa)
#
#
# Indices 1 2 3 4 5 6 
#
# 1 0.012581 0.000047 0.001637 0.000000 0.000000 0.000000
# 2 0.000047 0.010632 -0.005270 0.000000 0.000000 0.000000
# 3 0.001637 -0.005270 0.017356 0.000000 0.000000 0.000000
# 4 0.000000 0.000000 0.000000 -0.036128 0.000000 0.000000
# 5 0.000000 0.000000 0.000000 0.000000 0.024320 0.000000
# 6 0.000000 0.000000 0.000000 0.000000 0.000000 -0.075733
#
#
# Mechanical properties :
#
#
# Convention : Reuss Voigt Hill
#
# Bulk Modulus (GPa) = 29.94422 33.44492 31.69457
# Shear Modulus (GPa) = -174.41546 16.06853 -79.17346
#
# Velocity S-wave (km/s) = -8.86582 2.69100 -5.97332
# Velocity P-wave (km/s) = 9.55557 4.97270 5.76980
#
# Compressibility (1/GPa) = 0.03339543
#
# Stress axis : x y z
#
# Youngs Moduli (GPa) = 79.48408 94.05529 57.61695
#
# Poissons Ratio (x) = -0.00438 -0.09432
# Poissons Ratio (y) = -0.00370 0.30366
# Poissons Ratio (z) = -0.13011 0.49571
#
# Static dielectric constant tensor:
#      x y z
#    x 1.868630 0.000000 0.000000 
#    y 0.000000 1.750450 0.000000 
#    z 0.000000 0.000000 1.809950 
# 
# From -- ./inp_files/3507.got.cif
#   From: 2010.05.17/outbox.cif.g08.bks.cpg/sg61_2_cif.got.tgz:3507.got - 2010.06.03 15:17:17.
