data_PCOD9459209
_publ_section_title
;
Structure prediction by ZEFSAII (Michael W. Deem and Ramdas Pophale) SiO2 
 PCOD9459209
Probable space group: P B C A
;
_chemical_formula_sum "Si O2"
_cell_formula_units_Z 64
_cell_length_a 11.838979
_cell_length_b 23.240656
_cell_length_c 11.596227
_cell_angle_alpha 90.000000
_cell_angle_beta 90.000000
_cell_angle_gamma 90.000000
_cell_volume 3190.651280
_symmetry_space_group_name_H-M "P B C A"
_symmetry_group_IT_number 61
_symmetry_cell_setting 'orthorhombic'
loop_
_space_group_symop_operation_xyz
x,y,z
1/2-x,-y,1/2+z
1/2+x,1/2-y,-z
-x,1/2+y,1/2-z
-x,-y,-z
1/2+x,y,1/2-z
1/2-x,1/2+y,z
x,1/2-y,1/2+z
loop_
_atom_site_type_symbol
_atom_site_label
_atom_site_fract_x
_atom_site_fract_y
_atom_site_fract_z
Si Si1 0.594150 0.069922 0.925758
Si Si2 0.807876 0.212942 0.170051
Si Si3 0.802019 0.486376 0.760070
Si Si4 0.295220 0.603869 0.059725
Si Si5 0.420481 0.657910 0.395384
Si Si6 0.029537 0.898319 0.818489
Si Si7 0.345882 0.279569 0.571660
Si Si8 0.149673 0.535995 0.905182
O O1 0.647440 0.045018 0.810744
O O2 0.460268 0.075096 0.907397
O O3 0.631621 0.126587 0.992644
O O4 0.622187 0.016463 0.009562
O O5 0.678434 0.191496 0.168816
O O6 0.890094 0.157296 0.168800
O O7 0.829323 0.243679 0.295332
O O8 0.826990 0.244489 0.047010
O O9 0.774117 0.435495 0.849521
O O10 0.892461 0.455050 0.677235
O O11 0.681625 0.504668 0.711204
O O12 0.426392 0.602612 0.091765
O O13 0.241227 0.666860 0.064899
O O14 0.258611 0.572476 0.942481
O O15 0.471984 0.610213 0.307934
O O16 0.525448 0.697464 0.429937
#
# Coordination Sequence:
#
# PCOD9459209 Si02
#       8
#     8   8   8   8   8   8   8   8
#     4  10  19  34  60  89 116 167 216 254 310 391
#     4  11  25  41  69  95 125 165 221 268 329 385
#     4  11  20  35  59  91 126 167 209 257 315 384
#     4  11  20  38  60  84 123 164 203 259 313 376
#     4  11  20  41  66  89 126 163 219 261 318 394
#     4  11  20  37  63  91 121 170 209 256 318 390
#     4  11  24  43  65  96 121 168 212 274 326 380
#     4  10  20  34  57  88 121 160 210 258 307 380
#
# _framework density 20.058600999999999
#
# number of rings (size 3 to 8) (size 9 to 14) (size 15 to 20)
#    0.000    1.250    5.000    3.750    1.750    0.500 
#    2.250    2.500    0.000    0.000    0.000    0.000 
#    0.000    0.000    0.000    0.000    0.000    0.000 
#
# Total GULP energy -356634.957496 kJ/mol
# GULP energy per Si atom -5572.421211 kJ/mol
# Density = 2.001295 g / cm^3
# Si number density = 20.058601 Si / 1000 Ang^3
#
#
#
# Elastic Constant Matrix: (Units=GPa)
#
#
# Indices 1 2 3 4 5 6 
#
# 1 30.3790 5.3605 10.1722 0.0000 0.0000 0.0000
# 2 5.3605 36.2766 40.0836 0.0000 0.0000 0.0000
# 3 10.1722 40.0836 94.0299 0.0000 0.0000 0.0000
# 4 0.0000 0.0000 0.0000 29.6596 0.0000 0.0000
# 5 0.0000 0.0000 0.0000 0.0000 30.3797 0.0000
# 6 0.0000 0.0000 0.0000 0.0000 0.0000 22.3457
#
#
#
# Elastic Compliance Matrix: (Units=1/GPa)
#
#
# Indices 1 2 3 4 5 6 
#
# 1 0.034219 -0.001826 -0.002923 0.000000 0.000000 0.000000
# 2 -0.001826 0.052209 -0.022059 0.000000 0.000000 0.000000
# 3 -0.002923 -0.022059 0.020354 0.000000 0.000000 0.000000
# 4 0.000000 0.000000 0.000000 0.033716 0.000000 0.000000
# 5 0.000000 0.000000 0.000000 0.000000 0.032917 0.000000
# 6 0.000000 0.000000 0.000000 0.000000 0.000000 0.044751
#
#
# Mechanical properties :
#
#
# Convention : Reuss Voigt Hill
#
# Bulk Modulus (GPa) = 18.80900 30.21313 24.51107
# Shear Modulus (GPa) = 17.27089 23.48162 20.37625
#
# Velocity S-wave (km/s) = 2.93750 3.42519 3.19068
# Velocity P-wave (km/s) = 4.57194 5.54416 5.08135
#
# Compressibility (1/GPa) = 0.05316604
#
# Stress axis : x y z
#
# Youngs Moduli (GPa) = 29.22387 19.15367 49.12948
#
# Poissons Ratio (x) = 0.03498 0.14362
# Poissons Ratio (y) = 0.05337 1.08372
# Poissons Ratio (z) = 0.08543 0.42250
#
# Static dielectric constant tensor:
#      x y z
#    x 1.699610 0.000000 0.000000 
#    y 0.000000 1.699960 0.000000 
#    z 0.000000 0.000000 1.808120 
# 
# From -- ./inp_files/5478.got.cif
#   From: 2010.05.17/outbox.cif.g08.bks.cpg/sg61_3_cif.got.tgz:5478.got - 2010.06.03 15:17:17.
