data_PCOD9459844
_publ_section_title
;
Structure prediction by ZEFSAII (Michael W. Deem and Ramdas Pophale) SiO2 
 PCOD9459844
Probable space group: P B C A
;
_chemical_formula_sum "Si O2"
_cell_formula_units_Z 56
_cell_length_a 13.276868
_cell_length_b 18.522574
_cell_length_c 8.936001
_cell_angle_alpha 90.000000
_cell_angle_beta 90.000000
_cell_angle_gamma 90.000000
_cell_volume 2197.557183
_symmetry_space_group_name_H-M "P B C A"
_symmetry_group_IT_number 61
_symmetry_cell_setting 'orthorhombic'
loop_
_space_group_symop_operation_xyz
x,y,z
1/2-x,-y,1/2+z
1/2+x,1/2-y,-z
-x,1/2+y,1/2-z
-x,-y,-z
1/2+x,y,1/2-z
1/2-x,1/2+y,z
x,1/2-y,1/2+z
loop_
_atom_site_type_symbol
_atom_site_label
_atom_site_fract_x
_atom_site_fract_y
_atom_site_fract_z
Si Si1 0.835719 0.614093 0.640664
Si Si2 0.791857 0.268797 0.260815
Si Si3 0.661490 0.476346 0.416265
Si Si4 0.207838 0.642624 0.442458
Si Si5 0.527289 0.375317 0.882470
Si Si6 0.014325 0.215132 0.668348
Si Si7 0.027838 0.595646 0.051029
O O1 0.745573 0.671555 0.640180
O O2 0.808398 0.547866 0.750019
O O3 0.892119 0.588402 0.491974
O O4 0.917680 0.664618 0.728451
O O5 0.763862 0.303630 0.419901
O O6 0.911805 0.268839 0.254062
O O7 0.763791 0.188723 0.204672
O O8 0.731303 0.430325 0.526444
O O9 0.548367 0.445899 0.440705
O O10 0.638938 0.560142 0.444607
O O11 0.088153 0.626739 0.443209
O O12 0.561576 0.292030 0.868919
O O13 0.516730 0.407778 0.717628
O O14 0.982510 0.175236 0.515798
#
# Coordination Sequence:
#
# PCOD9459844 Si02
#       7
#     8   8   8   8   8   8   8
#     4  10  21  37  62  89 123 157 199 256 305 359
#     4  10  22  36  59  90 126 155 200 259 302 357
#     4   9  22  44  59  85 124 168 201 244 305 373
#     4  10  22  39  58  90 126 152 206 252 307 362
#     4  11  22  36  62  95 117 155 205 255 305 362
#     4  10  21  39  60  88 125 157 200 254 308 357
#     4  10  22  41  64  84 123 166 203 243 308 369
#
# _framework density 25.482842000000002
#
# number of rings (size 3 to 8) (size 9 to 14) (size 15 to 20)
#    0.000    2.000    1.429    0.857   14.000    0.571 
#    5.143    0.000    0.000    0.000    0.000    0.000 
#    0.000    0.000    0.000    0.000    0.000    0.000 
#
# Total GULP energy -313128.301429 kJ/mol
# GULP energy per Si atom -5591.576811 kJ/mol
# Density = 2.542484 g / cm^3
# Si number density = 25.482842 Si / 1000 Ang^3
#
#
#
# Elastic Constant Matrix: (Units=GPa)
#
#
# Indices 1 2 3 4 5 6 
#
# 1 49.1694 8.0520 3.9621 0.0000 0.0000 0.0000
# 2 8.0520 67.8214 33.1627 0.0000 0.0000 0.0000
# 3 3.9621 33.1627 77.3800 0.0000 0.0000 0.0000
# 4 0.0000 0.0000 0.0000 40.6802 0.0000 0.0000
# 5 0.0000 0.0000 0.0000 0.0000 26.4970 0.0000
# 6 0.0000 0.0000 0.0000 0.0000 0.0000 24.7391
#
#
#
# Elastic Compliance Matrix: (Units=1/GPa)
#
#
# Indices 1 2 3 4 5 6 
#
# 1 0.020741 -0.002458 -0.000008 0.000000 0.000000 0.000000
# 2 -0.002458 0.018945 -0.007993 0.000000 0.000000 0.000000
# 3 -0.000008 -0.007993 0.016349 0.000000 0.000000 0.000000
# 4 0.000000 0.000000 0.000000 0.024582 0.000000 0.000000
# 5 0.000000 0.000000 0.000000 0.000000 0.037740 0.000000
# 6 0.000000 0.000000 0.000000 0.000000 0.000000 0.040422
#
#
# Mechanical properties :
#
#
# Convention : Reuss Voigt Hill
#
# Bulk Modulus (GPa) = 28.47770 31.63605 30.05687
# Shear Modulus (GPa) = 26.12265 28.32952 27.22608
#
# Velocity S-wave (km/s) = 3.20520 3.33785 3.27220
# Velocity P-wave (km/s) = 4.98972 5.22461 5.10851
#
# Compressibility (1/GPa) = 0.03511520
#
# Stress axis : x y z
#
# Youngs Moduli (GPa) = 48.21341 52.78442 61.16438
#
# Poissons Ratio (x) = 0.12976 0.00052
# Poissons Ratio (y) = 0.11852 0.48891
# Poissons Ratio (z) = 0.00041 0.42193
#
# Static dielectric constant tensor:
#      x y z
#    x 2.018230 0.000000 0.000000 
#    y 0.000000 2.143230 0.000000 
#    z 0.000000 0.000000 2.003390 
# 
# From -- ./inp_files/3041.got.cif
#   From: 2010.05.17/outbox.cif.g08.bks.cpg/sg61_2_cif.got.tgz:3041.got - 2010.06.03 15:17:17.
