data_PCOD9459200
_publ_section_title
;
Structure prediction by ZEFSAII (Michael W. Deem and Ramdas Pophale) SiO2 
 PCOD9459200
Probable space group: P B C A
;
_chemical_formula_sum "Si O2"
_cell_formula_units_Z 64
_cell_length_a 25.329126
_cell_length_b 5.395658
_cell_length_c 21.515599
_cell_angle_alpha 90.000000
_cell_angle_beta 90.000000
_cell_angle_gamma 90.000000
_cell_volume 2940.478852
_symmetry_space_group_name_H-M "P B C A"
_symmetry_group_IT_number 61
_symmetry_cell_setting 'orthorhombic'
loop_
_space_group_symop_operation_xyz
x,y,z
1/2-x,-y,1/2+z
1/2+x,1/2-y,-z
-x,1/2+y,1/2-z
-x,-y,-z
1/2+x,y,1/2-z
1/2-x,1/2+y,z
x,1/2-y,1/2+z
loop_
_atom_site_type_symbol
_atom_site_label
_atom_site_fract_x
_atom_site_fract_y
_atom_site_fract_z
Si Si1 0.936705 0.038111 0.065141
Si Si2 0.959888 0.256271 0.445036
Si Si3 0.769159 0.288950 0.338205
Si Si4 0.985929 0.414917 0.151040
Si Si5 0.419736 0.988917 0.221898
Si Si6 0.883391 0.739661 0.657896
Si Si7 0.229621 0.202446 0.305194
Si Si8 0.111512 0.515216 0.657514
O O1 0.966971 0.156575 0.123874
O O2 0.885659 0.900915 0.091768
O O3 0.932092 0.247475 0.012328
O O4 0.979829 0.841804 0.041000
O O5 0.922390 0.440753 0.405196
O O6 0.972306 0.026921 0.399666
O O7 0.733980 0.512231 0.365678
O O8 0.748251 0.241509 0.266891
O O9 0.827813 0.397589 0.344247
O O10 0.934067 0.581593 0.156795
O O11 0.019087 0.415359 0.214054
O O12 0.393989 0.958850 0.288407
O O13 0.392306 0.766276 0.181715
O O14 0.413011 0.273062 0.202161
O O15 0.830418 0.872308 0.680511
O O16 0.236273 0.478017 0.331945
#
# Coordination Sequence:
#
# PCOD9459200 Si02
#       8
#     8   8   8   8   8   8   8   8
#     4  10  20  39  58  85 123 162 206 243 296 367
#     4   9  20  38  60  86 117 161 212 247 294 359
#     4  10  19  34  57  84 115 146 196 252 302 353
#     4  10  22  35  57  87 124 164 199 250 298 369
#     4  11  23  36  58  89 130 159 195 239 308 373
#     4  11  25  35  58  89 123 165 200 248 310 372
#     4  10  21  38  57  81 112 156 201 251 294 357
#     4  11  21  39  62  91 117 161 201 254 305 356
#
# _framework density 21.765163000000001
#
# number of rings (size 3 to 8) (size 9 to 14) (size 15 to 20)
#    0.000    1.750    1.250    4.125    5.250    0.000 
#    0.000    0.000    0.000    1.500    0.000    0.000 
#    0.000    0.000    0.000    0.000    0.000    0.000 
#
# Total GULP energy -356495.190091 kJ/mol
# GULP energy per Si atom -5570.237345 kJ/mol
# Density = 2.171562 g / cm^3
# Si number density = 21.765163 Si / 1000 Ang^3
#
#
#
# Elastic Constant Matrix: (Units=GPa)
#
#
# Indices 1 2 3 4 5 6 
#
# 1 84.9018 -1.9218 12.8016 0.0000 0.0000 0.0000
# 2 -1.9218 75.5909 -9.4549 0.0000 0.0000 0.0000
# 3 12.8016 -9.4549 30.1760 0.0000 0.0000 0.0000
# 4 0.0000 0.0000 0.0000 13.9723 0.0000 0.0000
# 5 0.0000 0.0000 0.0000 0.0000 17.5915 0.0000
# 6 0.0000 0.0000 0.0000 0.0000 0.0000 33.3791
#
#
#
# Elastic Compliance Matrix: (Units=1/GPa)
#
#
# Indices 1 2 3 4 5 6 
#
# 1 0.012593 -0.000362 -0.005456 0.000000 0.000000 0.000000
# 2 -0.000362 0.013779 0.004471 0.000000 0.000000 0.000000
# 3 -0.005456 0.004471 0.036854 0.000000 0.000000 0.000000
# 4 0.000000 0.000000 0.000000 0.071570 0.000000 0.000000
# 5 0.000000 0.000000 0.000000 0.000000 0.056846 0.000000
# 6 0.000000 0.000000 0.000000 0.000000 0.000000 0.029959
#
#
# Mechanical properties :
#
#
# Convention : Reuss Voigt Hill
#
# Bulk Modulus (GPa) = 16.52011 21.50206 19.01108
# Shear Modulus (GPa) = 20.45221 25.60482 23.02852
#
# Velocity S-wave (km/s) = 3.06874 3.43361 3.25629
# Velocity P-wave (km/s) = 4.49031 5.06163 4.78451
#
# Compressibility (1/GPa) = 0.06053229
#
# Stress axis : x y z
#
# Youngs Moduli (GPa) = 79.41079 72.57348 27.13385
#
# Poissons Ratio (x) = 0.02629 0.14804
# Poissons Ratio (y) = 0.02877 -0.12132
# Poissons Ratio (z) = 0.43325 -0.32448
#
# Static dielectric constant tensor:
#      x y z
#    x 1.848760 0.000000 0.000000 
#    y 0.000000 1.926730 0.000000 
#    z 0.000000 0.000000 1.893660 
# 
# From -- ./inp_files/11177.got.cif
#   From: 2010.05.17/outbox.cif.g08.bks.cpg/sg61_6_cif.got.tgz:11177.got - 2010.06.03 15:17:17.
