data_PCOD9459017
_publ_section_title
;
Structure prediction by ZEFSAII (Michael W. Deem and Ramdas Pophale) SiO2 
 PCOD9459017
Probable space group: P B C A
;
_chemical_formula_sum "Si O2"
_cell_formula_units_Z 64
_cell_length_a 5.371218
_cell_length_b 18.581159
_cell_length_c 28.839820
_cell_angle_alpha 90.000000
_cell_angle_beta 90.000000
_cell_angle_gamma 90.000000
_cell_volume 2878.313697
_symmetry_space_group_name_H-M "P B C A"
_symmetry_group_IT_number 61
_symmetry_cell_setting 'orthorhombic'
loop_
_space_group_symop_operation_xyz
x,y,z
1/2-x,-y,1/2+z
1/2+x,1/2-y,-z
-x,1/2+y,1/2-z
-x,-y,-z
1/2+x,y,1/2-z
1/2-x,1/2+y,z
x,1/2-y,1/2+z
loop_
_atom_site_type_symbol
_atom_site_label
_atom_site_fract_x
_atom_site_fract_y
_atom_site_fract_z
Si Si1 0.742304 0.293536 0.066921
Si Si2 0.711698 0.414347 0.737925
Si Si3 0.841106 0.932063 0.923679
Si Si4 0.241376 0.577311 0.725413
Si Si5 0.174650 0.458078 0.868118
Si Si6 0.337705 0.087493 0.540792
Si Si7 0.010942 0.668526 0.023289
Si Si8 0.008615 0.612111 0.869780
O O1 0.569552 0.361022 0.051761
O O2 0.588013 0.220966 0.062911
O O3 0.853537 0.313799 0.116940
O O4 0.936399 0.287367 0.024023
O O5 0.968381 0.374340 0.745281
O O6 0.729519 0.489613 0.767975
O O7 0.680574 0.433947 0.684661
O O8 0.593273 0.942844 0.891636
O O9 0.757097 0.868613 0.957248
O O10 0.089971 0.923834 0.893970
O O11 0.884716 0.003190 0.954345
O O12 0.965142 0.601223 0.740075
O O13 0.334834 0.602487 0.675103
O O14 0.199563 0.545091 0.867467
O O15 0.188655 0.109568 0.494371
O O16 0.152021 0.101241 0.583948
#
# Coordination Sequence:
#
# PCOD9459017 Si02
#       8
#     8   8   8   8   8   8   8   8
#     4  11  22  39  64  82 123 159 216 260 306 379
#     4  10  18  29  53  84 123 154 189 243 301 366
#     4  11  25  38  61  86 128 159 202 256 310 372
#     4  10  20  30  55  87 126 156 189 247 305 370
#     4  11  21  36  55  90 126 156 194 248 313 361
#     4  10  22  38  60  85 123 158 203 256 304 372
#     4  11  24  41  59  88 113 170 212 254 310 367
#     4  10  21  35  56  91 124 158 196 252 316 353
#
# _framework density 22.235242
#
# number of rings (size 3 to 8) (size 9 to 14) (size 15 to 20)
#    0.000    1.500    5.000    1.125    8.750    0.500 
#    0.000    0.000    0.000    0.000    0.000    5.250 
#    0.000    0.000    0.000    0.000    0.000    0.000 
#
# Total GULP energy -357475.922965 kJ/mol
# GULP energy per Si atom -5585.561296 kJ/mol
# Density = 2.218463 g / cm^3
# Si number density = 22.235242 Si / 1000 Ang^3
#
#
#
# Elastic Constant Matrix: (Units=GPa)
#
#
# Indices 1 2 3 4 5 6 
#
# 1 116.7305 0.5370 25.7119 0.0000 0.0000 0.0000
# 2 0.5370 41.3438 7.6757 0.0000 0.0000 0.0000
# 3 25.7119 7.6757 79.8046 0.0000 0.0000 0.0000
# 4 0.0000 0.0000 0.0000 16.3521 0.0000 0.0000
# 5 0.0000 0.0000 0.0000 0.0000 31.5258 0.0000
# 6 0.0000 0.0000 0.0000 0.0000 0.0000 -462.5327
#
#
#
# Elastic Compliance Matrix: (Units=1/GPa)
#
#
# Indices 1 2 3 4 5 6 
#
# 1 0.009229 0.000440 -0.003016 0.000000 0.000000 0.000000
# 2 0.000440 0.024648 -0.002512 0.000000 0.000000 0.000000
# 3 -0.003016 -0.002512 0.013744 0.000000 0.000000 0.000000
# 4 0.000000 0.000000 0.000000 0.061154 0.000000 0.000000
# 5 0.000000 0.000000 0.000000 0.000000 0.031720 0.000000
# 6 0.000000 0.000000 0.000000 0.000000 0.000000 -0.002162
#
#
# Mechanical properties :
#
#
# Convention : Reuss Voigt Hill
#
# Bulk Modulus (GPa) = 26.70612 33.96981 30.33796
# Shear Modulus (GPa) = 31.05762 -69.33400 -19.13819
#
# Velocity S-wave (km/s) = 3.74140 -5.59015 -2.93698
# Velocity P-wave (km/s) = 5.54084 5.13378 1.47398
#
# Compressibility (1/GPa) = 0.03744460
#
# Stress axis : x y z
#
# Youngs Moduli (GPa) = 108.35420 40.57101 72.75959
#
# Poissons Ratio (x) = -0.01785 0.21943
# Poissons Ratio (y) = -0.04768 0.18281
# Poissons Ratio (z) = 0.32677 0.10193
#
# Static dielectric constant tensor:
#      x y z
#    x 1.942410 0.000000 0.000000 
#    y 0.000000 1.842960 0.000000 
#    z 0.000000 0.000000 1.824940 
# 
# From -- ./inp_files/10675.got.cif
#   From: 2010.05.17/outbox.cif.g08.bks.cpg/sg61_6_cif.got.tgz:10675.got - 2010.06.03 15:17:17.
