data_PCOD9459132
_publ_section_title
;
Structure prediction by ZEFSAII (Michael W. Deem and Ramdas Pophale) SiO2 
 PCOD9459132
Probable space group: P B C A
;
_chemical_formula_sum "Si O2"
_cell_formula_units_Z 56
_cell_length_a 23.199991
_cell_length_b 20.070801
_cell_length_c 5.629552
_cell_angle_alpha 90.000000
_cell_angle_beta 90.000000
_cell_angle_gamma 90.000000
_cell_volume 2621.358119
_symmetry_space_group_name_H-M "P B C A"
_symmetry_group_IT_number 61
_symmetry_cell_setting 'orthorhombic'
loop_
_space_group_symop_operation_xyz
x,y,z
1/2-x,-y,1/2+z
1/2+x,1/2-y,-z
-x,1/2+y,1/2-z
-x,-y,-z
1/2+x,y,1/2-z
1/2-x,1/2+y,z
x,1/2-y,1/2+z
loop_
_atom_site_type_symbol
_atom_site_label
_atom_site_fract_x
_atom_site_fract_y
_atom_site_fract_z
Si Si1 0.383039 0.787125 0.464994
Si Si2 0.488674 0.257913 0.501633
Si Si3 0.366634 0.568277 0.110288
Si Si4 0.940266 0.482558 0.729317
Si Si5 0.683272 0.947069 0.869824
Si Si6 0.534096 0.096957 0.073816
Si Si7 0.223161 0.951507 0.135081
O O1 0.366938 0.749885 0.216396
O O2 0.453485 0.787950 0.484900
O O3 0.360540 0.863327 0.463171
O O4 0.456857 0.252389 0.753191
O O5 0.515182 0.331244 0.496209
O O6 0.400283 0.594280 0.340699
O O7 0.310886 0.523056 0.144305
O O8 0.410322 0.513579 0.999369
O O9 0.885585 0.453079 0.873417
O O10 0.989173 0.426983 0.723575
O O11 0.969070 0.544899 0.860974
O O12 0.703727 0.918551 0.613238
O O13 0.711493 0.021861 0.862415
O O14 0.705728 0.916836 0.118068
#
# Coordination Sequence:
#
# PCOD9459132 Si02
#       7
#     8   8   8   8   8   8   8
#     4  10  19  30  48  67  94 124 159 206 244 292
#     4  10  19  33  48  66  93 127 165 204 237 292
#     4  11  19  31  49  70 103 128 166 201 255 296
#     4  10  21  31  46  73 105 136 159 200 247 307
#     4   9  17  33  45  68  96 124 164 185 232 285
#     4  11  20  31  48  72 103 134 162 200 254 298
#     4   9  18  29  51  67  90 129 155 199 229 284
#
# _framework density 21.362971999999999
#
# number of rings (size 3 to 8) (size 9 to 14) (size 15 to 20)
#    0.000    2.000    4.286    2.143    0.000    0.000 
#    0.000    0.000    0.000    0.000    0.000    2.000 
#    0.000    0.000    0.000    0.000    0.000    0.000 
#
# Total GULP energy -311814.714876 kJ/mol
# GULP energy per Si atom -5568.119909 kJ/mol
# Density = 2.131435 g / cm^3
# Si number density = 21.362972 Si / 1000 Ang^3
#
#
#
# Elastic Constant Matrix: (Units=GPa)
#
#
# Indices 1 2 3 4 5 6 
#
# 1 54.1995 1.1304 0.5939 0.0000 0.0000 0.0000
# 2 1.1304 41.9864 1.4661 0.0000 0.0000 0.0000
# 3 0.5939 1.4661 158.7517 0.0000 0.0000 0.0000
# 4 0.0000 0.0000 0.0000 14.2347 0.0000 0.0000
# 5 0.0000 0.0000 0.0000 0.0000 24.1197 0.0000
# 6 0.0000 0.0000 0.0000 0.0000 0.0000 5.1687
#
#
#
# Elastic Compliance Matrix: (Units=1/GPa)
#
#
# Indices 1 2 3 4 5 6 
#
# 1 0.018461 -0.000495 -0.000064 0.000000 0.000000 0.000000
# 2 -0.000495 0.023838 -0.000218 0.000000 0.000000 0.000000
# 3 -0.000064 -0.000218 0.006301 0.000000 0.000000 0.000000
# 4 0.000000 0.000000 0.000000 0.070251 0.000000 0.000000
# 5 0.000000 0.000000 0.000000 0.000000 0.041460 0.000000
# 6 0.000000 0.000000 0.000000 0.000000 0.000000 0.193474
#
#
# Mechanical properties :
#
#
# Convention : Reuss Voigt Hill
#
# Bulk Modulus (GPa) = 21.25589 29.03539 25.14564
# Shear Modulus (GPa) = 13.47627 25.48776 19.48201
#
# Velocity S-wave (km/s) = 2.51435 3.45785 3.02313
# Velocity P-wave (km/s) = 4.28961 5.43721 4.89714
#
# Compressibility (1/GPa) = 0.04704578
#
# Stress axis : x y z
#
# Youngs Moduli (GPa) = 54.16716 41.94953 158.69483
#
# Poissons Ratio (x) = 0.02076 0.01024
# Poissons Ratio (y) = 0.02680 0.03464
# Poissons Ratio (z) = 0.00349 0.00916
#
# Static dielectric constant tensor:
#      x y z
#    x 1.833270 0.000000 0.000000 
#    y 0.000000 1.785000 0.000000 
#    z 0.000000 0.000000 1.982800 
# 
# From -- ./inp_files/1211.got.cif
#   From: 2010.05.17/outbox.cif.g08.bks.cpg/sg61_1_cif.got.tgz:1211.got - 2010.06.03 15:17:17.
