data_PCOD9459289
_publ_section_title
;
Structure prediction by ZEFSAII (Michael W. Deem and Ramdas Pophale) SiO2 
 PCOD9459289
Probable space group: P B C A
;
_chemical_formula_sum "Si O2"
_cell_formula_units_Z 56
_cell_length_a 12.388538
_cell_length_b 5.214619
_cell_length_c 35.374588
_cell_angle_alpha 90.000000
_cell_angle_beta 90.000000
_cell_angle_gamma 90.000000
_cell_volume 2285.251646
_symmetry_space_group_name_H-M "P B C A"
_symmetry_group_IT_number 61
_symmetry_cell_setting 'orthorhombic'
loop_
_space_group_symop_operation_xyz
x,y,z
1/2-x,-y,1/2+z
1/2+x,1/2-y,-z
-x,1/2+y,1/2-z
-x,-y,-z
1/2+x,y,1/2-z
1/2-x,1/2+y,z
x,1/2-y,1/2+z
loop_
_atom_site_type_symbol
_atom_site_label
_atom_site_fract_x
_atom_site_fract_y
_atom_site_fract_z
Si Si1 0.321779 0.093167 0.795049
Si Si2 0.679460 0.024695 0.284796
Si Si3 0.613249 0.928869 0.972732
Si Si4 0.081043 0.587345 0.634527
Si Si5 0.679479 0.052085 0.053676
Si Si6 0.952040 0.413170 0.127916
Si Si7 0.145331 0.431393 0.558810
O O1 0.226903 0.879266 0.795575
O O2 0.379430 0.037363 0.754846
O O3 0.391869 0.054976 0.832099
O O4 0.723269 0.315135 0.284913
O O5 0.616196 0.973102 0.323151
O O6 0.742410 0.894569 0.963205
O O7 0.572998 0.652211 0.960151
O O8 0.584704 0.164146 0.945839
O O9 0.606715 0.000635 0.016468
O O10 0.166050 0.514220 0.601783
O O11 0.985743 0.384761 0.625102
O O12 0.049439 0.882488 0.630106
O O13 0.773732 0.838049 0.051246
O O14 0.622300 0.000911 0.093340
#
# Coordination Sequence:
#
# PCOD9459289 Si02
#       7
#     8   8   8   8   8   8   8
#     4  10  21  43  68  96 122 162 216 257 299 356
#     4  10  23  41  68  96 122 162 216 259 292 366
#     4  10  19  37  63  88 105 157 211 256 303 344
#     4  12  26  41  59  97 133 167 200 248 328 374
#     4  12  21  41  67  91 115 158 226 258 300 372
#     4  12  26  41  61  94 134 167 198 253 323 378
#     4  10  20  36  59  86 118 151 205 255 293 370
#
# _framework density 24.504957000000001
#
# number of rings (size 3 to 8) (size 9 to 14) (size 15 to 20)
#    0.000    1.143    2.857    4.286    4.000    1.143 
#    0.000    4.286    0.000    0.000    0.000    0.000 
#    0.000    0.000    0.000    0.000    0.000    0.000 
#
# Total GULP energy -313452.108520 kJ/mol
# GULP energy per Si atom -5597.359081 kJ/mol
# Density = 2.444918 g / cm^3
# Si number density = 24.504957 Si / 1000 Ang^3
#
#
#
# Elastic Constant Matrix: (Units=GPa)
#
#
# Indices 1 2 3 4 5 6 
#
# 1 19.5174 -0.4940 17.6011 0.0000 0.0000 0.0000
# 2 -0.4940 109.8211 -7.8463 0.0000 0.0000 0.0000
# 3 17.6011 -7.8463 181.7996 0.0000 0.0000 0.0000
# 4 0.0000 0.0000 0.0000 37.0796 0.0000 0.0000
# 5 0.0000 0.0000 0.0000 0.0000 39.6176 0.0000
# 6 0.0000 0.0000 0.0000 0.0000 0.0000 33.7100
#
#
#
# Elastic Compliance Matrix: (Units=1/GPa)
#
#
# Indices 1 2 3 4 5 6 
#
# 1 0.056140 -0.000136 -0.005441 0.000000 0.000000 0.000000
# 2 -0.000136 0.009134 0.000407 0.000000 0.000000 0.000000
# 3 -0.005441 0.000407 0.006045 0.000000 0.000000 0.000000
# 4 0.000000 0.000000 0.000000 0.026969 0.000000 0.000000
# 5 0.000000 0.000000 0.000000 0.000000 0.025241 0.000000
# 6 0.000000 0.000000 0.000000 0.000000 0.000000 0.029665
#
#
# Mechanical properties :
#
#
# Convention : Reuss Voigt Hill
#
# Bulk Modulus (GPa) = 16.39904 36.62886 26.51395
# Shear Modulus (GPa) = 27.19454 42.20657 34.70055
#
# Velocity S-wave (km/s) = 3.33491 4.15465 3.76714
# Velocity P-wave (km/s) = 4.64064 6.16399 5.45574
#
# Compressibility (1/GPa) = 0.06097918
#
# Stress axis : x y z
#
# Youngs Moduli (GPa) = 17.81265 109.47849 165.42777
#
# Poissons Ratio (x) = 0.01491 0.90011
# Poissons Ratio (y) = 0.00243 -0.06740
# Poissons Ratio (z) = 0.09692 -0.04460
#
# Static dielectric constant tensor:
#      x y z
#    x 2.006050 0.000000 0.000000 
#    y 0.000000 1.989070 0.000000 
#    z 0.000000 0.000000 1.940950 
# 
# From -- ./inp_files/11821.got.cif
#   From: 2010.05.17/outbox.cif.g08.bks.cpg/sg61_6_cif.got.tgz:11821.got - 2010.06.03 15:17:17.
