data_PCOD9459505
_publ_section_title
;
Structure prediction by ZEFSAII (Michael W. Deem and Ramdas Pophale) SiO2 
 PCOD9459505
Probable space group: P B C A
;
_chemical_formula_sum "Si O2"
_cell_formula_units_Z 64
_cell_length_a 26.521256
_cell_length_b 8.579304
_cell_length_c 12.550254
_cell_angle_alpha 90.000000
_cell_angle_beta 90.000000
_cell_angle_gamma 90.000000
_cell_volume 2855.608461
_symmetry_space_group_name_H-M "P B C A"
_symmetry_group_IT_number 61
_symmetry_cell_setting 'orthorhombic'
loop_
_space_group_symop_operation_xyz
x,y,z
1/2-x,-y,1/2+z
1/2+x,1/2-y,-z
-x,1/2+y,1/2-z
-x,-y,-z
1/2+x,y,1/2-z
1/2-x,1/2+y,z
x,1/2-y,1/2+z
loop_
_atom_site_type_symbol
_atom_site_label
_atom_site_fract_x
_atom_site_fract_y
_atom_site_fract_z
Si Si1 0.069540 0.642850 0.053206
Si Si2 0.320784 0.965988 0.536568
Si Si3 0.027674 0.986186 0.350189
Si Si4 0.228467 0.578306 0.883780
Si Si5 0.988113 0.861158 0.847938
Si Si6 0.429147 0.002060 0.466528
Si Si7 0.273643 0.828724 0.724552
Si Si8 0.676966 0.815087 0.906601
O O1 0.069076 0.825236 0.020879
O O2 0.121625 0.618411 0.114811
O O3 0.018687 0.594960 0.112585
O O4 0.066869 0.540859 0.945055
O O5 0.371411 0.951470 0.467838
O O6 0.323594 0.127393 0.602918
O O7 0.273530 0.983233 0.458337
O O8 0.310048 0.827495 0.621443
O O9 0.046563 0.065671 0.243137
O O10 0.005071 0.814401 0.329464
O O11 0.255309 0.686613 0.796468
O O12 0.204239 0.444206 0.813001
O O13 0.190680 0.654826 0.968830
O O14 0.959314 0.882167 0.959189
O O15 0.038621 0.967867 0.860327
O O16 0.220776 0.881930 0.668216
#
# Coordination Sequence:
#
# PCOD9459505 Si02
#       8
#     8   8   8   8   8   8   8   8
#     4   9  20  39  61  82 112 149 202 241 287 350
#     4  10  21  39  61  87 118 156 202 247 294 357
#     4  10  20  37  60  87 115 154 190 245 295 353
#     4  11  22  39  60  87 120 158 197 247 301 353
#     4  10  20  37  59  84 118 152 192 238 301 350
#     4   9  20  39  59  82 114 154 192 244 289 351
#     4  11  22  39  61  85 120 157 196 248 299 350
#     4  10  21  39  63  86 115 158 201 245 295 360
#
# _framework density 22.412034999999999
#
# number of rings (size 3 to 8) (size 9 to 14) (size 15 to 20)
#    0.000    2.000    2.500    0.750    0.000    3.000 
#    9.000    0.000    0.000    0.000    0.000    0.000 
#    0.000    0.000    0.000    0.000    0.000    0.000 
#
# Total GULP energy -356967.152016 kJ/mol
# GULP energy per Si atom -5577.611750 kJ/mol
# Density = 2.236102 g / cm^3
# Si number density = 22.412035 Si / 1000 Ang^3
#
#
#
# Elastic Constant Matrix: (Units=GPa)
#
#
# Indices 1 2 3 4 5 6 
#
# 1 63.3912 -6.8738 -16.6172 0.0000 0.0000 0.0000
# 2 -6.8738 20.2822 4.1760 0.0000 0.0000 0.0000
# 3 -16.6172 4.1760 48.5376 0.0000 0.0000 0.0000
# 4 0.0000 0.0000 0.0000 34.7172 0.0000 0.0000
# 5 0.0000 0.0000 0.0000 0.0000 12.1462 0.0000
# 6 0.0000 0.0000 0.0000 0.0000 0.0000 21.2705
#
#
#
# Elastic Compliance Matrix: (Units=1/GPa)
#
#
# Indices 1 2 3 4 5 6 
#
# 1 0.017789 0.004861 0.005672 0.000000 0.000000 0.000000
# 2 0.004861 0.051522 -0.002769 0.000000 0.000000 0.000000
# 3 0.005672 -0.002769 0.022783 0.000000 0.000000 0.000000
# 4 0.000000 0.000000 0.000000 0.028804 0.000000 0.000000
# 5 0.000000 0.000000 0.000000 0.000000 0.082330 0.000000
# 6 0.000000 0.000000 0.000000 0.000000 0.000000 0.047014
#
#
# Mechanical properties :
#
#
# Convention : Reuss Voigt Hill
#
# Bulk Modulus (GPa) = 9.29177 10.39790 9.84484
# Shear Modulus (GPa) = 18.47840 23.72852 21.10346
#
# Velocity S-wave (km/s) = 2.87450 3.25736 3.07190
# Velocity P-wave (km/s) = 3.89511 4.33551 4.12120
#
# Compressibility (1/GPa) = 0.10762208
#
# Stress axis : x y z
#
# Youngs Moduli (GPa) = 56.21459 19.40932 43.89312
#
# Poissons Ratio (x) = -0.09435 -0.24896
# Poissons Ratio (y) = -0.27326 0.12152
# Poissons Ratio (z) = -0.31885 0.05373
#
# Static dielectric constant tensor:
#      x y z
#    x 1.826810 0.000000 0.000000 
#    y 0.000000 1.841280 0.000000 
#    z 0.000000 0.000000 1.846890 
# 
# From -- ./inp_files/6773.got.cif
#   From: 2010.05.17/outbox.cif.g08.bks.cpg/sg61_4_cif.got.tgz:6773.got - 2010.06.03 15:17:17.
