data_PCOD9459152
_publ_section_title
;
Structure prediction by ZEFSAII (Michael W. Deem and Ramdas Pophale) SiO2 
 PCOD9459152
Probable space group: P B C A
;
_chemical_formula_sum "Si O2"
_cell_formula_units_Z 48
_cell_length_a 18.069118
_cell_length_b 8.077528
_cell_length_c 15.497001
_cell_angle_alpha 90.000000
_cell_angle_beta 90.000000
_cell_angle_gamma 90.000000
_cell_volume 2261.846287
_symmetry_space_group_name_H-M "P B C A"
_symmetry_group_IT_number 61
_symmetry_cell_setting 'orthorhombic'
loop_
_space_group_symop_operation_xyz
x,y,z
1/2-x,-y,1/2+z
1/2+x,1/2-y,-z
-x,1/2+y,1/2-z
-x,-y,-z
1/2+x,y,1/2-z
1/2-x,1/2+y,z
x,1/2-y,1/2+z
loop_
_atom_site_type_symbol
_atom_site_label
_atom_site_fract_x
_atom_site_fract_y
_atom_site_fract_z
Si Si1 0.100152 0.894239 0.507046
Si Si2 0.846202 0.935024 0.138946
Si Si3 0.675549 0.332026 0.895299
Si Si4 0.950767 0.776323 0.012559
Si Si5 0.181496 0.986317 0.676912
Si Si6 0.265996 0.269758 0.935478
O O1 0.133779 0.893643 0.603861
O O2 0.165439 0.854535 0.441208
O O3 0.037557 0.753031 0.499883
O O4 0.074388 0.082036 0.488627
O O5 0.922520 0.867217 0.099400
O O6 0.790330 0.777950 0.140325
O O7 0.843052 0.044006 0.225171
O O8 0.803948 0.052697 0.070339
O O9 0.732375 0.455979 0.848483
O O10 0.663575 0.179627 0.831920
O O11 0.595133 0.369151 0.936494
O O12 0.720047 0.251004 0.976354
#
# Coordination Sequence:
#
# PCOD9459152 Si02
#       6
#     8   8   8   8   8   8
#     4   9  19  36  55  75 106 148 186 223 272 337
#     4  11  20  32  53  83 110 137 177 232 284 328
#     4   9  17  32  53  74  99 138 181 219 265 329
#     4   9  18  35  56  75 103 144 185 221 270 337
#     4  10  19  32  51  79 109 135 173 229 282 323
#     4  10  19  33  54  77 103 139 186 226 269 334
#
# _framework density 21.221601
#
# number of rings (size 3 to 8) (size 9 to 14) (size 15 to 20)
#    0.000    2.333    0.000    6.000    0.000    0.667 
#    0.000    5.000    0.000    6.000    0.000    0.000 
#    0.000    0.000    0.000    0.000    0.000    0.000 
#
# Total GULP energy -267276.531242 kJ/mol
# GULP energy per Si atom -5568.261068 kJ/mol
# Density = 2.117330 g / cm^3
# Si number density = 21.221601 Si / 1000 Ang^3
#
#
#
# Elastic Constant Matrix: (Units=GPa)
#
#
# Indices 1 2 3 4 5 6 
#
# 1 82.2760 4.3158 15.5863 0.0000 0.0000 0.0000
# 2 4.3158 36.4960 -1.4668 0.0000 0.0000 0.0000
# 3 15.5863 -1.4668 72.6964 0.0000 0.0000 0.0000
# 4 0.0000 0.0000 0.0000 23.9876 0.0000 0.0000
# 5 0.0000 0.0000 0.0000 0.0000 14.8001 0.0000
# 6 0.0000 0.0000 0.0000 0.0000 0.0000 41.0151
#
#
#
# Elastic Compliance Matrix: (Units=1/GPa)
#
#
# Indices 1 2 3 4 5 6 
#
# 1 0.012764 -0.001621 -0.002769 0.000000 0.000000 0.000000
# 2 -0.001621 0.027628 0.000905 0.000000 0.000000 0.000000
# 3 -0.002769 0.000905 0.014368 0.000000 0.000000 0.000000
# 4 0.000000 0.000000 0.000000 0.041688 0.000000 0.000000
# 5 0.000000 0.000000 0.000000 0.000000 0.067567 0.000000
# 6 0.000000 0.000000 0.000000 0.000000 0.000000 0.024381
#
#
# Mechanical properties :
#
#
# Convention : Reuss Voigt Hill
#
# Bulk Modulus (GPa) = 20.92494 25.37100 23.14797
# Shear Modulus (GPa) = 23.66341 27.49610 25.57976
#
# Velocity S-wave (km/s) = 3.34288 3.60344 3.47560
# Velocity P-wave (km/s) = 4.97809 5.41242 5.19979
#
# Compressibility (1/GPa) = 0.04778987
#
# Stress axis : x y z
#
# Youngs Moduli (GPa) = 78.34634 36.19478 69.59985
#
# Poissons Ratio (x) = 0.05866 0.19274
# Poissons Ratio (y) = 0.12697 -0.06298
# Poissons Ratio (z) = 0.21696 -0.03275
#
# Static dielectric constant tensor:
#      x y z
#    x 1.812170 0.000000 0.000000 
#    y 0.000000 1.862210 0.000000 
#    z 0.000000 0.000000 1.871890 
# 
# From -- ./inp_files/8111.got.cif
#   From: 2010.05.17/outbox.cif.g08.bks.cpg/sg61_5_cif.got.tgz:8111.got - 2010.06.03 15:17:17.
