data_PCOD9459681
_publ_section_title
;
Structure prediction by ZEFSAII (Michael W. Deem and Ramdas Pophale) SiO2 
 PCOD9459681
Probable space group: P B C A
;
_chemical_formula_sum "Si O2"
_cell_formula_units_Z 60
_cell_length_a 17.702155
_cell_length_b 11.330743
_cell_length_c 13.355596
_cell_angle_alpha 90.000000
_cell_angle_beta 90.000000
_cell_angle_gamma 90.000000
_cell_volume 2678.846332
_symmetry_space_group_name_H-M "P B C A"
_symmetry_group_IT_number 61
_symmetry_cell_setting 'orthorhombic'
loop_
_space_group_symop_operation_xyz
x,y,z
1/2-x,-y,1/2+z
1/2+x,1/2-y,-z
-x,1/2+y,1/2-z
-x,-y,-z
1/2+x,y,1/2-z
1/2-x,1/2+y,z
x,1/2-y,1/2+z
loop_
_atom_site_type_symbol
_atom_site_label
_atom_site_fract_x
_atom_site_fract_y
_atom_site_fract_z
Si Si1 0.851660 0.031648 0.717256
Si Si2 0.818478 0.576145 0.001322
Si Si3 0.414763 0.704984 0.237055
Si Si4 0.050591 0.694307 0.873116
Si Si5 0.655122 0.601172 0.086004
Si Si6 0.811844 0.936354 0.275796
Si Si7 0.500000 0.500000 0.000000
Si Si8 0.958001 0.774126 0.542746
O O1 0.840332 0.001470 0.598822
O O2 0.864721 0.910889 0.777400
O O3 0.929705 0.103709 0.714541
O O4 0.776867 0.091958 0.759439
O O5 0.824906 0.522908 0.890235
O O6 0.731795 0.607177 0.023415
O O7 0.874104 0.689634 0.004544
O O8 0.482076 0.720418 0.159435
O O9 0.362966 0.820601 0.240118
O O10 0.456019 0.688827 0.342550
O O11 0.125671 0.768874 0.888260
O O12 0.017720 0.649881 0.977943
O O13 0.668999 0.531183 0.190037
O O14 0.587232 0.539909 0.026729
O O15 0.480001 0.637517 0.963503
#
# Coordination Sequence:
#
# PCOD9459681 Si02
#       8
#     8   8   8   8   8   8   4   8
#     4  10  27  44  68 102 140 177 234 282 346 413
#     4  10  23  45  67  98 134 188 224 288 348 409
#     4  11  24  44  68  98 136 177 223 289 338 410
#     4  11  25  42  68 102 136 180 225 281 349 410
#     4  10  24  41  69 101 140 180 233 287 345 412
#     4  11  23  46  70 100 137 181 234 282 344 415
#     4  10  20  40  66  98 134 182 220 288 340 408
#     4  10  22  40  67  94 138 174 229 276 345 407
#
# _framework density 22.397701999999999
#
# number of rings (size 3 to 8) (size 9 to 14) (size 15 to 20)
#    0.000    1.600    2.667    0.000    7.467    7.467 
#    2.400    0.000    0.000    0.000    0.000    0.000 
#    0.000    0.000    0.000    0.000    0.000    0.000 
#
# Total GULP energy -334030.122866 kJ/mol
# GULP energy per Si atom -5567.168714 kJ/mol
# Density = 2.234672 g / cm^3
# Si number density = 22.397702 Si / 1000 Ang^3
#
#
#
# Elastic Constant Matrix: (Units=GPa)
#
#
# Indices 1 2 3 4 5 6 
#
# 1 93.6905 7.9246 13.4445 0.0000 0.0000 0.0000
# 2 7.9246 21.8718 -19.4451 0.0000 0.0000 0.0000
# 3 13.4445 -19.4451 61.8401 0.0000 0.0000 0.0000
# 4 0.0000 0.0000 0.0000 11.2866 0.0000 0.0000
# 5 0.0000 0.0000 0.0000 0.0000 30.9246 0.0000
# 6 0.0000 0.0000 0.0000 0.0000 0.0000 28.6684
#
#
#
# Elastic Compliance Matrix: (Units=1/GPa)
#
#
# Indices 1 2 3 4 5 6 
#
# 1 0.012286 -0.009475 -0.005650 0.000000 0.000000 0.000000
# 2 -0.009475 0.070769 0.024313 0.000000 0.000000 0.000000
# 3 -0.005650 0.024313 0.025044 0.000000 0.000000 0.000000
# 4 0.000000 0.000000 0.000000 0.088601 0.000000 0.000000
# 5 0.000000 0.000000 0.000000 0.000000 0.032337 0.000000
# 6 0.000000 0.000000 0.000000 0.000000 0.000000 0.034882
#
#
# Mechanical properties :
#
#
# Convention : Reuss Voigt Hill
#
# Bulk Modulus (GPa) = 7.90677 20.13893 14.02285
# Shear Modulus (GPa) = 17.37921 25.87449 21.62685
#
# Velocity S-wave (km/s) = 2.78859 3.40255 3.11075
# Velocity P-wave (km/s) = 3.72909 4.94444 4.37914
#
# Compressibility (1/GPa) = 0.12647389
#
# Stress axis : x y z
#
# Youngs Moduli (GPa) = 81.39586 14.13052 39.92963
#
# Poissons Ratio (x) = 0.13388 0.22561
# Poissons Ratio (y) = 0.77120 -0.97079
# Poissons Ratio (z) = 0.45991 -0.34355
#
# Static dielectric constant tensor:
#      x y z
#    x 1.800770 0.000000 0.000000 
#    y 0.000000 1.816710 0.000000 
#    z 0.000000 0.000000 1.890420 
# 
# From -- ./inp_files/8191.got.cif
#   From: 2010.05.17/outbox.cif.g08.bks.cpg/sg61_5_cif.got.tgz:8191.got - 2010.06.03 15:17:17.
