data_PCOD9459647
_publ_section_title
;
Structure prediction by ZEFSAII (Michael W. Deem and Ramdas Pophale) SiO2 
 PCOD9459647
Probable space group: P B C A
;
_chemical_formula_sum "Si O2"
_cell_formula_units_Z 56
_cell_length_a 13.889996
_cell_length_b 8.246172
_cell_length_c 18.234766
_cell_angle_alpha 90.000000
_cell_angle_beta 90.000000
_cell_angle_gamma 90.000000
_cell_volume 2088.597262
_symmetry_space_group_name_H-M "P B C A"
_symmetry_group_IT_number 61
_symmetry_cell_setting 'orthorhombic'
loop_
_space_group_symop_operation_xyz
x,y,z
1/2-x,-y,1/2+z
1/2+x,1/2-y,-z
-x,1/2+y,1/2-z
-x,-y,-z
1/2+x,y,1/2-z
1/2-x,1/2+y,z
x,1/2-y,1/2+z
loop_
_atom_site_type_symbol
_atom_site_label
_atom_site_fract_x
_atom_site_fract_y
_atom_site_fract_z
Si Si1 0.561576 0.750435 0.652853
Si Si2 0.726634 0.451410 0.321044
Si Si3 0.097437 0.761782 0.185812
Si Si4 0.711191 0.196855 0.667938
Si Si5 0.945087 0.598094 0.100161
Si Si6 0.146736 0.543862 0.459756
Si Si7 0.674393 0.285793 0.471169
O O1 0.537518 0.774657 0.739094
O O2 0.677157 0.736066 0.663279
O O3 0.523477 0.578080 0.625700
O O4 0.557393 0.872703 0.583240
O O5 0.842944 0.429233 0.315843
O O6 0.683265 0.630633 0.322217
O O7 0.687449 0.375857 0.246158
O O8 0.687240 0.356899 0.391194
O O9 0.026759 0.729978 0.118010
O O10 0.645108 0.349934 0.650755
O O11 0.688375 0.066592 0.605833
O O12 0.902654 0.612550 0.019016
O O13 0.145313 0.402711 0.521616
O O14 0.221338 0.677945 0.490219
#
# Coordination Sequence:
#
# PCOD9459647 Si02
#       7
#     8   8   8   8   8   8   8
#     4  11  20  39  68 103 131 175 223 292 342 408
#     4  11  25  45  65 100 145 191 224 285 365 418
#     4  11  27  42  71 102 137 183 233 297 347 412
#     4  10  20  39  67  99 132 176 232 279 346 411
#     4  11  24  42  71 103 135 175 242 293 339 414
#     4  11  18  36  66  99 123 184 232 270 327 428
#     4  11  22  39  68  98 141 182 234 282 346 419
#
# _framework density 26.812252000000001
#
# number of rings (size 3 to 8) (size 9 to 14) (size 15 to 20)
#    0.000    1.143    5.714    0.857    8.000    0.571 
#    0.000    2.857    0.000    5.143    0.000    0.000 
#    0.000    0.000    0.000    0.000    0.000    0.000 
#
# Total GULP energy -313484.179991 kJ/mol
# GULP energy per Si atom -5597.931786 kJ/mol
# Density = 2.675123 g / cm^3
# Si number density = 26.812252 Si / 1000 Ang^3
#
#
#
# Elastic Constant Matrix: (Units=GPa)
#
#
# Indices 1 2 3 4 5 6 
#
# 1 87.1023 10.6004 27.3206 0.0000 0.0000 0.0000
# 2 10.6004 81.4870 15.1047 0.0000 0.0000 0.0000
# 3 27.3206 15.1047 131.8151 0.0000 0.0000 0.0000
# 4 0.0000 0.0000 0.0000 8.9970 0.0000 0.0000
# 5 0.0000 0.0000 0.0000 0.0000 27.2168 0.0000
# 6 0.0000 0.0000 0.0000 0.0000 0.0000 21.1896
#
#
#
# Elastic Compliance Matrix: (Units=1/GPa)
#
#
# Indices 1 2 3 4 5 6 
#
# 1 0.012385 -0.001160 -0.002434 0.000000 0.000000 0.000000
# 2 -0.001160 0.012647 -0.001209 0.000000 0.000000 0.000000
# 3 -0.002434 -0.001209 0.008229 0.000000 0.000000 0.000000
# 4 0.000000 0.000000 0.000000 0.111148 0.000000 0.000000
# 5 0.000000 0.000000 0.000000 0.000000 0.036742 0.000000
# 6 0.000000 0.000000 0.000000 0.000000 0.000000 0.047193
#
#
# Mechanical properties :
#
#
# Convention : Reuss Voigt Hill
#
# Bulk Modulus (GPa) = 42.27277 45.16174 43.71726
# Shear Modulus (GPa) = 20.33875 27.97259 24.15567
#
# Velocity S-wave (km/s) = 2.75719 3.23348 3.00479
# Velocity P-wave (km/s) = 5.09279 5.55165 5.32716
#
# Compressibility (1/GPa) = 0.02365589
#
# Stress axis : x y z
#
# Youngs Moduli (GPa) = 80.74011 79.07106 121.51545
#
# Poissons Ratio (x) = 0.09172 0.29578
# Poissons Ratio (y) = 0.09366 0.14689
# Poissons Ratio (z) = 0.19653 0.09558
#
# Static dielectric constant tensor:
#      x y z
#    x 2.106970 0.000000 0.000000 
#    y 0.000000 2.177320 0.000000 
#    z 0.000000 0.000000 2.161760 
# 
# From -- ./inp_files/10454.got.cif
#   From: 2010.05.17/outbox.cif.g08.bks.cpg/sg61_6_cif.got.tgz:10454.got - 2010.06.03 15:17:17.
