data_PCOD9459441
_publ_section_title
;
Structure prediction by ZEFSAII (Michael W. Deem and Ramdas Pophale) SiO2 
 PCOD9459441
Probable space group: P B C A
;
_chemical_formula_sum "Si O2"
_cell_formula_units_Z 56
_cell_length_a 23.161140
_cell_length_b 12.650687
_cell_length_c 8.297160
_cell_angle_alpha 90.000000
_cell_angle_beta 90.000000
_cell_angle_gamma 90.000000
_cell_volume 2431.103829
_symmetry_space_group_name_H-M "P B C A"
_symmetry_group_IT_number 61
_symmetry_cell_setting 'orthorhombic'
loop_
_space_group_symop_operation_xyz
x,y,z
1/2-x,-y,1/2+z
1/2+x,1/2-y,-z
-x,1/2+y,1/2-z
-x,-y,-z
1/2+x,y,1/2-z
1/2-x,1/2+y,z
x,1/2-y,1/2+z
loop_
_atom_site_type_symbol
_atom_site_label
_atom_site_fract_x
_atom_site_fract_y
_atom_site_fract_z
Si Si1 0.282601 0.588285 0.099120
Si Si2 0.089546 0.811637 0.177809
Si Si3 0.575072 0.302837 0.660454
Si Si4 0.656759 0.308931 0.398772
Si Si5 0.237607 0.891275 0.951428
Si Si6 0.491815 0.180142 0.416667
Si Si7 0.668606 0.823144 0.046887
O O1 0.321739 0.689450 0.061838
O O2 0.272419 0.582709 0.289541
O O3 0.303794 0.484200 0.009296
O O4 0.218446 0.605083 0.025601
O O5 0.045060 0.758449 0.303280
O O6 0.136375 0.865196 0.294678
O O7 0.054354 0.873375 0.037888
O O8 0.122470 0.715460 0.086198
O O9 0.619568 0.360042 0.542210
O O10 0.613408 0.213575 0.752543
O O11 0.531514 0.246588 0.538120
O O12 0.537924 0.368768 0.790508
O O13 0.717909 0.368716 0.399764
O O14 0.202174 0.785921 0.911954
#
# Coordination Sequence:
#
# PCOD9459441 Si02
#       7
#     8   8   8   8   8   8   8
#     4  11  24  36  53  83 115 149 187 225 266 330
#     4   9  16  31  54  82 110 139 180 231 270 328
#     4   9  16  31  54  82 110 139 180 231 270 328
#     4  10  20  36  56  80 116 146 182 222 276 324
#     4  11  24  36  53  83 115 149 187 225 266 330
#     4   8  16  28  52  88 106 128 190 228 272 328
#     4  10  20  36  56  80 116 146 182 222 276 324
#
# _framework density 23.034801999999999
#
# number of rings (size 3 to 8) (size 9 to 14) (size 15 to 20)
#    0.000    2.286    2.857    0.000    4.000    0.000 
#    0.000    0.000    0.000    0.000    0.000  140.000 
#    0.000    0.000    0.000    0.000    0.000    0.000 
#
# Total GULP energy -311945.253694 kJ/mol
# GULP energy per Si atom -5570.450959 kJ/mol
# Density = 2.298237 g / cm^3
# Si number density = 23.034802 Si / 1000 Ang^3
#
#
#
# Elastic Constant Matrix: (Units=GPa)
#
#
# Indices 1 2 3 4 5 6 
#
# 1 94.5416 -7.2205 47.3707 0.0000 0.0000 0.0000
# 2 -7.2205 33.8280 -0.0362 0.0000 0.0000 0.0000
# 3 47.3707 -0.0362 100.3213 0.0000 0.0000 0.0000
# 4 0.0000 0.0000 0.0000 7.3056 0.0000 0.0000
# 5 0.0000 0.0000 0.0000 0.0000 70.8197 0.0000
# 6 0.0000 0.0000 0.0000 0.0000 0.0000 -2.3683
#
#
#
# Elastic Compliance Matrix: (Units=1/GPa)
#
#
# Indices 1 2 3 4 5 6 
#
# 1 0.014156 0.003014 -0.006683 0.000000 0.000000 0.000000
# 2 0.003014 0.030203 -0.001413 0.000000 0.000000 0.000000
# 3 -0.006683 -0.001413 0.013123 0.000000 0.000000 0.000000
# 4 0.000000 0.000000 0.000000 0.136881 0.000000 0.000000
# 5 0.000000 0.000000 0.000000 0.000000 0.014120 0.000000
# 6 0.000000 0.000000 0.000000 0.000000 0.000000 -0.422245
#
#
# Mechanical properties :
#
#
# Convention : Reuss Voigt Hill
#
# Bulk Modulus (GPa) = 21.13271 34.32434 27.72852
# Shear Modulus (GPa) = -26.62064 27.72320 0.55128
#
# Velocity S-wave (km/s) = -3.40320 3.47296 0.48974
# Velocity P-wave (km/s) = 2.49964 5.56915 3.51903
#
# Compressibility (1/GPa) = 0.04732001
#
# Stress axis : x y z
#
# Youngs Moduli (GPa) = 70.63969 33.10905 76.20035
#
# Poissons Ratio (x) = -0.09981 0.50928
# Poissons Ratio (y) = -0.21294 0.10763
# Poissons Ratio (z) = 0.47211 0.04677
#
# Static dielectric constant tensor:
#      x y z
#    x 1.939470 0.000000 0.000000 
#    y 0.000000 1.803120 0.000000 
#    z 0.000000 0.000000 1.902790 
# 
# From -- ./inp_files/4369.got.cif
#   From: 2010.05.17/outbox.cif.g08.bks.cpg/sg61_3_cif.got.tgz:4369.got - 2010.06.03 15:17:17.
