data_PCOD9459550
_publ_section_title
;
Structure prediction by ZEFSAII (Michael W. Deem and Ramdas Pophale) SiO2 
 PCOD9459550
Probable space group: P B C A
;
_chemical_formula_sum "Si O2"
_cell_formula_units_Z 40
_cell_length_a 8.798347
_cell_length_b 14.106905
_cell_length_c 13.081219
_cell_angle_alpha 90.000000
_cell_angle_beta 90.000000
_cell_angle_gamma 90.000000
_cell_volume 1623.607484
_symmetry_space_group_name_H-M "P B C A"
_symmetry_group_IT_number 61
_symmetry_cell_setting 'orthorhombic'
loop_
_space_group_symop_operation_xyz
x,y,z
1/2-x,-y,1/2+z
1/2+x,1/2-y,-z
-x,1/2+y,1/2-z
-x,-y,-z
1/2+x,y,1/2-z
1/2-x,1/2+y,z
x,1/2-y,1/2+z
loop_
_atom_site_type_symbol
_atom_site_label
_atom_site_fract_x
_atom_site_fract_y
_atom_site_fract_z
Si Si1 0.041217 0.150611 0.957964
Si Si2 0.353714 0.352034 0.228421
Si Si3 0.052800 0.434303 0.763518
Si Si4 0.926596 0.742327 0.853645
Si Si5 0.695251 0.958379 0.605475
O O1 0.963122 0.192193 0.857998
O O2 0.158187 0.066725 0.927742
O O3 0.105330 0.231860 0.029977
O O4 0.904789 0.102457 0.025687
O O5 0.388534 0.462770 0.227117
O O6 0.405328 0.297724 0.330400
O O7 0.184805 0.335356 0.192141
O O8 0.106183 0.339699 0.706352
O O9 0.127435 0.434231 0.876974
O O10 0.881313 0.439573 0.717912
#
# Coordination Sequence:
#
# PCOD9459550 Si02
#       5
#     8   8   8   8   8
#     4   9  20  36  56  87 122 156 198 245 300 357
#     4  11  23  39  62  88 119 161 203 249 304 359
#     4  10  20  38  60  86 116 152 196 242 294 354
#     4  11  23  39  62  88 119 161 203 249 304 359
#     4   9  18  36  62  83 118 161 192 242 304 354
#
# _framework density 24.636493999999999
#
# number of rings (size 3 to 8) (size 9 to 14) (size 15 to 20)
#    0.000    2.000    0.000    6.000    0.000    4.800 
#    0.000    0.000    0.000   21.600    0.000    0.000 
#    0.000    0.000    0.000    0.000    0.000    0.000 
#
# Total GULP energy -223138.249181 kJ/mol
# GULP energy per Si atom -5578.456230 kJ/mol
# Density = 2.458042 g / cm^3
# Si number density = 24.636494 Si / 1000 Ang^3
#
#
#
# Elastic Constant Matrix: (Units=GPa)
#
#
# Indices 1 2 3 4 5 6 
#
# 1 39.4451 12.9136 24.9971 0.0000 0.0000 0.0000
# 2 12.9136 79.7274 12.9667 0.0000 0.0000 0.0000
# 3 24.9971 12.9667 60.8905 0.0000 0.0000 0.0000
# 4 0.0000 0.0000 0.0000 33.9461 0.0000 0.0000
# 5 0.0000 0.0000 0.0000 0.0000 38.9901 0.0000
# 6 0.0000 0.0000 0.0000 0.0000 0.0000 24.9945
#
#
#
# Elastic Compliance Matrix: (Units=1/GPa)
#
#
# Indices 1 2 3 4 5 6 
#
# 1 0.035168 -0.003468 -0.013699 0.000000 0.000000 0.000000
# 2 -0.003468 0.013335 -0.001416 0.000000 0.000000 0.000000
# 3 -0.013699 -0.001416 0.022348 0.000000 0.000000 0.000000
# 4 0.000000 0.000000 0.000000 0.029458 0.000000 0.000000
# 5 0.000000 0.000000 0.000000 0.000000 0.025648 0.000000
# 6 0.000000 0.000000 0.000000 0.000000 0.000000 0.040009
#
#
# Mechanical properties :
#
#
# Convention : Reuss Voigt Hill
#
# Bulk Modulus (GPa) = 29.68660 31.31307 30.49983
# Shear Modulus (GPa) = 23.32516 28.19851 25.76184
#
# Velocity S-wave (km/s) = 3.08031 3.38684 3.23720
# Velocity P-wave (km/s) = 4.97263 5.29451 5.13609
#
# Compressibility (1/GPa) = 0.03368524
#
# Stress axis : x y z
#
# Youngs Moduli (GPa) = 28.43459 74.99189 44.74639
#
# Poissons Ratio (x) = 0.26010 0.61298
# Poissons Ratio (y) = 0.09862 0.06335
# Poissons Ratio (z) = 0.38952 0.10618
#
# Static dielectric constant tensor:
#      x y z
#    x 2.067810 0.000000 0.000000 
#    y 0.000000 1.924000 0.000000 
#    z 0.000000 0.000000 2.054700 
# 
# From -- ./inp_files/2676.got.cif
#   From: 2010.05.17/outbox.cif.g08.bks.cpg/sg61_2_cif.got.tgz:2676.got - 2010.06.03 15:17:17.
