data_PCOD9459998
_publ_section_title
;
Structure prediction by ZEFSAII (Michael W. Deem and Ramdas Pophale) SiO2 
 PCOD9459998
Probable space group: P B C A
;
_chemical_formula_sum "Si O2"
_cell_formula_units_Z 52
_cell_length_a 13.156493
_cell_length_b 18.838554
_cell_length_c 7.722949
_cell_angle_alpha 90.000000
_cell_angle_beta 90.000000
_cell_angle_gamma 90.000000
_cell_volume 1914.127533
_symmetry_space_group_name_H-M "P B C A"
_symmetry_group_IT_number 61
_symmetry_cell_setting 'orthorhombic'
loop_
_space_group_symop_operation_xyz
x,y,z
1/2-x,-y,1/2+z
1/2+x,1/2-y,-z
-x,1/2+y,1/2-z
-x,-y,-z
1/2+x,y,1/2-z
1/2-x,1/2+y,z
x,1/2-y,1/2+z
loop_
_atom_site_type_symbol
_atom_site_label
_atom_site_fract_x
_atom_site_fract_y
_atom_site_fract_z
Si Si1 0.713690 0.426381 0.038160
Si Si2 0.361727 0.366752 0.903800
Si Si3 0.985589 0.660437 0.905191
Si Si4 0.823958 0.946330 0.447368
Si Si5 0.158331 0.731600 0.738601
Si Si6 0.500000 0.000000 0.500000
Si Si7 0.866244 0.786656 0.088705
O O1 0.712748 0.429178 0.250114
O O2 0.615975 0.470663 0.975529
O O3 0.689737 0.347120 0.977865
O O4 0.811421 0.469812 0.974350
O O5 0.253583 0.408191 0.918594
O O6 0.350386 0.309978 0.060337
O O7 0.450100 0.423731 0.929046
O O8 0.387182 0.310899 0.751477
O O9 0.936690 0.586227 0.963926
O O10 0.944450 0.670469 0.708340
O O11 0.102122 0.678656 0.874131
O O12 0.927137 0.723257 0.003891
O O13 0.275105 0.739849 0.790918
#
# Coordination Sequence:
#
# PCOD9459998 Si02
#       7
#     8   8   8   8   8   4   8
#     4  10  21  40  64  88 129 172 217 272 338 401
#     4  11  22  42  68  96 137 176 230 279 349 407
#     4  11  22  37  64  92 127 164 219 270 339 398
#     4  10  21  41  60  91 128 173 210 279 330 408
#     4  12  21  41  69  97 132 180 225 289 346 414
#     4  10  22  42  68  96 130 188 230 272 350 430
#     4  11  22  41  62  95 130 169 216 283 333 403
#
# _framework density 27.166423000000002
#
# number of rings (size 3 to 8) (size 9 to 14) (size 15 to 20)
#    0.000    1.231    4.615    3.692    0.000    1.231 
#    5.538    3.846    0.000    0.000    0.000    0.000 
#    0.000    0.000    0.000    0.000    0.000    0.000 
#
# Total GULP energy -289986.221780 kJ/mol
# GULP energy per Si atom -5576.658111 kJ/mol
# Density = 2.710459 g / cm^3
# Si number density = 27.166423 Si / 1000 Ang^3
#
#
#
# Elastic Constant Matrix: (Units=GPa)
#
#
# Indices 1 2 3 4 5 6 
#
# 1 99.1357 -3.5795 1.6683 0.0000 0.0000 0.0000
# 2 -3.5795 97.2277 6.0262 0.0000 0.0000 0.0000
# 3 1.6683 6.0262 61.3312 0.0000 0.0000 0.0000
# 4 0.0000 0.0000 0.0000 27.7651 0.0000 0.0000
# 5 0.0000 0.0000 0.0000 0.0000 22.0924 0.0000
# 6 0.0000 0.0000 0.0000 0.0000 0.0000 22.0033
#
#
#
# Elastic Compliance Matrix: (Units=1/GPa)
#
#
# Indices 1 2 3 4 5 6 
#
# 1 0.010107 0.000392 -0.000313 0.000000 0.000000 0.000000
# 2 0.000392 0.010363 -0.001029 0.000000 0.000000 0.000000
# 3 -0.000313 -0.001029 0.016415 0.000000 0.000000 0.000000
# 4 0.000000 0.000000 0.000000 0.036016 0.000000 0.000000
# 5 0.000000 0.000000 0.000000 0.000000 0.045265 0.000000
# 6 0.000000 0.000000 0.000000 0.000000 0.000000 0.045448
#
#
# Mechanical properties :
#
#
# Convention : Reuss Voigt Hill
#
# Bulk Modulus (GPa) = 28.58542 29.54717 29.06630
# Shear Modulus (GPa) = 28.22060 31.27748 29.74904
#
# Velocity S-wave (km/s) = 3.22655 3.39680 3.31277
# Velocity P-wave (km/s) = 4.94226 5.12683 5.03539
#
# Compressibility (1/GPa) = 0.03498287
#
# Stress axis : x y z
#
# Youngs Moduli (GPa) = 98.94535 96.49418 60.92165
#
# Poissons Ratio (x) = -0.03778 0.01909
# Poissons Ratio (y) = -0.03874 0.06268
# Poissons Ratio (z) = 0.03101 0.09928
#
# Static dielectric constant tensor:
#      x y z
#    x 2.091340 0.000000 0.000000 
#    y 0.000000 2.119530 0.000000 
#    z 0.000000 0.000000 2.234220 
# 
# From -- ./inp_files/2976.got.cif
#   From: 2010.05.17/outbox.cif.g08.bks.cpg/sg61_2_cif.got.tgz:2976.got - 2010.06.03 15:17:17.
