data_PCOD9459233
_publ_section_title
;
Structure prediction by ZEFSAII (Michael W. Deem and Ramdas Pophale) SiO2 
 PCOD9459233
Probable space group: P B C A
;
_chemical_formula_sum "Si O2"
_cell_formula_units_Z 56
_cell_length_a 5.347174
_cell_length_b 30.548493
_cell_length_c 15.250412
_cell_angle_alpha 90.000000
_cell_angle_beta 90.000000
_cell_angle_gamma 90.000000
_cell_volume 2491.125939
_symmetry_space_group_name_H-M "P B C A"
_symmetry_group_IT_number 61
_symmetry_cell_setting 'orthorhombic'
loop_
_space_group_symop_operation_xyz
x,y,z
1/2-x,-y,1/2+z
1/2+x,1/2-y,-z
-x,1/2+y,1/2-z
-x,-y,-z
1/2+x,y,1/2-z
1/2-x,1/2+y,z
x,1/2-y,1/2+z
loop_
_atom_site_type_symbol
_atom_site_label
_atom_site_fract_x
_atom_site_fract_y
_atom_site_fract_z
Si Si1 0.048731 0.631875 0.040246
Si Si2 0.541530 0.649538 0.262144
Si Si3 0.416777 0.469199 0.190724
Si Si4 0.387487 0.235562 0.043154
Si Si5 0.951723 0.113246 0.936428
Si Si6 0.554226 0.557089 0.199222
Si Si7 0.536572 0.802581 0.307769
O O1 0.057681 0.684482 0.034650
O O2 0.050480 0.625978 0.144432
O O3 0.795871 0.614692 0.996382
O O4 0.294612 0.613515 0.993193
O O5 0.290988 0.675947 0.251844
O O6 0.539023 0.609728 0.191327
O O7 0.645463 0.466398 0.261704
O O8 0.441884 0.428787 0.125622
O O9 0.467252 0.516023 0.140816
O O10 0.442245 0.258379 0.135572
O O11 0.096123 0.242747 0.020303
O O12 0.950713 0.156883 0.876133
O O13 0.841144 0.549515 0.225756
O O14 0.774530 0.805430 0.243429
#
# Coordination Sequence:
#
# PCOD9459233 Si02
#       7
#     8   8   8   8   8   8   8
#     4  12  24  40  65  89 125 168 206 254 322 377
#     4  10  21  39  64  90 118 157 213 259 305 364
#     4  10  19  35  60  88 119 163 203 247 303 372
#     4  12  23  44  62  84 126 175 199 250 327 374
#     4  12  23  39  60  93 130 161 204 253 320 376
#     4   8  16  32  58  82 112 153 197 246 304 353
#     4  12  24  39  63  92 120 158 215 259 293 365
#
# _framework density 22.479793999999998
#
# number of rings (size 3 to 8) (size 9 to 14) (size 15 to 20)
#    0.000    1.143    2.857    4.286    0.000    1.143 
#    0.000    0.000    0.000   46.286    0.000    0.000 
#    0.000    0.000    0.000    0.000    0.000    0.000 
#
# Total GULP energy -312415.622865 kJ/mol
# GULP energy per Si atom -5578.850408 kJ/mol
# Density = 2.242863 g / cm^3
# Si number density = 22.479794 Si / 1000 Ang^3
#
#
#
# Elastic Constant Matrix: (Units=GPa)
#
#
# Indices 1 2 3 4 5 6 
#
# 1 176.3432 -6.6805 34.2275 0.0000 0.0000 0.0000
# 2 -6.6805 39.1246 -14.1295 0.0000 0.0000 0.0000
# 3 34.2275 -14.1295 50.1131 0.0000 0.0000 0.0000
# 4 0.0000 0.0000 0.0000 8.2228 0.0000 0.0000
# 5 0.0000 0.0000 0.0000 0.0000 43.8789 0.0000
# 6 0.0000 0.0000 0.0000 0.0000 0.0000 24.4586
#
#
#
# Elastic Compliance Matrix: (Units=1/GPa)
#
#
# Indices 1 2 3 4 5 6 
#
# 1 0.006548 -0.000553 -0.004628 0.000000 0.000000 0.000000
# 2 -0.000553 0.028504 0.008415 0.000000 0.000000 0.000000
# 3 -0.004628 0.008415 0.025489 0.000000 0.000000 0.000000
# 4 0.000000 0.000000 0.000000 0.121613 0.000000 0.000000
# 5 0.000000 0.000000 0.000000 0.000000 0.022790 0.000000
# 6 0.000000 0.000000 0.000000 0.000000 0.000000 0.040885
#
#
# Mechanical properties :
#
#
# Convention : Reuss Voigt Hill
#
# Bulk Modulus (GPa) = 14.92402 32.49067 23.70735
# Shear Modulus (GPa) = 19.10597 32.12297 25.61447
#
# Velocity S-wave (km/s) = 2.91850 3.78427 3.37923
# Velocity P-wave (km/s) = 4.24383 5.79474 5.07883
#
# Compressibility (1/GPa) = 0.06700606
#
# Stress axis : x y z
#
# Youngs Moduli (GPa) = 152.71466 35.08316 39.23314
#
# Poissons Ratio (x) = 0.01942 0.18159
# Poissons Ratio (y) = 0.08452 -0.33013
# Poissons Ratio (z) = 0.70683 -0.29521
#
# Static dielectric constant tensor:
#      x y z
#    x 1.869720 0.000000 0.000000 
#    y 0.000000 1.892660 0.000000 
#    z 0.000000 0.000000 1.872690 
# 
# From -- ./inp_files/1457.got.cif
#   From: 2010.05.17/outbox.cif.g08.bks.cpg/sg61_1_cif.got.tgz:1457.got - 2010.06.03 15:17:17.
