data_PCOD9459394
_publ_section_title
;
Structure prediction by ZEFSAII (Michael W. Deem and Ramdas Pophale) SiO2 
 PCOD9459394
Probable space group: P B C A
;
_chemical_formula_sum "Si O2"
_cell_formula_units_Z 56
_cell_length_a 16.441329
_cell_length_b 18.110648
_cell_length_c 8.514466
_cell_angle_alpha 90.000000
_cell_angle_beta 90.000000
_cell_angle_gamma 90.000000
_cell_volume 2535.293980
_symmetry_space_group_name_H-M "P B C A"
_symmetry_group_IT_number 61
_symmetry_cell_setting 'orthorhombic'
loop_
_space_group_symop_operation_xyz
x,y,z
1/2-x,-y,1/2+z
1/2+x,1/2-y,-z
-x,1/2+y,1/2-z
-x,-y,-z
1/2+x,y,1/2-z
1/2-x,1/2+y,z
x,1/2-y,1/2+z
loop_
_atom_site_type_symbol
_atom_site_label
_atom_site_fract_x
_atom_site_fract_y
_atom_site_fract_z
Si Si1 0.579136 0.583031 0.143755
Si Si2 0.666370 0.145316 0.720899
Si Si3 0.455468 0.843306 0.854156
Si Si4 0.632004 0.233244 0.433719
Si Si5 0.492843 0.422388 0.191718
Si Si6 0.224280 0.984693 0.700183
Si Si7 0.372358 0.995910 0.883312
O O1 0.541103 0.637869 0.272970
O O2 0.533890 0.503567 0.167997
O O3 0.672714 0.568295 0.184854
O O4 0.555420 0.601711 0.965103
O O5 0.681186 0.184222 0.555853
O O6 0.685633 0.202178 0.858324
O O7 0.568758 0.130542 0.720935
O O8 0.708826 0.068303 0.744073
O O9 0.401565 0.816900 0.705547
O O10 0.421146 0.920876 0.922374
O O11 0.440772 0.777295 0.976623
O O12 0.431220 0.437589 0.333779
O O13 0.185139 0.982144 0.527900
O O14 0.319343 0.974579 0.729184
#
# Coordination Sequence:
#
# PCOD9459394 Si02
#       7
#     8   8   8   8   8   8   8
#     4   9  18  33  56  82 110 137 175 229 275 319
#     4  10  20  36  59  86 110 142 188 227 283 328
#     4  10  20  36  59  86 110 142 188 227 283 328
#     4  10  20  34  58  84 112 146 184 230 264 346
#     4   9  18  33  56  82 110 137 175 229 275 319
#     4  11  23  36  57  83 113 147 187 237 283 330
#     4  11  23  36  57  83 113 147 187 237 283 330
#
# _framework density 22.088166999999999
#
# number of rings (size 3 to 8) (size 9 to 14) (size 15 to 20)
#    0.000    2.000    2.857    0.857    6.000    1.714 
#    0.000    0.000    0.000   10.286    0.000    0.000 
#    0.000    0.000    0.000    0.000    0.000    0.000 
#
# Total GULP energy -312756.461562 kJ/mol
# GULP energy per Si atom -5584.936814 kJ/mol
# Density = 2.203789 g / cm^3
# Si number density = 22.088167 Si / 1000 Ang^3
#
#
#
# Elastic Constant Matrix: (Units=GPa)
#
#
# Indices 1 2 3 4 5 6 
#
# 1 40.0970 0.8428 3.6411 0.0000 0.0000 0.0000
# 2 0.8428 41.1746 18.2980 0.0000 0.0000 0.0000
# 3 3.6411 18.2980 97.5344 0.0000 0.0000 0.0000
# 4 0.0000 0.0000 0.0000 35.8503 0.0000 0.0000
# 5 0.0000 0.0000 0.0000 0.0000 28.7062 0.0000
# 6 0.0000 0.0000 0.0000 0.0000 0.0000 10.7364
#
#
#
# Elastic Compliance Matrix: (Units=1/GPa)
#
#
# Indices 1 2 3 4 5 6 
#
# 1 0.025025 -0.000106 -0.000914 0.000000 0.000000 0.000000
# 2 -0.000106 0.026496 -0.004967 0.000000 0.000000 0.000000
# 3 -0.000914 -0.004967 0.011219 0.000000 0.000000 0.000000
# 4 0.000000 0.000000 0.000000 0.027894 0.000000 0.000000
# 5 0.000000 0.000000 0.000000 0.000000 0.034836 0.000000
# 6 0.000000 0.000000 0.000000 0.000000 0.000000 0.093141
#
#
# Mechanical properties :
#
#
# Convention : Reuss Voigt Hill
#
# Bulk Modulus (GPa) = 19.69840 24.92996 22.31418
# Shear Modulus (GPa) = 20.20150 25.46019 22.83084
#
# Velocity S-wave (km/s) = 3.02749 3.39877 3.21849
# Velocity P-wave (km/s) = 4.59982 5.16849 4.89242
#
# Compressibility (1/GPa) = 0.05076553
#
# Stress axis : x y z
#
# Youngs Moduli (GPa) = 39.96040 37.74113 89.13651
#
# Poissons Ratio (x) = 0.00400 0.08150
# Poissons Ratio (y) = 0.00423 0.44273
# Poissons Ratio (z) = 0.03654 0.18746
#
# Static dielectric constant tensor:
#      x y z
#    x 1.813790 0.000000 0.000000 
#    y 0.000000 1.810080 0.000000 
#    z 0.000000 0.000000 1.882930 
# 
# From -- ./inp_files/3657.got.cif
#   From: 2010.05.17/outbox.cif.g08.bks.cpg/sg61_2_cif.got.tgz:3657.got - 2010.06.03 15:17:17.
