data_PCOD9459370
_publ_section_title
;
Structure prediction by ZEFSAII (Michael W. Deem and Ramdas Pophale) SiO2 
 PCOD9459370
Probable space group: P B C A
;
_chemical_formula_sum "Si O2"
_cell_formula_units_Z 64
_cell_length_a 9.146580
_cell_length_b 30.749703
_cell_length_c 11.045097
_cell_angle_alpha 90.000000
_cell_angle_beta 90.000000
_cell_angle_gamma 90.000000
_cell_volume 3106.484543
_symmetry_space_group_name_H-M "P B C A"
_symmetry_group_IT_number 61
_symmetry_cell_setting 'orthorhombic'
loop_
_space_group_symop_operation_xyz
x,y,z
1/2-x,-y,1/2+z
1/2+x,1/2-y,-z
-x,1/2+y,1/2-z
-x,-y,-z
1/2+x,y,1/2-z
1/2-x,1/2+y,z
x,1/2-y,1/2+z
loop_
_atom_site_type_symbol
_atom_site_label
_atom_site_fract_x
_atom_site_fract_y
_atom_site_fract_z
Si Si1 0.902946 0.010099 0.177171
Si Si2 0.969283 0.125814 0.352601
Si Si3 0.367614 0.629759 0.101732
Si Si4 0.376516 0.566494 0.545882
Si Si5 0.013147 0.730166 0.127218
Si Si6 0.404056 0.491710 0.367228
Si Si7 0.559791 0.929759 0.452556
Si Si8 0.645389 0.266075 0.885648
O O1 0.743705 0.992951 0.207393
O O2 0.985319 0.022980 0.297451
O O3 0.903098 0.048644 0.082652
O O4 0.986447 0.969028 0.119854
O O5 0.798378 0.113748 0.372894
O O6 0.981869 0.177645 0.374910
O O7 0.032169 0.119700 0.218217
O O8 0.072427 0.100501 0.446038
O O9 0.444196 0.607662 0.985185
O O10 0.362594 0.681857 0.093024
O O11 0.361196 0.517101 0.489828
O O12 0.519624 0.555056 0.624920
O O13 0.220980 0.581577 0.597202
O O14 0.182447 0.745843 0.124616
O O15 0.934864 0.742845 0.255624
O O16 0.929635 0.745256 0.004953
#
# Coordination Sequence:
#
# PCOD9459370 Si02
#       8
#     8   8   8   8   8   8   8   8
#     4  10  20  33  49  70  99 134 172 214 260 310
#     4  10  20  34  54  80 108 138 175 219 266 317
#     4  10  20  34  54  80 108 138 175 219 266 317
#     4  10  20  33  51  74 100 133 172 214 260 309
#     4  10  21  38  61  88 118 151 187 230 281 337
#     4  10  20  33  49  70  99 134 172 214 260 310
#     4  10  20  33  51  74 100 133 172 214 260 309
#     4  10  21  38  61  88 118 151 187 230 281 337
#
# _framework density 20.602067000000002
#
# number of rings (size 3 to 8) (size 9 to 14) (size 15 to 20)
#    0.000    2.000    0.000    3.750    0.000    8.000 
#    0.000    1.250    0.000    6.000    0.000    0.000 
#    0.000    0.000    0.000    0.000    0.000    0.000 
#
# Total GULP energy -356639.616718 kJ/mol
# GULP energy per Si atom -5572.494011 kJ/mol
# Density = 2.055518 g / cm^3
# Si number density = 20.602067 Si / 1000 Ang^3
#
#
#
# Elastic Constant Matrix: (Units=GPa)
#
#
# Indices 1 2 3 4 5 6 
#
# 1 156.2290 26.5703 32.2978 0.0000 0.0000 0.0000
# 2 26.5703 39.0258 16.1624 0.0000 0.0000 0.0000
# 3 32.2978 16.1624 68.7236 0.0000 0.0000 0.0000
# 4 0.0000 0.0000 0.0000 36.0475 0.0000 0.0000
# 5 0.0000 0.0000 0.0000 0.0000 29.0349 0.0000
# 6 0.0000 0.0000 0.0000 0.0000 0.0000 26.8740
#
#
#
# Elastic Compliance Matrix: (Units=1/GPa)
#
#
# Indices 1 2 3 4 5 6 
#
# 1 0.007644 -0.004117 -0.002624 0.000000 0.000000 0.000000
# 2 -0.004117 0.030607 -0.005263 0.000000 0.000000 0.000000
# 3 -0.002624 -0.005263 0.017022 0.000000 0.000000 0.000000
# 4 0.000000 0.000000 0.000000 0.027741 0.000000 0.000000
# 5 0.000000 0.000000 0.000000 0.000000 0.034441 0.000000
# 6 0.000000 0.000000 0.000000 0.000000 0.000000 0.037211
#
#
# Mechanical properties :
#
#
# Convention : Reuss Voigt Hill
#
# Bulk Modulus (GPa) = 31.98590 46.00438 38.99514
# Shear Modulus (GPa) = 26.44163 30.98781 28.71472
#
# Velocity S-wave (km/s) = 3.58641 3.88250 3.73738
# Velocity P-wave (km/s) = 5.71918 6.51742 6.13131
#
# Compressibility (1/GPa) = 0.03126377
#
# Stress axis : x y z
#
# Youngs Moduli (GPa) = 130.82922 32.67222 58.74763
#
# Poissons Ratio (x) = 0.13452 0.15415
# Poissons Ratio (y) = 0.53867 0.30920
# Poissons Ratio (z) = 0.34328 0.17196
#
# Static dielectric constant tensor:
#      x y z
#    x 1.837580 0.000000 0.000000 
#    y 0.000000 1.730360 0.000000 
#    z 0.000000 0.000000 1.821210 
# 
# From -- ./inp_files/4973.got.cif
#   From: 2010.05.17/outbox.cif.g08.bks.cpg/sg61_3_cif.got.tgz:4973.got - 2010.06.03 15:17:17.
