data_PCOD9459787
_publ_section_title
;
Structure prediction by ZEFSAII (Michael W. Deem and Ramdas Pophale) SiO2 
 PCOD9459787
Probable space group: P B C A
;
_chemical_formula_sum "Si O2"
_cell_formula_units_Z 56
_cell_length_a 14.584321
_cell_length_b 32.281879
_cell_length_c 4.975004
_cell_angle_alpha 90.000000
_cell_angle_beta 90.000000
_cell_angle_gamma 90.000000
_cell_volume 2342.278080
_symmetry_space_group_name_H-M "P B C A"
_symmetry_group_IT_number 61
_symmetry_cell_setting 'orthorhombic'
loop_
_space_group_symop_operation_xyz
x,y,z
1/2-x,-y,1/2+z
1/2+x,1/2-y,-z
-x,1/2+y,1/2-z
-x,-y,-z
1/2+x,y,1/2-z
1/2-x,1/2+y,z
x,1/2-y,1/2+z
loop_
_atom_site_type_symbol
_atom_site_label
_atom_site_fract_x
_atom_site_fract_y
_atom_site_fract_z
Si Si1 0.743382 0.552598 0.007459
Si Si2 0.318649 0.726656 0.850606
Si Si3 0.860059 0.315494 0.146658
Si Si4 0.939307 0.656492 0.906972
Si Si5 0.664727 0.867596 0.656850
Si Si6 0.470528 0.898873 0.610690
Si Si7 0.851972 0.973279 0.003508
O O1 0.728356 0.601141 0.993528
O O2 0.656756 0.522336 0.953139
O O3 0.771061 0.544534 0.314682
O O4 0.823398 0.537852 0.807058
O O5 0.348254 0.763987 0.653454
O O6 0.208316 0.722968 0.857371
O O7 0.361621 0.686133 0.713698
O O8 0.860169 0.331355 0.451500
O O9 0.966669 0.316228 0.057578
O O10 0.810650 0.347573 0.939784
O O11 0.961665 0.622031 0.681052
O O12 0.918152 0.631275 0.178914
O O13 0.574515 0.895157 0.708077
O O14 0.436867 0.945890 0.590294
#
# Coordination Sequence:
#
# PCOD9459787 Si02
#       7
#     8   8   8   8   8   8   8
#     4  10  21  35  54  86 122 159 203 251 303 352
#     4  12  26  42  64  94 120 156 200 236 308 378
#     4  10  23  41  62  91 122 155 201 251 297 357
#     4  10  23  41  62  91 122 155 201 251 297 357
#     4  10  21  38  60  87 117 159 205 245 299 353
#     4  10  21  38  60  87 117 159 205 245 299 353
#     4  10  21  35  54  86 122 159 203 251 303 352
#
# _framework density 23.908346000000002
#
# number of rings (size 3 to 8) (size 9 to 14) (size 15 to 20)
#    0.000    1.714    0.000    3.429    6.000    1.714 
#    0.000    0.000    0.000   10.286    0.000    0.000 
#    0.000    0.000    0.000    0.000    0.000    0.000 
#
# Total GULP energy -312625.931265 kJ/mol
# GULP energy per Si atom -5582.605915 kJ/mol
# Density = 2.385393 g / cm^3
# Si number density = 23.908346 Si / 1000 Ang^3
#
#
#
# Elastic Constant Matrix: (Units=GPa)
#
#
# Indices 1 2 3 4 5 6 
#
# 1 39.9388 0.0699 -2.8051 0.0000 0.0000 0.0000
# 2 0.0699 28.2250 12.5613 0.0000 0.0000 0.0000
# 3 -2.8051 12.5613 103.4685 0.0000 0.0000 0.0000
# 4 0.0000 0.0000 0.0000 31.3343 0.0000 0.0000
# 5 0.0000 0.0000 0.0000 0.0000 22.3060 0.0000
# 6 0.0000 0.0000 0.0000 0.0000 0.0000 23.4295
#
#
#
# Elastic Compliance Matrix: (Units=1/GPa)
#
#
# Indices 1 2 3 4 5 6 
#
# 1 0.025090 -0.000386 0.000727 0.000000 0.000000 0.000000
# 2 -0.000386 0.037459 -0.004558 0.000000 0.000000 0.000000
# 3 0.000727 -0.004558 0.010238 0.000000 0.000000 0.000000
# 4 0.000000 0.000000 0.000000 0.031914 0.000000 0.000000
# 5 0.000000 0.000000 0.000000 0.000000 0.044831 0.000000
# 6 0.000000 0.000000 0.000000 0.000000 0.000000 0.042681
#
#
# Mechanical properties :
#
#
# Convention : Reuss Voigt Hill
#
# Bulk Modulus (GPa) = 15.53916 21.25384 18.39650
# Shear Modulus (GPa) = 22.51258 26.20101 24.35680
#
# Velocity S-wave (km/s) = 3.07191 3.31402 3.19526
# Velocity P-wave (km/s) = 4.36987 4.85311 4.61781
#
# Compressibility (1/GPa) = 0.06435355
#
# Stress axis : x y z
#
# Youngs Moduli (GPa) = 39.85642 26.69575 97.67680
#
# Poissons Ratio (x) = 0.01030 -0.07101
# Poissons Ratio (y) = 0.01537 0.44522
# Poissons Ratio (z) = -0.02898 0.12168
#
# Static dielectric constant tensor:
#      x y z
#    x 2.011360 0.000000 0.000000 
#    y 0.000000 1.953680 0.000000 
#    z 0.000000 0.000000 1.834690 
# 
# From -- ./inp_files/622.got.cif
#   From: 2010.05.17/outbox.cif.g08.bks.cpg/sg61_1_cif.got.tgz:622.got - 2010.06.03 15:17:17.
