data_PCOD9459731
_publ_section_title
;
Structure prediction by ZEFSAII (Michael W. Deem and Ramdas Pophale) SiO2 
 PCOD9459731
Probable space group: P B C A
;
_chemical_formula_sum "Si O2"
_cell_formula_units_Z 56
_cell_length_a 29.945041
_cell_length_b 5.670754
_cell_length_c 12.321467
_cell_angle_alpha 90.000000
_cell_angle_beta 90.000000
_cell_angle_gamma 90.000000
_cell_volume 2092.320153
_symmetry_space_group_name_H-M "P B C A"
_symmetry_group_IT_number 61
_symmetry_cell_setting 'orthorhombic'
loop_
_space_group_symop_operation_xyz
x,y,z
1/2-x,-y,1/2+z
1/2+x,1/2-y,-z
-x,1/2+y,1/2-z
-x,-y,-z
1/2+x,y,1/2-z
1/2-x,1/2+y,z
x,1/2-y,1/2+z
loop_
_atom_site_type_symbol
_atom_site_label
_atom_site_fract_x
_atom_site_fract_y
_atom_site_fract_z
Si Si1 0.106866 0.052227 0.995140
Si Si2 0.366164 0.551773 0.385802
Si Si3 0.870621 0.349469 0.872927
Si Si4 0.437342 0.245999 0.804953
Si Si5 0.273126 0.406931 0.642909
Si Si6 0.727658 0.879759 0.121233
Si Si7 0.985060 0.750296 0.943286
O O1 0.140920 0.177397 0.913136
O O2 0.067686 0.207919 0.049592
O O3 0.132843 0.924576 0.090995
O O4 0.081106 0.883506 0.910421
O O5 0.373218 0.462704 0.508691
O O6 0.411257 0.502785 0.319208
O O7 0.323034 0.427828 0.340202
O O8 0.915380 0.360390 0.800980
O O9 0.824901 0.441514 0.823538
O O10 0.490017 0.239528 0.826224
O O11 0.245853 0.645326 0.670387
O O12 0.274474 0.393403 0.510674
O O13 0.744065 0.615948 0.148106
O O14 0.000000 0.500000 0.000000
O O15 0.000000 0.000000 0.000000
#
# Coordination Sequence:
#
# PCOD9459731 Si02
#       7
#     8   8   8   8   8   8   8
#     4  10  22  40  65  92 126 169 213 268 320 393
#     4  10  21  38  63  88 125 165 212 260 320 384
#     4  10  23  39  62  96 125 165 222 269 317 390
#     4  10  22  42  63  92 127 171 208 265 328 382
#     4   9  19  36  58  86 124 169 208 263 325 383
#     4   9  19  32  57  87 120 161 209 259 315 377
#     4  10  20  42  66  91 127 169 208 254 326 385
#
# _framework density 26.764548000000001
#
# number of rings (size 3 to 8) (size 9 to 14) (size 15 to 20)
#    0.000    2.286    1.429    0.000   12.000    1.143 
#    2.571    1.429    0.000    0.000    0.000    0.000 
#    0.000    0.000    0.000    0.000    0.000    0.000 
#
# Total GULP energy -312525.557241 kJ/mol
# GULP energy per Si atom -5580.813522 kJ/mol
# Density = 2.670363 g / cm^3
# Si number density = 26.764548 Si / 1000 Ang^3
#
#
#
# Elastic Constant Matrix: (Units=GPa)
#
#
# Indices 1 2 3 4 5 6 
#
# 1 59.6734 33.7518 2.8445 0.0000 0.0000 0.0000
# 2 33.7518 107.1450 17.2092 0.0000 0.0000 0.0000
# 3 2.8445 17.2092 50.5372 0.0000 0.0000 0.0000
# 4 0.0000 0.0000 0.0000 51.1221 0.0000 0.0000
# 5 0.0000 0.0000 0.0000 0.0000 29.4913 0.0000
# 6 0.0000 0.0000 0.0000 0.0000 0.0000 27.7738
#
#
#
# Elastic Compliance Matrix: (Units=1/GPa)
#
#
# Indices 1 2 3 4 5 6 
#
# 1 0.020449 -0.006619 0.001103 0.000000 0.000000 0.000000
# 2 -0.006619 0.012015 -0.003719 0.000000 0.000000 0.000000
# 3 0.001103 -0.003719 0.020992 0.000000 0.000000 0.000000
# 4 0.000000 0.000000 0.000000 0.019561 0.000000 0.000000
# 5 0.000000 0.000000 0.000000 0.000000 0.033908 0.000000
# 6 0.000000 0.000000 0.000000 0.000000 0.000000 0.036005
#
#
# Mechanical properties :
#
#
# Convention : Reuss Voigt Hill
#
# Bulk Modulus (GPa) = 28.58258 36.10740 32.34499
# Shear Modulus (GPa) = 28.89127 32.58077 30.73602
#
# Velocity S-wave (km/s) = 3.28908 3.49278 3.39246
# Velocity P-wave (km/s) = 5.01263 5.45766 5.23988
#
# Compressibility (1/GPa) = 0.03498635
#
# Stress axis : x y z
#
# Youngs Moduli (GPa) = 48.90228 83.22602 47.63771
#
# Poissons Ratio (x) = 0.55086 -0.05254
# Poissons Ratio (y) = 0.32367 0.17717
# Poissons Ratio (z) = -0.05393 0.30952
#
# Static dielectric constant tensor:
#      x y z
#    x 3.455750 0.000000 0.000000 
#    y 0.000000 -1.753820 0.000000 
#    z 0.000000 0.000000 2.352390 
# 
# From -- ./inp_files/8666.got.cif
#   From: 2010.05.17/outbox.cif.g08.bks.cpg/sg61_5_cif.got.tgz:8666.got - 2010.06.03 15:17:17.
