data_PCOD9459725
_publ_section_title
;
Structure prediction by ZEFSAII (Michael W. Deem and Ramdas Pophale) SiO2 
 PCOD9459725
Probable space group: P B C A
;
_chemical_formula_sum "Si O2"
_cell_formula_units_Z 64
_cell_length_a 9.386051
_cell_length_b 20.794225
_cell_length_c 14.650730
_cell_angle_alpha 90.000000
_cell_angle_beta 90.000000
_cell_angle_gamma 90.000000
_cell_volume 2859.465844
_symmetry_space_group_name_H-M "P B C A"
_symmetry_group_IT_number 61
_symmetry_cell_setting 'orthorhombic'
loop_
_space_group_symop_operation_xyz
x,y,z
1/2-x,-y,1/2+z
1/2+x,1/2-y,-z
-x,1/2+y,1/2-z
-x,-y,-z
1/2+x,y,1/2-z
1/2-x,1/2+y,z
x,1/2-y,1/2+z
loop_
_atom_site_type_symbol
_atom_site_label
_atom_site_fract_x
_atom_site_fract_y
_atom_site_fract_z
Si Si1 0.729879 0.620825 0.332281
Si Si2 0.604817 0.555934 0.677051
Si Si3 0.092889 0.634214 0.991136
Si Si4 0.061472 0.259624 0.438307
Si Si5 0.316558 0.939445 0.951176
Si Si6 0.228063 0.026760 0.656883
Si Si7 0.984860 0.802942 0.749444
Si Si8 0.149783 0.693045 0.433061
O O1 0.724857 0.632144 0.440544
O O2 0.763897 0.546929 0.319657
O O3 0.573168 0.638933 0.296647
O O4 0.835209 0.669183 0.282406
O O5 0.626675 0.617124 0.611816
O O6 0.679550 0.496401 0.622520
O O7 0.671741 0.566513 0.775747
O O8 0.436724 0.540855 0.680906
O O9 0.006487 0.698604 0.008433
O O10 0.980848 0.579231 0.025747
O O11 0.031120 0.249518 0.330498
O O12 0.228451 0.246438 0.452721
O O13 0.966600 0.314120 0.486029
O O14 0.254097 0.960811 0.049253
O O15 0.232346 0.875163 0.920021
O O16 0.069685 0.786508 0.840865
#
# Coordination Sequence:
#
# PCOD9459725 Si02
#       8
#     8   8   8   8   8   8   8   8
#     4  11  19  36  62  95 123 167 207 266 311 376
#     4  11  20  39  61  93 132 176 216 265 330 396
#     4   9  19  38  63  85 127 175 214 262 321 390
#     4  10  24  42  66  95 122 169 228 271 335 381
#     4  10  20  42  62  95 133 173 218 264 334 392
#     4  11  21  35  64  94 133 179 212 264 331 396
#     4  11  23  39  65  96 126 157 220 271 318 378
#     4  11  24  44  67  92 127 171 215 278 324 395
#
# _framework density 22.381803000000001
#
# number of rings (size 3 to 8) (size 9 to 14) (size 15 to 20)
#    0.000    1.500    3.750    2.250    5.250    0.000 
#    4.500    1.250    0.000    0.000    0.000    0.000 
#    0.000    0.000    0.000    0.000    0.000    0.000 
#
# Total GULP energy -357600.222147 kJ/mol
# GULP energy per Si atom -5587.503471 kJ/mol
# Density = 2.233086 g / cm^3
# Si number density = 22.381803 Si / 1000 Ang^3
#
#
#
# Elastic Constant Matrix: (Units=GPa)
#
#
# Indices 1 2 3 4 5 6 
#
# 1 77.2783 3.5384 41.9678 0.0000 0.0000 0.0000
# 2 3.5384 32.3171 8.3117 0.0000 0.0000 0.0000
# 3 41.9678 8.3117 108.1102 0.0000 0.0000 0.0000
# 4 0.0000 0.0000 0.0000 30.5935 0.0000 0.0000
# 5 0.0000 0.0000 0.0000 0.0000 43.6703 0.0000
# 6 0.0000 0.0000 0.0000 0.0000 0.0000 15.9050
#
#
#
# Elastic Compliance Matrix: (Units=1/GPa)
#
#
# Indices 1 2 3 4 5 6 
#
# 1 0.016398 -0.000161 -0.006353 0.000000 0.000000 0.000000
# 2 -0.000161 0.031569 -0.002364 0.000000 0.000000 0.000000
# 3 -0.006353 -0.002364 0.011898 0.000000 0.000000 0.000000
# 4 0.000000 0.000000 0.000000 0.032687 0.000000 0.000000
# 5 0.000000 0.000000 0.000000 0.000000 0.022899 0.000000
# 6 0.000000 0.000000 0.000000 0.000000 0.000000 0.062874
#
#
# Mechanical properties :
#
#
# Convention : Reuss Voigt Hill
#
# Bulk Modulus (GPa) = 23.74910 36.14904 29.94907
# Shear Modulus (GPa) = 23.79622 28.95960 26.37791
#
# Velocity S-wave (km/s) = 3.26420 3.60097 3.43672
# Velocity P-wave (km/s) = 4.98404 5.78580 5.39982
#
# Compressibility (1/GPa) = 0.04210685
#
# Stress axis : x y z
#
# Youngs Moduli (GPa) = 60.98356 31.67654 84.04876
#
# Poissons Ratio (x) = 0.00511 0.53397
# Poissons Ratio (y) = 0.00984 0.19873
# Poissons Ratio (z) = 0.38744 0.07490
#
# Static dielectric constant tensor:
#      x y z
#    x 1.842150 0.000000 0.000000 
#    y 0.000000 1.856540 0.000000 
#    z 0.000000 0.000000 1.867990 
# 
# From -- ./inp_files/7258.got.cif
#   From: 2010.05.17/outbox.cif.g08.bks.cpg/sg61_4_cif.got.tgz:7258.got - 2010.06.03 15:17:17.
