data_PCOD9459361
_publ_section_title
;
Structure prediction by ZEFSAII (Michael W. Deem and Ramdas Pophale) SiO2 
 PCOD9459361
Probable space group: P B C A
;
_chemical_formula_sum "Si O2"
_cell_formula_units_Z 48
_cell_length_a 15.814917
_cell_length_b 13.143341
_cell_length_c 9.989401
_cell_angle_alpha 90.000000
_cell_angle_beta 90.000000
_cell_angle_gamma 90.000000
_cell_volume 2076.405353
_symmetry_space_group_name_H-M "P B C A"
_symmetry_group_IT_number 61
_symmetry_cell_setting 'orthorhombic'
loop_
_space_group_symop_operation_xyz
x,y,z
1/2-x,-y,1/2+z
1/2+x,1/2-y,-z
-x,1/2+y,1/2-z
-x,-y,-z
1/2+x,y,1/2-z
1/2-x,1/2+y,z
x,1/2-y,1/2+z
loop_
_atom_site_type_symbol
_atom_site_label
_atom_site_fract_x
_atom_site_fract_y
_atom_site_fract_z
Si Si1 0.837877 0.478837 0.820972
Si Si2 0.464487 0.608371 0.552792
Si Si3 0.982298 0.187244 0.297514
Si Si4 0.571206 0.066342 0.422544
Si Si5 0.265432 0.580396 0.914978
Si Si6 0.115931 0.630856 0.747638
O O1 0.882871 0.586416 0.857505
O O2 0.913944 0.403300 0.791634
O O3 0.783276 0.487815 0.687477
O O4 0.789045 0.447043 0.954488
O O5 0.500000 0.500000 0.500000
O O6 0.452838 0.672209 0.419505
O O7 0.542900 0.642859 0.641142
O O8 0.920961 0.280072 0.343709
O O9 0.034999 0.160744 0.163089
O O10 0.642618 0.105019 0.525435
O O11 0.500000 0.000000 0.500000
O O12 0.610087 0.979482 0.321829
O O13 0.205467 0.649357 0.819901
#
# Coordination Sequence:
#
# PCOD9459361 Si02
#       6
#     8   8   8   8   8   8
#     4  11  22  43  70 101 141 193 235 298 369 427
#     4  10  19  43  69  92 137 188 233 285 363 423
#     4  11  24  42  72 101 138 192 245 291 356 443
#     4  12  24  43  72 103 143 190 240 295 364 437
#     4  12  23  41  73 103 141 184 240 300 370 431
#     4  12  24  43  74 106 137 191 246 299 365 440
#
# _framework density 23.116875
#
# number of rings (size 3 to 8) (size 9 to 14) (size 15 to 20)
#    0.000    0.667   10.000    0.000    2.333    0.000 
#    0.000    5.000    0.000    0.000    0.000    0.000 
#    0.000    0.000    0.000    0.000    0.000    0.000 
#
# Total GULP energy -267393.897474 kJ/mol
# GULP energy per Si atom -5570.706197 kJ/mol
# Density = 2.306426 g / cm^3
# Si number density = 23.116875 Si / 1000 Ang^3
#
#
#
# Elastic Constant Matrix: (Units=GPa)
#
#
# Indices 1 2 3 4 5 6 
#
# 1 88.3683 5.9392 9.0199 0.0000 0.0000 0.0000
# 2 5.9392 47.2174 -7.3749 0.0000 0.0000 0.0000
# 3 9.0199 -7.3749 71.8795 0.0000 0.0000 0.0000
# 4 0.0000 0.0000 0.0000 13.7455 0.0000 0.0000
# 5 0.0000 0.0000 0.0000 0.0000 57.1505 0.0000
# 6 0.0000 0.0000 0.0000 0.0000 0.0000 18.7751
#
#
#
# Elastic Compliance Matrix: (Units=1/GPa)
#
#
# Indices 1 2 3 4 5 6 
#
# 1 0.011598 -0.001714 -0.001631 0.000000 0.000000 0.000000
# 2 -0.001714 0.021777 0.002449 0.000000 0.000000 0.000000
# 3 -0.001631 0.002449 0.014368 0.000000 0.000000 0.000000
# 4 0.000000 0.000000 0.000000 0.072751 0.000000 0.000000
# 5 0.000000 0.000000 0.000000 0.000000 0.017498 0.000000
# 6 0.000000 0.000000 0.000000 0.000000 0.000000 0.053262
#
#
# Mechanical properties :
#
#
# Convention : Reuss Voigt Hill
#
# Bulk Modulus (GPa) = 21.76187 24.73707 23.24947
# Shear Modulus (GPa) = 23.99669 31.25962 27.62816
#
# Velocity S-wave (km/s) = 3.22539 3.68127 3.46085
# Velocity P-wave (km/s) = 4.82754 5.36592 5.10383
#
# Compressibility (1/GPa) = 0.04595194
#
# Stress axis : x y z
#
# Youngs Moduli (GPa) = 86.22212 45.92049 69.59826
#
# Poissons Ratio (x) = 0.07869 0.11353
# Poissons Ratio (y) = 0.14775 -0.17047
# Poissons Ratio (z) = 0.14065 -0.11248
#
# Static dielectric constant tensor:
#      x y z
#    x 1.930680 0.000000 0.000000 
#    y 0.000000 2.111520 0.000000 
#    z 0.000000 0.000000 1.798870 
# 
# From -- ./inp_files/3466.got.cif
#   From: 2010.05.17/outbox.cif.g08.bks.cpg/sg61_2_cif.got.tgz:3466.got - 2010.06.03 15:17:17.
