data_PCOD9459465
_publ_section_title
;
Structure prediction by ZEFSAII (Michael W. Deem and Ramdas Pophale) SiO2 
 PCOD9459465
Probable space group: P B C A
;
_chemical_formula_sum "Si O2"
_cell_formula_units_Z 64
_cell_length_a 29.431037
_cell_length_b 8.322019
_cell_length_c 10.165004
_cell_angle_alpha 90.000000
_cell_angle_beta 90.000000
_cell_angle_gamma 90.000000
_cell_volume 2489.670203
_symmetry_space_group_name_H-M "P B C A"
_symmetry_group_IT_number 61
_symmetry_cell_setting 'orthorhombic'
loop_
_space_group_symop_operation_xyz
x,y,z
1/2-x,-y,1/2+z
1/2+x,1/2-y,-z
-x,1/2+y,1/2-z
-x,-y,-z
1/2+x,y,1/2-z
1/2-x,1/2+y,z
x,1/2-y,1/2+z
loop_
_atom_site_type_symbol
_atom_site_label
_atom_site_fract_x
_atom_site_fract_y
_atom_site_fract_z
Si Si1 0.472554 0.432742 0.249348
Si Si2 0.536577 0.723575 0.488771
Si Si3 0.868584 0.555402 0.896617
Si Si4 0.698981 0.354616 0.890700
Si Si5 0.577417 0.523532 0.170729
Si Si6 0.564244 0.318329 0.943592
Si Si7 0.269392 0.343862 0.970602
Si Si8 0.314946 0.457539 0.363880
O O1 0.465329 0.424385 0.406667
O O2 0.525728 0.475332 0.220710
O O3 0.440069 0.563481 0.180857
O O4 0.459976 0.267017 0.167775
O O5 0.487516 0.800040 0.515262
O O6 0.572167 0.835475 0.564230
O O7 0.832608 0.698301 0.878436
O O8 0.881865 0.446603 0.773143
O O9 0.915360 0.650552 0.906084
O O10 0.854916 0.467989 0.029625
O O11 0.749396 0.267844 0.907686
O O12 0.702849 0.492561 0.002656
O O13 0.678426 0.473041 0.779416
O O14 0.591042 0.377908 0.071926
O O15 0.223465 0.413839 0.909300
O O16 0.294768 0.219533 0.877573
#
# Coordination Sequence:
#
# PCOD9459465 Si02
#       8
#     8   8   8   8   8   8   8   8
#     4   9  17  33  55  76 102 142 191 239 286 333
#     4   9  17  33  55  76 102 142 191 239 286 333
#     4  11  20  34  56  81 114 146 190 227 280 338
#     4  10  20  36  60  87 113 145 182 225 276 331
#     4   9  18  33  52  74 107 145 182 231 284 336
#     4   9  18  33  52  74 107 145 182 231 284 336
#     4   9  20  38  60  85 114 144 180 225 266 338
#     4  10  20  36  60  87 113 145 182 225 276 331
#
# _framework density 25.706218
#
# number of rings (size 3 to 8) (size 9 to 14) (size 15 to 20)
#    0.000    2.500    1.250    3.000    0.000    0.000 
#    2.250    8.750    0.000    0.000    0.000    0.000 
#    0.000    0.000    0.000    0.000    0.000    0.000 
#
# Total GULP energy -356325.302931 kJ/mol
# GULP energy per Si atom -5567.582858 kJ/mol
# Density = 2.564771 g / cm^3
# Si number density = 25.706218 Si / 1000 Ang^3
#
#
#
# Elastic Constant Matrix: (Units=GPa)
#
#
# Indices 1 2 3 4 5 6 
#
# 1 42.7023 22.9963 3.3048 0.0000 0.0000 0.0000
# 2 22.9963 65.2062 6.9337 0.0000 0.0000 0.0000
# 3 3.3048 6.9337 28.2919 0.0000 0.0000 0.0000
# 4 0.0000 0.0000 0.0000 27.1675 0.0000 0.0000
# 5 0.0000 0.0000 0.0000 0.0000 23.1674 0.0000
# 6 0.0000 0.0000 0.0000 0.0000 0.0000 27.1908
#
#
#
# Elastic Compliance Matrix: (Units=1/GPa)
#
#
# Indices 1 2 3 4 5 6 
#
# 1 0.028931 -0.010107 -0.000902 0.000000 0.000000 0.000000
# 2 -0.010107 0.019277 -0.003544 0.000000 0.000000 0.000000
# 3 -0.000902 -0.003544 0.036320 0.000000 0.000000 0.000000
# 4 0.000000 0.000000 0.000000 0.036809 0.000000 0.000000
# 5 0.000000 0.000000 0.000000 0.000000 0.043164 0.000000
# 6 0.000000 0.000000 0.000000 0.000000 0.000000 0.036777
#
#
# Mechanical properties :
#
#
# Convention : Reuss Voigt Hill
#
# Bulk Modulus (GPa) = 18.04365 22.51889 20.28127
# Shear Modulus (GPa) = 20.09178 22.36950 21.23064
#
# Velocity S-wave (km/s) = 2.79873 2.95311 2.87696
# Velocity P-wave (km/s) = 4.18070 4.51740 4.35231
#
# Compressibility (1/GPa) = 0.05542116
#
# Stress axis : x y z
#
# Youngs Moduli (GPa) = 34.56531 51.87459 27.53328
#
# Poissons Ratio (x) = 0.52430 0.02485
# Poissons Ratio (y) = 0.34935 0.09757
# Poissons Ratio (z) = 0.03119 0.18383
#
# Static dielectric constant tensor:
#      x y z
#    x 2.011870 0.000000 0.000000 
#    y 0.000000 2.142770 0.000000 
#    z 0.000000 0.000000 2.201410 
# 
# From -- ./inp_files/6775.got.cif
#   From: 2010.05.17/outbox.cif.g08.bks.cpg/sg61_4_cif.got.tgz:6775.got - 2010.06.03 15:17:17.
