data_PCOD9459369
_publ_section_title
;
Structure prediction by ZEFSAII (Michael W. Deem and Ramdas Pophale) SiO2 
 PCOD9459369
Probable space group: P B C A
;
_chemical_formula_sum "Si O2"
_cell_formula_units_Z 48
_cell_length_a 13.666822
_cell_length_b 27.214756
_cell_length_c 5.452300
_cell_angle_alpha 90.000000
_cell_angle_beta 90.000000
_cell_angle_gamma 90.000000
_cell_volume 2027.924242
_symmetry_space_group_name_H-M "P B C A"
_symmetry_group_IT_number 61
_symmetry_cell_setting 'orthorhombic'
loop_
_space_group_symop_operation_xyz
x,y,z
1/2-x,-y,1/2+z
1/2+x,1/2-y,-z
-x,1/2+y,1/2-z
-x,-y,-z
1/2+x,y,1/2-z
1/2-x,1/2+y,z
x,1/2-y,1/2+z
loop_
_atom_site_type_symbol
_atom_site_label
_atom_site_fract_x
_atom_site_fract_y
_atom_site_fract_z
Si Si1 0.975825 0.725350 0.632337
Si Si2 0.712345 0.523146 0.373450
Si Si3 0.987351 0.074504 0.341765
Si Si4 0.324328 0.120454 0.947707
Si Si5 0.004512 0.107376 0.836780
Si Si6 0.244197 0.728007 0.865480
O O1 0.014251 0.749904 0.382211
O O2 0.982715 0.665977 0.643294
O O3 0.860072 0.737069 0.635628
O O4 0.745492 0.491953 0.610128
O O5 0.593062 0.530930 0.363388
O O6 0.744091 0.578555 0.447033
O O7 0.914516 0.122784 0.358504
O O8 0.049368 0.083795 0.587526
O O9 0.033624 0.077955 0.077932
O O10 0.386962 0.100650 0.714839
O O11 0.274131 0.170779 0.900325
O O12 0.205183 0.743917 0.602637
#
# Coordination Sequence:
#
# PCOD9459369 Si02
#       6
#     8   8   8   8   8   8
#     4  10  20  33  47  66  91 127 171 198 228 282
#     4   9  16  28  48  74  98 120 150 197 247 286
#     4   8  18  28  47  70  96 115 156 190 243 272
#     4   8  21  30  50  72 101 120 163 195 244 279
#     4   9  17  31  45  67  92 122 152 198 231 273
#     4  10  22  34  47  67  99 132 160 196 235 281
#
# _framework density 23.669522000000001
#
# number of rings (size 3 to 8) (size 9 to 14) (size 15 to 20)
#    2.000    0.667    0.000    3.000    2.333    1.333 
#    0.000    0.000    0.000    0.000    0.000   16.333 
#    0.000    0.000    0.000    0.000    0.000    0.000 
#
# Total GULP energy -267308.710339 kJ/mol
# GULP energy per Si atom -5568.931465 kJ/mol
# Density = 2.361565 g / cm^3
# Si number density = 23.669522 Si / 1000 Ang^3
#
#
#
# Elastic Constant Matrix: (Units=GPa)
#
#
# Indices 1 2 3 4 5 6 
#
# 1 57.3352 1.8015 49.5592 0.0000 0.0000 0.0000
# 2 1.8015 94.1238 49.5435 0.0000 0.0000 0.0000
# 3 49.5592 49.5435 179.0990 0.0000 0.0000 0.0000
# 4 0.0000 0.0000 0.0000 34.2731 0.0000 0.0000
# 5 0.0000 0.0000 0.0000 0.0000 3.8930 0.0000
# 6 0.0000 0.0000 0.0000 0.0000 0.0000 59.8741
#
#
#
# Elastic Compliance Matrix: (Units=1/GPa)
#
#
# Indices 1 2 3 4 5 6 
#
# 1 0.023890 0.003538 -0.007589 0.000000 0.000000 0.000000
# 2 0.003538 0.012959 -0.004564 0.000000 0.000000 0.000000
# 3 -0.007589 -0.004564 0.008946 0.000000 0.000000 0.000000
# 4 0.000000 0.000000 0.000000 0.029177 0.000000 0.000000
# 5 0.000000 0.000000 0.000000 0.000000 0.256873 0.000000
# 6 0.000000 0.000000 0.000000 0.000000 0.000000 0.016702
#
#
# Mechanical properties :
#
#
# Convention : Reuss Voigt Hill
#
# Bulk Modulus (GPa) = 35.00904 59.15182 47.08043
# Shear Modulus (GPa) = 13.32271 34.91830 24.12051
#
# Velocity S-wave (km/s) = 2.37505 3.84506 3.19572
# Velocity P-wave (km/s) = 4.72695 6.69011 5.79230
#
# Compressibility (1/GPa) = 0.02856405
#
# Stress axis : x y z
#
# Youngs Moduli (GPa) = 41.85828 77.16807 111.78206
#
# Poissons Ratio (x) = -0.27298 0.84835
# Poissons Ratio (y) = -0.14807 0.51013
# Poissons Ratio (z) = 0.31767 0.35216
#
# Static dielectric constant tensor:
#      x y z
#    x 1.943390 0.000000 0.000000 
#    y 0.000000 1.861300 0.000000 
#    z 0.000000 0.000000 2.173810 
# 
# From -- ./inp_files/1025.got.cif
#   From: 2010.05.17/outbox.cif.g08.bks.cpg/sg61_1_cif.got.tgz:1025.got - 2010.06.03 15:17:17.
