data_PCOD9459158
_publ_section_title
;
Structure prediction by ZEFSAII (Michael W. Deem and Ramdas Pophale) SiO2 
 PCOD9459158
Probable space group: P B C A
;
_chemical_formula_sum "Si O2"
_cell_formula_units_Z 64
_cell_length_a 20.551759
_cell_length_b 26.594633
_cell_length_c 5.328055
_cell_angle_alpha 90.000000
_cell_angle_beta 90.000000
_cell_angle_gamma 90.000000
_cell_volume 2912.136310
_symmetry_space_group_name_H-M "P B C A"
_symmetry_group_IT_number 61
_symmetry_cell_setting 'orthorhombic'
loop_
_space_group_symop_operation_xyz
x,y,z
1/2-x,-y,1/2+z
1/2+x,1/2-y,-z
-x,1/2+y,1/2-z
-x,-y,-z
1/2+x,y,1/2-z
1/2-x,1/2+y,z
x,1/2-y,1/2+z
loop_
_atom_site_type_symbol
_atom_site_label
_atom_site_fract_x
_atom_site_fract_y
_atom_site_fract_z
Si Si1 0.234275 0.934224 0.694297
Si Si2 0.564649 0.955133 0.230872
Si Si3 0.931495 0.940451 0.961773
Si Si4 0.824350 0.235174 0.953547
Si Si5 0.528610 0.724015 0.537481
Si Si6 0.689579 0.450635 0.302132
Si Si7 0.513366 0.880172 0.847675
Si Si8 0.365324 0.373139 0.981209
O O1 0.264338 0.929199 0.419521
O O2 0.181884 0.892657 0.764855
O O3 0.199506 0.988890 0.704269
O O4 0.287149 0.933617 0.922335
O O5 0.501588 0.948720 0.407960
O O6 0.621159 0.918749 0.330132
O O7 0.585260 0.012372 0.279325
O O8 0.541395 0.932393 0.965866
O O9 0.945448 0.892878 0.784235
O O10 0.881032 0.937853 0.189750
O O11 0.789810 0.260345 0.720319
O O12 0.893563 0.263824 0.009518
O O13 0.837869 0.177024 0.900938
O O14 0.502385 0.752374 0.780270
O O15 0.513972 0.664645 0.548261
O O16 0.565528 0.860834 0.644978
#
# Coordination Sequence:
#
# PCOD9459158 Si02
#       8
#     8   8   8   8   8   8   8   8
#     4  10  23  37  61  81 106 160 197 248 280 340
#     4  10  21  35  53  85 121 157 193 234 297 352
#     4  10  22  37  53  83 120 163 196 242 285 352
#     4  10  19  32  52  81 119 147 175 236 301 361
#     4  10  19  35  53  81 119 151 184 234 295 364
#     4  10  22  42  56  79 115 154 205 237 284 328
#     4  11  22  32  59  86 122 159 189 240 307 367
#     4  11  21  34  56  88 118 149 197 238 304 361
#
# _framework density 21.976994000000001
#
# number of rings (size 3 to 8) (size 9 to 14) (size 15 to 20)
#    0.000    1.750    3.750    1.875    5.250    1.000 
#    0.000    0.000    0.000    0.000    0.000    5.250 
#    0.000    0.000    0.000    0.000    0.000    0.000 
#
# Total GULP energy -357519.227191 kJ/mol
# GULP energy per Si atom -5586.237925 kJ/mol
# Density = 2.192697 g / cm^3
# Si number density = 21.976994 Si / 1000 Ang^3
#
#
#
# Elastic Constant Matrix: (Units=GPa)
#
#
# Indices 1 2 3 4 5 6 
#
# 1 40.5285 18.7911 8.8266 0.0000 0.0000 0.0000
# 2 18.7911 61.3335 5.1561 0.0000 0.0000 0.0000
# 3 8.8266 5.1561 94.8799 0.0000 0.0000 0.0000
# 4 0.0000 0.0000 0.0000 18.6549 0.0000 0.0000
# 5 0.0000 0.0000 0.0000 0.0000 24.1962 0.0000
# 6 0.0000 0.0000 0.0000 0.0000 0.0000 9.0069
#
#
#
# Elastic Compliance Matrix: (Units=1/GPa)
#
#
# Indices 1 2 3 4 5 6 
#
# 1 0.029227 -0.008766 -0.002243 0.000000 0.000000 0.000000
# 2 -0.008766 0.019008 -0.000217 0.000000 0.000000 0.000000
# 3 -0.002243 -0.000217 0.010760 0.000000 0.000000 0.000000
# 4 0.000000 0.000000 0.000000 0.053605 0.000000 0.000000
# 5 0.000000 0.000000 0.000000 0.000000 0.041329 0.000000
# 6 0.000000 0.000000 0.000000 0.000000 0.000000 0.111025
#
#
# Mechanical properties :
#
#
# Convention : Reuss Voigt Hill
#
# Bulk Modulus (GPa) = 27.36487 29.14329 28.25408
# Shear Modulus (GPa) = 16.68962 21.30281 18.99622
#
# Velocity S-wave (km/s) = 2.75874 3.11677 2.94320
# Velocity P-wave (km/s) = 4.75669 5.12269 4.94308
#
# Compressibility (1/GPa) = 0.03654320
#
# Stress axis : x y z
#
# Youngs Moduli (GPa) = 34.21533 52.60886 92.93605
#
# Poissons Ratio (x) = 0.46116 0.20842
# Poissons Ratio (y) = 0.29992 0.02021
# Poissons Ratio (z) = 0.07673 0.01144
#
# Static dielectric constant tensor:
#      x y z
#    x 1.817770 0.000000 0.000000 
#    y 0.000000 1.799190 0.000000 
#    z 0.000000 0.000000 1.916870 
# 
# From -- ./inp_files/1109.got.cif
#   From: 2010.05.17/outbox.cif.g08.bks.cpg/sg61_1_cif.got.tgz:1109.got - 2010.06.03 15:17:17.
