data_PCOD9459222
_publ_section_title
;
Structure prediction by ZEFSAII (Michael W. Deem and Ramdas Pophale) SiO2 
 PCOD9459222
Probable space group: P B C A
;
_chemical_formula_sum "Si O2"
_cell_formula_units_Z 64
_cell_length_a 10.963207
_cell_length_b 30.599798
_cell_length_c 9.202151
_cell_angle_alpha 90.000000
_cell_angle_beta 90.000000
_cell_angle_gamma 90.000000
_cell_volume 3087.063261
_symmetry_space_group_name_H-M "P B C A"
_symmetry_group_IT_number 61
_symmetry_cell_setting 'orthorhombic'
loop_
_space_group_symop_operation_xyz
x,y,z
1/2-x,-y,1/2+z
1/2+x,1/2-y,-z
-x,1/2+y,1/2-z
-x,-y,-z
1/2+x,y,1/2-z
1/2-x,1/2+y,z
x,1/2-y,1/2+z
loop_
_atom_site_type_symbol
_atom_site_label
_atom_site_fract_x
_atom_site_fract_y
_atom_site_fract_z
Si Si1 0.440597 0.496803 0.342232
Si Si2 0.774720 0.701196 0.447449
Si Si3 0.394156 0.742285 0.314212
Si Si4 0.768800 0.934343 0.592196
Si Si5 0.509266 0.804016 0.073679
Si Si6 0.009647 0.905490 0.414230
Si Si7 0.234059 0.399570 0.585809
Si Si8 0.495966 0.452644 0.933736
O O1 0.500000 0.500000 0.500000
O O2 0.303392 0.515031 0.366257
O O3 0.464788 0.446056 0.302759
O O4 0.498368 0.533527 0.237508
O O5 0.862479 0.722182 0.565403
O O6 0.788689 0.724440 0.291917
O O7 0.643547 0.705830 0.517849
O O8 0.800269 0.650557 0.431609
O O9 0.477227 0.768593 0.197786
O O10 0.435598 0.702798 0.421079
O O11 0.760338 0.909514 0.743914
O O12 0.633550 0.931534 0.527427
O O13 0.881144 0.916550 0.495341
O O14 0.499713 0.854256 0.129347
O O15 0.133916 0.907336 0.512207
O O16 0.119376 0.427316 0.528040
O O17 0.500000 0.500000 0.000000
#
# Coordination Sequence:
#
# PCOD9459222 Si02
#       8
#     8   8   8   8   8   8   8   8
#     4   9  19  35  54  75 108 150 186 224 279 340
#     4  10  21  38  61  85 117 154 194 246 301 362
#     4  10  21  38  59  88 117 150 195 243 303 365
#     4  10  19  35  57  82 111 151 196 234 280 343
#     4  10  21  38  61  87 118 155 196 244 302 361
#     4  10  20  36  58  82 111 153 195 234 285 347
#     4  10  20  36  56  82 114 150 189 234 289 348
#     4  11  23  36  55  85 116 147 191 243 285 328
#
# _framework density 20.731676
#
# number of rings (size 3 to 8) (size 9 to 14) (size 15 to 20)
#    0.000    2.000    0.000    4.500    0.000    5.000 
#    0.000    8.750    0.000    0.000    0.000    0.000 
#    0.000    0.000    0.000    0.000    0.000    0.000 
#
# Total GULP energy -356295.362731 kJ/mol
# GULP energy per Si atom -5567.115043 kJ/mol
# Density = 2.068449 g / cm^3
# Si number density = 20.731676 Si / 1000 Ang^3
#
#
#
# Elastic Constant Matrix: (Units=GPa)
#
#
# Indices 1 2 3 4 5 6 
#
# 1 95.5471 24.2376 9.7466 0.0000 0.0000 0.0000
# 2 24.2376 94.1461 15.4391 0.0000 0.0000 0.0000
# 3 9.7466 15.4391 54.3740 0.0000 0.0000 0.0000
# 4 0.0000 0.0000 0.0000 31.5558 0.0000 0.0000
# 5 0.0000 0.0000 0.0000 0.0000 11.9002 0.0000
# 6 0.0000 0.0000 0.0000 0.0000 0.0000 27.1101
#
#
#
# Elastic Compliance Matrix: (Units=1/GPa)
#
#
# Indices 1 2 3 4 5 6 
#
# 1 0.011278 -0.002698 -0.001256 0.000000 0.000000 0.000000
# 2 -0.002698 0.011786 -0.002863 0.000000 0.000000 0.000000
# 3 -0.001256 -0.002863 0.019429 0.000000 0.000000 0.000000
# 4 0.000000 0.000000 0.000000 0.031690 0.000000 0.000000
# 5 0.000000 0.000000 0.000000 0.000000 0.084032 0.000000
# 6 0.000000 0.000000 0.000000 0.000000 0.000000 0.036887
#
#
# Mechanical properties :
#
#
# Convention : Reuss Voigt Hill
#
# Bulk Modulus (GPa) = 34.64908 38.10153 36.37531
# Shear Modulus (GPa) = 22.89850 27.08948 24.99399
#
# Velocity S-wave (km/s) = 3.32703 3.61871 3.47593
# Velocity P-wave (km/s) = 5.61322 5.98986 5.80460
#
# Compressibility (1/GPa) = 0.02886080
#
# Stress axis : x y z
#
# Youngs Moduli (GPa) = 88.66461 84.84795 51.46905
#
# Poissons Ratio (x) = 0.22889 0.06463
# Poissons Ratio (y) = 0.23919 0.14735
# Poissons Ratio (z) = 0.11133 0.24291
#
# Static dielectric constant tensor:
#      x y z
#    x 1.781540 0.000000 0.000000 
#    y 0.000000 1.787050 0.000000 
#    z 0.000000 0.000000 1.818780 
# 
# From -- ./inp_files/2444.got.cif
#   From: 2010.05.17/outbox.cif.g08.bks.cpg/sg61_2_cif.got.tgz:2444.got - 2010.06.03 15:17:17.
