data_PCOD9459956
_publ_section_title
;
Structure prediction by ZEFSAII (Michael W. Deem and Ramdas Pophale) SiO2 
 PCOD9459956
Probable space group: P B C A
;
_chemical_formula_sum "Si O2"
_cell_formula_units_Z 64
_cell_length_a 9.700880
_cell_length_b 22.857841
_cell_length_c 12.252966
_cell_angle_alpha 90.000000
_cell_angle_beta 90.000000
_cell_angle_gamma 90.000000
_cell_volume 2716.987049
_symmetry_space_group_name_H-M "P B C A"
_symmetry_group_IT_number 61
_symmetry_cell_setting 'orthorhombic'
loop_
_space_group_symop_operation_xyz
x,y,z
1/2-x,-y,1/2+z
1/2+x,1/2-y,-z
-x,1/2+y,1/2-z
-x,-y,-z
1/2+x,y,1/2-z
1/2-x,1/2+y,z
x,1/2-y,1/2+z
loop_
_atom_site_type_symbol
_atom_site_label
_atom_site_fract_x
_atom_site_fract_y
_atom_site_fract_z
Si Si1 0.282649 0.689837 0.953042
Si Si2 0.942070 0.620596 0.824102
Si Si3 0.725399 0.315807 0.476584
Si Si4 0.330411 0.448368 0.218754
Si Si5 0.392798 0.219938 0.741044
Si Si6 0.403236 0.920126 0.724623
Si Si7 0.963318 0.106372 0.000160
Si Si8 0.865106 0.151265 0.330192
O O1 0.335417 0.755114 0.983252
O O2 0.407989 0.644478 0.956524
O O3 0.176427 0.669012 0.046878
O O4 0.197946 0.702469 0.844624
O O5 0.893087 0.639599 0.943070
O O6 0.080018 0.584334 0.809849
O O7 0.820654 0.579453 0.779691
O O8 0.811494 0.301419 0.365829
O O9 0.842481 0.349966 0.542517
O O10 0.337570 0.516562 0.243621
O O11 0.399397 0.430980 0.100522
O O12 0.529311 0.181608 0.760793
O O13 0.413406 0.288780 0.728315
O O14 0.479581 0.925592 0.606858
O O15 0.516907 0.896751 0.809458
O O16 0.279798 0.873397 0.715885
#
# Coordination Sequence:
#
# PCOD9459956 Si02
#       8
#     8   8   8   8   8   8   8   8
#     4  10  23  39  63  95 135 169 208 272 334 402
#     4  11  22  38  65  96 127 167 216 270 319 386
#     4  10  22  37  59 100 125 167 212 262 331 397
#     4  11  23  42  67  95 130 176 232 264 322 384
#     4  11  22  39  67  94 132 164 207 274 329 393
#     4  11  23  45  65  92 134 178 221 277 318 390
#     4  10  21  39  64  94 128 175 224 264 327 388
#     4  10  25  41  66  96 131 174 217 265 346 392
#
# _framework density 23.555503999999999
#
# number of rings (size 3 to 8) (size 9 to 14) (size 15 to 20)
#    0.000    1.500    2.500    2.625    7.000    1.000 
#    4.500    0.000    0.000    2.250    0.000    0.000 
#    0.000    0.000    0.000    0.000    0.000    0.000 
#
# Total GULP energy -358098.990952 kJ/mol
# GULP energy per Si atom -5595.296734 kJ/mol
# Density = 2.350189 g / cm^3
# Si number density = 23.555504 Si / 1000 Ang^3
#
#
#
# Elastic Constant Matrix: (Units=GPa)
#
#
# Indices 1 2 3 4 5 6 
#
# 1 63.9796 0.8517 6.9579 0.0000 0.0000 0.0000
# 2 0.8517 92.6602 4.5670 0.0000 0.0000 0.0000
# 3 6.9579 4.5670 61.0114 0.0000 0.0000 0.0000
# 4 0.0000 0.0000 0.0000 25.6871 0.0000 0.0000
# 5 0.0000 0.0000 0.0000 0.0000 26.9502 0.0000
# 6 0.0000 0.0000 0.0000 0.0000 0.0000 29.6800
#
#
#
# Elastic Compliance Matrix: (Units=1/GPa)
#
#
# Indices 1 2 3 4 5 6 
#
# 1 0.015827 -0.000057 -0.001801 0.000000 0.000000 0.000000
# 2 -0.000057 0.010832 -0.000804 0.000000 0.000000 0.000000
# 3 -0.001801 -0.000804 0.016656 0.000000 0.000000 0.000000
# 4 0.000000 0.000000 0.000000 0.038930 0.000000 0.000000
# 5 0.000000 0.000000 0.000000 0.000000 0.037105 0.000000
# 6 0.000000 0.000000 0.000000 0.000000 0.000000 0.033693
#
#
# Mechanical properties :
#
#
# Convention : Reuss Voigt Hill
#
# Bulk Modulus (GPa) = 26.32186 26.93385 26.62785
# Shear Modulus (GPa) = 29.23459 30.14844 29.69152
#
# Velocity S-wave (km/s) = 3.52674 3.58144 3.55419
# Velocity P-wave (km/s) = 5.27091 5.34427 5.30772
#
# Compressibility (1/GPa) = 0.03799124
#
# Stress axis : x y z
#
# Youngs Moduli (GPa) = 63.18494 92.31662 60.03864
#
# Poissons Ratio (x) = 0.00524 0.10811
# Poissons Ratio (y) = 0.00358 0.04829
# Poissons Ratio (z) = 0.11377 0.07426
#
# Static dielectric constant tensor:
#      x y z
#    x 1.880480 0.000000 0.000000 
#    y 0.000000 1.894770 0.000000 
#    z 0.000000 0.000000 1.972540 
# 
# From -- ./inp_files/5458.got.cif
#   From: 2010.05.17/outbox.cif.g08.bks.cpg/sg61_3_cif.got.tgz:5458.got - 2010.06.03 15:17:17.
