data_PCOD9459302
_publ_section_title
;
Structure prediction by ZEFSAII (Michael W. Deem and Ramdas Pophale) SiO2 
 PCOD9459302
Probable space group: P B C A
;
_chemical_formula_sum "Si O2"
_cell_formula_units_Z 56
_cell_length_a 22.059441
_cell_length_b 7.789573
_cell_length_c 13.059619
_cell_angle_alpha 90.000000
_cell_angle_beta 90.000000
_cell_angle_gamma 90.000000
_cell_volume 2244.081687
_symmetry_space_group_name_H-M "P B C A"
_symmetry_group_IT_number 61
_symmetry_cell_setting 'orthorhombic'
loop_
_space_group_symop_operation_xyz
x,y,z
1/2-x,-y,1/2+z
1/2+x,1/2-y,-z
-x,1/2+y,1/2-z
-x,-y,-z
1/2+x,y,1/2-z
1/2-x,1/2+y,z
x,1/2-y,1/2+z
loop_
_atom_site_type_symbol
_atom_site_label
_atom_site_fract_x
_atom_site_fract_y
_atom_site_fract_z
Si Si1 0.203594 0.285877 0.323510
Si Si2 0.982132 0.523319 0.825489
Si Si3 0.370525 0.741974 0.005761
Si Si4 0.772243 0.972380 0.379223
Si Si5 0.307655 0.292762 0.990225
Si Si6 0.927820 0.383415 0.013841
Si Si7 0.591175 0.158544 0.286962
O O1 0.155847 0.353123 0.407639
O O2 0.225810 0.421831 0.239075
O O3 0.260821 0.226029 0.393959
O O4 0.158633 0.150072 0.264477
O O5 0.931877 0.643290 0.774142
O O6 0.016419 0.639018 0.910545
O O7 0.036815 0.453960 0.757473
O O8 0.948869 0.379503 0.895278
O O9 0.315852 0.832669 0.067718
O O10 0.404877 0.634820 0.090935
O O11 0.405848 0.916760 0.970634
O O12 0.710147 0.955085 0.441620
O O13 0.798291 0.150426 0.418315
O O14 0.374925 0.246585 0.957480
#
# Coordination Sequence:
#
# PCOD9459302 Si02
#       7
#     8   8   8   8   8   8   8
#     4  10  19  38  62  82 123 161 195 250 310 363
#     4  10  20  38  62  84 122 163 204 247 301 367
#     4   8  16  34  60  81 109 157 206 226 287 382
#     4   9  20  35  57  85 116 151 190 243 305 361
#     4  10  21  39  58  90 116 153 204 248 305 374
#     4   9  18  37  61  80 117 161 201 242 304 365
#     4  10  20  37  62  91 115 163 210 248 303 364
#
# _framework density 24.954528
#
# number of rings (size 3 to 8) (size 9 to 14) (size 15 to 20)
#    0.000    2.571    1.429    0.857    0.000    3.429 
#    7.714    0.714    0.000    0.000    0.000    0.000 
#    0.000    0.000    0.000    0.000    0.000    0.000 
#
# Total GULP energy -312316.772633 kJ/mol
# GULP energy per Si atom -5577.085226 kJ/mol
# Density = 2.489773 g / cm^3
# Si number density = 24.954528 Si / 1000 Ang^3
#
#
#
# Elastic Constant Matrix: (Units=GPa)
#
#
# Indices 1 2 3 4 5 6 
#
# 1 145.3740 16.8498 47.1462 0.0000 0.0000 0.0000
# 2 16.8498 35.8037 17.9609 0.0000 0.0000 0.0000
# 3 47.1462 17.9609 129.4353 0.0000 0.0000 0.0000
# 4 0.0000 0.0000 0.0000 25.0754 0.0000 0.0000
# 5 0.0000 0.0000 0.0000 0.0000 47.4594 0.0000
# 6 0.0000 0.0000 0.0000 0.0000 0.0000 46.3804
#
#
#
# Elastic Compliance Matrix: (Units=1/GPa)
#
#
# Indices 1 2 3 4 5 6 
#
# 1 0.007999 -0.002475 -0.002570 0.000000 0.000000 0.000000
# 2 -0.002475 0.030786 -0.003370 0.000000 0.000000 0.000000
# 3 -0.002570 -0.003370 0.009130 0.000000 0.000000 0.000000
# 4 0.000000 0.000000 0.000000 0.039880 0.000000 0.000000
# 5 0.000000 0.000000 0.000000 0.000000 0.021071 0.000000
# 6 0.000000 0.000000 0.000000 0.000000 0.000000 0.021561
#
#
# Mechanical properties :
#
#
# Convention : Reuss Voigt Hill
#
# Bulk Modulus (GPa) = 32.17179 52.72518 42.44849
# Shear Modulus (GPa) = 31.72217 39.02678 35.37447
#
# Velocity S-wave (km/s) = 3.56926 3.95893 3.76913
# Velocity P-wave (km/s) = 5.46866 6.48628 5.99909
#
# Compressibility (1/GPa) = 0.03108313
#
# Stress axis : x y z
#
# Youngs Moduli (GPa) = 125.01173 32.48258 109.53212
#
# Poissons Ratio (x) = 0.08040 0.28152
# Poissons Ratio (y) = 0.30943 0.36916
# Poissons Ratio (z) = 0.32131 0.10948
#
# Static dielectric constant tensor:
#      x y z
#    x 2.035980 0.000000 0.000000 
#    y 0.000000 2.133110 0.000000 
#    z 0.000000 0.000000 2.048060 
# 
# From -- ./inp_files/6615.got.cif
#   From: 2010.05.17/outbox.cif.g08.bks.cpg/sg61_4_cif.got.tgz:6615.got - 2010.06.03 15:17:17.
