data_PCOD9459020
_publ_section_title
;
Structure prediction by ZEFSAII (Michael W. Deem and Ramdas Pophale) SiO2 
 PCOD9459020
Probable space group: P B C A
;
_chemical_formula_sum "Si O2"
_cell_formula_units_Z 56
_cell_length_a 27.648148
_cell_length_b 14.920523
_cell_length_c 5.437099
_cell_angle_alpha 90.000000
_cell_angle_beta 90.000000
_cell_angle_gamma 90.000000
_cell_volume 2242.938331
_symmetry_space_group_name_H-M "P B C A"
_symmetry_group_IT_number 61
_symmetry_cell_setting 'orthorhombic'
loop_
_space_group_symop_operation_xyz
x,y,z
1/2-x,-y,1/2+z
1/2+x,1/2-y,-z
-x,1/2+y,1/2-z
-x,-y,-z
1/2+x,y,1/2-z
1/2-x,1/2+y,z
x,1/2-y,1/2+z
loop_
_atom_site_type_symbol
_atom_site_label
_atom_site_fract_x
_atom_site_fract_y
_atom_site_fract_z
Si Si1 0.493924 0.588072 0.745153
Si Si2 0.247070 0.054600 0.237851
Si Si3 0.463830 0.892273 0.743393
Si Si4 0.608127 0.519401 0.259390
Si Si5 0.359270 0.935754 0.737743
Si Si6 0.703606 0.720612 0.438720
Si Si7 0.909028 0.281466 0.930561
O O1 0.530192 0.502783 0.746067
O O2 0.490031 0.639160 0.489287
O O3 0.440754 0.539608 0.751101
O O4 0.492446 0.637450 0.003344
O O5 0.289452 0.123707 0.179845
O O6 0.252614 0.013710 0.508454
O O7 0.194552 0.103036 0.224431
O O8 0.406831 0.872369 0.733025
O O9 0.636526 0.486018 0.500988
O O10 0.592951 0.620588 0.310050
O O11 0.634032 0.500248 0.999901
O O12 0.724868 0.719844 0.714999
O O13 0.647582 0.745029 0.472735
O O14 0.928338 0.218405 0.710848
#
# Coordination Sequence:
#
# PCOD9459020 Si02
#       7
#     8   8   8   8   8   8   8
#     4   8  14  24  41  62  88 116 140 173 219 281
#     4  12  23  35  53  77 102 129 167 215 257 289
#     4   8  14  25  40  63  89 114 143 173 221 281
#     4  10  18  30  46  68  95 121 148 187 240 284
#     4  10  19  30  47  69  95 120 149 194 242 283
#     4  10  21  36  51  68  95 132 168 201 243 298
#     4  10  19  30  44  61  84 118 157 189 222 276
#
# _framework density 24.96725
#
# number of rings (size 3 to 8) (size 9 to 14) (size 15 to 20)
#    0.000    2.286    0.000    4.286    0.000    2.286 
#    0.000    0.000    0.000    0.000    0.000    2.000 
#    0.000    0.000    0.000    0.000    0.000    0.000 
#
# Total GULP energy -312787.637326 kJ/mol
# GULP energy per Si atom -5585.493524 kJ/mol
# Density = 2.491042 g / cm^3
# Si number density = 24.967250 Si / 1000 Ang^3
#
#
#
# Elastic Constant Matrix: (Units=GPa)
#
#
# Indices 1 2 3 4 5 6 
#
# 1 111.4286 -11.0533 30.3122 0.0000 0.0000 0.0000
# 2 -11.0533 26.0959 8.5382 0.0000 0.0000 0.0000
# 3 30.3122 8.5382 217.4214 0.0000 0.0000 0.0000
# 4 0.0000 0.0000 0.0000 28.5473 0.0000 0.0000
# 5 0.0000 0.0000 0.0000 0.0000 24.0783 0.0000
# 6 0.0000 0.0000 0.0000 0.0000 0.0000 18.1469
#
#
#
# Elastic Compliance Matrix: (Units=1/GPa)
#
#
# Indices 1 2 3 4 5 6 
#
# 1 0.009864 0.004688 -0.001559 0.000000 0.000000 0.000000
# 2 0.004688 0.041047 -0.002266 0.000000 0.000000 0.000000
# 3 -0.001559 -0.002266 0.004906 0.000000 0.000000 0.000000
# 4 0.000000 0.000000 0.000000 0.035030 0.000000 0.000000
# 5 0.000000 0.000000 0.000000 0.000000 0.041531 0.000000
# 6 0.000000 0.000000 0.000000 0.000000 0.000000 0.055106
#
#
# Mechanical properties :
#
#
# Convention : Reuss Voigt Hill
#
# Bulk Modulus (GPa) = 17.37835 45.61558 31.49696
# Shear Modulus (GPa) = 24.39769 35.96442 30.18106
#
# Velocity S-wave (km/s) = 3.12939 3.79946 3.48059
# Velocity P-wave (km/s) = 4.47583 6.12843 5.36613
#
# Compressibility (1/GPa) = 0.05754286
#
# Stress axis : x y z
#
# Youngs Moduli (GPa) = 101.38335 24.36226 203.84379
#
# Poissons Ratio (x) = -0.11421 0.31784
# Poissons Ratio (y) = -0.47529 0.46181
# Poissons Ratio (z) = 0.15808 0.05519
#
# Static dielectric constant tensor:
#      x y z
#    x 2.023090 0.000000 0.000000 
#    y 0.000000 1.977450 0.000000 
#    z 0.000000 0.000000 2.148590 
# 
# From -- ./inp_files/1468.got.cif
#   From: 2010.05.17/outbox.cif.g08.bks.cpg/sg61_1_cif.got.tgz:1468.got - 2010.06.03 15:17:17.
