data_PCOD9459074
_publ_section_title
;
Structure prediction by ZEFSAII (Michael W. Deem and Ramdas Pophale) SiO2 
 PCOD9459074
Probable space group: P B C A
;
_chemical_formula_sum "Si O2"
_cell_formula_units_Z 64
_cell_length_a 32.148643
_cell_length_b 18.221472
_cell_length_c 5.531744
_cell_angle_alpha 90.000000
_cell_angle_beta 90.000000
_cell_angle_gamma 90.000000
_cell_volume 3240.471286
_symmetry_space_group_name_H-M "P B C A"
_symmetry_group_IT_number 61
_symmetry_cell_setting 'orthorhombic'
loop_
_space_group_symop_operation_xyz
x,y,z
1/2-x,-y,1/2+z
1/2+x,1/2-y,-z
-x,1/2+y,1/2-z
-x,-y,-z
1/2+x,y,1/2-z
1/2-x,1/2+y,z
x,1/2-y,1/2+z
loop_
_atom_site_type_symbol
_atom_site_label
_atom_site_fract_x
_atom_site_fract_y
_atom_site_fract_z
Si Si1 0.530584 0.597642 0.509494
Si Si2 0.141150 0.054341 0.507487
Si Si3 0.091198 0.982999 0.124627
Si Si4 0.598956 0.793909 0.937360
Si Si5 0.689099 0.206557 0.021818
Si Si6 0.450869 0.550998 0.737311
Si Si7 0.652139 0.912006 0.728849
Si Si8 0.288315 0.206259 0.474178
O O1 0.562927 0.565449 0.704739
O O2 0.552886 0.670791 0.423168
O O3 0.485749 0.604201 0.633487
O O4 0.530751 0.530868 0.317262
O O5 0.164942 0.130047 0.497721
O O6 0.094038 0.062289 0.612727
O O7 0.130825 0.020589 0.247328
O O8 0.164230 0.990372 0.658431
O O9 0.111068 0.930399 0.925727
O O10 0.061551 0.046324 0.016294
O O11 0.604232 0.749125 0.688144
O O12 0.633770 0.857876 0.932181
O O13 0.679397 0.246750 0.277768
O O14 0.738774 0.192960 0.025746
O O15 0.685895 0.867869 0.575725
O O16 0.297389 0.243050 0.735748
#
# Coordination Sequence:
#
# PCOD9459074 Si02
#       8
#     8   8   8   8   8   8   8   8
#     4  10  19  36  55  85 118 168 215 256 312 373
#     4  10  22  39  64  96 120 163 217 272 318 376
#     4  10  18  35  60  91 122 158 214 267 311 371
#     4  12  24  37  57  86 131 172 200 253 321 376
#     4  10  24  47  69  92 129 170 210 263 332 392
#     4   9  19  35  62  86 117 157 219 269 309 369
#     4  11  22  38  61  94 129 163 219 260 309 389
#     4  10  23  43  65  94 130 174 212 248 315 394
#
# _framework density 19.750215000000001
#
# number of rings (size 3 to 8) (size 9 to 14) (size 15 to 20)
#    0.000    1.750    3.750    1.875    5.250    0.000 
#    2.250    1.250    0.000    0.000    0.000    0.000 
#    0.000    0.000    0.000    0.000    0.000    0.000 
#
# Total GULP energy -356849.631045 kJ/mol
# GULP energy per Si atom -5575.775485 kJ/mol
# Density = 1.970526 g / cm^3
# Si number density = 19.750215 Si / 1000 Ang^3
#
#
#
# Elastic Constant Matrix: (Units=GPa)
#
#
# Indices 1 2 3 4 5 6 
#
# 1 75.1796 58.1684 23.9336 0.0000 0.0000 0.0000
# 2 58.1684 106.7612 42.0935 0.0000 0.0000 0.0000
# 3 23.9336 42.0935 90.2521 0.0000 0.0000 0.0000
# 4 0.0000 0.0000 0.0000 28.0831 0.0000 0.0000
# 5 0.0000 0.0000 0.0000 0.0000 15.4779 0.0000
# 6 0.0000 0.0000 0.0000 0.0000 0.0000 39.8813
#
#
#
# Elastic Compliance Matrix: (Units=1/GPa)
#
#
# Indices 1 2 3 4 5 6 
#
# 1 0.023003 -0.012410 -0.000312 0.000000 0.000000 0.000000
# 2 -0.012410 0.018172 -0.005185 0.000000 0.000000 0.000000
# 3 -0.000312 -0.005185 0.013581 0.000000 0.000000 0.000000
# 4 0.000000 0.000000 0.000000 0.035609 0.000000 0.000000
# 5 0.000000 0.000000 0.000000 0.000000 0.064608 0.000000
# 6 0.000000 0.000000 0.000000 0.000000 0.000000 0.025074
#
#
# Mechanical properties :
#
#
# Convention : Reuss Voigt Hill
#
# Bulk Modulus (GPa) = 52.79037 57.84265 55.31651
# Shear Modulus (GPa) = 22.50484 26.55496 24.52990
#
# Velocity S-wave (km/s) = 3.37927 3.67078 3.52803
# Velocity P-wave (km/s) = 6.48174 6.87872 6.68318
#
# Compressibility (1/GPa) = 0.01894285
#
# Stress axis : x y z
#
# Youngs Moduli (GPa) = 43.47327 55.02862 73.63264
#
# Poissons Ratio (x) = 0.68290 0.02297
# Poissons Ratio (y) = 0.53950 0.38176
# Poissons Ratio (z) = 0.01356 0.28530
#
# Static dielectric constant tensor:
#      x y z
#    x 1.689350 0.000000 0.000000 
#    y 0.000000 1.703850 0.000000 
#    z 0.000000 0.000000 1.820480 
# 
# From -- ./inp_files/1510.got.cif
#   From: 2010.05.17/outbox.cif.g08.bks.cpg/sg61_1_cif.got.tgz:1510.got - 2010.06.03 15:17:17.
