data_PCOD9459478
_publ_section_title
;
Structure prediction by ZEFSAII (Michael W. Deem and Ramdas Pophale) SiO2 
 PCOD9459478
Probable space group: P B C A
;
_chemical_formula_sum "Si O2"
_cell_formula_units_Z 44
_cell_length_a 4.936085
_cell_length_b 13.465289
_cell_length_c 24.199829
_cell_angle_alpha 90.000000
_cell_angle_beta 90.000000
_cell_angle_gamma 90.000000
_cell_volume 1608.461262
_symmetry_space_group_name_H-M "P B C A"
_symmetry_group_IT_number 61
_symmetry_cell_setting 'orthorhombic'
loop_
_space_group_symop_operation_xyz
x,y,z
1/2-x,-y,1/2+z
1/2+x,1/2-y,-z
-x,1/2+y,1/2-z
-x,-y,-z
1/2+x,y,1/2-z
1/2-x,1/2+y,z
x,1/2-y,1/2+z
loop_
_atom_site_type_symbol
_atom_site_label
_atom_site_fract_x
_atom_site_fract_y
_atom_site_fract_z
Si Si1 0.972959 0.471868 0.214642
Si Si2 0.297028 0.479093 0.107446
Si Si3 0.507792 0.209752 0.216801
Si Si4 0.154726 0.202083 0.900196
Si Si5 0.500000 0.000000 0.500000
Si Si6 0.851496 0.818658 0.933259
O O1 0.174903 0.444151 0.264905
O O2 0.106319 0.441945 0.156202
O O3 0.965737 0.591356 0.210853
O O4 0.568863 0.413288 0.101467
O O5 0.364981 0.596138 0.115419
O O6 0.229492 0.479617 0.042367
O O7 0.701904 0.235875 0.268075
O O8 0.612265 0.260270 0.161995
O O9 0.946510 0.273581 0.933531
O O10 0.450980 0.228350 0.920186
O O11 0.467725 0.883041 0.516472
#
# Coordination Sequence:
#
# PCOD9459478 Si02
#       6
#     8   8   8   8   4   8
#     4  10  22  38  66  95 134 180 217 277 335 398
#     4  10  24  46  69 103 136 181 232 276 349 404
#     4  10  20  36  61  93 129 176 223 272 334 393
#     4  12  24  42  71  95 138 180 220 290 337 411
#     4   8  22  50  68 102 134 182 216 300 326 420
#     4  10  25  45  65 103 135 170 229 279 338 406
#
# _framework density 27.355338
#
# number of rings (size 3 to 8) (size 9 to 14) (size 15 to 20)
#    1.091    0.727    1.818    1.091    5.091    6.545 
#    0.000    0.000    0.000    0.000    0.000    0.000 
#    0.000    0.000    0.000    0.000    0.000    0.000 
#
# Total GULP energy -245089.095132 kJ/mol
# GULP energy per Si atom -5570.206708 kJ/mol
# Density = 2.729308 g / cm^3
# Si number density = 27.355338 Si / 1000 Ang^3
#
#
#
# Elastic Constant Matrix: (Units=GPa)
#
#
# Indices 1 2 3 4 5 6 
#
# 1 78.9548 -9.4897 19.4366 0.0000 0.0000 0.0000
# 2 -9.4897 129.9531 -3.8077 0.0000 0.0000 0.0000
# 3 19.4366 -3.8077 104.6877 0.0000 0.0000 0.0000
# 4 0.0000 0.0000 0.0000 42.6844 0.0000 0.0000
# 5 0.0000 0.0000 0.0000 0.0000 22.4105 0.0000
# 6 0.0000 0.0000 0.0000 0.0000 0.0000 19.2462
#
#
#
# Elastic Compliance Matrix: (Units=1/GPa)
#
#
# Indices 1 2 3 4 5 6 
#
# 1 0.013378 0.000905 -0.002451 0.000000 0.000000 0.000000
# 2 0.000905 0.007765 0.000114 0.000000 0.000000 0.000000
# 3 -0.002451 0.000114 0.010011 0.000000 0.000000 0.000000
# 4 0.000000 0.000000 0.000000 0.023428 0.000000 0.000000
# 5 0.000000 0.000000 0.000000 0.000000 0.044622 0.000000
# 6 0.000000 0.000000 0.000000 0.000000 0.000000 0.051958
#
#
# Mechanical properties :
#
#
# Convention : Reuss Voigt Hill
#
# Bulk Modulus (GPa) = 35.34719 36.20824 35.77772
# Shear Modulus (GPa) = 30.58958 37.36532 33.97745
#
# Velocity S-wave (km/s) = 3.34762 3.69985 3.52814
# Velocity P-wave (km/s) = 5.28126 5.61399 5.45016
#
# Compressibility (1/GPa) = 0.02829079
#
# Stress axis : x y z
#
# Youngs Moduli (GPa) = 74.75191 128.79089 99.88608
#
# Poissons Ratio (x) = -0.11656 0.24480
# Poissons Ratio (y) = -0.06766 -0.01142
# Poissons Ratio (z) = 0.18320 -0.01473
#
# Static dielectric constant tensor:
#      x y z
#    x 2.111290 0.000000 0.000000 
#    y 0.000000 2.156040 0.000000 
#    z 0.000000 0.000000 2.408840 
# 
# From -- ./inp_files/11218.got.cif
#   From: 2010.05.17/outbox.cif.g08.bks.cpg/sg61_6_cif.got.tgz:11218.got - 2010.06.03 15:17:17.
