data_PCOD9459275
_publ_section_title
;
Structure prediction by ZEFSAII (Michael W. Deem and Ramdas Pophale) SiO2 
 PCOD9459275
Probable space group: P B C A
;
_chemical_formula_sum "Si O2"
_cell_formula_units_Z 32
_cell_length_a 5.282849
_cell_length_b 18.816623
_cell_length_c 14.675400
_cell_angle_alpha 90.000000
_cell_angle_beta 90.000000
_cell_angle_gamma 90.000000
_cell_volume 1458.813684
_symmetry_space_group_name_H-M "P B C A"
_symmetry_group_IT_number 61
_symmetry_cell_setting 'orthorhombic'
loop_
_space_group_symop_operation_xyz
x,y,z
1/2-x,-y,1/2+z
1/2+x,1/2-y,-z
-x,1/2+y,1/2-z
-x,-y,-z
1/2+x,y,1/2-z
1/2-x,1/2+y,z
x,1/2-y,1/2+z
loop_
_atom_site_type_symbol
_atom_site_label
_atom_site_fract_x
_atom_site_fract_y
_atom_site_fract_z
Si Si1 0.964511 0.436255 0.425750
Si Si2 0.910911 0.860012 0.696477
Si Si3 0.035380 0.987264 0.390475
Si Si4 0.806181 0.289978 0.521591
O O1 0.238650 0.431460 0.380413
O O2 0.000000 0.500000 0.500000
O O3 0.739340 0.460905 0.359934
O O4 0.880394 0.364235 0.473946
O O5 0.703363 0.851569 0.775955
O O6 0.818324 0.807112 0.618671
O O7 0.888680 0.939582 0.656433
O O8 0.000000 0.000000 0.500000
O O9 0.570846 0.252212 0.470549
#
# Coordination Sequence:
#
# PCOD9459275 Si02
#       4
#     8   8   8   8
#     4  10  19  36  67  93 129 156 232 276 314 386
#     4  12  25  41  67 103 139 171 223 291 346 398
#     4  10  19  36  67  93 129 163 222 269 327 396
#     4  12  25  41  67 103 127 188 239 272 333 423
#
# _framework density 21.935631000000001
#
# number of rings (size 3 to 8) (size 9 to 14) (size 15 to 20)
#    0.000    1.000    5.000    4.500    7.000    0.000 
#    0.000    0.000    0.000   30.000    0.000    0.000 
#    0.000    0.000    0.000    0.000    0.000    0.000 
#
# Total GULP energy -178695.195918 kJ/mol
# GULP energy per Si atom -5584.224872 kJ/mol
# Density = 2.188570 g / cm^3
# Si number density = 21.935631 Si / 1000 Ang^3
#
#
#
# Elastic Constant Matrix: (Units=GPa)
#
#
# Indices 1 2 3 4 5 6 
#
# 1 193.0194 42.3943 4.4836 0.0000 0.0000 0.0000
# 2 42.3943 98.0939 15.8981 0.0000 0.0000 0.0000
# 3 4.4836 15.8981 35.9425 0.0000 0.0000 0.0000
# 4 0.0000 0.0000 0.0000 17.9005 0.0000 0.0000
# 5 0.0000 0.0000 0.0000 0.0000 31.2476 0.0000
# 6 0.0000 0.0000 0.0000 0.0000 0.0000 45.9530
#
#
#
# Elastic Compliance Matrix: (Units=1/GPa)
#
#
# Indices 1 2 3 4 5 6 
#
# 1 0.005730 -0.002543 0.000410 0.000000 0.000000 0.000000
# 2 -0.002543 0.012110 -0.005039 0.000000 0.000000 0.000000
# 3 0.000410 -0.005039 0.030000 0.000000 0.000000 0.000000
# 4 0.000000 0.000000 0.000000 0.055864 0.000000 0.000000
# 5 0.000000 0.000000 0.000000 0.000000 0.032002 0.000000
# 6 0.000000 0.000000 0.000000 0.000000 0.000000 0.021761
#
#
# Mechanical properties :
#
#
# Convention : Reuss Voigt Hill
#
# Bulk Modulus (GPa) = 29.85462 50.28978 40.07220
# Shear Modulus (GPa) = 27.32575 36.63884 31.98229
#
# Velocity S-wave (km/s) = 3.53331 4.09135 3.82253
# Velocity P-wave (km/s) = 5.50321 6.73013 6.14736
#
# Compressibility (1/GPa) = 0.03349565
#
# Stress axis : x y z
#
# Youngs Moduli (GPa) = 174.52659 82.57665 33.33322
#
# Poissons Ratio (x) = 0.20997 -0.01367
# Poissons Ratio (y) = 0.44378 0.16798
# Poissons Ratio (z) = -0.07155 0.41613
#
# Static dielectric constant tensor:
#      x y z
#    x 2.469690 0.000000 0.000000 
#    y 0.000000 3.185370 0.000000 
#    z 0.000000 0.000000 1.710580 
# 
# From -- ./inp_files/655.got.cif
#   From: 2010.05.17/outbox.cif.g08.bks.cpg/sg61_1_cif.got.tgz:655.got - 2010.06.03 15:17:17.
