data_PCOD9459026
_publ_section_title
;
Structure prediction by ZEFSAII (Michael W. Deem and Ramdas Pophale) SiO2 
 PCOD9459026
Probable space group: P B C A
;
_chemical_formula_sum "Si O2"
_cell_formula_units_Z 64
_cell_length_a 19.175942
_cell_length_b 8.980690
_cell_length_c 17.658540
_cell_angle_alpha 90.000000
_cell_angle_beta 90.000000
_cell_angle_gamma 90.000000
_cell_volume 3041.033514
_symmetry_space_group_name_H-M "P B C A"
_symmetry_group_IT_number 61
_symmetry_cell_setting 'orthorhombic'
loop_
_space_group_symop_operation_xyz
x,y,z
1/2-x,-y,1/2+z
1/2+x,1/2-y,-z
-x,1/2+y,1/2-z
-x,-y,-z
1/2+x,y,1/2-z
1/2-x,1/2+y,z
x,1/2-y,1/2+z
loop_
_atom_site_type_symbol
_atom_site_label
_atom_site_fract_x
_atom_site_fract_y
_atom_site_fract_z
Si Si1 0.999266 0.713708 0.294625
Si Si2 0.174599 0.378612 0.086248
Si Si3 0.610267 0.969434 0.043107
Si Si4 0.081419 0.102616 0.058147
Si Si5 0.330180 0.122898 0.643490
Si Si6 0.007080 0.718144 0.037491
Si Si7 0.094215 0.003744 0.286482
Si Si8 0.407648 0.096280 0.177276
O O1 0.971074 0.656974 0.374986
O O2 0.937312 0.662991 0.237585
O O3 0.064160 0.616997 0.261466
O O4 0.030351 0.880968 0.289476
O O5 0.147872 0.215322 0.062363
O O6 0.251075 0.389405 0.119380
O O7 0.117048 0.438344 0.146655
O O8 0.170825 0.490598 0.014771
O O9 0.552968 0.095302 0.023144
O O10 0.626602 0.989123 0.130678
O O11 0.570731 0.818324 0.019913
O O12 0.114884 0.944270 0.081334
O O13 0.036558 0.133375 0.981897
O O14 0.343262 0.294641 0.662586
O O15 0.352789 0.039144 0.720207
O O16 0.036035 0.670948 0.119548
#
# Coordination Sequence:
#
# PCOD9459026 Si02
#       8
#     8   8   8   8   8   8   8   8
#     4  10  18  30  52  82 108 124 168 212 280 302
#     4  10  20  36  57  70  97 148 190 198 237 317
#     4   9  16  30  56  78  97 133 182 217 233 305
#     4  10  19  32  55  77 103 134 165 224 253 312
#     4  10  22  33  50  78 108 141 162 208 266 310
#     4   9  16  29  54  82  98 126 174 212 258 298
#     4  10  18  32  53  80 110 131 166 219 262 309
#     4  10  19  32  55  77 103 134 165 224 253 312
#
# _framework density 21.045476000000001
#
# number of rings (size 3 to 8) (size 9 to 14) (size 15 to 20)
#    0.000    2.250    2.500    2.250    0.000    0.500 
#    0.000    0.000    5.500    6.000    0.000    0.000 
#    0.000    0.000    0.000    0.000    0.000    0.000 
#
# Total GULP energy -356519.021459 kJ/mol
# GULP energy per Si atom -5570.609710 kJ/mol
# Density = 2.099758 g / cm^3
# Si number density = 21.045476 Si / 1000 Ang^3
#
#
#
# Elastic Constant Matrix: (Units=GPa)
#
#
# Indices 1 2 3 4 5 6 
#
# 1 89.3121 3.9845 35.8845 0.0000 0.0000 0.0000
# 2 3.9845 58.6226 -16.9705 0.0000 0.0000 0.0000
# 3 35.8845 -16.9705 80.2807 0.0000 0.0000 0.0000
# 4 0.0000 0.0000 0.0000 16.6381 0.0000 0.0000
# 5 0.0000 0.0000 0.0000 0.0000 22.2445 0.0000
# 6 0.0000 0.0000 0.0000 0.0000 0.0000 6.5344
#
#
#
# Elastic Compliance Matrix: (Units=1/GPa)
#
#
# Indices 1 2 3 4 5 6 
#
# 1 0.014116 -0.002968 -0.006937 0.000000 0.000000 0.000000
# 2 -0.002968 0.018794 0.005299 0.000000 0.000000 0.000000
# 3 -0.006937 0.005299 0.016677 0.000000 0.000000 0.000000
# 4 0.000000 0.000000 0.000000 0.060103 0.000000 0.000000
# 5 0.000000 0.000000 0.000000 0.000000 0.044955 0.000000
# 6 0.000000 0.000000 0.000000 0.000000 0.000000 0.153036
#
#
# Mechanical properties :
#
#
# Convention : Reuss Voigt Hill
#
# Bulk Modulus (GPa) = 24.76666 30.44581 27.60623
# Shear Modulus (GPa) = 15.13536 22.77118 18.95327
#
# Velocity S-wave (km/s) = 2.68465 3.29294 3.00423
# Velocity P-wave (km/s) = 4.62639 5.38108 5.01795
#
# Compressibility (1/GPa) = 0.04037686
#
# Stress axis : x y z
#
# Youngs Moduli (GPa) = 70.83975 53.20823 59.96149
#
# Poissons Ratio (x) = 0.15791 0.41596
# Poissons Ratio (y) = 0.21023 -0.31776
# Poissons Ratio (z) = 0.49143 -0.28197
#
# Static dielectric constant tensor:
#      x y z
#    x 1.779650 0.000000 0.000000 
#    y 0.000000 1.837240 0.000000 
#    z 0.000000 0.000000 1.815590 
# 
# From -- ./inp_files/9712.got.cif
#   From: 2010.05.17/outbox.cif.g08.bks.cpg/sg61_5_cif.got.tgz:9712.got - 2010.06.03 15:17:17.
