data_PCOD9459619
_publ_section_title
;
Structure prediction by ZEFSAII (Michael W. Deem and Ramdas Pophale) SiO2 
 PCOD9459619
Probable space group: P B C A
;
_chemical_formula_sum "Si O2"
_cell_formula_units_Z 52
_cell_length_a 5.378263
_cell_length_b 18.311781
_cell_length_c 22.140329
_cell_angle_alpha 90.000000
_cell_angle_beta 90.000000
_cell_angle_gamma 90.000000
_cell_volume 2180.503015
_symmetry_space_group_name_H-M "P B C A"
_symmetry_group_IT_number 61
_symmetry_cell_setting 'orthorhombic'
loop_
_space_group_symop_operation_xyz
x,y,z
1/2-x,-y,1/2+z
1/2+x,1/2-y,-z
-x,1/2+y,1/2-z
-x,-y,-z
1/2+x,y,1/2-z
1/2-x,1/2+y,z
x,1/2-y,1/2+z
loop_
_atom_site_type_symbol
_atom_site_label
_atom_site_fract_x
_atom_site_fract_y
_atom_site_fract_z
Si Si1 0.581245 0.786130 0.571876
Si Si2 0.774106 0.083056 0.406077
Si Si3 0.568612 0.050979 0.587869
Si Si4 0.190997 0.467814 0.279334
Si Si5 0.417269 0.282958 0.071458
Si Si6 0.000000 0.000000 0.500000
Si Si7 0.856073 0.368658 0.770525
O O1 0.463486 0.866242 0.580222
O O2 0.852773 0.765365 0.596576
O O3 0.600810 0.769935 0.500452
O O4 0.353455 0.736818 0.597141
O O5 0.864631 0.106759 0.340136
O O6 0.978755 0.078070 0.458362
O O7 0.677740 0.999156 0.407267
O O8 0.716068 0.043839 0.650166
O O9 0.484257 0.133217 0.579380
O O10 0.749296 0.024144 0.535763
O O11 0.427556 0.438238 0.243748
O O12 0.168381 0.554995 0.267110
O O13 0.599401 0.329422 0.754165
#
# Coordination Sequence:
#
# PCOD9459619 Si02
#       7
#     8   8   8   8   8   4   8
#     4  10  24  43  62  88 135 186 217 255 336 419
#     4  12  25  39  69 100 138 166 228 291 331 393
#     4  12  25  39  69 100 138 166 228 291 331 393
#     4  10  20  39  61  94 124 174 213 269 332 401
#     4  10  24  43  62  88 135 186 217 255 336 419
#     4  12  26  36  60 110 132 160 212 296 338 370
#     4  10  20  39  61  94 124 174 213 269 332 401
#
# _framework density 23.847708999999998
#
# number of rings (size 3 to 8) (size 9 to 14) (size 15 to 20)
#    0.000    1.231    4.615    2.308    4.308    0.000 
#    0.000    0.000    0.000    5.538    0.000    0.000 
#    0.000    0.000    0.000    0.000    0.000    0.000 
#
# Total GULP energy -289859.936328 kJ/mol
# GULP energy per Si atom -5574.229545 kJ/mol
# Density = 2.379343 g / cm^3
# Si number density = 23.847709 Si / 1000 Ang^3
#
#
#
# Elastic Constant Matrix: (Units=GPa)
#
#
# Indices 1 2 3 4 5 6 
#
# 1 73.5454 26.4916 22.5704 0.0000 0.0000 0.0000
# 2 26.4916 71.7324 -9.5962 0.0000 0.0000 0.0000
# 3 22.5704 -9.5962 66.7475 0.0000 0.0000 0.0000
# 4 0.0000 0.0000 0.0000 2.7007 0.0000 0.0000
# 5 0.0000 0.0000 0.0000 0.0000 -0.4548 0.0000
# 6 0.0000 0.0000 0.0000 0.0000 0.0000 35.2927
#
#
#
# Elastic Compliance Matrix: (Units=1/GPa)
#
#
# Indices 1 2 3 4 5 6 
#
# 1 0.018746 -0.007924 -0.007478 0.000000 0.000000 0.000000
# 2 -0.007924 0.017563 0.005204 0.000000 0.000000 0.000000
# 3 -0.007478 0.005204 0.018259 0.000000 0.000000 0.000000
# 4 0.000000 0.000000 0.000000 0.370273 0.000000 0.000000
# 5 0.000000 0.000000 0.000000 0.000000 -2.198983 0.000000
# 6 0.000000 0.000000 0.000000 0.000000 0.000000 0.028334
#
#
# Mechanical properties :
#
#
# Convention : Reuss Voigt Hill
#
# Bulk Modulus (GPa) = 29.26246 32.32857 30.79552
# Shear Modulus (GPa) = -2.91712 19.01171 8.04730
#
# Velocity S-wave (km/s) = -1.10720 2.82656 1.83896
# Velocity P-wave (km/s) = 3.26538 4.92324 4.17738
#
# Compressibility (1/GPa) = 0.03417347
#
# Stress axis : x y z
#
# Youngs Moduli (GPa) = 53.34434 56.93723 54.76826
#
# Poissons Ratio (x) = 0.45115 0.40956
# Poissons Ratio (y) = 0.42268 -0.28503
# Poissons Ratio (z) = 0.39891 -0.29632
#
# Static dielectric constant tensor:
#      x y z
#    x 1.757180 0.000000 0.000000 
#    y 0.000000 1.894500 0.000000 
#    z 0.000000 0.000000 2.175910 
# 
# From -- ./inp_files/9964.got.cif
#   From: 2010.05.17/outbox.cif.g08.bks.cpg/sg61_5_cif.got.tgz:9964.got - 2010.06.03 15:17:17.
