data_PCOD9459446
_publ_section_title
;
Structure prediction by ZEFSAII (Michael W. Deem and Ramdas Pophale) SiO2 
 PCOD9459446
Probable space group: P B C A
;
_chemical_formula_sum "Si O2"
_cell_formula_units_Z 48
_cell_length_a 16.453042
_cell_length_b 8.655781
_cell_length_c 16.810418
_cell_angle_alpha 90.000000
_cell_angle_beta 90.000000
_cell_angle_gamma 90.000000
_cell_volume 2394.037664
_symmetry_space_group_name_H-M "P B C A"
_symmetry_group_IT_number 61
_symmetry_cell_setting 'orthorhombic'
loop_
_space_group_symop_operation_xyz
x,y,z
1/2-x,-y,1/2+z
1/2+x,1/2-y,-z
-x,1/2+y,1/2-z
-x,-y,-z
1/2+x,y,1/2-z
1/2-x,1/2+y,z
x,1/2-y,1/2+z
loop_
_atom_site_type_symbol
_atom_site_label
_atom_site_fract_x
_atom_site_fract_y
_atom_site_fract_z
Si Si1 0.073032 0.585953 0.427569
Si Si2 0.231158 0.611285 0.528609
Si Si3 0.689547 0.515821 0.202724
Si Si4 0.164254 0.874011 0.620002
Si Si5 0.003588 0.249981 0.440592
Si Si6 0.825217 0.810061 0.620391
O O1 0.145669 0.551339 0.491916
O O2 0.122661 0.614996 0.347091
O O3 0.019892 0.430700 0.417047
O O4 0.021230 0.724325 0.466610
O O5 0.211185 0.713383 0.605405
O O6 0.296703 0.486084 0.554162
O O7 0.269189 0.712159 0.457464
O O8 0.678816 0.554267 0.294221
O O9 0.673446 0.340700 0.175933
O O10 0.778951 0.559245 0.170306
O O11 0.071338 0.832615 0.601717
O O12 0.085535 0.164033 0.415247
#
# Coordination Sequence:
#
# PCOD9459446 Si02
#       6
#     8   8   8   8   8   8
#     4   8  17  36  57  75 108 156 189 219 275 342
#     4  10  20  36  60  83 111 155 196 228 274 343
#     4  10  20  36  57  81 115 151 184 229 289 343
#     4  11  21  35  56  87 117 144 187 239 288 335
#     4   9  18  34  56  82 109 141 190 237 273 326
#     4  10  20  39  60  80 110 152 194 228 273 337
#
# _framework density 20.049810999999998
#
# number of rings (size 3 to 8) (size 9 to 14) (size 15 to 20)
#    0.000    2.333    0.000    4.000    0.000    0.667 
#    0.000   16.667    0.000    0.000    0.000    0.000 
#    0.000    0.000    0.000    0.000    0.000    0.000 
#
# Total GULP energy -267442.135192 kJ/mol
# GULP energy per Si atom -5571.711150 kJ/mol
# Density = 2.000418 g / cm^3
# Si number density = 20.049811 Si / 1000 Ang^3
#
#
#
# Elastic Constant Matrix: (Units=GPa)
#
#
# Indices 1 2 3 4 5 6 
#
# 1 100.4634 32.7774 18.5932 0.0000 0.0000 0.0000
# 2 32.7774 38.7544 22.4543 0.0000 0.0000 0.0000
# 3 18.5932 22.4543 92.0190 0.0000 0.0000 0.0000
# 4 0.0000 0.0000 0.0000 12.3447 0.0000 0.0000
# 5 0.0000 0.0000 0.0000 0.0000 18.9078 0.0000
# 6 0.0000 0.0000 0.0000 0.0000 0.0000 24.6160
#
#
#
# Elastic Compliance Matrix: (Units=1/GPa)
#
#
# Indices 1 2 3 4 5 6 
#
# 1 0.013748 -0.011668 0.000069 0.000000 0.000000 0.000000
# 2 -0.011668 0.039955 -0.007392 0.000000 0.000000 0.000000
# 3 0.000069 -0.007392 0.012657 0.000000 0.000000 0.000000
# 4 0.000000 0.000000 0.000000 0.081006 0.000000 0.000000
# 5 0.000000 0.000000 0.000000 0.000000 0.052888 0.000000
# 6 0.000000 0.000000 0.000000 0.000000 0.000000 0.040624
#
#
# Mechanical properties :
#
#
# Convention : Reuss Voigt Hill
#
# Bulk Modulus (GPa) = 35.23780 42.09850 38.66815
# Shear Modulus (GPa) = 17.34195 21.66784 19.50490
#
# Velocity S-wave (km/s) = 2.94418 3.29097 3.12239
# Velocity P-wave (km/s) = 5.40101 5.95677 5.68569
#
# Compressibility (1/GPa) = 0.02837861
#
# Stress axis : x y z
#
# Youngs Moduli (GPa) = 72.73919 25.02844 79.00685
#
# Poissons Ratio (x) = 0.29202 -0.00547
# Poissons Ratio (y) = 0.84869 0.58403
# Poissons Ratio (z) = -0.00504 0.18501
#
# Static dielectric constant tensor:
#      x y z
#    x 1.735160 0.000000 0.000000 
#    y 0.000000 1.756610 0.000000 
#    z 0.000000 0.000000 1.698780 
# 
# From -- ./inp_files/9615.got.cif
#   From: 2010.05.17/outbox.cif.g08.bks.cpg/sg61_5_cif.got.tgz:9615.got - 2010.06.03 15:17:17.
