data_PCOD9459633
_publ_section_title
;
Structure prediction by ZEFSAII (Michael W. Deem and Ramdas Pophale) SiO2 
 PCOD9459633
Probable space group: P B C A
;
_chemical_formula_sum "Si O2"
_cell_formula_units_Z 48
_cell_length_a 8.795628
_cell_length_b 27.601224
_cell_length_c 10.001676
_cell_angle_alpha 90.000000
_cell_angle_beta 90.000000
_cell_angle_gamma 90.000000
_cell_volume 2428.107869
_symmetry_space_group_name_H-M "P B C A"
_symmetry_group_IT_number 61
_symmetry_cell_setting 'orthorhombic'
loop_
_space_group_symop_operation_xyz
x,y,z
1/2-x,-y,1/2+z
1/2+x,1/2-y,-z
-x,1/2+y,1/2-z
-x,-y,-z
1/2+x,y,1/2-z
1/2-x,1/2+y,z
x,1/2-y,1/2+z
loop_
_atom_site_type_symbol
_atom_site_label
_atom_site_fract_x
_atom_site_fract_y
_atom_site_fract_z
Si Si1 0.409950 0.468101 0.890294
Si Si2 0.953762 0.610524 0.796594
Si Si3 0.231734 0.730536 0.602277
Si Si4 0.862317 0.126779 0.943173
Si Si5 0.073459 0.995288 0.354994
Si Si6 0.419379 0.292334 0.388032
O O1 0.503603 0.468141 0.753285
O O2 0.251551 0.495291 0.864076
O O3 0.500000 0.500000 0.000000
O O4 0.377564 0.414450 0.946009
O O5 0.781150 0.611519 0.848211
O O6 0.047097 0.650305 0.881194
O O7 0.983377 0.626898 0.644402
O O8 0.025935 0.557888 0.807237
O O9 0.178310 0.681977 0.521601
O O10 0.412944 0.730977 0.610610
O O11 0.165979 0.723493 0.751803
O O12 0.168916 0.775397 0.518996
O O13 0.000000 0.000000 0.500000
#
# Coordination Sequence:
#
# PCOD9459633 Si02
#       6
#     8   8   8   8   8   8
#     4  12  24  41  62  89 125 161 206 252 298 361
#     4  10  20  39  64  88 121 162 205 243 307 365
#     4  10  21  40  63  91 122 158 204 253 306 367
#     4  10  21  39  62  91 121 161 205 249 303 366
#     4  12  23  40  62  90 126 162 204 251 299 360
#     4  10  21  39  65  90 123 160 205 254 306 365
#
# _framework density 19.76848
#
# number of rings (size 3 to 8) (size 9 to 14) (size 15 to 20)
#    0.000    1.333    3.333    3.000    0.000    1.333 
#    3.000    1.667    0.000    0.000    0.000    0.000 
#    0.000    0.000    0.000    0.000    0.000    0.000 
#
# Total GULP energy -268115.782971 kJ/mol
# GULP energy per Si atom -5585.745479 kJ/mol
# Density = 1.972349 g / cm^3
# Si number density = 19.768480 Si / 1000 Ang^3
#
#
#
# Elastic Constant Matrix: (Units=GPa)
#
#
# Indices 1 2 3 4 5 6 
#
# 1 99.3829 -3.5325 18.6644 0.0000 0.0000 0.0000
# 2 -3.5325 41.2248 -7.1743 0.0000 0.0000 0.0000
# 3 18.6644 -7.1743 50.2334 0.0000 0.0000 0.0000
# 4 0.0000 0.0000 0.0000 34.2103 0.0000 0.0000
# 5 0.0000 0.0000 0.0000 0.0000 35.1112 0.0000
# 6 0.0000 0.0000 0.0000 0.0000 0.0000 21.5503
#
#
#
# Elastic Compliance Matrix: (Units=1/GPa)
#
#
# Indices 1 2 3 4 5 6 
#
# 1 0.010819 0.000233 -0.003987 0.000000 0.000000 0.000000
# 2 0.000233 0.024881 0.003467 0.000000 0.000000 0.000000
# 3 -0.003987 0.003467 0.021883 0.000000 0.000000 0.000000
# 4 0.000000 0.000000 0.000000 0.029231 0.000000 0.000000
# 5 0.000000 0.000000 0.000000 0.000000 0.028481 0.000000
# 6 0.000000 0.000000 0.000000 0.000000 0.000000 0.046403
#
#
# Mechanical properties :
#
#
# Convention : Reuss Voigt Hill
#
# Bulk Modulus (GPa) = 17.54080 22.97293 20.25686
# Shear Modulus (GPa) = 27.58253 30.36661 28.97457
#
# Velocity S-wave (km/s) = 3.73939 3.92358 3.83259
# Velocity P-wave (km/s) = 5.24752 5.67205 5.46391
#
# Compressibility (1/GPa) = 0.05700995
#
# Stress axis : x y z
#
# Youngs Moduli (GPa) = 92.42941 40.19206 45.69679
#
# Poissons Ratio (x) = -0.00938 0.18217
# Poissons Ratio (y) = -0.02156 -0.15842
# Poissons Ratio (z) = 0.36847 -0.13933
#
# Static dielectric constant tensor:
#      x y z
#    x 1.688410 0.000000 0.000000 
#    y 0.000000 1.703510 0.000000 
#    z 0.000000 0.000000 1.726670 
# 
# From -- ./inp_files/1879.got.cif
#   From: 2010.05.17/outbox.cif.g08.bks.cpg/sg61_1_cif.got.tgz:1879.got - 2010.06.03 15:17:17.
