data_PCOD9459640
_publ_section_title
;
Structure prediction by ZEFSAII (Michael W. Deem and Ramdas Pophale) SiO2 
 PCOD9459640
Probable space group: P B C A
;
_chemical_formula_sum "Si O2"
_cell_formula_units_Z 64
_cell_length_a 11.032807
_cell_length_b 15.551841
_cell_length_c 17.620844
_cell_angle_alpha 90.000000
_cell_angle_beta 90.000000
_cell_angle_gamma 90.000000
_cell_volume 3023.392523
_symmetry_space_group_name_H-M "P B C A"
_symmetry_group_IT_number 61
_symmetry_cell_setting 'orthorhombic'
loop_
_space_group_symop_operation_xyz
x,y,z
1/2-x,-y,1/2+z
1/2+x,1/2-y,-z
-x,1/2+y,1/2-z
-x,-y,-z
1/2+x,y,1/2-z
1/2-x,1/2+y,z
x,1/2-y,1/2+z
loop_
_atom_site_type_symbol
_atom_site_label
_atom_site_fract_x
_atom_site_fract_y
_atom_site_fract_z
Si Si1 0.340165 0.147292 0.406807
Si Si2 0.652661 0.084550 0.709554
Si Si3 0.328593 0.084203 0.570623
Si Si4 0.633135 0.683513 0.655514
Si Si5 0.538512 0.054923 0.333937
Si Si6 0.951057 0.275754 0.318525
Si Si7 0.080279 0.063254 0.623063
Si Si8 0.419406 0.595919 0.339659
O O1 0.371885 0.103635 0.486257
O O2 0.317118 0.249563 0.405334
O O3 0.467822 0.138842 0.361443
O O4 0.216041 0.109757 0.371214
O O5 0.779043 0.103033 0.670800
O O6 0.572355 0.170188 0.700243
O O7 0.656210 0.061022 0.797844
O O8 0.574335 0.010573 0.672143
O O9 0.374976 0.164258 0.623012
O O10 0.183776 0.077229 0.562427
O O11 0.373839 0.995066 0.608555
O O12 0.623229 0.726361 0.739410
O O13 0.506908 0.644616 0.629310
O O14 0.590508 0.070040 0.249916
O O15 0.998286 0.182629 0.343959
O O16 0.997060 0.979062 0.619953
#
# Coordination Sequence:
#
# PCOD9459640 Si02
#       8
#     8   8   8   8   8   8   8   8
#     4  12  25  41  68 100 130 169 223 272 330 398
#     4   9  18  37  65  92 121 166 215 267 320 378
#     4  11  25  44  63  95 143 173 203 273 353 394
#     4  11  20  39  65  93 127 169 222 269 318 396
#     4  10  23  41  68  96 130 173 221 272 327 393
#     4  10  20  39  65  92 127 170 217 268 319 389
#     4  10  23  39  63  95 129 168 212 270 335 388
#     4  11  23  40  71  99 126 173 235 276 309 398
#
# _framework density 21.168275000000001
#
# number of rings (size 3 to 8) (size 9 to 14) (size 15 to 20)
#    0.000    1.500    3.750    1.875    3.500    1.500 
#    2.250    1.250    0.000    0.000    0.000    0.000 
#    0.000    0.000    0.000    0.000    0.000    0.000 
#
# Total GULP energy -357105.118295 kJ/mol
# GULP energy per Si atom -5579.767473 kJ/mol
# Density = 2.112009 g / cm^3
# Si number density = 21.168275 Si / 1000 Ang^3
#
#
#
# Elastic Constant Matrix: (Units=GPa)
#
#
# Indices 1 2 3 4 5 6 
#
# 1 81.1578 17.2688 15.6985 0.0000 0.0000 0.0000
# 2 17.2688 86.6872 3.8127 0.0000 0.0000 0.0000
# 3 15.6985 3.8127 32.5408 0.0000 0.0000 0.0000
# 4 0.0000 0.0000 0.0000 10.0726 0.0000 0.0000
# 5 0.0000 0.0000 0.0000 0.0000 18.9846 0.0000
# 6 0.0000 0.0000 0.0000 0.0000 0.0000 32.7848
#
#
#
# Elastic Compliance Matrix: (Units=1/GPa)
#
#
# Indices 1 2 3 4 5 6 
#
# 1 0.014120 -0.002526 -0.006516 0.000000 0.000000 0.000000
# 2 -0.002526 0.012047 -0.000193 0.000000 0.000000 0.000000
# 3 -0.006516 -0.000193 0.033897 0.000000 0.000000 0.000000
# 4 0.000000 0.000000 0.000000 0.099279 0.000000 0.000000
# 5 0.000000 0.000000 0.000000 0.000000 0.052674 0.000000
# 6 0.000000 0.000000 0.000000 0.000000 0.000000 0.030502
#
#
# Mechanical properties :
#
#
# Convention : Reuss Voigt Hill
#
# Bulk Modulus (GPa) = 24.04180 30.43841 27.24010
# Shear Modulus (GPa) = 18.19154 23.27546 20.73350
#
# Velocity S-wave (km/s) = 2.93469 3.31954 3.13303
# Velocity P-wave (km/s) = 4.78177 5.39471 5.09746
#
# Compressibility (1/GPa) = 0.04159422
#
# Stress axis : x y z
#
# Youngs Moduli (GPa) = 70.82403 83.00518 29.50151
#
# Poissons Ratio (x) = 0.20968 0.19222
# Poissons Ratio (y) = 0.17891 0.00569
# Poissons Ratio (z) = 0.46146 0.01601
#
# Static dielectric constant tensor:
#      x y z
#    x 1.766510 0.000000 0.000000 
#    y 0.000000 1.805850 0.000000 
#    z 0.000000 0.000000 1.791380 
# 
# From -- ./inp_files/9311.got.cif
#   From: 2010.05.17/outbox.cif.g08.bks.cpg/sg61_5_cif.got.tgz:9311.got - 2010.06.03 15:17:17.
