data_PCOD9459405
_publ_section_title
;
Structure prediction by ZEFSAII (Michael W. Deem and Ramdas Pophale) SiO2 
 PCOD9459405
Probable space group: P B C A
;
_chemical_formula_sum "Si O2"
_cell_formula_units_Z 64
_cell_length_a 5.270905
_cell_length_b 18.467262
_cell_length_c 30.202193
_cell_angle_alpha 90.000000
_cell_angle_beta 90.000000
_cell_angle_gamma 90.000000
_cell_volume 2939.856810
_symmetry_space_group_name_H-M "P B C A"
_symmetry_group_IT_number 61
_symmetry_cell_setting 'orthorhombic'
loop_
_space_group_symop_operation_xyz
x,y,z
1/2-x,-y,1/2+z
1/2+x,1/2-y,-z
-x,1/2+y,1/2-z
-x,-y,-z
1/2+x,y,1/2-z
1/2-x,1/2+y,z
x,1/2-y,1/2+z
loop_
_atom_site_type_symbol
_atom_site_label
_atom_site_fract_x
_atom_site_fract_y
_atom_site_fract_z
Si Si1 0.554857 0.559873 0.227085
Si Si2 0.896640 0.884221 0.224962
Si Si3 0.804232 0.411905 0.042645
Si Si4 0.639973 0.455229 0.868868
Si Si5 0.048711 0.618267 0.627545
Si Si6 0.798818 0.713938 0.938175
Si Si7 0.049304 0.841032 0.979271
Si Si8 0.121481 0.064831 0.424609
O O1 0.839870 0.585132 0.238055
O O2 0.588293 0.472113 0.228233
O O3 0.435460 0.574727 0.179101
O O4 0.146142 0.858006 0.250448
O O5 0.906264 0.865969 0.173113
O O6 0.628716 0.400127 0.085917
O O7 0.926672 0.490125 0.049271
O O8 0.004563 0.347863 0.046781
O O9 0.631574 0.403767 0.998882
O O10 0.697351 0.542303 0.864326
O O11 0.385586 0.445542 0.897812
O O12 0.886307 0.422232 0.892276
O O13 0.205015 0.686526 0.609323
O O14 0.922337 0.791855 0.942001
O O15 0.589558 0.708813 0.977223
O O16 0.305496 0.873427 0.959309
#
# Coordination Sequence:
#
# PCOD9459405 Si02
#       8
#     8   8   8   8   8   8   8   8
#     4   9  16  28  49  78 111 144 176 221 279 337
#     4   9  18  29  50  81 114 143 177 225 277 333
#     4  10  21  38  56  80 112 153 188 233 287 334
#     4  10  20  35  54  83 116 147 184 231 285 339
#     4   9  20  34  55  81 114 151 183 227 287 339
#     4  11  21  38  57  78 113 150 193 237 285 334
#     4  11  24  37  57  81 109 150 199 240 278 337
#     4  11  23  37  57  83 115 150 187 238 285 337
#
# _framework density 21.769767999999999
#
# number of rings (size 3 to 8) (size 9 to 14) (size 15 to 20)
#    0.000    2.000    2.500    1.125    3.500    3.500 
#    0.000    0.000    0.000    0.000    0.000    5.250 
#    0.000    0.000    0.000    0.000    0.000    0.000 
#
# Total GULP energy -357379.047053 kJ/mol
# GULP energy per Si atom -5584.047610 kJ/mol
# Density = 2.172022 g / cm^3
# Si number density = 21.769768 Si / 1000 Ang^3
#
#
#
# Elastic Constant Matrix: (Units=GPa)
#
#
# Indices 1 2 3 4 5 6 
#
# 1 59.9201 -3.1573 -5.0834 0.0000 0.0000 0.0000
# 2 -3.1573 40.4770 7.0643 0.0000 0.0000 0.0000
# 3 -5.0834 7.0643 58.4375 0.0000 0.0000 0.0000
# 4 0.0000 0.0000 0.0000 14.4367 0.0000 0.0000
# 5 0.0000 0.0000 0.0000 0.0000 26.5454 0.0000
# 6 0.0000 0.0000 0.0000 0.0000 0.0000 19.8379
#
#
#
# Elastic Compliance Matrix: (Units=1/GPa)
#
#
# Indices 1 2 3 4 5 6 
#
# 1 0.016859 0.001082 0.001336 0.000000 0.000000 0.000000
# 2 0.001082 0.025307 -0.002965 0.000000 0.000000 0.000000
# 3 0.001336 -0.002965 0.017587 0.000000 0.000000 0.000000
# 4 0.000000 0.000000 0.000000 0.069268 0.000000 0.000000
# 5 0.000000 0.000000 0.000000 0.000000 0.037671 0.000000
# 6 0.000000 0.000000 0.000000 0.000000 0.000000 0.050409
#
#
# Mechanical properties :
#
#
# Convention : Reuss Voigt Hill
#
# Bulk Modulus (GPa) = 17.04786 17.38689 17.21737
# Shear Modulus (GPa) = 21.03058 22.83139 21.93099
#
# Velocity S-wave (km/s) = 3.11150 3.24198 3.17741
# Velocity P-wave (km/s) = 4.55594 4.69233 4.62464
#
# Compressibility (1/GPa) = 0.05865840
#
# Stress axis : x y z
#
# Youngs Moduli (GPa) = 59.31475 39.51430 56.86035
#
# Poissons Ratio (x) = -0.04275 -0.07595
# Poissons Ratio (y) = -0.06417 0.16860
# Poissons Ratio (z) = -0.07923 0.11717
#
# Static dielectric constant tensor:
#      x y z
#    x 1.868050 0.000000 0.000000 
#    y 0.000000 1.807850 0.000000 
#    z 0.000000 0.000000 1.824190 
# 
# From -- ./inp_files/1106.got.cif
#   From: 2010.05.17/outbox.cif.g08.bks.cpg/sg61_1_cif.got.tgz:1106.got - 2010.06.03 15:17:17.
