data_PCOD9459213
_publ_section_title
;
Structure prediction by ZEFSAII (Michael W. Deem and Ramdas Pophale) SiO2 
 PCOD9459213
Probable space group: P B C A
;
_chemical_formula_sum "Si O2"
_cell_formula_units_Z 56
_cell_length_a 32.101338
_cell_length_b 5.601008
_cell_length_c 12.933331
_cell_angle_alpha 90.000000
_cell_angle_beta 90.000000
_cell_angle_gamma 90.000000
_cell_volume 2325.410986
_symmetry_space_group_name_H-M "P B C A"
_symmetry_group_IT_number 61
_symmetry_cell_setting 'orthorhombic'
loop_
_space_group_symop_operation_xyz
x,y,z
1/2-x,-y,1/2+z
1/2+x,1/2-y,-z
-x,1/2+y,1/2-z
-x,-y,-z
1/2+x,y,1/2-z
1/2-x,1/2+y,z
x,1/2-y,1/2+z
loop_
_atom_site_type_symbol
_atom_site_label
_atom_site_fract_x
_atom_site_fract_y
_atom_site_fract_z
Si Si1 0.083247 0.130838 0.133511
Si Si2 0.355102 0.505916 0.560466
Si Si3 0.854525 0.199587 0.752329
Si Si4 0.403134 0.332492 0.920628
Si Si5 0.263201 0.108393 0.805856
Si Si6 0.768432 0.659951 0.929016
Si Si7 0.003643 0.752300 0.934280
O O1 0.108681 0.371278 0.124342
O O2 0.035126 0.208208 0.143251
O O3 0.106349 0.968897 0.217941
O O4 0.090992 0.003318 0.020546
O O5 0.339053 0.301524 0.637575
O O6 0.377650 0.395722 0.462622
O O7 0.317078 0.682319 0.543558
O O8 0.873437 0.399318 0.674612
O O9 0.812863 0.081309 0.707653
O O10 0.449955 0.262247 0.888580
O O11 0.255028 0.367998 0.853572
O O12 0.239448 0.142380 0.695245
O O13 0.754540 0.397745 0.963477
O O14 0.000000 0.500000 0.000000
O O15 0.000000 0.000000 0.000000
#
# Coordination Sequence:
#
# PCOD9459213 Si02
#       7
#     8   8   8   8   8   8   8
#     4  10  22  41  68  93 128 182 220 274 348 410
#     4  11  21  39  67  91 127 176 222 266 342 395
#     4  11  23  40  64  99 131 173 230 282 336 410
#     4  10  24  42  63  99 134 172 222 287 331 400
#     4  10  19  37  61  87 128 175 213 274 336 392
#     4  10  19  34  61  89 120 169 217 264 322 395
#     4  10  20  44  68  92 134 176 214 270 344 398
#
# _framework density 24.081766999999999
#
# number of rings (size 3 to 8) (size 9 to 14) (size 15 to 20)
#    0.000    1.714    4.286    1.714    2.000    1.143 
#    2.571    1.429    0.000    0.000    0.000    0.000 
#    0.000    0.000    0.000    0.000    0.000    0.000 
#
# Total GULP energy -312428.203094 kJ/mol
# GULP energy per Si atom -5579.075055 kJ/mol
# Density = 2.402696 g / cm^3
# Si number density = 24.081767 Si / 1000 Ang^3
#
#
#
# Elastic Constant Matrix: (Units=GPa)
#
#
# Indices 1 2 3 4 5 6 
#
# 1 149.2628 3.9233 35.5982 0.0000 0.0000 0.0000
# 2 3.9233 98.5700 27.0236 0.0000 0.0000 0.0000
# 3 35.5982 27.0236 58.5206 0.0000 0.0000 0.0000
# 4 0.0000 0.0000 0.0000 25.1217 0.0000 0.0000
# 5 0.0000 0.0000 0.0000 0.0000 14.1207 0.0000
# 6 0.0000 0.0000 0.0000 0.0000 0.0000 38.4960
#
#
#
# Elastic Compliance Matrix: (Units=1/GPa)
#
#
# Indices 1 2 3 4 5 6 
#
# 1 0.007950 0.001156 -0.005370 0.000000 0.000000 0.000000
# 2 0.001156 0.011784 -0.006144 0.000000 0.000000 0.000000
# 3 -0.005370 -0.006144 0.023192 0.000000 0.000000 0.000000
# 4 0.000000 0.000000 0.000000 0.039806 0.000000 0.000000
# 5 0.000000 0.000000 0.000000 0.000000 0.070818 0.000000
# 6 0.000000 0.000000 0.000000 0.000000 0.000000 0.025977
#
#
# Mechanical properties :
#
#
# Convention : Reuss Voigt Hill
#
# Bulk Modulus (GPa) = 45.02782 48.82706 46.92744
# Shear Modulus (GPa) = 24.07952 31.53491 27.80721
#
# Velocity S-wave (km/s) = 3.16556 3.62262 3.40177
# Velocity P-wave (km/s) = 5.66564 6.14958 5.91257
#
# Compressibility (1/GPa) = 0.02220849
#
# Stress axis : x y z
#
# Youngs Moduli (GPa) = 125.78901 84.86364 43.11894
#
# Poissons Ratio (x) = -0.09808 0.23153
# Poissons Ratio (y) = -0.14537 0.26494
# Poissons Ratio (z) = 0.67543 0.52144
#
# Static dielectric constant tensor:
#      x y z
#    x 3.392720 0.000000 0.000000 
#    y 0.000000 1.990570 0.000000 
#    z 0.000000 0.000000 2.071640 
# 
# From -- ./inp_files/615.got.cif
#   From: 2010.05.17/outbox.cif.g08.bks.cpg/sg61_1_cif.got.tgz:615.got - 2010.06.03 15:17:17.
