data_PCOD9459996
_publ_section_title
;
Structure prediction by ZEFSAII (Michael W. Deem and Ramdas Pophale) SiO2 
 PCOD9459996
Probable space group: P B C A
;
_chemical_formula_sum "Si O2"
_cell_formula_units_Z 48
_cell_length_a 14.506370
_cell_length_b 10.435532
_cell_length_c 11.892940
_cell_angle_alpha 90.000000
_cell_angle_beta 90.000000
_cell_angle_gamma 90.000000
_cell_volume 1800.373337
_symmetry_space_group_name_H-M "P B C A"
_symmetry_group_IT_number 61
_symmetry_cell_setting 'orthorhombic'
loop_
_space_group_symop_operation_xyz
x,y,z
1/2-x,-y,1/2+z
1/2+x,1/2-y,-z
-x,1/2+y,1/2-z
-x,-y,-z
1/2+x,y,1/2-z
1/2-x,1/2+y,z
x,1/2-y,1/2+z
loop_
_atom_site_type_symbol
_atom_site_label
_atom_site_fract_x
_atom_site_fract_y
_atom_site_fract_z
Si Si1 0.594848 0.942182 0.623171
Si Si2 0.240806 0.131172 0.212537
Si Si3 0.923064 0.726904 0.656847
Si Si4 0.516154 0.549128 0.696951
Si Si5 0.385158 0.554474 0.491489
Si Si6 0.307373 0.126425 0.579316
O O1 0.677379 0.893448 0.700369
O O2 0.503251 0.948803 0.701603
O O3 0.602941 0.879661 0.500697
O O4 0.612184 0.094238 0.604287
O O5 0.158060 0.210303 0.269818
O O6 0.285218 0.231755 0.124063
O O7 0.201006 0.994305 0.166351
O O8 0.005988 0.681535 0.737091
O O9 0.942953 0.827246 0.560127
O O10 0.571944 0.468519 0.386590
O O11 0.401138 0.046235 0.891285
O O12 0.280908 0.592532 0.502876
#
# Coordination Sequence:
#
# PCOD9459996 Si02
#       6
#     8   8   8   8   8   8
#     4  10  22  40  60  97 127 164 218 269 319 399
#     4  12  21  39  59  98 125 168 215 271 321 385
#     4  10  21  40  63  91 132 165 213 276 327 378
#     4   9  22  41  60  92 127 168 222 260 326 402
#     4  11  19  40  65  87 124 185 202 271 331 386
#     4  12  23  36  67  94 128 167 218 271 332 383
#
# _framework density 26.661135000000002
#
# number of rings (size 3 to 8) (size 9 to 14) (size 15 to 20)
#    1.000    0.333    6.667    1.000    0.000    0.000 
#    3.000    0.000    0.000    2.000    0.000    0.000 
#    0.000    0.000    0.000    0.000    0.000    0.000 
#
# Total GULP energy -268263.281496 kJ/mol
# GULP energy per Si atom -5588.818364 kJ/mol
# Density = 2.660045 g / cm^3
# Si number density = 26.661135 Si / 1000 Ang^3
#
#
#
# Elastic Constant Matrix: (Units=GPa)
#
#
# Indices 1 2 3 4 5 6 
#
# 1 66.1730 -0.3378 29.5187 0.0000 0.0000 0.0000
# 2 -0.3378 90.4808 7.4643 0.0000 0.0000 0.0000
# 3 29.5187 7.4643 109.4998 0.0000 0.0000 0.0000
# 4 0.0000 0.0000 0.0000 48.8087 0.0000 0.0000
# 5 0.0000 0.0000 0.0000 0.0000 45.9782 0.0000
# 6 0.0000 0.0000 0.0000 0.0000 0.0000 31.3383
#
#
#
# Elastic Compliance Matrix: (Units=1/GPa)
#
#
# Indices 1 2 3 4 5 6 
#
# 1 0.017196 0.000449 -0.004666 0.000000 0.000000 0.000000
# 2 0.000449 0.011126 -0.000880 0.000000 0.000000 0.000000
# 3 -0.004666 -0.000880 0.010450 0.000000 0.000000 0.000000
# 4 0.000000 0.000000 0.000000 0.020488 0.000000 0.000000
# 5 0.000000 0.000000 0.000000 0.000000 0.021749 0.000000
# 6 0.000000 0.000000 0.000000 0.000000 0.000000 0.031910
#
#
# Mechanical properties :
#
#
# Convention : Reuss Voigt Hill
#
# Bulk Modulus (GPa) = 34.99055 37.71599 36.35327
# Shear Modulus (GPa) = 37.69624 40.52561 39.11092
#
# Velocity S-wave (km/s) = 3.76427 3.90298 3.83425
# Velocity P-wave (km/s) = 5.66089 5.87266 5.76775
#
# Compressibility (1/GPa) = 0.02857915
#
# Stress axis : x y z
#
# Youngs Moduli (GPa) = 58.15405 89.87712 95.69115
#
# Poissons Ratio (x) = -0.04037 0.44651
# Poissons Ratio (y) = -0.02612 0.08416
# Poissons Ratio (z) = 0.27136 0.07905
#
# Static dielectric constant tensor:
#      x y z
#    x 2.088840 0.000000 0.000000 
#    y 0.000000 2.131600 0.000000 
#    z 0.000000 0.000000 2.127980 
# 
# From -- ./inp_files/8305.got.cif
#   From: 2010.05.17/outbox.cif.g08.bks.cpg/sg61_5_cif.got.tgz:8305.got - 2010.06.03 15:17:17.
