data_PCOD9459212
_publ_section_title
;
Structure prediction by ZEFSAII (Michael W. Deem and Ramdas Pophale) SiO2 
 PCOD9459212
Probable space group: P B C A
;
_chemical_formula_sum "Si O2"
_cell_formula_units_Z 48
_cell_length_a 7.637355
_cell_length_b 22.335482
_cell_length_c 12.625627
_cell_angle_alpha 90.000000
_cell_angle_beta 90.000000
_cell_angle_gamma 90.000000
_cell_volume 2153.730021
_symmetry_space_group_name_H-M "P B C A"
_symmetry_group_IT_number 61
_symmetry_cell_setting 'orthorhombic'
loop_
_space_group_symop_operation_xyz
x,y,z
1/2-x,-y,1/2+z
1/2+x,1/2-y,-z
-x,1/2+y,1/2-z
-x,-y,-z
1/2+x,y,1/2-z
1/2-x,1/2+y,z
x,1/2-y,1/2+z
loop_
_atom_site_type_symbol
_atom_site_label
_atom_site_fract_x
_atom_site_fract_y
_atom_site_fract_z
Si Si1 0.251215 0.644718 0.106428
Si Si2 0.602097 0.751471 0.272641
Si Si3 0.755109 0.149109 0.902563
Si Si4 0.053704 0.933825 0.963643
Si Si5 0.556907 0.066530 0.026412
Si Si6 0.234055 0.244958 0.927866
O O1 0.419089 0.601647 0.109911
O O2 0.265258 0.687306 0.002653
O O3 0.085823 0.601521 0.092530
O O4 0.211552 0.691764 0.198857
O O5 0.711002 0.811483 0.300867
O O6 0.436739 0.752487 0.351927
O O7 0.592549 0.752631 0.146060
O O8 0.919574 0.106813 0.930893
O O9 0.592993 0.104334 0.917976
O O10 0.737337 0.197211 0.997480
O O11 0.251645 0.935004 0.919573
O O12 0.000000 0.000000 0.000000
O O13 0.500000 0.000000 0.000000
#
# Coordination Sequence:
#
# PCOD9459212 Si02
#       6
#     8   8   8   8   8   8
#     4  11  21  40  58  84 121 149 188 238 284 343
#     4  11  23  35  59  88 115 153 187 235 294 340
#     4   9  21  38  54  84 119 143 192 232 282 343
#     4  10  19  34  61  85 109 153 193 231 284 338
#     4  10  19  34  61  85 109 153 193 231 284 338
#     4  11  23  35  59  88 115 153 187 235 294 340
#
# _framework density 22.286916999999999
#
# number of rings (size 3 to 8) (size 9 to 14) (size 15 to 20)
#    1.000    0.667    5.000    0.000    4.667    0.000 
#    0.000    0.000    0.000   12.000    0.000    0.000 
#    0.000    0.000    0.000    0.000    0.000    0.000 
#
# Total GULP energy -267939.149130 kJ/mol
# GULP energy per Si atom -5582.065607 kJ/mol
# Density = 2.223619 g / cm^3
# Si number density = 22.286917 Si / 1000 Ang^3
#
#
#
# Elastic Constant Matrix: (Units=GPa)
#
#
# Indices 1 2 3 4 5 6 
#
# 1 124.0542 48.2256 9.8185 0.0000 0.0000 0.0000
# 2 48.2256 172.5879 26.1511 0.0000 0.0000 0.0000
# 3 9.8185 26.1511 57.0424 0.0000 0.0000 0.0000
# 4 0.0000 0.0000 0.0000 10.3312 0.0000 0.0000
# 5 0.0000 0.0000 0.0000 0.0000 22.1505 0.0000
# 6 0.0000 0.0000 0.0000 0.0000 0.0000 50.1977
#
#
#
# Elastic Compliance Matrix: (Units=1/GPa)
#
#
# Indices 1 2 3 4 5 6 
#
# 1 0.009053 -0.002465 -0.000428 0.000000 0.000000 0.000000
# 2 -0.002465 0.006898 -0.002738 0.000000 0.000000 0.000000
# 3 -0.000428 -0.002738 0.018860 0.000000 0.000000 0.000000
# 4 0.000000 0.000000 0.000000 0.096794 0.000000 0.000000
# 5 0.000000 0.000000 0.000000 0.000000 0.045146 0.000000
# 6 0.000000 0.000000 0.000000 0.000000 0.000000 0.019921
#
#
# Mechanical properties :
#
#
# Convention : Reuss Voigt Hill
#
# Bulk Modulus (GPa) = 42.46569 58.00831 50.23700
# Shear Modulus (GPa) = 23.17142 34.50184 28.83663
#
# Velocity S-wave (km/s) = 3.22792 3.93883 3.60096
# Velocity P-wave (km/s) = 5.74352 6.83888 6.31500
#
# Compressibility (1/GPa) = 0.02354842
#
# Stress axis : x y z
#
# Youngs Moduli (GPa) = 110.45989 144.97502 53.02286
#
# Poissons Ratio (x) = 0.35733 0.02271
# Poissons Ratio (y) = 0.27226 0.14518
# Poissons Ratio (z) = 0.04731 0.39694
#
# Static dielectric constant tensor:
#      x y z
#    x 1.952680 0.000000 0.000000 
#    y 0.000000 1.801590 0.000000 
#    z 0.000000 0.000000 1.839430 
# 
# From -- ./inp_files/4856.got.cif
#   From: 2010.05.17/outbox.cif.g08.bks.cpg/sg61_3_cif.got.tgz:4856.got - 2010.06.03 15:17:17.
