data_PCOD9459717
_publ_section_title
;
Structure prediction by ZEFSAII (Michael W. Deem and Ramdas Pophale) SiO2 
 PCOD9459717
Probable space group: P B C A
;
_chemical_formula_sum "Si O2"
_cell_formula_units_Z 48
_cell_length_a 13.577026
_cell_length_b 17.824176
_cell_length_c 8.169636
_cell_angle_alpha 90.000000
_cell_angle_beta 90.000000
_cell_angle_gamma 90.000000
_cell_volume 1977.046201
_symmetry_space_group_name_H-M "P B C A"
_symmetry_group_IT_number 61
_symmetry_cell_setting 'orthorhombic'
loop_
_space_group_symop_operation_xyz
x,y,z
1/2-x,-y,1/2+z
1/2+x,1/2-y,-z
-x,1/2+y,1/2-z
-x,-y,-z
1/2+x,y,1/2-z
1/2-x,1/2+y,z
x,1/2-y,1/2+z
loop_
_atom_site_type_symbol
_atom_site_label
_atom_site_fract_x
_atom_site_fract_y
_atom_site_fract_z
Si Si1 0.143936 0.471912 0.487842
Si Si2 0.556649 0.086080 0.830849
Si Si3 0.861501 0.137246 0.124844
Si Si4 0.861828 0.433757 0.986961
Si Si5 0.333274 0.789565 0.996714
Si Si6 0.081063 0.157290 0.167124
O O1 0.066761 0.441923 0.354141
O O2 0.253318 0.444341 0.440791
O O3 0.152495 0.294978 0.551977
O O4 0.111293 0.430056 0.653370
O O5 0.626668 0.157500 0.858138
O O6 0.445834 0.099078 0.894676
O O7 0.601565 0.017027 0.935344
O O8 0.852648 0.111830 0.315565
O O9 0.775480 0.191108 0.064505
O O10 0.970253 0.169909 0.109848
O O11 0.854126 0.060893 0.019787
O O12 0.403975 0.813384 0.848390
#
# Coordination Sequence:
#
# PCOD9459717 Si02
#       6
#     8   8   8   8   8   8
#     4  11  23  42  73 111 139 182 244 298 357 426
#     4  10  22  40  69 104 140 183 236 293 344 426
#     4  11  24  44  75 102 146 187 236 302 355 424
#     4  10  20  41  71 104 141 189 229 291 358 413
#     4  12  25  46  69 101 142 192 238 288 362 425
#     4  12  27  45  69 105 142 189 240 294 357 433
#
# _framework density 24.278642999999999
#
# number of rings (size 3 to 8) (size 9 to 14) (size 15 to 20)
#    0.000    1.000    5.000    1.500    0.000    4.000 
#    0.000    0.000    0.000    0.000    0.000    0.000 
#    0.000    0.000    0.000    0.000    0.000    0.000 
#
# Total GULP energy -268959.692723 kJ/mol
# GULP energy per Si atom -5603.326932 kJ/mol
# Density = 2.422338 g / cm^3
# Si number density = 24.278643 Si / 1000 Ang^3
#
#
#
# Elastic Constant Matrix: (Units=GPa)
#
#
# Indices 1 2 3 4 5 6 
#
# 1 152.7933 35.1541 -1.7048 0.0000 0.0000 0.0000
# 2 35.1541 71.2950 24.6019 0.0000 0.0000 0.0000
# 3 -1.7048 24.6019 49.1406 0.0000 0.0000 0.0000
# 4 0.0000 0.0000 0.0000 25.5699 0.0000 0.0000
# 5 0.0000 0.0000 0.0000 0.0000 33.1949 0.0000
# 6 0.0000 0.0000 0.0000 0.0000 0.0000 24.9958
#
#
#
# Elastic Compliance Matrix: (Units=1/GPa)
#
#
# Indices 1 2 3 4 5 6 
#
# 1 0.007648 -0.004669 0.002603 0.000000 0.000000 0.000000
# 2 -0.004669 0.019806 -0.010078 0.000000 0.000000 0.000000
# 3 0.002603 -0.010078 0.025485 0.000000 0.000000 0.000000
# 4 0.000000 0.000000 0.000000 0.039109 0.000000 0.000000
# 5 0.000000 0.000000 0.000000 0.000000 0.030125 0.000000
# 6 0.000000 0.000000 0.000000 0.000000 0.000000 0.040007
#
#
# Mechanical properties :
#
#
# Convention : Reuss Voigt Hill
#
# Bulk Modulus (GPa) = 34.90225 43.25903 39.08064
# Shear Modulus (GPa) = 25.50772 31.09729 28.30250
#
# Velocity S-wave (km/s) = 3.24485 3.58278 3.41799
# Velocity P-wave (km/s) = 5.33344 5.91367 5.63104
#
# Compressibility (1/GPa) = 0.02865145
#
# Stress axis : x y z
#
# Youngs Moduli (GPa) = 130.75064 50.48926 39.23801
#
# Poissons Ratio (x) = 0.23575 -0.10214
# Poissons Ratio (y) = 0.61052 0.39543
# Poissons Ratio (z) = -0.34035 0.50882
#
# Static dielectric constant tensor:
#      x y z
#    x 1.918480 0.000000 0.000000 
#    y 0.000000 1.901710 0.000000 
#    z 0.000000 0.000000 1.961200 
# 
# From -- ./inp_files/2870.got.cif
#   From: 2010.05.17/outbox.cif.g08.bks.cpg/sg61_2_cif.got.tgz:2870.got - 2010.06.03 15:17:17.
