data_PCOD9459824
_publ_section_title
;
Structure prediction by ZEFSAII (Michael W. Deem and Ramdas Pophale) SiO2 
 PCOD9459824
Probable space group: P B C A
;
_chemical_formula_sum "Si O2"
_cell_formula_units_Z 40
_cell_length_a 8.006885
_cell_length_b 15.765233
_cell_length_c 13.538823
_cell_angle_alpha 90.000000
_cell_angle_beta 90.000000
_cell_angle_gamma 90.000000
_cell_volume 1709.011146
_symmetry_space_group_name_H-M "P B C A"
_symmetry_group_IT_number 61
_symmetry_cell_setting 'orthorhombic'
loop_
_space_group_symop_operation_xyz
x,y,z
1/2-x,-y,1/2+z
1/2+x,1/2-y,-z
-x,1/2+y,1/2-z
-x,-y,-z
1/2+x,y,1/2-z
1/2-x,1/2+y,z
x,1/2-y,1/2+z
loop_
_atom_site_type_symbol
_atom_site_label
_atom_site_fract_x
_atom_site_fract_y
_atom_site_fract_z
Si Si1 0.824269 0.816262 0.193512
Si Si2 0.622403 0.569127 0.816338
Si Si3 0.452529 0.066198 0.412620
Si Si4 0.380476 0.579876 0.507576
Si Si5 0.498029 0.745713 0.605344
O O1 0.704962 0.897339 0.216954
O O2 0.694731 0.759612 0.133861
O O3 0.993246 0.856431 0.151174
O O4 0.886422 0.774295 0.296650
O O5 0.522938 0.481445 0.816454
O O6 0.771910 0.565002 0.893463
O O7 0.254544 0.077372 0.420050
O O8 0.535283 0.157877 0.425425
O O9 0.500000 0.000000 0.500000
O O10 0.500000 0.500000 0.500000
O O11 0.462776 0.672005 0.525503
#
# Coordination Sequence:
#
# PCOD9459824 Si02
#       5
#     8   8   8   8   8
#     4   9  19  38  60  83 111 150 200 249 294 341
#     4   9  19  36  57  81 114 151 192 244 294 345
#     4  10  22  37  55  84 119 157 192 235 289 348
#     4  10  21  37  58  85 117 153 190 236 291 349
#     4  10  21  38  61  87 115 153 196 242 291 347
#
# _framework density 23.405346999999999
#
# number of rings (size 3 to 8) (size 9 to 14) (size 15 to 20)
#    0.000    2.400    0.000    1.200    0.000    8.000 
#    0.000    8.000    0.000    0.000    0.000    0.000 
#    0.000    0.000    0.000    0.000    0.000    0.000 
#
# Total GULP energy -223218.359523 kJ/mol
# GULP energy per Si atom -5580.458988 kJ/mol
# Density = 2.335208 g / cm^3
# Si number density = 23.405347 Si / 1000 Ang^3
#
#
#
# Elastic Constant Matrix: (Units=GPa)
#
#
# Indices 1 2 3 4 5 6 
#
# 1 113.7485 57.0228 18.8875 0.0000 0.0000 0.0000
# 2 57.0228 205.4681 38.1666 0.0000 0.0000 0.0000
# 3 18.8875 38.1666 35.6898 0.0000 0.0000 0.0000
# 4 0.0000 0.0000 0.0000 33.6170 0.0000 0.0000
# 5 0.0000 0.0000 0.0000 0.0000 34.2297 0.0000
# 6 0.0000 0.0000 0.0000 0.0000 0.0000 33.4055
#
#
#
# Elastic Compliance Matrix: (Units=1/GPa)
#
#
# Indices 1 2 3 4 5 6 
#
# 1 0.010469 -0.002341 -0.003037 0.000000 0.000000 0.000000
# 2 -0.002341 0.006597 -0.005816 0.000000 0.000000 0.000000
# 3 -0.003037 -0.005816 0.035846 0.000000 0.000000 0.000000
# 4 0.000000 0.000000 0.000000 0.029747 0.000000 0.000000
# 5 0.000000 0.000000 0.000000 0.000000 0.029214 0.000000
# 6 0.000000 0.000000 0.000000 0.000000 0.000000 0.029935
#
#
# Mechanical properties :
#
#
# Convention : Reuss Voigt Hill
#
# Bulk Modulus (GPa) = 32.76070 64.78447 48.77258
# Shear Modulus (GPa) = 28.67455 36.30574 32.49015
#
# Velocity S-wave (km/s) = 3.50398 3.94277 3.72983
# Velocity P-wave (km/s) = 5.51344 6.96180 6.27952
#
# Compressibility (1/GPa) = 0.03052438
#
# Stress axis : x y z
#
# Youngs Moduli (GPa) = 95.51720 151.58297 27.89749
#
# Poissons Ratio (x) = 0.35492 0.08471
# Poissons Ratio (y) = 0.22365 0.16224
# Poissons Ratio (z) = 0.29004 0.88157
#
# Static dielectric constant tensor:
#      x y z
#    x 1.907950 0.000000 0.000000 
#    y 0.000000 1.944960 0.000000 
#    z 0.000000 0.000000 2.013100 
# 
# From -- ./inp_files/2141.got.cif
#   From: 2010.05.17/outbox.cif.g08.bks.cpg/sg61_2_cif.got.tgz:2141.got - 2010.06.03 15:17:17.
