data_PCOD9459352
_publ_section_title
;
Structure prediction by ZEFSAII (Michael W. Deem and Ramdas Pophale) SiO2 
 PCOD9459352
Probable space group: P B C A
;
_chemical_formula_sum "Si O2"
_cell_formula_units_Z 64
_cell_length_a 11.309945
_cell_length_b 23.041159
_cell_length_c 10.309032
_cell_angle_alpha 90.000000
_cell_angle_beta 90.000000
_cell_angle_gamma 90.000000
_cell_volume 2686.474370
_symmetry_space_group_name_H-M "P B C A"
_symmetry_group_IT_number 61
_symmetry_cell_setting 'orthorhombic'
loop_
_space_group_symop_operation_xyz
x,y,z
1/2-x,-y,1/2+z
1/2+x,1/2-y,-z
-x,1/2+y,1/2-z
-x,-y,-z
1/2+x,y,1/2-z
1/2-x,1/2+y,z
x,1/2-y,1/2+z
loop_
_atom_site_type_symbol
_atom_site_label
_atom_site_fract_x
_atom_site_fract_y
_atom_site_fract_z
Si Si1 0.842057 0.352301 0.278737
Si Si2 0.334632 0.284383 0.704927
Si Si3 0.695047 0.501536 0.181816
Si Si4 0.417506 0.612116 0.825323
Si Si5 0.363113 0.644564 0.094391
Si Si6 0.710598 0.872281 0.569527
Si Si7 0.171421 0.956766 0.548496
Si Si8 0.976216 0.627647 0.130822
O O1 0.849621 0.283013 0.274644
O O2 0.716027 0.371561 0.219843
O O3 0.836076 0.373478 0.426030
O O4 0.970947 0.375306 0.232522
O O5 0.209626 0.298525 0.635616
O O6 0.329845 0.318603 0.841580
O O7 0.438361 0.316256 0.624099
O O8 0.590907 0.456800 0.146011
O O9 0.677827 0.568448 0.144167
O O10 0.705056 0.498651 0.337041
O O11 0.805978 0.482166 0.093452
O O12 0.429603 0.648340 0.959021
O O13 0.263384 0.595902 0.069525
O O14 0.438505 0.623983 0.217348
O O15 0.852169 0.866643 0.560142
O O16 0.045742 0.928456 0.579727
#
# Coordination Sequence:
#
# PCOD9459352 Si02
#       8
#     8   8   8   8   8   8   8   8
#     4  12  29  47  68 110 148 191 248 315 378 444
#     4  10  23  42  70  99 140 186 239 308 364 446
#     4  11  22  46  71 104 152 195 246 312 377 465
#     4  11  28  46  69 108 151 190 239 310 382 443
#     4   9  20  43  67  97 132 187 243 293 368 445
#     4  11  24  46  73 106 138 197 254 296 378 457
#     4  10  21  39  68 105 144 192 247 303 372 444
#     4  10  19  41  74 102 131 191 258 294 364 457
#
# _framework density 23.823046000000001
#
# number of rings (size 3 to 8) (size 9 to 14) (size 15 to 20)
#    0.000    1.500    3.750    1.500    5.250    5.000 
#    2.250    0.000    0.000    0.000    0.000    0.000 
#    0.000    0.000    0.000    0.000    0.000    0.000 
#
# Total GULP energy -357785.107959 kJ/mol
# GULP energy per Si atom -5590.392312 kJ/mol
# Density = 2.376882 g / cm^3
# Si number density = 23.823046 Si / 1000 Ang^3
#
#
#
# Elastic Constant Matrix: (Units=GPa)
#
#
# Indices 1 2 3 4 5 6 
#
# 1 131.2379 10.5788 16.6290 0.0000 0.0000 0.0000
# 2 10.5788 93.3282 1.6480 0.0000 0.0000 0.0000
# 3 16.6290 1.6480 45.7502 0.0000 0.0000 0.0000
# 4 0.0000 0.0000 0.0000 -4.1906 0.0000 0.0000
# 5 0.0000 0.0000 0.0000 0.0000 45.1790 0.0000
# 6 0.0000 0.0000 0.0000 0.0000 0.0000 27.1573
#
#
#
# Elastic Compliance Matrix: (Units=1/GPa)
#
#
# Indices 1 2 3 4 5 6 
#
# 1 0.008056 -0.000862 -0.002897 0.000000 0.000000 0.000000
# 2 -0.000862 0.010814 -0.000076 0.000000 0.000000 0.000000
# 3 -0.002897 -0.000076 0.022914 0.000000 0.000000 0.000000
# 4 0.000000 0.000000 0.000000 -0.238632 0.000000 0.000000
# 5 0.000000 0.000000 0.000000 0.000000 0.022134 0.000000
# 6 0.000000 0.000000 0.000000 0.000000 0.000000 0.036822
#
#
# Mechanical properties :
#
#
# Convention : Reuss Voigt Hill
#
# Bulk Modulus (GPa) = 29.31435 36.44755 32.88095
# Shear Modulus (GPa) = -42.07004 29.72653 -6.17176
#
# Velocity S-wave (km/s) = -4.20687 3.53626 -1.61130
# Velocity P-wave (km/s) = 3.35637 5.65739 3.22031
#
# Compressibility (1/GPa) = 0.03411299
#
# Stress axis : x y z
#
# Youngs Moduli (GPa) = 124.12588 92.47332 43.64215
#
# Poissons Ratio (x) = 0.07971 0.12644
# Poissons Ratio (y) = 0.10700 0.00333
# Poissons Ratio (z) = 0.35962 0.00705
#
# Static dielectric constant tensor:
#      x y z
#    x 1.990970 0.000000 0.000000 
#    y 0.000000 1.883860 0.000000 
#    z 0.000000 0.000000 1.951570 
# 
# From -- ./inp_files/5474.got.cif
#   From: 2010.05.17/outbox.cif.g08.bks.cpg/sg61_3_cif.got.tgz:5474.got - 2010.06.03 15:17:17.
