data_PCOD9459758
_publ_section_title
;
Structure prediction by ZEFSAII (Michael W. Deem and Ramdas Pophale) SiO2 
 PCOD9459758
Probable space group: P B C A
;
_chemical_formula_sum "Si O2"
_cell_formula_units_Z 56
_cell_length_a 5.517107
_cell_length_b 13.420049
_cell_length_c 32.172531
_cell_angle_alpha 90.000000
_cell_angle_beta 90.000000
_cell_angle_gamma 90.000000
_cell_volume 2382.049250
_symmetry_space_group_name_H-M "P B C A"
_symmetry_group_IT_number 61
_symmetry_cell_setting 'orthorhombic'
loop_
_space_group_symop_operation_xyz
x,y,z
1/2-x,-y,1/2+z
1/2+x,1/2-y,-z
-x,1/2+y,1/2-z
-x,-y,-z
1/2+x,y,1/2-z
1/2-x,1/2+y,z
x,1/2-y,1/2+z
loop_
_atom_site_type_symbol
_atom_site_label
_atom_site_fract_x
_atom_site_fract_y
_atom_site_fract_z
Si Si1 0.750180 0.010586 0.856352
Si Si2 0.810418 0.240900 0.730659
Si Si3 0.210490 0.534556 0.236233
Si Si4 0.605599 0.186614 0.495613
Si Si5 0.542326 0.703338 0.642684
Si Si6 0.212328 0.836599 0.594178
Si Si7 0.081022 0.128370 0.916596
O O1 0.791545 0.961495 0.811657
O O2 0.593804 0.932676 0.884161
O O3 0.641918 0.117653 0.843956
O O4 0.963159 0.043729 0.887904
O O5 0.571227 0.203632 0.753572
O O6 0.821384 0.357354 0.742828
O O7 0.785048 0.224756 0.681389
O O8 0.439121 0.490152 0.260809
O O9 0.843972 0.256322 0.506214
O O10 0.672601 0.142509 0.450774
O O11 0.585854 0.110912 0.534278
O O12 0.417216 0.803233 0.626969
O O13 0.660546 0.653509 0.602352
O O14 0.056858 0.735530 0.588925
#
# Coordination Sequence:
#
# PCOD9459758 Si02
#       7
#     8   8   8   8   8   8   8
#     4  11  26  42  67 106 138 182 238 298 355 422
#     4  10  23  41  68  94 128 180 228 279 343 409
#     4  10  23  42  64  94 133 175 229 280 339 417
#     4  10  20  43  71 102 138 189 238 282 352 430
#     4  11  24  43  68  98 141 180 233 294 355 415
#     4  10  22  43  71  97 136 191 229 287 354 433
#     4  10  24  42  68 100 142 179 233 295 353 421
#
# _framework density 23.509169
#
# number of rings (size 3 to 8) (size 9 to 14) (size 15 to 20)
#    0.000    1.714    1.429    1.714   10.000    2.857 
#    0.000    0.714    0.000    0.000    0.000    0.000 
#    0.000    0.000    0.000    0.000    0.000    0.000 
#
# Total GULP energy -312319.849727 kJ/mol
# GULP energy per Si atom -5577.140174 kJ/mol
# Density = 2.345566 g / cm^3
# Si number density = 23.509169 Si / 1000 Ang^3
#
#
#
# Elastic Constant Matrix: (Units=GPa)
#
#
# Indices 1 2 3 4 5 6 
#
# 1 96.3509 94.3489 -17.1697 0.0000 0.0000 0.0000
# 2 94.3489-1138.9848 408.6126 0.0000 0.0000 0.0000
# 3 -17.1697 408.6126 47.7507 0.0000 0.0000 0.0000
# 4 0.0000 0.0000 0.0000 26.5133 0.0000 0.0000
# 5 0.0000 0.0000 0.0000 0.0000 21.5146 0.0000
# 6 0.0000 0.0000 0.0000 0.0000 0.0000 -3.6252
#
#
#
# Elastic Compliance Matrix: (Units=1/GPa)
#
#
# Indices 1 2 3 4 5 6 
#
# 1 0.009734 0.000507 -0.000835 0.000000 0.000000 0.000000
# 2 0.000507 -0.000189 0.001803 0.000000 0.000000 0.000000
# 3 -0.000835 0.001803 0.005217 0.000000 0.000000 0.000000
# 4 0.000000 0.000000 0.000000 0.037717 0.000000 0.000000
# 5 0.000000 0.000000 0.000000 0.000000 0.046480 0.000000
# 6 0.000000 0.000000 0.000000 0.000000 0.000000 -0.275847
#
#
# Mechanical properties :
#
#
# Convention : Reuss Voigt Hill
#
# Bulk Modulus (GPa) = 56.46754 -2.58883 26.93936
# Shear Modulus (GPa) = -28.74678 -89.83112 -59.28895
#
# Velocity S-wave (km/s) = -3.50064 -6.18822 -5.02735
# Velocity P-wave (km/s) = 2.78069 7.22235 4.71328
#
# Compressibility (1/GPa) = 0.01770929
#
# Stress axis : x y z
#
# Youngs Moduli (GPa) = 102.73504 -5281.10084 191.67081
#
# Poissons Ratio (x) = 2.67554 0.16011
# Poissons Ratio (y) = -0.05205 -0.34549
# Poissons Ratio (z) = 0.08582 9.51924
#
# Static dielectric constant tensor:
#      x y z
#    x 1.964460 0.000000 0.000000 
#    y 0.000000 2.000560 0.000000 
#    z 0.000000 0.000000 1.837110 
# 
# From -- ./inp_files/597.got.cif
#   From: 2010.05.17/outbox.cif.g08.bks.cpg/sg61_1_cif.got.tgz:597.got - 2010.06.03 15:17:17.
