data_PCOD9459876
_publ_section_title
;
Structure prediction by ZEFSAII (Michael W. Deem and Ramdas Pophale) SiO2 
 PCOD9459876
Probable space group: P B C A
;
_chemical_formula_sum "Si O2"
_cell_formula_units_Z 48
_cell_length_a 14.863551
_cell_length_b 18.158595
_cell_length_c 8.268231
_cell_angle_alpha 90.000000
_cell_angle_beta 90.000000
_cell_angle_gamma 90.000000
_cell_volume 2231.605493
_symmetry_space_group_name_H-M "P B C A"
_symmetry_group_IT_number 61
_symmetry_cell_setting 'orthorhombic'
loop_
_space_group_symop_operation_xyz
x,y,z
1/2-x,-y,1/2+z
1/2+x,1/2-y,-z
-x,1/2+y,1/2-z
-x,-y,-z
1/2+x,y,1/2-z
1/2-x,1/2+y,z
x,1/2-y,1/2+z
loop_
_atom_site_type_symbol
_atom_site_label
_atom_site_fract_x
_atom_site_fract_y
_atom_site_fract_z
Si Si1 0.231300 0.923570 0.464367
Si Si2 0.776176 0.573492 0.911252
Si Si3 0.096717 0.199167 0.459800
Si Si4 0.401674 0.356394 0.005597
Si Si5 0.597420 0.700173 0.625175
Si Si6 0.401094 0.855306 0.593429
O O1 0.263026 0.931773 0.279857
O O2 0.166850 0.852880 0.466114
O O3 0.318852 0.910710 0.574719
O O4 0.183102 0.998161 0.520460
O O5 0.678625 0.585601 0.994283
O O6 0.833979 0.645110 0.953026
O O7 0.092278 0.175987 0.273880
O O8 0.121024 0.284942 0.479545
O O9 0.000015 0.191516 0.544444
O O10 0.405847 0.324230 0.188332
O O11 0.378645 0.286106 0.893371
O O12 0.500623 0.384255 0.957597
#
# Coordination Sequence:
#
# PCOD9459876 Si02
#       6
#     8   8   8   8   8   8
#     4  11  24  40  59  85 118 155 194 237 288 345
#     4  11  24  40  59  85 118 155 194 237 288 345
#     4  11  22  38  62  88 116 151 191 238 287 339
#     4  10  21  38  61  87 114 148 191 238 286 338
#     4  10  21  38  61  87 114 148 191 238 286 338
#     4  11  22  38  62  88 116 151 191 238 287 339
#
# _framework density 21.509177999999999
#
# number of rings (size 3 to 8) (size 9 to 14) (size 15 to 20)
#    0.000    1.333    0.000    8.000    0.000    9.333 
#    0.000    0.000    0.000    0.000    0.000    0.000 
#    0.000    0.000    0.000    0.000    0.000    0.000 
#
# Total GULP energy -268627.077942 kJ/mol
# GULP energy per Si atom -5596.397457 kJ/mol
# Density = 2.146022 g / cm^3
# Si number density = 21.509178 Si / 1000 Ang^3
#
#
#
# Elastic Constant Matrix: (Units=GPa)
#
#
# Indices 1 2 3 4 5 6 
#
# 1 34.9577 20.9417 -7.1156 0.0000 0.0000 0.0000
# 2 20.9417 33.5049 -9.9473 0.0000 0.0000 0.0000
# 3 -7.1156 -9.9473 53.5043 0.0000 0.0000 0.0000
# 4 0.0000 0.0000 0.0000 26.7813 0.0000 0.0000
# 5 0.0000 0.0000 0.0000 0.0000 16.9637 0.0000
# 6 0.0000 0.0000 0.0000 0.0000 0.0000 7.3571
#
#
#
# Elastic Compliance Matrix: (Units=1/GPa)
#
#
# Indices 1 2 3 4 5 6 
#
# 1 0.045762 -0.028361 0.000813 0.000000 0.000000 0.000000
# 2 -0.028361 0.049167 0.005369 0.000000 0.000000 0.000000
# 3 0.000813 0.005369 0.019796 0.000000 0.000000 0.000000
# 4 0.000000 0.000000 0.000000 0.037339 0.000000 0.000000
# 5 0.000000 0.000000 0.000000 0.000000 0.058949 0.000000
# 6 0.000000 0.000000 0.000000 0.000000 0.000000 0.135924
#
#
# Mechanical properties :
#
#
# Convention : Reuss Voigt Hill
#
# Bulk Modulus (GPa) = 14.21112 14.41381 14.31247
# Shear Modulus (GPa) = 12.05543 18.09297 15.07420
#
# Velocity S-wave (km/s) = 2.37001 2.90345 2.65018
# Velocity P-wave (km/s) = 3.75641 4.23743 4.00415
#
# Compressibility (1/GPa) = 0.07036745
#
# Stress axis : x y z
#
# Youngs Moduli (GPa) = 21.85242 20.33878 50.51412
#
# Poissons Ratio (x) = 0.57683 -0.04107
# Poissons Ratio (y) = 0.61976 -0.27122
# Poissons Ratio (z) = -0.01777 -0.10920
#
# Static dielectric constant tensor:
#      x y z
#    x 1.775750 0.000000 0.000000 
#    y 0.000000 1.783070 0.000000 
#    z 0.000000 0.000000 1.764140 
# 
# From -- ./inp_files/2873.got.cif
#   From: 2010.05.17/outbox.cif.g08.bks.cpg/sg61_2_cif.got.tgz:2873.got - 2010.06.03 15:17:17.
