data_PCOD9459950
_publ_section_title
;
Structure prediction by ZEFSAII (Michael W. Deem and Ramdas Pophale) SiO2 
 PCOD9459950
Probable space group: P B C A
;
_chemical_formula_sum "Si O2"
_cell_formula_units_Z 48
_cell_length_a 18.109876
_cell_length_b 11.473899
_cell_length_c 8.910586
_cell_angle_alpha 90.000000
_cell_angle_beta 90.000000
_cell_angle_gamma 90.000000
_cell_volume 1851.538579
_symmetry_space_group_name_H-M "P B C A"
_symmetry_group_IT_number 61
_symmetry_cell_setting 'orthorhombic'
loop_
_space_group_symop_operation_xyz
x,y,z
1/2-x,-y,1/2+z
1/2+x,1/2-y,-z
-x,1/2+y,1/2-z
-x,-y,-z
1/2+x,y,1/2-z
1/2-x,1/2+y,z
x,1/2-y,1/2+z
loop_
_atom_site_type_symbol
_atom_site_label
_atom_site_fract_x
_atom_site_fract_y
_atom_site_fract_z
Si Si1 0.734417 0.286268 0.826729
Si Si2 0.941970 0.409129 0.173125
Si Si3 0.083617 0.404166 0.597361
Si Si4 0.269752 0.098781 0.878847
Si Si5 0.462258 0.248223 0.558988
Si Si6 0.165521 0.903802 0.915252
O O1 0.654404 0.347421 0.818563
O O2 0.730863 0.154513 0.767101
O O3 0.804079 0.348919 0.741534
O O4 0.752484 0.300283 0.001061
O O5 0.960196 0.517422 0.280906
O O6 0.853589 0.416108 0.165200
O O7 0.963307 0.293396 0.269656
O O8 0.964778 0.380019 0.002735
O O9 0.112232 0.486765 0.460999
O O10 0.032175 0.311980 0.517717
O O11 0.240244 0.978778 0.947612
O O12 0.385200 0.192560 0.497380
#
# Coordination Sequence:
#
# PCOD9459950 Si02
#       6
#     8   8   8   8   8   8
#     4  11  23  38  63  96 129 165 219 268 318 381
#     4  11  21  41  66  90 126 171 215 258 323 386
#     4  10  24  43  64  95 130 174 211 266 329 382
#     4  11  23  38  65  98 127 169 217 269 320 380
#     4  11  24  41  69  91 132 172 213 263 327 389
#     4  10  21  39  64  91 127 167 214 261 318 381
#
# _framework density 25.924382999999999
#
# number of rings (size 3 to 8) (size 9 to 14) (size 15 to 20)
#    0.000    1.333    3.333    3.000    2.333    4.000 
#    0.000    0.833    3.667    0.000    0.000    0.000 
#    0.000    0.000    0.000    0.000    0.000    0.000 
#
# Total GULP energy -267404.234427 kJ/mol
# GULP energy per Si atom -5570.921551 kJ/mol
# Density = 2.586538 g / cm^3
# Si number density = 25.924383 Si / 1000 Ang^3
#
#
#
# Elastic Constant Matrix: (Units=GPa)
#
#
# Indices 1 2 3 4 5 6 
#
# 1 66.4635 27.2549 28.2336 0.0000 0.0000 0.0000
# 2 27.2549 65.1877 18.5044 0.0000 0.0000 0.0000
# 3 28.2336 18.5044 107.1590 0.0000 0.0000 0.0000
# 4 0.0000 0.0000 0.0000 39.0421 0.0000 0.0000
# 5 0.0000 0.0000 0.0000 0.0000 47.1859 0.0000
# 6 0.0000 0.0000 0.0000 0.0000 0.0000 15.2340
#
#
#
# Elastic Compliance Matrix: (Units=1/GPa)
#
#
# Indices 1 2 3 4 5 6 
#
# 1 0.019629 -0.007086 -0.003948 0.000000 0.000000 0.000000
# 2 -0.007086 0.018689 -0.001360 0.000000 0.000000 0.000000
# 3 -0.003948 -0.001360 0.010607 0.000000 0.000000 0.000000
# 4 0.000000 0.000000 0.000000 0.025613 0.000000 0.000000
# 5 0.000000 0.000000 0.000000 0.000000 0.021193 0.000000
# 6 0.000000 0.000000 0.000000 0.000000 0.000000 0.065643
#
#
# Mechanical properties :
#
#
# Convention : Reuss Voigt Hill
#
# Bulk Modulus (GPa) = 41.43160 42.97734 42.20447
# Shear Modulus (GPa) = 25.74563 31.28022 28.51292
#
# Velocity S-wave (km/s) = 3.15478 3.47738 3.32000
# Velocity P-wave (km/s) = 5.41170 5.72161 5.56881
#
# Compressibility (1/GPa) = 0.02413617
#
# Stress axis : x y z
#
# Youngs Moduli (GPa) = 50.94561 53.50710 94.27705
#
# Poissons Ratio (x) = 0.37915 0.37221
# Poissons Ratio (y) = 0.36100 0.12824
# Poissons Ratio (z) = 0.20114 0.07278
#
# Static dielectric constant tensor:
#      x y z
#    x 2.003520 0.000000 0.000000 
#    y 0.000000 2.162480 0.000000 
#    z 0.000000 0.000000 2.114790 
# 
# From -- ./inp_files/3414.got.cif
#   From: 2010.05.17/outbox.cif.g08.bks.cpg/sg61_2_cif.got.tgz:3414.got - 2010.06.03 15:17:17.
