data_PCOD9459076
_publ_section_title
;
Structure prediction by ZEFSAII (Michael W. Deem and Ramdas Pophale) SiO2 
 PCOD9459076
Probable space group: P B C A
;
_chemical_formula_sum "Si O2"
_cell_formula_units_Z 64
_cell_length_a 9.001926
_cell_length_b 17.783410
_cell_length_c 18.751722
_cell_angle_alpha 90.000000
_cell_angle_beta 90.000000
_cell_angle_gamma 90.000000
_cell_volume 3001.868307
_symmetry_space_group_name_H-M "P B C A"
_symmetry_group_IT_number 61
_symmetry_cell_setting 'orthorhombic'
loop_
_space_group_symop_operation_xyz
x,y,z
1/2-x,-y,1/2+z
1/2+x,1/2-y,-z
-x,1/2+y,1/2-z
-x,-y,-z
1/2+x,y,1/2-z
1/2-x,1/2+y,z
x,1/2-y,1/2+z
loop_
_atom_site_type_symbol
_atom_site_label
_atom_site_fract_x
_atom_site_fract_y
_atom_site_fract_z
Si Si1 0.598995 0.350242 0.835033
Si Si2 0.454984 0.610591 0.626819
Si Si3 0.777918 0.128199 0.535512
Si Si4 0.266769 0.768135 0.052255
Si Si5 0.259833 0.478550 0.586328
Si Si6 0.961765 0.822104 0.216987
Si Si7 0.043371 0.607361 0.579952
Si Si8 0.798335 0.215771 0.217488
O O1 0.673282 0.290977 0.889603
O O2 0.647661 0.430420 0.865023
O O3 0.424210 0.328893 0.827540
O O4 0.687424 0.337919 0.761164
O O5 0.625696 0.610893 0.604671
O O6 0.382952 0.663487 0.564462
O O7 0.383730 0.528237 0.626072
O O8 0.426510 0.648243 0.703431
O O9 0.760840 0.216125 0.516359
O O10 0.836777 0.078544 0.469002
O O11 0.611948 0.098639 0.542825
O O12 0.112281 0.810600 0.065123
O O13 0.156148 0.544177 0.554688
O O14 0.013757 0.888235 0.164854
O O15 0.819381 0.776699 0.186316
O O16 0.097254 0.764299 0.229201
#
# Coordination Sequence:
#
# PCOD9459076 Si02
#       8
#     8   8   8   8   8   8   8   8
#     4  10  20  37  59  86 123 165 195 252 311 378
#     4  11  21  40  65  91 126 161 210 268 311 368
#     4  11  23  38  63  89 119 167 221 245 311 380
#     4  10  20  38  59  89 123 156 204 267 307 352
#     4  10  24  41  57  82 132 172 198 254 320 366
#     4  11  20  36  63  97 116 154 206 268 313 361
#     4  11  22  39  63  90 126 161 208 263 309 368
#     4  10  18  35  61  86 125 153 202 253 321 359
#
# _framework density 21.320056000000001
#
# number of rings (size 3 to 8) (size 9 to 14) (size 15 to 20)
#    0.000    1.500    3.750    3.000    0.000    1.000 
#    0.000    2.500    2.750    0.000    0.000    0.000 
#    0.000    0.000    0.000    0.000    0.000    0.000 
#
# Total GULP energy -356653.294840 kJ/mol
# GULP energy per Si atom -5572.707732 kJ/mol
# Density = 2.127153 g / cm^3
# Si number density = 21.320056 Si / 1000 Ang^3
#
#
#
# Elastic Constant Matrix: (Units=GPa)
#
#
# Indices 1 2 3 4 5 6 
#
# 1 79.0407 7.3178 -2.5318 0.0000 0.0000 0.0000
# 2 7.3178 77.8151 11.5764 0.0000 0.0000 0.0000
# 3 -2.5318 11.5764 42.9282 0.0000 0.0000 0.0000
# 4 0.0000 0.0000 0.0000 9.2471 0.0000 0.0000
# 5 0.0000 0.0000 0.0000 0.0000 20.8501 0.0000
# 6 0.0000 0.0000 0.0000 0.0000 0.0000 19.7930
#
#
#
# Elastic Compliance Matrix: (Units=1/GPa)
#
#
# Indices 1 2 3 4 5 6 
#
# 1 0.012815 -0.001373 0.001126 0.000000 0.000000 0.000000
# 2 -0.001373 0.013535 -0.003731 0.000000 0.000000 0.000000
# 3 0.001126 -0.003731 0.024367 0.000000 0.000000 0.000000
# 4 0.000000 0.000000 0.000000 0.108143 0.000000 0.000000
# 5 0.000000 0.000000 0.000000 0.000000 0.047961 0.000000
# 6 0.000000 0.000000 0.000000 0.000000 0.000000 0.050523
#
#
# Mechanical properties :
#
#
# Convention : Reuss Voigt Hill
#
# Bulk Modulus (GPa) = 23.38529 25.83432 24.60981
# Shear Modulus (GPa) = 17.88568 22.20614 20.04591
#
# Velocity S-wave (km/s) = 2.89954 3.23082 3.06966
# Velocity P-wave (km/s) = 4.71193 5.10503 4.91241
#
# Compressibility (1/GPa) = 0.04276192
#
# Stress axis : x y z
#
# Youngs Moduli (GPa) = 78.03447 73.88193 41.03869
#
# Poissons Ratio (x) = 0.10141 -0.04621
# Poissons Ratio (y) = 0.10711 0.15311
# Poissons Ratio (z) = -0.08786 0.27565
#
# Static dielectric constant tensor:
#      x y z
#    x 1.797480 0.000000 0.000000 
#    y 0.000000 1.769680 0.000000 
#    z 0.000000 0.000000 1.821370 
# 
# From -- ./inp_files/10199.got.cif
#   From: 2010.05.17/outbox.cif.g08.bks.cpg/sg61_6_cif.got.tgz:10199.got - 2010.06.03 15:17:17.
