data_PCOD9459488
_publ_section_title
;
Structure prediction by ZEFSAII (Michael W. Deem and Ramdas Pophale) SiO2 
 PCOD9459488
Probable space group: P B C A
;
_chemical_formula_sum "Si O2"
_cell_formula_units_Z 60
_cell_length_a 9.953259
_cell_length_b 9.069178
_cell_length_c 25.973041
_cell_angle_alpha 90.000000
_cell_angle_beta 90.000000
_cell_angle_gamma 90.000000
_cell_volume 2344.531285
_symmetry_space_group_name_H-M "P B C A"
_symmetry_group_IT_number 61
_symmetry_cell_setting 'orthorhombic'
loop_
_space_group_symop_operation_xyz
x,y,z
1/2-x,-y,1/2+z
1/2+x,1/2-y,-z
-x,1/2+y,1/2-z
-x,-y,-z
1/2+x,y,1/2-z
1/2-x,1/2+y,z
x,1/2-y,1/2+z
loop_
_atom_site_type_symbol
_atom_site_label
_atom_site_fract_x
_atom_site_fract_y
_atom_site_fract_z
Si Si1 0.834936 0.714737 0.813618
Si Si2 0.224538 0.847146 0.510452
Si Si3 0.292178 0.512947 0.829345
Si Si4 0.114130 0.734397 0.768109
Si Si5 0.000000 0.000000 0.000000
Si Si6 0.504589 0.148717 0.601859
Si Si7 0.245591 0.518555 0.117791
Si Si8 0.305866 0.897369 0.938763
O O1 0.691990 0.704455 0.784743
O O2 0.827172 0.857851 0.850421
O O3 0.859359 0.564323 0.845455
O O4 0.953834 0.731893 0.772317
O O5 0.185231 0.910227 0.566362
O O6 0.213475 0.684318 0.484437
O O7 0.383491 0.876756 0.514513
O O8 0.158927 0.951471 0.467255
O O9 0.173718 0.613352 0.807497
O O10 0.337757 0.393950 0.787865
O O11 0.416548 0.616133 0.846175
O O12 0.250925 0.431180 0.882133
O O13 0.963087 0.976961 0.060323
O O14 0.570737 0.290809 0.575480
O O15 0.346116 0.118809 0.605729
#
# Coordination Sequence:
#
# PCOD9459488 Si02
#       8
#     8   8   8   8   4   8   8   8
#     4  12  29  51  76 107 143 188 251 315 385 445
#     4  10  20  36  64 100 143 190 238 289 347 427
#     4  12  22  43  71 106 147 186 240 298 365 437
#     4  12  29  47  77 108 141 189 247 316 380 452
#     4   8  16  32  56  92 132 188 232 266 334 414
#     4  10  20  37  68 100 141 195 231 289 352 424
#     4  11  25  47  74 102 148 193 246 302 371 433
#     4  11  19  37  66 107 147 191 241 283 352 432
#
# _framework density 25.591469
#
# number of rings (size 3 to 8) (size 9 to 14) (size 15 to 20)
#    0.000    1.067    5.333    1.600    1.867    4.267 
#    0.000    1.333    0.000   10.400    0.000    0.000 
#    0.000    0.000    0.000    0.000    0.000    0.000 
#
# Total GULP energy -334339.592078 kJ/mol
# GULP energy per Si atom -5572.326535 kJ/mol
# Density = 2.553322 g / cm^3
# Si number density = 25.591469 Si / 1000 Ang^3
#
#
#
# Elastic Constant Matrix: (Units=GPa)
#
#
# Indices 1 2 3 4 5 6 
#
# 1 45.9512 11.8538 -9.3549 0.0000 0.0000 0.0000
# 2 11.8538 82.7336 21.2488 0.0000 0.0000 0.0000
# 3 -9.3549 21.2488 101.6091 0.0000 0.0000 0.0000
# 4 0.0000 0.0000 0.0000 39.3668 0.0000 0.0000
# 5 0.0000 0.0000 0.0000 0.0000 30.2473 0.0000
# 6 0.0000 0.0000 0.0000 0.0000 0.0000 21.3077
#
#
#
# Elastic Compliance Matrix: (Units=1/GPa)
#
#
# Indices 1 2 3 4 5 6 
#
# 1 0.023445 -0.004136 0.003023 0.000000 0.000000 0.000000
# 2 -0.004136 0.013503 -0.003204 0.000000 0.000000 0.000000
# 3 0.003023 -0.003204 0.010790 0.000000 0.000000 0.000000
# 4 0.000000 0.000000 0.000000 0.025402 0.000000 0.000000
# 5 0.000000 0.000000 0.000000 0.000000 0.033061 0.000000
# 6 0.000000 0.000000 0.000000 0.000000 0.000000 0.046931
#
#
# Mechanical properties :
#
#
# Convention : Reuss Voigt Hill
#
# Bulk Modulus (GPa) = 25.57295 30.86549 28.21922
# Shear Modulus (GPa) = 28.60423 31.95412 30.27917
#
# Velocity S-wave (km/s) = 3.34687 3.53742 3.44346
# Velocity P-wave (km/s) = 4.99498 5.36391 5.18273
#
# Compressibility (1/GPa) = 0.03910383
#
# Stress axis : x y z
#
# Youngs Moduli (GPa) = 42.65387 74.06024 92.67748
#
# Poissons Ratio (x) = 0.30628 -0.28019
# Poissons Ratio (y) = 0.17640 0.29698
# Poissons Ratio (z) = -0.12896 0.23732
#
# Static dielectric constant tensor:
#      x y z
#    x 1.905600 0.000000 0.000000 
#    y 0.000000 2.130990 0.000000 
#    z 0.000000 0.000000 2.062710 
# 
# From -- ./inp_files/11460.got.cif
#   From: 2010.05.17/outbox.cif.g08.bks.cpg/sg61_6_cif.got.tgz:11460.got - 2010.06.03 15:17:17.
