data_PCOD9459037
_publ_section_title
;
Structure prediction by ZEFSAII (Michael W. Deem and Ramdas Pophale) SiO2 
 PCOD9459037
Probable space group: P B C A
;
_chemical_formula_sum "Si O2"
_cell_formula_units_Z 64
_cell_length_a 15.908757
_cell_length_b 23.829806
_cell_length_c 8.462660
_cell_angle_alpha 90.000000
_cell_angle_beta 90.000000
_cell_angle_gamma 90.000000
_cell_volume 3208.216350
_symmetry_space_group_name_H-M "P B C A"
_symmetry_group_IT_number 61
_symmetry_cell_setting 'orthorhombic'
loop_
_space_group_symop_operation_xyz
x,y,z
1/2-x,-y,1/2+z
1/2+x,1/2-y,-z
-x,1/2+y,1/2-z
-x,-y,-z
1/2+x,y,1/2-z
1/2-x,1/2+y,z
x,1/2-y,1/2+z
loop_
_atom_site_type_symbol
_atom_site_label
_atom_site_fract_x
_atom_site_fract_y
_atom_site_fract_z
Si Si1 0.517643 0.046671 0.776407
Si Si2 0.221658 0.498411 0.895780
Si Si3 0.137094 0.546404 0.576824
Si Si4 0.104501 0.742143 0.839663
Si Si5 0.865832 0.884705 0.472963
Si Si6 0.901081 0.062261 0.417983
Si Si7 0.975332 0.326989 0.878208
Si Si8 0.805682 0.173596 0.933593
O O1 0.460815 0.042179 0.621312
O O2 0.591232 0.091490 0.811581
O O3 0.552775 0.986011 0.821078
O O4 0.452198 0.063675 0.916007
O O5 0.319307 0.484970 0.928583
O O6 0.171872 0.440312 0.938854
O O7 0.190451 0.543325 0.026990
O O8 0.191176 0.522501 0.727708
O O9 0.153097 0.612239 0.557574
O O10 0.158377 0.704897 0.719664
O O11 0.033361 0.778996 0.751987
O O12 0.165864 0.786038 0.925378
O O13 0.060168 0.701815 0.964276
O O14 0.935325 0.855099 0.583461
O O15 0.792590 0.841033 0.435030
O O16 0.912466 0.121798 0.337629
#
# Coordination Sequence:
#
# PCOD9459037 Si02
#       8
#     8   8   8   8   8   8   8   8
#     4   8  14  28  51  77 101 134 171 205 257 322
#     4   9  18  30  53  82 106 139 174 210 266 327
#     4  10  18  32  54  81 113 140 173 217 264 323
#     4  10  22  36  54  78 102 140 186 227 271 312
#     4   9  18  33  57  80 105 141 178 217 270 328
#     4   8  14  27  49  72  98 132 169 205 253 317
#     4  10  19  35  56  76 103 138 180 222 266 318
#     4  10  21  37  54  77 108 139 181 230 269 313
#
# _framework density 19.948779999999999
#
# number of rings (size 3 to 8) (size 9 to 14) (size 15 to 20)
#    0.000    2.750    0.000    4.500    0.000    3.000 
#    0.000    0.000    0.000   32.250    0.000    0.000 
#    0.000    0.000    0.000    0.000    0.000    0.000 
#
# Total GULP energy -356871.419256 kJ/mol
# GULP energy per Si atom -5576.115926 kJ/mol
# Density = 1.990338 g / cm^3
# Si number density = 19.948780 Si / 1000 Ang^3
#
#
#
# Elastic Constant Matrix: (Units=GPa)
#
#
# Indices 1 2 3 4 5 6 
#
# 1 38.4313 6.6885 6.6912 0.0000 0.0000 0.0000
# 2 6.6885 79.4408 10.6912 0.0000 0.0000 0.0000
# 3 6.6912 10.6912 29.8335 0.0000 0.0000 0.0000
# 4 0.0000 0.0000 0.0000 15.0559 0.0000 0.0000
# 5 0.0000 0.0000 0.0000 0.0000 25.0533 0.0000
# 6 0.0000 0.0000 0.0000 0.0000 0.0000 15.9092
#
#
#
# Elastic Compliance Matrix: (Units=1/GPa)
#
#
# Indices 1 2 3 4 5 6 
#
# 1 0.027258 -0.001547 -0.005559 0.000000 0.000000 0.000000
# 2 -0.001547 0.013314 -0.004424 0.000000 0.000000 0.000000
# 3 -0.005559 -0.004424 0.036352 0.000000 0.000000 0.000000
# 4 0.000000 0.000000 0.000000 0.066419 0.000000 0.000000
# 5 0.000000 0.000000 0.000000 0.000000 0.039915 0.000000
# 6 0.000000 0.000000 0.000000 0.000000 0.000000 0.062857
#
#
# Mechanical properties :
#
#
# Convention : Reuss Voigt Hill
#
# Bulk Modulus (GPa) = 18.56572 21.76080 20.16326
# Shear Modulus (GPa) = 17.41384 19.44601 18.42992
#
# Velocity S-wave (km/s) = 2.95774 3.12556 3.04281
# Velocity P-wave (km/s) = 4.58162 4.89464 4.74071
#
# Compressibility (1/GPa) = 0.05386270
#
# Stress axis : x y z
#
# Youngs Moduli (GPa) = 36.68706 75.11099 27.50904
#
# Poissons Ratio (x) = 0.11618 0.15293
# Poissons Ratio (y) = 0.05675 0.12171
# Poissons Ratio (z) = 0.20395 0.33231
#
# Static dielectric constant tensor:
#      x y z
#    x 1.749020 0.000000 0.000000 
#    y 0.000000 1.680730 0.000000 
#    z 0.000000 0.000000 1.754180 
# 
# From -- ./inp_files/3703.got.cif
#   From: 2010.05.17/outbox.cif.g08.bks.cpg/sg61_2_cif.got.tgz:3703.got - 2010.06.03 15:17:17.
