data_PCOD9459567
_publ_section_title
;
Structure prediction by ZEFSAII (Michael W. Deem and Ramdas Pophale) SiO2 
 PCOD9459567
Probable space group: P B C A
;
_chemical_formula_sum "Si O2"
_cell_formula_units_Z 56
_cell_length_a 16.995185
_cell_length_b 8.965319
_cell_length_c 13.959253
_cell_angle_alpha 90.000000
_cell_angle_beta 90.000000
_cell_angle_gamma 90.000000
_cell_volume 2126.933061
_symmetry_space_group_name_H-M "P B C A"
_symmetry_group_IT_number 61
_symmetry_cell_setting 'orthorhombic'
loop_
_space_group_symop_operation_xyz
x,y,z
1/2-x,-y,1/2+z
1/2+x,1/2-y,-z
-x,1/2+y,1/2-z
-x,-y,-z
1/2+x,y,1/2-z
1/2-x,1/2+y,z
x,1/2-y,1/2+z
loop_
_atom_site_type_symbol
_atom_site_label
_atom_site_fract_x
_atom_site_fract_y
_atom_site_fract_z
Si Si1 0.216251 0.810981 0.562980
Si Si2 0.914487 0.789274 0.658478
Si Si3 0.482549 0.109588 0.784077
Si Si4 0.385533 0.614050 0.017069
Si Si5 0.336638 0.436689 0.175070
Si Si6 0.758572 0.391338 0.714465
Si Si7 0.101750 0.698637 0.427234
O O1 0.291904 0.854062 0.502365
O O2 0.212975 0.634648 0.589023
O O3 0.217546 0.867706 0.672913
O O4 0.138922 0.822772 0.498539
O O5 0.925439 0.738879 0.548210
O O6 0.822627 0.817690 0.678749
O O7 0.940140 0.650548 0.725895
O O8 0.963605 0.940423 0.683107
O O9 0.412884 0.150873 0.708826
O O10 0.468155 0.223949 0.870378
O O11 0.417900 0.454624 0.980995
O O12 0.377232 0.587373 0.131773
O O13 0.279826 0.444413 0.266921
O O14 0.829101 0.357103 0.644546
#
# Coordination Sequence:
#
# PCOD9459567 Si02
#       7
#     8   8   8   8   8   8   8
#     4  10  20  38  62 103 128 163 214 270 331 390
#     4  11  24  41  65  94 133 179 224 270 331 400
#     4  11  24  44  66  95 133 182 224 271 335 403
#     4  10  22  38  65 101 129 170 218 280 332 394
#     4   9  21  38  63  97 132 172 216 277 328 395
#     4  10  21  37  66  94 131 167 213 269 326 389
#     4  11  22  38  71  98 130 169 215 275 329 394
#
# _framework density 26.328992
#
# number of rings (size 3 to 8) (size 9 to 14) (size 15 to 20)
#    0.000    1.714    2.857    0.857    6.000    1.714 
#    0.000    4.286    0.000   11.143    0.000    0.000 
#    0.000    0.000    0.000    0.000    0.000    0.000 
#
# Total GULP energy -312047.743885 kJ/mol
# GULP energy per Si atom -5572.281141 kJ/mol
# Density = 2.626907 g / cm^3
# Si number density = 26.328992 Si / 1000 Ang^3
#
#
#
# Elastic Constant Matrix: (Units=GPa)
#
#
# Indices 1 2 3 4 5 6 
#
# 1 50.4413 15.2556 5.9854 0.0000 0.0000 0.0000
# 2 15.2556 72.6603 9.5460 0.0000 0.0000 0.0000
# 3 5.9854 9.5460 95.7031 0.0000 0.0000 0.0000
# 4 0.0000 0.0000 0.0000 47.2318 0.0000 0.0000
# 5 0.0000 0.0000 0.0000 0.0000 38.9826 0.0000
# 6 0.0000 0.0000 0.0000 0.0000 0.0000 38.1594
#
#
#
# Elastic Compliance Matrix: (Units=1/GPa)
#
#
# Indices 1 2 3 4 5 6 
#
# 1 0.021245 -0.004343 -0.000895 0.000000 0.000000 0.000000
# 2 -0.004343 0.014833 -0.001208 0.000000 0.000000 0.000000
# 3 -0.000895 -0.001208 0.010625 0.000000 0.000000 0.000000
# 4 0.000000 0.000000 0.000000 0.021172 0.000000 0.000000
# 5 0.000000 0.000000 0.000000 0.000000 0.025652 0.000000
# 6 0.000000 0.000000 0.000000 0.000000 0.000000 0.026206
#
#
# Mechanical properties :
#
#
# Convention : Reuss Voigt Hill
#
# Bulk Modulus (GPa) = 29.57631 31.15318 30.36475
# Shear Modulus (GPa) = 34.74714 37.40927 36.07821
#
# Velocity S-wave (km/s) = 3.63675 3.77349 3.70575
# Velocity P-wave (km/s) = 5.37516 5.55370 5.46516
#
# Compressibility (1/GPa) = 0.03381085
#
# Stress axis : x y z
#
# Youngs Moduli (GPa) = 47.07044 67.41645 94.11343
#
# Poissons Ratio (x) = 0.29278 0.08428
# Poissons Ratio (y) = 0.20442 0.11368
# Poissons Ratio (z) = 0.04215 0.08144
#
# Static dielectric constant tensor:
#      x y z
#    x 2.126540 0.000000 0.000000 
#    y 0.000000 2.344320 0.000000 
#    z 0.000000 0.000000 2.086350 
# 
# From -- ./inp_files/8357.got.cif
#   From: 2010.05.17/outbox.cif.g08.bks.cpg/sg61_5_cif.got.tgz:8357.got - 2010.06.03 15:17:17.
