data_PCOD9459485
_publ_section_title
;
Structure prediction by ZEFSAII (Michael W. Deem and Ramdas Pophale) SiO2 
 PCOD9459485
Probable space group: P B C A
;
_chemical_formula_sum "Si O2"
_cell_formula_units_Z 48
_cell_length_a 12.982630
_cell_length_b 12.257442
_cell_length_c 11.416561
_cell_angle_alpha 90.000000
_cell_angle_beta 90.000000
_cell_angle_gamma 90.000000
_cell_volume 1816.761126
_symmetry_space_group_name_H-M "P B C A"
_symmetry_group_IT_number 61
_symmetry_cell_setting 'orthorhombic'
loop_
_space_group_symop_operation_xyz
x,y,z
1/2-x,-y,1/2+z
1/2+x,1/2-y,-z
-x,1/2+y,1/2-z
-x,-y,-z
1/2+x,y,1/2-z
1/2-x,1/2+y,z
x,1/2-y,1/2+z
loop_
_atom_site_type_symbol
_atom_site_label
_atom_site_fract_x
_atom_site_fract_y
_atom_site_fract_z
Si Si1 0.523208 0.144245 0.430021
Si Si2 0.687194 0.841296 0.720551
Si Si3 0.471594 0.052176 0.834253
Si Si4 0.335487 0.678306 0.699346
Si Si5 0.470623 0.171739 0.080979
Si Si6 0.680110 0.525285 0.847600
O O1 0.407629 0.140691 0.371533
O O2 0.593161 0.227942 0.354529
O O3 0.514781 0.210181 0.551333
O O4 0.596774 0.037433 0.428399
O O5 0.767257 0.740444 0.703060
O O6 0.630986 0.817083 0.844039
O O7 0.756544 0.944209 0.760840
O O8 0.580939 0.083983 0.778864
O O9 0.465297 0.921976 0.852013
O O10 0.389208 0.090093 0.743245
O O11 0.453494 0.112016 0.956624
O O12 0.261816 0.613438 0.605817
#
# Coordination Sequence:
#
# PCOD9459485 Si02
#       6
#     8   8   8   8   8   8
#     4  10  22  39  60  90 127 163 205 265 310 368
#     4  11  22  40  64  94 125 166 212 259 309 376
#     4  10  20  39  65  87 125 165 206 261 318 365
#     4  10  20  36  63  89 123 166 202 254 315 374
#     4  10  20  40  62  87 122 167 201 256 316 363
#     4  11  20  40  63  91 123 164 213 253 311 373
#
# _framework density 26.420643999999999
#
# number of rings (size 3 to 8) (size 9 to 14) (size 15 to 20)
#    0.000    1.667    3.333    2.000    0.000    0.000 
#   12.000    5.833    0.000    0.000    0.000    0.000 
#    0.000    0.000    0.000    0.000    0.000    0.000 
#
# Total GULP energy -267774.642905 kJ/mol
# GULP energy per Si atom -5578.638394 kJ/mol
# Density = 2.636051 g / cm^3
# Si number density = 26.420644 Si / 1000 Ang^3
#
#
#
# Elastic Constant Matrix: (Units=GPa)
#
#
# Indices 1 2 3 4 5 6 
#
# 1 159.8615 56.2852 51.4707 0.0000 0.0000 0.0000
# 2 56.2852 98.8105 56.2118 0.0000 0.0000 0.0000
# 3 51.4707 56.2118 46.7504 0.0000 0.0000 0.0000
# 4 0.0000 0.0000 0.0000 40.3224 0.0000 0.0000
# 5 0.0000 0.0000 0.0000 0.0000 23.2569 0.0000
# 6 0.0000 0.0000 0.0000 0.0000 0.0000 52.9515
#
#
#
# Elastic Compliance Matrix: (Units=1/GPa)
#
#
# Indices 1 2 3 4 5 6 
#
# 1 0.009786 0.001756 -0.012885 0.000000 0.000000 0.000000
# 2 0.001756 0.032343 -0.040822 0.000000 0.000000 0.000000
# 3 -0.012885 -0.040822 0.084660 0.000000 0.000000 0.000000
# 4 0.000000 0.000000 0.000000 0.024800 0.000000 0.000000
# 5 0.000000 0.000000 0.000000 0.000000 0.042998 0.000000
# 6 0.000000 0.000000 0.000000 0.000000 0.000000 0.018885
#
#
# Mechanical properties :
#
#
# Convention : Reuss Voigt Hill
#
# Bulk Modulus (GPa) = 43.69398 70.37310 57.03354
# Shear Modulus (GPa) = 15.38439 32.73646 24.06043
#
# Velocity S-wave (km/s) = 2.41568 3.52383 3.02100
# Velocity P-wave (km/s) = 4.93502 6.57647 5.81397
#
# Compressibility (1/GPa) = 0.02288645
#
# Stress axis : x y z
#
# Youngs Moduli (GPa) = 102.18856 30.91823 11.81191
#
# Poissons Ratio (x) = -0.05429 0.15220
# Poissons Ratio (y) = -0.17943 0.48219
# Poissons Ratio (z) = 1.31671 1.26215
#
# Static dielectric constant tensor:
#      x y z
#    x 2.129960 0.000000 0.000000 
#    y 0.000000 2.236530 0.000000 
#    z 0.000000 0.000000 2.016350 
# 
# From -- ./inp_files/5869.got.cif
#   From: 2010.05.17/outbox.cif.g08.bks.cpg/sg61_3_cif.got.tgz:5869.got - 2010.06.03 15:17:17.
