data_PCOD9459252
_publ_section_title
;
Structure prediction by ZEFSAII (Michael W. Deem and Ramdas Pophale) SiO2 
 PCOD9459252
Probable space group: P B C A
;
_chemical_formula_sum "Si O2"
_cell_formula_units_Z 56
_cell_length_a 13.962563
_cell_length_b 8.850383
_cell_length_c 22.156143
_cell_angle_alpha 90.000000
_cell_angle_beta 90.000000
_cell_angle_gamma 90.000000
_cell_volume 2737.923884
_symmetry_space_group_name_H-M "P B C A"
_symmetry_group_IT_number 61
_symmetry_cell_setting 'orthorhombic'
loop_
_space_group_symop_operation_xyz
x,y,z
1/2-x,-y,1/2+z
1/2+x,1/2-y,-z
-x,1/2+y,1/2-z
-x,-y,-z
1/2+x,y,1/2-z
1/2-x,1/2+y,z
x,1/2-y,1/2+z
loop_
_atom_site_type_symbol
_atom_site_label
_atom_site_fract_x
_atom_site_fract_y
_atom_site_fract_z
Si Si1 0.571007 0.029456 0.590768
Si Si2 0.542039 0.768982 0.830493
Si Si3 0.624063 0.411988 0.954138
Si Si4 0.917942 0.496328 0.235263
Si Si5 0.806710 0.736012 0.771860
Si Si6 0.288112 0.469784 0.807409
Si Si7 0.726009 0.803078 0.395559
O O1 0.530412 0.177219 0.625513
O O2 0.480417 0.920148 0.577373
O O3 0.653683 0.952220 0.631291
O O4 0.609617 0.078794 0.525632
O O5 0.560625 0.648458 0.775875
O O6 0.636949 0.796420 0.870639
O O7 0.500078 0.923221 0.803399
O O8 0.692852 0.277628 0.934038
O O9 0.678906 0.560442 0.930753
O O10 0.883032 0.630769 0.281203
O O11 0.824592 0.482321 0.191328
O O12 0.839739 0.606708 0.726922
O O13 0.774313 0.654673 0.831986
O O14 0.722071 0.826318 0.736589
#
# Coordination Sequence:
#
# PCOD9459252 Si02
#       7
#     8   8   8   8   8   8   8
#     4  10  21  43  64  91 120 170 220 260 308 380
#     4  11  22  38  62  92 132 159 209 258 323 393
#     4  10  24  40  67  87 122 174 219 258 309 367
#     4  10  23  35  59  98 126 174 196 260 331 388
#     4  10  19  36  56  91 124 157 198 255 322 376
#     4  10  20  37  60  90 127 158 205 263 312 381
#     4  11  21  41  60  92 127 164 209 261 313 382
#
# _framework density 20.453454000000001
#
# number of rings (size 3 to 8) (size 9 to 14) (size 15 to 20)
#    0.857    0.857    2.857    2.571    2.000    3.429 
#    0.000    1.429    0.000    8.571    0.000    0.000 
#    0.000    0.000    0.000    0.000    0.000    0.000 
#
# Total GULP energy -312139.089635 kJ/mol
# GULP energy per Si atom -5573.912315 kJ/mol
# Density = 2.040690 g / cm^3
# Si number density = 20.453454 Si / 1000 Ang^3
#
#
#
# Elastic Constant Matrix: (Units=GPa)
#
#
# Indices 1 2 3 4 5 6 
#
# 1 61.3298 0.1682 40.7428 0.0000 0.0000 0.0000
# 2 0.1682 33.2274 6.5841 0.0000 0.0000 0.0000
# 3 40.7428 6.5841 115.5303 0.0000 0.0000 0.0000
# 4 0.0000 0.0000 0.0000 15.8766 0.0000 0.0000
# 5 0.0000 0.0000 0.0000 0.0000 40.1154 0.0000
# 6 0.0000 0.0000 0.0000 0.0000 0.0000 24.1562
#
#
#
# Elastic Compliance Matrix: (Units=1/GPa)
#
#
# Indices 1 2 3 4 5 6 
#
# 1 0.021358 0.001400 -0.007612 0.000000 0.000000 0.000000
# 2 0.001400 0.030531 -0.002234 0.000000 0.000000 0.000000
# 3 -0.007612 -0.002234 0.011467 0.000000 0.000000 0.000000
# 4 0.000000 0.000000 0.000000 0.062986 0.000000 0.000000
# 5 0.000000 0.000000 0.000000 0.000000 0.024928 0.000000
# 6 0.000000 0.000000 0.000000 0.000000 0.000000 0.041397
#
#
# Mechanical properties :
#
#
# Convention : Reuss Voigt Hill
#
# Bulk Modulus (GPa) = 21.52118 33.89753 27.70936
# Shear Modulus (GPa) = 22.21752 26.86914 24.54333
#
# Velocity S-wave (km/s) = 3.29940 3.62839 3.46780
# Velocity P-wave (km/s) = 5.00596 5.84488 5.44161
#
# Compressibility (1/GPa) = 0.04646585
#
# Stress axis : x y z
#
# Youngs Moduli (GPa) = 46.82029 32.75335 87.20318
#
# Poissons Ratio (x) = -0.04586 0.66379
# Poissons Ratio (y) = -0.06556 0.19479
# Poissons Ratio (z) = 0.35640 0.07316
#
# Static dielectric constant tensor:
#      x y z
#    x 1.838700 0.000000 0.000000 
#    y 0.000000 1.727840 0.000000 
#    z 0.000000 0.000000 1.698020 
# 
# From -- ./inp_files/10469.got.cif
#   From: 2010.05.17/outbox.cif.g08.bks.cpg/sg61_6_cif.got.tgz:10469.got - 2010.06.03 15:17:17.
