data_PCOD9459174
_publ_section_title
;
Structure prediction by ZEFSAII (Michael W. Deem and Ramdas Pophale) SiO2 
 PCOD9459174
Probable space group: P B C A
;
_chemical_formula_sum "Si O2"
_cell_formula_units_Z 64
_cell_length_a 7.312990
_cell_length_b 21.710635
_cell_length_c 16.298959
_cell_angle_alpha 90.000000
_cell_angle_beta 90.000000
_cell_angle_gamma 90.000000
_cell_volume 2587.780124
_symmetry_space_group_name_H-M "P B C A"
_symmetry_group_IT_number 61
_symmetry_cell_setting 'orthorhombic'
loop_
_space_group_symop_operation_xyz
x,y,z
1/2-x,-y,1/2+z
1/2+x,1/2-y,-z
-x,1/2+y,1/2-z
-x,-y,-z
1/2+x,y,1/2-z
1/2-x,1/2+y,z
x,1/2-y,1/2+z
loop_
_atom_site_type_symbol
_atom_site_label
_atom_site_fract_x
_atom_site_fract_y
_atom_site_fract_z
Si Si1 0.706031 0.855821 0.640130
Si Si2 0.369335 0.002461 0.682461
Si Si3 0.724511 0.374940 0.831477
Si Si4 0.049174 0.633218 0.706685
Si Si5 0.788415 0.515883 0.128010
Si Si6 0.837517 0.115479 0.616429
Si Si7 0.169528 0.749364 0.617510
Si Si8 0.581756 0.742675 0.557920
O O1 0.484695 0.865046 0.639496
O O2 0.768233 0.863040 0.733851
O O3 0.722386 0.786954 0.606217
O O4 0.799004 0.914394 0.595059
O O5 0.331305 0.074851 0.674079
O O6 0.374714 0.990413 0.780625
O O7 0.570468 0.992454 0.645272
O O8 0.240422 0.947201 0.650514
O O9 0.855824 0.321591 0.864292
O O10 0.034024 0.625505 0.804232
O O11 0.118420 0.701480 0.687567
O O12 0.858894 0.624269 0.660150
O O13 0.851358 0.453892 0.082436
O O14 0.859307 0.171719 0.555066
O O15 0.385124 0.743122 0.599914
O O16 0.072327 0.730787 0.533312
#
# Coordination Sequence:
#
# PCOD9459174 Si02
#       8
#     8   8   8   8   8   8   8   8
#     4   9  18  33  54  78 101 129 166 207 251 299
#     4   8  15  29  50  76 102 127 160 203 249 296
#     4   9  18  33  54  78 101 129 166 207 251 299
#     4  10  19  33  55  80 105 133 166 206 251 301
#     4   8  15  29  50  76 102 127 160 203 249 296
#     4  10  19  33  55  80 105 133 166 206 251 301
#     4  11  23  37  52  72 102 138 175 214 256 303
#     4  11  23  37  52  72 102 138 175 214 256 303
#
# _framework density 24.731622000000002
#
# number of rings (size 3 to 8) (size 9 to 14) (size 15 to 20)
#    0.000    2.500    0.000    2.250    0.000    5.000 
#    0.000    1.250    0.000    7.500    0.000    0.000 
#    0.000    0.000    0.000    0.000    0.000    0.000 
#
# Total GULP energy -357279.818998 kJ/mol
# GULP energy per Si atom -5582.497172 kJ/mol
# Density = 2.467533 g / cm^3
# Si number density = 24.731622 Si / 1000 Ang^3
#
#
#
# Elastic Constant Matrix: (Units=GPa)
#
#
# Indices 1 2 3 4 5 6 
#
# 1 57.6318 19.2607 -5.6993 0.0000 0.0000 0.0000
# 2 19.2607 148.9566 8.1372 0.0000 0.0000 0.0000
# 3 -5.6993 8.1372 19.8140 0.0000 0.0000 0.0000
# 4 0.0000 0.0000 0.0000 4.1861 0.0000 0.0000
# 5 0.0000 0.0000 0.0000 0.0000 31.0321 0.0000
# 6 0.0000 0.0000 0.0000 0.0000 0.0000 -79.2712
#
#
#
# Elastic Compliance Matrix: (Units=1/GPa)
#
#
# Indices 1 2 3 4 5 6 
#
# 1 0.018944 -0.002810 0.006603 0.000000 0.000000 0.000000
# 2 -0.002810 0.007284 -0.003800 0.000000 0.000000 0.000000
# 3 0.006603 -0.003800 0.053929 0.000000 0.000000 0.000000
# 4 0.000000 0.000000 0.000000 0.238884 0.000000 0.000000
# 5 0.000000 0.000000 0.000000 0.000000 0.032225 0.000000
# 6 0.000000 0.000000 0.000000 0.000000 0.000000 -0.012615
#
#
# Mechanical properties :
#
#
# Convention : Reuss Voigt Hill
#
# Bulk Modulus (GPa) = 12.47765 29.97771 21.22768
# Shear Modulus (GPa) = 13.68441 4.83634 9.26037
#
# Velocity S-wave (km/s) = 2.35482 1.39992 1.93713
# Velocity P-wave (km/s) = 3.52842 3.84195 3.68852
#
# Compressibility (1/GPa) = 0.08014329
#
# Stress axis : x y z
#
# Youngs Moduli (GPa) = 52.78796 137.28126 18.54282
#
# Poissons Ratio (x) = 0.38579 -0.12244
# Poissons Ratio (y) = 0.14835 0.07046
# Poissons Ratio (z) = -0.34856 0.52165
#
# Static dielectric constant tensor:
#      x y z
#    x 2.011060 0.000000 0.000000 
#    y 0.000000 2.045610 0.000000 
#    z 0.000000 0.000000 1.892820 
# 
# From -- ./inp_files/4072.got.cif
#   From: 2010.05.17/outbox.cif.g08.bks.cpg/sg61_3_cif.got.tgz:4072.got - 2010.06.03 15:17:17.
