data_PCOD9459754
_publ_section_title
;
Structure prediction by ZEFSAII (Michael W. Deem and Ramdas Pophale) SiO2 
 PCOD9459754
Probable space group: P B C A
;
_chemical_formula_sum "Si O2"
_cell_formula_units_Z 40
_cell_length_a 8.484397
_cell_length_b 12.742744
_cell_length_c 14.163878
_cell_angle_alpha 90.000000
_cell_angle_beta 90.000000
_cell_angle_gamma 90.000000
_cell_volume 1531.320573
_symmetry_space_group_name_H-M "P B C A"
_symmetry_group_IT_number 61
_symmetry_cell_setting 'orthorhombic'
loop_
_space_group_symop_operation_xyz
x,y,z
1/2-x,-y,1/2+z
1/2+x,1/2-y,-z
-x,1/2+y,1/2-z
-x,-y,-z
1/2+x,y,1/2-z
1/2-x,1/2+y,z
x,1/2-y,1/2+z
loop_
_atom_site_type_symbol
_atom_site_label
_atom_site_fract_x
_atom_site_fract_y
_atom_site_fract_z
Si Si1 0.042171 0.854928 0.928983
Si Si2 0.199401 0.805185 0.559656
Si Si3 0.382617 0.765283 0.739325
Si Si4 0.675779 0.049779 0.677552
Si Si5 0.993943 0.961880 0.649998
O O1 0.866123 0.853162 0.970796
O O2 0.022745 0.779961 0.837060
O O3 0.086997 0.969134 0.891656
O O4 0.156428 0.796134 0.999755
O O5 0.233561 0.767771 0.667686
O O6 0.071075 0.898233 0.563913
O O7 0.384959 0.667174 0.807851
O O8 0.393085 0.870823 0.798650
O O9 0.858137 0.048757 0.646094
O O10 0.634606 0.003589 0.783123
#
# Coordination Sequence:
#
# PCOD9459754 Si02
#       5
#     8   8   8   8   8
#     4   9  21  40  69  99 141 177 222 289 344 404
#     4  10  20  43  67 101 139 178 224 287 349 399
#     4   9  23  38  67  97 136 177 232 273 347 408
#     4  11  21  38  66  97 132 182 227 282 337 412
#     4  11  21  39  65  93 140 176 233 282 328 415
#
# _framework density 26.121244000000001
#
# number of rings (size 3 to 8) (size 9 to 14) (size 15 to 20)
#    1.200    0.800    2.000    1.200    2.800    0.000 
#    0.000    2.000    8.800    0.000    0.000    0.000 
#    0.000    0.000    0.000    0.000    0.000    0.000 
#
# Total GULP energy -223712.858312 kJ/mol
# GULP energy per Si atom -5592.821458 kJ/mol
# Density = 2.606179 g / cm^3
# Si number density = 26.121244 Si / 1000 Ang^3
#
#
#
# Elastic Constant Matrix: (Units=GPa)
#
#
# Indices 1 2 3 4 5 6 
#
# 1 104.0757 29.0903 29.2416 0.0000 0.0000 0.0000
# 2 29.0903 114.7808 33.1315 0.0000 0.0000 0.0000
# 3 29.2416 33.1315 98.1187 0.0000 0.0000 0.0000
# 4 0.0000 0.0000 0.0000 54.4289 0.0000 0.0000
# 5 0.0000 0.0000 0.0000 0.0000 39.9961 0.0000
# 6 0.0000 0.0000 0.0000 0.0000 0.0000 32.1646
#
#
#
# Elastic Compliance Matrix: (Units=1/GPa)
#
#
# Indices 1 2 3 4 5 6 
#
# 1 0.010894 -0.002021 -0.002564 0.000000 0.000000 0.000000
# 2 -0.002021 0.010028 -0.002784 0.000000 0.000000 0.000000
# 3 -0.002564 -0.002784 0.011896 0.000000 0.000000 0.000000
# 4 0.000000 0.000000 0.000000 0.018373 0.000000 0.000000
# 5 0.000000 0.000000 0.000000 0.000000 0.025002 0.000000
# 6 0.000000 0.000000 0.000000 0.000000 0.000000 0.031090
#
#
# Mechanical properties :
#
#
# Convention : Reuss Voigt Hill
#
# Bulk Modulus (GPa) = 55.31010 55.54467 55.42739
# Shear Modulus (GPa) = 39.04815 40.35204 39.70010
#
# Velocity S-wave (km/s) = 3.87056 3.93466 3.90274
# Velocity P-wave (km/s) = 6.41836 6.47706 6.44778
#
# Compressibility (1/GPa) = 0.01807988
#
# Stress axis : x y z
#
# Youngs Moduli (GPa) = 91.79639 99.72109 84.06212
#
# Poissons Ratio (x) = 0.20151 0.21555
# Poissons Ratio (y) = 0.18550 0.23402
# Poissons Ratio (z) = 0.23539 0.27761
#
# Static dielectric constant tensor:
#      x y z
#    x 2.113470 0.000000 0.000000 
#    y 0.000000 1.982440 0.000000 
#    z 0.000000 0.000000 2.125070 
# 
# From -- ./inp_files/6964.got.cif
#   From: 2010.05.17/outbox.cif.g08.bks.cpg/sg61_4_cif.got.tgz:6964.got - 2010.06.03 15:17:17.
