data_PCOD9459994
_publ_section_title
;
Structure prediction by ZEFSAII (Michael W. Deem and Ramdas Pophale) SiO2 
 PCOD9459994
Probable space group: P B C A
;
_chemical_formula_sum "Si O2"
_cell_formula_units_Z 48
_cell_length_a 18.407130
_cell_length_b 7.773179
_cell_length_c 16.841976
_cell_angle_alpha 90.000000
_cell_angle_beta 90.000000
_cell_angle_gamma 90.000000
_cell_volume 2409.782201
_symmetry_space_group_name_H-M "P B C A"
_symmetry_group_IT_number 61
_symmetry_cell_setting 'orthorhombic'
loop_
_space_group_symop_operation_xyz
x,y,z
1/2-x,-y,1/2+z
1/2+x,1/2-y,-z
-x,1/2+y,1/2-z
-x,-y,-z
1/2+x,y,1/2-z
1/2-x,1/2+y,z
x,1/2-y,1/2+z
loop_
_atom_site_type_symbol
_atom_site_label
_atom_site_fract_x
_atom_site_fract_y
_atom_site_fract_z
Si Si1 0.840854 0.352035 0.446084
Si Si2 0.984737 0.215734 0.862020
Si Si3 0.849942 0.919216 0.273353
Si Si4 0.093246 0.922985 0.888723
Si Si5 0.984760 0.406103 0.184274
Si Si6 0.771520 0.856709 0.855764
O O1 0.912165 0.255968 0.412662
O O2 0.854622 0.390782 0.537474
O O3 0.765599 0.257811 0.424582
O O4 0.832288 0.526049 0.395498
O O5 0.026122 0.395939 0.843396
O O6 0.964045 0.133172 0.776168
O O7 0.034326 0.073393 0.905106
O O8 0.927803 0.891117 0.314251
O O9 0.806892 0.741873 0.281647
O O10 0.865551 0.002098 0.188365
O O11 0.797201 0.043157 0.321504
O O12 0.053497 0.743673 0.865924
#
# Coordination Sequence:
#
# PCOD9459994 Si02
#       6
#     8   8   8   8   8   8
#     4  11  23  42  60  95 130 163 211 261 329 370
#     4  11  21  39  64  94 123 166 207 261 318 375
#     4  10  21  40  63  91 114 171 216 248 308 379
#     4  11  24  39  63  99 125 159 208 272 320 369
#     4  11  20  39  66  92 125 159 214 262 308 381
#     4  10  22  41  65  81 128 175 208 255 302 392
#
# _framework density 19.918813
#
# number of rings (size 3 to 8) (size 9 to 14) (size 15 to 20)
#    0.000    1.333    5.000    1.500    2.333    2.000 
#    6.000    0.000    0.000    0.000    0.000    0.000 
#    0.000    0.000    0.000    0.000    0.000    0.000 
#
# Total GULP energy -267654.370342 kJ/mol
# GULP energy per Si atom -5576.132715 kJ/mol
# Density = 1.987348 g / cm^3
# Si number density = 19.918813 Si / 1000 Ang^3
#
#
#
# Elastic Constant Matrix: (Units=GPa)
#
#
# Indices 1 2 3 4 5 6 
#
# 1 57.3878 17.9436 46.0327 0.0000 0.0000 0.0000
# 2 17.9436 94.4849 42.2299 0.0000 0.0000 0.0000
# 3 46.0327 42.2299 72.0016 0.0000 0.0000 0.0000
# 4 0.0000 0.0000 0.0000 9.2441 0.0000 0.0000
# 5 0.0000 0.0000 0.0000 0.0000 33.1832 0.0000
# 6 0.0000 0.0000 0.0000 0.0000 0.0000 -15.1675
#
#
#
# Elastic Compliance Matrix: (Units=1/GPa)
#
#
# Indices 1 2 3 4 5 6 
#
# 1 0.037339 0.004850 -0.026716 0.000000 0.000000 0.000000
# 2 0.004850 0.014974 -0.011883 0.000000 0.000000 0.000000
# 3 -0.026716 -0.011883 0.037939 0.000000 0.000000 0.000000
# 4 0.000000 0.000000 0.000000 0.108177 0.000000 0.000000
# 5 0.000000 0.000000 0.000000 0.000000 0.030136 0.000000
# 6 0.000000 0.000000 0.000000 0.000000 0.000000 -0.065931
#
#
# Mechanical properties :
#
#
# Convention : Reuss Voigt Hill
#
# Bulk Modulus (GPa) = 43.95146 48.47631 46.21388
# Shear Modulus (GPa) = 21.03344 13.29650 17.16497
#
# Velocity S-wave (km/s) = 3.25308 2.58647 2.93874
# Velocity P-wave (km/s) = 6.01857 5.77144 5.89630
#
# Compressibility (1/GPa) = 0.02275237
#
# Stress axis : x y z
#
# Youngs Moduli (GPa) = 26.78171 66.78362 26.35842
#
# Poissons Ratio (x) = -0.32389 0.70420
# Poissons Ratio (y) = -0.12989 0.31321
# Poissons Ratio (z) = 0.71551 0.79358
#
# Static dielectric constant tensor:
#      x y z
#    x 1.685550 0.000000 0.000000 
#    y 0.000000 1.797690 0.000000 
#    z 0.000000 0.000000 1.669160 
# 
# From -- ./inp_files/8121.got.cif
#   From: 2010.05.17/outbox.cif.g08.bks.cpg/sg61_5_cif.got.tgz:8121.got - 2010.06.03 15:17:17.
