data_PCOD9459802
_publ_section_title
;
Structure prediction by ZEFSAII (Michael W. Deem and Ramdas Pophale) SiO2 
 PCOD9459802
Probable space group: P B C A
;
_chemical_formula_sum "Si O2"
_cell_formula_units_Z 48
_cell_length_a 9.316893
_cell_length_b 20.051061
_cell_length_c 9.565693
_cell_angle_alpha 90.000000
_cell_angle_beta 90.000000
_cell_angle_gamma 90.000000
_cell_volume 1787.001449
_symmetry_space_group_name_H-M "P B C A"
_symmetry_group_IT_number 61
_symmetry_cell_setting 'orthorhombic'
loop_
_space_group_symop_operation_xyz
x,y,z
1/2-x,-y,1/2+z
1/2+x,1/2-y,-z
-x,1/2+y,1/2-z
-x,-y,-z
1/2+x,y,1/2-z
1/2-x,1/2+y,z
x,1/2-y,1/2+z
loop_
_atom_site_type_symbol
_atom_site_label
_atom_site_fract_x
_atom_site_fract_y
_atom_site_fract_z
Si Si1 0.556087 0.986476 0.766623
Si Si2 0.491496 0.697455 0.801819
Si Si3 0.288887 0.188797 0.934769
Si Si4 0.708085 0.013820 0.046109
Si Si5 0.271203 0.166873 0.484826
Si Si6 0.915417 0.342713 0.801122
O O1 0.640194 0.003115 0.622400
O O2 0.415679 0.014622 0.847801
O O3 0.511154 0.909185 0.748235
O O4 0.676930 0.992107 0.887873
O O5 0.562642 0.690995 0.650912
O O6 0.332191 0.670921 0.822810
O O7 0.493562 0.776958 0.833259
O O8 0.591174 0.659786 0.913725
O O9 0.232039 0.255535 0.017376
O O10 0.322541 0.141539 0.062714
O O11 0.694788 0.095379 0.024769
O O12 0.316646 0.178822 0.325466
#
# Coordination Sequence:
#
# PCOD9459802 Si02
#       6
#     8   8   8   8   8   8
#     4  10  22  40  61  85 113 148 191 237 284 335
#     4  10  21  36  57  86 118 151 187 230 281 337
#     4  10  21  36  57  86 118 151 187 230 281 337
#     4  10  22  40  61  85 113 148 191 237 284 335
#     4   9  20  36  57  82 113 149 189 231 278 332
#     4   9  20  36  57  82 113 149 189 231 278 332
#
# _framework density 26.860637000000001
#
# number of rings (size 3 to 8) (size 9 to 14) (size 15 to 20)
#    0.000    2.333    0.000    1.000    0.000   20.667 
#    0.000    3.333    0.000    0.000    0.000    0.000 
#    0.000    0.000    0.000    0.000    0.000    0.000 
#
# Total GULP energy -267631.160703 kJ/mol
# GULP energy per Si atom -5575.649181 kJ/mol
# Density = 2.679950 g / cm^3
# Si number density = 26.860637 Si / 1000 Ang^3
#
#
#
# Elastic Constant Matrix: (Units=GPa)
#
#
# Indices 1 2 3 4 5 6 
#
# 1 59.3145 -11.3043 26.2916 0.0000 0.0000 0.0000
# 2 -11.3043 60.6016 -8.3669 0.0000 0.0000 0.0000
# 3 26.2916 -8.3669 99.5246 0.0000 0.0000 0.0000
# 4 0.0000 0.0000 0.0000 19.5411 0.0000 0.0000
# 5 0.0000 0.0000 0.0000 0.0000 48.0685 0.0000
# 6 0.0000 0.0000 0.0000 0.0000 0.0000 11.1923
#
#
#
# Elastic Compliance Matrix: (Units=1/GPa)
#
#
# Indices 1 2 3 4 5 6 
#
# 1 0.019612 0.002978 -0.004931 0.000000 0.000000 0.000000
# 2 0.002978 0.017147 0.000655 0.000000 0.000000 0.000000
# 3 -0.004931 0.000655 0.011405 0.000000 0.000000 0.000000
# 4 0.000000 0.000000 0.000000 0.051174 0.000000 0.000000
# 5 0.000000 0.000000 0.000000 0.000000 0.020804 0.000000
# 6 0.000000 0.000000 0.000000 0.000000 0.000000 0.089347
#
#
# Mechanical properties :
#
#
# Convention : Reuss Voigt Hill
#
# Bulk Modulus (GPa) = 21.94500 25.85351 23.89925
# Shear Modulus (GPa) = 21.99970 29.94840 25.97405
#
# Velocity S-wave (km/s) = 2.86498 3.34272 3.11302
# Velocity P-wave (km/s) = 4.37399 4.95422 4.67312
#
# Compressibility (1/GPa) = 0.04556847
#
# Stress axis : x y z
#
# Youngs Moduli (GPa) = 50.98837 58.31905 87.67801
#
# Poissons Ratio (x) = -0.17365 0.43231
# Poissons Ratio (y) = -0.15182 -0.05742
# Poissons Ratio (z) = 0.25141 -0.03819
#
# Static dielectric constant tensor:
#      x y z
#    x 2.122670 0.000000 0.000000 
#    y 0.000000 2.231330 0.000000 
#    z 0.000000 0.000000 2.254060 
# 
# From -- ./inp_files/4866.got.cif
#   From: 2010.05.17/outbox.cif.g08.bks.cpg/sg61_3_cif.got.tgz:4866.got - 2010.06.03 15:17:17.
