data_PCOD9459677
_publ_section_title
;
Structure prediction by ZEFSAII (Michael W. Deem and Ramdas Pophale) SiO2 
 PCOD9459677
Probable space group: P B C A
;
_chemical_formula_sum "Si O2"
_cell_formula_units_Z 64
_cell_length_a 14.188561
_cell_length_b 15.495299
_cell_length_c 13.193506
_cell_angle_alpha 90.000000
_cell_angle_beta 90.000000
_cell_angle_gamma 90.000000
_cell_volume 2900.671390
_symmetry_space_group_name_H-M "P B C A"
_symmetry_group_IT_number 61
_symmetry_cell_setting 'orthorhombic'
loop_
_space_group_symop_operation_xyz
x,y,z
1/2-x,-y,1/2+z
1/2+x,1/2-y,-z
-x,1/2+y,1/2-z
-x,-y,-z
1/2+x,y,1/2-z
1/2-x,1/2+y,z
x,1/2-y,1/2+z
loop_
_atom_site_type_symbol
_atom_site_label
_atom_site_fract_x
_atom_site_fract_y
_atom_site_fract_z
Si Si1 0.553844 0.130863 0.182596
Si Si2 0.519095 0.903691 0.370759
Si Si3 0.632394 0.173331 0.483880
Si Si4 0.788540 0.778755 0.184501
Si Si5 0.326609 0.967454 0.676732
Si Si6 0.468580 0.650585 0.545423
Si Si7 0.078263 0.754089 0.285015
Si Si8 0.632583 0.055742 0.788449
O O1 0.631820 0.206551 0.180000
O O2 0.612276 0.048940 0.221608
O O3 0.477564 0.165994 0.262978
O O4 0.510968 0.125678 0.070302
O O5 0.462351 0.870666 0.468774
O O6 0.547693 0.819672 0.304812
O O7 0.441908 0.955887 0.303034
O O8 0.613680 0.959266 0.383245
O O9 0.708162 0.175938 0.574343
O O10 0.666845 0.118655 0.389612
O O11 0.607447 0.271413 0.457869
O O12 0.688782 0.740587 0.212603
O O13 0.818743 0.852737 0.261789
O O14 0.219458 0.991553 0.699698
O O15 0.549552 0.695446 0.612538
O O16 0.425681 0.571681 0.609068
#
# Coordination Sequence:
#
# PCOD9459677 Si02
#       8
#     8   8   8   8   8   8   8   8
#     4  11  23  42  64  92 132 158 220 271 306 387
#     4  10  21  40  64  87 125 170 205 255 326 385
#     4  10  20  41  62  91 127 155 214 266 307 378
#     4  10  20  40  66  89 117 173 210 259 318 383
#     4  12  23  39  63  95 130 168 205 272 330 375
#     4  10  20  42  62  90 123 170 212 265 307 375
#     4  11  19  41  67  87 123 170 212 258 323 382
#     4  10  21  39  62  86 130 166 209 258 323 377
#
# _framework density 22.063858
#
# number of rings (size 3 to 8) (size 9 to 14) (size 15 to 20)
#    0.000    1.500    7.500    0.375    0.000    3.000 
#   13.500    1.250    0.000    0.000    0.000    0.000 
#    0.000    0.000    0.000    0.000    0.000    0.000 
#
# Total GULP energy -357584.607821 kJ/mol
# GULP energy per Si atom -5587.259497 kJ/mol
# Density = 2.201364 g / cm^3
# Si number density = 22.063858 Si / 1000 Ang^3
#
#
#
# Elastic Constant Matrix: (Units=GPa)
#
#
# Indices 1 2 3 4 5 6 
#
# 1 95.3535 0.6789 4.7847 0.0000 0.0000 0.0000
# 2 0.6789 42.4881 2.6384 0.0000 0.0000 0.0000
# 3 4.7847 2.6384 80.0186 0.0000 0.0000 0.0000
# 4 0.0000 0.0000 0.0000 13.4690 0.0000 0.0000
# 5 0.0000 0.0000 0.0000 0.0000 2.6211 0.0000
# 6 0.0000 0.0000 0.0000 0.0000 0.0000 23.2115
#
#
#
# Elastic Compliance Matrix: (Units=1/GPa)
#
#
# Indices 1 2 3 4 5 6 
#
# 1 0.010520 -0.000129 -0.000625 0.000000 0.000000 0.000000
# 2 -0.000129 0.023586 -0.000770 0.000000 0.000000 0.000000
# 3 -0.000625 -0.000770 0.012560 0.000000 0.000000 0.000000
# 4 0.000000 0.000000 0.000000 0.074244 0.000000 0.000000
# 5 0.000000 0.000000 0.000000 0.000000 0.381515 0.000000
# 6 0.000000 0.000000 0.000000 0.000000 0.000000 0.043082
#
#
# Mechanical properties :
#
#
# Convention : Reuss Voigt Hill
#
# Bulk Modulus (GPa) = 22.92668 26.00711 24.46689
# Shear Modulus (GPa) = 8.87952 21.84421 15.36186
#
# Velocity S-wave (km/s) = 2.00828 3.14991 2.64151
# Velocity P-wave (km/s) = 3.97382 5.00420 4.51848
#
# Compressibility (1/GPa) = 0.04361731
#
# Stress axis : x y z
#
# Youngs Moduli (GPa) = 95.06097 42.39827 79.61885
#
# Poissons Ratio (x) = 0.00548 0.04974
# Poissons Ratio (y) = 0.01229 0.06130
# Poissons Ratio (z) = 0.05939 0.03264
#
# Static dielectric constant tensor:
#      x y z
#    x 1.785890 0.000000 0.000000 
#    y 0.000000 1.855650 0.000000 
#    z 0.000000 0.000000 1.866410 
# 
# From -- ./inp_files/8019.got.cif
#   From: 2010.05.17/outbox.cif.g08.bks.cpg/sg61_5_cif.got.tgz:8019.got - 2010.06.03 15:17:17.
