data_PCOD9459295
_publ_section_title
;
Structure prediction by ZEFSAII (Michael W. Deem and Ramdas Pophale) SiO2 
 PCOD9459295
Probable space group: P B C A
;
_chemical_formula_sum "Si O2"
_cell_formula_units_Z 48
_cell_length_a 8.037308
_cell_length_b 14.697915
_cell_length_c 16.778734
_cell_angle_alpha 90.000000
_cell_angle_beta 90.000000
_cell_angle_gamma 90.000000
_cell_volume 1982.099865
_symmetry_space_group_name_H-M "P B C A"
_symmetry_group_IT_number 61
_symmetry_cell_setting 'orthorhombic'
loop_
_space_group_symop_operation_xyz
x,y,z
1/2-x,-y,1/2+z
1/2+x,1/2-y,-z
-x,1/2+y,1/2-z
-x,-y,-z
1/2+x,y,1/2-z
1/2-x,1/2+y,z
x,1/2-y,1/2+z
loop_
_atom_site_type_symbol
_atom_site_label
_atom_site_fract_x
_atom_site_fract_y
_atom_site_fract_z
Si Si1 0.773424 0.396027 0.502924
Si Si2 0.504723 0.413064 0.229848
Si Si3 0.538322 0.348259 0.632632
Si Si4 0.727876 0.989946 0.850837
Si Si5 0.504889 0.250066 0.473328
Si Si6 0.272112 0.298253 0.326318
O O1 0.659926 0.415288 0.580969
O O2 0.763134 0.477082 0.440320
O O3 0.675549 0.308073 0.462748
O O4 0.955534 0.357255 0.526872
O O5 0.396155 0.496429 0.198512
O O6 0.599838 0.439750 0.309733
O O7 0.387553 0.328593 0.253478
O O8 0.640008 0.380085 0.166830
O O9 0.372535 0.397485 0.659446
O O10 0.479779 0.278069 0.564927
O O11 0.663841 0.292388 0.688168
O O12 0.377728 0.286406 0.406383
#
# Coordination Sequence:
#
# PCOD9459295 Si02
#       6
#     8   8   8   8   8   8
#     4   9  18  33  58  78 106 136 180 224 273 316
#     4  10  22  34  58  73 111 150 182 218 259 337
#     4   9  20  33  58  78 111 135 178 232 275 311
#     4  11  20  36  54  80 109 145 177 224 281 317
#     4   9  18  33  57  80 104 136 180 228 267 325
#     4  10  19  38  53  82 102 145 188 216 265 331
#
# _framework density 24.216742
#
# number of rings (size 3 to 8) (size 9 to 14) (size 15 to 20)
#    1.000    1.333    1.667    1.500    0.000    1.333 
#    0.000    0.833   14.667    0.000    0.000    0.000 
#    0.000    0.000    0.000    0.000    0.000    0.000 
#
# Total GULP energy -267221.363319 kJ/mol
# GULP energy per Si atom -5567.111736 kJ/mol
# Density = 2.416162 g / cm^3
# Si number density = 24.216742 Si / 1000 Ang^3
#
#
#
# Elastic Constant Matrix: (Units=GPa)
#
#
# Indices 1 2 3 4 5 6 
#
# 1 54.1504 11.9471 1.3447 0.0000 0.0000 0.0000
# 2 11.9471 21.2215 -1.9530 0.0000 0.0000 0.0000
# 3 1.3447 -1.9530 23.2812 0.0000 0.0000 0.0000
# 4 0.0000 0.0000 0.0000 9.2736 0.0000 0.0000
# 5 0.0000 0.0000 0.0000 0.0000 -9.9858 0.0000
# 6 0.0000 0.0000 0.0000 0.0000 0.0000 31.6772
#
#
#
# Elastic Compliance Matrix: (Units=1/GPa)
#
#
# Indices 1 2 3 4 5 6 
#
# 1 0.021202 -0.012142 -0.002243 0.000000 0.000000 0.000000
# 2 -0.012142 0.054443 0.005268 0.000000 0.000000 0.000000
# 3 -0.002243 0.005268 0.043525 0.000000 0.000000 0.000000
# 4 0.000000 0.000000 0.000000 0.107832 0.000000 0.000000
# 5 0.000000 0.000000 0.000000 0.000000 -0.100142 0.000000
# 6 0.000000 0.000000 0.000000 0.000000 0.000000 0.031568
#
#
# Mechanical properties :
#
#
# Convention : Reuss Voigt Hill
#
# Bulk Modulus (GPa) = 9.90742 13.48120 11.69431
# Shear Modulus (GPa) = 23.77472 12.01396 17.89434
#
# Velocity S-wave (km/s) = 3.13668 2.22975 2.72127
# Velocity P-wave (km/s) = 4.14951 3.49400 3.83578
#
# Compressibility (1/GPa) = 0.10093448
#
# Stress axis : x y z
#
# Youngs Moduli (GPa) = 47.16589 18.36790 22.97553
#
# Poissons Ratio (x) = 0.22303 0.05154
# Poissons Ratio (y) = 0.57271 -0.12104
# Poissons Ratio (z) = 0.10580 -0.09677
#
# Static dielectric constant tensor:
#      x y z
#    x 1.989910 0.000000 0.000000 
#    y 0.000000 1.979140 0.000000 
#    z 0.000000 0.000000 1.892890 
# 
# From -- ./inp_files/8924.got.cif
#   From: 2010.05.17/outbox.cif.g08.bks.cpg/sg61_5_cif.got.tgz:8924.got - 2010.06.03 15:17:17.
