data_PCOD9459538
_publ_section_title
;
Structure prediction by ZEFSAII (Michael W. Deem and Ramdas Pophale) SiO2 
 PCOD9459538
Probable space group: P B C A
;
_chemical_formula_sum "Si O2"
_cell_formula_units_Z 48
_cell_length_a 8.052172
_cell_length_b 14.858898
_cell_length_c 17.788996
_cell_angle_alpha 90.000000
_cell_angle_beta 90.000000
_cell_angle_gamma 90.000000
_cell_volume 2128.389374
_symmetry_space_group_name_H-M "P B C A"
_symmetry_group_IT_number 61
_symmetry_cell_setting 'orthorhombic'
loop_
_space_group_symop_operation_xyz
x,y,z
1/2-x,-y,1/2+z
1/2+x,1/2-y,-z
-x,1/2+y,1/2-z
-x,-y,-z
1/2+x,y,1/2-z
1/2-x,1/2+y,z
x,1/2-y,1/2+z
loop_
_atom_site_type_symbol
_atom_site_label
_atom_site_fract_x
_atom_site_fract_y
_atom_site_fract_z
Si Si1 0.255662 0.530909 0.040355
Si Si2 0.157731 0.308820 0.641923
Si Si3 0.054106 0.436892 0.246721
Si Si4 0.840911 0.131023 0.863387
Si Si5 0.887401 0.983542 0.611409
Si Si6 0.666421 0.866805 0.703417
O O1 0.343976 0.615222 0.078189
O O2 0.344177 0.440668 0.069883
O O3 0.068395 0.532400 0.075308
O O4 0.230275 0.525690 0.951692
O O5 0.257960 0.223388 0.611905
O O6 0.257535 0.338663 0.716952
O O7 0.968863 0.298028 0.670725
O O8 0.006834 0.369016 0.313407
O O9 0.915842 0.450994 0.181790
O O10 0.210962 0.408204 0.197948
O O11 0.075664 0.536651 0.282131
O O12 0.809797 0.892009 0.644360
#
# Coordination Sequence:
#
# PCOD9459538 Si02
#       6
#     8   8   8   8   8   8
#     4  10  21  41  60  83 126 160 189 237 301 360
#     4  12  22  37  61  88 120 152 197 251 294 349
#     4  11  18  38  62  84 112 153 198 243 291 344
#     4  11  22  37  59  88 117 154 196 245 294 350
#     4  10  20  37  67  82 116 164 192 236 305 347
#     4  12  19  38  64  88 112 155 201 246 293 345
#
# _framework density 22.552264999999998
#
# number of rings (size 3 to 8) (size 9 to 14) (size 15 to 20)
#    0.000    1.000    8.333    1.000    0.000    0.667 
#    0.000    6.667    0.000    0.000    0.000    0.000 
#    0.000    0.000    0.000    0.000    0.000    0.000 
#
# Total GULP energy -268260.692737 kJ/mol
# GULP energy per Si atom -5588.764432 kJ/mol
# Density = 2.250094 g / cm^3
# Si number density = 22.552265 Si / 1000 Ang^3
#
#
#
# Elastic Constant Matrix: (Units=GPa)
#
#
# Indices 1 2 3 4 5 6 
#
# 1 33.0857 -21.2082 7.0753 0.0000 0.0000 0.0000
# 2 -21.2082 55.6873 -1.9135 0.0000 0.0000 0.0000
# 3 7.0753 -1.9135 64.7297 0.0000 0.0000 0.0000
# 4 0.0000 0.0000 0.0000 3.4169 0.0000 0.0000
# 5 0.0000 0.0000 0.0000 0.0000 19.7257 0.0000
# 6 0.0000 0.0000 0.0000 0.0000 0.0000 18.6404
#
#
#
# Elastic Compliance Matrix: (Units=1/GPa)
#
#
# Indices 1 2 3 4 5 6 
#
# 1 0.041008 0.015479 -0.004025 0.000000 0.000000 0.000000
# 2 0.015479 0.023819 -0.000988 0.000000 0.000000 0.000000
# 3 -0.004025 -0.000988 0.015860 0.000000 0.000000 0.000000
# 4 0.000000 0.000000 0.000000 0.292667 0.000000 0.000000
# 5 0.000000 0.000000 0.000000 0.000000 0.050695 0.000000
# 6 0.000000 0.000000 0.000000 0.000000 0.000000 0.053647
#
#
# Mechanical properties :
#
#
# Convention : Reuss Voigt Hill
#
# Bulk Modulus (GPa) = 9.84067 13.48998 11.66533
# Shear Modulus (GPa) = 10.19088 19.65986 14.92537
#
# Velocity S-wave (km/s) = 2.12805 2.95574 2.57536
# Velocity P-wave (km/s) = 3.22662 4.20038 3.74528
#
# Compressibility (1/GPa) = 0.10161907
#
# Stress axis : x y z
#
# Youngs Moduli (GPa) = 24.38572 41.98392 63.05338
#
# Poissons Ratio (x) = -0.64988 0.25377
# Poissons Ratio (y) = -0.37747 0.06229
# Poissons Ratio (z) = 0.09815 0.04147
#
# Static dielectric constant tensor:
#      x y z
#    x 1.939910 0.000000 0.000000 
#    y 0.000000 1.849030 0.000000 
#    z 0.000000 0.000000 1.795730 
# 
# From -- ./inp_files/2920.got.cif
#   From: 2010.05.17/outbox.cif.g08.bks.cpg/sg61_2_cif.got.tgz:2920.got - 2010.06.03 15:17:17.
