data_PCOD9459637
_publ_section_title
;
Structure prediction by ZEFSAII (Michael W. Deem and Ramdas Pophale) SiO2 
 PCOD9459637
Probable space group: P B C A
;
_chemical_formula_sum "Si O2"
_cell_formula_units_Z 48
_cell_length_a 14.700036
_cell_length_b 9.711203
_cell_length_c 14.637208
_cell_angle_alpha 90.000000
_cell_angle_beta 90.000000
_cell_angle_gamma 90.000000
_cell_volume 2089.535121
_symmetry_space_group_name_H-M "P B C A"
_symmetry_group_IT_number 61
_symmetry_cell_setting 'orthorhombic'
loop_
_space_group_symop_operation_xyz
x,y,z
1/2-x,-y,1/2+z
1/2+x,1/2-y,-z
-x,1/2+y,1/2-z
-x,-y,-z
1/2+x,y,1/2-z
1/2-x,1/2+y,z
x,1/2-y,1/2+z
loop_
_atom_site_type_symbol
_atom_site_label
_atom_site_fract_x
_atom_site_fract_y
_atom_site_fract_z
Si Si1 0.625084 0.035647 0.436606
Si Si2 0.657208 0.919095 0.628012
Si Si3 0.442279 0.258531 0.629031
Si Si4 0.985355 0.292775 0.065767
Si Si5 0.579571 0.363119 0.261021
Si Si6 0.245007 0.172204 0.210543
O O1 0.557987 0.166148 0.440813
O O2 0.698680 0.068783 0.360027
O O3 0.668564 0.004690 0.535242
O O4 0.572276 0.898121 0.407763
O O5 0.607563 0.777153 0.601717
O O6 0.745542 0.887271 0.687527
O O7 0.593646 0.007584 0.695650
O O8 0.468177 0.341060 0.537314
O O9 0.521416 0.249226 0.704109
O O10 0.345854 0.297031 0.673391
O O11 0.025365 0.388587 0.145364
O O12 0.678550 0.302926 0.284428
#
# Coordination Sequence:
#
# PCOD9459637 Si02
#       6
#     8   8   8   8   8   8
#     4  10  21  40  62  87 120 166 204 237 310 376
#     4  11  20  40  64  84 122 164 200 247 304 361
#     4  11  20  42  63  86 123 162 202 251 305 357
#     4  10  20  39  65  86 116 164 204 244 302 371
#     4  11  22  40  64  91 122 161 207 247 306 361
#     4  11  25  38  59  98 123 153 209 259 292 361
#
# _framework density 22.971616999999998
#
# number of rings (size 3 to 8) (size 9 to 14) (size 15 to 20)
#    0.000    1.333    5.000    2.000    0.000    2.667 
#    6.000    0.833    0.000    0.000    0.000    0.000 
#    0.000    0.000    0.000    0.000    0.000    0.000 
#
# Total GULP energy -268448.334592 kJ/mol
# GULP energy per Si atom -5592.673637 kJ/mol
# Density = 2.291933 g / cm^3
# Si number density = 22.971617 Si / 1000 Ang^3
#
#
#
# Elastic Constant Matrix: (Units=GPa)
#
#
# Indices 1 2 3 4 5 6 
#
# 1 85.9942 -2.1243 42.6656 0.0000 0.0000 0.0000
# 2 -2.1243 26.2668 31.6195 0.0000 0.0000 0.0000
# 3 42.6656 31.6195 156.8765 0.0000 0.0000 0.0000
# 4 0.0000 0.0000 0.0000 31.7731 0.0000 0.0000
# 5 0.0000 0.0000 0.0000 0.0000 52.6620 0.0000
# 6 0.0000 0.0000 0.0000 0.0000 0.0000 13.6138
#
#
#
# Elastic Compliance Matrix: (Units=1/GPa)
#
#
# Indices 1 2 3 4 5 6 
#
# 1 0.014575 0.007857 -0.005548 0.000000 0.000000 0.000000
# 2 0.007857 0.054502 -0.013122 0.000000 0.000000 0.000000
# 3 -0.005548 -0.013122 0.010528 0.000000 0.000000 0.000000
# 4 0.000000 0.000000 0.000000 0.031473 0.000000 0.000000
# 5 0.000000 0.000000 0.000000 0.000000 0.018989 0.000000
# 6 0.000000 0.000000 0.000000 0.000000 0.000000 0.073455
#
#
# Mechanical properties :
#
#
# Convention : Reuss Voigt Hill
#
# Bulk Modulus (GPa) = 17.24734 45.93989 31.59361
# Shear Modulus (GPa) = 20.45197 32.74156 26.59676
#
# Velocity S-wave (km/s) = 2.98705 3.77942 3.40635
# Velocity P-wave (km/s) = 4.40693 6.25198 5.40871
#
# Compressibility (1/GPa) = 0.05797995
#
# Stress axis : x y z
#
# Youngs Moduli (GPa) = 68.60965 18.34780 94.98405
#
# Poissons Ratio (x) = -0.14416 0.52694
# Poissons Ratio (y) = -0.53906 1.24640
# Poissons Ratio (z) = 0.38062 0.24076
#
# Static dielectric constant tensor:
#      x y z
#    x 1.837270 0.000000 0.000000 
#    y 0.000000 1.911250 0.000000 
#    z 0.000000 0.000000 1.889030 
# 
# From -- ./inp_files/5766.got.cif
#   From: 2010.05.17/outbox.cif.g08.bks.cpg/sg61_3_cif.got.tgz:5766.got - 2010.06.03 15:17:17.
