data_PCOD9459507
_publ_section_title
;
Structure prediction by ZEFSAII (Michael W. Deem and Ramdas Pophale) SiO2 
 PCOD9459507
Probable space group: P B C A
;
_chemical_formula_sum "Si O2"
_cell_formula_units_Z 64
_cell_length_a 9.708390
_cell_length_b 12.662050
_cell_length_c 26.908290
_cell_angle_alpha 90.000000
_cell_angle_beta 90.000000
_cell_angle_gamma 90.000000
_cell_volume 3307.785491
_symmetry_space_group_name_H-M "P B C A"
_symmetry_group_IT_number 61
_symmetry_cell_setting 'orthorhombic'
loop_
_space_group_symop_operation_xyz
x,y,z
1/2-x,-y,1/2+z
1/2+x,1/2-y,-z
-x,1/2+y,1/2-z
-x,-y,-z
1/2+x,y,1/2-z
1/2-x,1/2+y,z
x,1/2-y,1/2+z
loop_
_atom_site_type_symbol
_atom_site_label
_atom_site_fract_x
_atom_site_fract_y
_atom_site_fract_z
Si Si1 0.893171 0.092619 0.488316
Si Si2 0.380800 0.256700 0.918921
Si Si3 0.572652 0.252716 0.565878
Si Si4 0.080954 0.095922 0.025239
Si Si5 0.642237 0.641543 0.273775
Si Si6 0.506242 0.681181 0.832756
Si Si7 0.312567 0.192377 0.810540
Si Si8 0.101769 0.503397 0.741307
O O1 0.887731 0.167075 0.537877
O O2 0.740308 0.061381 0.470119
O O3 0.961089 0.158829 0.444063
O O4 0.000000 0.000000 0.500000
O O5 0.223058 0.299498 0.921592
O O6 0.493035 0.348130 0.930526
O O7 0.384292 0.204493 0.864251
O O8 0.587934 0.188643 0.515416
O O9 0.516975 0.175213 0.608507
O O10 0.000000 0.000000 0.000000
O O11 0.603854 0.720591 0.318398
O O12 0.633774 0.716110 0.225373
O O13 0.528877 0.552027 0.265978
O O14 0.788930 0.584520 0.275381
O O15 0.352033 0.706106 0.813855
O O16 0.559536 0.577384 0.805034
O O17 0.337316 0.081555 0.783185
#
# Coordination Sequence:
#
# PCOD9459507 Si02
#       8
#     8   8   8   8   8   8   8   8
#     4  10  20  37  60  86 118 152 188 240 296 344
#     4   9  20  39  61  82 112 152 198 239 280 349
#     4   9  20  39  59  82 114 151 192 242 288 341
#     4  10  20  37  59  85 115 154 194 235 288 347
#     4  11  22  39  61  85 118 154 197 249 301 354
#     4  10  21  39  61  87 118 155 199 248 296 358
#     4  10  21  39  63  86 115 158 203 243 296 360
#     4  11  22  39  60  87 118 155 197 246 303 356
#
# _framework density 19.348292000000001
#
# number of rings (size 3 to 8) (size 9 to 14) (size 15 to 20)
#    0.000    2.000    2.500    0.750    0.000    3.000 
#    9.000    0.000    0.000    0.000    0.000    0.000 
#    0.000    0.000    0.000    0.000    0.000    0.000 
#
# Total GULP energy -356768.535073 kJ/mol
# GULP energy per Si atom -5574.508361 kJ/mol
# Density = 1.930425 g / cm^3
# Si number density = 19.348292 Si / 1000 Ang^3
#
#
#
# Elastic Constant Matrix: (Units=GPa)
#
#
# Indices 1 2 3 4 5 6 
#
# 1 92.2201 11.6679 3.2023 0.0000 0.0000 0.0000
# 2 11.6679 37.4514 -12.9145 0.0000 0.0000 0.0000
# 3 3.2023 -12.9145 53.6550 0.0000 0.0000 0.0000
# 4 0.0000 0.0000 0.0000 9.9160 0.0000 0.0000
# 5 0.0000 0.0000 0.0000 0.0000 25.2791 0.0000
# 6 0.0000 0.0000 0.0000 0.0000 0.0000 45.4773
#
#
#
# Elastic Compliance Matrix: (Units=1/GPa)
#
#
# Indices 1 2 3 4 5 6 
#
# 1 0.011425 -0.004138 -0.001678 0.000000 0.000000 0.000000
# 2 -0.004138 0.030617 0.007616 0.000000 0.000000 0.000000
# 3 -0.001678 0.007616 0.020571 0.000000 0.000000 0.000000
# 4 0.000000 0.000000 0.000000 0.100847 0.000000 0.000000
# 5 0.000000 0.000000 0.000000 0.000000 0.039558 0.000000
# 6 0.000000 0.000000 0.000000 0.000000 0.000000 0.021989
#
#
# Mechanical properties :
#
#
# Convention : Reuss Voigt Hill
#
# Bulk Modulus (GPa) = 15.10264 20.80422 17.95343
# Shear Modulus (GPa) = 20.53572 28.22587 24.38079
#
# Velocity S-wave (km/s) = 3.26140 3.82361 3.55364
# Velocity P-wave (km/s) = 4.69094 5.50174 5.11244
#
# Compressibility (1/GPa) = 0.06621361
#
# Stress axis : x y z
#
# Youngs Moduli (GPa) = 87.52385 32.66173 48.61226
#
# Poissons Ratio (x) = 0.13516 0.08157
# Poissons Ratio (y) = 0.36219 -0.37025
# Poissons Ratio (z) = 0.14686 -0.24876
#
# Static dielectric constant tensor:
#      x y z
#    x 1.686030 0.000000 0.000000 
#    y 0.000000 1.655460 0.000000 
#    z 0.000000 0.000000 1.706010 
# 
# From -- ./inp_files/2425.got.cif
#   From: 2010.05.17/outbox.cif.g08.bks.cpg/sg61_2_cif.got.tgz:2425.got - 2010.06.03 15:17:17.
