data_PCOD9459969
_publ_section_title
;
Structure prediction by ZEFSAII (Michael W. Deem and Ramdas Pophale) SiO2 
 PCOD9459969
Probable space group: P B C A
;
_chemical_formula_sum "Si O2"
_cell_formula_units_Z 40
_cell_length_a 13.575294
_cell_length_b 18.473967
_cell_length_c 7.001406
_cell_angle_alpha 90.000000
_cell_angle_beta 90.000000
_cell_angle_gamma 90.000000
_cell_volume 1755.879344
_symmetry_space_group_name_H-M "P B C A"
_symmetry_group_IT_number 61
_symmetry_cell_setting 'orthorhombic'
loop_
_space_group_symop_operation_xyz
x,y,z
1/2-x,-y,1/2+z
1/2+x,1/2-y,-z
-x,1/2+y,1/2-z
-x,-y,-z
1/2+x,y,1/2-z
1/2-x,1/2+y,z
x,1/2-y,1/2+z
loop_
_atom_site_type_symbol
_atom_site_label
_atom_site_fract_x
_atom_site_fract_y
_atom_site_fract_z
Si Si1 0.806000 0.852811 0.040139
Si Si2 0.452451 0.904326 0.778559
Si Si3 0.170857 0.535501 0.828313
Si Si4 0.836235 0.422011 0.603424
Si Si5 0.173367 0.314134 0.023834
O O1 0.702660 0.896400 0.042934
O O2 0.832793 0.846270 0.263839
O O3 0.804436 0.770466 0.968096
O O4 0.886150 0.894231 0.912827
O O5 0.563717 0.910502 0.714912
O O6 0.425477 0.835948 0.911130
O O7 0.409492 0.975659 0.884037
O O8 0.140677 0.562403 0.619277
O O9 0.272559 0.489419 0.818932
O O10 0.761171 0.354484 0.590543
#
# Coordination Sequence:
#
# PCOD9459969 Si02
#       5
#     8   8   8   8   8
#     4  11  21  42  66  91 132 174 209 274 331 386
#     4  11  22  44  65  93 136 166 226 269 323 403
#     4  10  21  39  66  90 126 170 211 268 323 378
#     4  10  22  42  65  96 127 175 212 270 328 384
#     4  10  23  43  63  94 132 171 218 267 334 389
#
# _framework density 22.780609999999999
#
# number of rings (size 3 to 8) (size 9 to 14) (size 15 to 20)
#    0.000    1.600    4.000    0.600    0.000    0.000 
#   10.800    3.000    0.000    0.000    0.000    0.000 
#    0.000    0.000    0.000    0.000    0.000    0.000 
#
# Total GULP energy -223712.075055 kJ/mol
# GULP energy per Si atom -5592.801876 kJ/mol
# Density = 2.272876 g / cm^3
# Si number density = 22.780610 Si / 1000 Ang^3
#
#
#
# Elastic Constant Matrix: (Units=GPa)
#
#
# Indices 1 2 3 4 5 6 
#
# 1 96.6784 52.8523 49.4425 0.0000 0.0000 0.0000
# 2 52.8523 115.9253 25.6175 0.0000 0.0000 0.0000
# 3 49.4425 25.6175 106.6589 0.0000 0.0000 0.0000
# 4 0.0000 0.0000 0.0000 36.0060 0.0000 0.0000
# 5 0.0000 0.0000 0.0000 0.0000 35.0684 0.0000
# 6 0.0000 0.0000 0.0000 0.0000 0.0000 8.3572
#
#
#
# Elastic Compliance Matrix: (Units=1/GPa)
#
#
# Indices 1 2 3 4 5 6 
#
# 1 0.017105 -0.006385 -0.006396 0.000000 0.000000 0.000000
# 2 -0.006385 0.011493 0.000199 0.000000 0.000000 0.000000
# 3 -0.006396 0.000199 0.012293 0.000000 0.000000 0.000000
# 4 0.000000 0.000000 0.000000 0.027773 0.000000 0.000000
# 5 0.000000 0.000000 0.000000 0.000000 0.028516 0.000000
# 6 0.000000 0.000000 0.000000 0.000000 0.000000 0.119657
#
#
# Mechanical properties :
#
#
# Convention : Reuss Voigt Hill
#
# Bulk Modulus (GPa) = 63.58015 63.89859 63.73937
# Shear Modulus (GPa) = 20.22308 28.64298 24.43303
#
# Velocity S-wave (km/s) = 2.98272 3.54975 3.27851
# Velocity P-wave (km/s) = 6.31130 6.70160 6.50937
#
# Compressibility (1/GPa) = 0.01572818
#
# Stress axis : x y z
#
# Youngs Moduli (GPa) = 58.46248 87.00737 81.35041
#
# Poissons Ratio (x) = 0.55556 0.52028
# Poissons Ratio (y) = 0.37329 -0.01622
# Poissons Ratio (z) = 0.37390 -0.01735
#
# Static dielectric constant tensor:
#      x y z
#    x 1.800100 0.000000 0.000000 
#    y 0.000000 1.855460 0.000000 
#    z 0.000000 0.000000 1.900630 
# 
# From -- ./inp_files/2134.got.cif
#   From: 2010.05.17/outbox.cif.g08.bks.cpg/sg61_2_cif.got.tgz:2134.got - 2010.06.03 15:17:17.
