data_PCOD9459189
_publ_section_title
;
Structure prediction by ZEFSAII (Michael W. Deem and Ramdas Pophale) SiO2 
 PCOD9459189
Probable space group: P B C A
;
_chemical_formula_sum "Si O2"
_cell_formula_units_Z 56
_cell_length_a 25.737203
_cell_length_b 19.693331
_cell_length_c 5.081091
_cell_angle_alpha 90.000000
_cell_angle_beta 90.000000
_cell_angle_gamma 90.000000
_cell_volume 2575.357364
_symmetry_space_group_name_H-M "P B C A"
_symmetry_group_IT_number 61
_symmetry_cell_setting 'orthorhombic'
loop_
_space_group_symop_operation_xyz
x,y,z
1/2-x,-y,1/2+z
1/2+x,1/2-y,-z
-x,1/2+y,1/2-z
-x,-y,-z
1/2+x,y,1/2-z
1/2-x,1/2+y,z
x,1/2-y,1/2+z
loop_
_atom_site_type_symbol
_atom_site_label
_atom_site_fract_x
_atom_site_fract_y
_atom_site_fract_z
Si Si1 0.618431 0.706391 0.367200
Si Si2 0.261679 0.958186 0.955572
Si Si3 0.436793 0.045988 0.756307
Si Si4 0.958446 0.908342 0.060019
Si Si5 0.505808 0.293547 0.673817
Si Si6 0.657946 0.910853 0.539317
Si Si7 0.372188 0.540201 0.660041
O O1 0.631454 0.763021 0.148173
O O2 0.556513 0.694746 0.333654
O O3 0.647365 0.638574 0.280994
O O4 0.322241 0.939862 0.987206
O O5 0.250850 0.020814 0.156334
O O6 0.217560 0.904580 0.046652
O O7 0.490898 0.086540 0.748674
O O8 0.390859 0.095249 0.656561
O O9 0.448481 0.983037 0.562559
O O10 0.413808 0.008047 0.009014
O O11 0.969051 0.858101 0.818386
O O12 0.905459 0.898388 0.222144
O O13 0.518490 0.232555 0.881449
O O14 0.651607 0.989713 0.622298
#
# Coordination Sequence:
#
# PCOD9459189 Si02
#       7
#     8   8   8   8   8   8   8
#     4  10  22  36  55  80 110 148 192 236 279 333
#     4  10  20  35  56  83 113 145 183 225 280 341
#     4  10  19  34  54  85 117 146 181 229 296 344
#     4  10  21  34  53  84 116 151 183 234 287 344
#     4  10  22  37  55  78 108 152 193 231 274 333
#     4  10  20  35  56  82 116 148 188 236 291 339
#     4  10  21  33  56  85 117 152 184 233 289 351
#
# _framework density 21.744554999999998
#
# number of rings (size 3 to 8) (size 9 to 14) (size 15 to 20)
#    0.000    2.000    2.857    0.429    4.000    1.143 
#    0.000    0.000    0.000    1.714    0.000    0.000 
#    0.000    0.000    0.000    0.000    0.000    0.000 
#
# Total GULP energy -312441.889685 kJ/mol
# GULP energy per Si atom -5579.319459 kJ/mol
# Density = 2.169506 g / cm^3
# Si number density = 21.744555 Si / 1000 Ang^3
#
#
#
# Elastic Constant Matrix: (Units=GPa)
#
#
# Indices 1 2 3 4 5 6 
#
# 1 77.7145 39.2437 22.0856 0.0000 0.0000 0.0000
# 2 39.2437 48.7330 -2.8663 0.0000 0.0000 0.0000
# 3 22.0856 -2.8663 51.5310 0.0000 0.0000 0.0000
# 4 0.0000 0.0000 0.0000 31.4849 0.0000 0.0000
# 5 0.0000 0.0000 0.0000 0.0000 25.1843 0.0000
# 6 0.0000 0.0000 0.0000 0.0000 0.0000 8.8801
#
#
#
# Elastic Compliance Matrix: (Units=1/GPa)
#
#
# Indices 1 2 3 4 5 6 
#
# 1 0.028963 -0.024132 -0.013756 0.000000 0.000000 0.000000
# 2 -0.024132 0.040695 0.012607 0.000000 0.000000 0.000000
# 3 -0.013756 0.012607 0.026003 0.000000 0.000000 0.000000
# 4 0.000000 0.000000 0.000000 0.031761 0.000000 0.000000
# 5 0.000000 0.000000 0.000000 0.000000 0.039707 0.000000
# 6 0.000000 0.000000 0.000000 0.000000 0.000000 0.112612
#
#
# Mechanical properties :
#
#
# Convention : Reuss Voigt Hill
#
# Bulk Modulus (GPa) = 22.17424 32.76717 27.47071
# Shear Modulus (GPa) = 14.47864 21.07755 17.77809
#
# Velocity S-wave (km/s) = 2.58321 3.11678 2.86245
# Velocity P-wave (km/s) = 4.37230 5.29663 4.85651
#
# Compressibility (1/GPa) = 0.04509737
#
# Stress axis : x y z
#
# Youngs Moduli (GPa) = 34.52671 24.57309 38.45783
#
# Poissons Ratio (x) = 0.59301 0.52901
# Poissons Ratio (y) = 0.83322 -0.48482
# Poissons Ratio (z) = 0.47494 -0.30978
#
# Static dielectric constant tensor:
#      x y z
#    x 1.869810 0.000000 0.000000 
#    y 0.000000 1.808840 0.000000 
#    z 0.000000 0.000000 1.894070 
# 
# From -- ./inp_files/1205.got.cif
#   From: 2010.05.17/outbox.cif.g08.bks.cpg/sg61_1_cif.got.tgz:1205.got - 2010.06.03 15:17:17.
