data_PCOD9459690
_publ_section_title
;
Structure prediction by ZEFSAII (Michael W. Deem and Ramdas Pophale) SiO2 
 PCOD9459690
Probable space group: P B C A
;
_chemical_formula_sum "Si O2"
_cell_formula_units_Z 32
_cell_length_a 8.380486
_cell_length_b 14.254706
_cell_length_c 10.995604
_cell_angle_alpha 90.000000
_cell_angle_beta 90.000000
_cell_angle_gamma 90.000000
_cell_volume 1313.549853
_symmetry_space_group_name_H-M "P B C A"
_symmetry_group_IT_number 61
_symmetry_cell_setting 'orthorhombic'
loop_
_space_group_symop_operation_xyz
x,y,z
1/2-x,-y,1/2+z
1/2+x,1/2-y,-z
-x,1/2+y,1/2-z
-x,-y,-z
1/2+x,y,1/2-z
1/2-x,1/2+y,z
x,1/2-y,1/2+z
loop_
_atom_site_type_symbol
_atom_site_label
_atom_site_fract_x
_atom_site_fract_y
_atom_site_fract_z
Si Si1 0.560590 0.382869 0.096428
Si Si2 0.249532 0.555245 0.448301
Si Si3 0.753898 0.726731 0.187353
Si Si4 0.943472 0.659065 0.859233
O O1 0.413519 0.408553 0.013068
O O2 0.610397 0.274065 0.101393
O O3 0.523792 0.403699 0.238195
O O4 0.715534 0.445842 0.065700
O O5 0.260738 0.615627 0.324419
O O6 0.391322 0.591080 0.533706
O O7 0.590473 0.769767 0.137963
O O8 0.794958 0.773746 0.316558
#
# Coordination Sequence:
#
# PCOD9459690 Si02
#       4
#     8   8   8   8
#     4   9  21  40  57  88 118 151 193 244 286 346
#     4  11  20  40  63  83 119 158 190 242 300 336
#     4  10  21  39  58  88 116 157 191 239 291 344
#     4  10  20  41  56  85 124 141 203 241 273 361
#
# _framework density 24.361467999999999
#
# number of rings (size 3 to 8) (size 9 to 14) (size 15 to 20)
#    1.500    0.500    2.500    1.500    0.000    1.000 
#   18.000    0.000    0.000    0.000    0.000    0.000 
#    0.000    0.000    0.000    0.000    0.000    0.000 
#
# Total GULP energy -178444.822056 kJ/mol
# GULP energy per Si atom -5576.400689 kJ/mol
# Density = 2.430602 g / cm^3
# Si number density = 24.361468 Si / 1000 Ang^3
#
#
#
# Elastic Constant Matrix: (Units=GPa)
#
#
# Indices 1 2 3 4 5 6 
#
# 1 70.1605 -11.2765 -13.5740 0.0000 0.0000 0.0000
# 2 -11.2765 69.6400 -0.2064 0.0000 0.0000 0.0000
# 3 -13.5740 -0.2064 37.2053 0.0000 0.0000 0.0000
# 4 0.0000 0.0000 0.0000 11.6108 0.0000 0.0000
# 5 0.0000 0.0000 0.0000 0.0000 31.4449 0.0000
# 6 0.0000 0.0000 0.0000 0.0000 0.0000 15.8315
#
#
#
# Elastic Compliance Matrix: (Units=1/GPa)
#
#
# Indices 1 2 3 4 5 6 
#
# 1 0.015783 0.002573 0.005773 0.000000 0.000000 0.000000
# 2 0.002573 0.014779 0.001021 0.000000 0.000000 0.000000
# 3 0.005773 0.001021 0.028990 0.000000 0.000000 0.000000
# 4 0.000000 0.000000 0.000000 0.086127 0.000000 0.000000
# 5 0.000000 0.000000 0.000000 0.000000 0.031802 0.000000
# 6 0.000000 0.000000 0.000000 0.000000 0.000000 0.063165
#
#
# Mechanical properties :
#
#
# Convention : Reuss Voigt Hill
#
# Bulk Modulus (GPa) = 12.77390 14.09911 13.43651
# Shear Modulus (GPa) = 20.16062 25.24828 22.70445
#
# Velocity S-wave (km/s) = 2.87986 3.22281 3.05615
# Velocity P-wave (km/s) = 4.03893 4.43269 4.24038
#
# Compressibility (1/GPa) = 0.07828463
#
# Stress axis : x y z
#
# Youngs Moduli (GPa) = 63.35771 67.66267 34.49510
#
# Poissons Ratio (x) = -0.17409 -0.19913
# Poissons Ratio (y) = -0.16301 -0.03521
# Poissons Ratio (z) = -0.36574 -0.06906
#
# Static dielectric constant tensor:
#      x y z
#    x 1.972250 0.000000 0.000000 
#    y 0.000000 1.943410 0.000000 
#    z 0.000000 0.000000 2.027460 
# 
# From -- ./inp_files/2036.got.cif
#   From: 2010.05.17/outbox.cif.g08.bks.cpg/sg61_2_cif.got.tgz:2036.got - 2010.06.03 15:17:17.
