data_PCOD9459140
_publ_section_title
;
Structure prediction by ZEFSAII (Michael W. Deem and Ramdas Pophale) SiO2 
 PCOD9459140
Probable space group: P B C A
;
_chemical_formula_sum "Si O2"
_cell_formula_units_Z 64
_cell_length_a 20.965853
_cell_length_b 18.375627
_cell_length_c 8.316112
_cell_angle_alpha 90.000000
_cell_angle_beta 90.000000
_cell_angle_gamma 90.000000
_cell_volume 3203.871084
_symmetry_space_group_name_H-M "P B C A"
_symmetry_group_IT_number 61
_symmetry_cell_setting 'orthorhombic'
loop_
_space_group_symop_operation_xyz
x,y,z
1/2-x,-y,1/2+z
1/2+x,1/2-y,-z
-x,1/2+y,1/2-z
-x,-y,-z
1/2+x,y,1/2-z
1/2-x,1/2+y,z
x,1/2-y,1/2+z
loop_
_atom_site_type_symbol
_atom_site_label
_atom_site_fract_x
_atom_site_fract_y
_atom_site_fract_z
Si Si1 0.240086 0.422705 0.861446
Si Si2 0.332113 0.200740 0.313689
Si Si3 0.385696 0.562164 0.544757
Si Si4 0.574441 0.903201 0.853302
Si Si5 0.001926 0.617225 0.808768
Si Si6 0.120902 0.664211 0.662941
Si Si7 0.163253 0.995753 0.087515
Si Si8 0.540807 0.459286 0.796106
O O1 0.265842 0.342191 0.824864
O O2 0.209219 0.459520 0.705340
O O3 0.186666 0.420337 0.001164
O O4 0.298900 0.470605 0.929988
O O5 0.374003 0.157364 0.183218
O O6 0.334452 0.284878 0.270920
O O7 0.366850 0.187883 0.482060
O O8 0.393437 0.482327 0.622965
O O9 0.427114 0.619475 0.649032
O O10 0.421324 0.555715 0.371092
O O11 0.521082 0.908194 0.711693
O O12 0.537791 0.888149 0.019334
O O13 0.046601 0.672444 0.711393
O O14 0.012099 0.540062 0.719752
O O15 0.142566 0.580057 0.674318
O O16 0.096276 0.039200 0.070634
#
# Coordination Sequence:
#
# PCOD9459140 Si02
#       8
#     8   8   8   8   8   8   8   8
#     4  10  19  31  50  77 103 132 170 207 250 305
#     4  11  22  33  50  75 102 135 169 209 255 305
#     4   8  14  27  50  75  99 126 157 198 247 301
#     4   9  15  28  51  75  95 125 165 201 247 295
#     4   8  14  29  52  71  92 125 160 199 244 289
#     4  10  21  35  49  71 100 132 171 212 255 302
#     4   9  18  33  51  74 103 133 169 211 250 299
#     4   7  13  26  47  74  98 122 156 197 242 288
#
# _framework density 19.975836000000001
#
# number of rings (size 3 to 8) (size 9 to 14) (size 15 to 20)
#    0.000    3.000    0.000    3.750    0.000    1.000 
#    0.000   11.250    0.000   13.500    0.000    0.000 
#    0.000    0.000    0.000    0.000    0.000    0.000 
#
# Total GULP energy -356569.520816 kJ/mol
# GULP energy per Si atom -5571.398763 kJ/mol
# Density = 1.993037 g / cm^3
# Si number density = 19.975836 Si / 1000 Ang^3
#
#
#
# Elastic Constant Matrix: (Units=GPa)
#
#
# Indices 1 2 3 4 5 6 
#
# 1 62.8338 8.2820 8.4447 0.0000 0.0000 0.0000
# 2 8.2820 43.5277 6.6943 0.0000 0.0000 0.0000
# 3 8.4447 6.6943 37.6625 0.0000 0.0000 0.0000
# 4 0.0000 0.0000 0.0000 13.9047 0.0000 0.0000
# 5 0.0000 0.0000 0.0000 0.0000 26.7456 0.0000
# 6 0.0000 0.0000 0.0000 0.0000 0.0000 18.3033
#
#
#
# Elastic Compliance Matrix: (Units=1/GPa)
#
#
# Indices 1 2 3 4 5 6 
#
# 1 0.016707 -0.002676 -0.003271 0.000000 0.000000 0.000000
# 2 -0.002676 0.024048 -0.003674 0.000000 0.000000 0.000000
# 3 -0.003271 -0.003674 0.027938 0.000000 0.000000 0.000000
# 4 0.000000 0.000000 0.000000 0.071918 0.000000 0.000000
# 5 0.000000 0.000000 0.000000 0.000000 0.037389 0.000000
# 6 0.000000 0.000000 0.000000 0.000000 0.000000 0.054635
#
#
# Mechanical properties :
#
#
# Convention : Reuss Voigt Hill
#
# Bulk Modulus (GPa) = 20.22174 21.20736 20.71455
# Shear Modulus (GPa) = 18.63161 19.83092 19.23126
#
# Velocity S-wave (km/s) = 3.05734 3.15420 3.10615
# Velocity P-wave (km/s) = 4.75481 4.88926 4.82250
#
# Compressibility (1/GPa) = 0.04945172
#
# Stress axis : x y z
#
# Youngs Moduli (GPa) = 59.85420 41.58331 35.79348
#
# Poissons Ratio (x) = 0.11127 0.11706
# Poissons Ratio (y) = 0.16016 0.13152
# Poissons Ratio (z) = 0.19575 0.15280
#
# Static dielectric constant tensor:
#      x y z
#    x 1.758310 0.000000 0.000000 
#    y 0.000000 1.698330 0.000000 
#    z 0.000000 0.000000 1.750960 
# 
# From -- ./inp_files/4129.got.cif
#   From: 2010.05.17/outbox.cif.g08.bks.cpg/sg61_3_cif.got.tgz:4129.got - 2010.06.03 15:17:17.
