data_PCOD9459556
_publ_section_title
;
Structure prediction by ZEFSAII (Michael W. Deem and Ramdas Pophale) SiO2 
 PCOD9459556
Probable space group: P B C A
;
_chemical_formula_sum "Si O2"
_cell_formula_units_Z 64
_cell_length_a 20.083441
_cell_length_b 10.119303
_cell_length_c 13.611303
_cell_angle_alpha 90.000000
_cell_angle_beta 90.000000
_cell_angle_gamma 90.000000
_cell_volume 2766.230890
_symmetry_space_group_name_H-M "P B C A"
_symmetry_group_IT_number 61
_symmetry_cell_setting 'orthorhombic'
loop_
_space_group_symop_operation_xyz
x,y,z
1/2-x,-y,1/2+z
1/2+x,1/2-y,-z
-x,1/2+y,1/2-z
-x,-y,-z
1/2+x,y,1/2-z
1/2-x,1/2+y,z
x,1/2-y,1/2+z
loop_
_atom_site_type_symbol
_atom_site_label
_atom_site_fract_x
_atom_site_fract_y
_atom_site_fract_z
Si Si1 0.991091 0.710191 0.495238
Si Si2 0.180556 0.916315 0.587491
Si Si3 0.029836 0.509362 0.656355
Si Si4 0.635145 0.147825 0.033718
Si Si5 0.045345 0.931543 0.361653
Si Si6 0.147455 0.757051 0.757417
Si Si7 0.786437 0.310797 0.554400
Si Si8 0.314707 0.477697 0.138737
O O1 0.003391 0.604284 0.409136
O O2 0.912445 0.730151 0.511991
O O3 0.020587 0.644653 0.593659
O O4 0.015065 0.853374 0.454953
O O5 0.132891 0.841360 0.661594
O O6 0.189802 0.831255 0.488123
O O7 0.153035 0.059521 0.561602
O O8 0.253363 0.921917 0.638591
O O9 0.003181 0.516232 0.768002
O O10 0.109552 0.478151 0.657316
O O11 0.707517 0.188823 0.070565
O O12 0.593157 0.049479 0.103140
O O13 0.086892 0.819170 0.305421
O O14 0.179383 0.841070 0.843508
O O15 0.195783 0.639854 0.717520
O O16 0.807914 0.411930 0.469286
#
# Coordination Sequence:
#
# PCOD9459556 Si02
#       8
#     8   8   8   8   8   8   8   8
#     4  11  25  45  65  92 129 174 220 272 322 371
#     4  10  21  38  61  95 127 161 207 259 333 379
#     4  10  24  43  67  93 127 173 217 267 322 380
#     4  11  24  41  65  94 128 169 214 271 317 384
#     4  11  24  41  67  92 128 170 220 269 314 390
#     4  10  21  35  61  89 123 165 203 256 321 390
#     4  10  20  38  60  89 127 159 201 257 324 393
#     4   9  20  37  60  88 123 161 199 259 315 384
#
# _framework density 23.136175000000001
#
# number of rings (size 3 to 8) (size 9 to 14) (size 15 to 20)
#    0.000    1.750    1.250    1.875    8.750    1.000 
#    0.000    2.500    0.000    0.000    0.000    0.000 
#    0.000    0.000    0.000    0.000    0.000    0.000 
#
# Total GULP energy -357369.761145 kJ/mol
# GULP energy per Si atom -5583.902518 kJ/mol
# Density = 2.308352 g / cm^3
# Si number density = 23.136175 Si / 1000 Ang^3
#
#
#
# Elastic Constant Matrix: (Units=GPa)
#
#
# Indices 1 2 3 4 5 6 
#
# 1 45.6052 6.3676 13.7986 0.0000 0.0000 0.0000
# 2 6.3676 47.0415 10.2681 0.0000 0.0000 0.0000
# 3 13.7986 10.2681 73.0915 0.0000 0.0000 0.0000
# 4 0.0000 0.0000 0.0000 24.4353 0.0000 0.0000
# 5 0.0000 0.0000 0.0000 0.0000 25.0204 0.0000
# 6 0.0000 0.0000 0.0000 0.0000 0.0000 36.0867
#
#
#
# Elastic Compliance Matrix: (Units=1/GPa)
#
#
# Indices 1 2 3 4 5 6 
#
# 1 0.023491 -0.002282 -0.004114 0.000000 0.000000 0.000000
# 2 -0.002282 0.022152 -0.002681 0.000000 0.000000 0.000000
# 3 -0.004114 -0.002681 0.014835 0.000000 0.000000 0.000000
# 4 0.000000 0.000000 0.000000 0.040924 0.000000 0.000000
# 5 0.000000 0.000000 0.000000 0.000000 0.039967 0.000000
# 6 0.000000 0.000000 0.000000 0.000000 0.000000 0.027711
#
#
# Mechanical properties :
#
#
# Convention : Reuss Voigt Hill
#
# Bulk Modulus (GPa) = 23.62764 25.17854 24.40309
# Shear Modulus (GPa) = 24.83334 26.12875 25.48104
#
# Velocity S-wave (km/s) = 3.27976 3.36422 3.32226
# Velocity P-wave (km/s) = 4.95753 5.09873 5.02862
#
# Compressibility (1/GPa) = 0.04232332
#
# Stress axis : x y z
#
# Youngs Moduli (GPa) = 42.56998 45.14284 67.40888
#
# Poissons Ratio (x) = 0.10300 0.27733
# Poissons Ratio (y) = 0.09713 0.18074
# Poissons Ratio (z) = 0.17514 0.12104
#
# Static dielectric constant tensor:
#      x y z
#    x 1.885550 0.000000 0.000000 
#    y 0.000000 1.909380 0.000000 
#    z 0.000000 0.000000 1.893190 
# 
# From -- ./inp_files/6629.got.cif
#   From: 2010.05.17/outbox.cif.g08.bks.cpg/sg61_4_cif.got.tgz:6629.got - 2010.06.03 15:17:17.
