data_PCOD9459190
_publ_section_title
;
Structure prediction by ZEFSAII (Michael W. Deem and Ramdas Pophale) SiO2 
 PCOD9459190
Probable space group: P B C A
;
_chemical_formula_sum "Si O2"
_cell_formula_units_Z 48
_cell_length_a 15.103155
_cell_length_b 17.657931
_cell_length_c 8.501010
_cell_angle_alpha 90.000000
_cell_angle_beta 90.000000
_cell_angle_gamma 90.000000
_cell_volume 2267.138343
_symmetry_space_group_name_H-M "P B C A"
_symmetry_group_IT_number 61
_symmetry_cell_setting 'orthorhombic'
loop_
_space_group_symop_operation_xyz
x,y,z
1/2-x,-y,1/2+z
1/2+x,1/2-y,-z
-x,1/2+y,1/2-z
-x,-y,-z
1/2+x,y,1/2-z
1/2-x,1/2+y,z
x,1/2-y,1/2+z
loop_
_atom_site_type_symbol
_atom_site_label
_atom_site_fract_x
_atom_site_fract_y
_atom_site_fract_z
Si Si1 0.900521 0.860624 0.996574
Si Si2 0.335167 0.772521 0.812022
Si Si3 0.266740 0.916772 0.941392
Si Si4 0.588243 0.645594 0.933141
Si Si5 0.224722 0.930525 0.572661
Si Si6 0.855202 0.293814 0.116021
O O1 0.874583 0.812840 0.840592
O O2 0.822169 0.921302 0.006232
O O3 0.892426 0.797755 0.132042
O O4 0.998852 0.892314 0.004415
O O5 0.324936 0.840315 0.939433
O O6 0.234968 0.738993 0.801964
O O7 0.238395 0.929026 0.759526
O O8 0.177626 0.901097 0.038344
O O9 0.313321 0.990569 0.010859
O O10 0.587237 0.667680 0.750746
O O11 0.599175 0.723256 0.032065
O O12 0.172521 0.857215 0.510865
#
# Coordination Sequence:
#
# PCOD9459190 Si02
#       6
#     8   8   8   8   8   8
#     4  10  20  33  54  80 106 133 167 217 264 305
#     4   9  18  34  53  75 101 135 174 208 252 309
#     4  10  20  35  55  76 103 139 178 216 254 310
#     4  11  20  33  55  81 108 133 168 218 264 305
#     4  10  21  37  56  76 103 141 180 213 256 312
#     4  10  19  34  55  78 103 138 177 211 254 311
#
# _framework density 21.172063999999999
#
# number of rings (size 3 to 8) (size 9 to 14) (size 15 to 20)
#    0.000    2.000    0.000    7.000    0.000    2.000 
#    0.000    0.000    0.000    6.000    0.000    0.000 
#    0.000    0.000    0.000    0.000    0.000    0.000 
#
# Total GULP energy -268070.968783 kJ/mol
# GULP energy per Si atom -5584.811850 kJ/mol
# Density = 2.112388 g / cm^3
# Si number density = 21.172064 Si / 1000 Ang^3
#
#
#
# Elastic Constant Matrix: (Units=GPa)
#
#
# Indices 1 2 3 4 5 6 
#
# 1 34.1890 -10.5675 -19.9266 0.0000 0.0000 0.0000
# 2 -10.5675 70.5438 -5.4451 0.0000 0.0000 0.0000
# 3 -19.9266 -5.4451 43.4820 0.0000 0.0000 0.0000
# 4 0.0000 0.0000 0.0000 25.7864 0.0000 0.0000
# 5 0.0000 0.0000 0.0000 0.0000 11.5136 0.0000
# 6 0.0000 0.0000 0.0000 0.0000 0.0000 6.8054
#
#
#
# Elastic Compliance Matrix: (Units=1/GPa)
#
#
# Indices 1 2 3 4 5 6 
#
# 1 0.044219 0.008268 0.021300 0.000000 0.000000 0.000000
# 2 0.008268 0.015860 0.005775 0.000000 0.000000 0.000000
# 3 0.021300 0.005775 0.033482 0.000000 0.000000 0.000000
# 4 0.000000 0.000000 0.000000 0.038780 0.000000 0.000000
# 5 0.000000 0.000000 0.000000 0.000000 0.086854 0.000000
# 6 0.000000 0.000000 0.000000 0.000000 0.000000 0.146941
#
#
# Mechanical properties :
#
#
# Convention : Reuss Voigt Hill
#
# Bulk Modulus (GPa) = 6.08839 8.48183 7.28511
# Shear Modulus (GPa) = 14.27756 21.09801 17.68779
#
# Velocity S-wave (km/s) = 2.59966 3.16017 2.89352
# Velocity P-wave (km/s) = 3.44861 4.16298 3.82252
#
# Compressibility (1/GPa) = 0.16424709
#
# Stress axis : x y z
#
# Youngs Moduli (GPa) = 22.61472 63.05201 29.86653
#
# Poissons Ratio (x) = -0.52132 -0.63615
# Poissons Ratio (y) = -0.18698 -0.17248
# Poissons Ratio (z) = -0.48169 -0.36413
#
# Static dielectric constant tensor:
#      x y z
#    x 1.792800 0.000000 0.000000 
#    y 0.000000 1.750830 0.000000 
#    z 0.000000 0.000000 1.774840 
# 
# From -- ./inp_files/2820.got.cif
#   From: 2010.05.17/outbox.cif.g08.bks.cpg/sg61_2_cif.got.tgz:2820.got - 2010.06.03 15:17:17.
