data_PCOD9459610
_publ_section_title
;
Structure prediction by ZEFSAII (Michael W. Deem and Ramdas Pophale) SiO2 
 PCOD9459610
Probable space group: P B C A
;
_chemical_formula_sum "Si O2"
_cell_formula_units_Z 56
_cell_length_a 7.189981
_cell_length_b 18.981094
_cell_length_c 19.735747
_cell_angle_alpha 90.000000
_cell_angle_beta 90.000000
_cell_angle_gamma 90.000000
_cell_volume 2693.410518
_symmetry_space_group_name_H-M "P B C A"
_symmetry_group_IT_number 61
_symmetry_cell_setting 'orthorhombic'
loop_
_space_group_symop_operation_xyz
x,y,z
1/2-x,-y,1/2+z
1/2+x,1/2-y,-z
-x,1/2+y,1/2-z
-x,-y,-z
1/2+x,y,1/2-z
1/2-x,1/2+y,z
x,1/2-y,1/2+z
loop_
_atom_site_type_symbol
_atom_site_label
_atom_site_fract_x
_atom_site_fract_y
_atom_site_fract_z
Si Si1 0.661594 0.116772 0.551763
Si Si2 0.105407 0.847501 0.812735
Si Si3 0.674896 0.835467 0.841192
Si Si4 0.871367 0.724147 0.076952
Si Si5 0.210595 0.533917 0.080508
Si Si6 0.638763 0.984262 0.622968
Si Si7 0.232428 0.099059 0.509589
O O1 0.700758 0.198318 0.561444
O O2 0.760301 0.081513 0.486790
O O3 0.440461 0.113936 0.535602
O O4 0.695603 0.065584 0.616321
O O5 0.114391 0.822817 0.735725
O O6 0.243829 0.808001 0.863211
O O7 0.160470 0.930764 0.814873
O O8 0.898166 0.836258 0.841696
O O9 0.578146 0.780646 0.891707
O O10 0.614156 0.913906 0.866487
O O11 0.858800 0.672034 0.012615
O O12 0.418176 0.518168 0.107309
O O13 0.134882 0.457051 0.059780
O O14 0.736164 0.945209 0.559560
#
# Coordination Sequence:
#
# PCOD9459610 Si02
#       7
#     8   8   8   8   8   8   8
#     4   9  17  33  56  85 119 144 178 227 292 332
#     4  10  20  39  60  79 107 147 204 227 268 334
#     4  11  21  36  60  81 106 149 193 233 277 327
#     4  11  22  33  60  86 114 151 179 233 283 337
#     4   8  16  32  56  81 111 146 178 232 274 330
#     4   7  14  32  59  77 105 151 180 225 271 320
#     4   8  16  33  53  83 115 142 182 220 278 339
#
# _framework density 20.791485000000002
#
# number of rings (size 3 to 8) (size 9 to 14) (size 15 to 20)
#    0.000    2.857    1.429    2.571    2.000    0.571 
#    0.000    0.000    9.429    3.429    0.000    0.000 
#    0.000    0.000    0.000    0.000    0.000    0.000 
#
# Total GULP energy -312254.602543 kJ/mol
# GULP energy per Si atom -5575.975045 kJ/mol
# Density = 2.074416 g / cm^3
# Si number density = 20.791485 Si / 1000 Ang^3
#
#
#
# Elastic Constant Matrix: (Units=GPa)
#
#
# Indices 1 2 3 4 5 6 
#
# 1 71.2685 1.4868 4.0763 0.0000 0.0000 0.0000
# 2 1.4868 138.0964 21.5860 0.0000 0.0000 0.0000
# 3 4.0763 21.5860 39.3247 0.0000 0.0000 0.0000
# 4 0.0000 0.0000 0.0000 14.0431 0.0000 0.0000
# 5 0.0000 0.0000 0.0000 0.0000 18.5611 0.0000
# 6 0.0000 0.0000 0.0000 0.0000 0.0000 18.6469
#
#
#
# Elastic Compliance Matrix: (Units=1/GPa)
#
#
# Indices 1 2 3 4 5 6 
#
# 1 0.014116 0.000084 -0.001509 0.000000 0.000000 0.000000
# 2 0.000084 0.007921 -0.004357 0.000000 0.000000 0.000000
# 3 -0.001509 -0.004357 0.027977 0.000000 0.000000 0.000000
# 4 0.000000 0.000000 0.000000 0.071210 0.000000 0.000000
# 5 0.000000 0.000000 0.000000 0.000000 0.053876 0.000000
# 6 0.000000 0.000000 0.000000 0.000000 0.000000 0.053628
#
#
# Mechanical properties :
#
#
# Convention : Reuss Voigt Hill
#
# Bulk Modulus (GPa) = 26.00762 33.66532 29.83647
# Shear Modulus (GPa) = 19.75424 25.01956 22.38690
#
# Velocity S-wave (km/s) = 3.08573 3.47271 3.28492
# Velocity P-wave (km/s) = 5.02311 5.68389 5.36368
#
# Compressibility (1/GPa) = 0.03845026
#
# Stress axis : x y z
#
# Youngs Moduli (GPa) = 70.84149 126.23948 35.74317
#
# Poissons Ratio (x) = -0.01060 0.05395
# Poissons Ratio (y) = -0.00595 0.15573
# Poissons Ratio (z) = 0.10692 0.55002
#
# Static dielectric constant tensor:
#      x y z
#    x 1.823480 0.000000 0.000000 
#    y 0.000000 1.799650 0.000000 
#    z 0.000000 0.000000 1.744860 
# 
# From -- ./inp_files/10150.got.cif
#   From: 2010.05.17/outbox.cif.g08.bks.cpg/sg61_6_cif.got.tgz:10150.got - 2010.06.03 15:17:17.
