data_PCOD9459283
_publ_section_title
;
Structure prediction by ZEFSAII (Michael W. Deem and Ramdas Pophale) SiO2 
 PCOD9459283
Probable space group: P B C A
;
_chemical_formula_sum "Si O2"
_cell_formula_units_Z 56
_cell_length_a 8.479831
_cell_length_b 17.309880
_cell_length_c 18.342665
_cell_angle_alpha 90.000000
_cell_angle_beta 90.000000
_cell_angle_gamma 90.000000
_cell_volume 2692.425460
_symmetry_space_group_name_H-M "P B C A"
_symmetry_group_IT_number 61
_symmetry_cell_setting 'orthorhombic'
loop_
_space_group_symop_operation_xyz
x,y,z
1/2-x,-y,1/2+z
1/2+x,1/2-y,-z
-x,1/2+y,1/2-z
-x,-y,-z
1/2+x,y,1/2-z
1/2-x,1/2+y,z
x,1/2-y,1/2+z
loop_
_atom_site_type_symbol
_atom_site_label
_atom_site_fract_x
_atom_site_fract_y
_atom_site_fract_z
Si Si1 0.109239 0.977143 0.429567
Si Si2 0.821084 0.688229 0.960484
Si Si3 0.286553 0.852866 0.771638
Si Si4 0.603077 0.572596 0.027853
Si Si5 0.134832 0.654588 0.025405
Si Si6 0.914573 0.434647 0.833354
Si Si7 0.995012 0.795542 0.859451
O O1 0.174107 0.894704 0.453639
O O2 0.257303 0.033860 0.424749
O O3 0.000000 0.000000 0.500000
O O4 0.993542 0.986221 0.361056
O O5 0.721783 0.764894 0.974455
O O6 0.936631 0.715465 0.895218
O O7 0.696693 0.617806 0.962751
O O8 0.947723 0.670295 0.023081
O O9 0.194334 0.927106 0.737248
O O10 0.437636 0.879618 0.815965
O O11 0.161770 0.801977 0.816736
O O12 0.361350 0.812636 0.700643
O O13 0.516258 0.638235 0.076928
O O14 0.500000 0.500000 0.000000
O O15 0.169048 0.602437 0.095999
#
# Coordination Sequence:
#
# PCOD9459283 Si02
#       7
#     8   8   8   8   8   8   8
#     4  10  20  37  59  89 122 160 196 263 325 377
#     4  12  22  37  61  97 127 162 205 269 335 382
#     4  10  21  36  61  90 121 170 219 254 294 407
#     4  12  24  39  64 100 130 159 212 276 342 390
#     4  11  22  37  61  94 125 157 203 264 333 377
#     4  10  19  37  59  90 118 161 211 244 317 375
#     4  11  22  40  63  94 123 171 219 263 320 390
#
# _framework density 20.799091000000001
#
# number of rings (size 3 to 8) (size 9 to 14) (size 15 to 20)
#    0.000    1.143    7.143    0.857    2.000    0.000 
#    0.000    0.000    0.000    6.857    0.000    0.000 
#    0.000    0.000    0.000    0.000    0.000    0.000 
#
# Total GULP energy -311832.415859 kJ/mol
# GULP energy per Si atom -5568.435997 kJ/mol
# Density = 2.075175 g / cm^3
# Si number density = 20.799091 Si / 1000 Ang^3
#
#
#
# Elastic Constant Matrix: (Units=GPa)
#
#
# Indices 1 2 3 4 5 6 
#
# 1 84.3213 17.6049 16.7263 0.0000 0.0000 0.0000
# 2 17.6049 75.7171 17.4904 0.0000 0.0000 0.0000
# 3 16.7263 17.4904 72.4813 0.0000 0.0000 0.0000
# 4 0.0000 0.0000 0.0000 27.0508 0.0000 0.0000
# 5 0.0000 0.0000 0.0000 0.0000 37.9645 0.0000
# 6 0.0000 0.0000 0.0000 0.0000 0.0000 41.5242
#
#
#
# Elastic Compliance Matrix: (Units=1/GPa)
#
#
# Indices 1 2 3 4 5 6 
#
# 1 0.012839 -0.002437 -0.002375 0.000000 0.000000 0.000000
# 2 -0.002437 0.014449 -0.002924 0.000000 0.000000 0.000000
# 3 -0.002375 -0.002924 0.015050 0.000000 0.000000 0.000000
# 4 0.000000 0.000000 0.000000 0.036968 0.000000 0.000000
# 5 0.000000 0.000000 0.000000 0.000000 0.026340 0.000000
# 6 0.000000 0.000000 0.000000 0.000000 0.000000 0.024082
#
#
# Mechanical properties :
#
#
# Convention : Reuss Voigt Hill
#
# Bulk Modulus (GPa) = 37.22056 37.35142 37.28599
# Shear Modulus (GPa) = 32.43459 33.35445 32.89452
#
# Velocity S-wave (km/s) = 3.95324 4.00890 3.98117
# Velocity P-wave (km/s) = 6.22668 6.27898 6.25289
#
# Compressibility (1/GPa) = 0.02686687
#
# Stress axis : x y z
#
# Youngs Moduli (GPa) = 77.88636 69.20838 66.44345
#
# Poissons Ratio (x) = 0.16864 0.15780
# Poissons Ratio (y) = 0.18978 0.19431
# Poissons Ratio (z) = 0.18497 0.20239
#
# Static dielectric constant tensor:
#      x y z
#    x 1.832200 0.000000 0.000000 
#    y 0.000000 1.799930 0.000000 
#    z 0.000000 0.000000 1.803510 
# 
# From -- ./inp_files/10160.got.cif
#   From: 2010.05.17/outbox.cif.g08.bks.cpg/sg61_6_cif.got.tgz:10160.got - 2010.06.03 15:17:17.
