data_PCOD9459085
_publ_section_title
;
Structure prediction by ZEFSAII (Michael W. Deem and Ramdas Pophale) SiO2 
 PCOD9459085
Probable space group: P B C A
;
_chemical_formula_sum "Si O2"
_cell_formula_units_Z 40
_cell_length_a 8.802828
_cell_length_b 8.775704
_cell_length_c 21.867537
_cell_angle_alpha 90.000000
_cell_angle_beta 90.000000
_cell_angle_gamma 90.000000
_cell_volume 1689.289383
_symmetry_space_group_name_H-M "P B C A"
_symmetry_group_IT_number 61
_symmetry_cell_setting 'orthorhombic'
loop_
_space_group_symop_operation_xyz
x,y,z
1/2-x,-y,1/2+z
1/2+x,1/2-y,-z
-x,1/2+y,1/2-z
-x,-y,-z
1/2+x,y,1/2-z
1/2-x,1/2+y,z
x,1/2-y,1/2+z
loop_
_atom_site_type_symbol
_atom_site_label
_atom_site_fract_x
_atom_site_fract_y
_atom_site_fract_z
Si Si1 0.310610 0.349707 0.500813
Si Si2 0.258462 0.918554 0.087018
Si Si3 0.080410 0.571661 0.426371
Si Si4 0.332167 0.160501 0.718676
Si Si5 0.870204 0.460034 0.708835
O O1 0.231119 0.227914 0.545079
O O2 0.373503 0.463232 0.554105
O O3 0.197283 0.450890 0.458569
O O4 0.410684 0.232978 0.461394
O O5 0.269401 0.865455 0.157570
O O6 0.086579 0.991598 0.078486
O O7 0.139018 0.607100 0.358409
O O8 0.365265 0.333263 0.737841
O O9 0.257816 0.081356 0.776721
O O10 0.480545 0.061998 0.708718
#
# Coordination Sequence:
#
# PCOD9459085 Si02
#       5
#     8   8   8   8   8
#     4  10  18  36  60  80 114 158 194 238 304 364
#     4  10  22  39  58  87 124 157 201 258 307 367
#     4  10  22  39  58  87 124 157 201 258 307 367
#     4  11  23  41  64  93 129 169 214 265 320 379
#     4  11  23  41  64  93 129 169 214 265 320 379
#
# _framework density 23.678595000000001
#
# number of rings (size 3 to 8) (size 9 to 14) (size 15 to 20)
#    0.000    1.600    0.000    6.000    0.000    3.200 
#    0.000   20.000    0.000    0.000    0.000    0.000 
#    0.000    0.000    0.000    0.000    0.000    0.000 
#
# Total GULP energy -223103.641425 kJ/mol
# GULP energy per Si atom -5577.591036 kJ/mol
# Density = 2.362470 g / cm^3
# Si number density = 23.678595 Si / 1000 Ang^3
#
#
#
# Elastic Constant Matrix: (Units=GPa)
#
#
# Indices 1 2 3 4 5 6 
#
# 1 39.9275 4.8419 29.1513 0.0000 0.0000 0.0000
# 2 4.8419 133.5489 16.9686 0.0000 0.0000 0.0000
# 3 29.1513 16.9686 118.7091 0.0000 0.0000 0.0000
# 4 0.0000 0.0000 0.0000 38.9346 0.0000 0.0000
# 5 0.0000 0.0000 0.0000 0.0000 25.1333 0.0000
# 6 0.0000 0.0000 0.0000 0.0000 0.0000 23.5935
#
#
#
# Elastic Compliance Matrix: (Units=1/GPa)
#
#
# Indices 1 2 3 4 5 6 
#
# 1 0.030520 -0.000157 -0.007472 0.000000 0.000000 0.000000
# 2 -0.000157 0.007627 -0.001052 0.000000 0.000000 0.000000
# 3 -0.007472 -0.001052 0.010409 0.000000 0.000000 0.000000
# 4 0.000000 0.000000 0.000000 0.025684 0.000000 0.000000
# 5 0.000000 0.000000 0.000000 0.000000 0.039788 0.000000
# 6 0.000000 0.000000 0.000000 0.000000 0.000000 0.042385
#
#
# Mechanical properties :
#
#
# Convention : Reuss Voigt Hill
#
# Bulk Modulus (GPa) = 32.05711 43.78989 37.92350
# Shear Modulus (GPa) = 27.14832 33.61384 30.38108
#
# Velocity S-wave (km/s) = 3.38972 3.77183 3.58587
# Velocity P-wave (km/s) = 5.37477 6.12393 5.76154
#
# Compressibility (1/GPa) = 0.03119433
#
# Stress axis : x y z
#
# Youngs Moduli (GPa) = 32.76534 131.10950 96.06831
#
# Poissons Ratio (x) = 0.02060 0.71785
# Poissons Ratio (y) = 0.00515 0.10103
# Poissons Ratio (z) = 0.24483 0.13788
#
# Static dielectric constant tensor:
#      x y z
#    x 1.946050 0.000000 0.000000 
#    y 0.000000 1.958390 0.000000 
#    z 0.000000 0.000000 1.967760 
# 
# From -- ./inp_files/1752.got.cif
#   From: 2010.05.17/outbox.cif.g08.bks.cpg/sg61_1_cif.got.tgz:1752.got - 2010.06.03 15:17:17.
