data_PCOD9459019
_publ_section_title
;
Structure prediction by ZEFSAII (Michael W. Deem and Ramdas Pophale) SiO2 
 PCOD9459019
Probable space group: P B C A
;
_chemical_formula_sum "Si O2"
_cell_formula_units_Z 64
_cell_length_a 5.433822
_cell_length_b 16.981872
_cell_length_c 29.575979
_cell_angle_alpha 90.000000
_cell_angle_beta 90.000000
_cell_angle_gamma 90.000000
_cell_volume 2729.166929
_symmetry_space_group_name_H-M "P B C A"
_symmetry_group_IT_number 61
_symmetry_cell_setting 'orthorhombic'
loop_
_space_group_symop_operation_xyz
x,y,z
1/2-x,-y,1/2+z
1/2+x,1/2-y,-z
-x,1/2+y,1/2-z
-x,-y,-z
1/2+x,y,1/2-z
1/2-x,1/2+y,z
x,1/2-y,1/2+z
loop_
_atom_site_type_symbol
_atom_site_label
_atom_site_fract_x
_atom_site_fract_y
_atom_site_fract_z
Si Si1 0.319602 0.288971 0.273096
Si Si2 0.266942 0.108637 0.237755
Si Si3 0.086485 0.183439 0.863180
Si Si4 0.998137 0.062704 0.434442
Si Si5 0.277823 0.332163 0.639695
Si Si6 0.274571 0.093943 0.578640
Si Si7 0.503586 0.608432 0.015500
Si Si8 0.050517 0.748903 0.929952
O O1 0.573659 0.317689 0.251994
O O2 0.304781 0.193204 0.264557
O O3 0.294570 0.315660 0.325107
O O4 0.529712 0.067701 0.241777
O O5 0.215927 0.123831 0.185261
O O6 0.898473 0.249706 0.845821
O O7 0.939214 0.105529 0.876649
O O8 0.195774 0.216090 0.910455
O O9 0.965257 0.118864 0.391207
O O10 0.773357 0.088150 0.468342
O O11 0.265630 0.072056 0.456307
O O12 0.923230 0.975216 0.419812
O O13 0.051266 0.310658 0.607444
O O14 0.448687 0.082201 0.535396
O O15 0.131748 0.175373 0.569999
O O16 0.544781 0.701908 0.024156
#
# Coordination Sequence:
#
# PCOD9459019 Si02
#       8
#     8   8   8   8   8   8   8   8
#     4  10  19  32  56  85 120 152 199 252 309 368
#     4  10  18  29  56  88 116 149 201 256 305 359
#     4  11  21  37  59  93 126 159 207 269 319 371
#     4  11  25  45  64  90 127 175 219 263 320 387
#     4  10  20  37  59  91 123 161 209 262 311 373
#     4  11  27  39  64  93 132 170 214 266 333 386
#     4  11  25  44  67  89 125 172 224 263 314 384
#     4  10  23  37  63  92 127 162 213 272 322 369
#
# _framework density 23.450378000000001
#
# number of rings (size 3 to 8) (size 9 to 14) (size 15 to 20)
#    0.000    1.500    3.750    2.250    7.000    0.000 
#    0.000    0.000    0.000    1.500    0.000    0.000 
#    0.000    0.000    0.000    0.000    0.000    0.000 
#
# Total GULP energy -357778.580292 kJ/mol
# GULP energy per Si atom -5590.290317 kJ/mol
# Density = 2.339700 g / cm^3
# Si number density = 23.450378 Si / 1000 Ang^3
#
#
#
# Elastic Constant Matrix: (Units=GPa)
#
#
# Indices 1 2 3 4 5 6 
#
# 1 121.1912 21.3579 11.8597 0.0000 0.0000 0.0000
# 2 21.3579 46.9765 16.3861 0.0000 0.0000 0.0000
# 3 11.8597 16.3861 72.0107 0.0000 0.0000 0.0000
# 4 0.0000 0.0000 0.0000 6.4348 0.0000 0.0000
# 5 0.0000 0.0000 0.0000 0.0000 27.5940 0.0000
# 6 0.0000 0.0000 0.0000 0.0000 0.0000 29.4661
#
#
#
# Elastic Compliance Matrix: (Units=1/GPa)
#
#
# Indices 1 2 3 4 5 6 
#
# 1 0.008994 -0.003880 -0.000598 0.000000 0.000000 0.000000
# 2 -0.003880 0.024797 -0.005003 0.000000 0.000000 0.000000
# 3 -0.000598 -0.005003 0.015124 0.000000 0.000000 0.000000
# 4 0.000000 0.000000 0.000000 0.155406 0.000000 0.000000
# 5 0.000000 0.000000 0.000000 0.000000 0.036240 0.000000
# 6 0.000000 0.000000 0.000000 0.000000 0.000000 0.033937
#
#
# Mechanical properties :
#
#
# Convention : Reuss Voigt Hill
#
# Bulk Modulus (GPa) = 33.38863 37.70955 35.54909
# Shear Modulus (GPa) = 16.47743 25.40393 20.94068
#
# Velocity S-wave (km/s) = 2.65363 3.29493 2.99152
# Velocity P-wave (km/s) = 4.86394 5.53091 5.20811
#
# Compressibility (1/GPa) = 0.02995031
#
# Stress axis : x y z
#
# Youngs Moduli (GPa) = 111.18752 40.32787 66.12049
#
# Poissons Ratio (x) = 0.15649 0.03956
# Poissons Ratio (y) = 0.43145 0.33083
# Poissons Ratio (z) = 0.06652 0.20178
#
# Static dielectric constant tensor:
#      x y z
#    x 1.930240 0.000000 0.000000 
#    y 0.000000 1.903830 0.000000 
#    z 0.000000 0.000000 1.897110 
# 
# From -- ./inp_files/849.got.cif
#   From: 2010.05.17/outbox.cif.g08.bks.cpg/sg61_1_cif.got.tgz:849.got - 2010.06.03 15:17:17.
