data_PCOD9459388
_publ_section_title
;
Structure prediction by ZEFSAII (Michael W. Deem and Ramdas Pophale) SiO2 
 PCOD9459388
Probable space group: P B C A
;
_chemical_formula_sum "Si O2"
_cell_formula_units_Z 48
_cell_length_a 17.155597
_cell_length_b 16.223410
_cell_length_c 9.709287
_cell_angle_alpha 90.000000
_cell_angle_beta 90.000000
_cell_angle_gamma 90.000000
_cell_volume 2702.310933
_symmetry_space_group_name_H-M "P B C A"
_symmetry_group_IT_number 61
_symmetry_cell_setting 'orthorhombic'
loop_
_space_group_symop_operation_xyz
x,y,z
1/2-x,-y,1/2+z
1/2+x,1/2-y,-z
-x,1/2+y,1/2-z
-x,-y,-z
1/2+x,y,1/2-z
1/2-x,1/2+y,z
x,1/2-y,1/2+z
loop_
_atom_site_type_symbol
_atom_site_label
_atom_site_fract_x
_atom_site_fract_y
_atom_site_fract_z
Si Si1 0.813058 0.997386 0.843934
Si Si2 0.810491 0.744063 0.683923
Si Si3 0.420735 0.203036 0.449573
Si Si4 0.397568 0.667202 0.070556
Si Si5 0.220067 0.594598 0.382662
Si Si6 0.856618 0.331144 0.250018
O O1 0.871223 0.924660 0.888174
O O2 0.746592 0.957663 0.748579
O O3 0.856421 0.070300 0.761370
O O4 0.778589 0.039863 0.980438
O O5 0.862658 0.772952 0.811738
O O6 0.857446 0.691148 0.573520
O O7 0.778334 0.827415 0.611251
O O8 0.733314 0.696815 0.735084
O O9 0.510302 0.178699 0.439903
O O10 0.365467 0.135432 0.374818
O O11 0.391597 0.203215 0.607129
O O12 0.402668 0.289448 0.375176
#
# Coordination Sequence:
#
# PCOD9459388 Si02
#       6
#     8   8   8   8   8   8
#     4  10  20  34  55  80 105 137 180 225 263 307
#     4  10  20  36  56  77 106 147 184 212 258 324
#     4  10  21  36  55  80 110 141 176 217 269 322
#     4  11  21  35  56  81 110 140 175 223 270 313
#     4   9  20  35  53  79 106 139 181 218 262 316
#     4  10  20  37  57  78 105 143 184 216 258 318
#
# _framework density 17.762574000000001
#
# number of rings (size 3 to 8) (size 9 to 14) (size 15 to 20)
#    0.000    2.000    0.000    5.000    0.000    5.333 
#    0.000    3.333    0.000    5.000    0.000    0.000 
#    0.000    0.000    0.000    0.000    0.000    0.000 
#
# Total GULP energy -267914.476829 kJ/mol
# GULP energy per Si atom -5581.551601 kJ/mol
# Density = 1.772215 g / cm^3
# Si number density = 17.762574 Si / 1000 Ang^3
#
#
#
# Elastic Constant Matrix: (Units=GPa)
#
#
# Indices 1 2 3 4 5 6 
#
# 1 106.4548 25.2301 35.9613 0.0000 0.0000 0.0000
# 2 25.2301 94.8325 36.1052 0.0000 0.0000 0.0000
# 3 35.9613 36.1052 41.4381 0.0000 0.0000 0.0000
# 4 0.0000 0.0000 0.0000 42.4539 0.0000 0.0000
# 5 0.0000 0.0000 0.0000 0.0000 25.0124 0.0000
# 6 0.0000 0.0000 0.0000 0.0000 0.0000 6.5777
#
#
#
# Elastic Compliance Matrix: (Units=1/GPa)
#
#
# Indices 1 2 3 4 5 6 
#
# 1 0.013394 0.001290 -0.012748 0.000000 0.000000 0.000000
# 2 0.001290 0.015904 -0.014976 0.000000 0.000000 0.000000
# 3 -0.012748 -0.014976 0.048244 0.000000 0.000000 0.000000
# 4 0.000000 0.000000 0.000000 0.023555 0.000000 0.000000
# 5 0.000000 0.000000 0.000000 0.000000 0.039980 0.000000
# 6 0.000000 0.000000 0.000000 0.000000 0.000000 0.152029
#
#
# Mechanical properties :
#
#
# Convention : Reuss Voigt Hill
#
# Bulk Modulus (GPa) = 40.52910 48.59097 44.56003
# Shear Modulus (GPa) = 14.11635 24.50407 19.31021
#
# Velocity S-wave (km/s) = 2.82214 3.71824 3.30074
# Velocity P-wave (km/s) = 5.78671 6.77118 6.29821
#
# Compressibility (1/GPa) = 0.02467363
#
# Stress axis : x y z
#
# Youngs Moduli (GPa) = 74.65885 62.87897 20.72790
#
# Poissons Ratio (x) = -0.08111 0.26424
# Poissons Ratio (y) = -0.09630 0.31043
# Poissons Ratio (z) = 0.95174 0.94169
#
# Static dielectric constant tensor:
#      x y z
#    x 1.573460 0.000000 0.000000 
#    y 0.000000 1.618820 0.000000 
#    z 0.000000 0.000000 1.607010 
# 
# From -- ./inp_files/3454.got.cif
#   From: 2010.05.17/outbox.cif.g08.bks.cpg/sg61_2_cif.got.tgz:3454.got - 2010.06.03 15:17:17.
