data_PCOD9459774
_publ_section_title
;
Structure prediction by ZEFSAII (Michael W. Deem and Ramdas Pophale) SiO2 
 PCOD9459774
Probable space group: P B C A
;
_chemical_formula_sum "Si O2"
_cell_formula_units_Z 48
_cell_length_a 9.861450
_cell_length_b 18.610173
_cell_length_c 10.646093
_cell_angle_alpha 90.000000
_cell_angle_beta 90.000000
_cell_angle_gamma 90.000000
_cell_volume 1953.806019
_symmetry_space_group_name_H-M "P B C A"
_symmetry_group_IT_number 61
_symmetry_cell_setting 'orthorhombic'
loop_
_space_group_symop_operation_xyz
x,y,z
1/2-x,-y,1/2+z
1/2+x,1/2-y,-z
-x,1/2+y,1/2-z
-x,-y,-z
1/2+x,y,1/2-z
1/2-x,1/2+y,z
x,1/2-y,1/2+z
loop_
_atom_site_type_symbol
_atom_site_label
_atom_site_fract_x
_atom_site_fract_y
_atom_site_fract_z
Si Si1 0.161555 0.086994 0.338313
Si Si2 0.150259 0.029328 0.971002
Si Si3 0.091410 0.505338 0.130197
Si Si4 0.441934 0.643139 0.599171
Si Si5 0.265330 0.176144 0.933149
Si Si6 0.792416 0.729920 0.307459
O O1 0.197885 0.149501 0.242144
O O2 0.139802 0.130346 0.470311
O O3 0.256524 0.023837 0.088748
O O4 0.013473 0.056274 0.298091
O O5 0.228486 0.975933 0.870052
O O6 0.149454 0.115369 0.944881
O O7 0.000000 0.000000 0.000000
O O8 0.099167 0.424639 0.183817
O O9 0.000000 0.500000 0.000000
O O10 0.598305 0.631472 0.574198
O O11 0.422552 0.722449 0.652866
O O12 0.259545 0.223143 0.808360
O O13 0.281471 0.223397 0.058923
#
# Coordination Sequence:
#
# PCOD9459774 Si02
#       6
#     8   8   8   8   8   8
#     4  10  20  49  75 107 148 207 249 316 389 461
#     4  10  21  45  74 112 150 194 265 324 377 459
#     4   8  16  41  78  95 141 202 249 302 387 449
#     4  10  21  48  74 102 149 202 249 310 394 464
#     4  12  26  49  73 115 149 202 256 322 389 470
#     4  12  28  45  76 113 158 197 257 325 399 465
#
# _framework density 24.567435
#
# number of rings (size 3 to 8) (size 9 to 14) (size 15 to 20)
#    0.000    2.000    6.667    0.000    2.333    1.333 
#   15.000    0.000    0.000    0.000    0.000    0.000 
#    0.000    0.000    0.000    0.000    0.000    0.000 
#
# Total GULP energy -267664.964796 kJ/mol
# GULP energy per Si atom -5576.353433 kJ/mol
# Density = 2.451152 g / cm^3
# Si number density = 24.567435 Si / 1000 Ang^3
#
#
#
# Elastic Constant Matrix: (Units=GPa)
#
#
# Indices 1 2 3 4 5 6 
#
# 1 126.5203 41.7523 30.5577 0.0000 0.0000 0.0000
# 2 41.7523 138.4627 43.0908 0.0000 0.0000 0.0000
# 3 30.5577 43.0908 123.6106 0.0000 0.0000 0.0000
# 4 0.0000 0.0000 0.0000 46.9174 0.0000 0.0000
# 5 0.0000 0.0000 0.0000 0.0000 4.3767 0.0000
# 6 0.0000 0.0000 0.0000 0.0000 0.0000 0.6894
#
#
#
# Elastic Compliance Matrix: (Units=1/GPa)
#
#
# Indices 1 2 3 4 5 6 
#
# 1 0.008998 -0.002267 -0.001434 0.000000 0.000000 0.000000
# 2 -0.002267 0.008672 -0.002463 0.000000 0.000000 0.000000
# 3 -0.001434 -0.002463 0.009303 0.000000 0.000000 0.000000
# 4 0.000000 0.000000 0.000000 0.021314 0.000000 0.000000
# 5 0.000000 0.000000 0.000000 0.000000 0.228483 0.000000
# 6 0.000000 0.000000 0.000000 0.000000 0.000000 1.450469
#
#
# Mechanical properties :
#
#
# Convention : Reuss Voigt Hill
#
# Bulk Modulus (GPa) = 68.27961 68.82169 68.55065
# Shear Modulus (GPa) = 2.86624 28.60957 15.73790
#
# Velocity S-wave (km/s) = 1.08130 3.41623 2.53375
# Velocity P-wave (km/s) = 5.42328 6.60568 6.04347
#
# Compressibility (1/GPa) = 0.01464566
#
# Stress axis : x y z
#
# Youngs Moduli (GPa) = 111.13087 115.31111 107.49262
#
# Poissons Ratio (x) = 0.26142 0.15416
# Poissons Ratio (y) = 0.25194 0.26472
# Poissons Ratio (z) = 0.15938 0.28398
#
# Static dielectric constant tensor:
#      x y z
#    x 2.001020 0.000000 0.000000 
#    y 0.000000 2.564190 0.000000 
#    z 0.000000 0.000000 3.849340 
# 
# From -- ./inp_files/2242.got.cif
#   From: 2010.05.17/outbox.cif.g08.bks.cpg/sg61_2_cif.got.tgz:2242.got - 2010.06.03 15:17:17.
