data_PCOD9459553
_publ_section_title
;
Structure prediction by ZEFSAII (Michael W. Deem and Ramdas Pophale) SiO2 
 PCOD9459553
Probable space group: P B C A
;
_chemical_formula_sum "Si O2"
_cell_formula_units_Z 52
_cell_length_a 8.546569
_cell_length_b 11.214053
_cell_length_c 24.889442
_cell_angle_alpha 90.000000
_cell_angle_beta 90.000000
_cell_angle_gamma 90.000000
_cell_volume 2385.445879
_symmetry_space_group_name_H-M "P B C A"
_symmetry_group_IT_number 61
_symmetry_cell_setting 'orthorhombic'
loop_
_space_group_symop_operation_xyz
x,y,z
1/2-x,-y,1/2+z
1/2+x,1/2-y,-z
-x,1/2+y,1/2-z
-x,-y,-z
1/2+x,y,1/2-z
1/2-x,1/2+y,z
x,1/2-y,1/2+z
loop_
_atom_site_type_symbol
_atom_site_label
_atom_site_fract_x
_atom_site_fract_y
_atom_site_fract_z
Si Si1 0.530594 0.807654 0.493216
Si Si2 0.313355 0.509686 0.935901
Si Si3 0.000000 0.000000 0.500000
Si Si4 0.427318 0.017471 0.317686
Si Si5 0.340310 0.638582 0.563500
Si Si6 0.805651 0.399035 0.255117
Si Si7 0.050751 0.282325 0.179716
O O1 0.387718 0.873675 0.464231
O O2 0.471485 0.681290 0.517648
O O3 0.676577 0.803396 0.452733
O O4 0.591130 0.894818 0.540683
O O5 0.133443 0.493351 0.950478
O O6 0.347402 0.520432 0.873014
O O7 0.849338 0.997553 0.454276
O O8 0.489506 0.149692 0.324431
O O9 0.307208 0.001320 0.268306
O O10 0.578072 0.939400 0.301994
O O11 0.395011 0.670604 0.621958
O O12 0.693962 0.297434 0.278920
O O13 0.910606 0.357120 0.205660
#
# Coordination Sequence:
#
# PCOD9459553 Si02
#       7
#     8   8   4   8   8   8   8
#     4  10  21  36  59  87 123 157 207 248 311 383
#     4  10  20  38  60  86 122 164 200 262 315 380
#     4  10  22  36  58  88 126 156 208 250 314 382
#     4  11  21  42  66  91 129 173 213 272 331 378
#     4  11  21  38  59  89 122 166 202 258 315 383
#     4  10  24  39  64  96 126 165 224 275 319 382
#     4  11  22  42  66  92 128 170 216 268 327 388
#
# _framework density 21.798860000000001
#
# number of rings (size 3 to 8) (size 9 to 14) (size 15 to 20)
#    0.000    1.538    1.538    3.692    0.000    0.000 
#    2.769    0.000   10.154    0.000    0.000    0.000 
#    0.000    0.000    0.000    0.000    0.000    0.000 
#
# Total GULP energy -289838.977501 kJ/mol
# GULP energy per Si atom -5573.826490 kJ/mol
# Density = 2.174924 g / cm^3
# Si number density = 21.798860 Si / 1000 Ang^3
#
#
#
# Elastic Constant Matrix: (Units=GPa)
#
#
# Indices 1 2 3 4 5 6 
#
# 1 117.6818 14.3577 55.8402 0.0000 0.0000 0.0000
# 2 14.3577 40.0201 22.8628 0.0000 0.0000 0.0000
# 3 55.8402 22.8628 131.1136 0.0000 0.0000 0.0000
# 4 0.0000 0.0000 0.0000 24.9711 0.0000 0.0000
# 5 0.0000 0.0000 0.0000 0.0000 44.3214 0.0000
# 6 0.0000 0.0000 0.0000 0.0000 0.0000 20.3980
#
#
#
# Elastic Compliance Matrix: (Units=1/GPa)
#
#
# Indices 1 2 3 4 5 6 
#
# 1 0.010717 -0.001374 -0.004325 0.000000 0.000000 0.000000
# 2 -0.001374 0.027928 -0.004285 0.000000 0.000000 0.000000
# 3 -0.004325 -0.004285 0.010216 0.000000 0.000000 0.000000
# 4 0.000000 0.000000 0.000000 0.040046 0.000000 0.000000
# 5 0.000000 0.000000 0.000000 0.000000 0.022562 0.000000
# 6 0.000000 0.000000 0.000000 0.000000 0.000000 0.049025
#
#
# Mechanical properties :
#
#
# Convention : Reuss Voigt Hill
#
# Bulk Modulus (GPa) = 34.60916 52.77075 43.68995
# Shear Modulus (GPa) = 26.30285 30.98841 28.64563
#
# Velocity S-wave (km/s) = 3.47741 3.77445 3.62897
# Velocity P-wave (km/s) = 5.65988 6.57692 6.13556
#
# Compressibility (1/GPa) = 0.02889408
#
# Stress axis : x y z
#
# Youngs Moduli (GPa) = 93.30743 35.80609 97.88592
#
# Poissons Ratio (x) = 0.04921 0.42333
# Poissons Ratio (y) = 0.12823 0.41941
# Poissons Ratio (z) = 0.40353 0.15342
#
# Static dielectric constant tensor:
#      x y z
#    x 1.804170 0.000000 0.000000 
#    y 0.000000 0.964980 0.000000 
#    z 0.000000 0.000000 1.708170 
# 
# From -- ./inp_files/8333.got.cif
#   From: 2010.05.17/outbox.cif.g08.bks.cpg/sg61_5_cif.got.tgz:8333.got - 2010.06.03 15:17:17.
