data_PCOD9459346
_publ_section_title
;
Structure prediction by ZEFSAII (Michael W. Deem and Ramdas Pophale) SiO2 
 PCOD9459346
Probable space group: P B C A
;
_chemical_formula_sum "Si O2"
_cell_formula_units_Z 40
_cell_length_a 8.817016
_cell_length_b 14.063692
_cell_length_c 13.679670
_cell_angle_alpha 90.000000
_cell_angle_beta 90.000000
_cell_angle_gamma 90.000000
_cell_volume 1696.276308
_symmetry_space_group_name_H-M "P B C A"
_symmetry_group_IT_number 61
_symmetry_cell_setting 'orthorhombic'
loop_
_space_group_symop_operation_xyz
x,y,z
1/2-x,-y,1/2+z
1/2+x,1/2-y,-z
-x,1/2+y,1/2-z
-x,-y,-z
1/2+x,y,1/2-z
1/2-x,1/2+y,z
x,1/2-y,1/2+z
loop_
_atom_site_type_symbol
_atom_site_label
_atom_site_fract_x
_atom_site_fract_y
_atom_site_fract_z
Si Si1 0.473765 0.018535 0.216900
Si Si2 0.736457 0.580849 0.115911
Si Si3 0.095961 0.771161 0.030996
Si Si4 0.721021 0.620842 0.796102
Si Si5 0.278581 0.866619 0.430774
O O1 0.364690 0.940295 0.166629
O O2 0.583624 0.954359 0.285689
O O3 0.366171 0.080410 0.286088
O O4 0.588851 0.076515 0.149608
O O5 0.702831 0.479819 0.063949
O O6 0.686430 0.663918 0.046469
O O7 0.170611 0.794289 0.135274
O O8 0.925688 0.810066 0.032781
O O9 0.133760 0.666902 0.992493
O O10 0.755542 0.652235 0.685079
#
# Coordination Sequence:
#
# PCOD9459346 Si02
#       5
#     8   8   8   8   8
#     4   8  18  38  65  92 127 165 209 255 325 372
#     4  10  21  44  65  96 127 174 210 264 322 385
#     4  12  24  43  69  93 129 172 223 264 313 398
#     4  10  19  41  65  87 134 170 198 272 327 368
#     4  10  25  42  63  99 128 171 216 265 329 375
#
# _framework density 23.581064000000001
#
# number of rings (size 3 to 8) (size 9 to 14) (size 15 to 20)
#    0.000    2.400    4.000    0.600    5.600    0.800 
#    7.200    0.000    0.000    0.000    0.000    0.000 
#    0.000    0.000    0.000    0.000    0.000    0.000 
#
# Total GULP energy -223753.382936 kJ/mol
# GULP energy per Si atom -5593.834573 kJ/mol
# Density = 2.352739 g / cm^3
# Si number density = 23.581064 Si / 1000 Ang^3
#
#
#
# Elastic Constant Matrix: (Units=GPa)
#
#
# Indices 1 2 3 4 5 6 
#
# 1 134.9392 25.5343 28.2767 0.0000 0.0000 0.0000
# 2 25.5343 39.9506 18.8522 0.0000 0.0000 0.0000
# 3 28.2767 18.8522 53.6830 0.0000 0.0000 0.0000
# 4 0.0000 0.0000 0.0000 23.5221 0.0000 0.0000
# 5 0.0000 0.0000 0.0000 0.0000 32.9386 0.0000
# 6 0.0000 0.0000 0.0000 0.0000 0.0000 26.8150
#
#
#
# Elastic Compliance Matrix: (Units=1/GPa)
#
#
# Indices 1 2 3 4 5 6 
#
# 1 0.008870 -0.004153 -0.003214 0.000000 0.000000 0.000000
# 2 -0.004153 0.031947 -0.009032 0.000000 0.000000 0.000000
# 3 -0.003214 -0.009032 0.023492 0.000000 0.000000 0.000000
# 4 0.000000 0.000000 0.000000 0.042513 0.000000 0.000000
# 5 0.000000 0.000000 0.000000 0.000000 0.030360 0.000000
# 6 0.000000 0.000000 0.000000 0.000000 0.000000 0.037293
#
#
# Mechanical properties :
#
#
# Convention : Reuss Voigt Hill
#
# Bulk Modulus (GPa) = 31.73282 41.54435 36.63858
# Shear Modulus (GPa) = 22.95942 27.04910 25.00426
#
# Velocity S-wave (km/s) = 3.12370 3.39051 3.25984
# Velocity P-wave (km/s) = 5.14744 5.74312 5.45342
#
# Compressibility (1/GPa) = 0.03151312
#
# Stress axis : x y z
#
# Youngs Moduli (GPa) = 112.73940 31.30179 42.56693
#
# Poissons Ratio (x) = 0.12999 0.13680
# Poissons Ratio (y) = 0.46817 0.38445
# Poissons Ratio (z) = 0.36232 0.28271
#
# Static dielectric constant tensor:
#      x y z
#    x 1.918910 0.000000 0.000000 
#    y 0.000000 1.891720 0.000000 
#    z 0.000000 0.000000 1.875620 
# 
# From -- ./inp_files/2671.got.cif
#   From: 2010.05.17/outbox.cif.g08.bks.cpg/sg61_2_cif.got.tgz:2671.got - 2010.06.03 15:17:17.
