data_PCOD9459406
_publ_section_title
;
Structure prediction by ZEFSAII (Michael W. Deem and Ramdas Pophale) SiO2 
 PCOD9459406
Probable space group: P B C A
;
_chemical_formula_sum "Si O2"
_cell_formula_units_Z 52
_cell_length_a 6.822388
_cell_length_b 7.312954
_cell_length_c 36.574100
_cell_angle_alpha 90.000000
_cell_angle_beta 90.000000
_cell_angle_gamma 90.000000
_cell_volume 1824.748034
_symmetry_space_group_name_H-M "P B C A"
_symmetry_group_IT_number 61
_symmetry_cell_setting 'orthorhombic'
loop_
_space_group_symop_operation_xyz
x,y,z
1/2-x,-y,1/2+z
1/2+x,1/2-y,-z
-x,1/2+y,1/2-z
-x,-y,-z
1/2+x,y,1/2-z
1/2-x,1/2+y,z
x,1/2-y,1/2+z
loop_
_atom_site_type_symbol
_atom_site_label
_atom_site_fract_x
_atom_site_fract_y
_atom_site_fract_z
Si Si1 0.000000 0.500000 0.000000
Si Si2 0.427270 0.207323 0.792184
Si Si3 0.396430 0.146775 0.641207
Si Si4 0.174427 0.657278 0.215344
Si Si5 0.546335 0.738444 0.630806
Si Si6 0.550150 0.733038 0.937520
Si Si7 0.983061 0.305202 0.552415
O O1 0.957971 0.604226 0.039097
O O2 0.917640 0.302482 0.016593
O O3 0.312521 0.257030 0.755874
O O4 0.597270 0.360864 0.794640
O O5 0.333777 0.190869 0.832422
O O6 0.545920 0.023231 0.783933
O O7 0.413362 0.232211 0.681232
O O8 0.159618 0.131657 0.635796
O O9 0.468998 0.261654 0.606219
O O10 0.490112 0.951070 0.634359
O O11 0.616857 0.728547 0.589346
O O12 0.786180 0.747502 0.944254
O O13 0.488434 0.526062 0.948643
#
# Coordination Sequence:
#
# PCOD9459406 Si02
#       7
#     4   8   8   8   8   8   8
#     4  12  22  32  60  80 112 144 186 220 304 336
#     4  11  21  34  55  84 115 149 189 233 281 334
#     4   9  17  30  52  79 109 136 179 230 282 330
#     4  11  21  34  55  84 115 149 189 233 281 334
#     4   9  17  30  52  79 109 136 179 230 282 330
#     4  10  20  35  55  84 112 144 185 238 284 336
#     4  10  20  35  55  84 112 144 185 238 284 336
#
# _framework density 28.497084000000001
#
# number of rings (size 3 to 8) (size 9 to 14) (size 15 to 20)
#    0.000    1.846    1.538    6.000    4.308    0.000 
#    0.000    0.000    0.000    1.846    0.000    0.000 
#    0.000    0.000    0.000    0.000    0.000    0.000 
#
# Total GULP energy -290409.737514 kJ/mol
# GULP energy per Si atom -5584.802644 kJ/mol
# Density = 2.843222 g / cm^3
# Si number density = 28.497084 Si / 1000 Ang^3
#
#
#
# Elastic Constant Matrix: (Units=GPa)
#
#
# Indices 1 2 3 4 5 6 
#
# 1 84.0988 7.9847 0.7024 0.0000 0.0000 0.0000
# 2 7.9847 154.0901 81.0182 0.0000 0.0000 0.0000
# 3 0.7024 81.0182 261.9325 0.0000 0.0000 0.0000
# 4 0.0000 0.0000 0.0000 60.3659 0.0000 0.0000
# 5 0.0000 0.0000 0.0000 0.0000 17.5208 0.0000
# 6 0.0000 0.0000 0.0000 0.0000 0.0000 17.5084
#
#
#
# Elastic Compliance Matrix: (Units=1/GPa)
#
#
# Indices 1 2 3 4 5 6 
#
# 1 0.011958 -0.000720 0.000191 0.000000 0.000000 0.000000
# 2 -0.000720 0.007793 -0.002409 0.000000 0.000000 0.000000
# 3 0.000191 -0.002409 0.004562 0.000000 0.000000 0.000000
# 4 0.000000 0.000000 0.000000 0.016566 0.000000 0.000000
# 5 0.000000 0.000000 0.000000 0.000000 0.057075 0.000000
# 6 0.000000 0.000000 0.000000 0.000000 0.000000 0.057116
#
#
# Mechanical properties :
#
#
# Convention : Reuss Voigt Hill
#
# Bulk Modulus (GPa) = 54.23740 75.50356 64.87048
# Shear Modulus (GPa) = 29.92381 46.44009 38.18195
#
# Velocity S-wave (km/s) = 3.24399 4.04126 3.66437
# Velocity P-wave (km/s) = 5.75371 6.95187 6.38097
#
# Compressibility (1/GPa) = 0.01843746
#
# Stress axis : x y z
#
# Youngs Moduli (GPa) = 83.62931 128.31298 219.18839
#
# Poissons Ratio (x) = 0.09236 -0.04177
# Poissons Ratio (y) = 0.06020 0.52795
# Poissons Ratio (z) = -0.01594 0.30906
#
# Static dielectric constant tensor:
#      x y z
#    x 2.360260 0.000000 0.000000 
#    y 0.000000 2.196130 0.000000 
#    z 0.000000 0.000000 2.247720 
# 
# From -- ./inp_files/4590.got.cif
#   From: 2010.05.17/outbox.cif.g08.bks.cpg/sg61_3_cif.got.tgz:4590.got - 2010.06.03 15:17:17.
