data_PCOD9459596
_publ_section_title
;
Structure prediction by ZEFSAII (Michael W. Deem and Ramdas Pophale) SiO2 
 PCOD9459596
Probable space group: P B C A
;
_chemical_formula_sum "Si O2"
_cell_formula_units_Z 64
_cell_length_a 13.192538
_cell_length_b 8.851557
_cell_length_c 22.468222
_cell_angle_alpha 90.000000
_cell_angle_beta 90.000000
_cell_angle_gamma 90.000000
_cell_volume 2623.715437
_symmetry_space_group_name_H-M "P B C A"
_symmetry_group_IT_number 61
_symmetry_cell_setting 'orthorhombic'
loop_
_space_group_symop_operation_xyz
x,y,z
1/2-x,-y,1/2+z
1/2+x,1/2-y,-z
-x,1/2+y,1/2-z
-x,-y,-z
1/2+x,y,1/2-z
1/2-x,1/2+y,z
x,1/2-y,1/2+z
loop_
_atom_site_type_symbol
_atom_site_label
_atom_site_fract_x
_atom_site_fract_y
_atom_site_fract_z
Si Si1 0.664507 0.473646 0.813829
Si Si2 0.977022 0.241030 0.031890
Si Si3 0.627212 0.074279 0.541902
Si Si4 0.328554 0.120321 0.885833
Si Si5 0.798553 0.799522 0.392717
Si Si6 0.203135 0.165380 0.307307
Si Si7 0.009100 0.187194 0.839889
Si Si8 0.610082 0.896863 0.921959
O O1 0.644043 0.326171 0.853964
O O2 0.737147 0.589239 0.848091
O O3 0.718914 0.419785 0.754041
O O4 0.561522 0.567099 0.807010
O O5 0.936004 0.329862 0.088905
O O6 0.896089 0.100765 0.029838
O O7 0.958745 0.349462 0.976465
O O8 0.083670 0.160134 0.016227
O O9 0.740386 0.114342 0.563227
O O10 0.556481 0.116441 0.599180
O O11 0.292783 0.236253 0.834729
O O12 0.326800 0.955543 0.857545
O O13 0.712348 0.703584 0.426120
O O14 0.862826 0.927352 0.425951
O O15 0.104282 0.268735 0.300181
O O16 0.944025 0.332370 0.862207
#
# Coordination Sequence:
#
# PCOD9459596 Si02
#       8
#     8   8   8   8   8   8   8   8
#     4  10  20  40  63  88 124 168 211 274 339 393
#     4  10  20  38  66  92 133 182 216 272 338 401
#     4   9  20  41  63  91 133 178 227 269 337 405
#     4  11  22  41  64  99 134 178 227 286 327 405
#     4   9  19  36  60  91 119 158 211 266 325 392
#     4  11  23  40  63  94 127 171 225 277 337 404
#     4   9  21  41  57  83 127 162 218 278 322 398
#     4   9  19  35  58  89 123 159 208 262 318 394
#
# _framework density 24.392890000000001
#
# number of rings (size 3 to 8) (size 9 to 14) (size 15 to 20)
#    0.000    2.250    1.250    0.750    1.750    1.000 
#    6.750    8.125    0.000    0.000    0.000    0.000 
#    0.000    0.000    0.000    0.000    0.000    0.000 
#
# Total GULP energy -358093.518224 kJ/mol
# GULP energy per Si atom -5595.211222 kJ/mol
# Density = 2.433737 g / cm^3
# Si number density = 24.392890 Si / 1000 Ang^3
#
#
#
# Elastic Constant Matrix: (Units=GPa)
#
#
# Indices 1 2 3 4 5 6 
#
# 1 85.6631 9.4223 11.8661 0.0000 0.0000 0.0000
# 2 9.4223 118.8819 6.6949 0.0000 0.0000 0.0000
# 3 11.8661 6.6949 40.2204 0.0000 0.0000 0.0000
# 4 0.0000 0.0000 0.0000 30.6506 0.0000 0.0000
# 5 0.0000 0.0000 0.0000 0.0000 13.6391 0.0000
# 6 0.0000 0.0000 0.0000 0.0000 0.0000 22.8711
#
#
#
# Elastic Compliance Matrix: (Units=1/GPa)
#
#
# Indices 1 2 3 4 5 6 
#
# 1 0.012241 -0.000774 -0.003483 0.000000 0.000000 0.000000
# 2 -0.000774 0.008540 -0.001193 0.000000 0.000000 0.000000
# 3 -0.003483 -0.001193 0.026089 0.000000 0.000000 0.000000
# 4 0.000000 0.000000 0.000000 0.032626 0.000000 0.000000
# 5 0.000000 0.000000 0.000000 0.000000 0.073319 0.000000
# 6 0.000000 0.000000 0.000000 0.000000 0.000000 0.043723
#
#
# Mechanical properties :
#
#
# Convention : Reuss Voigt Hill
#
# Bulk Modulus (GPa) = 27.80039 33.41466 30.60753
# Shear Modulus (GPa) = 22.78648 27.88430 25.33539
#
# Velocity S-wave (km/s) = 3.05969 3.38469 3.22629
# Velocity P-wave (km/s) = 4.88917 5.38545 5.14330
#
# Compressibility (1/GPa) = 0.03597071
#
# Stress axis : x y z
#
# Youngs Moduli (GPa) = 81.69138 117.09253 38.33023
#
# Poissons Ratio (x) = 0.09064 0.13349
# Poissons Ratio (y) = 0.06324 0.04574
# Poissons Ratio (z) = 0.28450 0.13972
#
# Static dielectric constant tensor:
#      x y z
#    x 1.976950 0.000000 0.000000 
#    y 0.000000 1.914530 0.000000 
#    z 0.000000 0.000000 1.944300 
# 
# From -- ./inp_files/11066.got.cif
#   From: 2010.05.17/outbox.cif.g08.bks.cpg/sg61_6_cif.got.tgz:11066.got - 2010.06.03 15:17:17.
