data_PCOD9459799
_publ_section_title
;
Structure prediction by ZEFSAII (Michael W. Deem and Ramdas Pophale) SiO2 
 PCOD9459799
Probable space group: P B C A
;
_chemical_formula_sum "Si O2"
_cell_formula_units_Z 64
_cell_length_a 9.541514
_cell_length_b 19.554649
_cell_length_c 15.441656
_cell_angle_alpha 90.000000
_cell_angle_beta 90.000000
_cell_angle_gamma 90.000000
_cell_volume 2881.118957
_symmetry_space_group_name_H-M "P B C A"
_symmetry_group_IT_number 61
_symmetry_cell_setting 'orthorhombic'
loop_
_space_group_symop_operation_xyz
x,y,z
1/2-x,-y,1/2+z
1/2+x,1/2-y,-z
-x,1/2+y,1/2-z
-x,-y,-z
1/2+x,y,1/2-z
1/2-x,1/2+y,z
x,1/2-y,1/2+z
loop_
_atom_site_type_symbol
_atom_site_label
_atom_site_fract_x
_atom_site_fract_y
_atom_site_fract_z
Si Si1 0.569308 0.430832 0.858255
Si Si2 0.145469 0.797608 0.494651
Si Si3 0.781560 0.414594 0.543285
Si Si4 0.551039 0.586016 0.860249
Si Si5 0.620611 0.217680 0.087010
Si Si6 0.819468 0.788985 0.825081
Si Si7 0.264012 0.567422 0.960630
Si Si8 0.446730 0.223864 0.744330
O O1 0.413028 0.412887 0.890637
O O2 0.573536 0.508844 0.823980
O O3 0.629511 0.366516 0.806179
O O4 0.658838 0.434063 0.946552
O O5 0.240154 0.760469 0.425356
O O6 0.237839 0.791659 0.583111
O O7 0.143726 0.876405 0.465926
O O8 0.998174 0.764450 0.516206
O O9 0.668444 0.358927 0.568794
O O10 0.718679 0.490146 0.553448
O O11 0.849034 0.404482 0.446053
O O12 0.390048 0.587686 0.895031
O O13 0.570493 0.646707 0.791220
O O14 0.540339 0.235173 0.173861
O O15 0.702002 0.760639 0.759961
O O16 0.952512 0.737513 0.825635
#
# Coordination Sequence:
#
# PCOD9459799 Si02
#       8
#     8   8   8   8   8   8   8   8
#     4   8  17  33  61  80 112 153 189 227 284 355
#     4  10  21  36  55  84 118 149 191 240 292 338
#     4   9  17  30  59  90 110 148 187 228 292 344
#     4   9  16  36  58  87 114 146 190 236 285 346
#     4  11  22  33  57  88 116 149 189 245 285 344
#     4  10  23  38  55  83 112 156 192 239 285 342
#     4   8  15  32  56  85 114 143 184 232 288 343
#     4  11  23  38  57  83 120 149 196 239 285 344
#
# _framework density 22.213591000000001
#
# number of rings (size 3 to 8) (size 9 to 14) (size 15 to 20)
#    0.000    2.500    1.250    3.000    5.250    0.500 
#    0.000    1.250    0.000    1.500    0.000    0.000 
#    0.000    0.000    0.000    0.000    0.000    0.000 
#
# Total GULP energy -357200.337460 kJ/mol
# GULP energy per Si atom -5581.255273 kJ/mol
# Density = 2.216303 g / cm^3
# Si number density = 22.213591 Si / 1000 Ang^3
#
#
#
# Elastic Constant Matrix: (Units=GPa)
#
#
# Indices 1 2 3 4 5 6 
#
# 1 81.7340 31.8547 10.9746 0.0000 0.0000 0.0000
# 2 31.8547 120.7457 28.0751 0.0000 0.0000 0.0000
# 3 10.9746 28.0751 58.6227 0.0000 0.0000 0.0000
# 4 0.0000 0.0000 0.0000 -48.6000 0.0000 0.0000
# 5 0.0000 0.0000 0.0000 0.0000 21.7159 0.0000
# 6 0.0000 0.0000 0.0000 0.0000 0.0000 36.9616
#
#
#
# Elastic Compliance Matrix: (Units=1/GPa)
#
#
# Indices 1 2 3 4 5 6 
#
# 1 0.013683 -0.003392 -0.000937 0.000000 0.000000 0.000000
# 2 -0.003392 0.010160 -0.004231 0.000000 0.000000 0.000000
# 3 -0.000937 -0.004231 0.019260 0.000000 0.000000 0.000000
# 4 0.000000 0.000000 0.000000 -0.020576 0.000000 0.000000
# 5 0.000000 0.000000 0.000000 0.000000 0.046049 0.000000
# 6 0.000000 0.000000 0.000000 0.000000 0.000000 0.027055
#
#
# Mechanical properties :
#
#
# Convention : Reuss Voigt Hill
#
# Bulk Modulus (GPa) = 38.48648 44.76791 41.62719
# Shear Modulus (GPa) = 41.18212 14.69537 27.93875
#
# Velocity S-wave (km/s) = 4.31038 2.57485 3.55030
# Velocity P-wave (km/s) = 6.49121 5.38859 5.96543
#
# Compressibility (1/GPa) = 0.02598315
#
# Stress axis : x y z
#
# Youngs Moduli (GPa) = 73.08588 98.42096 51.92129
#
# Poissons Ratio (x) = 0.33382 0.04866
# Poissons Ratio (y) = 0.24789 0.21968
# Poissons Ratio (z) = 0.06849 0.41642
#
# Static dielectric constant tensor:
#      x y z
#    x 1.801620 0.000000 0.000000 
#    y 0.000000 1.849770 0.000000 
#    z 0.000000 0.000000 1.919520 
# 
# From -- ./inp_files/9058.got.cif
#   From: 2010.05.17/outbox.cif.g08.bks.cpg/sg61_5_cif.got.tgz:9058.got - 2010.06.03 15:17:17.
