data_PCOD9459159
_publ_section_title
;
Structure prediction by ZEFSAII (Michael W. Deem and Ramdas Pophale) SiO2 
 PCOD9459159
Probable space group: P B C A
;
_chemical_formula_sum "Si O2"
_cell_formula_units_Z 40
_cell_length_a 24.853519
_cell_length_b 5.240328
_cell_length_c 12.996144
_cell_angle_alpha 90.000000
_cell_angle_beta 90.000000
_cell_angle_gamma 90.000000
_cell_volume 1692.625482
_symmetry_space_group_name_H-M "P B C A"
_symmetry_group_IT_number 61
_symmetry_cell_setting 'orthorhombic'
loop_
_space_group_symop_operation_xyz
x,y,z
1/2-x,-y,1/2+z
1/2+x,1/2-y,-z
-x,1/2+y,1/2-z
-x,-y,-z
1/2+x,y,1/2-z
1/2-x,1/2+y,z
x,1/2-y,1/2+z
loop_
_atom_site_type_symbol
_atom_site_label
_atom_site_fract_x
_atom_site_fract_y
_atom_site_fract_z
Si Si1 0.221593 0.351525 0.429794
Si Si2 0.114643 0.674193 0.188474
Si Si3 0.386642 0.824482 0.827926
Si Si4 0.733072 0.832452 0.846353
Si Si5 0.000803 0.722810 0.680535
O O1 0.233193 0.642685 0.400447
O O2 0.163960 0.242752 0.398143
O O3 0.228967 0.353171 0.554021
O O4 0.113237 0.393493 0.238871
O O5 0.170553 0.690276 0.128581
O O6 0.058930 0.730379 0.129688
O O7 0.117371 0.895974 0.276376
O O8 0.445635 0.784709 0.878518
O O9 0.755766 0.591960 0.787267
O O10 0.999547 0.436396 0.727111
#
# Coordination Sequence:
#
# PCOD9459159 Si02
#       5
#     8   8   8   8   8
#     4  10  21  35  50  70 104 140 168 204 251 297
#     4  10  19  32  53  78 102 130 168 209 250 299
#     4  10  19  32  53  78 102 130 168 209 250 299
#     4  10  21  35  50  70 104 140 168 204 251 297
#     4   8  16  30  48  74 102 126 158 206 256 296
#
# _framework density 23.631926
#
# number of rings (size 3 to 8) (size 9 to 14) (size 15 to 20)
#    0.000    2.400    0.000    2.400    0.000    4.800 
#    0.000    0.000    0.000    9.600    0.000    0.000 
#    0.000    0.000    0.000    0.000    0.000    0.000 
#
# Total GULP energy -223203.852737 kJ/mol
# GULP energy per Si atom -5580.096318 kJ/mol
# Density = 2.357814 g / cm^3
# Si number density = 23.631926 Si / 1000 Ang^3
#
#
#
# Elastic Constant Matrix: (Units=GPa)
#
#
# Indices 1 2 3 4 5 6 
#
# 1 179.0212 5.3726 6.5060 0.0000 0.0000 0.0000
# 2 5.3726 151.0304 2.8188 0.0000 0.0000 0.0000
# 3 6.5060 2.8188 30.2035 0.0000 0.0000 0.0000
# 4 0.0000 0.0000 0.0000 17.6772 0.0000 0.0000
# 5 0.0000 0.0000 0.0000 0.0000 -2.4343 0.0000
# 6 0.0000 0.0000 0.0000 0.0000 0.0000 38.1613
#
#
#
# Elastic Compliance Matrix: (Units=1/GPa)
#
#
# Indices 1 2 3 4 5 6 
#
# 1 0.005635 -0.000178 -0.001197 0.000000 0.000000 0.000000
# 2 -0.000178 0.006638 -0.000581 0.000000 0.000000 0.000000
# 3 -0.001197 -0.000581 0.033421 0.000000 0.000000 0.000000
# 4 0.000000 0.000000 0.000000 0.056570 0.000000 0.000000
# 5 0.000000 0.000000 0.000000 0.000000 -0.410788 0.000000
# 6 0.000000 0.000000 0.000000 0.000000 0.000000 0.026205
#
#
# Mechanical properties :
#
#
# Convention : Reuss Voigt Hill
#
# Bulk Modulus (GPa) = 23.93424 43.29444 33.61434
# Shear Modulus (GPa) = -18.90502 33.71801 7.40649
#
# Velocity S-wave (km/s) = -2.83146 3.78140 1.77226
# Velocity P-wave (km/s) = 0.73459 6.11763 4.29452
#
# Compressibility (1/GPa) = 0.04178115
#
# Stress axis : x y z
#
# Youngs Moduli (GPa) = 177.46916 150.63951 29.92146
#
# Poissons Ratio (x) = 0.02683 0.03582
# Poissons Ratio (y) = 0.03161 0.01739
# Poissons Ratio (z) = 0.21246 0.08755
#
# Static dielectric constant tensor:
#      x y z
#    x 1.946870 0.000000 0.000000 
#    y 0.000000 2.012620 0.000000 
#    z 0.000000 0.000000 1.906870 
# 
# From -- ./inp_files/725.got.cif
#   From: 2010.05.17/outbox.cif.g08.bks.cpg/sg61_1_cif.got.tgz:725.got - 2010.06.03 15:17:17.
