data_PCOD9459215
_publ_section_title
;
Structure prediction by ZEFSAII (Michael W. Deem and Ramdas Pophale) SiO2 
 PCOD9459215
Probable space group: P B C A
;
_chemical_formula_sum "Si O2"
_cell_formula_units_Z 64
_cell_length_a 23.357497
_cell_length_b 20.955642
_cell_length_c 5.824425
_cell_angle_alpha 90.000000
_cell_angle_beta 90.000000
_cell_angle_gamma 90.000000
_cell_volume 2850.889139
_symmetry_space_group_name_H-M "P B C A"
_symmetry_group_IT_number 61
_symmetry_cell_setting 'orthorhombic'
loop_
_space_group_symop_operation_xyz
x,y,z
1/2-x,-y,1/2+z
1/2+x,1/2-y,-z
-x,1/2+y,1/2-z
-x,-y,-z
1/2+x,y,1/2-z
1/2-x,1/2+y,z
x,1/2-y,1/2+z
loop_
_atom_site_type_symbol
_atom_site_label
_atom_site_fract_x
_atom_site_fract_y
_atom_site_fract_z
Si Si1 0.099589 0.628657 0.127725
Si Si2 0.518539 0.565496 0.753409
Si Si3 0.604757 0.266848 0.364019
Si Si4 0.190762 0.453516 0.159795
Si Si5 0.083773 0.096871 0.504361
Si Si6 0.201142 0.579933 0.891219
Si Si7 0.117876 0.979046 0.011502
Si Si8 0.995013 0.669431 0.358635
O O1 0.109315 0.577550 0.328510
O O2 0.056516 0.681417 0.234119
O O3 0.059919 0.594836 0.939099
O O4 0.162890 0.634797 0.014062
O O5 0.458807 0.548383 0.633970
O O6 0.555714 0.510621 0.875124
O O7 0.507843 0.624545 0.925099
O O8 0.631597 0.257215 0.621694
O O9 0.596105 0.341864 0.336467
O O10 0.543044 0.232013 0.398345
O O11 0.146849 0.430188 0.963587
O O12 0.240945 0.408021 0.248883
O O13 0.149217 0.465329 0.376475
O O14 0.214093 0.522550 0.074258
O O15 0.047406 0.126976 0.299634
O O16 0.159408 0.549088 0.703277
#
# Coordination Sequence:
#
# PCOD9459215 Si02
#       8
#     8   8   8   8   8   8   8   8
#     4   8  17  31  55  78 102 144 192 237 282 344
#     4   9  16  33  52  77 109 144 181 224 285 358
#     4  10  19  35  57  84 120 151 183 233 298 374
#     4  11  21  34  51  77 111 153 205 246 291 343
#     4  10  21  32  50  84 114 147 190 238 302 364
#     4  10  19  35  51  73 107 154 206 247 286 335
#     4   9  18  33  52  72 106 149 188 235 282 335
#     4   9  17  33  53  79 115 142 179 231 303 368
#
# _framework density 22.449134999999998
#
# number of rings (size 3 to 8) (size 9 to 14) (size 15 to 20)
#    0.000    2.500    2.500    0.000    0.000    1.500 
#    0.000   21.250    0.000    0.000    0.000   14.000 
#    0.000    0.000    0.000    0.000    0.000    0.000 
#
# Total GULP energy -356682.708438 kJ/mol
# GULP energy per Si atom -5573.167319 kJ/mol
# Density = 2.239804 g / cm^3
# Si number density = 22.449135 Si / 1000 Ang^3
#
#
#
# Elastic Constant Matrix: (Units=GPa)
#
#
# Indices 1 2 3 4 5 6 
#
# 1 106.0796 -0.3687 11.0830 0.0000 0.0000 0.0000
# 2 -0.3687 30.3977 -4.8292 0.0000 0.0000 0.0000
# 3 11.0830 -4.8292 87.4217 0.0000 0.0000 0.0000
# 4 0.0000 0.0000 0.0000 26.6180 0.0000 0.0000
# 5 0.0000 0.0000 0.0000 0.0000 25.0032 0.0000
# 6 0.0000 0.0000 0.0000 0.0000 0.0000 19.1848
#
#
#
# Elastic Compliance Matrix: (Units=1/GPa)
#
#
# Indices 1 2 3 4 5 6 
#
# 1 0.009554 -0.000077 -0.001215 0.000000 0.000000 0.000000
# 2 -0.000077 0.033189 0.001843 0.000000 0.000000 0.000000
# 3 -0.001215 0.001843 0.011695 0.000000 0.000000 0.000000
# 4 0.000000 0.000000 0.000000 0.037569 0.000000 0.000000
# 5 0.000000 0.000000 0.000000 0.000000 0.039995 0.000000
# 6 0.000000 0.000000 0.000000 0.000000 0.000000 0.052125
#
#
# Mechanical properties :
#
#
# Convention : Reuss Voigt Hill
#
# Bulk Modulus (GPa) = 18.00555 26.18546 22.09551
# Shear Modulus (GPa) = 24.80931 28.69546 26.75238
#
# Velocity S-wave (km/s) = 3.32796 3.57913 3.45583
# Velocity P-wave (km/s) = 4.77547 5.36376 5.07814
#
# Compressibility (1/GPa) = 0.05553842
#
# Stress axis : x y z
#
# Youngs Moduli (GPa) = 104.67255 30.13041 85.50873
#
# Poissons Ratio (x) = 0.00233 0.10393
# Poissons Ratio (y) = 0.00808 -0.15761
# Poissons Ratio (z) = 0.12722 -0.05554
#
# Static dielectric constant tensor:
#      x y z
#    x 1.907610 0.000000 0.000000 
#    y 0.000000 1.836860 0.000000 
#    z 0.000000 0.000000 1.957430 
# 
# From -- ./inp_files/1262.got.cif
#   From: 2010.05.17/outbox.cif.g08.bks.cpg/sg61_1_cif.got.tgz:1262.got - 2010.06.03 15:17:17.
