data_PCOD9459445
_publ_section_title
;
Structure prediction by ZEFSAII (Michael W. Deem and Ramdas Pophale) SiO2 
 PCOD9459445
Probable space group: P B C A
;
_chemical_formula_sum "Si O2"
_cell_formula_units_Z 56
_cell_length_a 15.965199
_cell_length_b 18.301962
_cell_length_c 9.609364
_cell_angle_alpha 90.000000
_cell_angle_beta 90.000000
_cell_angle_gamma 90.000000
_cell_volume 2807.802977
_symmetry_space_group_name_H-M "P B C A"
_symmetry_group_IT_number 61
_symmetry_cell_setting 'orthorhombic'
loop_
_space_group_symop_operation_xyz
x,y,z
1/2-x,-y,1/2+z
1/2+x,1/2-y,-z
-x,1/2+y,1/2-z
-x,-y,-z
1/2+x,y,1/2-z
1/2-x,1/2+y,z
x,1/2-y,1/2+z
loop_
_atom_site_type_symbol
_atom_site_label
_atom_site_fract_x
_atom_site_fract_y
_atom_site_fract_z
Si Si1 0.220171 0.119826 0.988395
Si Si2 0.381891 0.442830 0.413713
Si Si3 0.909183 0.321466 0.306015
Si Si4 0.399709 0.658152 0.745496
Si Si5 0.182619 0.729940 0.420686
Si Si6 0.659185 0.317858 0.740721
Si Si7 0.454779 0.599337 0.453957
O O1 0.289396 0.057160 0.976871
O O2 0.157844 0.118785 0.858395
O O3 0.272646 0.195971 0.976215
O O4 0.171112 0.127321 0.131826
O O5 0.380338 0.396010 0.271777
O O6 0.422590 0.521896 0.397334
O O7 0.446130 0.401477 0.518522
O O8 0.879293 0.257297 0.201183
O O9 0.865831 0.308402 0.453704
O O10 0.009363 0.325293 0.310889
O O11 0.355462 0.735004 0.708048
O O12 0.415147 0.612739 0.606098
O O13 0.257171 0.682764 0.353127
O O14 0.580233 0.339599 0.647546
#
# Coordination Sequence:
#
# PCOD9459445 Si02
#       7
#     8   8   8   8   8   8   8
#     4  10  21  37  55  88 123 151 201 257 295 359
#     4   9  22  42  61  81 119 165 207 236 312 374
#     4  10  21  36  62  87 121 164 200 254 304 368
#     4  10  22  36  61  91 120 156 202 255 305 362
#     4  10  20  36  56  88 124 158 201 250 312 356
#     4  11  22  34  57  93 120 153 201 257 307 352
#     4  10  22  41  64  83 117 167 203 245 308 377
#
# _framework density 19.944420000000001
#
# number of rings (size 3 to 8) (size 9 to 14) (size 15 to 20)
#    0.000    2.000    1.429    1.714   12.000    1.143 
#    0.000    0.000    0.000    2.571    0.000    0.000 
#    0.000    0.000    0.000    0.000    0.000    0.000 
#
# Total GULP energy -312756.823002 kJ/mol
# GULP energy per Si atom -5584.943268 kJ/mol
# Density = 1.989903 g / cm^3
# Si number density = 19.944420 Si / 1000 Ang^3
#
#
#
# Elastic Constant Matrix: (Units=GPa)
#
#
# Indices 1 2 3 4 5 6 
#
# 1 81.0452 6.7719 28.4304 0.0000 0.0000 0.0000
# 2 6.7719 31.2418 16.4215 0.0000 0.0000 0.0000
# 3 28.4304 16.4215 73.1702 0.0000 0.0000 0.0000
# 4 0.0000 0.0000 0.0000 12.7906 0.0000 0.0000
# 5 0.0000 0.0000 0.0000 0.0000 24.0657 0.0000
# 6 0.0000 0.0000 0.0000 0.0000 0.0000 15.2562
#
#
#
# Elastic Compliance Matrix: (Units=1/GPa)
#
#
# Indices 1 2 3 4 5 6 
#
# 1 0.014287 -0.000203 -0.005506 0.000000 0.000000 0.000000
# 2 -0.000203 0.036292 -0.008066 0.000000 0.000000 0.000000
# 3 -0.005506 -0.008066 0.017616 0.000000 0.000000 0.000000
# 4 0.000000 0.000000 0.000000 0.078182 0.000000 0.000000
# 5 0.000000 0.000000 0.000000 0.000000 0.041553 0.000000
# 6 0.000000 0.000000 0.000000 0.000000 0.000000 0.065547
#
#
# Mechanical properties :
#
#
# Convention : Reuss Voigt Hill
#
# Bulk Modulus (GPa) = 24.60265 32.07829 28.34047
# Shear Modulus (GPa) = 16.97355 19.34474 18.15914
#
# Velocity S-wave (km/s) = 2.92043 3.11775 3.02070
# Velocity P-wave (km/s) = 4.87178 5.39252 5.13875
#
# Compressibility (1/GPa) = 0.04064602
#
# Stress axis : x y z
#
# Youngs Moduli (GPa) = 69.99301 27.55414 56.76556
#
# Poissons Ratio (x) = 0.00559 0.31254
# Poissons Ratio (y) = 0.01420 0.45788
# Poissons Ratio (z) = 0.38536 0.22226
#
# Static dielectric constant tensor:
#      x y z
#    x 1.715760 0.000000 0.000000 
#    y 0.000000 1.709360 0.000000 
#    z 0.000000 0.000000 1.692870 
# 
# From -- ./inp_files/3062.got.cif
#   From: 2010.05.17/outbox.cif.g08.bks.cpg/sg61_2_cif.got.tgz:3062.got - 2010.06.03 15:17:17.
