data_PCOD9459898
_publ_section_title
;
Structure prediction by ZEFSAII (Michael W. Deem and Ramdas Pophale) SiO2 
 PCOD9459898
Probable space group: P B C A
;
_chemical_formula_sum "Si O2"
_cell_formula_units_Z 64
_cell_length_a 12.818947
_cell_length_b 13.730227
_cell_length_c 15.996459
_cell_angle_alpha 90.000000
_cell_angle_beta 90.000000
_cell_angle_gamma 90.000000
_cell_volume 2815.489594
_symmetry_space_group_name_H-M "P B C A"
_symmetry_group_IT_number 61
_symmetry_cell_setting 'orthorhombic'
loop_
_space_group_symop_operation_xyz
x,y,z
1/2-x,-y,1/2+z
1/2+x,1/2-y,-z
-x,1/2+y,1/2-z
-x,-y,-z
1/2+x,y,1/2-z
1/2-x,1/2+y,z
x,1/2-y,1/2+z
loop_
_atom_site_type_symbol
_atom_site_label
_atom_site_fract_x
_atom_site_fract_y
_atom_site_fract_z
Si Si1 0.628373 0.504021 0.420401
Si Si2 0.782317 0.978371 0.770601
Si Si3 0.098416 0.303968 0.378010
Si Si4 0.990379 0.834789 0.511607
Si Si5 0.132832 0.686062 0.688835
Si Si6 0.574746 0.714794 0.636058
Si Si7 0.656016 0.237824 0.302774
Si Si8 0.260758 0.457013 0.409941
O O1 0.682711 0.501123 0.330488
O O2 0.561102 0.603198 0.425326
O O3 0.551528 0.416860 0.446926
O O4 0.709438 0.505816 0.498194
O O5 0.853873 0.072786 0.786857
O O6 0.757742 0.973700 0.671457
O O7 0.835514 0.878421 0.798987
O O8 0.105715 0.215834 0.443023
O O9 0.154938 0.280300 0.291240
O O10 0.151968 0.399746 0.413020
O O11 0.975156 0.307491 0.359593
O O12 0.058062 0.754448 0.460765
O O13 0.123097 0.748604 0.775500
O O14 0.241568 0.721905 0.650090
O O15 0.453116 0.725304 0.662270
O O16 0.648221 0.620966 0.614814
#
# Coordination Sequence:
#
# PCOD9459898 Si02
#       8
#     8   8   8   8   8   8   8   8
#     4  10  22  40  64  98 125 171 231 266 325 397
#     4  11  22  41  66  96 133 171 215 278 327 394
#     4  11  22  41  63  92 132 172 212 272 329 395
#     4  10  21  38  64  91 126 171 220 272 320 391
#     4  10  22  42  60  98 128 169 216 270 325 387
#     4   9  20  39  64  88 124 166 215 267 322 384
#     4  11  21  39  66  94 124 174 227 252 334 397
#     4  10  22  44  62  96 141 169 214 286 331 385
#
# _framework density 22.731393000000001
#
# number of rings (size 3 to 8) (size 9 to 14) (size 15 to 20)
#    0.000    1.750    2.500    2.250    3.500    1.000 
#    9.000    0.625    0.000    0.000    0.000    0.000 
#    0.000    0.000    0.000    0.000    0.000    0.000 
#
# Total GULP energy -356274.188543 kJ/mol
# GULP energy per Si atom -5566.784196 kJ/mol
# Density = 2.267966 g / cm^3
# Si number density = 22.731393 Si / 1000 Ang^3
#
#
#
# Elastic Constant Matrix: (Units=GPa)
#
#
# Indices 1 2 3 4 5 6 
#
# 1 101.0432 -9.1629 5.0871 0.0000 0.0000 0.0000
# 2 -9.1629 38.6802 -1.2537 0.0000 0.0000 0.0000
# 3 5.0871 -1.2537 54.0910 0.0000 0.0000 0.0000
# 4 0.0000 0.0000 0.0000 26.4519 0.0000 0.0000
# 5 0.0000 0.0000 0.0000 0.0000 23.0478 0.0000
# 6 0.0000 0.0000 0.0000 0.0000 0.0000 2.7481
#
#
#
# Elastic Compliance Matrix: (Units=1/GPa)
#
#
# Indices 1 2 3 4 5 6 
#
# 1 0.010158 0.002377 -0.000900 0.000000 0.000000 0.000000
# 2 0.002377 0.026429 0.000389 0.000000 0.000000 0.000000
# 3 -0.000900 0.000389 0.018581 0.000000 0.000000 0.000000
# 4 0.000000 0.000000 0.000000 0.037804 0.000000 0.000000
# 5 0.000000 0.000000 0.000000 0.000000 0.043388 0.000000
# 6 0.000000 0.000000 0.000000 0.000000 0.000000 0.363887
#
#
# Mechanical properties :
#
#
# Convention : Reuss Voigt Hill
#
# Bulk Modulus (GPa) = 16.97819 20.35059 18.66439
# Shear Modulus (GPa) = 9.68713 23.72581 16.70647
#
# Velocity S-wave (km/s) = 2.06660 3.23421 2.71394
# Velocity P-wave (km/s) = 3.63038 4.78737 4.24845
#
# Compressibility (1/GPa) = 0.05889910
#
# Stress axis : x y z
#
# Youngs Moduli (GPa) = 98.44807 37.83764 53.81830
#
# Poissons Ratio (x) = -0.08994 0.04845
# Poissons Ratio (y) = -0.23402 -0.02093
# Poissons Ratio (z) = 0.08862 -0.01472
#
# Static dielectric constant tensor:
#      x y z
#    x 1.850010 0.000000 0.000000 
#    y 0.000000 1.904200 0.000000 
#    z 0.000000 0.000000 1.926220 
# 
# From -- ./inp_files/9302.got.cif
#   From: 2010.05.17/outbox.cif.g08.bks.cpg/sg61_5_cif.got.tgz:9302.got - 2010.06.03 15:17:17.
