data_PCOD9459608
_publ_section_title
;
Structure prediction by ZEFSAII (Michael W. Deem and Ramdas Pophale) SiO2 
 PCOD9459608
Probable space group: P B C A
;
_chemical_formula_sum "Si O2"
_cell_formula_units_Z 56
_cell_length_a 8.659486
_cell_length_b 16.415106
_cell_length_c 16.180318
_cell_angle_alpha 90.000000
_cell_angle_beta 90.000000
_cell_angle_gamma 90.000000
_cell_volume 2299.973641
_symmetry_space_group_name_H-M "P B C A"
_symmetry_group_IT_number 61
_symmetry_cell_setting 'orthorhombic'
loop_
_space_group_symop_operation_xyz
x,y,z
1/2-x,-y,1/2+z
1/2+x,1/2-y,-z
-x,1/2+y,1/2-z
-x,-y,-z
1/2+x,y,1/2-z
1/2-x,1/2+y,z
x,1/2-y,1/2+z
loop_
_atom_site_type_symbol
_atom_site_label
_atom_site_fract_x
_atom_site_fract_y
_atom_site_fract_z
Si Si1 0.733192 0.648514 0.356701
Si Si2 0.764905 0.283268 0.681263
Si Si3 0.994567 0.245527 0.947968
Si Si4 0.491604 0.508727 0.309838
Si Si5 0.634593 0.955715 0.644502
Si Si6 0.063411 0.647050 0.899051
Si Si7 0.375082 0.919801 0.489928
O O1 0.790254 0.688365 0.271576
O O2 0.664349 0.722196 0.410187
O O3 0.592856 0.586271 0.336908
O O4 0.844453 0.594332 0.413263
O O5 0.626362 0.269820 0.617465
O O6 0.866417 0.358615 0.649275
O O7 0.867796 0.202086 0.675163
O O8 0.006152 0.149456 0.960585
O O9 0.016158 0.294117 0.034043
O O10 0.311493 0.524577 0.326708
O O11 0.528189 0.501209 0.213025
O O12 0.532056 0.427777 0.361631
O O13 0.607944 0.993459 0.554591
O O14 0.209850 0.609651 0.948684
#
# Coordination Sequence:
#
# PCOD9459608 Si02
#       7
#     8   8   8   8   8   8   8
#     4  10  21  37  65  90 126 169 219 263 332 388
#     4  10  21  38  62  94 122 169 211 269 325 386
#     4  10  20  39  59  87 126 164 214 265 320 386
#     4  10  21  40  63  98 122 172 217 264 325 390
#     4  10  21  40  64  90 134 164 219 266 328 388
#     4   9  21  38  62  90 122 166 215 263 322 385
#     4   9  21  38  59  92 124 164 215 267 317 389
#
# _framework density 24.348105
#
# number of rings (size 3 to 8) (size 9 to 14) (size 15 to 20)
#    0.000    2.286    1.429    0.000    4.000    2.857 
#    7.714    2.143    0.000    0.000    0.000    0.000 
#    0.000    0.000    0.000    0.000    0.000    0.000 
#
# Total GULP energy -313369.618841 kJ/mol
# GULP energy per Si atom -5595.886051 kJ/mol
# Density = 2.429269 g / cm^3
# Si number density = 24.348105 Si / 1000 Ang^3
#
#
#
# Elastic Constant Matrix: (Units=GPa)
#
#
# Indices 1 2 3 4 5 6 
#
# 1 52.6874 -3.7586 20.1252 0.0000 0.0000 0.0000
# 2 -3.7586 83.3654 26.2903 0.0000 0.0000 0.0000
# 3 20.1252 26.2903 128.1832 0.0000 0.0000 0.0000
# 4 0.0000 0.0000 0.0000 38.6648 0.0000 0.0000
# 5 0.0000 0.0000 0.0000 0.0000 42.0162 0.0000
# 6 0.0000 0.0000 0.0000 0.0000 0.0000 27.9244
#
#
#
# Elastic Compliance Matrix: (Units=1/GPa)
#
#
# Indices 1 2 3 4 5 6 
#
# 1 0.020521 0.002076 -0.003648 0.000000 0.000000 0.000000
# 2 0.002076 0.013035 -0.002999 0.000000 0.000000 0.000000
# 3 -0.003648 -0.002999 0.008989 0.000000 0.000000 0.000000
# 4 0.000000 0.000000 0.000000 0.025863 0.000000 0.000000
# 5 0.000000 0.000000 0.000000 0.000000 0.023800 0.000000
# 6 0.000000 0.000000 0.000000 0.000000 0.000000 0.035811
#
#
# Mechanical properties :
#
#
# Convention : Reuss Voigt Hill
#
# Bulk Modulus (GPa) = 29.93789 38.83887 34.38838
# Shear Modulus (GPa) = 33.71620 36.49303 35.10462
#
# Velocity S-wave (km/s) = 3.72527 3.87564 3.80120
# Velocity P-wave (km/s) = 5.55211 6.00113 5.78098
#
# Compressibility (1/GPa) = 0.03340249
#
# Stress axis : x y z
#
# Youngs Moduli (GPa) = 48.73005 76.71758 111.24494
#
# Poissons Ratio (x) = -0.15923 0.40578
# Poissons Ratio (y) = -0.10114 0.33366
# Poissons Ratio (z) = 0.17775 0.23010
#
# Static dielectric constant tensor:
#      x y z
#    x 2.003910 0.000000 0.000000 
#    y 0.000000 1.933840 0.000000 
#    z 0.000000 0.000000 1.961880 
# 
# From -- ./inp_files/7530.got.cif
#   From: 2010.05.17/outbox.cif.g08.bks.cpg/sg61_4_cif.got.tgz:7530.got - 2010.06.03 15:17:17.
