data_PCOD9459023
_publ_section_title
;
Structure prediction by ZEFSAII (Michael W. Deem and Ramdas Pophale) SiO2 
 PCOD9459023
Probable space group: P B C A
;
_chemical_formula_sum "Si O2"
_cell_formula_units_Z 56
_cell_length_a 23.746849
_cell_length_b 5.477081
_cell_length_c 17.899781
_cell_angle_alpha 90.000000
_cell_angle_beta 90.000000
_cell_angle_gamma 90.000000
_cell_volume 2328.106653
_symmetry_space_group_name_H-M "P B C A"
_symmetry_group_IT_number 61
_symmetry_cell_setting 'orthorhombic'
loop_
_space_group_symop_operation_xyz
x,y,z
1/2-x,-y,1/2+z
1/2+x,1/2-y,-z
-x,1/2+y,1/2-z
-x,-y,-z
1/2+x,y,1/2-z
1/2-x,1/2+y,z
x,1/2-y,1/2+z
loop_
_atom_site_type_symbol
_atom_site_label
_atom_site_fract_x
_atom_site_fract_y
_atom_site_fract_z
Si Si1 0.719425 0.257224 0.336645
Si Si2 0.048978 0.733933 0.917859
Si Si3 0.714390 0.130565 0.182485
Si Si4 0.084066 0.287749 0.583410
Si Si5 0.884247 0.210977 0.429089
Si Si6 0.103825 0.235300 0.905508
Si Si7 0.739325 0.788349 0.998487
O O1 0.732132 0.544569 0.326795
O O2 0.684959 0.175510 0.264403
O O3 0.718006 0.228440 0.427197
O O4 0.064457 0.467709 0.886026
O O5 0.983024 0.784661 0.913519
O O6 0.082005 0.965990 0.883426
O O7 0.068119 0.719332 0.005509
O O8 0.761452 0.351292 0.180761
O O9 0.664617 0.194411 0.125006
O O10 0.108508 0.538351 0.614888
O O11 0.102765 0.278077 0.496136
O O12 0.107738 0.036729 0.616549
O O13 0.824484 0.209224 0.470216
O O14 0.746224 0.535115 0.039707
#
# Coordination Sequence:
#
# PCOD9459023 Si02
#       7
#     8   8   8   8   8   8   8
#     4   8  16  30  48  64  90 120 150 194 234 268
#     4  10  19  33  48  67  98 127 161 203 236 273
#     4  10  19  32  47  69  99 125 159 196 233 282
#     4  10  19  33  48  67  98 127 161 203 236 273
#     4  10  18  30  48  69  93 130 165 188 234 285
#     4  10  18  30  48  69  93 130 165 188 234 285
#     4  10  19  32  47  69  99 125 159 196 233 282
#
# _framework density 24.053879999999999
#
# number of rings (size 3 to 8) (size 9 to 14) (size 15 to 20)
#    0.000    2.286    0.000    6.000    0.000    0.000 
#    0.000   17.143    0.000    0.000    0.000    0.000 
#    0.000  349.714    0.000    0.000    0.000    0.000 
#
# Total GULP energy -312354.835091 kJ/mol
# GULP energy per Si atom -5577.764912 kJ/mol
# Density = 2.399913 g / cm^3
# Si number density = 24.053880 Si / 1000 Ang^3
#
#
#
# Elastic Constant Matrix: (Units=GPa)
#
#
# Indices 1 2 3 4 5 6 
#
# 1 106.0139 40.3443 5.1496 0.0000 0.0000 0.0000
# 2 40.3443 242.0468 2.8087 0.0000 0.0000 0.0000
# 3 5.1496 2.8087 24.8790 0.0000 0.0000 0.0000
# 4 0.0000 0.0000 0.0000 21.4300 0.0000 0.0000
# 5 0.0000 0.0000 0.0000 0.0000 16.7199 0.0000
# 6 0.0000 0.0000 0.0000 0.0000 0.0000 40.8642
#
#
#
# Elastic Compliance Matrix: (Units=1/GPa)
#
#
# Indices 1 2 3 4 5 6 
#
# 1 0.010162 -0.001672 -0.001915 0.000000 0.000000 0.000000
# 2 -0.001672 0.004412 -0.000152 0.000000 0.000000 0.000000
# 3 -0.001915 -0.000152 0.040608 0.000000 0.000000 0.000000
# 4 0.000000 0.000000 0.000000 0.046663 0.000000 0.000000
# 5 0.000000 0.000000 0.000000 0.000000 0.059809 0.000000
# 6 0.000000 0.000000 0.000000 0.000000 0.000000 0.024471
#
#
# Mechanical properties :
#
#
# Convention : Reuss Voigt Hill
#
# Bulk Modulus (GPa) = 20.96212 52.17167 36.56689
# Shear Modulus (GPa) = 23.86594 37.44531 30.65562
#
# Velocity S-wave (km/s) = 3.15332 3.94982 3.57383
# Velocity P-wave (km/s) = 4.68950 6.52212 5.68020
#
# Compressibility (1/GPa) = 0.04770510
#
# Stress axis : x y z
#
# Youngs Moduli (GPa) = 98.40726 226.66423 24.62567
#
# Poissons Ratio (x) = 0.37888 0.04715
# Poissons Ratio (y) = 0.16449 0.00374
# Poissons Ratio (z) = 0.18842 0.03447
#
# Static dielectric constant tensor:
#      x y z
#    x 2.008150 0.000000 0.000000 
#    y 0.000000 2.066110 0.000000 
#    z 0.000000 0.000000 2.013770 
# 
# From -- ./inp_files/1045.got.cif
#   From: 2010.05.17/outbox.cif.g08.bks.cpg/sg61_1_cif.got.tgz:1045.got - 2010.06.03 15:17:17.
