data_PCOD9459319
_publ_section_title
;
Structure prediction by ZEFSAII (Michael W. Deem and Ramdas Pophale) SiO2 
 PCOD9459319
Probable space group: P B C A
;
_chemical_formula_sum "Si O2"
_cell_formula_units_Z 56
_cell_length_a 18.828017
_cell_length_b 7.645812
_cell_length_c 16.117325
_cell_angle_alpha 90.000000
_cell_angle_beta 90.000000
_cell_angle_gamma 90.000000
_cell_volume 2320.177230
_symmetry_space_group_name_H-M "P B C A"
_symmetry_group_IT_number 61
_symmetry_cell_setting 'orthorhombic'
loop_
_space_group_symop_operation_xyz
x,y,z
1/2-x,-y,1/2+z
1/2+x,1/2-y,-z
-x,1/2+y,1/2-z
-x,-y,-z
1/2+x,y,1/2-z
1/2-x,1/2+y,z
x,1/2-y,1/2+z
loop_
_atom_site_type_symbol
_atom_site_label
_atom_site_fract_x
_atom_site_fract_y
_atom_site_fract_z
Si Si1 0.957237 0.341668 0.588962
Si Si2 0.936777 0.966102 0.654697
Si Si3 0.587616 0.347351 0.471508
Si Si4 0.359724 0.620758 0.832816
Si Si5 0.278138 0.633933 0.991808
Si Si6 0.645780 0.682824 0.937708
Si Si7 0.591353 0.907578 0.813736
O O1 0.928442 0.526304 0.623023
O O2 0.920051 0.326690 0.499786
O O3 0.039460 0.304869 0.570170
O O4 0.930350 0.178263 0.647842
O O5 0.946212 0.915089 0.557171
O O6 0.876557 0.825888 0.681425
O O7 0.007501 0.916603 0.706969
O O8 0.592095 0.489289 0.400501
O O9 0.666278 0.290678 0.496028
O O10 0.358652 0.511531 0.748732
O O11 0.294508 0.584999 0.895760
O O12 0.199957 0.683901 0.016757
O O13 0.308893 0.491963 0.054333
O O14 0.621950 0.723930 0.844471
#
# Coordination Sequence:
#
# PCOD9459319 Si02
#       7
#     8   8   8   8   8   8   8
#     4  10  20  39  63  89 123 167 214 252 316 387
#     4  10  20  37  63  90 125 172 196 268 319 375
#     4  10  19  39  63  92 119 166 214 261 314 374
#     4  10  25  38  59  97 132 157 209 263 325 375
#     4  10  24  40  65  89 121 171 212 267 310 385
#     4  11  21  40  66  87 120 171 220 257 307 381
#     4  11  21  38  62  94 129 160 212 266 312 378
#
# _framework density 24.136088000000001
#
# number of rings (size 3 to 8) (size 9 to 14) (size 15 to 20)
#    0.000    1.714    2.857    1.714    8.000    1.714 
#    2.571    5.714    0.000    0.000    0.000    0.000 
#    0.000    0.000    0.000    0.000    0.000    0.000 
#
# Total GULP energy -312646.965413 kJ/mol
# GULP energy per Si atom -5582.981525 kJ/mol
# Density = 2.408115 g / cm^3
# Si number density = 24.136088 Si / 1000 Ang^3
#
#
#
# Elastic Constant Matrix: (Units=GPa)
#
#
# Indices 1 2 3 4 5 6 
#
# 1 55.7776 -13.2430 -7.0284 0.0000 0.0000 0.0000
# 2 -13.2430 76.8451 -16.0217 0.0000 0.0000 0.0000
# 3 -7.0284 -16.0217 43.8751 0.0000 0.0000 0.0000
# 4 0.0000 0.0000 0.0000 20.9118 0.0000 0.0000
# 5 0.0000 0.0000 0.0000 0.0000 13.6285 0.0000
# 6 0.0000 0.0000 0.0000 0.0000 0.0000 25.3293
#
#
#
# Elastic Compliance Matrix: (Units=1/GPa)
#
#
# Indices 1 2 3 4 5 6 
#
# 1 0.019558 0.004355 0.004723 0.000000 0.000000 0.000000
# 2 0.004355 0.015055 0.006195 0.000000 0.000000 0.000000
# 3 0.004723 0.006195 0.025811 0.000000 0.000000 0.000000
# 4 0.000000 0.000000 0.000000 0.047820 0.000000 0.000000
# 5 0.000000 0.000000 0.000000 0.000000 0.073376 0.000000
# 6 0.000000 0.000000 0.000000 0.000000 0.000000 0.039480
#
#
# Mechanical properties :
#
#
# Convention : Reuss Voigt Hill
#
# Bulk Modulus (GPa) = 10.99241 11.54573 11.26907
# Shear Modulus (GPa) = 22.63718 26.15999 24.39858
#
# Velocity S-wave (km/s) = 3.06583 3.29576 3.18288
# Velocity P-wave (km/s) = 4.13481 4.39053 4.26459
#
# Compressibility (1/GPa) = 0.09097187
#
# Stress axis : x y z
#
# Youngs Moduli (GPa) = 51.13115 66.42120 38.74319
#
# Poissons Ratio (x) = -0.28928 -0.18300
# Poissons Ratio (y) = -0.22269 -0.24003
# Poissons Ratio (z) = -0.24151 -0.41151
#
# Static dielectric constant tensor:
#      x y z
#    x 1.930760 0.000000 0.000000 
#    y 0.000000 2.109990 0.000000 
#    z 0.000000 0.000000 1.934910 
# 
# From -- ./inp_files/8366.got.cif
#   From: 2010.05.17/outbox.cif.g08.bks.cpg/sg61_5_cif.got.tgz:8366.got - 2010.06.03 15:17:17.
