data_PCOD9459632
_publ_section_title
;
Structure prediction by ZEFSAII (Michael W. Deem and Ramdas Pophale) SiO2 
 PCOD9459632
Probable space group: P B C A
;
_chemical_formula_sum "Si O2"
_cell_formula_units_Z 56
_cell_length_a 5.076961
_cell_length_b 15.853167
_cell_length_c 28.689573
_cell_angle_alpha 90.000000
_cell_angle_beta 90.000000
_cell_angle_gamma 90.000000
_cell_volume 2309.106407
_symmetry_space_group_name_H-M "P B C A"
_symmetry_group_IT_number 61
_symmetry_cell_setting 'orthorhombic'
loop_
_space_group_symop_operation_xyz
x,y,z
1/2-x,-y,1/2+z
1/2+x,1/2-y,-z
-x,1/2+y,1/2-z
-x,-y,-z
1/2+x,y,1/2-z
1/2-x,1/2+y,z
x,1/2-y,1/2+z
loop_
_atom_site_type_symbol
_atom_site_label
_atom_site_fract_x
_atom_site_fract_y
_atom_site_fract_z
Si Si1 0.302487 0.778830 0.129853
Si Si2 0.701283 0.114089 0.632445
Si Si3 0.549838 0.397371 0.496820
Si Si4 0.028743 0.522588 0.722183
Si Si5 0.431227 0.654408 0.048677
Si Si6 0.063989 0.975839 0.054305
Si Si7 0.544109 0.180627 0.278083
O O1 0.504056 0.855417 0.139253
O O2 0.388339 0.730225 0.083100
O O3 0.357220 0.717376 0.173433
O O4 0.999375 0.807149 0.128086
O O5 0.582067 0.060498 0.674722
O O6 0.668999 0.059161 0.585410
O O7 0.500000 0.500000 0.500000
O O8 0.766038 0.359098 0.532984
O O9 0.722000 0.402002 0.449855
O O10 0.819876 0.548654 0.762135
O O11 0.035454 0.421018 0.718934
O O12 0.349804 0.566070 0.074036
O O13 0.718026 0.846013 0.994045
O O14 0.000000 0.000000 0.000000
O O15 0.254198 0.207360 0.261539
#
# Coordination Sequence:
#
# PCOD9459632 Si02
#       7
#     8   8   8   8   8   8   8
#     4  12  26  41  61  98 137 172 212 264 335 399
#     4  12  26  41  64  97 135 171 214 270 329 390
#     4   9  18  35  63  90 110 151 211 266 312 359
#     4  10  22  43  69  98 128 169 223 271 317 384
#     4  10  20  39  64  87 120 163 208 260 313 380
#     4   9  21  43  68  90 120 168 224 271 318 378
#     4  10  22  42  68  94 127 172 218 262 321 394
#
# _framework density 24.251805000000001
#
# number of rings (size 3 to 8) (size 9 to 14) (size 15 to 20)
#    0.000    1.714    0.000    4.714    0.000   10.286 
#    0.000   20.000    0.000    0.000    0.000    0.000 
#    0.000    0.000    0.000    0.000    0.000    0.000 
#
# Total GULP energy -312698.031388 kJ/mol
# GULP energy per Si atom -5583.893418 kJ/mol
# Density = 2.419661 g / cm^3
# Si number density = 24.251805 Si / 1000 Ang^3
#
#
#
# Elastic Constant Matrix: (Units=GPa)
#
#
# Indices 1 2 3 4 5 6 
#
# 1 112.0414 6.6180 26.4353 0.0000 0.0000 0.0000
# 2 6.6180 62.4879 43.3607 0.0000 0.0000 0.0000
# 3 26.4353 43.3607 65.0648 0.0000 0.0000 0.0000
# 4 0.0000 0.0000 0.0000 62.4361 0.0000 0.0000
# 5 0.0000 0.0000 0.0000 0.0000 37.7537 0.0000
# 6 0.0000 0.0000 0.0000 0.0000 0.0000 29.3082
#
#
#
# Elastic Compliance Matrix: (Units=1/GPa)
#
#
# Indices 1 2 3 4 5 6 
#
# 1 0.010235 0.003352 -0.006392 0.000000 0.000000 0.000000
# 2 0.003352 0.030867 -0.021932 0.000000 0.000000 0.000000
# 3 -0.006392 -0.021932 0.032583 0.000000 0.000000 0.000000
# 4 0.000000 0.000000 0.000000 0.016016 0.000000 0.000000
# 5 0.000000 0.000000 0.000000 0.000000 0.026487 0.000000
# 6 0.000000 0.000000 0.000000 0.000000 0.000000 0.034120
#
#
# Mechanical properties :
#
#
# Convention : Reuss Voigt Hill
#
# Bulk Modulus (GPa) = 42.12409 43.60245 42.86327
# Shear Modulus (GPa) = 24.01908 36.77827 30.39868
#
# Velocity S-wave (km/s) = 3.15048 3.89847 3.54427
# Velocity P-wave (km/s) = 5.53545 6.18726 5.87041
#
# Compressibility (1/GPa) = 0.02373938
#
# Stress axis : x y z
#
# Youngs Moduli (GPa) = 97.69935 32.39699 30.69130
#
# Poissons Ratio (x) = -0.10858 0.19618
# Poissons Ratio (y) = -0.32744 0.67313
# Poissons Ratio (z) = 0.62451 0.71054
#
# Static dielectric constant tensor:
#      x y z
#    x 2.064000 0.000000 0.000000 
#    y 0.000000 1.998820 0.000000 
#    z 0.000000 0.000000 1.940580 
# 
# From -- ./inp_files/8655.got.cif
#   From: 2010.05.17/outbox.cif.g08.bks.cpg/sg61_5_cif.got.tgz:8655.got - 2010.06.03 15:17:17.
