data_PCOD9459903
_publ_section_title
;
Structure prediction by ZEFSAII (Michael W. Deem and Ramdas Pophale) SiO2 
 PCOD9459903
Probable space group: P B C A
;
_chemical_formula_sum "Si O2"
_cell_formula_units_Z 48
_cell_length_a 7.869355
_cell_length_b 18.286164
_cell_length_c 13.396114
_cell_angle_alpha 90.000000
_cell_angle_beta 90.000000
_cell_angle_gamma 90.000000
_cell_volume 1927.705039
_symmetry_space_group_name_H-M "P B C A"
_symmetry_group_IT_number 61
_symmetry_cell_setting 'orthorhombic'
loop_
_space_group_symop_operation_xyz
x,y,z
1/2-x,-y,1/2+z
1/2+x,1/2-y,-z
-x,1/2+y,1/2-z
-x,-y,-z
1/2+x,y,1/2-z
1/2-x,1/2+y,z
x,1/2-y,1/2+z
loop_
_atom_site_type_symbol
_atom_site_label
_atom_site_fract_x
_atom_site_fract_y
_atom_site_fract_z
Si Si1 0.052639 0.106500 0.222213
Si Si2 0.919578 0.173190 0.963999
Si Si3 0.566517 0.688919 0.594486
Si Si4 0.779832 0.576664 0.088443
Si Si5 0.908111 0.723519 0.720264
Si Si6 0.772611 0.574376 0.477912
O O1 0.069972 0.070976 0.331447
O O2 0.079723 0.192637 0.244326
O O3 0.877172 0.090343 0.165454
O O4 0.188518 0.079825 0.139302
O O5 0.935886 0.206196 0.854760
O O6 0.053481 0.106617 0.972318
O O7 0.982662 0.237960 0.035705
O O8 0.744519 0.143829 0.011080
O O9 0.739703 0.709177 0.656405
O O10 0.434870 0.673086 0.682861
O O11 0.624018 0.627083 0.517594
O O12 0.762010 0.504661 0.022782
#
# Coordination Sequence:
#
# PCOD9459903 Si02
#       6
#     8   8   8   8   8   8
#     4  11  21  43  70  92 134 186 226 271 354 414
#     4  10  21  38  65  94 131 173 225 271 331 399
#     4  11  23  38  65 101 129 172 226 280 330 401
#     4  11  23  43  68  99 136 182 224 281 350 410
#     4  11  22  39  66 100 129 173 228 277 333 401
#     4  10  24  41  67 100 135 179 225 283 342 409
#
# _framework density 24.900075999999999
#
# number of rings (size 3 to 8) (size 9 to 14) (size 15 to 20)
#    0.000    1.333    5.000    2.000    4.667    4.000 
#    0.000    0.833    0.000    0.000    0.000    0.000 
#    0.000    0.000    0.000    0.000    0.000    0.000 
#
# Total GULP energy -268657.272221 kJ/mol
# GULP energy per Si atom -5597.026505 kJ/mol
# Density = 2.484340 g / cm^3
# Si number density = 24.900076 Si / 1000 Ang^3
#
#
#
# Elastic Constant Matrix: (Units=GPa)
#
#
# Indices 1 2 3 4 5 6 
#
# 1 89.4822 -7.1023 13.3139 0.0000 0.0000 0.0000
# 2 -7.1023 96.0321 41.1507 0.0000 0.0000 0.0000
# 3 13.3139 41.1507 181.2613 0.0000 0.0000 0.0000
# 4 0.0000 0.0000 0.0000 49.1217 0.0000 0.0000
# 5 0.0000 0.0000 0.0000 0.0000 43.9960 0.0000
# 6 0.0000 0.0000 0.0000 0.0000 0.0000 23.1526
#
#
#
# Elastic Compliance Matrix: (Units=1/GPa)
#
#
# Indices 1 2 3 4 5 6 
#
# 1 0.011452 0.001338 -0.001145 0.000000 0.000000 0.000000
# 2 0.001338 0.011692 -0.002753 0.000000 0.000000 0.000000
# 3 -0.001145 -0.002753 0.006226 0.000000 0.000000 0.000000
# 4 0.000000 0.000000 0.000000 0.020358 0.000000 0.000000
# 5 0.000000 0.000000 0.000000 0.000000 0.022729 0.000000
# 6 0.000000 0.000000 0.000000 0.000000 0.000000 0.043192
#
#
# Mechanical properties :
#
#
# Convention : Reuss Voigt Hill
#
# Bulk Modulus (GPa) = 41.23753 51.27779 46.25766
# Shear Modulus (GPa) = 38.80457 44.54829 41.67643
#
# Velocity S-wave (km/s) = 3.95195 4.23434 4.09558
# Velocity P-wave (km/s) = 6.11728 6.67416 6.40177
#
# Compressibility (1/GPa) = 0.02424975
#
# Stress axis : x y z
#
# Youngs Moduli (GPa) = 87.32175 85.53161 160.62009
#
# Poissons Ratio (x) = -0.11440 0.18388
# Poissons Ratio (y) = -0.11679 0.44211
# Poissons Ratio (z) = 0.09997 0.23543
#
# Static dielectric constant tensor:
#      x y z
#    x 2.173330 0.000000 0.000000 
#    y 0.000000 1.897160 0.000000 
#    z 0.000000 0.000000 1.966540 
# 
# From -- ./inp_files/5228.got.cif
#   From: 2010.05.17/outbox.cif.g08.bks.cpg/sg61_3_cif.got.tgz:5228.got - 2010.06.03 15:17:17.
