data_PCOD9459343
_publ_section_title
;
Structure prediction by ZEFSAII (Michael W. Deem and Ramdas Pophale) SiO2 
 PCOD9459343
Probable space group: P B C A
;
_chemical_formula_sum "Si O2"
_cell_formula_units_Z 64
_cell_length_a 22.914667
_cell_length_b 8.736193
_cell_length_c 14.259329
_cell_angle_alpha 90.000000
_cell_angle_beta 90.000000
_cell_angle_gamma 90.000000
_cell_volume 2854.531631
_symmetry_space_group_name_H-M "P B C A"
_symmetry_group_IT_number 61
_symmetry_cell_setting 'orthorhombic'
loop_
_space_group_symop_operation_xyz
x,y,z
1/2-x,-y,1/2+z
1/2+x,1/2-y,-z
-x,1/2+y,1/2-z
-x,-y,-z
1/2+x,y,1/2-z
1/2-x,1/2+y,z
x,1/2-y,1/2+z
loop_
_atom_site_type_symbol
_atom_site_label
_atom_site_fract_x
_atom_site_fract_y
_atom_site_fract_z
Si Si1 0.540133 0.163390 0.573130
Si Si2 0.390082 0.316271 0.382937
Si Si3 0.506083 0.340944 0.870522
Si Si4 0.095049 0.710134 0.585486
Si Si5 0.177353 0.850477 0.738300
Si Si6 0.725206 0.359992 0.355268
Si Si7 0.828104 0.582708 0.399208
Si Si8 0.103479 0.131381 0.284921
O O1 0.544393 0.203311 0.462405
O O2 0.474215 0.216520 0.597762
O O3 0.587933 0.237383 0.640358
O O4 0.533255 0.983257 0.593331
O O5 0.457078 0.284233 0.351683
O O6 0.388693 0.305532 0.494107
O O7 0.344935 0.192672 0.341060
O O8 0.378849 0.482591 0.342924
O O9 0.545278 0.379024 0.781103
O O10 0.125863 0.782128 0.674314
O O11 0.121002 0.537627 0.572298
O O12 0.233117 0.749714 0.707518
O O13 0.187465 0.025881 0.709876
O O14 0.771010 0.476091 0.404233
O O15 0.691643 0.252643 0.431149
O O16 0.847009 0.636680 0.294240
#
# Coordination Sequence:
#
# PCOD9459343 Si02
#       8
#     8   8   8   8   8   8   8   8
#     4  10  22  38  57  92 130 167 211 262 316 384
#     4  11  23  38  64  93 127 171 212 264 314 387
#     4  10  21  38  59  88 131 168 206 265 315 383
#     4  10  20  41  60  88 131 162 203 265 313 378
#     4  10  19  41  61  88 122 161 209 268 323 380
#     4   9  20  38  67  85 116 165 205 267 333 373
#     4  10  20  40  65  87 123 161 208 263 326 377
#     4  12  21  39  64  93 124 173 216 255 327 394
#
# _framework density 22.420490000000001
#
# number of rings (size 3 to 8) (size 9 to 14) (size 15 to 20)
#    0.000    1.750    3.750    1.500    1.750    2.000 
#    4.500    5.000    0.000    0.000    0.000    0.000 
#    0.000    0.000    0.000    0.000    0.000    0.000 
#
# Total GULP energy -356820.050193 kJ/mol
# GULP energy per Si atom -5575.313284 kJ/mol
# Density = 2.236946 g / cm^3
# Si number density = 22.420490 Si / 1000 Ang^3
#
#
#
# Elastic Constant Matrix: (Units=GPa)
#
#
# Indices 1 2 3 4 5 6 
#
# 1 36.2769 -0.2601 0.3780 0.0000 0.0000 0.0000
# 2 -0.2601 72.4184 0.7916 0.0000 0.0000 0.0000
# 3 0.3780 0.7916 53.0884 0.0000 0.0000 0.0000
# 4 0.0000 0.0000 0.0000 23.5068 0.0000 0.0000
# 5 0.0000 0.0000 0.0000 0.0000 10.9374 0.0000
# 6 0.0000 0.0000 0.0000 0.0000 0.0000 24.3528
#
#
#
# Elastic Compliance Matrix: (Units=1/GPa)
#
#
# Indices 1 2 3 4 5 6 
#
# 1 0.027569 0.000101 -0.000198 0.000000 0.000000 0.000000
# 2 0.000101 0.013811 -0.000207 0.000000 0.000000 0.000000
# 3 -0.000198 -0.000207 0.018841 0.000000 0.000000 0.000000
# 4 0.000000 0.000000 0.000000 0.042541 0.000000 0.000000
# 5 0.000000 0.000000 0.000000 0.000000 0.091429 0.000000
# 6 0.000000 0.000000 0.000000 0.000000 0.000000 0.041063
#
#
# Mechanical properties :
#
#
# Convention : Reuss Voigt Hill
#
# Bulk Modulus (GPa) = 16.77451 18.17807 17.47629
# Shear Modulus (GPa) = 19.55170 22.48433 21.01802
#
# Velocity S-wave (km/s) = 2.95625 3.17021 3.06510
# Velocity P-wave (km/s) = 4.37613 4.63958 4.50978
#
# Compressibility (1/GPa) = 0.05961426
#
# Stress axis : x y z
#
# Youngs Moduli (GPa) = 36.27319 72.40461 53.07575
#
# Poissons Ratio (x) = -0.00733 0.01050
# Poissons Ratio (y) = -0.00367 0.01097
# Poissons Ratio (z) = 0.00718 0.01496
#
# Static dielectric constant tensor:
#      x y z
#    x 1.904200 0.000000 0.000000 
#    y 0.000000 1.864290 0.000000 
#    z 0.000000 0.000000 1.836460 
# 
# From -- ./inp_files/3199.got.cif
#   From: 2010.05.17/outbox.cif.g08.bks.cpg/sg61_2_cif.got.tgz:3199.got - 2010.06.03 15:17:17.
