data_PCOD9459341
_publ_section_title
;
Structure prediction by ZEFSAII (Michael W. Deem and Ramdas Pophale) SiO2 
 PCOD9459341
Probable space group: P B C A
;
_chemical_formula_sum "Si O2"
_cell_formula_units_Z 64
_cell_length_a 8.898797
_cell_length_b 15.240093
_cell_length_c 21.934649
_cell_angle_alpha 90.000000
_cell_angle_beta 90.000000
_cell_angle_gamma 90.000000
_cell_volume 2974.744061
_symmetry_space_group_name_H-M "P B C A"
_symmetry_group_IT_number 61
_symmetry_cell_setting 'orthorhombic'
loop_
_space_group_symop_operation_xyz
x,y,z
1/2-x,-y,1/2+z
1/2+x,1/2-y,-z
-x,1/2+y,1/2-z
-x,-y,-z
1/2+x,y,1/2-z
1/2-x,1/2+y,z
x,1/2-y,1/2+z
loop_
_atom_site_type_symbol
_atom_site_label
_atom_site_fract_x
_atom_site_fract_y
_atom_site_fract_z
Si Si1 0.734014 0.565572 0.277941
Si Si2 0.821367 0.146102 0.096148
Si Si3 0.240771 0.065540 0.520490
Si Si4 0.570667 0.946857 0.077924
Si Si5 0.132052 0.694564 0.829772
Si Si6 0.905681 0.619673 0.731515
Si Si7 0.945935 0.888989 0.666231
Si Si8 0.961039 0.491528 0.372797
O O1 0.663606 0.471788 0.257196
O O2 0.602401 0.629911 0.300938
O O3 0.827616 0.596610 0.220215
O O4 0.847148 0.549104 0.332751
O O5 0.910220 0.217202 0.135075
O O6 0.649847 0.165894 0.117872
O O7 0.810307 0.139635 0.023580
O O8 0.892685 0.051552 0.114229
O O9 0.369673 0.034299 0.566627
O O10 0.087628 0.092658 0.554943
O O11 0.170812 0.989000 0.476125
O O12 0.658601 0.875199 0.116196
O O13 0.528028 0.023057 0.126219
O O14 0.280763 0.689046 0.788772
O O15 0.004220 0.659946 0.784949
O O16 0.997266 0.589368 0.671453
#
# Coordination Sequence:
#
# PCOD9459341 Si02
#       8
#     8   8   8   8   8   8   8   8
#     4  12  18  34  70  93 115 156 219 265 310 364
#     4  11  26  42  58  98 136 165 210 273 314 379
#     4  10  22  41  70  93 120 170 229 257 305 372
#     4  10  19  40  69  89 122 171 211 264 306 381
#     4  12  25  43  62  97 137 166 204 263 343 380
#     4  12  21  40  70  91 123 174 210 260 320 394
#     4  11  19  36  63  92 120 161 212 257 312 370
#     4  12  21  40  70  99 117 164 234 266 301 382
#
# _framework density 21.514457
#
# number of rings (size 3 to 8) (size 9 to 14) (size 15 to 20)
#    0.000    0.750    7.500    1.125    0.000    2.000 
#    4.500    0.000    0.000    0.000    0.000    0.000 
#    0.000    0.000    0.000    0.000    0.000    0.000 
#
# Total GULP energy -357175.404587 kJ/mol
# GULP energy per Si atom -5580.865697 kJ/mol
# Density = 2.146549 g / cm^3
# Si number density = 21.514457 Si / 1000 Ang^3
#
#
#
# Elastic Constant Matrix: (Units=GPa)
#
#
# Indices 1 2 3 4 5 6 
#
# 1 79.6531 -1.3616 25.9248 0.0000 0.0000 0.0000
# 2 -1.3616 36.3047 8.6938 0.0000 0.0000 0.0000
# 3 25.9248 8.6938 96.0899 0.0000 0.0000 0.0000
# 4 0.0000 0.0000 0.0000 18.5503 0.0000 0.0000
# 5 0.0000 0.0000 0.0000 0.0000 47.8835 0.0000
# 6 0.0000 0.0000 0.0000 0.0000 0.0000 10.2931
#
#
#
# Elastic Compliance Matrix: (Units=1/GPa)
#
#
# Indices 1 2 3 4 5 6 
#
# 1 0.013837 0.001444 -0.003864 0.000000 0.000000 0.000000
# 2 0.001444 0.028305 -0.002951 0.000000 0.000000 0.000000
# 3 -0.003864 -0.002951 0.011716 0.000000 0.000000 0.000000
# 4 0.000000 0.000000 0.000000 0.053908 0.000000 0.000000
# 5 0.000000 0.000000 0.000000 0.000000 0.020884 0.000000
# 6 0.000000 0.000000 0.000000 0.000000 0.000000 0.097152
#
#
# Mechanical properties :
#
#
# Convention : Reuss Voigt Hill
#
# Bulk Modulus (GPa) = 23.19214 30.95129 27.07171
# Shear Modulus (GPa) = 19.92704 27.26474 23.59589
#
# Velocity S-wave (km/s) = 3.04668 3.56374 3.31531
# Velocity P-wave (km/s) = 4.81451 5.59921 5.22163
#
# Compressibility (1/GPa) = 0.04311806
#
# Stress axis : x y z
#
# Youngs Moduli (GPa) = 72.27168 35.32896 85.35108
#
# Poissons Ratio (x) = -0.05102 0.32978
# Poissons Ratio (y) = -0.10437 0.25184
# Poissons Ratio (z) = 0.27924 0.10424
#
# Static dielectric constant tensor:
#      x y z
#    x 1.827140 0.000000 0.000000 
#    y 0.000000 1.843590 0.000000 
#    z 0.000000 0.000000 1.779710 
# 
# From -- ./inp_files/10198.got.cif
#   From: 2010.05.17/outbox.cif.g08.bks.cpg/sg61_6_cif.got.tgz:10198.got - 2010.06.03 15:17:17.
