data_PCOD9459704
_publ_section_title
;
Structure prediction by ZEFSAII (Michael W. Deem and Ramdas Pophale) SiO2 
 PCOD9459704
Probable space group: P B C A
;
_chemical_formula_sum "Si O2"
_cell_formula_units_Z 64
_cell_length_a 8.778315
_cell_length_b 21.502266
_cell_length_c 16.648629
_cell_angle_alpha 90.000000
_cell_angle_beta 90.000000
_cell_angle_gamma 90.000000
_cell_volume 3142.489727
_symmetry_space_group_name_H-M "P B C A"
_symmetry_group_IT_number 61
_symmetry_cell_setting 'orthorhombic'
loop_
_space_group_symop_operation_xyz
x,y,z
1/2-x,-y,1/2+z
1/2+x,1/2-y,-z
-x,1/2+y,1/2-z
-x,-y,-z
1/2+x,y,1/2-z
1/2-x,1/2+y,z
x,1/2-y,1/2+z
loop_
_atom_site_type_symbol
_atom_site_label
_atom_site_fract_x
_atom_site_fract_y
_atom_site_fract_z
Si Si1 0.328236 0.458346 0.723640
Si Si2 0.578536 0.168336 0.014253
Si Si3 0.583231 0.158008 0.625433
Si Si4 0.822348 0.252679 0.425765
Si Si5 0.088773 0.127193 0.316145
Si Si6 0.404966 0.755406 0.220558
Si Si7 0.418026 0.137820 0.866220
Si Si8 0.428645 0.452196 0.210131
O O1 0.436394 0.413688 0.672577
O O2 0.226951 0.513597 0.686685
O O3 0.445044 0.494825 0.780437
O O4 0.211875 0.414347 0.770453
O O5 0.414094 0.193370 0.043855
O O6 0.649719 0.142125 0.095409
O O7 0.691091 0.222411 0.983803
O O8 0.542223 0.126364 0.936292
O O9 0.461079 0.198399 0.578102
O O10 0.622661 0.197025 0.706464
O O11 0.750259 0.140855 0.595713
O O12 0.490315 0.097051 0.648046
O O13 0.739687 0.247386 0.338907
O O14 0.058110 0.189375 0.262756
O O15 0.531747 0.793983 0.169366
O O16 0.414541 0.086744 0.794561
#
# Coordination Sequence:
#
# PCOD9459704 Si02
#       8
#     8   8   8   8   8   8   8   8
#     4  10  23  39  63  89 113 165 215 265 300 357
#     4  11  24  39  58  95 139 169 198 248 339 399
#     4  11  20  36  67  93 122 155 212 270 312 355
#     4  11  23  38  59  97 134 170 198 252 324 401
#     4  11  23  40  62  90 130 164 204 262 313 380
#     4  10  21  36  64  97 121 162 212 258 318 371
#     4  10  22  37  66  95 123 164 200 270 316 379
#     4  10  20  41  65  91 116 152 227 273 298 353
#
# _framework density 20.366018
#
# number of rings (size 3 to 8) (size 9 to 14) (size 15 to 20)
#    0.000    1.500    2.500    3.000    5.250    1.000 
#    0.000    5.000    0.000    1.500    0.000    0.000 
#    0.000    0.000    0.000    0.000    0.000    0.000 
#
# Total GULP energy -356789.001694 kJ/mol
# GULP energy per Si atom -5574.828151 kJ/mol
# Density = 2.031966 g / cm^3
# Si number density = 20.366018 Si / 1000 Ang^3
#
#
#
# Elastic Constant Matrix: (Units=GPa)
#
#
# Indices 1 2 3 4 5 6 
#
# 1 82.9208 11.5198 1.8673 0.0000 0.0000 0.0000
# 2 11.5198 74.1613 26.0145 0.0000 0.0000 0.0000
# 3 1.8673 26.0145 36.1272 0.0000 0.0000 0.0000
# 4 0.0000 0.0000 0.0000 -86.2822 0.0000 0.0000
# 5 0.0000 0.0000 0.0000 0.0000 23.9528 0.0000
# 6 0.0000 0.0000 0.0000 0.0000 0.0000 36.2863
#
#
#
# Elastic Compliance Matrix: (Units=1/GPa)
#
#
# Indices 1 2 3 4 5 6 
#
# 1 0.012352 -0.002268 0.000994 0.000000 0.000000 0.000000
# 2 -0.002268 0.018457 -0.013174 0.000000 0.000000 0.000000
# 3 0.000994 -0.013174 0.037115 0.000000 0.000000 0.000000
# 4 0.000000 0.000000 0.000000 -0.011590 0.000000 0.000000
# 5 0.000000 0.000000 0.000000 0.000000 0.041749 0.000000
# 6 0.000000 0.000000 0.000000 0.000000 0.000000 0.027559
#
#
# Mechanical properties :
#
#
# Convention : Reuss Voigt Hill
#
# Bulk Modulus (GPa) = 25.62082 30.22362 27.92222
# Shear Modulus (GPa) = 29.84263 5.04524 17.44393
#
# Velocity S-wave (km/s) = 3.83210 1.57565 2.92981
# Velocity P-wave (km/s) = 5.67340 4.26411 5.01847
#
# Compressibility (1/GPa) = 0.03903075
#
# Stress axis : x y z
#
# Youngs Moduli (GPa) = 80.95637 54.17883 26.94359
#
# Poissons Ratio (x) = 0.12285 -0.02679
# Poissons Ratio (y) = 0.18357 0.35494
# Poissons Ratio (z) = -0.08050 0.71373
#
# Static dielectric constant tensor:
#      x y z
#    x 1.758330 0.000000 0.000000 
#    y 0.000000 1.744960 0.000000 
#    z 0.000000 0.000000 1.756120 
# 
# From -- ./inp_files/9036.got.cif
#   From: 2010.05.17/outbox.cif.g08.bks.cpg/sg61_5_cif.got.tgz:9036.got - 2010.06.03 15:17:17.
