data_PCOD9459057
_publ_section_title
;
Structure prediction by ZEFSAII (Michael W. Deem and Ramdas Pophale) SiO2 
 PCOD9459057
Probable space group: P B C A
;
_chemical_formula_sum "Si O2"
_cell_formula_units_Z 48
_cell_length_a 13.073885
_cell_length_b 26.868256
_cell_length_c 5.012699
_cell_angle_alpha 90.000000
_cell_angle_beta 90.000000
_cell_angle_gamma 90.000000
_cell_volume 1760.823255
_symmetry_space_group_name_H-M "P B C A"
_symmetry_group_IT_number 61
_symmetry_cell_setting 'orthorhombic'
loop_
_space_group_symop_operation_xyz
x,y,z
1/2-x,-y,1/2+z
1/2+x,1/2-y,-z
-x,1/2+y,1/2-z
-x,-y,-z
1/2+x,y,1/2-z
1/2-x,1/2+y,z
x,1/2-y,1/2+z
loop_
_atom_site_type_symbol
_atom_site_label
_atom_site_fract_x
_atom_site_fract_y
_atom_site_fract_z
Si Si1 0.050511 0.441939 0.102673
Si Si2 0.517785 0.777489 0.545017
Si Si3 0.901303 0.134524 0.741201
Si Si4 0.197514 0.521311 0.215422
Si Si5 0.300366 0.325804 0.785036
Si Si6 0.843151 0.605248 0.399942
O O1 0.942601 0.420697 0.201491
O O2 0.085108 0.499045 0.156547
O O3 0.123624 0.412196 0.310679
O O4 0.079412 0.419619 0.813716
O O5 0.476401 0.760909 0.828437
O O6 0.515099 0.831729 0.405259
O O7 0.642946 0.776403 0.604147
O O8 0.877112 0.159295 0.458156
O O9 0.808445 0.140918 0.944860
O O10 0.230151 0.510604 0.516890
O O11 0.234651 0.576238 0.147101
O O12 0.189317 0.338050 0.664901
#
# Coordination Sequence:
#
# PCOD9459057 Si02
#       6
#     8   8   8   8   8   8
#     4  10  19  33  54  76 105 139 173 209 250 297
#     4  10  18  34  56  75  94 135 172 202 250 324
#     4  10  20  33  53  80 103 128 176 211 254 301
#     4   8  16  30  48  72 100 140 176 196 238 310
#     4  10  20  33  53  80 103 128 176 211 254 301
#     4  10  19  33  54  76 105 139 173 209 250 297
#
# _framework density 27.259976000000002
#
# number of rings (size 3 to 8) (size 9 to 14) (size 15 to 20)
#    1.000    1.333    1.667    2.000    0.000    0.000 
#    0.000    1.667    0.000    6.000    0.000    0.000 
#    0.000    0.000    0.000    0.000    0.000    0.000 
#
# Total GULP energy -267485.669828 kJ/mol
# GULP energy per Si atom -5572.618121 kJ/mol
# Density = 2.719793 g / cm^3
# Si number density = 27.259976 Si / 1000 Ang^3
#
#
#
# Elastic Constant Matrix: (Units=GPa)
#
#
# Indices 1 2 3 4 5 6 
#
# 1 29.8937 -7.8585 8.6576 0.0000 0.0000 0.0000
# 2 -7.8585 47.5415 14.3191 0.0000 0.0000 0.0000
# 3 8.6576 14.3191 158.5945 0.0000 0.0000 0.0000
# 4 0.0000 0.0000 0.0000 38.6068 0.0000 0.0000
# 5 0.0000 0.0000 0.0000 0.0000 34.4335 0.0000
# 6 0.0000 0.0000 0.0000 0.0000 0.0000 38.8456
#
#
#
# Elastic Compliance Matrix: (Units=1/GPa)
#
#
# Indices 1 2 3 4 5 6 
#
# 1 0.035962 0.006719 -0.002570 0.000000 0.000000 0.000000
# 2 0.006719 0.022877 -0.002432 0.000000 0.000000 0.000000
# 3 -0.002570 -0.002432 0.006665 0.000000 0.000000 0.000000
# 4 0.000000 0.000000 0.000000 0.025902 0.000000 0.000000
# 5 0.000000 0.000000 0.000000 0.000000 0.029041 0.000000
# 6 0.000000 0.000000 0.000000 0.000000 0.000000 0.025743
#
#
# Mechanical properties :
#
#
# Convention : Reuss Voigt Hill
#
# Bulk Modulus (GPa) = 14.50582 29.58511 22.04547
# Shear Modulus (GPa) = 30.16811 37.10462 33.63637
#
# Velocity S-wave (km/s) = 3.33029 3.69336 3.51652
# Velocity P-wave (km/s) = 4.48560 5.39114 4.95909
#
# Compressibility (1/GPa) = 0.06893782
#
# Stress axis : x y z
#
# Youngs Moduli (GPa) = 27.80695 43.71121 150.03132
#
# Poissons Ratio (x) = -0.29367 0.38554
# Poissons Ratio (y) = -0.18682 0.36492
# Poissons Ratio (z) = 0.07146 0.10632
#
# Static dielectric constant tensor:
#      x y z
#    x 2.248940 0.000000 0.000000 
#    y 0.000000 2.267520 0.000000 
#    z 0.000000 0.000000 2.088960 
# 
# From -- ./inp_files/577.got.cif
#   From: 2010.05.17/outbox.cif.g08.bks.cpg/sg61_1_cif.got.tgz:577.got - 2010.06.03 15:17:17.
