data_PCOD9459722
_publ_section_title
;
Structure prediction by ZEFSAII (Michael W. Deem and Ramdas Pophale) SiO2 
 PCOD9459722
Probable space group: P B C A
;
_chemical_formula_sum "Si O2"
_cell_formula_units_Z 40
_cell_length_a 11.260949
_cell_length_b 18.543515
_cell_length_c 7.900194
_cell_angle_alpha 90.000000
_cell_angle_beta 90.000000
_cell_angle_gamma 90.000000
_cell_volume 1649.699367
_symmetry_space_group_name_H-M "P B C A"
_symmetry_group_IT_number 61
_symmetry_cell_setting 'orthorhombic'
loop_
_space_group_symop_operation_xyz
x,y,z
1/2-x,-y,1/2+z
1/2+x,1/2-y,-z
-x,1/2+y,1/2-z
-x,-y,-z
1/2+x,y,1/2-z
1/2-x,1/2+y,z
x,1/2-y,1/2+z
loop_
_atom_site_type_symbol
_atom_site_label
_atom_site_fract_x
_atom_site_fract_y
_atom_site_fract_z
Si Si1 0.339856 0.945622 0.989882
Si Si2 0.675927 0.915133 0.212808
Si Si3 0.792057 0.711606 0.500610
Si Si4 0.059928 0.316792 0.813996
Si Si5 0.368128 0.351145 0.960591
O O1 0.431864 0.882069 0.946419
O O2 0.371555 0.020569 0.903391
O O3 0.291912 0.944052 0.181433
O O4 0.219219 0.915177 0.901387
O O5 0.722658 0.848273 0.104203
O O6 0.587721 0.886422 0.361195
O O7 0.912409 0.742425 0.589741
O O8 0.833052 0.681574 0.321929
O O9 0.710725 0.782456 0.483165
O O10 0.947728 0.326715 0.694719
#
# Coordination Sequence:
#
# PCOD9459722 Si02
#       5
#     8   8   8   8   8
#     4   9  21  39  59  85 119 156 195 243 292 354
#     4  10  20  42  59  86 122 158 193 246 303 341
#     4  11  21  39  60  88 124 153 197 256 290 354
#     4  11  21  37  61  87 119 156 203 242 298 357
#     4   9  23  37  61  88 116 157 202 237 306 345
#
# _framework density 24.246841
#
# number of rings (size 3 to 8) (size 9 to 14) (size 15 to 20)
#    1.200    0.800    2.000    1.200    2.800    0.800 
#    0.000    1.000    0.000    0.000    0.000    0.000 
#    0.000    0.000    0.000    0.000    0.000    0.000 
#
# Total GULP energy -223152.600664 kJ/mol
# GULP energy per Si atom -5578.815017 kJ/mol
# Density = 2.419165 g / cm^3
# Si number density = 24.246841 Si / 1000 Ang^3
#
#
#
# Elastic Constant Matrix: (Units=GPa)
#
#
# Indices 1 2 3 4 5 6 
#
# 1 34.8768 8.2487 -6.3012 0.0000 0.0000 0.0000
# 2 8.2487 131.9376 27.1226 0.0000 0.0000 0.0000
# 3 -6.3012 27.1226 71.4108 0.0000 0.0000 0.0000
# 4 0.0000 0.0000 0.0000 17.5731 0.0000 0.0000
# 5 0.0000 0.0000 0.0000 0.0000 33.8355 0.0000
# 6 0.0000 0.0000 0.0000 0.0000 0.0000 31.0698
#
#
#
# Elastic Compliance Matrix: (Units=1/GPa)
#
#
# Indices 1 2 3 4 5 6 
#
# 1 0.029949 -0.002620 0.003638 0.000000 0.000000 0.000000
# 2 -0.002620 0.008450 -0.003441 0.000000 0.000000 0.000000
# 3 0.003638 -0.003441 0.015631 0.000000 0.000000 0.000000
# 4 0.000000 0.000000 0.000000 0.056905 0.000000 0.000000
# 5 0.000000 0.000000 0.000000 0.000000 0.029555 0.000000
# 6 0.000000 0.000000 0.000000 0.000000 0.000000 0.032186
#
#
# Mechanical properties :
#
#
# Convention : Reuss Voigt Hill
#
# Bulk Modulus (GPa) = 20.33148 32.92949 26.63048
# Shear Modulus (GPa) = 25.78412 30.43937 28.11175
#
# Velocity S-wave (km/s) = 3.26452 3.54700 3.40869
# Velocity P-wave (km/s) = 4.75530 5.51229 5.14773
#
# Compressibility (1/GPa) = 0.04918482
#
# Stress axis : x y z
#
# Youngs Moduli (GPa) = 33.38976 118.33635 63.97402
#
# Poissons Ratio (x) = 0.31007 -0.23273
# Poissons Ratio (y) = 0.08749 0.22012
# Poissons Ratio (z) = -0.12147 0.40717
#
# Static dielectric constant tensor:
#      x y z
#    x 2.067240 0.000000 0.000000 
#    y 0.000000 1.891390 0.000000 
#    z 0.000000 0.000000 1.953190 
# 
# From -- ./inp_files/2136.got.cif
#   From: 2010.05.17/outbox.cif.g08.bks.cpg/sg61_2_cif.got.tgz:2136.got - 2010.06.03 15:17:17.
