data_PCOD9459255
_publ_section_title
;
Structure prediction by ZEFSAII (Michael W. Deem and Ramdas Pophale) SiO2 
 PCOD9459255
Probable space group: P B C A
;
_chemical_formula_sum "Si O2"
_cell_formula_units_Z 56
_cell_length_a 5.331214
_cell_length_b 21.918376
_cell_length_c 23.898100
_cell_angle_alpha 90.000000
_cell_angle_beta 90.000000
_cell_angle_gamma 90.000000
_cell_volume 2792.530098
_symmetry_space_group_name_H-M "P B C A"
_symmetry_group_IT_number 61
_symmetry_cell_setting 'orthorhombic'
loop_
_space_group_symop_operation_xyz
x,y,z
1/2-x,-y,1/2+z
1/2+x,1/2-y,-z
-x,1/2+y,1/2-z
-x,-y,-z
1/2+x,y,1/2-z
1/2-x,1/2+y,z
x,1/2-y,1/2+z
loop_
_atom_site_type_symbol
_atom_site_label
_atom_site_fract_x
_atom_site_fract_y
_atom_site_fract_z
Si Si1 0.228222 0.621800 0.398201
Si Si2 0.221861 0.934082 0.549857
Si Si3 0.285133 0.147410 0.266928
Si Si4 0.219745 0.251164 0.962371
Si Si5 0.706067 0.552566 0.895878
Si Si6 0.297931 0.381815 0.424393
Si Si7 0.788670 0.487945 0.779741
O O1 0.463724 0.580841 0.417508
O O2 0.219243 0.627956 0.331347
O O3 0.271119 0.687793 0.425884
O O4 0.965520 0.595448 0.420626
O O5 0.200842 0.905281 0.488634
O O6 0.265245 0.006700 0.551459
O O7 0.536410 0.181897 0.250902
O O8 0.289598 0.085513 0.228806
O O9 0.255804 0.190326 0.926143
O O10 0.454519 0.252835 0.005355
O O11 0.438193 0.584783 0.896435
O O12 0.734153 0.509801 0.841804
O O13 0.936460 0.599288 0.898491
O O14 0.559177 0.509890 0.741064
#
# Coordination Sequence:
#
# PCOD9459255 Si02
#       7
#     8   8   8   8   8   8   8
#     4  12  22  39  68  95 122 169 212 268 321 355
#     4  12  22  38  61  93 133 162 210 254 315 382
#     4  10  20  35  58  91 121 148 201 267 319 362
#     4  12  23  44  65  90 127 172 218 258 304 379
#     4  12  24  38  60  92 129 170 201 260 324 380
#     4  12  24  40  59  90 134 171 212 246 306 394
#     4  10  19  36  57  83 116 154 204 255 309 374
#
# _framework density 20.053498999999999
#
# number of rings (size 3 to 8) (size 9 to 14) (size 15 to 20)
#    0.000    0.571    2.857    8.571    0.000    0.000 
#    0.000    0.000    0.000    5.143    0.000    0.000 
#    0.000    0.000    0.000    0.000    0.000    0.000 
#
# Total GULP energy -313241.676106 kJ/mol
# GULP energy per Si atom -5593.601359 kJ/mol
# Density = 2.000786 g / cm^3
# Si number density = 20.053499 Si / 1000 Ang^3
#
#
#
# Elastic Constant Matrix: (Units=GPa)
#
#
# Indices 1 2 3 4 5 6 
#
# 1 102.0383 -26.6803 15.2038 0.0000 0.0000 0.0000
# 2 -26.6803 53.6328 -7.1512 0.0000 0.0000 0.0000
# 3 15.2038 -7.1512 56.7046 0.0000 0.0000 0.0000
# 4 0.0000 0.0000 0.0000 13.9709 0.0000 0.0000
# 5 0.0000 0.0000 0.0000 0.0000 36.2758 0.0000
# 6 0.0000 0.0000 0.0000 0.0000 0.0000 23.4238
#
#
#
# Elastic Compliance Matrix: (Units=1/GPa)
#
#
# Indices 1 2 3 4 5 6 
#
# 1 0.011583 0.005439 -0.002420 0.000000 0.000000 0.000000
# 2 0.005439 0.021519 0.001255 0.000000 0.000000 0.000000
# 3 -0.002420 0.001255 0.018442 0.000000 0.000000 0.000000
# 4 0.000000 0.000000 0.000000 0.071577 0.000000 0.000000
# 5 0.000000 0.000000 0.000000 0.000000 0.027567 0.000000
# 6 0.000000 0.000000 0.000000 0.000000 0.000000 0.042692
#
#
# Mechanical properties :
#
#
# Convention : Reuss Voigt Hill
#
# Bulk Modulus (GPa) = 16.64052 19.45782 18.04917
# Shear Modulus (GPa) = 24.40686 30.13434 27.27060
#
# Velocity S-wave (km/s) = 3.49246 3.88067 3.69167
# Velocity P-wave (km/s) = 4.95773 5.45926 5.21453
#
# Compressibility (1/GPa) = 0.06009429
#
# Stress axis : x y z
#
# Youngs Moduli (GPa) = 86.33301 46.47140 54.22308
#
# Poissons Ratio (x) = -0.25278 0.13120
# Poissons Ratio (y) = -0.46961 -0.06807
# Poissons Ratio (z) = 0.20890 -0.05834
#
# Static dielectric constant tensor:
#      x y z
#    x 1.784260 0.000000 0.000000 
#    y 0.000000 1.683000 0.000000 
#    z 0.000000 0.000000 1.705770 
# 
# From -- ./inp_files/9994.got.cif
#   From: 2010.05.17/outbox.cif.g08.bks.cpg/sg61_5_cif.got.tgz:9994.got - 2010.06.03 15:17:17.
