data_PCOD9459377
_publ_section_title
;
Structure prediction by ZEFSAII (Michael W. Deem and Ramdas Pophale) SiO2 
 PCOD9459377
Probable space group: P B C A
;
_chemical_formula_sum "Si O2"
_cell_formula_units_Z 64
_cell_length_a 18.454335
_cell_length_b 16.964575
_cell_length_c 8.043805
_cell_angle_alpha 90.000000
_cell_angle_beta 90.000000
_cell_angle_gamma 90.000000
_cell_volume 2518.273631
_symmetry_space_group_name_H-M "P B C A"
_symmetry_group_IT_number 61
_symmetry_cell_setting 'orthorhombic'
loop_
_space_group_symop_operation_xyz
x,y,z
1/2-x,-y,1/2+z
1/2+x,1/2-y,-z
-x,1/2+y,1/2-z
-x,-y,-z
1/2+x,y,1/2-z
1/2-x,1/2+y,z
x,1/2-y,1/2+z
loop_
_atom_site_type_symbol
_atom_site_label
_atom_site_fract_x
_atom_site_fract_y
_atom_site_fract_z
Si Si1 0.433637 0.627791 0.654034
Si Si2 0.480229 0.773837 0.834509
Si Si3 0.647650 0.335740 0.832290
Si Si4 0.683526 0.451745 0.532454
Si Si5 0.377696 0.236092 0.979179
Si Si6 0.420850 0.073226 0.835561
Si Si7 0.270064 0.685647 0.841868
Si Si8 0.669968 0.900356 0.441209
O O1 0.455016 0.684323 0.804876
O O2 0.445425 0.683813 0.493717
O O3 0.354271 0.593385 0.623597
O O4 0.494245 0.559763 0.644244
O O5 0.439151 0.821514 0.688101
O O6 0.566499 0.776042 0.866379
O O7 0.668586 0.402972 0.700730
O O8 0.686879 0.256719 0.752563
O O9 0.676216 0.350615 0.018218
O O10 0.636479 0.530479 0.545989
O O11 0.769961 0.455276 0.524560
O O12 0.369115 0.330587 0.956974
O O13 0.411395 0.166650 0.866311
O O14 0.293022 0.215877 0.969141
O O15 0.393266 0.054020 0.652046
O O16 0.220091 0.640698 0.704637
#
# Coordination Sequence:
#
# PCOD9459377 Si02
#       8
#     8   8   8   8   8   8   8   8
#     4  10  20  38  62  91 123 159 205 259 304 369
#     4  10  20  33  58  88 116 154 204 251 296 352
#     4  11  20  34  58  89 121 154 204 255 306 356
#     4  11  23  39  61  90 125 165 202 252 320 370
#     4  10  20  37  59  84 117 156 199 254 301 358
#     4  10  23  38  62  92 125 161 206 250 315 379
#     4  11  20  35  59  89 116 155 205 258 302 350
#     4  11  21  40  61  86 121 160 209 257 305 364
#
# _framework density 25.414235000000001
#
# number of rings (size 3 to 8) (size 9 to 14) (size 15 to 20)
#    0.000    1.500    3.750    2.625    0.000    2.000 
#    0.000    0.000    0.000    0.000    0.000   12.250 
#    0.000    0.000    0.000    0.000    0.000    0.000 
#
# Total GULP energy -356320.927934 kJ/mol
# GULP energy per Si atom -5567.514499 kJ/mol
# Density = 2.535639 g / cm^3
# Si number density = 25.414235 Si / 1000 Ang^3
#
#
#
# Elastic Constant Matrix: (Units=GPa)
#
#
# Indices 1 2 3 4 5 6 
#
# 1 71.8663 5.1232 18.1108 0.0000 0.0000 0.0000
# 2 5.1232 21.7355 1.9538 0.0000 0.0000 0.0000
# 3 18.1108 1.9538 62.5390 0.0000 0.0000 0.0000
# 4 0.0000 0.0000 0.0000 14.1774 0.0000 0.0000
# 5 0.0000 0.0000 0.0000 0.0000 35.2489 0.0000
# 6 0.0000 0.0000 0.0000 0.0000 0.0000 23.0879
#
#
#
# Elastic Compliance Matrix: (Units=1/GPa)
#
#
# Indices 1 2 3 4 5 6 
#
# 1 0.015229 -0.003202 -0.004310 0.000000 0.000000 0.000000
# 2 -0.003202 0.046811 -0.000535 0.000000 0.000000 0.000000
# 3 -0.004310 -0.000535 0.017255 0.000000 0.000000 0.000000
# 4 0.000000 0.000000 0.000000 0.070535 0.000000 0.000000
# 5 0.000000 0.000000 0.000000 0.000000 0.028370 0.000000
# 6 0.000000 0.000000 0.000000 0.000000 0.000000 0.043313
#
#
# Mechanical properties :
#
#
# Convention : Reuss Voigt Hill
#
# Bulk Modulus (GPa) = 15.82286 22.94627 19.38457
# Shear Modulus (GPa) = 19.32941 23.23305 21.28123
#
# Velocity S-wave (km/s) = 2.76084 3.02681 2.89688
# Velocity P-wave (km/s) = 4.05000 4.61129 4.33973
#
# Compressibility (1/GPa) = 0.06319968
#
# Stress axis : x y z
#
# Youngs Moduli (GPa) = 65.66328 21.36270 57.95445
#
# Poissons Ratio (x) = 0.06841 0.24980
# Poissons Ratio (y) = 0.21027 0.03101
# Poissons Ratio (z) = 0.28302 0.01143
#
# Static dielectric constant tensor:
#      x y z
#    x 2.071820 0.000000 0.000000 
#    y 0.000000 2.066590 0.000000 
#    z 0.000000 0.000000 2.142880 
# 
# From -- ./inp_files/4050.got.cif
#   From: 2010.05.17/outbox.cif.g08.bks.cpg/sg61_3_cif.got.tgz:4050.got - 2010.06.03 15:17:17.
