data_PCOD9459422
_publ_section_title
;
Structure prediction by ZEFSAII (Michael W. Deem and Ramdas Pophale) SiO2 
 PCOD9459422
Probable space group: P B C A
;
_chemical_formula_sum "Si O2"
_cell_formula_units_Z 64
_cell_length_a 18.067710
_cell_length_b 5.065031
_cell_length_c 30.193610
_cell_angle_alpha 90.000000
_cell_angle_beta 90.000000
_cell_angle_gamma 90.000000
_cell_volume 2763.123268
_symmetry_space_group_name_H-M "P B C A"
_symmetry_group_IT_number 61
_symmetry_cell_setting 'orthorhombic'
loop_
_space_group_symop_operation_xyz
x,y,z
1/2-x,-y,1/2+z
1/2+x,1/2-y,-z
-x,1/2+y,1/2-z
-x,-y,-z
1/2+x,y,1/2-z
1/2-x,1/2+y,z
x,1/2-y,1/2+z
loop_
_atom_site_type_symbol
_atom_site_label
_atom_site_fract_x
_atom_site_fract_y
_atom_site_fract_z
Si Si1 0.697005 0.015089 0.918982
Si Si2 0.529447 0.645414 0.806593
Si Si3 0.435364 0.355942 0.293676
Si Si4 0.418860 0.246019 0.530271
Si Si5 0.788332 0.852600 0.574366
Si Si6 0.928120 0.650482 0.390210
Si Si7 0.553613 0.610835 0.561797
Si Si8 0.715424 0.119268 0.179263
O O1 0.745642 0.753514 0.913974
O O2 0.650407 0.946731 0.963671
O O3 0.628986 0.106474 0.887336
O O4 0.569927 0.614497 0.759583
O O5 0.500351 0.943726 0.809241
O O6 0.574652 0.542557 0.848628
O O7 0.459661 0.442799 0.803457
O O8 0.361277 0.468804 0.314647
O O9 0.491680 0.402338 0.546240
O O10 0.431144 0.189620 0.478862
O O11 0.408081 0.006191 0.564270
O O12 0.731256 0.068055 0.555219
O O13 0.773460 0.831396 0.627012
O O14 0.870909 0.960408 0.570954
O O15 0.012899 0.741995 0.398187
O O16 0.775405 0.912171 0.198470
#
# Coordination Sequence:
#
# PCOD9459422 Si02
#       8
#     8   8   8   8   8   8   8   8
#     4  11  23  43  64  89 126 166 214 263 321 378
#     4  10  23  37  66  92 125 156 215 253 321 375
#     4  10  21  41  59  95 124 164 198 267 311 378
#     4  10  23  41  64  94 123 170 216 265 323 386
#     4  10  23  39  57  90 120 161 205 252 309 380
#     4  11  23  40  69  95 125 170 215 272 319 385
#     4  10  23  40  62  92 130 164 214 268 321 378
#     4  10  20  35  59  83 120 157 198 240 306 377
#
# _framework density 23.162196999999999
#
# number of rings (size 3 to 8) (size 9 to 14) (size 15 to 20)
#    0.000    1.750    1.250    1.875    7.000    2.000 
#    0.000    1.250    0.000    0.000    0.000    0.000 
#    0.000    0.000    0.000    0.000    0.000    0.000 
#
# Total GULP energy -357425.888894 kJ/mol
# GULP energy per Si atom -5584.779514 kJ/mol
# Density = 2.310948 g / cm^3
# Si number density = 23.162197 Si / 1000 Ang^3
#
#
#
# Elastic Constant Matrix: (Units=GPa)
#
#
# Indices 1 2 3 4 5 6 
#
# 1 73.8926 5.7559 0.7148 0.0000 0.0000 0.0000
# 2 5.7559 68.5966 23.9550 0.0000 0.0000 0.0000
# 3 0.7148 23.9550 58.1412 0.0000 0.0000 0.0000
# 4 0.0000 0.0000 0.0000 23.3646 0.0000 0.0000
# 5 0.0000 0.0000 0.0000 0.0000 20.0181 0.0000
# 6 0.0000 0.0000 0.0000 0.0000 0.0000 35.3921
#
#
#
# Elastic Compliance Matrix: (Units=1/GPa)
#
#
# Indices 1 2 3 4 5 6 
#
# 1 0.013628 -0.001267 0.000355 0.000000 0.000000 0.000000
# 2 -0.001267 0.017146 -0.007049 0.000000 0.000000 0.000000
# 3 0.000355 -0.007049 0.020099 0.000000 0.000000 0.000000
# 4 0.000000 0.000000 0.000000 0.042800 0.000000 0.000000
# 5 0.000000 0.000000 0.000000 0.000000 0.049955 0.000000
# 6 0.000000 0.000000 0.000000 0.000000 0.000000 0.028255
#
#
# Mechanical properties :
#
#
# Convention : Reuss Voigt Hill
#
# Bulk Modulus (GPa) = 28.61181 29.05353 28.83267
# Shear Modulus (GPa) = 25.06814 27.10194 26.08504
#
# Velocity S-wave (km/s) = 3.29338 3.42437 3.35952
# Velocity P-wave (km/s) = 5.18087 5.31092 5.24630
#
# Compressibility (1/GPa) = 0.03495061
#
# Stress axis : x y z
#
# Youngs Moduli (GPa) = 73.37591 58.32309 49.75283
#
# Poissons Ratio (x) = 0.07392 -0.01764
# Poissons Ratio (y) = 0.09300 0.35070
# Poissons Ratio (z) = -0.02602 0.41111
#
# Static dielectric constant tensor:
#      x y z
#    x 1.879140 0.000000 0.000000 
#    y 0.000000 1.934520 0.000000 
#    z 0.000000 0.000000 1.879860 
# 
# From -- ./inp_files/11854.got.cif
#   From: 2010.05.17/outbox.cif.g08.bks.cpg/sg61_6_cif.got.tgz:11854.got - 2010.06.03 15:17:17.
