data_PCOD9459430
_publ_section_title
;
Structure prediction by ZEFSAII (Michael W. Deem and Ramdas Pophale) SiO2 
 PCOD9459430
Probable space group: P B C A
;
_chemical_formula_sum "Si O2"
_cell_formula_units_Z 48
_cell_length_a 16.424704
_cell_length_b 16.306311
_cell_length_c 9.274452
_cell_angle_alpha 90.000000
_cell_angle_beta 90.000000
_cell_angle_gamma 90.000000
_cell_volume 2483.942456
_symmetry_space_group_name_H-M "P B C A"
_symmetry_group_IT_number 61
_symmetry_cell_setting 'orthorhombic'
loop_
_space_group_symop_operation_xyz
x,y,z
1/2-x,-y,1/2+z
1/2+x,1/2-y,-z
-x,1/2+y,1/2-z
-x,-y,-z
1/2+x,y,1/2-z
1/2-x,1/2+y,z
x,1/2-y,1/2+z
loop_
_atom_site_type_symbol
_atom_site_label
_atom_site_fract_x
_atom_site_fract_y
_atom_site_fract_z
Si Si1 0.418785 0.011664 0.410585
Si Si2 0.761920 0.936379 0.985442
Si Si3 0.466258 0.498681 0.341223
Si Si4 0.804043 0.910062 0.655430
Si Si5 0.669282 0.818184 0.518963
Si Si6 0.144192 0.836368 0.317140
O O1 0.377352 0.097971 0.443796
O O2 0.500000 0.000000 0.500000
O O3 0.353717 0.944293 0.457808
O O4 0.452264 0.007123 0.251218
O O5 0.715808 0.868766 0.078346
O O6 0.719000 0.020389 0.037439
O O7 0.763472 0.926225 0.812961
O O8 0.500000 0.500000 0.500000
O O9 0.400078 0.572225 0.320258
O O10 0.419301 0.412570 0.308167
O O11 0.759753 0.829865 0.589631
O O12 0.620056 0.745556 0.597260
O O13 0.670945 0.813481 0.345353
#
# Coordination Sequence:
#
# PCOD9459430 Si02
#       6
#     8   8   8   8   8   8
#     4  11  20  41  63  91 121 163 199 255 302 370
#     4  10  20  35  62  83 118 153 205 238 295 358
#     4  11  24  37  65  93 126 158 211 247 311 369
#     4  10  20  37  58  88 113 159 199 243 289 363
#     4  11  24  40  64  85 127 160 210 254 314 360
#     4  11  24  42  60  92 119 166 206 257 309 366
#
# _framework density 19.324120000000001
#
# number of rings (size 3 to 8) (size 9 to 14) (size 15 to 20)
#    0.000    1.333    3.333    4.000   14.000    0.000 
#    0.000    3.333    0.000    0.000    0.000    0.000 
#    0.000    0.000    0.000    0.000    0.000    0.000 
#
# Total GULP energy -267448.596527 kJ/mol
# GULP energy per Si atom -5571.845761 kJ/mol
# Density = 1.928014 g / cm^3
# Si number density = 19.324120 Si / 1000 Ang^3
#
#
#
# Elastic Constant Matrix: (Units=GPa)
#
#
# Indices 1 2 3 4 5 6 
#
# 1 51.6667 7.4476 4.7887 0.0000 0.0000 0.0000
# 2 7.4476 57.6894 11.8285 0.0000 0.0000 0.0000
# 3 4.7887 11.8285 141.9652 0.0000 0.0000 0.0000
# 4 0.0000 0.0000 0.0000 26.2093 0.0000 0.0000
# 5 0.0000 0.0000 0.0000 0.0000 40.4862 0.0000
# 6 0.0000 0.0000 0.0000 0.0000 0.0000 15.9057
#
#
#
# Elastic Compliance Matrix: (Units=1/GPa)
#
#
# Indices 1 2 3 4 5 6 
#
# 1 0.019752 -0.002455 -0.000462 0.000000 0.000000 0.000000
# 2 -0.002455 0.017941 -0.001412 0.000000 0.000000 0.000000
# 3 -0.000462 -0.001412 0.007177 0.000000 0.000000 0.000000
# 4 0.000000 0.000000 0.000000 0.038154 0.000000 0.000000
# 5 0.000000 0.000000 0.000000 0.000000 0.024700 0.000000
# 6 0.000000 0.000000 0.000000 0.000000 0.000000 0.062871
#
#
# Mechanical properties :
#
#
# Convention : Reuss Voigt Hill
#
# Bulk Modulus (GPa) = 27.61544 33.27230 30.44387
# Shear Modulus (GPa) = 26.13387 31.67066 28.90227
#
# Velocity S-wave (km/s) = 3.68148 4.05275 3.87157
# Velocity P-wave (km/s) = 5.69147 6.25740 5.98113
#
# Compressibility (1/GPa) = 0.03621163
#
# Stress axis : x y z
#
# Youngs Moduli (GPa) = 50.62901 55.73921 139.33005
#
# Poissons Ratio (x) = 0.13685 0.06433
# Poissons Ratio (y) = 0.12431 0.19673
# Poissons Ratio (z) = 0.02337 0.07870
#
# Static dielectric constant tensor:
#      x y z
#    x 1.719820 0.000000 0.000000 
#    y 0.000000 1.760260 0.000000 
#    z 0.000000 0.000000 1.498010 
# 
# From -- ./inp_files/3513.got.cif
#   From: 2010.05.17/outbox.cif.g08.bks.cpg/sg61_2_cif.got.tgz:3513.got - 2010.06.03 15:17:17.
