data_PCOD9459894
_publ_section_title
;
Structure prediction by ZEFSAII (Michael W. Deem and Ramdas Pophale) SiO2 
 PCOD9459894
Probable space group: P B C A
;
_chemical_formula_sum "Si O2"
_cell_formula_units_Z 64
_cell_length_a 18.772118
_cell_length_b 11.655492
_cell_length_c 13.845784
_cell_angle_alpha 90.000000
_cell_angle_beta 90.000000
_cell_angle_gamma 90.000000
_cell_volume 3029.433602
_symmetry_space_group_name_H-M "P B C A"
_symmetry_group_IT_number 61
_symmetry_cell_setting 'orthorhombic'
loop_
_space_group_symop_operation_xyz
x,y,z
1/2-x,-y,1/2+z
1/2+x,1/2-y,-z
-x,1/2+y,1/2-z
-x,-y,-z
1/2+x,y,1/2-z
1/2-x,1/2+y,z
x,1/2-y,1/2+z
loop_
_atom_site_type_symbol
_atom_site_label
_atom_site_fract_x
_atom_site_fract_y
_atom_site_fract_z
Si Si1 0.971154 0.014361 0.864683
Si Si2 0.977392 0.547766 0.148776
Si Si3 0.650500 0.290007 0.683561
Si Si4 0.648957 0.649368 0.982546
Si Si5 0.631503 0.061831 0.589958
Si Si6 0.626578 0.316984 0.896537
Si Si7 0.395092 0.093210 0.016007
Si Si8 0.695019 0.114454 0.983410
O O1 0.907305 0.088939 0.910074
O O2 0.045732 0.053929 0.908055
O O3 0.978080 0.018910 0.749661
O O4 0.949238 0.880877 0.884408
O O5 0.929415 0.662362 0.162052
O O6 0.054412 0.581604 0.109284
O O7 0.938225 0.467740 0.070577
O O8 0.654251 0.152464 0.670952
O O9 0.664906 0.327651 0.793218
O O10 0.693522 0.347913 0.596138
O O11 0.623006 0.776106 0.004002
O O12 0.728837 0.648450 0.941068
O O13 0.653428 0.569656 0.078634
O O14 0.658319 0.118511 0.489570
O O15 0.631947 0.185649 0.929941
O O16 0.324183 0.017723 0.026947
#
# Coordination Sequence:
#
# PCOD9459894 Si02
#       8
#     8   8   8   8   8   8   8   8
#     4  10  21  39  65  96 125 158 217 268 324 379
#     4   9  20  41  64  93 126 161 211 271 325 381
#     4   9  19  39  62  89 121 168 210 256 321 379
#     4  11  23  40  61  92 129 168 208 265 308 386
#     4  10  21  38  63  94 121 158 213 264 318 369
#     4   9  19  38  62  85 121 168 202 260 312 376
#     4  10  22  40  63  89 130 171 207 266 326 377
#     4  10  23  39  61  88 127 173 212 252 320 385
#
# _framework density 21.126062000000001
#
# number of rings (size 3 to 8) (size 9 to 14) (size 15 to 20)
#    0.000    2.250    0.000    2.250    7.000    4.000 
#    6.750    2.500    0.000    0.000    0.000    0.000 
#    0.000    0.000    0.000    0.000    0.000    0.000 
#
# Total GULP energy -356707.957530 kJ/mol
# GULP energy per Si atom -5573.561836 kJ/mol
# Density = 2.107798 g / cm^3
# Si number density = 21.126062 Si / 1000 Ang^3
#
#
#
# Elastic Constant Matrix: (Units=GPa)
#
#
# Indices 1 2 3 4 5 6 
#
# 1 74.2653 23.7701 18.1690 0.0000 0.0000 0.0000
# 2 23.7701 131.4221 11.2684 0.0000 0.0000 0.0000
# 3 18.1690 11.2684 82.7565 0.0000 0.0000 0.0000
# 4 0.0000 0.0000 0.0000 14.8660 0.0000 0.0000
# 5 0.0000 0.0000 0.0000 0.0000 10.4147 0.0000
# 6 0.0000 0.0000 0.0000 0.0000 0.0000 10.1915
#
#
#
# Elastic Compliance Matrix: (Units=1/GPa)
#
#
# Indices 1 2 3 4 5 6 
#
# 1 0.014974 -0.002455 -0.002953 0.000000 0.000000 0.000000
# 2 -0.002455 0.008101 -0.000564 0.000000 0.000000 0.000000
# 3 -0.002953 -0.000564 0.012809 0.000000 0.000000 0.000000
# 4 0.000000 0.000000 0.000000 0.067268 0.000000 0.000000
# 5 0.000000 0.000000 0.000000 0.000000 0.096018 0.000000
# 6 0.000000 0.000000 0.000000 0.000000 0.000000 0.098121
#
#
# Mechanical properties :
#
#
# Convention : Reuss Voigt Hill
#
# Bulk Modulus (GPa) = 41.77241 43.87321 42.82281
# Shear Modulus (GPa) = 15.76217 22.77685 19.26951
#
# Velocity S-wave (km/s) = 2.73445 3.28707 3.02341
# Velocity P-wave (km/s) = 5.45761 5.93455 5.70107
#
# Compressibility (1/GPa) = 0.02393924
#
# Stress axis : x y z
#
# Youngs Moduli (GPa) = 66.78464 123.43425 78.07126
#
# Poissons Ratio (x) = 0.30303 0.23055
# Poissons Ratio (y) = 0.16396 0.04404
# Poissons Ratio (z) = 0.19722 0.06963
#
# Static dielectric constant tensor:
#      x y z
#    x 1.790860 0.000000 0.000000 
#    y 0.000000 1.801780 0.000000 
#    z 0.000000 0.000000 1.785300 
# 
# From -- ./inp_files/8217.got.cif
#   From: 2010.05.17/outbox.cif.g08.bks.cpg/sg61_5_cif.got.tgz:8217.got - 2010.06.03 15:17:17.
