data_PCOD9459835
_publ_section_title
;
Structure prediction by ZEFSAII (Michael W. Deem and Ramdas Pophale) SiO2 
 PCOD9459835
Probable space group: P B C A
;
_chemical_formula_sum "Si O2"
_cell_formula_units_Z 56
_cell_length_a 20.344764
_cell_length_b 10.729411
_cell_length_c 11.592142
_cell_angle_alpha 90.000000
_cell_angle_beta 90.000000
_cell_angle_gamma 90.000000
_cell_volume 2530.417780
_symmetry_space_group_name_H-M "P B C A"
_symmetry_group_IT_number 61
_symmetry_cell_setting 'orthorhombic'
loop_
_space_group_symop_operation_xyz
x,y,z
1/2-x,-y,1/2+z
1/2+x,1/2-y,-z
-x,1/2+y,1/2-z
-x,-y,-z
1/2+x,y,1/2-z
1/2-x,1/2+y,z
x,1/2-y,1/2+z
loop_
_atom_site_type_symbol
_atom_site_label
_atom_site_fract_x
_atom_site_fract_y
_atom_site_fract_z
Si Si1 0.549365 0.635295 0.575852
Si Si2 0.249761 0.461814 0.751818
Si Si3 0.574803 0.254446 0.314096
Si Si4 0.651693 0.065212 0.451936
Si Si5 0.696022 0.206942 0.667695
Si Si6 0.613329 0.615206 0.154626
Si Si7 0.494520 0.097789 0.169592
O O1 0.473094 0.675209 0.599444
O O2 0.596158 0.741080 0.626961
O O3 0.552922 0.617704 0.439301
O O4 0.550062 0.502592 0.638038
O O5 0.214230 0.465783 0.628169
O O6 0.249771 0.600634 0.805222
O O7 0.213860 0.351340 0.822175
O O8 0.324509 0.411479 0.763295
O O9 0.595759 0.123491 0.371391
O O10 0.640886 0.315170 0.266579
O O11 0.530308 0.225149 0.202992
O O12 0.670277 0.174240 0.541656
O O13 0.628549 0.953400 0.534013
O O14 0.549508 0.562103 0.220284
#
# Coordination Sequence:
#
# PCOD9459835 Si02
#       7
#     8   8   8   8   8   8   8
#     4  10  21  37  60  88 125 162 201 259 316 368
#     4  10  23  40  61  89 121 160 212 259 308 370
#     4  10  21  38  61  86 119 161 205 247 307 377
#     4  10  22  40  61  86 122 164 203 257 316 366
#     4  10  22  40  61  88 121 161 209 258 309 373
#     4  10  23  40  61  90 124 166 212 258 315 385
#     4  10  22  38  59  93 126 161 206 257 313 379
#
# _framework density 22.130732999999999
#
# number of rings (size 3 to 8) (size 9 to 14) (size 15 to 20)
#    0.000    2.000    0.000    2.571    0.000   14.857 
#    0.000    8.571    0.000    0.000    0.000    0.000 
#    0.000    0.000    0.000    0.000    0.000    0.000 
#
# Total GULP energy -312417.899302 kJ/mol
# GULP energy per Si atom -5578.891059 kJ/mol
# Density = 2.208036 g / cm^3
# Si number density = 22.130733 Si / 1000 Ang^3
#
#
#
# Elastic Constant Matrix: (Units=GPa)
#
#
# Indices 1 2 3 4 5 6 
#
# 1 43.9949 7.7694 14.6373 0.0000 0.0000 0.0000
# 2 7.7694 58.5812 17.7811 0.0000 0.0000 0.0000
# 3 14.6373 17.7811 91.0779 0.0000 0.0000 0.0000
# 4 0.0000 0.0000 0.0000 32.5535 0.0000 0.0000
# 5 0.0000 0.0000 0.0000 0.0000 38.8844 0.0000
# 6 0.0000 0.0000 0.0000 0.0000 0.0000 34.8472
#
#
#
# Elastic Compliance Matrix: (Units=1/GPa)
#
#
# Indices 1 2 3 4 5 6 
#
# 1 0.024269 -0.002163 -0.003478 0.000000 0.000000 0.000000
# 2 -0.002163 0.018338 -0.003233 0.000000 0.000000 0.000000
# 3 -0.003478 -0.003233 0.012170 0.000000 0.000000 0.000000
# 4 0.000000 0.000000 0.000000 0.030719 0.000000 0.000000
# 5 0.000000 0.000000 0.000000 0.000000 0.025717 0.000000
# 6 0.000000 0.000000 0.000000 0.000000 0.000000 0.028697
#
#
# Mechanical properties :
#
#
# Convention : Reuss Voigt Hill
#
# Bulk Modulus (GPa) = 27.00524 30.44773 28.72649
# Shear Modulus (GPa) = 29.41173 31.48810 30.44991
#
# Velocity S-wave (km/s) = 3.64950 3.77612 3.71335
# Velocity P-wave (km/s) = 5.47609 5.72714 5.60302
#
# Compressibility (1/GPa) = 0.03702984
#
# Stress axis : x y z
#
# Youngs Moduli (GPa) = 41.20478 54.53048 82.17156
#
# Poissons Ratio (x) = 0.11795 0.28580
# Poissons Ratio (y) = 0.08913 0.26563
# Poissons Ratio (z) = 0.14331 0.17627
#
# Static dielectric constant tensor:
#      x y z
#    x 1.846480 0.000000 0.000000 
#    y 0.000000 1.849010 0.000000 
#    z 0.000000 0.000000 1.819190 
# 
# From -- ./inp_files/6607.got.cif
#   From: 2010.05.17/outbox.cif.g08.bks.cpg/sg61_4_cif.got.tgz:6607.got - 2010.06.03 15:17:17.
