data_PCOD9459867
_publ_section_title
;
Structure prediction by ZEFSAII (Michael W. Deem and Ramdas Pophale) SiO2 
 PCOD9459867
Probable space group: P B C A
;
_chemical_formula_sum "Si O2"
_cell_formula_units_Z 64
_cell_length_a 7.929743
_cell_length_b 20.772640
_cell_length_c 17.969763
_cell_angle_alpha 90.000000
_cell_angle_beta 90.000000
_cell_angle_gamma 90.000000
_cell_volume 2960.009849
_symmetry_space_group_name_H-M "P B C A"
_symmetry_group_IT_number 61
_symmetry_cell_setting 'orthorhombic'
loop_
_space_group_symop_operation_xyz
x,y,z
1/2-x,-y,1/2+z
1/2+x,1/2-y,-z
-x,1/2+y,1/2-z
-x,-y,-z
1/2+x,y,1/2-z
1/2-x,1/2+y,z
x,1/2-y,1/2+z
loop_
_atom_site_type_symbol
_atom_site_label
_atom_site_fract_x
_atom_site_fract_y
_atom_site_fract_z
Si Si1 0.900198 0.891743 0.633802
Si Si2 0.098827 0.240490 0.866253
Si Si3 0.951204 0.239567 0.720912
Si Si4 0.219621 0.692350 0.003669
Si Si5 0.545884 0.608794 0.219075
Si Si6 0.365302 0.812575 0.084803
Si Si7 0.370495 0.930609 0.575579
Si Si8 0.730009 0.563899 0.991554
O O1 0.921059 0.816101 0.613647
O O2 0.037129 0.912125 0.694980
O O3 0.729965 0.895591 0.683433
O O4 0.864269 0.931866 0.559606
O O5 0.958682 0.219850 0.807005
O O6 0.268615 0.236628 0.816172
O O7 0.138711 0.199176 0.938689
O O8 0.002742 0.315218 0.718127
O O9 0.075570 0.199312 0.668741
O O10 0.042198 0.691879 0.961252
O O11 0.248024 0.755058 0.054256
O O12 0.256366 0.629576 0.051893
O O13 0.424701 0.572334 0.161569
O O14 0.279139 0.879609 0.064834
O O15 0.547759 0.923782 0.530053
O O16 0.283886 0.995981 0.549095
#
# Coordination Sequence:
#
# PCOD9459867 Si02
#       8
#     8   8   8   8   8   8   8   8
#     4   9  17  32  52  77 105 137 180 222 266 322
#     4   9  18  32  51  78 108 137 176 224 269 321
#     4   9  18  32  51  78 108 137 176 224 269 321
#     4  11  21  35  56  82 111 140 179 226 271 321
#     4   9  17  32  52  77 105 137 180 222 266 322
#     4  11  21  35  56  82 111 140 179 226 271 321
#     4  10  21  38  57  79 111 148 184 223 272 327
#     4  10  21  38  57  79 111 148 184 223 272 327
#
# _framework density 21.621549000000002
#
# number of rings (size 3 to 8) (size 9 to 14) (size 15 to 20)
#    0.000    2.250    2.500    0.750    0.000    3.500 
#    0.000    1.250    0.000    6.000    0.000    0.000 
#    0.000    0.000    0.000    0.000    0.000    0.000 
#
# Total GULP energy -357871.699691 kJ/mol
# GULP energy per Si atom -5591.745308 kJ/mol
# Density = 2.157234 g / cm^3
# Si number density = 21.621549 Si / 1000 Ang^3
#
#
#
# Elastic Constant Matrix: (Units=GPa)
#
#
# Indices 1 2 3 4 5 6 
#
# 1 67.5026 18.2374 2.8984 0.0000 0.0000 0.0000
# 2 18.2374 67.1874 14.1978 0.0000 0.0000 0.0000
# 3 2.8984 14.1978 105.8906 0.0000 0.0000 0.0000
# 4 0.0000 0.0000 0.0000 28.2676 0.0000 0.0000
# 5 0.0000 0.0000 0.0000 0.0000 40.6034 0.0000
# 6 0.0000 0.0000 0.0000 0.0000 0.0000 15.0674
#
#
#
# Elastic Compliance Matrix: (Units=1/GPa)
#
#
# Indices 1 2 3 4 5 6 
#
# 1 0.015989 -0.004371 0.000148 0.000000 0.000000 0.000000
# 2 -0.004371 0.016513 -0.002094 0.000000 0.000000 0.000000
# 3 0.000148 -0.002094 0.009720 0.000000 0.000000 0.000000
# 4 0.000000 0.000000 0.000000 0.035376 0.000000 0.000000
# 5 0.000000 0.000000 0.000000 0.000000 0.024628 0.000000
# 6 0.000000 0.000000 0.000000 0.000000 0.000000 0.066369
#
#
# Mechanical properties :
#
#
# Convention : Reuss Voigt Hill
#
# Bulk Modulus (GPa) = 33.79795 34.58310 34.19052
# Shear Modulus (GPa) = 26.16529 30.47080 28.31805
#
# Velocity S-wave (km/s) = 3.48249 3.75811 3.62292
# Velocity P-wave (km/s) = 5.64233 5.90429 5.77480
#
# Compressibility (1/GPa) = 0.02958760
#
# Stress axis : x y z
#
# Youngs Moduli (GPa) = 62.54330 60.55866 102.87576
#
# Poissons Ratio (x) = 0.26473 -0.01528
# Poissons Ratio (y) = 0.27340 0.21546
# Poissons Ratio (z) = -0.00929 0.12683
#
# Static dielectric constant tensor:
#      x y z
#    x 1.904470 0.000000 0.000000 
#    y 0.000000 1.702620 0.000000 
#    z 0.000000 0.000000 1.801330 
# 
# From -- ./inp_files/4059.got.cif
#   From: 2010.05.17/outbox.cif.g08.bks.cpg/sg61_3_cif.got.tgz:4059.got - 2010.06.03 15:17:17.
