data_PCOD9459531
_publ_section_title
;
Structure prediction by ZEFSAII (Michael W. Deem and Ramdas Pophale) SiO2 
 PCOD9459531
Probable space group: P B C A
;
_chemical_formula_sum "Si O2"
_cell_formula_units_Z 48
_cell_length_a 8.241645
_cell_length_b 10.416851
_cell_length_c 20.549452
_cell_angle_alpha 90.000000
_cell_angle_beta 90.000000
_cell_angle_gamma 90.000000
_cell_volume 1764.211306
_symmetry_space_group_name_H-M "P B C A"
_symmetry_group_IT_number 61
_symmetry_cell_setting 'orthorhombic'
loop_
_space_group_symop_operation_xyz
x,y,z
1/2-x,-y,1/2+z
1/2+x,1/2-y,-z
-x,1/2+y,1/2-z
-x,-y,-z
1/2+x,y,1/2-z
1/2-x,1/2+y,z
x,1/2-y,1/2+z
loop_
_atom_site_type_symbol
_atom_site_label
_atom_site_fract_x
_atom_site_fract_y
_atom_site_fract_z
Si Si1 0.752692 0.594747 0.937640
Si Si2 0.379428 0.157833 0.015481
Si Si3 0.086534 0.040379 0.874613
Si Si4 0.137747 0.749251 0.376928
Si Si5 0.409031 0.625226 0.219271
Si Si6 0.429437 0.085515 0.153038
O O1 0.808804 0.485390 0.987812
O O2 0.754868 0.736532 0.966307
O O3 0.852270 0.548838 0.873147
O O4 0.438795 0.429176 0.076655
O O5 0.472801 0.151632 0.084350
O O6 0.436170 0.195182 0.944367
O O7 0.162169 0.901966 0.892308
O O8 0.990540 0.005844 0.808252
O O9 0.216353 0.151746 0.865318
O O10 0.021629 0.734090 0.313873
O O11 0.427394 0.606373 0.295947
O O12 0.229395 0.642314 0.190287
#
# Coordination Sequence:
#
# PCOD9459531 Si02
#       6
#     8   8   8   8   8   8
#     4   9  21  40  61  88 127 166 209 265 323 384
#     4  10  20  37  64  94 124 165 212 263 327 385
#     4   9  21  40  61  88 127 166 209 265 323 384
#     4  10  20  37  64  94 124 165 212 263 327 385
#     4   9  21  41  62  90 129 171 218 271 324 389
#     4   9  21  41  62  90 129 171 218 271 324 389
#
# _framework density 27.207626000000001
#
# number of rings (size 3 to 8) (size 9 to 14) (size 15 to 20)
#    2.000    0.667    0.000    1.000    0.000    6.667 
#    0.000   10.000    0.000   10.000    0.000    0.000 
#    0.000    0.000    0.000    0.000    0.000    0.000 
#
# Total GULP energy -267850.415591 kJ/mol
# GULP energy per Si atom -5580.216991 kJ/mol
# Density = 2.714570 g / cm^3
# Si number density = 27.207626 Si / 1000 Ang^3
#
#
#
# Elastic Constant Matrix: (Units=GPa)
#
#
# Indices 1 2 3 4 5 6 
#
# 1 95.1849 18.3480 45.7914 0.0000 0.0000 0.0000
# 2 18.3480 68.9091 27.0659 0.0000 0.0000 0.0000
# 3 45.7914 27.0659 179.6344 0.0000 0.0000 0.0000
# 4 0.0000 0.0000 0.0000 31.3986 0.0000 0.0000
# 5 0.0000 0.0000 0.0000 0.0000 35.2639 0.0000
# 6 0.0000 0.0000 0.0000 0.0000 0.0000 38.5942
#
#
#
# Elastic Compliance Matrix: (Units=1/GPa)
#
#
# Indices 1 2 3 4 5 6 
#
# 1 0.012271 -0.002167 -0.002802 0.000000 0.000000 0.000000
# 2 -0.002167 0.015807 -0.001829 0.000000 0.000000 0.000000
# 3 -0.002802 -0.001829 0.006557 0.000000 0.000000 0.000000
# 4 0.000000 0.000000 0.000000 0.031849 0.000000 0.000000
# 5 0.000000 0.000000 0.000000 0.000000 0.028358 0.000000
# 6 0.000000 0.000000 0.000000 0.000000 0.000000 0.025911
#
#
# Mechanical properties :
#
#
# Convention : Reuss Voigt Hill
#
# Bulk Modulus (GPa) = 47.52969 58.45989 52.99479
# Shear Modulus (GPa) = 35.37033 37.88621 36.62827
#
# Velocity S-wave (km/s) = 3.60948 3.73565 3.67311
# Velocity P-wave (km/s) = 5.90579 6.33561 6.12447
#
# Compressibility (1/GPa) = 0.02103948
#
# Stress axis : x y z
#
# Youngs Moduli (GPa) = 81.49028 63.26155 152.51642
#
# Poissons Ratio (x) = 0.13709 0.42730
# Poissons Ratio (y) = 0.17659 0.27900
# Poissons Ratio (z) = 0.22831 0.11573
#
# Static dielectric constant tensor:
#      x y z
#    x 2.178840 0.000000 0.000000 
#    y 0.000000 2.124720 0.000000 
#    z 0.000000 0.000000 2.124640 
# 
# From -- ./inp_files/10270.got.cif
#   From: 2010.05.17/outbox.cif.g08.bks.cpg/sg61_6_cif.got.tgz:10270.got - 2010.06.03 15:17:17.
