data_PCOD9459865
_publ_section_title
;
Structure prediction by ZEFSAII (Michael W. Deem and Ramdas Pophale) SiO2 
 PCOD9459865
Probable space group: P B C A
;
_chemical_formula_sum "Si O2"
_cell_formula_units_Z 56
_cell_length_a 5.377515
_cell_length_b 13.985160
_cell_length_c 31.221527
_cell_angle_alpha 90.000000
_cell_angle_beta 90.000000
_cell_angle_gamma 90.000000
_cell_volume 2348.027666
_symmetry_space_group_name_H-M "P B C A"
_symmetry_group_IT_number 61
_symmetry_cell_setting 'orthorhombic'
loop_
_space_group_symop_operation_xyz
x,y,z
1/2-x,-y,1/2+z
1/2+x,1/2-y,-z
-x,1/2+y,1/2-z
-x,-y,-z
1/2+x,y,1/2-z
1/2-x,1/2+y,z
x,1/2-y,1/2+z
loop_
_atom_site_type_symbol
_atom_site_label
_atom_site_fract_x
_atom_site_fract_y
_atom_site_fract_z
Si Si1 0.590146 0.627022 0.634941
Si Si2 0.914198 0.591538 0.238975
Si Si3 0.396706 0.894503 0.860089
Si Si4 0.564473 0.191104 0.499298
Si Si5 0.407951 0.119213 0.590997
Si Si6 0.896620 0.608391 0.405708
Si Si7 0.580881 0.198137 0.772711
O O1 0.600228 0.510788 0.636648
O O2 0.368414 0.655667 0.602263
O O3 0.505058 0.663863 0.681036
O O4 0.865842 0.657304 0.620327
O O5 0.163786 0.536432 0.250122
O O6 0.915146 0.625084 0.190163
O O7 0.915667 0.685575 0.269024
O O8 0.635861 0.857775 0.885929
O O9 0.138866 0.858330 0.879820
O O10 0.339435 0.266436 0.493594
O O11 0.483745 0.135831 0.542020
O O12 0.578037 0.132375 0.455486
O O13 0.395634 0.006019 0.598686
O O14 0.359865 0.169190 0.740122
#
# Coordination Sequence:
#
# PCOD9459865 Si02
#       7
#     8   8   8   8   8   8   8
#     4  10  21  39  64  91 118 162 216 257 299 364
#     4  10  21  38  54  85 122 158 206 245 316 367
#     4  10  21  39  64  91 118 162 216 257 299 364
#     4  12  25  44  61 102 132 160 206 254 309 374
#     4  10  22  43  67  91 125 169 208 252 311 366
#     4  10  22  43  67  91 125 169 208 252 311 366
#     4  10  21  38  54  85 122 158 206 245 316 367
#
# _framework density 23.849802
#
# number of rings (size 3 to 8) (size 9 to 14) (size 15 to 20)
#    0.000    1.714    0.000    3.857    0.000    1.143 
#   30.857    5.714    0.000    0.000    0.000    0.000 
#    0.000    0.000    0.000    0.000    0.000    0.000 
#
# Total GULP energy -313611.465855 kJ/mol
# GULP energy per Si atom -5600.204747 kJ/mol
# Density = 2.379552 g / cm^3
# Si number density = 23.849802 Si / 1000 Ang^3
#
#
#
# Elastic Constant Matrix: (Units=GPa)
#
#
# Indices 1 2 3 4 5 6 
#
# 1 186.7424 20.6796 71.2431 0.0000 0.0000 0.0000
# 2 20.6796 55.7084 -20.5630 0.0000 0.0000 0.0000
# 3 71.2431 -20.5630 118.5642 0.0000 0.0000 0.0000
# 4 0.0000 0.0000 0.0000 36.7240 0.0000 0.0000
# 5 0.0000 0.0000 0.0000 0.0000 55.4408 0.0000
# 6 0.0000 0.0000 0.0000 0.0000 0.0000 21.0441
#
#
#
# Elastic Compliance Matrix: (Units=1/GPa)
#
#
# Indices 1 2 3 4 5 6 
#
# 1 0.008130 -0.005151 -0.005778 0.000000 0.000000 0.000000
# 2 -0.005151 0.022442 0.006987 0.000000 0.000000 0.000000
# 3 -0.005778 0.006987 0.013118 0.000000 0.000000 0.000000
# 4 0.000000 0.000000 0.000000 0.027230 0.000000 0.000000
# 5 0.000000 0.000000 0.000000 0.000000 0.018037 0.000000
# 6 0.000000 0.000000 0.000000 0.000000 0.000000 0.047519
#
#
# Mechanical properties :
#
#
# Convention : Reuss Voigt Hill
#
# Bulk Modulus (GPa) = 27.92849 55.97050 41.94949
# Shear Modulus (GPa) = 31.99061 41.95211 36.97136
#
# Velocity S-wave (km/s) = 3.66640 4.19861 3.94150
# Velocity P-wave (km/s) = 5.44600 6.85735 6.19202
#
# Compressibility (1/GPa) = 0.03580573
#
# Stress axis : x y z
#
# Youngs Moduli (GPa) = 123.00341 44.55977 76.22999
#
# Poissons Ratio (x) = 0.22952 0.44049
# Poissons Ratio (y) = 0.63357 -0.53263
# Poissons Ratio (z) = 0.71076 -0.31135
#
# Static dielectric constant tensor:
#      x y z
#    x 1.945520 0.000000 0.000000 
#    y 0.000000 1.928950 0.000000 
#    z 0.000000 0.000000 1.838670 
# 
# From -- ./inp_files/11602.got.cif
#   From: 2010.05.17/outbox.cif.g08.bks.cpg/sg61_6_cif.got.tgz:11602.got - 2010.06.03 15:17:17.
