data_PCOD9459498
_publ_section_title
;
Structure prediction by ZEFSAII (Michael W. Deem and Ramdas Pophale) SiO2 
 PCOD9459498
Probable space group: P B C A
;
_chemical_formula_sum "Si O2"
_cell_formula_units_Z 64
_cell_length_a 22.317190
_cell_length_b 5.512234
_cell_length_c 24.144260
_cell_angle_alpha 90.000000
_cell_angle_beta 90.000000
_cell_angle_gamma 90.000000
_cell_volume 2970.168279
_symmetry_space_group_name_H-M "P B C A"
_symmetry_group_IT_number 61
_symmetry_cell_setting 'orthorhombic'
loop_
_space_group_symop_operation_xyz
x,y,z
1/2-x,-y,1/2+z
1/2+x,1/2-y,-z
-x,1/2+y,1/2-z
-x,-y,-z
1/2+x,y,1/2-z
1/2-x,1/2+y,z
x,1/2-y,1/2+z
loop_
_atom_site_type_symbol
_atom_site_label
_atom_site_fract_x
_atom_site_fract_y
_atom_site_fract_z
Si Si1 0.904592 0.531782 0.950923
Si Si2 0.007028 0.154116 0.116493
Si Si3 0.533660 0.503959 0.766619
Si Si4 0.162458 0.655336 0.498737
Si Si5 0.897808 0.463476 0.162723
Si Si6 0.731330 0.374136 0.415925
Si Si7 0.785454 0.098535 0.600094
Si Si8 0.424236 0.802209 0.439123
O O1 0.951962 0.631219 0.907224
O O2 0.838426 0.639380 0.933925
O O3 0.887249 0.249866 0.957966
O O4 0.930935 0.615548 0.010339
O O5 0.040248 0.024977 0.167675
O O6 0.946547 0.268207 0.142222
O O7 0.982145 0.970662 0.070298
O O8 0.504129 0.767194 0.754222
O O9 0.590981 0.487637 0.726866
O O10 0.223187 0.598119 0.531236
O O11 0.132611 0.456931 0.460122
O O12 0.177558 0.873742 0.456923
O O13 0.831621 0.377752 0.149981
O O14 0.910178 0.685460 0.120458
O O15 0.745229 0.630777 0.386633
O O16 0.755785 0.835906 0.600855
#
# Coordination Sequence:
#
# PCOD9459498 Si02
#       8
#     8   8   8   8   8   8   8   8
#     4  11  23  36  57  91 132 166 207 259 317 392
#     4  11  24  40  62  92 127 174 211 259 324 384
#     4  10  22  44  68  89 118 164 214 256 308 379
#     4  11  22  35  57  86 129 170 211 254 317 386
#     4  11  24  40  64  91 129 165 217 271 327 383
#     4  10  20  37  56  80 120 167 212 244 298 369
#     4  12  24  37  63  93 127 163 211 267 328 382
#     4  12  20  39  56  92 130 165 203 263 327 385
#
# _framework density 21.547601
#
# number of rings (size 3 to 8) (size 9 to 14) (size 15 to 20)
#    0.000    1.000    5.000    2.625    0.000    3.000 
#    0.000    0.000    0.000    3.000    0.000    0.000 
#    0.000    0.000    0.000    0.000    0.000    0.000 
#
# Total GULP energy -357329.011046 kJ/mol
# GULP energy per Si atom -5583.265798 kJ/mol
# Density = 2.149856 g / cm^3
# Si number density = 21.547601 Si / 1000 Ang^3
#
#
#
# Elastic Constant Matrix: (Units=GPa)
#
#
# Indices 1 2 3 4 5 6 
#
# 1 65.7972 24.2318 23.5273 0.0000 0.0000 0.0000
# 2 24.2318 76.9318 -6.6211 0.0000 0.0000 0.0000
# 3 23.5273 -6.6211 36.0144 0.0000 0.0000 0.0000
# 4 0.0000 0.0000 0.0000 16.7364 0.0000 0.0000
# 5 0.0000 0.0000 0.0000 0.0000 16.1235 0.0000
# 6 0.0000 0.0000 0.0000 0.0000 0.0000 36.0523
#
#
#
# Elastic Compliance Matrix: (Units=1/GPa)
#
#
# Indices 1 2 3 4 5 6 
#
# 1 0.025217 -0.009511 -0.018222 0.000000 0.000000 0.000000
# 2 -0.009511 0.016795 0.009301 0.000000 0.000000 0.000000
# 3 -0.018222 0.009301 0.041380 0.000000 0.000000 0.000000
# 4 0.000000 0.000000 0.000000 0.059750 0.000000 0.000000
# 5 0.000000 0.000000 0.000000 0.000000 0.062021 0.000000
# 6 0.000000 0.000000 0.000000 0.000000 0.000000 0.027737
#
#
# Mechanical properties :
#
#
# Convention : Reuss Voigt Hill
#
# Bulk Modulus (GPa) = 21.49247 29.00215 25.24731
# Shear Modulus (GPa) = 17.52703 22.95613 20.24158
#
# Velocity S-wave (km/s) = 2.85513 3.26754 3.06827
# Velocity P-wave (km/s) = 4.56783 5.26541 4.92898
#
# Compressibility (1/GPa) = 0.04652792
#
# Stress axis : x y z
#
# Youngs Moduli (GPa) = 39.65650 59.54256 24.16600
#
# Poissons Ratio (x) = 0.56630 0.44035
# Poissons Ratio (y) = 0.37717 -0.22476
# Poissons Ratio (z) = 0.72262 -0.55380
#
# Static dielectric constant tensor:
#      x y z
#    x 1.828970 0.000000 0.000000 
#    y 0.000000 1.934160 0.000000 
#    z 0.000000 0.000000 1.782080 
# 
# From -- ./inp_files/11173.got.cif
#   From: 2010.05.17/outbox.cif.g08.bks.cpg/sg61_6_cif.got.tgz:11173.got - 2010.06.03 15:17:17.
