data_PCOD9459138
_publ_section_title
;
Structure prediction by ZEFSAII (Michael W. Deem and Ramdas Pophale) SiO2 
 PCOD9459138
Probable space group: P B C A
;
_chemical_formula_sum "Si O2"
_cell_formula_units_Z 64
_cell_length_a 26.867055
_cell_length_b 5.528316
_cell_length_c 24.577580
_cell_angle_alpha 90.000000
_cell_angle_beta 90.000000
_cell_angle_gamma 90.000000
_cell_volume 3650.497390
_symmetry_space_group_name_H-M "P B C A"
_symmetry_group_IT_number 61
_symmetry_cell_setting 'orthorhombic'
loop_
_space_group_symop_operation_xyz
x,y,z
1/2-x,-y,1/2+z
1/2+x,1/2-y,-z
-x,1/2+y,1/2-z
-x,-y,-z
1/2+x,y,1/2-z
1/2-x,1/2+y,z
x,1/2-y,1/2+z
loop_
_atom_site_type_symbol
_atom_site_label
_atom_site_fract_x
_atom_site_fract_y
_atom_site_fract_z
Si Si1 0.277051 0.055280 0.582932
Si Si2 0.960708 0.756319 0.061041
Si Si3 0.260888 0.938354 0.959983
Si Si4 0.629631 0.482932 0.495556
Si Si5 0.617669 0.157166 0.395338
Si Si6 0.984582 0.738516 0.182113
Si Si7 0.546169 0.261112 0.801767
Si Si8 0.558216 0.861267 0.477893
O O1 0.245501 0.815387 0.599862
O O2 0.271541 0.057783 0.516468
O O3 0.333113 0.009378 0.603452
O O4 0.915112 0.634532 0.030089
O O5 0.955939 0.743108 0.125089
O O6 0.016861 0.675110 0.044637
O O7 0.960864 0.023105 0.034022
O O8 0.250350 0.188969 0.930442
O O9 0.318030 0.939183 0.977545
O O10 0.631473 0.380205 0.434558
O O11 0.612011 0.756024 0.491953
O O12 0.596651 0.227779 0.336695
O O13 0.571280 0.037549 0.428083
O O14 0.017216 0.489727 0.183518
O O15 0.950758 0.738197 0.236211
O O16 0.016429 0.988510 0.184887
#
# Coordination Sequence:
#
# PCOD9459138 Si02
#       8
#     8   8   8   8   8   8   8   8
#     4  10  19  31  48  73 105 137 165 219 271 319
#     4  10  21  32  49  76 110 148 173 220 255 324
#     4  10  19  34  49  70 104 138 171 217 262 317
#     4  11  21  30  52  76 109 146 176 213 273 330
#     4  11  20  31  53  78 107 140 183 216 271 331
#     4  10  21  40  54  74 109 139 186 217 266 300
#     4  10  22  36  58  77  98 147 179 228 257 317
#     4  10  20  32  47  77 111 142 176 209 267 315
#
# _framework density 17.531856999999999
#
# number of rings (size 3 to 8) (size 9 to 14) (size 15 to 20)
#    0.000    1.750    3.750    2.625    3.500    0.000 
#    0.000    0.000    0.000    0.000    0.000    1.750 
#    0.000    0.000    0.000    0.000    0.000    0.000 
#
# Total GULP energy -356326.577983 kJ/mol
# GULP energy per Si atom -5567.602781 kJ/mol
# Density = 1.749195 g / cm^3
# Si number density = 17.531857 Si / 1000 Ang^3
#
#
#
# Elastic Constant Matrix: (Units=GPa)
#
#
# Indices 1 2 3 4 5 6 
#
# 1 84.2768 20.8438 31.8150 0.0000 0.0000 0.0000
# 2 20.8438 95.2101 20.0290 0.0000 0.0000 0.0000
# 3 31.8150 20.0290 93.0416 0.0000 0.0000 0.0000
# 4 0.0000 0.0000 0.0000 11.2942 0.0000 0.0000
# 5 0.0000 0.0000 0.0000 0.0000 10.5505 0.0000
# 6 0.0000 0.0000 0.0000 0.0000 0.0000 27.7245
#
#
#
# Elastic Compliance Matrix: (Units=1/GPa)
#
#
# Indices 1 2 3 4 5 6 
#
# 1 0.014036 -0.002161 -0.004334 0.000000 0.000000 0.000000
# 2 -0.002161 0.011334 -0.001701 0.000000 0.000000 0.000000
# 3 -0.004334 -0.001701 0.012596 0.000000 0.000000 0.000000
# 4 0.000000 0.000000 0.000000 0.088541 0.000000 0.000000
# 5 0.000000 0.000000 0.000000 0.000000 0.094782 0.000000
# 6 0.000000 0.000000 0.000000 0.000000 0.000000 0.036069
#
#
# Mechanical properties :
#
#
# Convention : Reuss Voigt Hill
#
# Bulk Modulus (GPa) = 46.35267 46.43380 46.39323
# Shear Modulus (GPa) = 17.79722 23.23655 20.51688
#
# Velocity S-wave (km/s) = 3.18958 3.64454 3.42462
# Velocity P-wave (km/s) = 6.32938 6.65230 6.49285
#
# Compressibility (1/GPa) = 0.02157373
#
# Stress axis : x y z
#
# Youngs Moduli (GPa) = 71.24308 88.22995 79.38921
#
# Poissons Ratio (x) = 0.19067 0.34411
# Poissons Ratio (y) = 0.15396 0.13503
# Poissons Ratio (z) = 0.30880 0.15007
#
# Static dielectric constant tensor:
#      x y z
#    x 1.651970 0.000000 0.000000 
#    y 0.000000 1.738280 0.000000 
#    z 0.000000 0.000000 1.564010 
# 
# From -- ./inp_files/10669.got.cif
#   From: 2010.05.17/outbox.cif.g08.bks.cpg/sg61_6_cif.got.tgz:10669.got - 2010.06.03 15:17:17.
