data_PCOD9459032
_publ_section_title
;
Structure prediction by ZEFSAII (Michael W. Deem and Ramdas Pophale) SiO2 
 PCOD9459032
Probable space group: P B C A
;
_chemical_formula_sum "Si O2"
_cell_formula_units_Z 56
_cell_length_a 30.347485
_cell_length_b 5.412267
_cell_length_c 12.693505
_cell_angle_alpha 90.000000
_cell_angle_beta 90.000000
_cell_angle_gamma 90.000000
_cell_volume 2084.891588
_symmetry_space_group_name_H-M "P B C A"
_symmetry_group_IT_number 61
_symmetry_cell_setting 'orthorhombic'
loop_
_space_group_symop_operation_xyz
x,y,z
1/2-x,-y,1/2+z
1/2+x,1/2-y,-z
-x,1/2+y,1/2-z
-x,-y,-z
1/2+x,y,1/2-z
1/2-x,1/2+y,z
x,1/2-y,1/2+z
loop_
_atom_site_type_symbol
_atom_site_label
_atom_site_fract_x
_atom_site_fract_y
_atom_site_fract_z
Si Si1 0.772105 0.088345 0.742909
Si Si2 0.491497 0.035310 0.315738
Si Si3 0.920719 0.881374 0.915600
Si Si4 0.389563 0.085663 0.325657
Si Si5 0.122788 0.615065 0.069571
Si Si6 0.724498 0.903667 0.987743
Si Si7 0.136934 0.409737 0.787768
O O1 0.736782 0.874449 0.769142
O O2 0.775477 0.088766 0.615337
O O3 0.818996 0.974354 0.776015
O O4 0.503240 0.773533 0.261302
O O5 0.527450 0.081077 0.406055
O O6 0.440551 0.032003 0.348201
O O7 0.895525 0.116176 0.963395
O O8 0.903004 0.876532 0.794110
O O9 0.906853 0.620117 0.963026
O O10 0.384183 0.116751 0.197744
O O11 0.358944 0.849249 0.348121
O O12 0.373625 0.355834 0.359993
O O13 0.174325 0.574547 0.049955
O O14 0.754084 0.140351 0.957095
#
# Coordination Sequence:
#
# PCOD9459032 Si02
#       7
#     8   8   8   8   8   8   8
#     4  10  21  37  54  70  91 127 172 209 242 285
#     4  12  16  30  48  74 106 134 160 188 226 292
#     4  10  19  30  48  77 103 129 156 191 244 291
#     4  10  19  30  48  77 103 129 156 191 244 291
#     4  10  18  32  48  72 101 124 160 204 238 290
#     4  10  21  37  54  70  91 127 172 209 242 285
#     4  10  18  32  48  72 101 124 160 204 238 290
#
# _framework density 26.859911
#
# number of rings (size 3 to 8) (size 9 to 14) (size 15 to 20)
#    0.000    1.714    5.714    1.714    0.000    0.000 
#    0.000   17.143    0.000    0.000    0.000   11.000 
#    0.000    0.000    0.000    0.000    0.000    0.000 
#
# Total GULP energy -313918.472255 kJ/mol
# GULP energy per Si atom -5605.687005 kJ/mol
# Density = 2.679878 g / cm^3
# Si number density = 26.859911 Si / 1000 Ang^3
#
#
#
# Elastic Constant Matrix: (Units=GPa)
#
#
# Indices 1 2 3 4 5 6 
#
# 1 182.2291 57.4529 15.2143 0.0000 0.0000 0.0000
# 2 57.4529 233.4811 17.9241 0.0000 0.0000 0.0000
# 3 15.2143 17.9241 53.2665 0.0000 0.0000 0.0000
# 4 0.0000 0.0000 0.0000 54.2385 0.0000 0.0000
# 5 0.0000 0.0000 0.0000 0.0000 43.5706 0.0000
# 6 0.0000 0.0000 0.0000 0.0000 0.0000 50.0822
#
#
#
# Elastic Compliance Matrix: (Units=1/GPa)
#
#
# Indices 1 2 3 4 5 6 
#
# 1 0.006030 -0.001387 -0.001255 0.000000 0.000000 0.000000
# 2 -0.001387 0.004716 -0.001191 0.000000 0.000000 0.000000
# 3 -0.001255 -0.001191 0.019533 0.000000 0.000000 0.000000
# 4 0.000000 0.000000 0.000000 0.018437 0.000000 0.000000
# 5 0.000000 0.000000 0.000000 0.000000 0.022951 0.000000
# 6 0.000000 0.000000 0.000000 0.000000 0.000000 0.019967
#
#
# Mechanical properties :
#
#
# Convention : Reuss Voigt Hill
#
# Bulk Modulus (GPa) = 44.22514 72.23991 58.23253
# Shear Modulus (GPa) = 46.79987 54.80393 50.80190
#
# Velocity S-wave (km/s) = 4.17870 4.52194 4.35370
# Velocity P-wave (km/s) = 6.30737 7.36324 6.85566
#
# Compressibility (1/GPa) = 0.02261157
#
# Stress axis : x y z
#
# Youngs Moduli (GPa) = 165.84225 212.05329 51.19612
#
# Poissons Ratio (x) = 0.29420 0.06427
# Poissons Ratio (y) = 0.23009 0.06095
# Poissons Ratio (z) = 0.20820 0.25247
#
# Static dielectric constant tensor:
#      x y z
#    x 1.984680 0.000000 0.000000 
#    y 0.000000 2.138730 0.000000 
#    z 0.000000 0.000000 2.311130 
# 
# From -- ./inp_files/10629.got.cif
#   From: 2010.05.17/outbox.cif.g08.bks.cpg/sg61_6_cif.got.tgz:10629.got - 2010.06.03 15:17:17.
