data_PCOD9459868
_publ_section_title
;
Structure prediction by ZEFSAII (Michael W. Deem and Ramdas Pophale) SiO2 
 PCOD9459868
Probable space group: P B C A
;
_chemical_formula_sum "Si O2"
_cell_formula_units_Z 64
_cell_length_a 7.738782
_cell_length_b 15.909854
_cell_length_c 22.627932
_cell_angle_alpha 90.000000
_cell_angle_beta 90.000000
_cell_angle_gamma 90.000000
_cell_volume 2786.016422
_symmetry_space_group_name_H-M "P B C A"
_symmetry_group_IT_number 61
_symmetry_cell_setting 'orthorhombic'
loop_
_space_group_symop_operation_xyz
x,y,z
1/2-x,-y,1/2+z
1/2+x,1/2-y,-z
-x,1/2+y,1/2-z
-x,-y,-z
1/2+x,y,1/2-z
1/2-x,1/2+y,z
x,1/2-y,1/2+z
loop_
_atom_site_type_symbol
_atom_site_label
_atom_site_fract_x
_atom_site_fract_y
_atom_site_fract_z
Si Si1 0.394039 0.537566 0.817739
Si Si2 0.774372 0.004951 0.313302
Si Si3 0.921977 0.196132 0.765096
Si Si4 0.073228 0.304199 0.551665
Si Si5 0.906181 0.831035 0.343255
Si Si6 0.031503 0.158107 0.325697
Si Si7 0.770807 0.422083 0.595288
Si Si8 0.535220 0.821170 0.949064
O O1 0.296425 0.516099 0.756513
O O2 0.571516 0.482537 0.822777
O O3 0.470230 0.629225 0.803833
O O4 0.298497 0.515683 0.879262
O O5 0.896174 0.082731 0.326355
O O6 0.845365 0.927058 0.352848
O O7 0.738720 0.199141 0.796656
O O8 0.922444 0.166428 0.697355
O O9 0.004202 0.287892 0.768741
O O10 0.079089 0.233740 0.603679
O O11 0.019585 0.249629 0.494891
O O12 0.264239 0.342248 0.542481
O O13 0.933523 0.375850 0.566500
O O14 0.219491 0.124865 0.342734
O O15 0.982783 0.214641 0.382561
O O16 0.603038 0.398331 0.555111
#
# Coordination Sequence:
#
# PCOD9459868 Si02
#       8
#     8   8   8   8   8   8   8   8
#     4  10  21  38  57  93 134 173 206 262 328 387
#     4  10  21  38  60  89 137 169 208 271 322 385
#     4  10  22  38  61  93 136 165 212 265 324 392
#     4  12  21  44  66  95 133 171 221 271 323 391
#     4  10  23  38  62  94 129 174 210 262 334 388
#     4  10  21  39  60  93 123 166 215 264 320 386
#     4  10  23  37  64  94 119 172 211 257 332 373
#     4  10  22  40  65  92 126 167 217 274 313 377
#
# _framework density 22.971868000000001
#
# number of rings (size 3 to 8) (size 9 to 14) (size 15 to 20)
#    0.750    1.000    2.500    1.500    3.500    1.000 
#    0.000    0.625    0.000    6.750    0.000    0.000 
#    0.000    0.000    0.000    0.000    0.000    0.000 
#
# Total GULP energy -356890.980232 kJ/mol
# GULP energy per Si atom -5576.421566 kJ/mol
# Density = 2.291958 g / cm^3
# Si number density = 22.971868 Si / 1000 Ang^3
#
#
#
# Elastic Constant Matrix: (Units=GPa)
#
#
# Indices 1 2 3 4 5 6 
#
# 1 110.6047 2.4935 5.4359 0.0000 0.0000 0.0000
# 2 2.4935 39.2277 5.2172 0.0000 0.0000 0.0000
# 3 5.4359 5.2172 27.1271 0.0000 0.0000 0.0000
# 4 0.0000 0.0000 0.0000 18.0815 0.0000 0.0000
# 5 0.0000 0.0000 0.0000 0.0000 32.4733 0.0000
# 6 0.0000 0.0000 0.0000 0.0000 0.0000 17.7828
#
#
#
# Elastic Compliance Matrix: (Units=1/GPa)
#
#
# Indices 1 2 3 4 5 6 
#
# 1 0.009136 -0.000346 -0.001764 0.000000 0.000000 0.000000
# 2 -0.000346 0.026174 -0.004965 0.000000 0.000000 0.000000
# 3 -0.001764 -0.004965 0.038172 0.000000 0.000000 0.000000
# 4 0.000000 0.000000 0.000000 0.055305 0.000000 0.000000
# 5 0.000000 0.000000 0.000000 0.000000 0.030795 0.000000
# 6 0.000000 0.000000 0.000000 0.000000 0.000000 0.056234
#
#
# Mechanical properties :
#
#
# Convention : Reuss Voigt Hill
#
# Bulk Modulus (GPa) = 16.85421 22.58362 19.71892
# Shear Modulus (GPa) = 20.02061 24.58840 22.30450
#
# Velocity S-wave (km/s) = 2.95537 3.27520 3.11939
# Velocity P-wave (km/s) = 4.35872 4.91477 4.64507
#
# Compressibility (1/GPa) = 0.05933237
#
# Stress axis : x y z
#
# Youngs Moduli (GPa) = 109.46059 38.20515 26.19731
#
# Poissons Ratio (x) = 0.01322 0.04621
# Poissons Ratio (y) = 0.03788 0.13006
# Poissons Ratio (z) = 0.19310 0.18968
#
# Static dielectric constant tensor:
#      x y z
#    x 1.972570 0.000000 0.000000 
#    y 0.000000 1.899750 0.000000 
#    z 0.000000 0.000000 1.861730 
# 
# From -- ./inp_files/10946.got.cif
#   From: 2010.05.17/outbox.cif.g08.bks.cpg/sg61_6_cif.got.tgz:10946.got - 2010.06.03 15:17:17.
