data_PCOD9459356
_publ_section_title
;
Structure prediction by ZEFSAII (Michael W. Deem and Ramdas Pophale) SiO2 
 PCOD9459356
Probable space group: P B C A
;
_chemical_formula_sum "Si O2"
_cell_formula_units_Z 40
_cell_length_a 14.031369
_cell_length_b 16.822320
_cell_length_c 7.851309
_cell_angle_alpha 90.000000
_cell_angle_beta 90.000000
_cell_angle_gamma 90.000000
_cell_volume 1853.224385
_symmetry_space_group_name_H-M "P B C A"
_symmetry_group_IT_number 61
_symmetry_cell_setting 'orthorhombic'
loop_
_space_group_symop_operation_xyz
x,y,z
1/2-x,-y,1/2+z
1/2+x,1/2-y,-z
-x,1/2+y,1/2-z
-x,-y,-z
1/2+x,y,1/2-z
1/2-x,1/2+y,z
x,1/2-y,1/2+z
loop_
_atom_site_type_symbol
_atom_site_label
_atom_site_fract_x
_atom_site_fract_y
_atom_site_fract_z
Si Si1 0.793618 0.641978 0.812256
Si Si2 0.589058 0.911636 0.352170
Si Si3 0.146333 0.200361 0.049743
Si Si4 0.010558 0.157676 0.548899
Si Si5 0.986114 0.585147 0.287692
O O1 0.702666 0.590261 0.851598
O O2 0.816567 0.653854 0.613400
O O3 0.891175 0.612344 0.898714
O O4 0.781555 0.732666 0.882435
O O5 0.554933 0.846029 0.214935
O O6 0.548401 0.902402 0.542357
O O7 0.546036 0.994259 0.284018
O O8 0.052947 0.255110 0.008886
O O9 0.109110 0.138726 0.188653
O O10 0.966323 0.116415 0.384598
#
# Coordination Sequence:
#
# PCOD9459356 Si02
#       5
#     8   8   8   8   8
#     4  10  22  42  64  96 125 175 217 267 322 400
#     4  11  25  41  67  99 134 166 230 261 333 400
#     4  10  19  43  65  86 134 168 213 269 329 375
#     4  10  21  44  66  92 133 172 213 270 325 386
#     4  11  22  44  67  95 132 175 206 286 326 380
#
# _framework density 21.584004
#
# number of rings (size 3 to 8) (size 9 to 14) (size 15 to 20)
#    1.200    0.400    4.000    0.600    0.000    3.200 
#    7.200    0.000    0.000    0.000    0.000    0.000 
#    0.000    0.000    0.000    0.000    0.000    0.000 
#
# Total GULP energy -223095.758669 kJ/mol
# GULP energy per Si atom -5577.393967 kJ/mol
# Density = 2.153488 g / cm^3
# Si number density = 21.584004 Si / 1000 Ang^3
#
#
#
# Elastic Constant Matrix: (Units=GPa)
#
#
# Indices 1 2 3 4 5 6 
#
# 1 29.4134 13.3430 9.0426 0.0000 0.0000 0.0000
# 2 13.3430 33.8561 3.4852 0.0000 0.0000 0.0000
# 3 9.0426 3.4852 90.6940 0.0000 0.0000 0.0000
# 4 0.0000 0.0000 0.0000 16.9697 0.0000 0.0000
# 5 0.0000 0.0000 0.0000 0.0000 4.7456 0.0000
# 6 0.0000 0.0000 0.0000 0.0000 0.0000 18.9432
#
#
#
# Elastic Compliance Matrix: (Units=1/GPa)
#
#
# Indices 1 2 3 4 5 6 
#
# 1 0.042546 -0.016396 -0.003612 0.000000 0.000000 0.000000
# 2 -0.016396 0.035973 0.000252 0.000000 0.000000 0.000000
# 3 -0.003612 0.000252 0.011377 0.000000 0.000000 0.000000
# 4 0.000000 0.000000 0.000000 0.058929 0.000000 0.000000
# 5 0.000000 0.000000 0.000000 0.000000 0.210724 0.000000
# 6 0.000000 0.000000 0.000000 0.000000 0.000000 0.052790
#
#
# Mechanical properties :
#
#
# Convention : Reuss Voigt Hill
#
# Bulk Modulus (GPa) = 19.84749 22.85612 21.35180
# Shear Modulus (GPa) = 10.66910 16.67119 13.67015
#
# Velocity S-wave (km/s) = 2.22571 2.78220 2.51937
# Velocity P-wave (km/s) = 3.97750 4.57528 4.28682
#
# Compressibility (1/GPa) = 0.05038421
#
# Stress axis : x y z
#
# Youngs Moduli (GPa) = 23.50379 27.79891 87.90038
#
# Poissons Ratio (x) = 0.45579 0.31749
# Poissons Ratio (y) = 0.38537 -0.02218
# Poissons Ratio (z) = 0.08490 -0.00702
#
# Static dielectric constant tensor:
#      x y z
#    x 1.744140 0.000000 0.000000 
#    y 0.000000 1.812250 0.000000 
#    z 0.000000 0.000000 1.809980 
# 
# From -- ./inp_files/2129.got.cif
#   From: 2010.05.17/outbox.cif.g08.bks.cpg/sg61_2_cif.got.tgz:2129.got - 2010.06.03 15:17:17.
