data_PCOD9459412
_publ_section_title
;
Structure prediction by ZEFSAII (Michael W. Deem and Ramdas Pophale) SiO2 
 PCOD9459412
Probable space group: P B C A
;
_chemical_formula_sum "Si O2"
_cell_formula_units_Z 64
_cell_length_a 15.882124
_cell_length_b 18.573734
_cell_length_c 9.509406
_cell_angle_alpha 90.000000
_cell_angle_beta 90.000000
_cell_angle_gamma 90.000000
_cell_volume 2805.182971
_symmetry_space_group_name_H-M "P B C A"
_symmetry_group_IT_number 61
_symmetry_cell_setting 'orthorhombic'
loop_
_space_group_symop_operation_xyz
x,y,z
1/2-x,-y,1/2+z
1/2+x,1/2-y,-z
-x,1/2+y,1/2-z
-x,-y,-z
1/2+x,y,1/2-z
1/2-x,1/2+y,z
x,1/2-y,1/2+z
loop_
_atom_site_type_symbol
_atom_site_label
_atom_site_fract_x
_atom_site_fract_y
_atom_site_fract_z
Si Si1 0.044908 0.820904 0.196102
Si Si2 0.483779 0.034188 0.152145
Si Si3 0.340656 0.705199 0.820372
Si Si4 0.685124 0.020237 0.865294
Si Si5 0.772650 0.558674 0.570543
Si Si6 0.920829 0.481327 0.402526
Si Si7 0.160781 0.328950 0.012953
Si Si8 0.958925 0.183077 0.478512
O O1 0.074742 0.896558 0.131370
O O2 0.073198 0.821260 0.360183
O O3 0.942113 0.810378 0.187097
O O4 0.074084 0.753456 0.101868
O O5 0.406543 0.985639 0.206920
O O6 0.560960 0.024416 0.257593
O O7 0.455189 0.115525 0.127624
O O8 0.500000 0.000000 0.000000
O O9 0.304503 0.639392 0.911022
O O10 0.309144 0.701533 0.661563
O O11 0.311163 0.780432 0.884721
O O12 0.743519 0.031572 0.729602
O O13 0.683341 0.087629 0.971602
O O14 0.696376 0.951240 0.963483
O O15 0.839879 0.508897 0.486925
O O16 0.000000 0.500000 0.500000
O O17 0.060207 0.317191 0.005038
#
# Coordination Sequence:
#
# PCOD9459412 Si02
#       8
#     8   8   8   8   8   8   8   8
#     4  10  20  35  56  90 124 155 204 255 308 364
#     4  12  22  40  65  91 123 161 209 258 308 370
#     4   9  18  35  56  85 117 152 196 247 299 363
#     4  11  24  41  59  91 125 159 207 256 308 375
#     4  11  25  40  61  90 124 162 206 256 313 370
#     4  12  22  40  65  90 124 162 208 259 311 365
#     4   9  18  35  56  84 118 150 196 249 297 363
#     4  10  21  34  58  91 123 159 202 255 308 364
#
# _framework density 22.814912
#
# number of rings (size 3 to 8) (size 9 to 14) (size 15 to 20)
#    0.000    1.500    5.000    0.750    3.500    3.000 
#    0.000    1.250    0.000    0.000    0.000    0.000 
#    0.000    0.000    0.000    0.000    0.000    0.000 
#
# Total GULP energy -357179.764325 kJ/mol
# GULP energy per Si atom -5580.933818 kJ/mol
# Density = 2.276298 g / cm^3
# Si number density = 22.814912 Si / 1000 Ang^3
#
#
#
# Elastic Constant Matrix: (Units=GPa)
#
#
# Indices 1 2 3 4 5 6 
#
# 1 25.6976 7.4991 8.9610 0.0000 0.0000 0.0000
# 2 7.4991 122.9506 45.1245 0.0000 0.0000 0.0000
# 3 8.9610 45.1245 78.8785 0.0000 0.0000 0.0000
# 4 0.0000 0.0000 0.0000 47.4151 0.0000 0.0000
# 5 0.0000 0.0000 0.0000 0.0000 26.5740 0.0000
# 6 0.0000 0.0000 0.0000 0.0000 0.0000 18.3994
#
#
#
# Elastic Compliance Matrix: (Units=1/GPa)
#
#
# Indices 1 2 3 4 5 6 
#
# 1 0.040615 -0.000992 -0.004046 0.000000 0.000000 0.000000
# 2 -0.000992 0.010319 -0.005791 0.000000 0.000000 0.000000
# 3 -0.004046 -0.005791 0.016450 0.000000 0.000000 0.000000
# 4 0.000000 0.000000 0.000000 0.021090 0.000000 0.000000
# 5 0.000000 0.000000 0.000000 0.000000 0.037631 0.000000
# 6 0.000000 0.000000 0.000000 0.000000 0.000000 0.054350
#
#
# Mechanical properties :
#
#
# Convention : Reuss Voigt Hill
#
# Bulk Modulus (GPa) = 21.86960 38.96622 30.41791
# Shear Modulus (GPa) = 23.00385 29.54050 26.27217
#
# Velocity S-wave (km/s) = 3.17879 3.60222 3.39711
# Velocity P-wave (km/s) = 4.80410 5.86666 5.36177
#
# Compressibility (1/GPa) = 0.04572558
#
# Stress axis : x y z
#
# Youngs Moduli (GPa) = 24.62158 96.90786 60.78995
#
# Poissons Ratio (x) = 0.09614 0.24599
# Poissons Ratio (y) = 0.02443 0.35201
# Poissons Ratio (z) = 0.09963 0.56115
#
# Static dielectric constant tensor:
#      x y z
#    x 1.983120 0.000000 0.000000 
#    y 0.000000 1.873840 0.000000 
#    z 0.000000 0.000000 1.869870 
# 
# From -- ./inp_files/3727.got.cif
#   From: 2010.05.17/outbox.cif.g08.bks.cpg/sg61_2_cif.got.tgz:3727.got - 2010.06.03 15:17:17.
