data_PCOD9459873
_publ_section_title
;
Structure prediction by ZEFSAII (Michael W. Deem and Ramdas Pophale) SiO2 
 PCOD9459873
Probable space group: P B C A
;
_chemical_formula_sum "Si O2"
_cell_formula_units_Z 40
_cell_length_a 26.901956
_cell_length_b 4.836965
_cell_length_c 12.992015
_cell_angle_alpha 90.000000
_cell_angle_beta 90.000000
_cell_angle_gamma 90.000000
_cell_volume 1690.570616
_symmetry_space_group_name_H-M "P B C A"
_symmetry_group_IT_number 61
_symmetry_cell_setting 'orthorhombic'
loop_
_space_group_symop_operation_xyz
x,y,z
1/2-x,-y,1/2+z
1/2+x,1/2-y,-z
-x,1/2+y,1/2-z
-x,-y,-z
1/2+x,y,1/2-z
1/2-x,1/2+y,z
x,1/2-y,1/2+z
loop_
_atom_site_type_symbol
_atom_site_label
_atom_site_fract_x
_atom_site_fract_y
_atom_site_fract_z
Si Si1 0.281624 0.099347 0.684134
Si Si2 0.571246 0.019583 0.244245
Si Si3 0.492652 0.254088 0.080367
Si Si4 0.281308 0.422317 0.940158
Si Si5 0.365323 0.458991 0.791156
O O1 0.233750 0.289492 0.712452
O O2 0.286649 0.079737 0.561748
O O3 0.329084 0.266338 0.722817
O O4 0.529299 0.169175 0.175158
O O5 0.611374 0.267217 0.258801
O O6 0.592319 0.761368 0.178942
O O7 0.553738 0.628412 0.850162
O O8 0.500000 0.500000 0.000000
O O9 0.500000 0.000000 0.000000
O O10 0.234052 0.611738 0.911710
O O11 0.331206 0.528439 0.888470
#
# Coordination Sequence:
#
# PCOD9459873 Si02
#       5
#     8   8   8   8   8
#     4  10  21  38  60  91 134 185 232 275 338 411
#     4  12  27  45  69 107 133 170 243 289 347 449
#     4  12  26  50  76  97 140 188 222 290 375 434
#     4  10  21  38  59  88 130 178 222 265 328 401
#     4  12  23  39  66  97 136 171 224 299 340 395
#
# _framework density 23.660648999999999
#
# number of rings (size 3 to 8) (size 9 to 14) (size 15 to 20)
#    0.000    0.800    0.000    8.400    0.000    4.800 
#    0.000    0.000    0.000    0.000    0.000    0.000 
#    0.000    0.000    0.000    0.000    0.000    0.000 
#
# Total GULP energy -223120.055159 kJ/mol
# GULP energy per Si atom -5578.001379 kJ/mol
# Density = 2.360680 g / cm^3
# Si number density = 23.660649 Si / 1000 Ang^3
#
#
#
# Elastic Constant Matrix: (Units=GPa)
#
#
# Indices 1 2 3 4 5 6 
#
# 1 59.1876 29.4069 12.9098 0.0000 0.0000 0.0000
# 2 29.4069 163.5896 18.2503 0.0000 0.0000 0.0000
# 3 12.9098 18.2503 107.6864 0.0000 0.0000 0.0000
# 4 0.0000 0.0000 0.0000 48.3041 0.0000 0.0000
# 5 0.0000 0.0000 0.0000 0.0000 10.8515 0.0000
# 6 0.0000 0.0000 0.0000 0.0000 0.0000 54.7459
#
#
#
# Elastic Compliance Matrix: (Units=1/GPa)
#
#
# Indices 1 2 3 4 5 6 
#
# 1 0.018859 -0.003198 -0.001719 0.000000 0.000000 0.000000
# 2 -0.003198 0.006773 -0.000764 0.000000 0.000000 0.000000
# 3 -0.001719 -0.000764 0.009622 0.000000 0.000000 0.000000
# 4 0.000000 0.000000 0.000000 0.020702 0.000000 0.000000
# 5 0.000000 0.000000 0.000000 0.000000 0.092153 0.000000
# 6 0.000000 0.000000 0.000000 0.000000 0.000000 0.018266
#
#
# Mechanical properties :
#
#
# Convention : Reuss Voigt Hill
#
# Bulk Modulus (GPa) = 41.85694 50.17752 46.01723
# Shear Modulus (GPa) = 26.92473 40.77341 33.84907
#
# Velocity S-wave (km/s) = 3.37702 4.15572 3.78644
# Velocity P-wave (km/s) = 5.73887 6.65431 6.21347
#
# Compressibility (1/GPa) = 0.02389090
#
# Stress axis : x y z
#
# Youngs Moduli (GPa) = 53.02383 147.64315 103.93015
#
# Poissons Ratio (x) = 0.47222 0.17864
# Poissons Ratio (y) = 0.16959 0.07945
# Poissons Ratio (z) = 0.09114 0.11286
#
# Static dielectric constant tensor:
#      x y z
#    x 2.035640 0.000000 0.000000 
#    y 0.000000 1.915180 0.000000 
#    z 0.000000 0.000000 2.018460 
# 
# From -- ./inp_files/8619.got.cif
#   From: 2010.05.17/outbox.cif.g08.bks.cpg/sg61_5_cif.got.tgz:8619.got - 2010.06.03 15:17:17.
