data_PCOD9459320
_publ_section_title
;
Structure prediction by ZEFSAII (Michael W. Deem and Ramdas Pophale) SiO2 
 PCOD9459320
Probable space group: P B C A
;
_chemical_formula_sum "Si O2"
_cell_formula_units_Z 56
_cell_length_a 9.244646
_cell_length_b 16.199292
_cell_length_c 17.355765
_cell_angle_alpha 90.000000
_cell_angle_beta 90.000000
_cell_angle_gamma 90.000000
_cell_volume 2599.142439
_symmetry_space_group_name_H-M "P B C A"
_symmetry_group_IT_number 61
_symmetry_cell_setting 'orthorhombic'
loop_
_space_group_symop_operation_xyz
x,y,z
1/2-x,-y,1/2+z
1/2+x,1/2-y,-z
-x,1/2+y,1/2-z
-x,-y,-z
1/2+x,y,1/2-z
1/2-x,1/2+y,z
x,1/2-y,1/2+z
loop_
_atom_site_type_symbol
_atom_site_label
_atom_site_fract_x
_atom_site_fract_y
_atom_site_fract_z
Si Si1 0.672766 0.568211 0.964116
Si Si2 0.642091 0.548335 0.217806
Si Si3 0.004836 0.891743 0.298446
Si Si4 0.544486 0.397041 0.913932
Si Si5 0.604750 0.025719 0.093141
Si Si6 0.221713 0.819731 0.181941
Si Si7 0.153950 0.854538 0.628481
O O1 0.579401 0.493024 0.930593
O O2 0.716630 0.619604 0.890633
O O3 0.575081 0.623270 0.021845
O O4 0.803927 0.530528 0.014621
O O5 0.568002 0.462646 0.244237
O O6 0.528014 0.603869 0.170078
O O7 0.777705 0.539491 0.161127
O O8 0.689869 0.590884 0.296359
O O9 0.893223 0.815685 0.303586
O O10 0.146996 0.860322 0.255878
O O11 0.036667 0.938603 0.379192
O O12 0.698521 0.353212 0.920963
O O13 0.483867 0.097900 0.093622
O O14 0.136418 0.737890 0.158363
#
# Coordination Sequence:
#
# PCOD9459320 Si02
#       7
#     8   8   8   8   8   8   8
#     4  10  22  43  66  94 123 168 218 262 319 373
#     4  10  19  39  64  89 120 166 216 263 308 380
#     4  11  22  41  63  95 123 166 221 267 315 367
#     4  10  21  39  64  87 123 169 208 260 314 383
#     4  10  22  40  68  94 122 171 220 262 309 393
#     4  12  26  39  63  96 134 165 208 274 325 384
#     4  11  24  37  61  95 131 169 206 260 329 382
#
# _framework density 21.545566999999998
#
# number of rings (size 3 to 8) (size 9 to 14) (size 15 to 20)
#    0.000    1.429    2.857    3.429    4.000    3.429 
#    0.000    0.000    0.000    0.000    0.000    0.000 
#    0.000    0.000    0.000    0.000    0.000    0.000 
#
# Total GULP energy -312635.143334 kJ/mol
# GULP energy per Si atom -5582.770417 kJ/mol
# Density = 2.149653 g / cm^3
# Si number density = 21.545567 Si / 1000 Ang^3
#
#
#
# Elastic Constant Matrix: (Units=GPa)
#
#
# Indices 1 2 3 4 5 6 
#
# 1 87.9045 -6.5667 2.6596 0.0000 0.0000 0.0000
# 2 -6.5667 34.1024 -15.7411 0.0000 0.0000 0.0000
# 3 2.6596 -15.7411 47.3093 0.0000 0.0000 0.0000
# 4 0.0000 0.0000 0.0000 7.4141 0.0000 0.0000
# 5 0.0000 0.0000 0.0000 0.0000 26.5287 0.0000
# 6 0.0000 0.0000 0.0000 0.0000 0.0000 18.3816
#
#
#
# Elastic Compliance Matrix: (Units=1/GPa)
#
#
# Indices 1 2 3 4 5 6 
#
# 1 0.011542 0.002272 0.000107 0.000000 0.000000 0.000000
# 2 0.002272 0.035091 0.011548 0.000000 0.000000 0.000000
# 3 0.000107 0.011548 0.024974 0.000000 0.000000 0.000000
# 4 0.000000 0.000000 0.000000 0.134879 0.000000 0.000000
# 5 0.000000 0.000000 0.000000 0.000000 0.037695 0.000000
# 6 0.000000 0.000000 0.000000 0.000000 0.000000 0.054402
#
#
# Mechanical properties :
#
#
# Convention : Reuss Voigt Hill
#
# Bulk Modulus (GPa) = 10.05408 14.44666 12.25037
# Shear Modulus (GPa) = 16.45366 23.06248 19.75807
#
# Velocity S-wave (km/s) = 2.76645 3.27525 3.03155
# Velocity P-wave (km/s) = 3.85758 4.58506 4.23696
#
# Compressibility (1/GPa) = 0.09946215
#
# Stress axis : x y z
#
# Youngs Moduli (GPa) = 86.63658 28.49701 40.04184
#
# Poissons Ratio (x) = -0.06475 -0.00429
# Poissons Ratio (y) = -0.19684 -0.46241
# Poissons Ratio (z) = -0.00928 -0.32909
#
# Static dielectric constant tensor:
#      x y z
#    x 1.840070 0.000000 0.000000 
#    y 0.000000 1.774640 0.000000 
#    z 0.000000 0.000000 1.777190 
# 
# From -- ./inp_files/10135.got.cif
#   From: 2010.05.17/outbox.cif.g08.bks.cpg/sg61_6_cif.got.tgz:10135.got - 2010.06.03 15:17:17.
