data_PCOD9459416
_publ_section_title
;
Structure prediction by ZEFSAII (Michael W. Deem and Ramdas Pophale) SiO2 
 PCOD9459416
Probable space group: P B C A
;
_chemical_formula_sum "Si O2"
_cell_formula_units_Z 64
_cell_length_a 19.041246
_cell_length_b 8.291123
_cell_length_c 20.488779
_cell_angle_alpha 90.000000
_cell_angle_beta 90.000000
_cell_angle_gamma 90.000000
_cell_volume 3234.631413
_symmetry_space_group_name_H-M "P B C A"
_symmetry_group_IT_number 61
_symmetry_cell_setting 'orthorhombic'
loop_
_space_group_symop_operation_xyz
x,y,z
1/2-x,-y,1/2+z
1/2+x,1/2-y,-z
-x,1/2+y,1/2-z
-x,-y,-z
1/2+x,y,1/2-z
1/2-x,1/2+y,z
x,1/2-y,1/2+z
loop_
_atom_site_type_symbol
_atom_site_label
_atom_site_fract_x
_atom_site_fract_y
_atom_site_fract_z
Si Si1 0.068342 0.143263 0.180509
Si Si2 0.989085 0.268981 0.058177
Si Si3 0.849618 0.127964 0.257487
Si Si4 0.796807 0.762627 0.260809
Si Si5 0.058772 0.365818 0.924974
Si Si6 0.799522 0.753157 0.106899
Si Si7 0.012373 0.716988 0.699681
Si Si8 0.150937 0.621315 0.396400
O O1 0.150700 0.156603 0.195941
O O2 0.045152 0.201013 0.109502
O O3 0.031102 0.257504 0.234207
O O4 0.038661 0.964904 0.192570
O O5 0.966695 0.450262 0.078445
O O6 0.918430 0.162914 0.063333
O O7 0.022183 0.282637 0.986787
O O8 0.784651 0.241050 0.277427
O O9 0.919280 0.169712 0.296554
O O10 0.865647 0.152964 0.180354
O O11 0.822427 0.946290 0.265692
O O12 0.801840 0.712402 0.184430
O O13 0.142971 0.356482 0.928671
O O14 0.035731 0.270635 0.860284
O O15 0.719465 0.726010 0.085819
O O16 0.824618 0.936527 0.098374
#
# Coordination Sequence:
#
# PCOD9459416 Si02
#       8
#     8   8   8   8   8   8   8   8
#     4  12  23  37  60  88 119 155 195 244 294 349
#     4  11  24  41  61  87 121 159 200 247 296 352
#     4  10  20  35  57  88 121 155 194 244 298 351
#     4  10  20  35  57  88 121 155 194 244 298 351
#     4  11  24  41  61  87 121 159 200 247 296 352
#     4  10  20  35  59  87 118 155 195 243 294 352
#     4  12  23  37  60  88 119 155 195 244 294 349
#     4  10  20  35  59  87 118 155 195 243 294 352
#
# _framework density 19.785869999999999
#
# number of rings (size 3 to 8) (size 9 to 14) (size 15 to 20)
#    0.000    1.250    2.500    4.500    0.000    4.000 
#    0.000    1.250    0.000    6.000    0.000    0.000 
#    0.000    0.000    0.000    0.000    0.000    0.000 
#
# Total GULP energy -357970.617020 kJ/mol
# GULP energy per Si atom -5593.290891 kJ/mol
# Density = 1.974084 g / cm^3
# Si number density = 19.785870 Si / 1000 Ang^3
#
#
#
# Elastic Constant Matrix: (Units=GPa)
#
#
# Indices 1 2 3 4 5 6 
#
# 1 80.5080 -4.2033 11.0401 0.0000 0.0000 0.0000
# 2 -4.2033 30.2842 -2.9923 0.0000 0.0000 0.0000
# 3 11.0401 -2.9923 13.4324 0.0000 0.0000 0.0000
# 4 0.0000 0.0000 0.0000 14.0779 0.0000 0.0000
# 5 0.0000 0.0000 0.0000 0.0000 23.1597 0.0000
# 6 0.0000 0.0000 0.0000 0.0000 0.0000 35.9510
#
#
#
# Elastic Compliance Matrix: (Units=1/GPa)
#
#
# Indices 1 2 3 4 5 6 
#
# 1 0.014019 0.000825 -0.011338 0.000000 0.000000 0.000000
# 2 0.000825 0.033812 0.006854 0.000000 0.000000 0.000000
# 3 -0.011338 0.006854 0.085293 0.000000 0.000000 0.000000
# 4 0.000000 0.000000 0.000000 0.071033 0.000000 0.000000
# 5 0.000000 0.000000 0.000000 0.000000 0.043178 0.000000
# 6 0.000000 0.000000 0.000000 0.000000 0.000000 0.027816
#
#
# Mechanical properties :
#
#
# Convention : Reuss Voigt Hill
#
# Bulk Modulus (GPa) = 7.94873 14.65705 11.30289
# Shear Modulus (GPa) = 15.41281 22.66306 19.03793
#
# Velocity S-wave (km/s) = 2.79405 3.38807 3.10530
# Velocity P-wave (km/s) = 3.79935 4.76752 4.31070
#
# Compressibility (1/GPa) = 0.12580627
#
# Stress axis : x y z
#
# Youngs Moduli (GPa) = 71.33151 29.57504 11.72429
#
# Poissons Ratio (x) = -0.02441 0.13293
# Poissons Ratio (y) = -0.05888 -0.08036
# Poissons Ratio (z) = 0.80878 -0.20270
#
# Static dielectric constant tensor:
#      x y z
#    x 1.703460 0.000000 0.000000 
#    y 0.000000 1.715830 0.000000 
#    z 0.000000 0.000000 1.655400 
# 
# From -- ./inp_files/10529.got.cif
#   From: 2010.05.17/outbox.cif.g08.bks.cpg/sg61_6_cif.got.tgz:10529.got - 2010.06.03 15:17:17.
