data_PCOD9459623
_publ_section_title
;
Structure prediction by ZEFSAII (Michael W. Deem and Ramdas Pophale) SiO2 
 PCOD9459623
Probable space group: P B C A
;
_chemical_formula_sum "Si O2"
_cell_formula_units_Z 64
_cell_length_a 13.604604
_cell_length_b 16.179342
_cell_length_c 12.728935
_cell_angle_alpha 90.000000
_cell_angle_beta 90.000000
_cell_angle_gamma 90.000000
_cell_volume 2801.810955
_symmetry_space_group_name_H-M "P B C A"
_symmetry_group_IT_number 61
_symmetry_cell_setting 'orthorhombic'
loop_
_space_group_symop_operation_xyz
x,y,z
1/2-x,-y,1/2+z
1/2+x,1/2-y,-z
-x,1/2+y,1/2-z
-x,-y,-z
1/2+x,y,1/2-z
1/2-x,1/2+y,z
x,1/2-y,1/2+z
loop_
_atom_site_type_symbol
_atom_site_label
_atom_site_fract_x
_atom_site_fract_y
_atom_site_fract_z
Si Si1 0.597083 0.511875 0.249277
Si Si2 0.244831 0.979412 0.087464
Si Si3 0.336520 0.213317 0.991827
Si Si4 0.946824 0.756382 0.947378
Si Si5 0.260746 0.380367 0.878712
Si Si6 0.332901 0.648958 0.875870
Si Si7 0.401114 0.902922 0.707518
Si Si8 0.258838 0.694935 0.658278
O O1 0.649592 0.498440 0.360888
O O2 0.653619 0.588097 0.196785
O O3 0.621601 0.432849 0.175658
O O4 0.483933 0.534555 0.247757
O O5 0.209558 0.894288 0.145518
O O6 0.168408 0.049132 0.123831
O O7 0.249985 0.950932 0.967903
O O8 0.450978 0.210300 0.966622
O O9 0.296702 0.297528 0.936191
O O10 0.266063 0.142013 0.947046
O O11 0.309670 0.232539 0.113197
O O12 0.947804 0.825646 0.855358
O O13 0.858071 0.697204 0.911978
O O14 0.911889 0.803787 0.052532
O O15 0.164183 0.376523 0.806970
O O16 0.294802 0.700872 0.776230
#
# Coordination Sequence:
#
# PCOD9459623 Si02
#       8
#     8   8   8   8   8   8   8   8
#     4  10  21  38  61  95 118 161 206 247 306 364
#     4   9  21  39  60  88 128 161 197 253 308 360
#     4  10  21  39  63  87 122 163 200 254 310 354
#     4  11  22  38  66  94 116 162 210 248 305 370
#     4  10  20  39  62  86 128 157 198 260 304 350
#     4  10  22  39  60  88 127 157 202 254 298 369
#     4  11  22  37  67  95 119 160 209 253 303 373
#     4   9  21  41  57  88 124 159 202 249 307 363
#
# _framework density 22.842369000000001
#
# number of rings (size 3 to 8) (size 9 to 14) (size 15 to 20)
#    0.000    2.000    1.250    1.500    3.500    2.500 
#   11.250    0.000   19.250    0.000    0.000    0.000 
#    0.000    0.000    0.000    0.000    0.000    0.000 
#
# Total GULP energy -357663.816626 kJ/mol
# GULP energy per Si atom -5588.497135 kJ/mol
# Density = 2.279038 g / cm^3
# Si number density = 22.842369 Si / 1000 Ang^3
#
#
#
# Elastic Constant Matrix: (Units=GPa)
#
#
# Indices 1 2 3 4 5 6 
#
# 1 98.1170 -1.0576 1.9034 0.0000 0.0000 0.0000
# 2 -1.0576 53.1943 -10.5984 0.0000 0.0000 0.0000
# 3 1.9034 -10.5984 76.5268 0.0000 0.0000 0.0000
# 4 0.0000 0.0000 0.0000 0.0482 0.0000 0.0000
# 5 0.0000 0.0000 0.0000 0.0000 14.0836 0.0000
# 6 0.0000 0.0000 0.0000 0.0000 0.0000 22.3242
#
#
#
# Elastic Compliance Matrix: (Units=1/GPa)
#
#
# Indices 1 2 3 4 5 6 
#
# 1 0.010198 0.000157 -0.000232 0.000000 0.000000 0.000000
# 2 0.000157 0.019335 0.002674 0.000000 0.000000 0.000000
# 3 -0.000232 0.002674 0.013443 0.000000 0.000000 0.000000
# 4 0.000000 0.000000 0.000000 20.768408 0.000000 0.000000
# 5 0.000000 0.000000 0.000000 0.000000 0.071004 0.000000
# 6 0.000000 0.000000 0.000000 0.000000 0.000000 0.044794
#
#
# Mechanical properties :
#
#
# Convention : Reuss Voigt Hill
#
# Bulk Modulus (GPa) = 20.75842 23.14808 21.95325
# Shear Modulus (GPa) = 0.23880 23.13057 11.68469
#
# Velocity S-wave (km/s) = 0.32368 3.18562 2.26417
# Velocity P-wave (km/s) = 3.04091 4.86690 4.05794
#
# Compressibility (1/GPa) = 0.04817322
#
# Stress axis : x y z
#
# Youngs Moduli (GPa) = 98.05747 51.72005 74.38593
#
# Poissons Ratio (x) = -0.00810 0.01726
# Poissons Ratio (y) = -0.01535 -0.19890
# Poissons Ratio (z) = 0.02275 -0.13829
#
# Static dielectric constant tensor:
#      x y z
#    x 1.806500 0.000000 0.000000 
#    y 0.000000 1.906390 0.000000 
#    z 0.000000 0.000000 1.917090 
# 
# From -- ./inp_files/6013.got.cif
#   From: 2010.05.17/outbox.cif.g08.bks.cpg/sg61_4_cif.got.tgz:6013.got - 2010.06.03 15:17:17.
