data_PCOD9459326
_publ_section_title
;
Structure prediction by ZEFSAII (Michael W. Deem and Ramdas Pophale) SiO2 
 PCOD9459326
Probable space group: P B C A
;
_chemical_formula_sum "Si O2"
_cell_formula_units_Z 40
_cell_length_a 8.091512
_cell_length_b 24.534269
_cell_length_c 7.863478
_cell_angle_alpha 90.000000
_cell_angle_beta 90.000000
_cell_angle_gamma 90.000000
_cell_volume 1561.052400
_symmetry_space_group_name_H-M "P B C A"
_symmetry_group_IT_number 61
_symmetry_cell_setting 'orthorhombic'
loop_
_space_group_symop_operation_xyz
x,y,z
1/2-x,-y,1/2+z
1/2+x,1/2-y,-z
-x,1/2+y,1/2-z
-x,-y,-z
1/2+x,y,1/2-z
1/2-x,1/2+y,z
x,1/2-y,1/2+z
loop_
_atom_site_type_symbol
_atom_site_label
_atom_site_fract_x
_atom_site_fract_y
_atom_site_fract_z
Si Si1 0.392390 0.553615 0.291935
Si Si2 0.282786 0.667062 0.442470
Si Si3 0.603220 0.832872 0.127766
Si Si4 0.717197 0.945636 0.027722
Si Si5 0.076516 0.777629 0.714492
O O1 0.303241 0.608128 0.357360
O O2 0.381597 0.554976 0.087255
O O3 0.303720 0.498983 0.359005
O O4 0.569449 0.554112 0.386311
O O5 0.403831 0.661245 0.604000
O O6 0.386447 0.713207 0.337225
O O7 0.103886 0.688710 0.388680
O O8 0.620836 0.785215 0.263436
O O9 0.684017 0.891852 0.139484
O O10 0.660647 0.807676 0.946117
#
# Coordination Sequence:
#
# PCOD9459326 Si02
#       5
#     8   8   8   8   8
#     4  10  19  40  60  80 115 150 186 238 283 334
#     4   9  19  35  58  75 110 146 179 221 286 319
#     4   9  21  34  55  82 111 141 185 226 278 332
#     4  10  21  38  59  83 114 148 191 235 285 336
#     4  10  20  35  57  79 111 147 182 228 277 332
#
# _framework density 25.623740000000002
#
# number of rings (size 3 to 8) (size 9 to 14) (size 15 to 20)
#    1.200    1.200    2.000    0.000    2.800    0.800 
#    3.600    2.000    0.000    0.000    0.000    0.000 
#    0.000    0.000    0.000    0.000    0.000    0.000 
#
# Total GULP energy -223065.232791 kJ/mol
# GULP energy per Si atom -5576.630820 kJ/mol
# Density = 2.556542 g / cm^3
# Si number density = 25.623740 Si / 1000 Ang^3
#
#
#
# Elastic Constant Matrix: (Units=GPa)
#
#
# Indices 1 2 3 4 5 6 
#
# 1 43.0924 15.5617 14.2296 0.0000 0.0000 0.0000
# 2 15.5617 166.0706 24.8320 0.0000 0.0000 0.0000
# 3 14.2296 24.8320 49.6809 0.0000 0.0000 0.0000
# 4 0.0000 0.0000 0.0000 32.0533 0.0000 0.0000
# 5 0.0000 0.0000 0.0000 0.0000 34.3909 0.0000
# 6 0.0000 0.0000 0.0000 0.0000 0.0000 26.4758
#
#
#
# Elastic Compliance Matrix: (Units=1/GPa)
#
#
# Indices 1 2 3 4 5 6 
#
# 1 0.025939 -0.001426 -0.006716 0.000000 0.000000 0.000000
# 2 -0.001426 0.006586 -0.002884 0.000000 0.000000 0.000000
# 3 -0.006716 -0.002884 0.023493 0.000000 0.000000 0.000000
# 4 0.000000 0.000000 0.000000 0.031198 0.000000 0.000000
# 5 0.000000 0.000000 0.000000 0.000000 0.029077 0.000000
# 6 0.000000 0.000000 0.000000 0.000000 0.000000 0.037770
#
#
# Mechanical properties :
#
#
# Convention : Reuss Voigt Hill
#
# Bulk Modulus (GPa) = 29.44117 40.89892 35.17004
# Shear Modulus (GPa) = 26.67531 32.19871 29.43701
#
# Velocity S-wave (km/s) = 3.23001 3.54870 3.39310
# Velocity P-wave (km/s) = 5.04236 5.72599 5.39502
#
# Compressibility (1/GPa) = 0.03396605
#
# Stress axis : x y z
#
# Youngs Moduli (GPa) = 38.55216 151.82913 42.56505
#
# Poissons Ratio (x) = 0.21656 0.28589
# Poissons Ratio (y) = 0.05499 0.12274
# Poissons Ratio (z) = 0.25893 0.43780
#
# Static dielectric constant tensor:
#      x y z
#    x 2.230370 0.000000 0.000000 
#    y 0.000000 1.927670 0.000000 
#    z 0.000000 0.000000 2.197280 
# 
# From -- ./inp_files/1760.got.cif
#   From: 2010.05.17/outbox.cif.g08.bks.cpg/sg61_1_cif.got.tgz:1760.got - 2010.06.03 15:17:17.
