data_PCOD9459534
_publ_section_title
;
Structure prediction by ZEFSAII (Michael W. Deem and Ramdas Pophale) SiO2 
 PCOD9459534
Probable space group: P B C A
;
_chemical_formula_sum "Si O2"
_cell_formula_units_Z 64
_cell_length_a 14.562343
_cell_length_b 25.475071
_cell_length_c 8.502922
_cell_angle_alpha 90.000000
_cell_angle_beta 90.000000
_cell_angle_gamma 90.000000
_cell_volume 3154.386130
_symmetry_space_group_name_H-M "P B C A"
_symmetry_group_IT_number 61
_symmetry_cell_setting 'orthorhombic'
loop_
_space_group_symop_operation_xyz
x,y,z
1/2-x,-y,1/2+z
1/2+x,1/2-y,-z
-x,1/2+y,1/2-z
-x,-y,-z
1/2+x,y,1/2-z
1/2-x,1/2+y,z
x,1/2-y,1/2+z
loop_
_atom_site_type_symbol
_atom_site_label
_atom_site_fract_x
_atom_site_fract_y
_atom_site_fract_z
Si Si1 0.777467 0.640791 0.622957
Si Si2 0.319433 0.549141 0.626248
Si Si3 0.442496 0.712617 0.992817
Si Si4 0.221779 0.878884 0.902306
Si Si5 0.409686 0.822217 0.851967
Si Si6 0.491637 0.091646 0.930693
Si Si7 0.893607 0.166074 0.810466
Si Si8 0.817019 0.432226 0.885617
O O1 0.795342 0.595442 0.751644
O O2 0.863935 0.677494 0.590775
O O3 0.688573 0.674757 0.681871
O O4 0.755452 0.605684 0.470663
O O5 0.274717 0.569865 0.466233
O O6 0.428901 0.551600 0.614319
O O7 0.285856 0.490595 0.657917
O O8 0.415487 0.773068 0.970904
O O9 0.536744 0.706715 0.892329
O O10 0.443924 0.694398 0.176543
O O11 0.302973 0.840169 0.847351
O O12 0.156007 0.899039 0.766260
O O13 0.161970 0.855843 0.041487
O O14 0.466975 0.868538 0.937739
O O15 0.458655 0.124814 0.779867
O O16 0.401864 0.063893 0.996928
#
# Coordination Sequence:
#
# PCOD9459534 Si02
#       8
#     8   8   8   8   8   8   8   8
#     4  10  22  40  64  92 131 166 211 270 315 383
#     4  10  20  37  65  87 128 170 208 261 321 376
#     4  12  23  45  65  91 126 168 216 259 330 379
#     4  10  22  41  60  95 130 160 214 267 315 381
#     4  11  25  42  67  90 124 168 205 268 324 379
#     4  10  21  40  61  91 126 163 208 262 316 376
#     4  10  22  41  66  90 129 167 205 261 317 376
#     4  11  20  38  61  94 124 167 215 258 320 378
#
# _framework density 20.289209
#
# number of rings (size 3 to 8) (size 9 to 14) (size 15 to 20)
#    0.000    1.500    2.500    2.625    3.500    0.000 
#    9.000    0.625    0.000    0.000    0.000    0.000 
#    0.000    0.000    0.000    0.000    0.000    0.000 
#
# Total GULP energy -356716.340982 kJ/mol
# GULP energy per Si atom -5573.692828 kJ/mol
# Density = 2.024303 g / cm^3
# Si number density = 20.289209 Si / 1000 Ang^3
#
#
#
# Elastic Constant Matrix: (Units=GPa)
#
#
# Indices 1 2 3 4 5 6 
#
# 1 59.6155 8.8209 -14.4192 0.0000 0.0000 0.0000
# 2 8.8209 66.8264 9.8601 0.0000 0.0000 0.0000
# 3 -14.4192 9.8601 30.8059 0.0000 0.0000 0.0000
# 4 0.0000 0.0000 0.0000 21.7059 0.0000 0.0000
# 5 0.0000 0.0000 0.0000 0.0000 11.1053 0.0000
# 6 0.0000 0.0000 0.0000 0.0000 0.0000 8.1002
#
#
#
# Elastic Compliance Matrix: (Units=1/GPa)
#
#
# Indices 1 2 3 4 5 6 
#
# 1 0.019988 -0.004218 0.010705 0.000000 0.000000 0.000000
# 2 -0.004218 0.016596 -0.007286 0.000000 0.000000 0.000000
# 3 0.010705 -0.007286 0.039804 0.000000 0.000000 0.000000
# 4 0.000000 0.000000 0.000000 0.046070 0.000000 0.000000
# 5 0.000000 0.000000 0.000000 0.000000 0.090047 0.000000
# 6 0.000000 0.000000 0.000000 0.000000 0.000000 0.123453
#
#
# Mechanical properties :
#
#
# Convention : Reuss Voigt Hill
#
# Bulk Modulus (GPa) = 13.37064 18.41905 15.89485
# Shear Modulus (GPa) = 13.79365 18.38137 16.08751
#
# Velocity S-wave (km/s) = 2.61023 3.01320 2.81892
# Velocity P-wave (km/s) = 3.96090 4.60475 4.29491
#
# Compressibility (1/GPa) = 0.07479073
#
# Stress axis : x y z
#
# Youngs Moduli (GPa) = 50.03109 60.25567 25.12297
#
# Poissons Ratio (x) = 0.25415 -0.26895
# Poissons Ratio (y) = 0.21102 0.18305
# Poissons Ratio (z) = -0.53561 0.43903
#
# Static dielectric constant tensor:
#      x y z
#    x 1.734000 0.000000 0.000000 
#    y 0.000000 1.700860 0.000000 
#    z 0.000000 0.000000 1.782080 
# 
# From -- ./inp_files/3205.got.cif
#   From: 2010.05.17/outbox.cif.g08.bks.cpg/sg61_2_cif.got.tgz:3205.got - 2010.06.03 15:17:17.
