data_PCOD9459491
_publ_section_title
;
Structure prediction by ZEFSAII (Michael W. Deem and Ramdas Pophale) SiO2 
 PCOD9459491
Probable space group: P B C A
;
_chemical_formula_sum "Si O2"
_cell_formula_units_Z 48
_cell_length_a 16.616928
_cell_length_b 9.228867
_cell_length_c 14.303192
_cell_angle_alpha 90.000000
_cell_angle_beta 90.000000
_cell_angle_gamma 90.000000
_cell_volume 2193.471994
_symmetry_space_group_name_H-M "P B C A"
_symmetry_group_IT_number 61
_symmetry_cell_setting 'orthorhombic'
loop_
_space_group_symop_operation_xyz
x,y,z
1/2-x,-y,1/2+z
1/2+x,1/2-y,-z
-x,1/2+y,1/2-z
-x,-y,-z
1/2+x,y,1/2-z
1/2-x,1/2+y,z
x,1/2-y,1/2+z
loop_
_atom_site_type_symbol
_atom_site_label
_atom_site_fract_x
_atom_site_fract_y
_atom_site_fract_z
Si Si1 0.720506 0.362038 0.518501
Si Si2 0.599441 0.998807 0.389904
Si Si3 0.341370 0.209307 0.761908
Si Si4 0.282746 0.391500 0.602538
Si Si5 0.435629 0.114847 0.402435
Si Si6 0.314390 0.601220 0.857049
O O1 0.777941 0.255987 0.458040
O O2 0.676324 0.471654 0.448111
O O3 0.674285 0.248994 0.583651
O O4 0.768240 0.475711 0.583440
O O5 0.603852 0.893439 0.301183
O O6 0.530238 0.119261 0.382407
O O7 0.688539 0.066464 0.391536
O O8 0.578084 0.916931 0.487450
O O9 0.322311 0.350694 0.699891
O O10 0.385815 0.253062 0.857380
O O11 0.252584 0.142286 0.780492
O O12 0.400845 0.972386 0.348028
#
# Coordination Sequence:
#
# PCOD9459491 Si02
#       6
#     8   8   8   8   8   8
#     4  10  20  36  66  93 124 163 218 258 316 364
#     4  11  24  43  63  91 132 171 199 258 329 372
#     4  12  24  40  66  98 122 162 226 264 302 376
#     4  11  20  40  64  94 122 165 215 264 301 379
#     4  11  24  43  63  91 132 171 199 258 329 372
#     4  11  20  40  64  94 122 165 215 264 301 379
#
# _framework density 21.883115
#
# number of rings (size 3 to 8) (size 9 to 14) (size 15 to 20)
#    0.000    1.000    6.667    1.000    2.333    1.333 
#    0.000    0.000    0.000    3.000    0.000    0.000 
#    0.000    0.000    0.000    0.000    0.000    0.000 
#
# Total GULP energy -267635.313527 kJ/mol
# GULP energy per Si atom -5575.735698 kJ/mol
# Density = 2.183331 g / cm^3
# Si number density = 21.883115 Si / 1000 Ang^3
#
#
#
# Elastic Constant Matrix: (Units=GPa)
#
#
# Indices 1 2 3 4 5 6 
#
# 1 41.5406 -7.6567 2.3615 0.0000 0.0000 0.0000
# 2 -7.6567 96.8371 17.6941 0.0000 0.0000 0.0000
# 3 2.3615 17.6941 85.8999 0.0000 0.0000 0.0000
# 4 0.0000 0.0000 0.0000 43.2858 0.0000 0.0000
# 5 0.0000 0.0000 0.0000 0.0000 15.6082 0.0000
# 6 0.0000 0.0000 0.0000 0.0000 0.0000 22.4991
#
#
#
# Elastic Compliance Matrix: (Units=1/GPa)
#
#
# Indices 1 2 3 4 5 6 
#
# 1 0.024531 0.002144 -0.001116 0.000000 0.000000 0.000000
# 2 0.002144 0.010918 -0.002308 0.000000 0.000000 0.000000
# 3 -0.001116 -0.002308 0.012148 0.000000 0.000000 0.000000
# 4 0.000000 0.000000 0.000000 0.023102 0.000000 0.000000
# 5 0.000000 0.000000 0.000000 0.000000 0.064069 0.000000
# 6 0.000000 0.000000 0.000000 0.000000 0.000000 0.044446
#
#
# Mechanical properties :
#
#
# Convention : Reuss Voigt Hill
#
# Bulk Modulus (GPa) = 22.20433 27.67504 24.93968
# Shear Modulus (GPa) = 25.40822 30.40386 27.90604
#
# Velocity S-wave (km/s) = 3.41117 3.73148 3.57491
# Velocity P-wave (km/s) = 5.06790 5.58922 5.33493
#
# Compressibility (1/GPa) = 0.04503625
#
# Stress axis : x y z
#
# Youngs Moduli (GPa) = 40.76412 91.59361 82.32135
#
# Poissons Ratio (x) = -0.19633 0.09186
# Poissons Ratio (y) = -0.08738 0.18998
# Poissons Ratio (z) = 0.04549 0.21138
#
# Static dielectric constant tensor:
#      x y z
#    x 1.838760 0.000000 0.000000 
#    y 0.000000 1.846810 0.000000 
#    z 0.000000 0.000000 1.903450 
# 
# From -- ./inp_files/8309.got.cif
#   From: 2010.05.17/outbox.cif.g08.bks.cpg/sg61_5_cif.got.tgz:8309.got - 2010.06.03 15:17:17.
