data_PCOD9459144
_publ_section_title
;
Structure prediction by ZEFSAII (Michael W. Deem and Ramdas Pophale) SiO2 
 PCOD9459144
Probable space group: P B C A
;
_chemical_formula_sum "Si O2"
_cell_formula_units_Z 48
_cell_length_a 21.802323
_cell_length_b 5.348905
_cell_length_c 20.786621
_cell_angle_alpha 90.000000
_cell_angle_beta 90.000000
_cell_angle_gamma 90.000000
_cell_volume 2424.105694
_symmetry_space_group_name_H-M "P B C A"
_symmetry_group_IT_number 61
_symmetry_cell_setting 'orthorhombic'
loop_
_space_group_symop_operation_xyz
x,y,z
1/2-x,-y,1/2+z
1/2+x,1/2-y,-z
-x,1/2+y,1/2-z
-x,-y,-z
1/2+x,y,1/2-z
1/2-x,1/2+y,z
x,1/2-y,1/2+z
loop_
_atom_site_type_symbol
_atom_site_label
_atom_site_fract_x
_atom_site_fract_y
_atom_site_fract_z
Si Si1 0.280693 0.569666 0.730714
Si Si2 0.729914 0.865227 0.414199
Si Si3 0.406217 0.052486 0.623545
Si Si4 0.488634 0.749988 0.041730
Si Si5 0.086716 0.287149 0.245068
Si Si6 0.509507 0.452486 0.656251
O O1 0.244296 0.332272 0.756580
O O2 0.266524 0.594814 0.653849
O O3 0.352621 0.546787 0.743009
O O4 0.757422 0.626191 0.448641
O O5 0.658305 0.837574 0.398490
O O6 0.461294 0.254280 0.625215
O O7 0.424068 0.822662 0.576002
O O8 0.399979 0.936932 0.694656
O O9 0.525841 0.826786 0.106462
O O10 0.500000 0.500000 0.000000
O O11 0.500000 0.000000 0.000000
O O12 0.028435 0.430522 0.215551
O O13 0.067539 0.186073 0.314220
#
# Coordination Sequence:
#
# PCOD9459144 Si02
#       6
#     8   8   8   8   8   8
#     4  10  19  33  50  75 122 157 191 225 280 377
#     4  10  19  31  51  81 118 150 189 228 297 367
#     4  11  21  36  59  85 126 158 189 255 301 376
#     4  11  24  43  59  81 115 158 217 252 303 357
#     4  11  21  32  55  91 130 155 187 239 317 376
#     4  11  22  35  58  91 125 162 195 250 312 383
#
# _framework density 19.801117999999999
#
# number of rings (size 3 to 8) (size 9 to 14) (size 15 to 20)
#    0.000    1.333    6.667    2.000    2.333    0.000 
#    0.000    0.000    0.000    0.000    0.000    7.000 
#    0.000    0.000    0.000    0.000    0.000    0.000 
#
# Total GULP energy -267441.559001 kJ/mol
# GULP energy per Si atom -5571.699146 kJ/mol
# Density = 1.975605 g / cm^3
# Si number density = 19.801118 Si / 1000 Ang^3
#
#
#
# Elastic Constant Matrix: (Units=GPa)
#
#
# Indices 1 2 3 4 5 6 
#
# 1 45.6845 13.2235 32.8437 0.0000 0.0000 0.0000
# 2 13.2235 130.9344 23.5529 0.0000 0.0000 0.0000
# 3 32.8437 23.5529 49.9288 0.0000 0.0000 0.0000
# 4 0.0000 0.0000 0.0000 35.8896 0.0000 0.0000
# 5 0.0000 0.0000 0.0000 0.0000 7.4618 0.0000
# 6 0.0000 0.0000 0.0000 0.0000 0.0000 23.8362
#
#
#
# Elastic Compliance Matrix: (Units=1/GPa)
#
#
# Indices 1 2 3 4 5 6 
#
# 1 0.041603 0.000788 -0.027739 0.000000 0.000000 0.000000
# 2 0.000788 0.008361 -0.004462 0.000000 0.000000 0.000000
# 3 -0.027739 -0.004462 0.040380 0.000000 0.000000 0.000000
# 4 0.000000 0.000000 0.000000 0.027863 0.000000 0.000000
# 5 0.000000 0.000000 0.000000 0.000000 0.134016 0.000000
# 6 0.000000 0.000000 0.000000 0.000000 0.000000 0.041953
#
#
# Mechanical properties :
#
#
# Convention : Reuss Voigt Hill
#
# Bulk Modulus (GPa) = 36.33972 40.64309 38.49140
# Shear Modulus (GPa) = 13.65464 23.89934 18.77699
#
# Velocity S-wave (km/s) = 2.62885 3.47791 3.08275
# Velocity P-wave (km/s) = 5.25421 6.05789 5.67031
#
# Compressibility (1/GPa) = 0.02751810
#
# Stress axis : x y z
#
# Youngs Moduli (GPa) = 24.03653 119.60980 24.76444
#
# Poissons Ratio (x) = -0.09426 0.68694
# Poissons Ratio (y) = -0.01894 0.11051
# Poissons Ratio (z) = 0.66675 0.53374
#
# Static dielectric constant tensor:
#      x y z
#    x 1.928490 0.000000 0.000000 
#    y 0.000000 1.842220 0.000000 
#    z 0.000000 0.000000 1.722180 
# 
# From -- ./inp_files/966.got.cif
#   From: 2010.05.17/outbox.cif.g08.bks.cpg/sg61_1_cif.got.tgz:966.got - 2010.06.03 15:17:17.
