data_PCOD9459773
_publ_section_title
;
Structure prediction by ZEFSAII (Michael W. Deem and Ramdas Pophale) SiO2 
 PCOD9459773
Probable space group: P B C A
;
_chemical_formula_sum "Si O2"
_cell_formula_units_Z 40
_cell_length_a 15.512687
_cell_length_b 13.222333
_cell_length_c 6.566561
_cell_angle_alpha 90.000000
_cell_angle_beta 90.000000
_cell_angle_gamma 90.000000
_cell_volume 1346.893023
_symmetry_space_group_name_H-M "P B C A"
_symmetry_group_IT_number 61
_symmetry_cell_setting 'orthorhombic'
loop_
_space_group_symop_operation_xyz
x,y,z
1/2-x,-y,1/2+z
1/2+x,1/2-y,-z
-x,1/2+y,1/2-z
-x,-y,-z
1/2+x,y,1/2-z
1/2-x,1/2+y,z
x,1/2-y,1/2+z
loop_
_atom_site_type_symbol
_atom_site_label
_atom_site_fract_x
_atom_site_fract_y
_atom_site_fract_z
Si Si1 0.120560 0.027094 0.347919
Si Si2 0.139542 0.666544 0.598103
Si Si3 0.453804 0.787664 0.387187
Si Si4 0.180102 0.224902 0.147624
Si Si5 0.426468 0.013282 0.271128
O O1 0.374692 0.093374 0.403437
O O2 0.175471 0.107318 0.221236
O O3 0.132462 0.030340 0.589014
O O4 0.018291 0.052783 0.317445
O O5 0.056013 0.736648 0.611196
O O6 0.225789 0.728524 0.615415
O O7 0.137619 0.585755 0.780254
O O8 0.342072 0.774339 0.388488
O O9 0.433111 0.752506 0.135897
O O10 0.454906 0.911787 0.390539
#
# Coordination Sequence:
#
# PCOD9459773 Si02
#       5
#     8   8   8   8   8
#     4  10  21  47  84 122 161 217 284 351 421 516
#     4  11  24  50  82 118 163 224 277 346 437 512
#     4  11  24  49  75 116 163 213 278 346 412 509
#     4  12  25  47  78 124 166 213 281 360 426 509
#     4  10  20  48  88 112 158 223 278 348 428 504
#
# _framework density 29.697976000000001
#
# number of rings (size 3 to 8) (size 9 to 14) (size 15 to 20)
#    0.000    1.200    4.000    2.400    0.000    1.600 
#   14.400    2.000    0.000    1.200    0.000    0.000 
#    0.000    0.000    0.000    0.000    0.000    0.000 
#
# Total GULP energy -224362.321811 kJ/mol
# GULP energy per Si atom -5609.058045 kJ/mol
# Density = 2.963038 g / cm^3
# Si number density = 29.697976 Si / 1000 Ang^3
#
#
#
# Elastic Constant Matrix: (Units=GPa)
#
#
# Indices 1 2 3 4 5 6 
#
# 1 296.9250 102.1265 101.4229 0.0000 0.0000 0.0000
# 2 102.1265 143.9460 76.4538 0.0000 0.0000 0.0000
# 3 101.4229 76.4538 254.3549 0.0000 0.0000 0.0000
# 4 0.0000 0.0000 0.0000 77.4925 0.0000 0.0000
# 5 0.0000 0.0000 0.0000 0.0000 40.1166 0.0000
# 6 0.0000 0.0000 0.0000 0.0000 0.0000 65.6430
#
#
#
# Elastic Compliance Matrix: (Units=1/GPa)
#
#
# Indices 1 2 3 4 5 6 
#
# 1 0.004672 -0.002767 -0.001031 0.000000 0.000000 0.000000
# 2 -0.002767 0.009905 -0.001874 0.000000 0.000000 0.000000
# 3 -0.001031 -0.001874 0.004906 0.000000 0.000000 0.000000
# 4 0.000000 0.000000 0.000000 0.012904 0.000000 0.000000
# 5 0.000000 0.000000 0.000000 0.000000 0.024927 0.000000
# 6 0.000000 0.000000 0.000000 0.000000 0.000000 0.015234
#
#
# Mechanical properties :
#
#
# Convention : Reuss Voigt Hill
#
# Bulk Modulus (GPa) = 122.86573 139.47027 131.16800
# Shear Modulus (GPa) = 57.73270 64.33194 61.03232
#
# Velocity S-wave (km/s) = 4.41386 4.65930 4.53824
# Velocity P-wave (km/s) = 8.21205 8.71839 8.46900
#
# Compressibility (1/GPa) = 0.00813897
#
# Stress axis : x y z
#
# Youngs Moduli (GPa) = 214.05436 100.95487 203.83133
#
# Poissons Ratio (x) = 0.27932 0.21019
# Poissons Ratio (y) = 0.59224 0.38200
# Poissons Ratio (z) = 0.22073 0.18920
#
# Static dielectric constant tensor:
#      x y z
#    x 2.214310 0.000000 0.000000 
#    y 0.000000 2.135300 0.000000 
#    z 0.000000 0.000000 2.482610 
# 
# From -- ./inp_files/2114.got.cif
#   From: 2010.05.17/outbox.cif.g08.bks.cpg/sg61_2_cif.got.tgz:2114.got - 2010.06.03 15:17:17.
