data_PCOD9459825
_publ_section_title
;
Structure prediction by ZEFSAII (Michael W. Deem and Ramdas Pophale) SiO2 
 PCOD9459825
Probable space group: P B C A
;
_chemical_formula_sum "Si O2"
_cell_formula_units_Z 48
_cell_length_a 7.855682
_cell_length_b 32.101964
_cell_length_c 8.570406
_cell_angle_alpha 90.000000
_cell_angle_beta 90.000000
_cell_angle_gamma 90.000000
_cell_volume 2161.309160
_symmetry_space_group_name_H-M "P B C A"
_symmetry_group_IT_number 61
_symmetry_cell_setting 'orthorhombic'
loop_
_space_group_symop_operation_xyz
x,y,z
1/2-x,-y,1/2+z
1/2+x,1/2-y,-z
-x,1/2+y,1/2-z
-x,-y,-z
1/2+x,y,1/2-z
1/2-x,1/2+y,z
x,1/2-y,1/2+z
loop_
_atom_site_type_symbol
_atom_site_label
_atom_site_fract_x
_atom_site_fract_y
_atom_site_fract_z
Si Si1 0.198808 0.869992 0.493589
Si Si2 0.734199 0.040671 0.509067
Si Si3 0.176018 0.289443 0.664977
Si Si4 0.823739 0.871414 0.346623
Si Si5 0.856834 0.041354 0.844228
Si Si6 0.307972 0.209711 0.493728
O O1 0.229538 0.915074 0.571914
O O2 0.234875 0.831656 0.605733
O O3 0.321593 0.867996 0.341461
O O4 0.010460 0.868658 0.420407
O O5 0.859754 0.038728 0.656933
O O6 0.544499 0.042024 0.583021
O O7 0.739037 0.999726 0.405038
O O8 0.275041 0.248809 0.604706
O O9 0.174259 0.288945 0.851253
O O10 0.990627 0.288271 0.587980
O O11 0.738573 0.915786 0.385121
O O12 0.717574 0.832822 0.412945
#
# Coordination Sequence:
#
# PCOD9459825 Si02
#       6
#     8   8   8   8   8   8
#     4  11  22  39  62  88 119 157 198 243 295 349
#     4  10  21  37  58  85 117 154 197 244 294 349
#     4  12  25  43  64  90 121 155 196 241 292 348
#     4  11  22  39  62  88 119 157 198 243 295 349
#     4  10  21  37  58  85 117 154 197 244 294 349
#     4  12  25  43  64  90 121 155 196 241 292 348
#
# _framework density 22.208760999999999
#
# number of rings (size 3 to 8) (size 9 to 14) (size 15 to 20)
#    0.000    1.000    0.000   10.000    0.000    4.000 
#    0.000    3.333    0.000    0.000    0.000    0.000 
#    0.000    0.000    0.000    0.000    0.000    0.000 
#
# Total GULP energy -268845.041350 kJ/mol
# GULP energy per Si atom -5600.938361 kJ/mol
# Density = 2.215821 g / cm^3
# Si number density = 22.208761 Si / 1000 Ang^3
#
#
#
# Elastic Constant Matrix: (Units=GPa)
#
#
# Indices 1 2 3 4 5 6 
#
# 1 67.3604 17.9051 -17.4549 0.0000 0.0000 0.0000
# 2 17.9051 182.7793 57.3597 0.0000 0.0000 0.0000
# 3 -17.4549 57.3597 42.2114 0.0000 0.0000 0.0000
# 4 0.0000 0.0000 0.0000 39.0634 0.0000 0.0000
# 5 0.0000 0.0000 0.0000 0.0000 31.3171 0.0000
# 6 0.0000 0.0000 0.0000 0.0000 0.0000 24.4950
#
#
#
# Elastic Compliance Matrix: (Units=1/GPa)
#
#
# Indices 1 2 3 4 5 6 
#
# 1 0.022927 -0.009103 0.021851 0.000000 0.000000 0.000000
# 2 -0.009103 0.013153 -0.021637 0.000000 0.000000 0.000000
# 3 0.021851 -0.021637 0.062128 0.000000 0.000000 0.000000
# 4 0.000000 0.000000 0.000000 0.025599 0.000000 0.000000
# 5 0.000000 0.000000 0.000000 0.000000 0.031931 0.000000
# 6 0.000000 0.000000 0.000000 0.000000 0.000000 0.040825
#
#
# Mechanical properties :
#
#
# Convention : Reuss Voigt Hill
#
# Bulk Modulus (GPa) = 12.43342 45.33009 28.88176
# Shear Modulus (GPa) = 20.73369 34.61119 27.67244
#
# Velocity S-wave (km/s) = 3.05877 3.95200 3.53372
# Velocity P-wave (km/s) = 4.25269 6.42492 5.44816
#
# Compressibility (1/GPa) = 0.08042839
#
# Stress axis : x y z
#
# Youngs Moduli (GPa) = 43.61618 76.02781 16.09577
#
# Poissons Ratio (x) = 0.69209 -0.35170
# Poissons Ratio (y) = 0.39704 0.34827
# Poissons Ratio (z) = -0.95304 1.64505
#
# Static dielectric constant tensor:
#      x y z
#    x 1.852070 0.000000 0.000000 
#    y 0.000000 1.799300 0.000000 
#    z 0.000000 0.000000 1.760990 
# 
# From -- ./inp_files/1886.got.cif
#   From: 2010.05.17/outbox.cif.g08.bks.cpg/sg61_1_cif.got.tgz:1886.got - 2010.06.03 15:17:17.
