data_PCOD9459585
_publ_section_title
;
Structure prediction by ZEFSAII (Michael W. Deem and Ramdas Pophale) SiO2 
 PCOD9459585
Probable space group: P B C A
;
_chemical_formula_sum "Si O2"
_cell_formula_units_Z 56
_cell_length_a 14.640568
_cell_length_b 5.444341
_cell_length_c 27.463294
_cell_angle_alpha 90.000000
_cell_angle_beta 90.000000
_cell_angle_gamma 90.000000
_cell_volume 2189.050956
_symmetry_space_group_name_H-M "P B C A"
_symmetry_group_IT_number 61
_symmetry_cell_setting 'orthorhombic'
loop_
_space_group_symop_operation_xyz
x,y,z
1/2-x,-y,1/2+z
1/2+x,1/2-y,-z
-x,1/2+y,1/2-z
-x,-y,-z
1/2+x,y,1/2-z
1/2-x,1/2+y,z
x,1/2-y,1/2+z
loop_
_atom_site_type_symbol
_atom_site_label
_atom_site_fract_x
_atom_site_fract_y
_atom_site_fract_z
Si Si1 0.546062 0.097001 0.141635
Si Si2 0.728331 0.266029 0.684157
Si Si3 0.053843 0.528085 0.592090
Si Si4 0.640146 0.726421 0.088065
Si Si5 0.299933 0.309177 0.020094
Si Si6 0.474330 0.718154 0.723334
Si Si7 0.808378 0.778886 0.841701
O O1 0.623059 0.247734 0.169733
O O2 0.593941 0.995130 0.093197
O O3 0.527934 0.858062 0.174304
O O4 0.456858 0.254433 0.131979
O O5 0.757914 0.022270 0.710601
O O6 0.790969 0.291786 0.634525
O O7 0.102566 0.636617 0.544825
O O8 0.118891 0.318862 0.614137
O O9 0.949032 0.447384 0.585721
O O10 0.692749 0.691185 0.038195
O O11 0.237070 0.541341 0.034767
O O12 0.514578 0.964912 0.746583
O O13 0.371679 0.769553 0.706299
O O14 0.746937 0.024836 0.844150
#
# Coordination Sequence:
#
# PCOD9459585 Si02
#       7
#     8   8   8   8   8   8   8
#     4  11  24  44  76 108 150 200 256 311 389 466
#     4  10  20  38  63  99 139 186 235 297 372 435
#     4  12  25  45  76 110 146 207 268 306 375 461
#     4  11  24  44  72 106 150 199 254 319 383 450
#     4  12  29  47  69 107 158 199 255 327 380 441
#     4  12  27  50  80 115 155 194 248 319 386 459
#     4  12  26  50  78 109 153 202 250 305 376 450
#
# _framework density 25.581861
#
# number of rings (size 3 to 8) (size 9 to 14) (size 15 to 20)
#    0.000    0.571    2.857    5.571    4.000    0.571 
#    0.000    8.571    0.000    0.000    0.000    0.000 
#    0.000    0.000    0.000    0.000    0.000    0.000 
#
# Total GULP energy -313602.622691 kJ/mol
# GULP energy per Si atom -5600.046834 kJ/mol
# Density = 2.552364 g / cm^3
# Si number density = 25.581861 Si / 1000 Ang^3
#
#
#
# Elastic Constant Matrix: (Units=GPa)
#
#
# Indices 1 2 3 4 5 6 
#
# 1 115.8953 53.7432 30.3278 0.0000 0.0000 0.0000
# 2 53.7432 185.6170 28.6721 0.0000 0.0000 0.0000
# 3 30.3278 28.6721 69.1409 0.0000 0.0000 0.0000
# 4 0.0000 0.0000 0.0000 29.8056 0.0000 0.0000
# 5 0.0000 0.0000 0.0000 0.0000 50.4105 0.0000
# 6 0.0000 0.0000 0.0000 0.0000 0.0000 61.9372
#
#
#
# Elastic Compliance Matrix: (Units=1/GPa)
#
#
# Indices 1 2 3 4 5 6 
#
# 1 0.010772 -0.002552 -0.003666 0.000000 0.000000 0.000000
# 2 -0.002552 0.006361 -0.001518 0.000000 0.000000 0.000000
# 3 -0.003666 -0.001518 0.016701 0.000000 0.000000 0.000000
# 4 0.000000 0.000000 0.000000 0.033551 0.000000 0.000000
# 5 0.000000 0.000000 0.000000 0.000000 0.019837 0.000000
# 6 0.000000 0.000000 0.000000 0.000000 0.000000 0.016145
#
#
# Mechanical properties :
#
#
# Convention : Reuss Voigt Hill
#
# Bulk Modulus (GPa) = 54.46772 66.23771 60.35271
# Shear Modulus (GPa) = 40.01260 45.62466 42.81863
#
# Velocity S-wave (km/s) = 3.95916 4.22770 4.09563
# Velocity P-wave (km/s) = 6.49905 7.05549 6.78298
#
# Compressibility (1/GPa) = 0.01835950
#
# Stress axis : x y z
#
# Youngs Moduli (GPa) = 92.83752 157.20842 59.87661
#
# Poissons Ratio (x) = 0.40126 0.21953
# Poissons Ratio (y) = 0.23696 0.09091
# Poissons Ratio (z) = 0.34037 0.23868
#
# Static dielectric constant tensor:
#      x y z
#    x 1.998600 0.000000 0.000000 
#    y 0.000000 2.084440 0.000000 
#    z 0.000000 0.000000 2.062500 
# 
# From -- ./inp_files/11818.got.cif
#   From: 2010.05.17/outbox.cif.g08.bks.cpg/sg61_6_cif.got.tgz:11818.got - 2010.06.03 15:17:17.
