data_PCOD9459832
_publ_section_title
;
Structure prediction by ZEFSAII (Michael W. Deem and Ramdas Pophale) SiO2 
 PCOD9459832
Probable space group: P B C A
;
_chemical_formula_sum "Si O2"
_cell_formula_units_Z 48
_cell_length_a 14.011797
_cell_length_b 10.503106
_cell_length_c 14.934123
_cell_angle_alpha 90.000000
_cell_angle_beta 90.000000
_cell_angle_gamma 90.000000
_cell_volume 2197.815891
_symmetry_space_group_name_H-M "P B C A"
_symmetry_group_IT_number 61
_symmetry_cell_setting 'orthorhombic'
loop_
_space_group_symop_operation_xyz
x,y,z
1/2-x,-y,1/2+z
1/2+x,1/2-y,-z
-x,1/2+y,1/2-z
-x,-y,-z
1/2+x,y,1/2-z
1/2-x,1/2+y,z
x,1/2-y,1/2+z
loop_
_atom_site_type_symbol
_atom_site_label
_atom_site_fract_x
_atom_site_fract_y
_atom_site_fract_z
Si Si1 0.182721 0.443290 0.755751
Si Si2 0.485733 0.696099 0.331310
Si Si3 0.638915 0.696589 0.183567
Si Si4 0.452175 0.285687 0.991158
Si Si5 0.330814 0.584696 0.856792
Si Si6 0.864958 0.947192 0.947123
O O1 0.076923 0.420477 0.793118
O O2 0.251372 0.329393 0.791410
O O3 0.236232 0.566229 0.796457
O O4 0.184174 0.441771 0.648845
O O5 0.571308 0.732762 0.265089
O O6 0.525719 0.684090 0.431647
O O7 0.408870 0.809627 0.336749
O O8 0.612999 0.547842 0.160744
O O9 0.612604 0.762074 0.090251
O O10 0.405078 0.409594 0.039050
O O11 0.550303 0.342749 0.950348
O O12 0.306159 0.583307 0.962492
#
# Coordination Sequence:
#
# PCOD9459832 Si02
#       6
#     8   8   8   8   8   8
#     4  10  21  37  59  94 121 151 214 255 288 376
#     4  11  20  37  62  87 119 166 197 249 311 360
#     4   9  20  41  56  90 121 152 206 250 299 372
#     4   9  18  35  63  83 111 167 197 236 315 363
#     4   8  21  39  57  90 118 156 208 241 312 358
#     4   9  16  37  65  76 116 166 191 247 304 366
#
# _framework density 21.839863999999999
#
# number of rings (size 3 to 8) (size 9 to 14) (size 15 to 20)
#    1.000    1.667    1.667    1.000    0.000    1.333 
#    9.000    0.000    0.000    2.000    0.000    0.000 
#    0.000    0.000    0.000    0.000    0.000    0.000 
#
# Total GULP energy -267473.250528 kJ/mol
# GULP energy per Si atom -5572.359386 kJ/mol
# Density = 2.179016 g / cm^3
# Si number density = 21.839864 Si / 1000 Ang^3
#
#
#
# Elastic Constant Matrix: (Units=GPa)
#
#
# Indices 1 2 3 4 5 6 
#
# 1 87.1123 -6.5592 64.8494 0.0000 0.0000 0.0000
# 2 -6.5592 16.4594 -8.4384 0.0000 0.0000 0.0000
# 3 64.8494 -8.4384 156.8941 0.0000 0.0000 0.0000
# 4 0.0000 0.0000 0.0000 19.6680 0.0000 0.0000
# 5 0.0000 0.0000 0.0000 0.0000 49.9992 0.0000
# 6 0.0000 0.0000 0.0000 0.0000 0.0000 47.6207
#
#
#
# Elastic Compliance Matrix: (Units=1/GPa)
#
#
# Indices 1 2 3 4 5 6 
#
# 1 0.016745 0.003213 -0.006749 0.000000 0.000000 0.000000
# 2 0.003213 0.063095 0.002065 0.000000 0.000000 0.000000
# 3 -0.006749 0.002065 0.009274 0.000000 0.000000 0.000000
# 4 0.000000 0.000000 0.000000 0.050844 0.000000 0.000000
# 5 0.000000 0.000000 0.000000 0.000000 0.020000 0.000000
# 6 0.000000 0.000000 0.000000 0.000000 0.000000 0.020999
#
#
# Mechanical properties :
#
#
# Convention : Reuss Voigt Hill
#
# Bulk Modulus (GPa) = 11.60434 40.01883 25.81159
# Shear Modulus (GPa) = 23.51582 37.49850 30.50716
#
# Velocity S-wave (km/s) = 3.28493 4.14814 3.74151
# Velocity P-wave (km/s) = 4.43989 6.42699 5.52353
#
# Compressibility (1/GPa) = 0.08617466
#
# Stress axis : x y z
#
# Youngs Moduli (GPa) = 59.71853 15.84910 107.82605
#
# Poissons Ratio (x) = -0.05093 0.72767
# Poissons Ratio (y) = -0.19189 -0.22270
# Poissons Ratio (z) = 0.40301 -0.03273
#
# Static dielectric constant tensor:
#      x y z
#    x 1.822170 0.000000 0.000000 
#    y 0.000000 1.905260 0.000000 
#    z 0.000000 0.000000 1.796240 
# 
# From -- ./inp_files/8142.got.cif
#   From: 2010.05.17/outbox.cif.g08.bks.cpg/sg61_5_cif.got.tgz:8142.got - 2010.06.03 15:17:17.
