data_PCOD9459768
_publ_section_title
;
Structure prediction by ZEFSAII (Michael W. Deem and Ramdas Pophale) SiO2 
 PCOD9459768
Probable space group: P B C A
;
_chemical_formula_sum "Si O2"
_cell_formula_units_Z 48
_cell_length_a 12.011667
_cell_length_b 20.948350
_cell_length_c 8.640423
_cell_angle_alpha 90.000000
_cell_angle_beta 90.000000
_cell_angle_gamma 90.000000
_cell_volume 2174.143019
_symmetry_space_group_name_H-M "P B C A"
_symmetry_group_IT_number 61
_symmetry_cell_setting 'orthorhombic'
loop_
_space_group_symop_operation_xyz
x,y,z
1/2-x,-y,1/2+z
1/2+x,1/2-y,-z
-x,1/2+y,1/2-z
-x,-y,-z
1/2+x,y,1/2-z
1/2-x,1/2+y,z
x,1/2-y,1/2+z
loop_
_atom_site_type_symbol
_atom_site_label
_atom_site_fract_x
_atom_site_fract_y
_atom_site_fract_z
Si Si1 0.251276 0.561146 0.154453
Si Si2 0.867240 0.847152 0.334980
Si Si3 0.982425 0.233062 0.170334
Si Si4 0.301947 0.428351 0.015945
Si Si5 0.544004 0.111069 0.515142
Si Si6 0.078511 0.658460 0.019249
O O1 0.220774 0.568836 0.333395
O O2 0.169906 0.606145 0.054434
O O3 0.244871 0.488409 0.098767
O O4 0.376152 0.584171 0.117293
O O5 0.750673 0.864877 0.409482
O O6 0.887089 0.881371 0.172178
O O7 0.902416 0.773190 0.312630
O O8 0.963057 0.870781 0.455257
O O9 0.946265 0.197339 0.324173
O O10 0.896903 0.287550 0.110918
O O11 0.001165 0.180089 0.040192
O O12 0.433751 0.429817 0.042030
#
# Coordination Sequence:
#
# PCOD9459768 Si02
#       6
#     8   8   8   8   8   8
#     4  12  28  46  73 106 146 199 248 307 372 432
#     4  10  24  44  74 103 140 190 239 301 374 435
#     4  10  20  45  69 110 135 186 238 300 369 436
#     4  12  28  48  72 102 149 194 249 303 368 447
#     4  12  25  47  71 105 149 184 249 301 369 442
#     4  10  22  46  72 106 141 186 240 306 370 442
#
# _framework density 22.077663000000001
#
# number of rings (size 3 to 8) (size 9 to 14) (size 15 to 20)
#    1.000    0.000    3.333    2.500    4.667    2.000 
#    3.000    0.000    0.000    0.000    0.000    0.000 
#    0.000    0.000    0.000    0.000    0.000    0.000 
#
# Total GULP energy -268263.116922 kJ/mol
# GULP energy per Si atom -5588.814936 kJ/mol
# Density = 2.202741 g / cm^3
# Si number density = 22.077663 Si / 1000 Ang^3
#
#
#
# Elastic Constant Matrix: (Units=GPa)
#
#
# Indices 1 2 3 4 5 6 
#
# 1 53.8099 4.2860 -0.2417 0.0000 0.0000 0.0000
# 2 4.2860 66.0264 -9.0157 0.0000 0.0000 0.0000
# 3 -0.2417 -9.0157 83.4398 0.0000 0.0000 0.0000
# 4 0.0000 0.0000 0.0000 27.3517 0.0000 0.0000
# 5 0.0000 0.0000 0.0000 0.0000 20.6954 0.0000
# 6 0.0000 0.0000 0.0000 0.0000 0.0000 12.2744
#
#
#
# Elastic Compliance Matrix: (Units=1/GPa)
#
#
# Indices 1 2 3 4 5 6 
#
# 1 0.018681 -0.001223 -0.000078 0.000000 0.000000 0.000000
# 2 -0.001223 0.015452 0.001666 0.000000 0.000000 0.000000
# 3 -0.000078 0.001666 0.012164 0.000000 0.000000 0.000000
# 4 0.000000 0.000000 0.000000 0.036561 0.000000 0.000000
# 5 0.000000 0.000000 0.000000 0.000000 0.048320 0.000000
# 6 0.000000 0.000000 0.000000 0.000000 0.000000 0.081471
#
#
# Mechanical properties :
#
#
# Convention : Reuss Voigt Hill
#
# Bulk Modulus (GPa) = 21.26425 21.48148 21.37287
# Shear Modulus (GPa) = 21.96880 25.94746 23.95813
#
# Velocity S-wave (km/s) = 3.15789 3.43196 3.29777
# Velocity P-wave (km/s) = 4.79050 5.04535 4.91957
#
# Compressibility (1/GPa) = 0.04702729
#
# Stress axis : x y z
#
# Youngs Moduli (GPa) = 53.53026 64.71500 82.20651
#
# Poissons Ratio (x) = 0.07917 0.00642
# Poissons Ratio (y) = 0.06548 -0.13696
# Poissons Ratio (z) = 0.00418 -0.10782
#
# Static dielectric constant tensor:
#      x y z
#    x 1.807010 0.000000 0.000000 
#    y 0.000000 1.834090 0.000000 
#    z 0.000000 0.000000 1.789910 
# 
# From -- ./inp_files/2288.got.cif
#   From: 2010.05.17/outbox.cif.g08.bks.cpg/sg61_2_cif.got.tgz:2288.got - 2010.06.03 15:17:17.
