data_PCOD9459041
_publ_section_title
;
Structure prediction by ZEFSAII (Michael W. Deem and Ramdas Pophale) SiO2 
 PCOD9459041
Probable space group: P B C A
;
_chemical_formula_sum "Si O2"
_cell_formula_units_Z 64
_cell_length_a 19.013324
_cell_length_b 21.072611
_cell_length_c 8.609235
_cell_angle_alpha 90.000000
_cell_angle_beta 90.000000
_cell_angle_gamma 90.000000
_cell_volume 3449.379371
_symmetry_space_group_name_H-M "P B C A"
_symmetry_group_IT_number 61
_symmetry_cell_setting 'orthorhombic'
loop_
_space_group_symop_operation_xyz
x,y,z
1/2-x,-y,1/2+z
1/2+x,1/2-y,-z
-x,1/2+y,1/2-z
-x,-y,-z
1/2+x,y,1/2-z
1/2-x,1/2+y,z
x,1/2-y,1/2+z
loop_
_atom_site_type_symbol
_atom_site_label
_atom_site_fract_x
_atom_site_fract_y
_atom_site_fract_z
Si Si1 0.475918 0.169577 0.257391
Si Si2 0.947994 0.754528 0.027846
Si Si3 0.560201 0.038910 0.662273
Si Si4 0.349034 0.090683 0.361915
Si Si5 0.872495 0.664744 0.788229
Si Si6 0.756071 0.087124 0.854261
Si Si7 0.211086 0.030392 0.336547
Si Si8 0.441683 0.548541 0.203157
O O1 0.514956 0.198653 0.407028
O O2 0.490134 0.220874 0.125266
O O3 0.397525 0.146449 0.297261
O O4 0.518216 0.105770 0.214417
O O5 0.895503 0.791981 0.142421
O O6 0.904160 0.701311 0.935465
O O7 0.592156 0.096290 0.758125
O O8 0.553385 0.059324 0.482455
O O9 0.608196 0.975419 0.654298
O O10 0.485226 0.016079 0.727446
O O11 0.325872 0.100722 0.542530
O O12 0.274132 0.076938 0.280287
O O13 0.790483 0.647726 0.810589
O O14 0.770404 0.041572 0.709126
O O15 0.712057 0.044636 0.979977
O O16 0.137653 0.045458 0.258015
#
# Coordination Sequence:
#
# PCOD9459041 Si02
#       8
#     8   8   8   8   8   8   8   8
#     4  10  20  40  59  82 109 153 199 243 281 343
#     4  10  23  36  62  77 111 152 207 241 282 322
#     4  10  18  32  59  86 115 147 186 233 293 358
#     4   9  20  36  59  84 119 148 182 237 301 358
#     4  11  20  40  54  88 111 155 193 248 281 343
#     4  10  20  34  57  81 122 144 183 228 299 356
#     4  10  19  34  56  89 120 150 174 231 301 364
#     4  10  18  32  58  91 113 144 186 232 302 350
#
# _framework density 18.554061999999998
#
# number of rings (size 3 to 8) (size 9 to 14) (size 15 to 20)
#    0.750    1.250    3.750    0.750    0.000    0.000 
#    2.250    3.125    0.000    0.000    0.000    0.000 
#    0.000    0.000    0.000    0.000    0.000    0.000 
#
# Total GULP energy -356457.997569 kJ/mol
# GULP energy per Si atom -5569.656212 kJ/mol
# Density = 1.851183 g / cm^3
# Si number density = 18.554062 Si / 1000 Ang^3
#
#
#
# Elastic Constant Matrix: (Units=GPa)
#
#
# Indices 1 2 3 4 5 6 
#
# 1 89.6165 22.3364 4.7780 0.0000 0.0000 0.0000
# 2 22.3364 67.7255 22.7062 0.0000 0.0000 0.0000
# 3 4.7780 22.7062 40.7497 0.0000 0.0000 0.0000
# 4 0.0000 0.0000 0.0000 1.0907 0.0000 0.0000
# 5 0.0000 0.0000 0.0000 0.0000 19.8452 0.0000
# 6 0.0000 0.0000 0.0000 0.0000 0.0000 26.4811
#
#
#
# Elastic Compliance Matrix: (Units=1/GPa)
#
#
# Indices 1 2 3 4 5 6 
#
# 1 0.012191 -0.004355 0.000997 0.000000 0.000000 0.000000
# 2 -0.004355 0.019713 -0.010474 0.000000 0.000000 0.000000
# 3 0.000997 -0.010474 0.030259 0.000000 0.000000 0.000000
# 4 0.000000 0.000000 0.000000 0.916818 0.000000 0.000000
# 5 0.000000 0.000000 0.000000 0.000000 0.050390 0.000000
# 6 0.000000 0.000000 0.000000 0.000000 0.000000 0.037763
#
#
# Mechanical properties :
#
#
# Convention : Reuss Voigt Hill
#
# Bulk Modulus (GPa) = 28.98524 33.08145 31.03334
# Shear Modulus (GPa) = 4.51958 19.36815 11.94386
#
# Velocity S-wave (km/s) = 1.56243 3.23441 2.53994
# Velocity P-wave (km/s) = 4.34866 5.64066 5.03626
#
# Compressibility (1/GPa) = 0.03450032
#
# Stress axis : x y z
#
# Youngs Moduli (GPa) = 82.02806 50.72704 33.04765
#
# Poissons Ratio (x) = 0.22092 -0.03296
# Poissons Ratio (y) = 0.35723 0.34614
# Poissons Ratio (z) = -0.08180 0.53131
#
# Static dielectric constant tensor:
#      x y z
#    x 1.666850 0.000000 0.000000 
#    y 0.000000 1.629680 0.000000 
#    z 0.000000 0.000000 1.658100 
# 
# From -- ./inp_files/4118.got.cif
#   From: 2010.05.17/outbox.cif.g08.bks.cpg/sg61_3_cif.got.tgz:4118.got - 2010.06.03 15:17:17.
