data_PCOD9459678
_publ_section_title
;
Structure prediction by ZEFSAII (Michael W. Deem and Ramdas Pophale) SiO2 
 PCOD9459678
Probable space group: P B C A
;
_chemical_formula_sum "Si O2"
_cell_formula_units_Z 40
_cell_length_a 10.541392
_cell_length_b 18.318310
_cell_length_c 8.689598
_cell_angle_alpha 90.000000
_cell_angle_beta 90.000000
_cell_angle_gamma 90.000000
_cell_volume 1677.965601
_symmetry_space_group_name_H-M "P B C A"
_symmetry_group_IT_number 61
_symmetry_cell_setting 'orthorhombic'
loop_
_space_group_symop_operation_xyz
x,y,z
1/2-x,-y,1/2+z
1/2+x,1/2-y,-z
-x,1/2+y,1/2-z
-x,-y,-z
1/2+x,y,1/2-z
1/2-x,1/2+y,z
x,1/2-y,1/2+z
loop_
_atom_site_type_symbol
_atom_site_label
_atom_site_fract_x
_atom_site_fract_y
_atom_site_fract_z
Si Si1 0.877406 0.386861 0.984056
Si Si2 0.495578 0.576283 0.190103
Si Si3 0.709958 0.517128 0.973204
Si Si4 0.185344 0.200398 0.231544
Si Si5 0.367399 0.654646 0.583481
O O1 0.782415 0.447730 0.045534
O O2 0.800895 0.332864 0.868894
O O3 0.970320 0.429820 0.867383
O O4 0.979130 0.348733 0.093179
O O5 0.386164 0.519928 0.146410
O O6 0.437251 0.656805 0.163875
O O7 0.620075 0.558313 0.093805
O O8 0.804369 0.575722 0.900492
O O9 0.179764 0.286184 0.204862
O O10 0.176615 0.182666 0.413060
#
# Coordination Sequence:
#
# PCOD9459678 Si02
#       5
#     8   8   8   8   8
#     4  10  21  41  66  92 130 168 217 270 327 381
#     4   9  20  41  63  89 127 171 208 268 324 377
#     4  10  20  40  66  90 123 167 219 265 323 380
#     4  10  23  41  63  92 134 172 210 264 324 387
#     4  11  23  41  63  96 129 172 213 266 325 384
#
# _framework density 23.838391999999999
#
# number of rings (size 3 to 8) (size 9 to 14) (size 15 to 20)
#    0.000    2.000    2.000    0.600    2.800    0.000 
#   10.800    0.000    0.000    0.000    0.000    0.000 
#    0.000    0.000    0.000    0.000    0.000    0.000 
#
# Total GULP energy -223682.078774 kJ/mol
# GULP energy per Si atom -5592.051969 kJ/mol
# Density = 2.378413 g / cm^3
# Si number density = 23.838392 Si / 1000 Ang^3
#
#
#
# Elastic Constant Matrix: (Units=GPa)
#
#
# Indices 1 2 3 4 5 6 
#
# 1 100.9237 19.7693 6.1704 0.0000 0.0000 0.0000
# 2 19.7693 89.5346 0.2134 0.0000 0.0000 0.0000
# 3 6.1704 0.2134 17.3022 0.0000 0.0000 0.0000
# 4 0.0000 0.0000 0.0000 33.5962 0.0000 0.0000
# 5 0.0000 0.0000 0.0000 0.0000 12.5779 0.0000
# 6 0.0000 0.0000 0.0000 0.0000 0.0000 28.3287
#
#
#
# Elastic Compliance Matrix: (Units=1/GPa)
#
#
# Indices 1 2 3 4 5 6 
#
# 1 0.010594 -0.002330 -0.003749 0.000000 0.000000 0.000000
# 2 -0.002330 0.011682 0.000687 0.000000 0.000000 0.000000
# 3 -0.003749 0.000687 0.059125 0.000000 0.000000 0.000000
# 4 0.000000 0.000000 0.000000 0.029765 0.000000 0.000000
# 5 0.000000 0.000000 0.000000 0.000000 0.079505 0.000000
# 6 0.000000 0.000000 0.000000 0.000000 0.000000 0.035300
#
#
# Mechanical properties :
#
#
# Convention : Reuss Voigt Hill
#
# Bulk Modulus (GPa) = 14.16124 28.89629 21.52876
# Shear Modulus (GPa) = 19.20903 27.00772 23.10837
#
# Velocity S-wave (km/s) = 2.84175 3.36958 3.11686
# Velocity P-wave (km/s) = 4.08910 5.22368 4.69082
#
# Compressibility (1/GPa) = 0.07061531
#
# Stress axis : x y z
#
# Youngs Moduli (GPa) = 94.39149 85.60360 16.91339
#
# Poissons Ratio (x) = 0.19948 0.06342
# Poissons Ratio (y) = 0.21996 -0.01162
# Poissons Ratio (z) = 0.35391 -0.05881
#
# Static dielectric constant tensor:
#      x y z
#    x 1.991470 0.000000 0.000000 
#    y 0.000000 1.890490 0.000000 
#    z 0.000000 0.000000 1.935590 
# 
# From -- ./inp_files/2102.got.cif
#   From: 2010.05.17/outbox.cif.g08.bks.cpg/sg61_2_cif.got.tgz:2102.got - 2010.06.03 15:17:17.
