data_PCOD9459300
_publ_section_title
;
Structure prediction by ZEFSAII (Michael W. Deem and Ramdas Pophale) SiO2 
 PCOD9459300
Probable space group: P B C A
;
_chemical_formula_sum "Si O2"
_cell_formula_units_Z 40
_cell_length_a 19.342066
_cell_length_b 9.258254
_cell_length_c 8.931616
_cell_angle_alpha 90.000000
_cell_angle_beta 90.000000
_cell_angle_gamma 90.000000
_cell_volume 1599.418059
_symmetry_space_group_name_H-M "P B C A"
_symmetry_group_IT_number 61
_symmetry_cell_setting 'orthorhombic'
loop_
_space_group_symop_operation_xyz
x,y,z
1/2-x,-y,1/2+z
1/2+x,1/2-y,-z
-x,1/2+y,1/2-z
-x,-y,-z
1/2+x,y,1/2-z
1/2-x,1/2+y,z
x,1/2-y,1/2+z
loop_
_atom_site_type_symbol
_atom_site_label
_atom_site_fract_x
_atom_site_fract_y
_atom_site_fract_z
Si Si1 0.751349 0.052141 0.215979
Si Si2 0.506982 0.777930 0.784128
Si Si3 0.216273 0.684960 0.585102
Si Si4 0.594900 0.052709 0.793123
Si Si5 0.587096 0.852730 0.048826
O O1 0.746121 0.185227 0.329922
O O2 0.702672 0.928863 0.282157
O O3 0.829709 0.987050 0.229342
O O4 0.742431 0.104725 0.046945
O O5 0.433205 0.710828 0.744130
O O6 0.596008 0.007236 0.969272
O O7 0.563139 0.666214 0.715907
O O8 0.538693 0.933301 0.732829
O O9 0.151675 0.756778 0.501380
O O10 0.479110 0.285480 0.539533
#
# Coordination Sequence:
#
# PCOD9459300 Si02
#       5
#     8   8   8   8   8
#     4  11  23  42  65  95 128 172 219 263 328 380
#     4  10  19  38  61  87 126 160 205 256 312 377
#     4  11  21  43  65  91 131 170 215 273 318 387
#     4   9  21  37  62  90 126 159 209 254 312 379
#     4   9  19  37  61  83 122 167 202 247 323 365
#
# _framework density 25.009094999999999
#
# number of rings (size 3 to 8) (size 9 to 14) (size 15 to 20)
#    1.200    0.800    2.000    1.800    0.000    2.400 
#    3.600    2.000    0.000    0.000    0.000    0.000 
#    0.000    0.000    0.000    0.000    0.000    0.000 
#
# Total GULP energy -223151.972523 kJ/mol
# GULP energy per Si atom -5578.799313 kJ/mol
# Density = 2.495217 g / cm^3
# Si number density = 25.009095 Si / 1000 Ang^3
#
#
#
# Elastic Constant Matrix: (Units=GPa)
#
#
# Indices 1 2 3 4 5 6 
#
# 1 82.1394 55.5409 34.2081 0.0000 0.0000 0.0000
# 2 55.5409 79.8769 22.1968 0.0000 0.0000 0.0000
# 3 34.2081 22.1968 62.1459 0.0000 0.0000 0.0000
# 4 0.0000 0.0000 0.0000 3.1595 0.0000 0.0000
# 5 0.0000 0.0000 0.0000 0.0000 17.1319 0.0000
# 6 0.0000 0.0000 0.0000 0.0000 0.0000 46.2167
#
#
#
# Elastic Compliance Matrix: (Units=1/GPa)
#
#
# Indices 1 2 3 4 5 6 
#
# 1 0.026865 -0.016176 -0.009010 0.000000 0.000000 0.000000
# 2 -0.016176 0.023639 0.000461 0.000000 0.000000 0.000000
# 3 -0.009010 0.000461 0.020886 0.000000 0.000000 0.000000
# 4 0.000000 0.000000 0.000000 0.316508 0.000000 0.000000
# 5 0.000000 0.000000 0.000000 0.000000 0.058371 0.000000
# 6 0.000000 0.000000 0.000000 0.000000 0.000000 0.021637
#
#
# Mechanical properties :
#
#
# Convention : Reuss Voigt Hill
#
# Bulk Modulus (GPa) = 45.58010 49.78377 47.68193
# Shear Modulus (GPa) = 9.52982 20.78271 15.15626
#
# Velocity S-wave (km/s) = 1.95418 2.88584 2.46444
# Velocity P-wave (km/s) = 4.83288 5.57258 5.21586
#
# Compressibility (1/GPa) = 0.02193940
#
# Stress axis : x y z
#
# Youngs Moduli (GPa) = 37.22361 42.30309 47.87887
#
# Poissons Ratio (x) = 0.68430 0.43139
# Poissons Ratio (y) = 0.60213 -0.02207
# Poissons Ratio (z) = 0.33538 -0.01950
#
# Static dielectric constant tensor:
#      x y z
#    x 2.000350 0.000000 0.000000 
#    y 0.000000 2.031030 0.000000 
#    z 0.000000 0.000000 1.955240 
# 
# From -- ./inp_files/3817.got.cif
#   From: 2010.05.17/outbox.cif.g08.bks.cpg/sg61_2_cif.got.tgz:3817.got - 2010.06.03 15:17:17.
