data_PCOD9459167
_publ_section_title
;
Structure prediction by ZEFSAII (Michael W. Deem and Ramdas Pophale) SiO2 
 PCOD9459167
Probable space group: P B C A
;
_chemical_formula_sum "Si O2"
_cell_formula_units_Z 64
_cell_length_a 27.680875
_cell_length_b 23.789459
_cell_length_c 5.491532
_cell_angle_alpha 90.000000
_cell_angle_beta 90.000000
_cell_angle_gamma 90.000000
_cell_volume 3616.245437
_symmetry_space_group_name_H-M "P B C A"
_symmetry_group_IT_number 61
_symmetry_cell_setting 'orthorhombic'
loop_
_space_group_symop_operation_xyz
x,y,z
1/2-x,-y,1/2+z
1/2+x,1/2-y,-z
-x,1/2+y,1/2-z
-x,-y,-z
1/2+x,y,1/2-z
1/2-x,1/2+y,z
x,1/2-y,1/2+z
loop_
_atom_site_type_symbol
_atom_site_label
_atom_site_fract_x
_atom_site_fract_y
_atom_site_fract_z
Si Si1 0.994117 0.067639 0.966123
Si Si2 0.406069 0.723743 0.246096
Si Si3 0.635264 0.011494 0.076089
Si Si4 0.459325 0.451346 0.533698
Si Si5 0.815519 0.889434 0.267750
Si Si6 0.703485 0.232965 0.842243
Si Si7 0.764317 0.468917 0.103214
Si Si8 0.903571 0.895372 0.918966
O O1 0.972599 0.084371 0.228765
O O2 0.047071 0.094143 0.936695
O O3 0.962132 0.078838 0.728390
O O4 0.000000 0.000000 0.000000
O O5 0.426123 0.754382 0.486233
O O6 0.349274 0.740122 0.216457
O O7 0.411526 0.656496 0.265133
O O8 0.610811 0.045256 0.298126
O O9 0.677882 0.967785 0.134137
O O10 0.662308 0.061278 0.932196
O O11 0.592048 0.981557 0.934595
O O12 0.500000 0.500000 0.500000
O O13 0.803226 0.832450 0.404247
O O14 0.767702 0.913641 0.141009
O O15 0.858344 0.876465 0.079844
O O16 0.727327 0.237740 0.574922
O O17 0.747727 0.508620 0.331006
#
# Coordination Sequence:
#
# PCOD9459167 Si02
#       8
#     8   8   8   8   8   8   8   8
#     4  10  20  32  45  74  94 126 173 203 232 303
#     4  10  20  32  44  72  97 126 164 199 235 304
#     4  11  21  32  51  70 101 144 166 206 245 291
#     4  10  19  33  46  67 100 124 169 207 233 282
#     4  11  21  32  51  71 103 140 169 196 253 300
#     4  10  19  33  47  69  98 126 161 210 239 292
#     4  10  22  34  46  72 101 132 175 198 235 307
#     4  12  20  30  56  67 102 145 158 199 264 285
#
# _framework density 17.697914000000001
#
# number of rings (size 3 to 8) (size 9 to 14) (size 15 to 20)
#    0.000    1.500    6.250    3.000    0.000    0.000 
#    0.000    0.000    0.000    0.000    0.000    0.000 
#    0.000    6.000    0.000    0.000    0.000    0.000 
#
# Total GULP energy -356431.420071 kJ/mol
# GULP energy per Si atom -5569.240939 kJ/mol
# Density = 1.765763 g / cm^3
# Si number density = 17.697914 Si / 1000 Ang^3
#
#
#
# Elastic Constant Matrix: (Units=GPa)
#
#
# Indices 1 2 3 4 5 6 
#
# 1 83.6141 35.6171 7.1969 0.0000 0.0000 0.0000
# 2 35.6171 42.9876 1.7423 0.0000 0.0000 0.0000
# 3 7.1969 1.7423 109.1683 0.0000 0.0000 0.0000
# 4 0.0000 0.0000 0.0000 20.4485 0.0000 0.0000
# 5 0.0000 0.0000 0.0000 0.0000 41.0068 0.0000
# 6 0.0000 0.0000 0.0000 0.0000 0.0000 -3.8652
#
#
#
# Elastic Compliance Matrix: (Units=1/GPa)
#
#
# Indices 1 2 3 4 5 6 
#
# 1 0.018587 -0.015361 -0.000980 0.000000 0.000000 0.000000
# 2 -0.015361 0.035972 0.000439 0.000000 0.000000 0.000000
# 3 -0.000980 0.000439 0.009218 0.000000 0.000000 0.000000
# 4 0.000000 0.000000 0.000000 0.048903 0.000000 0.000000
# 5 0.000000 0.000000 0.000000 0.000000 0.024386 0.000000
# 6 0.000000 0.000000 0.000000 0.000000 0.000000 -0.258716
#
#
# Mechanical properties :
#
#
# Convention : Reuss Voigt Hill
#
# Bulk Modulus (GPa) = 31.27720 36.09807 33.68764
# Shear Modulus (GPa) = -63.14130 24.26558 -19.43786
#
# Velocity S-wave (km/s) = -5.97952 3.70685 -3.31768
# Velocity P-wave (km/s) = 5.47373 6.22592 2.09765
#
# Compressibility (1/GPa) = 0.03197217
#
# Stress axis : x y z
#
# Youngs Moduli (GPa) = 53.80038 27.79961 108.48589
#
# Poissons Ratio (x) = 0.42702 0.10634
# Poissons Ratio (y) = 0.82641 -0.04757
# Poissons Ratio (z) = 0.05274 -0.01219
#
# Static dielectric constant tensor:
#      x y z
#    x 1.598660 0.000000 0.000000 
#    y 0.000000 1.603250 0.000000 
#    z 0.000000 0.000000 1.750010 
# 
# From -- ./inp_files/1414.got.cif
#   From: 2010.05.17/outbox.cif.g08.bks.cpg/sg61_1_cif.got.tgz:1414.got - 2010.06.03 15:17:17.
