data_PCOD9459342
_publ_section_title
;
Structure prediction by ZEFSAII (Michael W. Deem and Ramdas Pophale) SiO2 
 PCOD9459342
Probable space group: P B C A
;
_chemical_formula_sum "Si O2"
_cell_formula_units_Z 64
_cell_length_a 11.078336
_cell_length_b 8.400332
_cell_length_c 28.828027
_cell_angle_alpha 90.000000
_cell_angle_beta 90.000000
_cell_angle_gamma 90.000000
_cell_volume 2682.785212
_symmetry_space_group_name_H-M "P B C A"
_symmetry_group_IT_number 61
_symmetry_cell_setting 'orthorhombic'
loop_
_space_group_symop_operation_xyz
x,y,z
1/2-x,-y,1/2+z
1/2+x,1/2-y,-z
-x,1/2+y,1/2-z
-x,-y,-z
1/2+x,y,1/2-z
1/2-x,1/2+y,z
x,1/2-y,1/2+z
loop_
_atom_site_type_symbol
_atom_site_label
_atom_site_fract_x
_atom_site_fract_y
_atom_site_fract_z
Si Si1 0.024393 0.629625 0.831974
Si Si2 0.316089 0.998102 0.533744
Si Si3 0.114673 0.985056 0.832959
Si Si4 0.693179 0.745624 0.033950
Si Si5 0.677950 0.492394 0.599356
Si Si6 0.157516 0.505902 0.230287
Si Si7 0.182788 0.270889 0.098993
Si Si8 0.865780 0.327241 0.323074
O O1 0.098152 0.793469 0.832227
O O2 0.093458 0.480988 0.855628
O O3 0.963022 0.591703 0.783219
O O4 0.911981 0.663322 0.865222
O O5 0.258000 0.870855 0.499318
O O6 0.366344 0.891218 0.575578
O O7 0.380255 0.124632 0.499310
O O8 0.213524 0.103071 0.558995
O O9 0.192818 0.031210 0.877534
O O10 0.181149 0.019240 0.784342
O O11 0.988744 0.078829 0.832574
O O12 0.792421 0.647342 0.063599
O O13 0.626040 0.857568 0.070607
O O14 0.127347 0.683321 0.213421
O O15 0.271289 0.449725 0.200136
O O16 0.306099 0.256295 0.129431
#
# Coordination Sequence:
#
# PCOD9459342 Si02
#       8
#     8   8   8   8   8   8   8   8
#     4  11  24  44  63 101 132 175 222 275 324 400
#     4   9  18  37  70  92 123 168 212 270 321 392
#     4  12  26  41  69  93 134 182 219 271 322 398
#     4   9  20  40  63  92 132 165 217 267 319 399
#     4  11  23  42  65  89 137 180 211 269 332 392
#     4  11  26  42  68  97 135 168 224 280 317 386
#     4  10  19  40  69  93 129 166 213 271 333 385
#     4  11  24  44  67 100 133 171 219 274 327 390
#
# _framework density 23.855805
#
# number of rings (size 3 to 8) (size 9 to 14) (size 15 to 20)
#    0.000    1.500    1.250    4.500    5.250    0.000 
#    0.000    6.250   11.000    0.000    0.000    0.000 
#    0.000    0.000    0.000    0.000    0.000    0.000 
#
# Total GULP energy -357429.842135 kJ/mol
# GULP energy per Si atom -5584.841283 kJ/mol
# Density = 2.380151 g / cm^3
# Si number density = 23.855805 Si / 1000 Ang^3
#
#
#
# Elastic Constant Matrix: (Units=GPa)
#
#
# Indices 1 2 3 4 5 6 
#
# 1 32.2565 6.4533 7.1759 0.0000 0.0000 0.0000
# 2 6.4533 86.6517 36.2986 0.0000 0.0000 0.0000
# 3 7.1759 36.2986 117.4167 0.0000 0.0000 0.0000
# 4 0.0000 0.0000 0.0000 42.8942 0.0000 0.0000
# 5 0.0000 0.0000 0.0000 0.0000 19.9685 0.0000
# 6 0.0000 0.0000 0.0000 0.0000 0.0000 23.5249
#
#
#
# Elastic Compliance Matrix: (Units=1/GPa)
#
#
# Indices 1 2 3 4 5 6 
#
# 1 0.031665 -0.001778 -0.001386 0.000000 0.000000 0.000000
# 2 -0.001778 0.013357 -0.004021 0.000000 0.000000 0.000000
# 3 -0.001386 -0.004021 0.009844 0.000000 0.000000 0.000000
# 4 0.000000 0.000000 0.000000 0.023313 0.000000 0.000000
# 5 0.000000 0.000000 0.000000 0.000000 0.050079 0.000000
# 6 0.000000 0.000000 0.000000 0.000000 0.000000 0.042508
#
#
# Mechanical properties :
#
#
# Convention : Reuss Voigt Hill
#
# Bulk Modulus (GPa) = 24.69212 37.35339 31.02276
# Shear Modulus (GPa) = 25.17183 29.70398 27.43791
#
# Velocity S-wave (km/s) = 3.25186 3.53249 3.39507
# Velocity P-wave (km/s) = 4.94696 5.68595 5.32928
#
# Compressibility (1/GPa) = 0.04049874
#
# Stress axis : x y z
#
# Youngs Moduli (GPa) = 31.58018 74.86657 101.58154
#
# Poissons Ratio (x) = 0.13310 0.14075
# Poissons Ratio (y) = 0.05614 0.40842
# Poissons Ratio (z) = 0.04376 0.30101
#
# Static dielectric constant tensor:
#      x y z
#    x 1.880670 0.000000 0.000000 
#    y 0.000000 1.949190 0.000000 
#    z 0.000000 0.000000 1.934860 
# 
# From -- ./inp_files/11783.got.cif
#   From: 2010.05.17/outbox.cif.g08.bks.cpg/sg61_6_cif.got.tgz:11783.got - 2010.06.03 15:17:17.
