data_PCOD9459049
_publ_section_title
;
Structure prediction by ZEFSAII (Michael W. Deem and Ramdas Pophale) SiO2 
 PCOD9459049
Probable space group: P B C A
;
_chemical_formula_sum "Si O2"
_cell_formula_units_Z 60
_cell_length_a 8.326393
_cell_length_b 13.483182
_cell_length_c 18.630742
_cell_angle_alpha 90.000000
_cell_angle_beta 90.000000
_cell_angle_gamma 90.000000
_cell_volume 2091.603953
_symmetry_space_group_name_H-M "P B C A"
_symmetry_group_IT_number 61
_symmetry_cell_setting 'orthorhombic'
loop_
_space_group_symop_operation_xyz
x,y,z
1/2-x,-y,1/2+z
1/2+x,1/2-y,-z
-x,1/2+y,1/2-z
-x,-y,-z
1/2+x,y,1/2-z
1/2-x,1/2+y,z
x,1/2-y,1/2+z
loop_
_atom_site_type_symbol
_atom_site_label
_atom_site_fract_x
_atom_site_fract_y
_atom_site_fract_z
Si Si1 0.723774 0.913796 0.094372
Si Si2 0.962719 0.788075 0.777623
Si Si3 0.000000 0.000000 0.000000
Si Si4 0.536116 0.152537 0.008460
Si Si5 0.260520 0.249885 0.601150
Si Si6 0.007718 0.548089 0.782332
Si Si7 0.218829 0.315215 0.862084
Si Si8 0.321172 0.478438 0.140774
O O1 0.666995 0.960819 0.168963
O O2 0.761361 0.797987 0.110042
O O3 0.882602 0.955627 0.060217
O O4 0.565155 0.918095 0.043609
O O5 0.981147 0.667494 0.774723
O O6 0.117251 0.829425 0.818570
O O7 0.809086 0.802952 0.829168
O O8 0.920066 0.821743 0.697759
O O9 0.864739 0.972686 0.934872
O O10 0.403976 0.200479 0.059305
O O11 0.678560 0.125274 0.064456
O O12 0.613814 0.231678 0.953976
O O13 0.315319 0.139503 0.622427
O O14 0.053294 0.507278 0.705020
O O15 0.855415 0.505555 0.824675
#
# Coordination Sequence:
#
# PCOD9459049 Si02
#       8
#     8   8   4   8   8   8   8   8
#     4  11  22  39  59  94 126 162 214 261 324 373
#     4  10  18  33  56  94 125 161 206 253 313 356
#     4  12  26  40  60  94 124 164 208 272 322 382
#     4  12  20  35  57  90 131 163 199 253 319 378
#     4  11  20  35  58  96 129 165 203 257 311 374
#     4  10  19  38  64  92 121 155 210 274 313 361
#     4  11  20  35  60  92 127 160 205 260 310 377
#     4  11  22  39  66  95 125 158 208 265 325 367
#
# _framework density 28.686118
#
# number of rings (size 3 to 8) (size 9 to 14) (size 15 to 20)
#    0.000    1.067    5.333    7.200    0.000    0.533 
#    0.000    0.000    0.000    6.400    0.000    0.000 
#    0.000    0.000    0.000    0.000    0.000    0.000 
#
# Total GULP energy -336262.987680 kJ/mol
# GULP energy per Si atom -5604.383128 kJ/mol
# Density = 2.862083 g / cm^3
# Si number density = 28.686118 Si / 1000 Ang^3
#
#
#
# Elastic Constant Matrix: (Units=GPa)
#
#
# Indices 1 2 3 4 5 6 
#
# 1 141.0187 50.7426 64.8949 0.0000 0.0000 0.0000
# 2 50.7426 97.0259 42.0096 0.0000 0.0000 0.0000
# 3 64.8949 42.0096 225.8196 0.0000 0.0000 0.0000
# 4 0.0000 0.0000 0.0000 43.8192 0.0000 0.0000
# 5 0.0000 0.0000 0.0000 0.0000 82.7666 0.0000
# 6 0.0000 0.0000 0.0000 0.0000 0.0000 49.3866
#
#
#
# Elastic Compliance Matrix: (Units=1/GPa)
#
#
# Indices 1 2 3 4 5 6 
#
# 1 0.009469 -0.004105 -0.001958 0.000000 0.000000 0.000000
# 2 -0.004105 0.012989 -0.001237 0.000000 0.000000 0.000000
# 3 -0.001958 -0.001237 0.005221 0.000000 0.000000 0.000000
# 4 0.000000 0.000000 0.000000 0.022821 0.000000 0.000000
# 5 0.000000 0.000000 0.000000 0.000000 0.012082 0.000000
# 6 0.000000 0.000000 0.000000 0.000000 0.000000 0.020248
#
#
# Mechanical properties :
#
#
# Convention : Reuss Voigt Hill
#
# Bulk Modulus (GPa) = 76.44772 86.57316 81.51044
# Shear Modulus (GPa) = 49.12159 55.60896 52.36527
#
# Velocity S-wave (km/s) = 4.14258 4.40765 4.27717
# Velocity P-wave (km/s) = 7.04194 7.49321 7.27108
#
# Compressibility (1/GPa) = 0.01308083
#
# Stress axis : x y z
#
# Youngs Moduli (GPa) = 105.60718 76.99059 191.53603
#
# Poissons Ratio (x) = 0.31601 0.37495
# Poissons Ratio (y) = 0.43347 0.23688
# Poissons Ratio (z) = 0.20674 0.09522
#
# Static dielectric constant tensor:
#      x y z
#    x 2.031030 0.000000 0.000000 
#    y 0.000000 2.387070 0.000000 
#    z 0.000000 0.000000 2.114200 
# 
# From -- ./inp_files/8975.got.cif
#   From: 2010.05.17/outbox.cif.g08.bks.cpg/sg61_5_cif.got.tgz:8975.got - 2010.06.03 15:17:17.
