data_PCOD9459809
_publ_section_title
;
Structure prediction by ZEFSAII (Michael W. Deem and Ramdas Pophale) SiO2 
 PCOD9459809
Probable space group: P B C A
;
_chemical_formula_sum "Si O2"
_cell_formula_units_Z 56
_cell_length_a 25.696290
_cell_length_b 4.932177
_cell_length_c 22.042492
_cell_angle_alpha 90.000000
_cell_angle_beta 90.000000
_cell_angle_gamma 90.000000
_cell_volume 2793.635690
_symmetry_space_group_name_H-M "P B C A"
_symmetry_group_IT_number 61
_symmetry_cell_setting 'orthorhombic'
loop_
_space_group_symop_operation_xyz
x,y,z
1/2-x,-y,1/2+z
1/2+x,1/2-y,-z
-x,1/2+y,1/2-z
-x,-y,-z
1/2+x,y,1/2-z
1/2-x,1/2+y,z
x,1/2-y,1/2+z
loop_
_atom_site_type_symbol
_atom_site_label
_atom_site_fract_x
_atom_site_fract_y
_atom_site_fract_z
Si Si1 0.607307 0.843013 0.155024
Si Si2 0.930492 0.855421 0.082710
Si Si3 0.283439 0.950274 0.867358
Si Si4 0.450337 0.115409 0.603963
Si Si5 0.966208 0.168141 0.261943
Si Si6 0.784464 0.010938 0.488380
Si Si7 0.101749 0.373289 0.047828
O O1 0.605530 0.600833 0.105710
O O2 0.665240 0.949669 0.165990
O O3 0.414962 0.745133 0.983553
O O4 0.576167 0.098660 0.127385
O O5 0.990119 0.951317 0.086461
O O6 0.921016 0.226912 0.213885
O O7 0.234867 0.147279 0.854758
O O8 0.295214 0.979262 0.939406
O O9 0.450644 0.238760 0.671177
O O10 0.428599 0.347960 0.559689
O O11 0.415746 0.847989 0.597049
O O12 0.014451 0.359940 0.241590
O O13 0.763486 0.309765 0.475570
O O14 0.837008 0.934225 0.454235
#
# Coordination Sequence:
#
# PCOD9459809 Si02
#       7
#     8   8   8   8   8   8   8
#     4  12  22  39  65  90 124 160 202 258 307 357
#     4  12  23  38  61  93 129 162 194 247 317 367
#     4  10  21  36  60  90 121 153 199 255 314 362
#     4  12  24  40  60  89 129 170 204 242 297 377
#     4  12  23  43  64  87 121 165 212 250 292 365
#     4  10  21  37  60  86 119 159 201 252 304 364
#     4  12  24  39  60  91 129 161 200 252 313 375
#
# _framework density 20.045562
#
# number of rings (size 3 to 8) (size 9 to 14) (size 15 to 20)
#    0.000    0.571    4.286    5.143    4.000    0.000 
#    0.000    0.000    0.000    5.143    0.000    0.000 
#    0.000    0.000    0.000    0.000    0.000    0.000 
#
# Total GULP energy -313465.575019 kJ/mol
# GULP energy per Si atom -5597.599554 kJ/mol
# Density = 1.999994 g / cm^3
# Si number density = 20.045562 Si / 1000 Ang^3
#
#
#
# Elastic Constant Matrix: (Units=GPa)
#
#
# Indices 1 2 3 4 5 6 
#
# 1 75.0324 -7.6359 23.0743 0.0000 0.0000 0.0000
# 2 -7.6359 65.2828 -7.3823 0.0000 0.0000 0.0000
# 3 23.0743 -7.3823 42.3745 0.0000 0.0000 0.0000
# 4 0.0000 0.0000 0.0000 20.9887 0.0000 0.0000
# 5 0.0000 0.0000 0.0000 0.0000 21.3012 0.0000
# 6 0.0000 0.0000 0.0000 0.0000 0.0000 28.7079
#
#
#
# Elastic Compliance Matrix: (Units=1/GPa)
#
#
# Indices 1 2 3 4 5 6 
#
# 1 0.016061 0.000907 -0.008588 0.000000 0.000000 0.000000
# 2 0.000907 0.015677 0.002237 0.000000 0.000000 0.000000
# 3 -0.008588 0.002237 0.028665 0.000000 0.000000 0.000000
# 4 0.000000 0.000000 0.000000 0.047645 0.000000 0.000000
# 5 0.000000 0.000000 0.000000 0.000000 0.046946 0.000000
# 6 0.000000 0.000000 0.000000 0.000000 0.000000 0.034834
#
#
# Mechanical properties :
#
#
# Convention : Reuss Voigt Hill
#
# Bulk Modulus (GPa) = 20.19514 22.08910 21.14212
# Shear Modulus (GPa) = 23.01827 25.84178 24.43003
#
# Velocity S-wave (km/s) = 3.39233 3.59437 3.49481
# Velocity P-wave (km/s) = 5.04384 5.31690 5.18217
#
# Compressibility (1/GPa) = 0.04951687
#
# Stress axis : x y z
#
# Youngs Moduli (GPa) = 62.26341 63.78741 34.88572
#
# Poissons Ratio (x) = -0.05789 0.29958
# Poissons Ratio (y) = -0.05650 -0.07804
# Poissons Ratio (z) = 0.53469 -0.14269
#
# Static dielectric constant tensor:
#      x y z
#    x 1.702990 0.000000 0.000000 
#    y 0.000000 1.702840 0.000000 
#    z 0.000000 0.000000 1.702850 
# 
# From -- ./inp_files/11157.got.cif
#   From: 2010.05.17/outbox.cif.g08.bks.cpg/sg61_6_cif.got.tgz:11157.got - 2010.06.03 15:17:17.
