data_PCOD9459726
_publ_section_title
;
Structure prediction by ZEFSAII (Michael W. Deem and Ramdas Pophale) SiO2 
 PCOD9459726
Probable space group: P B C A
;
_chemical_formula_sum "Si O2"
_cell_formula_units_Z 64
_cell_length_a 25.509395
_cell_length_b 9.907187
_cell_length_c 9.835934
_cell_angle_alpha 90.000000
_cell_angle_beta 90.000000
_cell_angle_gamma 90.000000
_cell_volume 2485.799664
_symmetry_space_group_name_H-M "P B C A"
_symmetry_group_IT_number 61
_symmetry_cell_setting 'orthorhombic'
loop_
_space_group_symop_operation_xyz
x,y,z
1/2-x,-y,1/2+z
1/2+x,1/2-y,-z
-x,1/2+y,1/2-z
-x,-y,-z
1/2+x,y,1/2-z
1/2-x,1/2+y,z
x,1/2-y,1/2+z
loop_
_atom_site_type_symbol
_atom_site_label
_atom_site_fract_x
_atom_site_fract_y
_atom_site_fract_z
Si Si1 0.242272 0.083175 0.549618
Si Si2 0.862685 0.795379 0.111654
Si Si3 0.365322 0.425836 0.555114
Si Si4 0.575940 0.679178 0.063458
Si Si5 0.672998 0.578850 0.160154
Si Si6 0.194222 0.337645 0.664963
Si Si7 0.967904 0.501470 0.817028
Si Si8 0.984674 0.765323 0.142451
O O1 0.187957 0.003308 0.519650
O O2 0.277572 0.977588 0.633179
O O3 0.272478 0.116455 0.408186
O O4 0.236244 0.218968 0.635831
O O5 0.840142 0.672905 0.200014
O O6 0.924904 0.803712 0.114123
O O7 0.832336 0.919558 0.185420
O O8 0.844928 0.801803 0.958139
O O9 0.394305 0.325507 0.448939
O O10 0.347321 0.354045 0.699829
O O11 0.414124 0.519232 0.600985
O O12 0.530784 0.678605 0.952166
O O13 0.628855 0.594135 0.043487
O O14 0.550290 0.597964 0.190704
O O15 0.991914 0.646239 0.780760
O O16 0.009685 0.395566 0.874884
#
# Coordination Sequence:
#
# PCOD9459726 Si02
#       8
#     8   8   8   8   8   8   8   8
#     4  11  23  43  68  96 135 183 229 286 358 415
#     4  11  24  44  68 100 146 184 234 295 357 428
#     4  10  20  42  63  94 136 172 228 292 346 418
#     4  10  21  39  68  99 129 184 229 289 349 424
#     4  10  21  41  65  92 135 180 231 289 356 419
#     4  11  26  42  71 101 137 187 234 292 358 420
#     4  10  22  40  66  95 135 178 237 283 357 415
#     4  11  22  41  67  96 139 184 230 293 350 429
#
# _framework density 25.746241999999999
#
# number of rings (size 3 to 8) (size 9 to 14) (size 15 to 20)
#    0.000    1.500    3.750    1.125    3.500    1.000 
#    4.500    2.500    0.000    0.000    0.000    0.000 
#    0.000    0.000    0.000    0.000    0.000    0.000 
#
# Total GULP energy -357025.044972 kJ/mol
# GULP energy per Si atom -5578.516328 kJ/mol
# Density = 2.568764 g / cm^3
# Si number density = 25.746242 Si / 1000 Ang^3
#
#
#
# Elastic Constant Matrix: (Units=GPa)
#
#
# Indices 1 2 3 4 5 6 
#
# 1 119.0174 7.7973 40.5257 0.0000 0.0000 0.0000
# 2 7.7973 62.2630 0.5085 0.0000 0.0000 0.0000
# 3 40.5257 0.5085 62.1956 0.0000 0.0000 0.0000
# 4 0.0000 0.0000 0.0000 34.5638 0.0000 0.0000
# 5 0.0000 0.0000 0.0000 0.0000 44.5560 0.0000
# 6 0.0000 0.0000 0.0000 0.0000 0.0000 47.4282
#
#
#
# Elastic Compliance Matrix: (Units=1/GPa)
#
#
# Indices 1 2 3 4 5 6 
#
# 1 0.010903 -0.001307 -0.007094 0.000000 0.000000 0.000000
# 2 -0.001307 0.016219 0.000719 0.000000 0.000000 0.000000
# 3 -0.007094 0.000719 0.020695 0.000000 0.000000 0.000000
# 4 0.000000 0.000000 0.000000 0.028932 0.000000 0.000000
# 5 0.000000 0.000000 0.000000 0.000000 0.022444 0.000000
# 6 0.000000 0.000000 0.000000 0.000000 0.000000 0.021084
#
#
# Mechanical properties :
#
#
# Convention : Reuss Voigt Hill
#
# Bulk Modulus (GPa) = 30.81389 37.90433 34.35911
# Shear Modulus (GPa) = 34.13946 38.28589 36.21268
#
# Velocity S-wave (km/s) = 3.64538 3.86041 3.75443
# Velocity P-wave (km/s) = 5.45093 5.88427 5.67174
#
# Compressibility (1/GPa) = 0.03245290
#
# Stress axis : x y z
#
# Youngs Moduli (GPa) = 91.71608 61.65694 48.32182
#
# Poissons Ratio (x) = 0.08062 0.34278
# Poissons Ratio (y) = 0.11992 -0.03476
# Poissons Ratio (z) = 0.65061 -0.04435
#
# Static dielectric constant tensor:
#      x y z
#    x 2.051940 0.000000 0.000000 
#    y 0.000000 2.180580 0.000000 
#    z 0.000000 0.000000 2.171140 
# 
# From -- ./inp_files/6640.got.cif
#   From: 2010.05.17/outbox.cif.g08.bks.cpg/sg61_4_cif.got.tgz:6640.got - 2010.06.03 15:17:17.
