data_PCOD9459130
_publ_section_title
;
Structure prediction by ZEFSAII (Michael W. Deem and Ramdas Pophale) SiO2 
 PCOD9459130
Probable space group: P B C A
;
_chemical_formula_sum "Si O2"
_cell_formula_units_Z 64
_cell_length_a 5.450405
_cell_length_b 32.317978
_cell_length_c 15.584178
_cell_angle_alpha 90.000000
_cell_angle_beta 90.000000
_cell_angle_gamma 90.000000
_cell_volume 2745.091691
_symmetry_space_group_name_H-M "P B C A"
_symmetry_group_IT_number 61
_symmetry_cell_setting 'orthorhombic'
loop_
_space_group_symop_operation_xyz
x,y,z
1/2-x,-y,1/2+z
1/2+x,1/2-y,-z
-x,1/2+y,1/2-z
-x,-y,-z
1/2+x,y,1/2-z
1/2-x,1/2+y,z
x,1/2-y,1/2+z
loop_
_atom_site_type_symbol
_atom_site_label
_atom_site_fract_x
_atom_site_fract_y
_atom_site_fract_z
Si Si1 0.644348 0.056053 0.648548
Si Si2 0.296913 0.343477 0.509759
Si Si3 0.154045 0.598537 0.258339
Si Si4 0.328545 0.064302 0.075978
Si Si5 0.213550 0.256520 0.553090
Si Si6 0.146545 0.089365 0.659854
Si Si7 0.295711 0.329499 0.097349
Si Si8 0.667901 0.535010 0.086611
O O1 0.380318 0.069663 0.612359
O O2 0.621372 0.067288 0.748916
O O3 0.880587 0.082209 0.617852
O O4 0.689721 0.007934 0.636326
O O5 0.290509 0.387794 0.554176
O O6 0.252839 0.304622 0.573573
O O7 0.571233 0.338257 0.469994
O O8 0.066110 0.338554 0.442712
O O9 0.404817 0.623007 0.252592
O O10 0.156020 0.564631 0.180744
O O11 0.150506 0.573687 0.346775
O O12 0.577722 0.044731 0.041276
O O13 0.099392 0.037546 0.044170
O O14 0.434537 0.248356 0.482947
O O15 0.265839 0.218953 0.618400
O O16 0.226874 0.137080 0.669595
#
# Coordination Sequence:
#
# PCOD9459130 Si02
#       8
#     8   8   8   8   8   8   8   8
#     4  10  21  33  53  79  96 122 182 216 258 293
#     4  10  19  33  54  77 107 134 172 199 240 317
#     4   8  16  25  42  66  88 118 156 206 244 270
#     4  10  19  29  48  76  99 132 161 208 257 282
#     4   8  16  30  52  78  97 128 167 204 233 286
#     4  10  21  32  53  79  99 127 164 227 257 295
#     4  10  19  35  54  76 107 133 164 208 259 298
#     4  10  19  31  50  73  95 128 172 222 244 283
#
# _framework density 23.314340000000001
#
# number of rings (size 3 to 8) (size 9 to 14) (size 15 to 20)
#    0.000    2.500    0.000    2.250   10.500    0.000 
#    0.000    0.000    0.000   15.000   19.500    0.000 
#    0.000    0.000    0.000    0.000    0.000    0.000 
#
# Total GULP energy -356900.449927 kJ/mol
# GULP energy per Si atom -5576.569530 kJ/mol
# Density = 2.326128 g / cm^3
# Si number density = 23.314340 Si / 1000 Ang^3
#
#
#
# Elastic Constant Matrix: (Units=GPa)
#
#
# Indices 1 2 3 4 5 6 
#
# 1 232.6483 23.9135 9.3214 0.0000 0.0000 0.0000
# 2 23.9135 148.7773 7.8688 0.0000 0.0000 0.0000
# 3 9.3214 7.8688 47.8767 0.0000 0.0000 0.0000
# 4 0.0000 0.0000 0.0000 11.1938 0.0000 0.0000
# 5 0.0000 0.0000 0.0000 0.0000 21.8261 0.0000
# 6 0.0000 0.0000 0.0000 0.0000 0.0000 30.3035
#
#
#
# Elastic Compliance Matrix: (Units=1/GPa)
#
#
# Indices 1 2 3 4 5 6 
#
# 1 0.004397 -0.000667 -0.000746 0.000000 0.000000 0.000000
# 2 -0.000667 0.006882 -0.001001 0.000000 0.000000 0.000000
# 3 -0.000746 -0.001001 0.021197 0.000000 0.000000 0.000000
# 4 0.000000 0.000000 0.000000 0.089336 0.000000 0.000000
# 5 0.000000 0.000000 0.000000 0.000000 0.045817 0.000000
# 6 0.000000 0.000000 0.000000 0.000000 0.000000 0.032999
#
#
# Mechanical properties :
#
#
# Convention : Reuss Voigt Hill
#
# Bulk Modulus (GPa) = 36.17182 56.83441 46.50311
# Shear Modulus (GPa) = 23.29136 38.54457 30.91797
#
# Velocity S-wave (km/s) = 3.16415 4.07044 3.64556
# Velocity P-wave (km/s) = 5.37565 6.82068 6.14082
#
# Compressibility (1/GPa) = 0.02764583
#
# Stress axis : x y z
#
# Youngs Moduli (GPa) = 227.43700 145.31387 47.17682
#
# Poissons Ratio (x) = 0.09696 0.03521
# Poissons Ratio (y) = 0.15176 0.04723
# Poissons Ratio (z) = 0.16975 0.14548
#
# Static dielectric constant tensor:
#      x y z
#    x 2.046820 0.000000 0.000000 
#    y 0.000000 1.865190 0.000000 
#    z 0.000000 0.000000 1.982540 
# 
# From -- ./inp_files/1419.got.cif
#   From: 2010.05.17/outbox.cif.g08.bks.cpg/sg61_1_cif.got.tgz:1419.got - 2010.06.03 15:17:17.
