data_PCOD9459462
_publ_section_title
;
Structure prediction by ZEFSAII (Michael W. Deem and Ramdas Pophale) SiO2 
 PCOD9459462
Probable space group: P B C A
;
_chemical_formula_sum "Si O2"
_cell_formula_units_Z 64
_cell_length_a 18.240088
_cell_length_b 16.419298
_cell_length_c 9.416033
_cell_angle_alpha 90.000000
_cell_angle_beta 90.000000
_cell_angle_gamma 90.000000
_cell_volume 2820.002454
_symmetry_space_group_name_H-M "P B C A"
_symmetry_group_IT_number 61
_symmetry_cell_setting 'orthorhombic'
loop_
_space_group_symop_operation_xyz
x,y,z
1/2-x,-y,1/2+z
1/2+x,1/2-y,-z
-x,1/2+y,1/2-z
-x,-y,-z
1/2+x,y,1/2-z
1/2-x,1/2+y,z
x,1/2-y,1/2+z
loop_
_atom_site_type_symbol
_atom_site_label
_atom_site_fract_x
_atom_site_fract_y
_atom_site_fract_z
Si Si1 0.554264 0.368036 0.485571
Si Si2 0.414477 0.289788 0.558597
Si Si3 0.128499 0.390185 0.732881
Si Si4 0.301409 0.015670 0.906239
Si Si5 0.589628 0.523215 0.341011
Si Si6 0.340178 0.179362 0.778925
Si Si7 0.134763 0.067076 0.924503
Si Si8 0.329304 0.703850 0.710161
O O1 0.493172 0.297612 0.481560
O O2 0.566323 0.395119 0.647646
O O3 0.535708 0.449637 0.395753
O O4 0.630291 0.331566 0.427853
O O5 0.413247 0.379950 0.631279
O O6 0.397899 0.219673 0.671474
O O7 0.353835 0.282445 0.434790
O O8 0.195954 0.438377 0.804087
O O9 0.104673 0.425235 0.582000
O O10 0.151625 0.297683 0.715837
O O11 0.345769 0.083898 0.816065
O O12 0.220849 0.046972 0.936236
O O13 0.340940 0.001661 0.056221
O O14 0.601476 0.501369 0.177542
O O15 0.258049 0.192810 0.720455
O O16 0.133831 0.152340 0.838460
#
# Coordination Sequence:
#
# PCOD9459462 Si02
#       8
#     8   8   8   8   8   8   8   8
#     4  10  23  42  66  93 131 176 217 268 331 404
#     4  11  24  44  66  93 133 175 218 270 347 393
#     4  11  22  36  66  94 125 168 219 269 319 390
#     4   9  20  38  58  90 130 166 211 265 336 381
#     4   9  20  40  63  89 126 174 216 262 325 406
#     4  10  25  41  63  94 129 169 218 275 327 397
#     4  10  20  36  59  98 125 162 215 274 322 381
#     4  10  23  41  64  94 128 170 219 267 326 392
#
# _framework density 22.695017
#
# number of rings (size 3 to 8) (size 9 to 14) (size 15 to 20)
#    0.000    2.000    0.000    1.875   10.500    2.000 
#    0.000    0.625    0.000    0.000    0.000    0.000 
#    0.000    0.000    0.000    0.000    0.000    0.000 
#
# Total GULP energy -357173.504710 kJ/mol
# GULP energy per Si atom -5580.836011 kJ/mol
# Density = 2.264336 g / cm^3
# Si number density = 22.695017 Si / 1000 Ang^3
#
#
#
# Elastic Constant Matrix: (Units=GPa)
#
#
# Indices 1 2 3 4 5 6 
#
# 1 60.4009 12.8813 33.9746 0.0000 0.0000 0.0000
# 2 12.8813 63.2678 12.9070 0.0000 0.0000 0.0000
# 3 33.9746 12.9070 123.6801 0.0000 0.0000 0.0000
# 4 0.0000 0.0000 0.0000 28.7541 0.0000 0.0000
# 5 0.0000 0.0000 0.0000 0.0000 17.9567 0.0000
# 6 0.0000 0.0000 0.0000 0.0000 0.0000 21.0495
#
#
#
# Elastic Compliance Matrix: (Units=1/GPa)
#
#
# Indices 1 2 3 4 5 6 
#
# 1 0.020137 -0.003036 -0.005215 0.000000 0.000000 0.000000
# 2 -0.003036 0.016607 -0.000899 0.000000 0.000000 0.000000
# 3 -0.005215 -0.000899 0.009612 0.000000 0.000000 0.000000
# 4 0.000000 0.000000 0.000000 0.034778 0.000000 0.000000
# 5 0.000000 0.000000 0.000000 0.000000 0.055690 0.000000
# 6 0.000000 0.000000 0.000000 0.000000 0.000000 0.047507
#
#
# Mechanical properties :
#
#
# Convention : Reuss Voigt Hill
#
# Bulk Modulus (GPa) = 35.64284 40.76386 38.20335
# Shear Modulus (GPa) = 23.58693 26.05777 24.82235
#
# Velocity S-wave (km/s) = 3.22732 3.39214 3.31076
# Velocity P-wave (km/s) = 5.44304 5.77432 5.61112
#
# Compressibility (1/GPa) = 0.02805613
#
# Stress axis : x y z
#
# Youngs Moduli (GPa) = 49.66066 60.21421 104.04029
#
# Poissons Ratio (x) = 0.18281 0.54253
# Poissons Ratio (y) = 0.15077 0.09355
# Poissons Ratio (z) = 0.25896 0.05414
#
# Static dielectric constant tensor:
#      x y z
#    x 1.922370 0.000000 0.000000 
#    y 0.000000 1.864350 0.000000 
#    z 0.000000 0.000000 1.848880 
# 
# From -- ./inp_files/4094.got.cif
#   From: 2010.05.17/outbox.cif.g08.bks.cpg/sg61_3_cif.got.tgz:4094.got - 2010.06.03 15:17:17.
