data_PCOD9459301
_publ_section_title
;
Structure prediction by ZEFSAII (Michael W. Deem and Ramdas Pophale) SiO2 
 PCOD9459301
Probable space group: P B C A
;
_chemical_formula_sum "Si O2"
_cell_formula_units_Z 56
_cell_length_a 15.229855
_cell_length_b 12.272053
_cell_length_c 14.840880
_cell_angle_alpha 90.000000
_cell_angle_beta 90.000000
_cell_angle_gamma 90.000000
_cell_volume 2773.784035
_symmetry_space_group_name_H-M "P B C A"
_symmetry_group_IT_number 61
_symmetry_cell_setting 'orthorhombic'
loop_
_space_group_symop_operation_xyz
x,y,z
1/2-x,-y,1/2+z
1/2+x,1/2-y,-z
-x,1/2+y,1/2-z
-x,-y,-z
1/2+x,y,1/2-z
1/2-x,1/2+y,z
x,1/2-y,1/2+z
loop_
_atom_site_type_symbol
_atom_site_label
_atom_site_fract_x
_atom_site_fract_y
_atom_site_fract_z
Si Si1 0.541261 0.381990 0.424091
Si Si2 0.306743 0.871656 0.493205
Si Si3 0.525225 0.221358 0.593994
Si Si4 0.369375 0.448790 0.133204
Si Si5 0.864953 0.026016 0.568151
Si Si6 0.206358 0.293184 0.158477
Si Si7 0.126693 0.130699 0.282990
O O1 0.516488 0.293667 0.502034
O O2 0.449653 0.421719 0.385016
O O3 0.594557 0.477381 0.476082
O O4 0.608671 0.342596 0.349438
O O5 0.382957 0.839987 0.424248
O O6 0.214546 0.895087 0.447612
O O7 0.289281 0.776090 0.565797
O O8 0.339333 0.978484 0.547681
O O9 0.446653 0.136684 0.610017
O O10 0.543349 0.302898 0.677488
O O11 0.284147 0.379446 0.164034
O O12 0.394812 0.539213 0.208169
O O13 0.834069 0.926958 0.629255
O O14 0.199205 0.209053 0.239650
#
# Coordination Sequence:
#
# PCOD9459301 Si02
#       7
#     8   8   8   8   8   8   8
#     4   9  19  37  66  84 117 157 206 248 293 355
#     4  10  21  39  66  89 119 158 214 254 291 363
#     4  10  22  41  61  92 124 153 209 256 290 364
#     4  11  22  42  63  89 123 170 194 247 319 357
#     4  10  19  38  61  91 115 161 201 247 303 350
#     4  10  21  40  61  90 126 158 201 253 297 371
#     4  10  25  39  55  95 127 153 207 246 305 371
#
# _framework density 20.189028
#
# number of rings (size 3 to 8) (size 9 to 14) (size 15 to 20)
#    0.000    2.000    1.429    1.286    4.000    0.000 
#    2.571    0.000    0.000    0.000    0.000    0.000 
#    0.000    0.000    0.000    0.000    0.000    0.000 
#
# Total GULP energy -312468.111516 kJ/mol
# GULP energy per Si atom -5579.787706 kJ/mol
# Density = 2.014308 g / cm^3
# Si number density = 20.189028 Si / 1000 Ang^3
#
#
#
# Elastic Constant Matrix: (Units=GPa)
#
#
# Indices 1 2 3 4 5 6 
#
# 1 106.1453 51.5111 39.6324 0.0000 0.0000 0.0000
# 2 51.5111 81.6036 17.2058 0.0000 0.0000 0.0000
# 3 39.6324 17.2058 40.4191 0.0000 0.0000 0.0000
# 4 0.0000 0.0000 0.0000 25.4739 0.0000 0.0000
# 5 0.0000 0.0000 0.0000 0.0000 5.4424 0.0000
# 6 0.0000 0.0000 0.0000 0.0000 0.0000 39.9934
#
#
#
# Elastic Compliance Matrix: (Units=1/GPa)
#
#
# Indices 1 2 3 4 5 6 
#
# 1 0.019558 -0.009121 -0.015295 0.000000 0.000000 0.000000
# 2 -0.009121 0.017716 0.001402 0.000000 0.000000 0.000000
# 3 -0.015295 0.001402 0.039141 0.000000 0.000000 0.000000
# 4 0.000000 0.000000 0.000000 0.039256 0.000000 0.000000
# 5 0.000000 0.000000 0.000000 0.000000 0.183742 0.000000
# 6 0.000000 0.000000 0.000000 0.000000 0.000000 0.025004
#
#
# Mechanical properties :
#
#
# Convention : Reuss Voigt Hill
#
# Bulk Modulus (GPa) = 32.90795 49.42963 41.16879
# Shear Modulus (GPa) = 13.13802 22.16986 17.65394
#
# Velocity S-wave (km/s) = 2.55375 3.31738 2.96029
# Velocity P-wave (km/s) = 5.00308 6.26178 5.66748
#
# Compressibility (1/GPa) = 0.03038780
#
# Stress axis : x y z
#
# Youngs Moduli (GPa) = 51.12975 56.44537 25.54855
#
# Poissons Ratio (x) = 0.51483 0.39076
# Poissons Ratio (y) = 0.46635 -0.03582
# Poissons Ratio (z) = 0.78202 -0.07913
#
# Static dielectric constant tensor:
#      x y z
#    x 1.681830 0.000000 0.000000 
#    y 0.000000 1.799130 0.000000 
#    z 0.000000 0.000000 1.725740 
# 
# From -- ./inp_files/5811.got.cif
#   From: 2010.05.17/outbox.cif.g08.bks.cpg/sg61_3_cif.got.tgz:5811.got - 2010.06.03 15:17:17.
