data_PCOD9459816
_publ_section_title
;
Structure prediction by ZEFSAII (Michael W. Deem and Ramdas Pophale) SiO2 
 PCOD9459816
Probable space group: P B C A
;
_chemical_formula_sum "Si O2"
_cell_formula_units_Z 60
_cell_length_a 8.225172
_cell_length_b 20.381030
_cell_length_c 17.681955
_cell_angle_alpha 90.000000
_cell_angle_beta 90.000000
_cell_angle_gamma 90.000000
_cell_volume 2964.158330
_symmetry_space_group_name_H-M "P B C A"
_symmetry_group_IT_number 61
_symmetry_cell_setting 'orthorhombic'
loop_
_space_group_symop_operation_xyz
x,y,z
1/2-x,-y,1/2+z
1/2+x,1/2-y,-z
-x,1/2+y,1/2-z
-x,-y,-z
1/2+x,y,1/2-z
1/2-x,1/2+y,z
x,1/2-y,1/2+z
loop_
_atom_site_type_symbol
_atom_site_label
_atom_site_fract_x
_atom_site_fract_y
_atom_site_fract_z
Si Si1 0.909499 0.289189 0.188192
Si Si2 0.351293 0.319280 0.681794
Si Si3 0.132544 0.090950 0.285188
Si Si4 0.645100 0.247782 0.445596
Si Si5 0.579880 0.362274 0.189087
Si Si6 0.087326 0.847407 0.036430
Si Si7 0.500000 0.500000 0.000000
Si Si8 0.071775 0.510872 0.329943
O O1 0.004847 0.267691 0.114006
O O2 0.011616 0.346351 0.228655
O O3 0.897338 0.233288 0.253027
O O4 0.729753 0.314645 0.172229
O O5 0.507248 0.364760 0.668781
O O6 0.213367 0.363872 0.720657
O O7 0.280702 0.288507 0.605924
O O8 0.276178 0.059966 0.333430
O O9 0.035899 0.034816 0.240108
O O10 0.557614 0.198077 0.502743
O O11 0.741836 0.310333 0.479433
O O12 0.440430 0.350372 0.127006
O O13 0.633799 0.437266 0.183028
O O14 0.063217 0.921550 0.007708
O O15 0.478181 0.509995 0.091275
#
# Coordination Sequence:
#
# PCOD9459816 Si02
#       8
#     8   8   8   8   8   8   4   8
#     4  12  21  38  65  95 125 161 211 277 325 372
#     4  11  20  36  62  95 123 157 205 270 333 364
#     4  10  21  36  62  95 124 164 216 266 324 383
#     4  12  24  41  65  98 128 171 219 275 325 396
#     4  11  21  39  61  90 127 167 216 262 325 384
#     4  11  25  43  63  95 132 177 218 263 333 392
#     4  10  24  44  64  86 136 178 208 264 334 390
#     4  10  22  40  62  91 125 174 215 261 318 397
#
# _framework density 20.241831999999999
#
# number of rings (size 3 to 8) (size 9 to 14) (size 15 to 20)
#    0.000    1.067    4.000    2.400    1.867    2.133 
#    0.000    1.333    0.000   10.400    0.000    0.000 
#    0.000    0.000    0.000    0.000    0.000    0.000 
#
# Total GULP energy -334056.368995 kJ/mol
# GULP energy per Si atom -5567.606150 kJ/mol
# Density = 2.019576 g / cm^3
# Si number density = 20.241832 Si / 1000 Ang^3
#
#
#
# Elastic Constant Matrix: (Units=GPa)
#
#
# Indices 1 2 3 4 5 6 
#
# 1 47.0225 -1.6182 -3.4465 0.0000 0.0000 0.0000
# 2 -1.6182 72.1681 18.9507 0.0000 0.0000 0.0000
# 3 -3.4465 18.9507 37.3112 0.0000 0.0000 0.0000
# 4 0.0000 0.0000 0.0000 31.4193 0.0000 0.0000
# 5 0.0000 0.0000 0.0000 0.0000 23.5915 0.0000
# 6 0.0000 0.0000 0.0000 0.0000 0.0000 15.4582
#
#
#
# Elastic Compliance Matrix: (Units=1/GPa)
#
#
# Indices 1 2 3 4 5 6 
#
# 1 0.021412 -0.000045 0.002001 0.000000 0.000000 0.000000
# 2 -0.000045 0.015989 -0.008125 0.000000 0.000000 0.000000
# 3 0.002001 -0.008125 0.031113 0.000000 0.000000 0.000000
# 4 0.000000 0.000000 0.000000 0.031828 0.000000 0.000000
# 5 0.000000 0.000000 0.000000 0.000000 0.042388 0.000000
# 6 0.000000 0.000000 0.000000 0.000000 0.000000 0.064691
#
#
# Mechanical properties :
#
#
# Convention : Reuss Voigt Hill
#
# Bulk Modulus (GPa) = 17.80163 20.47486 19.13825
# Shear Modulus (GPa) = 20.96573 23.60152 22.28362
#
# Velocity S-wave (km/s) = 3.22182 3.41835 3.32154
# Velocity P-wave (km/s) = 4.75959 5.07121 4.91787
#
# Compressibility (1/GPa) = 0.05617462
#
# Stress axis : x y z
#
# Youngs Moduli (GPa) = 46.70382 62.54246 32.14055
#
# Poissons Ratio (x) = 0.00283 -0.06431
# Poissons Ratio (y) = 0.00212 0.26115
# Poissons Ratio (z) = -0.09345 0.50817
#
# Static dielectric constant tensor:
#      x y z
#    x 1.731160 0.000000 0.000000 
#    y 0.000000 1.754230 0.000000 
#    z 0.000000 0.000000 1.647950 
# 
# From -- ./inp_files/3598.got.cif
#   From: 2010.05.17/outbox.cif.g08.bks.cpg/sg61_2_cif.got.tgz:3598.got - 2010.06.03 15:17:17.
