data_PCOD9459980
_publ_section_title
;
Structure prediction by ZEFSAII (Michael W. Deem and Ramdas Pophale) SiO2 
 PCOD9459980
Probable space group: P B C A
;
_chemical_formula_sum "Si O2"
_cell_formula_units_Z 56
_cell_length_a 5.272705
_cell_length_b 14.747246
_cell_length_c 28.692638
_cell_angle_alpha 90.000000
_cell_angle_beta 90.000000
_cell_angle_gamma 90.000000
_cell_volume 2231.078637
_symmetry_space_group_name_H-M "P B C A"
_symmetry_group_IT_number 61
_symmetry_cell_setting 'orthorhombic'
loop_
_space_group_symop_operation_xyz
x,y,z
1/2-x,-y,1/2+z
1/2+x,1/2-y,-z
-x,1/2+y,1/2-z
-x,-y,-z
1/2+x,y,1/2-z
1/2-x,1/2+y,z
x,1/2-y,1/2+z
loop_
_atom_site_type_symbol
_atom_site_label
_atom_site_fract_x
_atom_site_fract_y
_atom_site_fract_z
Si Si1 0.661037 0.458305 0.727749
Si Si2 0.948653 0.774308 0.543585
Si Si3 0.093409 0.754228 0.371429
Si Si4 0.850029 0.737288 0.723206
Si Si5 0.051290 0.552961 0.363218
Si Si6 0.682308 0.141206 0.946274
Si Si7 0.432606 0.042152 0.080578
O O1 0.368563 0.486192 0.733163
O O2 0.643890 0.347893 0.725447
O O3 0.813569 0.487147 0.681980
O O4 0.026652 0.669808 0.550453
O O5 0.732559 0.779948 0.582050
O O6 0.909383 0.797580 0.489903
O O7 0.126819 0.857181 0.561429
O O8 0.276339 0.787538 0.330004
O O9 0.985765 0.659392 0.351690
O O10 0.908455 0.826420 0.395125
O O11 0.620322 0.706327 0.756894
O O12 0.279849 0.540472 0.400603
O O13 0.783748 0.518733 0.381537
O O14 0.607966 0.039257 0.955148
#
# Coordination Sequence:
#
# PCOD9459980 Si02
#       7
#     8   8   8   8   8   8   8
#     4   9  16  29  56  88 120 160 210 269 327 386
#     4  11  24  44  65 100 133 175 227 272 330 399
#     4  10  22  39  65  92 132 175 215 278 330 391
#     4   9  19  33  57  92 124 162 216 267 325 391
#     4  10  21  40  60  94 130 167 222 270 327 396
#     4  12  24  42  67  96 134 181 220 274 333 398
#     4  11  25  41  66  94 133 175 218 272 325 392
#
# _framework density 25.099966999999999
#
# number of rings (size 3 to 8) (size 9 to 14) (size 15 to 20)
#    0.000    1.714    2.857    1.286    4.000    3.429 
#    0.000    2.857    0.000    5.143    0.000    0.000 
#    0.000    0.000    0.000    0.000    0.000    0.000 
#
# Total GULP energy -312113.195454 kJ/mol
# GULP energy per Si atom -5573.449919 kJ/mol
# Density = 2.504284 g / cm^3
# Si number density = 25.099967 Si / 1000 Ang^3
#
#
#
# Elastic Constant Matrix: (Units=GPa)
#
#
# Indices 1 2 3 4 5 6 
#
# 1 57.6307 8.4609 -3.4187 0.0000 0.0000 0.0000
# 2 8.4609 62.8884 1.6377 0.0000 0.0000 0.0000
# 3 -3.4187 1.6377 75.3882 0.0000 0.0000 0.0000
# 4 0.0000 0.0000 0.0000 -21.9008 0.0000 0.0000
# 5 0.0000 0.0000 0.0000 0.0000 10.4999 0.0000
# 6 0.0000 0.0000 0.0000 0.0000 0.0000 16.9332
#
#
#
# Elastic Compliance Matrix: (Units=1/GPa)
#
#
# Indices 1 2 3 4 5 6 
#
# 1 0.017757 -0.002411 0.000858 0.000000 0.000000 0.000000
# 2 -0.002411 0.016238 -0.000462 0.000000 0.000000 0.000000
# 3 0.000858 -0.000462 0.013314 0.000000 0.000000 0.000000
# 4 0.000000 0.000000 0.000000 -0.045660 0.000000 0.000000
# 5 0.000000 0.000000 0.000000 0.000000 0.095239 0.000000
# 6 0.000000 0.000000 0.000000 0.000000 0.000000 0.059055
#
#
# Mechanical properties :
#
#
# Convention : Reuss Voigt Hill
#
# Bulk Modulus (GPa) = 23.10727 23.25191 23.17959
# Shear Modulus (GPa) = 28.66985 13.72162 21.19574
#
# Velocity S-wave (km/s) = 3.38335 2.34065 2.90910
# Velocity P-wave (km/s) = 4.94862 4.07292 4.53197
#
# Compressibility (1/GPa) = 0.04327643
#
# Stress axis : x y z
#
# Youngs Moduli (GPa) = 56.31658 61.58534 75.11118
#
# Poissons Ratio (x) = 0.14850 -0.06442
# Poissons Ratio (y) = 0.13580 0.03471
# Poissons Ratio (z) = -0.04830 0.02846
#
# Static dielectric constant tensor:
#      x y z
#    x 2.119470 0.000000 0.000000 
#    y 0.000000 2.097660 0.000000 
#    z 0.000000 0.000000 1.998940 
# 
# From -- ./inp_files/589.got.cif
#   From: 2010.05.17/outbox.cif.g08.bks.cpg/sg61_1_cif.got.tgz:589.got - 2010.06.03 15:17:17.
