data_PCOD9459125
_publ_section_title
;
Structure prediction by ZEFSAII (Michael W. Deem and Ramdas Pophale) SiO2 
 PCOD9459125
Probable space group: P B C A
;
_chemical_formula_sum "Si O2"
_cell_formula_units_Z 44
_cell_length_a 11.006895
_cell_length_b 18.564163
_cell_length_c 8.070114
_cell_angle_alpha 90.000000
_cell_angle_beta 90.000000
_cell_angle_gamma 90.000000
_cell_volume 1648.997003
_symmetry_space_group_name_H-M "P B C A"
_symmetry_group_IT_number 61
_symmetry_cell_setting 'orthorhombic'
loop_
_space_group_symop_operation_xyz
x,y,z
1/2-x,-y,1/2+z
1/2+x,1/2-y,-z
-x,1/2+y,1/2-z
-x,-y,-z
1/2+x,y,1/2-z
1/2-x,1/2+y,z
x,1/2-y,1/2+z
loop_
_atom_site_type_symbol
_atom_site_label
_atom_site_fract_x
_atom_site_fract_y
_atom_site_fract_z
Si Si1 0.266193 0.606249 0.366887
Si Si2 0.798371 0.333591 0.137876
Si Si3 0.220985 0.978035 0.555624
Si Si4 0.843213 0.769843 0.853522
Si Si5 0.000000 0.500000 0.500000
Si Si6 0.041599 0.664219 0.565364
O O1 0.336985 0.551836 0.488397
O O2 0.351187 0.662706 0.273689
O O3 0.162960 0.651333 0.457044
O O4 0.191645 0.555781 0.234438
O O5 0.796582 0.416412 0.081883
O O6 0.690657 0.302723 0.257241
O O7 0.915732 0.319307 0.249096
O O8 0.773552 0.292824 0.965713
O O9 0.361605 0.000520 0.573193
O O10 0.956268 0.778018 0.975592
O O11 0.980054 0.585600 0.555136
#
# Coordination Sequence:
#
# PCOD9459125 Si02
#       6
#     8   8   8   8   4   8
#     4  10  21  40  69 100 133 180 225 283 342 409
#     4  11  24  42  69  97 135 186 225 283 346 411
#     4  10  20  40  69  99 139 176 229 287 343 409
#     4  11  25  46  65 100 139 180 231 283 344 421
#     4  10  18  40  72  96 130 174 222 280 350 398
#     4  11  23  43  72  96 137 181 224 292 347 409
#
# _framework density 26.682884999999999
#
# number of rings (size 3 to 8) (size 9 to 14) (size 15 to 20)
#    0.000    1.455    3.636    3.273    0.000    2.909 
#    0.000    6.364    0.000    0.000    0.000    0.000 
#    0.000    0.000    0.000    0.000    0.000    0.000 
#
# Total GULP energy -245183.238279 kJ/mol
# GULP energy per Si atom -5572.346325 kJ/mol
# Density = 2.662215 g / cm^3
# Si number density = 26.682885 Si / 1000 Ang^3
#
#
#
# Elastic Constant Matrix: (Units=GPa)
#
#
# Indices 1 2 3 4 5 6 
#
# 1 3.0759 0.0619 2.5334 0.0000 0.0000 0.0000
# 2 0.0619 145.0632 57.5008 0.0000 0.0000 0.0000
# 3 2.5334 57.5008 104.4909 0.0000 0.0000 0.0000
# 4 0.0000 0.0000 0.0000 59.6177 0.0000 0.0000
# 5 0.0000 0.0000 0.0000 0.0000 32.8532 0.0000
# 6 0.0000 0.0000 0.0000 0.0000 0.0000 34.1975
#
#
#
# Elastic Compliance Matrix: (Units=1/GPa)
#
#
# Indices 1 2 3 4 5 6 
#
# 1 0.333459 0.003917 -0.010240 0.000000 0.000000 0.000000
# 2 0.003917 0.008863 -0.004972 0.000000 0.000000 0.000000
# 3 -0.010240 -0.004972 0.012555 0.000000 0.000000 0.000000
# 4 0.000000 0.000000 0.000000 0.016774 0.000000 0.000000
# 5 0.000000 0.000000 0.000000 0.000000 0.030438 0.000000
# 6 0.000000 0.000000 0.000000 0.000000 0.000000 0.029242
#
#
# Mechanical properties :
#
#
# Convention : Reuss Voigt Hill
#
# Bulk Modulus (GPa) = 3.00947 41.42470 22.21708
# Shear Modulus (GPa) = 8.85453 38.16928 23.51191
#
# Velocity S-wave (km/s) = 1.82363 3.78627 2.97166
# Velocity P-wave (km/s) = 2.35892 5.88838 4.48539
#
# Compressibility (1/GPa) = 0.33228495
#
# Stress axis : x y z
#
# Youngs Moduli (GPa) = 2.99887 112.83192 79.65203
#
# Poissons Ratio (x) = -0.44195 0.81566
# Poissons Ratio (y) = -0.01175 0.39604
# Poissons Ratio (z) = 0.03071 0.56101
#
# Static dielectric constant tensor:
#      x y z
#    x 1.822420 0.000000 0.000000 
#    y 0.000000 2.243840 0.000000 
#    z 0.000000 0.000000 2.105700 
# 
# From -- ./inp_files/2234.got.cif
#   From: 2010.05.17/outbox.cif.g08.bks.cpg/sg61_2_cif.got.tgz:2234.got - 2010.06.03 15:17:17.
