data_PCOD9459453
_publ_section_title
;
Structure prediction by ZEFSAII (Michael W. Deem and Ramdas Pophale) SiO2 
 PCOD9459453
Probable space group: P B C A
;
_chemical_formula_sum "Si O2"
_cell_formula_units_Z 64
_cell_length_a 30.749155
_cell_length_b 8.563061
_cell_length_c 12.730181
_cell_angle_alpha 90.000000
_cell_angle_beta 90.000000
_cell_angle_gamma 90.000000
_cell_volume 3351.944368
_symmetry_space_group_name_H-M "P B C A"
_symmetry_group_IT_number 61
_symmetry_cell_setting 'orthorhombic'
loop_
_space_group_symop_operation_xyz
x,y,z
1/2-x,-y,1/2+z
1/2+x,1/2-y,-z
-x,1/2+y,1/2-z
-x,-y,-z
1/2+x,y,1/2-z
1/2-x,1/2+y,z
x,1/2-y,1/2+z
loop_
_atom_site_type_symbol
_atom_site_label
_atom_site_fract_x
_atom_site_fract_y
_atom_site_fract_z
Si Si1 0.894075 0.923861 0.520343
Si Si2 0.469054 0.368102 0.449677
Si Si3 0.752081 0.266300 0.586694
Si Si4 0.449773 0.750611 0.161804
Si Si5 0.603147 0.120000 0.645688
Si Si6 0.801289 0.480155 0.957736
Si Si7 0.548512 0.953959 0.465194
Si Si8 0.696163 0.487366 0.213507
O O1 0.921670 0.844974 0.425692
O O2 0.880031 0.777588 0.590250
O O3 0.852653 0.014843 0.478154
O O4 0.926105 0.039206 0.582942
O O5 0.500000 0.500000 0.500000
O O6 0.499477 0.289151 0.361144
O O7 0.453988 0.234196 0.532723
O O8 0.720820 0.388054 0.529331
O O9 0.786099 0.354763 0.661251
O O10 0.722741 0.148340 0.654043
O O11 0.779112 0.177243 0.497402
O O12 0.432726 0.817632 0.271470
O O13 0.442438 0.566203 0.135316
O O14 0.644635 0.037413 0.697235
O O15 0.580848 0.011647 0.557471
O O16 0.793378 0.512680 0.836127
O O17 0.500000 0.000000 0.500000
#
# Coordination Sequence:
#
# PCOD9459453 Si02
#       8
#     8   8   8   8   8   8   8   8
#     4  10  20  36  58  86 122 157 194 256 305 362
#     4   9  19  36  59  83 119 162 202 250 302 357
#     4  10  24  40  64  91 122 163 203 260 313 382
#     4   9  19  38  58  84 118 160 201 250 309 361
#     4  11  21  36  62  91 122 162 207 257 308 376
#     4  11  21  41  64  88 127 160 203 257 320 366
#     4   9  20  38  59  84 120 160 207 250 306 366
#     4  11  22  41  64  94 123 162 211 252 316 386
#
# _framework density 19.093395000000001
#
# number of rings (size 3 to 8) (size 9 to 14) (size 15 to 20)
#    0.000    2.000    2.500    1.500    1.750    2.000 
#    0.000    3.750    0.000    0.000    0.000    0.000 
#    0.000    0.000    0.000    0.000    0.000    0.000 
#
# Total GULP energy -356797.873074 kJ/mol
# GULP energy per Si atom -5574.966767 kJ/mol
# Density = 1.904994 g / cm^3
# Si number density = 19.093395 Si / 1000 Ang^3
#
#
#
# Elastic Constant Matrix: (Units=GPa)
#
#
# Indices 1 2 3 4 5 6 
#
# 1 78.4833 20.5698 6.6931 0.0000 0.0000 0.0000
# 2 20.5698 75.2646 0.9137 0.0000 0.0000 0.0000
# 3 6.6931 0.9137 56.7788 0.0000 0.0000 0.0000
# 4 0.0000 0.0000 0.0000 15.8319 0.0000 0.0000
# 5 0.0000 0.0000 0.0000 0.0000 26.6339 0.0000
# 6 0.0000 0.0000 0.0000 0.0000 0.0000 30.5038
#
#
#
# Elastic Compliance Matrix: (Units=1/GPa)
#
#
# Indices 1 2 3 4 5 6 
#
# 1 0.013864 -0.003770 -0.001574 0.000000 0.000000 0.000000
# 2 -0.003770 0.014314 0.000214 0.000000 0.000000 0.000000
# 3 -0.001574 0.000214 0.017794 0.000000 0.000000 0.000000
# 4 0.000000 0.000000 0.000000 0.063164 0.000000 0.000000
# 5 0.000000 0.000000 0.000000 0.000000 0.037546 0.000000
# 6 0.000000 0.000000 0.000000 0.000000 0.000000 0.032783
#
#
# Mechanical properties :
#
#
# Convention : Reuss Voigt Hill
#
# Bulk Modulus (GPa) = 28.00070 29.65332 28.82701
# Shear Modulus (GPa) = 24.79814 26.75060 25.77437
#
# Velocity S-wave (km/s) = 3.60777 3.74711 3.67810
# Velocity P-wave (km/s) = 5.66142 5.85538 5.75921
#
# Compressibility (1/GPa) = 0.03571339
#
# Stress axis : x y z
#
# Youngs Moduli (GPa) = 72.13024 69.86090 56.19785
#
# Poissons Ratio (x) = 0.26337 0.08843
# Poissons Ratio (y) = 0.27192 -0.01203
# Poissons Ratio (z) = 0.11351 -0.01495
#
# Static dielectric constant tensor:
#      x y z
#    x 1.647410 0.000000 0.000000 
#    y 0.000000 1.699800 0.000000 
#    z 0.000000 0.000000 1.660730 
# 
# From -- ./inp_files/6777.got.cif
#   From: 2010.05.17/outbox.cif.g08.bks.cpg/sg61_4_cif.got.tgz:6777.got - 2010.06.03 15:17:17.
