data_PCOD9459821
_publ_section_title
;
Structure prediction by ZEFSAII (Michael W. Deem and Ramdas Pophale) SiO2 
 PCOD9459821
Probable space group: P B C A
;
_chemical_formula_sum "Si O2"
_cell_formula_units_Z 56
_cell_length_a 16.743713
_cell_length_b 5.202753
_cell_length_c 29.569161
_cell_angle_alpha 90.000000
_cell_angle_beta 90.000000
_cell_angle_gamma 90.000000
_cell_volume 2575.870240
_symmetry_space_group_name_H-M "P B C A"
_symmetry_group_IT_number 61
_symmetry_cell_setting 'orthorhombic'
loop_
_space_group_symop_operation_xyz
x,y,z
1/2-x,-y,1/2+z
1/2+x,1/2-y,-z
-x,1/2+y,1/2-z
-x,-y,-z
1/2+x,y,1/2-z
1/2-x,1/2+y,z
x,1/2-y,1/2+z
loop_
_atom_site_type_symbol
_atom_site_label
_atom_site_fract_x
_atom_site_fract_y
_atom_site_fract_z
Si Si1 0.277936 0.728407 0.164385
Si Si2 0.295413 0.240869 0.063895
Si Si3 0.926958 0.896377 0.794554
Si Si4 0.099162 0.894198 0.760650
Si Si5 0.804560 0.190863 0.066488
Si Si6 0.293484 0.308959 0.336904
Si Si7 0.444438 0.250261 0.006014
O O1 0.241085 0.488353 0.189774
O O2 0.227553 0.741719 0.117529
O O3 0.372409 0.677954 0.162354
O O4 0.248423 0.487868 0.045386
O O5 0.388685 0.245527 0.051487
O O6 0.898286 0.685898 0.757148
O O7 0.021457 0.865240 0.793284
O O8 0.912394 0.190169 0.779977
O O9 0.169340 0.788791 0.790924
O O10 0.737480 0.413916 0.061823
O O11 0.838085 0.223373 0.117377
O O12 0.875181 0.236346 0.031594
O O13 0.283114 0.615787 0.339596
O O14 0.500000 0.500000 0.000000
O O15 0.500000 0.000000 0.000000
#
# Coordination Sequence:
#
# PCOD9459821 Si02
#       7
#     8   8   8   8   8   8   8
#     4  10  21  37  58  86 118 159 206 245 295 364
#     4  10  21  41  63  87 126 168 206 254 308 374
#     4  10  21  37  57  81 122 158 200 239 315 359
#     4  10  21  37  56  85 117 159 195 256 299 359
#     4  10  21  41  65  86 120 163 204 248 307 370
#     4  10  21  37  59  87 111 151 202 250 297 344
#     4  12  24  40  64  98 126 160 207 256 313 374
#
# _framework density 21.740224999999999
#
# number of rings (size 3 to 8) (size 9 to 14) (size 15 to 20)
#    0.000    1.714    0.000    4.286    0.000    3.429 
#   10.286    0.000    0.000    0.000    0.000    0.000 
#    0.000    0.000    0.000    0.000    0.000    0.000 
#
# Total GULP energy -312100.061047 kJ/mol
# GULP energy per Si atom -5573.215376 kJ/mol
# Density = 2.169074 g / cm^3
# Si number density = 21.740225 Si / 1000 Ang^3
#
#
#
# Elastic Constant Matrix: (Units=GPa)
#
#
# Indices 1 2 3 4 5 6 
#
# 1 93.4140 35.9379 25.9857 0.0000 0.0000 0.0000
# 2 35.9379 162.0263 -12.4798 0.0000 0.0000 0.0000
# 3 25.9857 -12.4798 57.4312 0.0000 0.0000 0.0000
# 4 0.0000 0.0000 0.0000 8.8263 0.0000 0.0000
# 5 0.0000 0.0000 0.0000 0.0000 36.0723 0.0000
# 6 0.0000 0.0000 0.0000 0.0000 0.0000 35.9877
#
#
#
# Elastic Compliance Matrix: (Units=1/GPa)
#
#
# Indices 1 2 3 4 5 6 
#
# 1 0.014124 -0.003687 -0.007192 0.000000 0.000000 0.000000
# 2 -0.003687 0.007239 0.003241 0.000000 0.000000 0.000000
# 3 -0.007192 0.003241 0.021370 0.000000 0.000000 0.000000
# 4 0.000000 0.000000 0.000000 0.113298 0.000000 0.000000
# 5 0.000000 0.000000 0.000000 0.000000 0.027722 0.000000
# 6 0.000000 0.000000 0.000000 0.000000 0.000000 0.027787
#
#
# Mechanical properties :
#
#
# Convention : Reuss Voigt Hill
#
# Bulk Modulus (GPa) = 36.41773 45.75102 41.08438
# Shear Modulus (GPa) = 21.18932 33.73911 27.46422
#
# Velocity S-wave (km/s) = 3.12534 3.94372 3.55814
# Velocity P-wave (km/s) = 5.45998 6.46740 5.98492
#
# Compressibility (1/GPa) = 0.02745915
#
# Stress axis : x y z
#
# Youngs Moduli (GPa) = 70.80181 138.13698 46.79359
#
# Poissons Ratio (x) = 0.50926 0.33653
# Poissons Ratio (y) = 0.26102 -0.15167
# Poissons Ratio (z) = 0.50919 -0.44772
#
# Static dielectric constant tensor:
#      x y z
#    x 1.821980 0.000000 0.000000 
#    y 0.000000 1.905830 0.000000 
#    z 0.000000 0.000000 1.876040 
# 
# From -- ./inp_files/11826.got.cif
#   From: 2010.05.17/outbox.cif.g08.bks.cpg/sg61_6_cif.got.tgz:11826.got - 2010.06.03 15:17:17.
