data_PCOD9459332
_publ_section_title
;
Structure prediction by ZEFSAII (Michael W. Deem and Ramdas Pophale) SiO2 
 PCOD9459332
Probable space group: P B C A
;
_chemical_formula_sum "Si O2"
_cell_formula_units_Z 56
_cell_length_a 19.212900
_cell_length_b 7.455963
_cell_length_c 17.010587
_cell_angle_alpha 90.000000
_cell_angle_beta 90.000000
_cell_angle_gamma 90.000000
_cell_volume 2436.778011
_symmetry_space_group_name_H-M "P B C A"
_symmetry_group_IT_number 61
_symmetry_cell_setting 'orthorhombic'
loop_
_space_group_symop_operation_xyz
x,y,z
1/2-x,-y,1/2+z
1/2+x,1/2-y,-z
-x,1/2+y,1/2-z
-x,-y,-z
1/2+x,y,1/2-z
1/2-x,1/2+y,z
x,1/2-y,1/2+z
loop_
_atom_site_type_symbol
_atom_site_label
_atom_site_fract_x
_atom_site_fract_y
_atom_site_fract_z
Si Si1 0.134301 0.821349 0.407406
Si Si2 0.332120 0.379583 0.106623
Si Si3 0.239985 0.121720 0.466096
Si Si4 0.409148 0.475276 0.249896
Si Si5 0.888842 0.665569 0.501682
Si Si6 0.528026 0.276252 0.155707
Si Si7 0.419148 0.058267 0.062700
O O1 0.187867 0.660093 0.421274
O O2 0.101832 0.841241 0.322857
O O3 0.077682 0.848459 0.476208
O O4 0.187152 0.986579 0.424876
O O5 0.342161 0.452196 0.193767
O O6 0.387748 0.499409 0.057085
O O7 0.355156 0.171972 0.100301
O O8 0.261879 0.403188 0.057567
O O9 0.190572 0.297399 0.470904
O O10 0.476608 0.409805 0.201062
O O11 0.420454 0.673577 0.284747
O O12 0.934195 0.641116 0.579850
O O13 0.909334 0.848555 0.454616
O O14 0.482105 0.114661 0.118053
#
# Coordination Sequence:
#
# PCOD9459332 Si02
#       7
#     8   8   8   8   8   8   8
#     4  10  20  40  65  86 126 165 209 269 313 380
#     4  10  23  40  64  95 124 162 217 266 314 371
#     4  10  19  40  64  88 118 167 221 250 308 393
#     4  11  25  41  59  98 136 156 209 276 327 368
#     4  11  21  40  71  89 117 176 220 251 314 392
#     4  11  24  41  61  94 130 169 211 256 328 380
#     4   9  21  39  64  90 121 166 220 252 304 387
#
# _framework density 22.981166999999999
#
# number of rings (size 3 to 8) (size 9 to 14) (size 15 to 20)
#    0.000    1.714    4.286    0.429    2.000    4.571 
#    2.571    0.000    0.000    0.000    0.000    0.000 
#    0.000    0.000    0.000    0.000    0.000    0.000 
#
# Total GULP energy -312502.511381 kJ/mol
# GULP energy per Si atom -5580.401989 kJ/mol
# Density = 2.292886 g / cm^3
# Si number density = 22.981167 Si / 1000 Ang^3
#
#
#
# Elastic Constant Matrix: (Units=GPa)
#
#
# Indices 1 2 3 4 5 6 
#
# 1 56.7021 0.2545 15.0331 0.0000 0.0000 0.0000
# 2 0.2545 73.7421 7.5945 0.0000 0.0000 0.0000
# 3 15.0331 7.5945 94.0535 0.0000 0.0000 0.0000
# 4 0.0000 0.0000 0.0000 29.7904 0.0000 0.0000
# 5 0.0000 0.0000 0.0000 0.0000 44.5618 0.0000
# 6 0.0000 0.0000 0.0000 0.0000 0.0000 31.2285
#
#
#
# Elastic Compliance Matrix: (Units=1/GPa)
#
#
# Indices 1 2 3 4 5 6 
#
# 1 0.018421 0.000242 -0.002964 0.000000 0.000000 0.000000
# 2 0.000242 0.013678 -0.001143 0.000000 0.000000 0.000000
# 3 -0.002964 -0.001143 0.011198 0.000000 0.000000 0.000000
# 4 0.000000 0.000000 0.000000 0.033568 0.000000 0.000000
# 5 0.000000 0.000000 0.000000 0.000000 0.022441 0.000000
# 6 0.000000 0.000000 0.000000 0.000000 0.000000 0.032022
#
#
# Mechanical properties :
#
#
# Convention : Reuss Voigt Hill
#
# Bulk Modulus (GPa) = 28.11652 30.02910 29.07281
# Shear Modulus (GPa) = 33.13167 34.55720 33.84444
#
# Velocity S-wave (km/s) = 3.80108 3.88199 3.84174
# Velocity P-wave (km/s) = 5.61475 5.76093 5.68831
#
# Compressibility (1/GPa) = 0.03556627
#
# Stress axis : x y z
#
# Youngs Moduli (GPa) = 54.28670 73.11194 89.29953
#
# Poissons Ratio (x) = -0.01767 0.26467
# Poissons Ratio (y) = -0.01312 0.10207
# Poissons Ratio (z) = 0.16089 0.08357
#
# Static dielectric constant tensor:
#      x y z
#    x 1.907180 0.000000 0.000000 
#    y 0.000000 1.987980 0.000000 
#    z 0.000000 0.000000 1.839470 
# 
# From -- ./inp_files/8390.got.cif
#   From: 2010.05.17/outbox.cif.g08.bks.cpg/sg61_5_cif.got.tgz:8390.got - 2010.06.03 15:17:17.
