data_PCOD9459391
_publ_section_title
;
Structure prediction by ZEFSAII (Michael W. Deem and Ramdas Pophale) SiO2 
 PCOD9459391
Probable space group: P B C A
;
_chemical_formula_sum "Si O2"
_cell_formula_units_Z 48
_cell_length_a 18.291450
_cell_length_b 7.426277
_cell_length_c 14.643820
_cell_angle_alpha 90.000000
_cell_angle_beta 90.000000
_cell_angle_gamma 90.000000
_cell_volume 1989.178060
_symmetry_space_group_name_H-M "P B C A"
_symmetry_group_IT_number 61
_symmetry_cell_setting 'orthorhombic'
loop_
_space_group_symop_operation_xyz
x,y,z
1/2-x,-y,1/2+z
1/2+x,1/2-y,-z
-x,1/2+y,1/2-z
-x,-y,-z
1/2+x,y,1/2-z
1/2-x,1/2+y,z
x,1/2-y,1/2+z
loop_
_atom_site_type_symbol
_atom_site_label
_atom_site_fract_x
_atom_site_fract_y
_atom_site_fract_z
Si Si1 0.306703 0.596919 0.198863
Si Si2 0.468261 0.320242 0.849913
Si Si3 0.123350 0.666206 0.006119
Si Si4 0.327542 0.943858 0.304842
Si Si5 0.564132 0.854510 0.326362
Si Si6 0.268661 0.986510 0.496628
O O1 0.341327 0.772932 0.241818
O O2 0.231982 0.561390 0.251597
O O3 0.359939 0.428513 0.213970
O O4 0.290170 0.608978 0.091604
O O5 0.438556 0.190018 0.929237
O O6 0.398796 0.442137 0.824001
O O7 0.484792 0.211803 0.757468
O O8 0.529576 0.468039 0.874726
O O9 0.179947 0.501338 0.997821
O O10 0.181447 0.833197 0.997845
O O11 0.083041 0.698381 0.102122
O O12 0.292492 0.892372 0.402482
#
# Coordination Sequence:
#
# PCOD9459391 Si02
#       6
#     8   8   8   8   8   8
#     4  11  21  36  59  87 117 153 196 246 299 353
#     4  11  23  40  59  83 118 159 199 244 295 352
#     4  10  21  38  61  87 118 151 192 244 299 350
#     4  11  21  36  59  87 117 153 196 246 299 353
#     4  11  23  40  59  83 118 159 199 244 295 352
#     4  10  20  34  56  87 115 145 187 240 292 346
#
# _framework density 24.130569999999999
#
# number of rings (size 3 to 8) (size 9 to 14) (size 15 to 20)
#    0.000    1.333    0.000    8.500    0.000    0.000 
#    0.000    0.833    0.000    0.000    0.000    0.000 
#    0.000    0.000    0.000    0.000    0.000    0.000 
#
# Total GULP energy -268523.903829 kJ/mol
# GULP energy per Si atom -5594.247996 kJ/mol
# Density = 2.407565 g / cm^3
# Si number density = 24.130570 Si / 1000 Ang^3
#
#
#
# Elastic Constant Matrix: (Units=GPa)
#
#
# Indices 1 2 3 4 5 6 
#
# 1 80.5585 0.6198 5.7930 0.0000 0.0000 0.0000
# 2 0.6198 38.0212 21.6711 0.0000 0.0000 0.0000
# 3 5.7930 21.6711 82.3640 0.0000 0.0000 0.0000
# 4 0.0000 0.0000 0.0000 27.1938 0.0000 0.0000
# 5 0.0000 0.0000 0.0000 0.0000 21.3898 0.0000
# 6 0.0000 0.0000 0.0000 0.0000 0.0000 46.0820
#
#
#
# Elastic Compliance Matrix: (Units=1/GPa)
#
#
# Indices 1 2 3 4 5 6 
#
# 1 0.012480 0.000349 -0.000970 0.000000 0.000000 0.000000
# 2 0.000349 0.030951 -0.008168 0.000000 0.000000 0.000000
# 3 -0.000970 -0.008168 0.014359 0.000000 0.000000 0.000000
# 4 0.000000 0.000000 0.000000 0.036773 0.000000 0.000000
# 5 0.000000 0.000000 0.000000 0.000000 0.046751 0.000000
# 6 0.000000 0.000000 0.000000 0.000000 0.000000 0.021700
#
#
# Mechanical properties :
#
#
# Convention : Reuss Voigt Hill
#
# Bulk Modulus (GPa) = 24.86775 28.56795 26.71785
# Shear Modulus (GPa) = 25.77369 30.45711 28.11540
#
# Velocity S-wave (km/s) = 3.27171 3.55657 3.41711
# Velocity P-wave (km/s) = 4.95984 5.36006 5.16383
#
# Compressibility (1/GPa) = 0.04021273
#
# Stress axis : x y z
#
# Youngs Moduli (GPa) = 80.12579 32.30907 69.64468
#
# Poissons Ratio (x) = -0.01128 0.06753
# Poissons Ratio (y) = -0.02798 0.56887
# Poissons Ratio (z) = 0.07770 0.26391
#
# Static dielectric constant tensor:
#      x y z
#    x 1.919260 0.000000 0.000000 
#    y 0.000000 2.057490 0.000000 
#    z 0.000000 0.000000 1.929760 
# 
# From -- ./inp_files/8110.got.cif
#   From: 2010.05.17/outbox.cif.g08.bks.cpg/sg61_5_cif.got.tgz:8110.got - 2010.06.03 15:17:17.
