data_PCOD9459239
_publ_section_title
;
Structure prediction by ZEFSAII (Michael W. Deem and Ramdas Pophale) SiO2 
 PCOD9459239
Probable space group: P B C A
;
_chemical_formula_sum "Si O2"
_cell_formula_units_Z 56
_cell_length_a 28.431001
_cell_length_b 7.836241
_cell_length_c 9.292542
_cell_angle_alpha 90.000000
_cell_angle_beta 90.000000
_cell_angle_gamma 90.000000
_cell_volume 2070.305650
_symmetry_space_group_name_H-M "P B C A"
_symmetry_group_IT_number 61
_symmetry_cell_setting 'orthorhombic'
loop_
_space_group_symop_operation_xyz
x,y,z
1/2-x,-y,1/2+z
1/2+x,1/2-y,-z
-x,1/2+y,1/2-z
-x,-y,-z
1/2+x,y,1/2-z
1/2-x,1/2+y,z
x,1/2-y,1/2+z
loop_
_atom_site_type_symbol
_atom_site_label
_atom_site_fract_x
_atom_site_fract_y
_atom_site_fract_z
Si Si1 0.928846 0.391918 0.051393
Si Si2 0.936231 0.812326 0.761667
Si Si3 0.309228 0.967422 0.318584
Si Si4 0.242364 0.563597 0.066982
Si Si5 0.345521 0.236008 0.133557
Si Si6 0.344494 0.874989 0.602471
Si Si7 0.474536 0.344096 0.169519
O O1 0.880353 0.365824 0.969344
O O2 0.938479 0.294695 0.201581
O O3 0.932145 0.584902 0.109947
O O4 0.966670 0.301467 0.947840
O O5 0.960666 0.959364 0.863178
O O6 0.114561 0.234181 0.174158
O O7 0.973224 0.663548 0.735013
O O8 0.338756 0.853734 0.430079
O O9 0.260914 0.981993 0.409960
O O10 0.337900 0.141116 0.286067
O O11 0.291740 0.936308 0.155359
O O12 0.207403 0.725468 0.067478
O O13 0.290388 0.603967 0.152346
O O14 0.361284 0.430542 0.133385
#
# Coordination Sequence:
#
# PCOD9459239 Si02
#       7
#     8   8   8   8   8   8   8
#     4  10  22  37  66  92 124 173 220 284 333 408
#     4  10  23  38  68  93 135 170 230 281 351 399
#     4   8  20  33  57  91 124 156 211 268 316 394
#     4   8  20  34  57  89 126 154 206 267 315 389
#     4  10  19  35  61  94 123 161 226 254 330 407
#     4  10  20  35  62  93 118 176 209 275 323 406
#     4  10  23  41  63  99 123 177 221 296 338 404
#
# _framework density 27.049147000000001
#
# number of rings (size 3 to 8) (size 9 to 14) (size 15 to 20)
#    2.571    0.000    1.429    0.429    6.000    0.571 
#    0.000    0.000    3.143    1.714    0.000    0.000 
#    0.000    0.000    0.000    0.000    0.000    0.000 
#
# Total GULP energy -312033.642131 kJ/mol
# GULP energy per Si atom -5572.029324 kJ/mol
# Density = 2.698758 g / cm^3
# Si number density = 27.049147 Si / 1000 Ang^3
#
#
#
# Elastic Constant Matrix: (Units=GPa)
#
#
# Indices 1 2 3 4 5 6 
#
# 1 128.4674 8.5248 15.6667 0.0000 0.0000 0.0000
# 2 8.5248 48.5390 8.8825 0.0000 0.0000 0.0000
# 3 15.6667 8.8825 95.8123 0.0000 0.0000 0.0000
# 4 0.0000 0.0000 0.0000 27.7127 0.0000 0.0000
# 5 0.0000 0.0000 0.0000 0.0000 43.2864 0.0000
# 6 0.0000 0.0000 0.0000 0.0000 0.0000 19.4035
#
#
#
# Elastic Compliance Matrix: (Units=1/GPa)
#
#
# Indices 1 2 3 4 5 6 
#
# 1 0.008009 -0.001187 -0.001200 0.000000 0.000000 0.000000
# 2 -0.001187 0.021134 -0.001765 0.000000 0.000000 0.000000
# 3 -0.001200 -0.001765 0.010797 0.000000 0.000000 0.000000
# 4 0.000000 0.000000 0.000000 0.036085 0.000000 0.000000
# 5 0.000000 0.000000 0.000000 0.000000 0.023102 0.000000
# 6 0.000000 0.000000 0.000000 0.000000 0.000000 0.051537
#
#
# Mechanical properties :
#
#
# Convention : Reuss Voigt Hill
#
# Bulk Modulus (GPa) = 31.60965 37.66298 34.63631
# Shear Modulus (GPa) = 29.49645 34.06350 31.77998
#
# Velocity S-wave (km/s) = 3.30582 3.55254 3.43140
# Velocity P-wave (km/s) = 5.12666 5.54811 5.34154
#
# Compressibility (1/GPa) = 0.03163591
#
# Stress axis : x y z
#
# Youngs Moduli (GPa) = 124.85742 47.31822 92.61955
#
# Poissons Ratio (x) = 0.05617 0.11110
# Poissons Ratio (y) = 0.14822 0.16349
# Poissons Ratio (z) = 0.14977 0.08352
#
# Static dielectric constant tensor:
#      x y z
#    x 2.131780 0.000000 0.000000 
#    y 0.000000 2.346750 0.000000 
#    z 0.000000 0.000000 2.153470 
# 
# From -- ./inp_files/6717.got.cif
#   From: 2010.05.17/outbox.cif.g08.bks.cpg/sg61_4_cif.got.tgz:6717.got - 2010.06.03 15:17:17.
