data_PCOD9459886
_publ_section_title
;
Structure prediction by ZEFSAII (Michael W. Deem and Ramdas Pophale) SiO2 
 PCOD9459886
Probable space group: P B C A
;
_chemical_formula_sum "Si O2"
_cell_formula_units_Z 40
_cell_length_a 9.105132
_cell_length_b 21.434137
_cell_length_c 7.745768
_cell_angle_alpha 90.000000
_cell_angle_beta 90.000000
_cell_angle_gamma 90.000000
_cell_volume 1511.669092
_symmetry_space_group_name_H-M "P B C A"
_symmetry_group_IT_number 61
_symmetry_cell_setting 'orthorhombic'
loop_
_space_group_symop_operation_xyz
x,y,z
1/2-x,-y,1/2+z
1/2+x,1/2-y,-z
-x,1/2+y,1/2-z
-x,-y,-z
1/2+x,y,1/2-z
1/2-x,1/2+y,z
x,1/2-y,1/2+z
loop_
_atom_site_type_symbol
_atom_site_label
_atom_site_fract_x
_atom_site_fract_y
_atom_site_fract_z
Si Si1 0.695939 0.366469 0.763638
Si Si2 0.802553 0.689404 0.902061
Si Si3 0.573517 0.065281 0.773438
Si Si4 0.696705 0.499141 0.618935
Si Si5 0.065280 0.708457 0.134280
O O1 0.544269 0.328433 0.764318
O O2 0.679369 0.439258 0.742333
O O3 0.758653 0.343967 0.574941
O O4 0.812687 0.344679 0.904582
O O5 0.872046 0.636190 0.781753
O O6 0.675489 0.733813 0.827454
O O7 0.948251 0.723126 0.983023
O O8 0.402665 0.054451 0.802140
O O9 0.641030 0.026880 0.616869
O O10 0.640043 0.027840 0.938702
#
# Coordination Sequence:
#
# PCOD9459886 Si02
#       5
#     8   8   8   8   8
#     4   9  21  37  62  89 124 174 207 265 333 402
#     4   9  23  40  61  92 127 166 221 273 323 384
#     4  10  22  42  63  97 128 172 213 281 319 403
#     4  10  21  41  68  92 135 165 221 263 341 380
#     4  10  21  38  62  88 126 167 219 263 327 398
#
# _framework density 26.460819000000001
#
# number of rings (size 3 to 8) (size 9 to 14) (size 15 to 20)
#    1.200    1.200    0.000    1.200    5.600    2.400 
#    0.000    0.000    0.000    0.000    0.000    0.000 
#    0.000    0.000    0.000    0.000    0.000    0.000 
#
# Total GULP energy -223083.176227 kJ/mol
# GULP energy per Si atom -5577.079406 kJ/mol
# Density = 2.640059 g / cm^3
# Si number density = 26.460819 Si / 1000 Ang^3
#
#
#
# Elastic Constant Matrix: (Units=GPa)
#
#
# Indices 1 2 3 4 5 6 
#
# 1 158.7850 51.2626 18.5396 0.0000 0.0000 0.0000
# 2 51.2626 122.7489 24.5462 0.0000 0.0000 0.0000
# 3 18.5396 24.5462 38.0195 0.0000 0.0000 0.0000
# 4 0.0000 0.0000 0.0000 31.8130 0.0000 0.0000
# 5 0.0000 0.0000 0.0000 0.0000 37.0960 0.0000
# 6 0.0000 0.0000 0.0000 0.0000 0.0000 -8.7623
#
#
#
# Elastic Compliance Matrix: (Units=1/GPa)
#
#
# Indices 1 2 3 4 5 6 
#
# 1 0.007391 -0.002717 -0.001850 0.000000 0.000000 0.000000
# 2 -0.002717 0.010353 -0.005359 0.000000 0.000000 0.000000
# 3 -0.001850 -0.005359 0.030665 0.000000 0.000000 0.000000
# 4 0.000000 0.000000 0.000000 0.031434 0.000000 0.000000
# 5 0.000000 0.000000 0.000000 0.000000 0.026957 0.000000
# 6 0.000000 0.000000 0.000000 0.000000 0.000000 -0.114126
#
#
# Mechanical properties :
#
#
# Convention : Reuss Voigt Hill
#
# Bulk Modulus (GPa) = 35.01866 56.47226 45.74546
# Shear Modulus (GPa) = 226.81306 27.04301 126.92803
#
# Velocity S-wave (km/s) = 9.26837 3.20034 6.93343
# Velocity P-wave (km/s) = 11.30486 5.91984 9.02342
#
# Compressibility (1/GPa) = 0.02855620
#
# Stress axis : x y z
#
# Youngs Moduli (GPa) = 135.30173 96.59087 32.61085
#
# Poissons Ratio (x) = 0.26240 0.06034
# Poissons Ratio (y) = 0.36756 0.17477
# Poissons Ratio (z) = 0.25033 0.51767
#
# Static dielectric constant tensor:
#      x y z
#    x 2.040210 0.000000 0.000000 
#    y 0.000000 2.056660 0.000000 
#    z 0.000000 0.000000 2.125060 
# 
# From -- ./inp_files/4836.got.cif
#   From: 2010.05.17/outbox.cif.g08.bks.cpg/sg61_3_cif.got.tgz:4836.got - 2010.06.03 15:17:17.
