data_PCOD9459810
_publ_section_title
;
Structure prediction by ZEFSAII (Michael W. Deem and Ramdas Pophale) SiO2 
 PCOD9459810
Probable space group: P B C A
;
_chemical_formula_sum "Si O2"
_cell_formula_units_Z 48
_cell_length_a 8.266103
_cell_length_b 17.013553
_cell_length_c 18.353150
_cell_angle_alpha 90.000000
_cell_angle_beta 90.000000
_cell_angle_gamma 90.000000
_cell_volume 2581.109593
_symmetry_space_group_name_H-M "P B C A"
_symmetry_group_IT_number 61
_symmetry_cell_setting 'orthorhombic'
loop_
_space_group_symop_operation_xyz
x,y,z
1/2-x,-y,1/2+z
1/2+x,1/2-y,-z
-x,1/2+y,1/2-z
-x,-y,-z
1/2+x,y,1/2-z
1/2-x,1/2+y,z
x,1/2-y,1/2+z
loop_
_atom_site_type_symbol
_atom_site_label
_atom_site_fract_x
_atom_site_fract_y
_atom_site_fract_z
Si Si1 0.036321 0.298572 0.597197
Si Si2 0.313696 0.202763 0.537940
Si Si3 0.600709 0.446961 0.442881
Si Si4 0.083478 0.654632 0.821618
Si Si5 0.942377 0.519373 0.417242
Si Si6 0.542595 0.371230 0.161045
O O1 0.211792 0.275346 0.567220
O O2 0.027412 0.391458 0.605346
O O3 0.909155 0.276780 0.534237
O O4 0.996732 0.239506 0.662376
O O5 0.190402 0.130078 0.523283
O O6 0.438410 0.174178 0.599909
O O7 0.500000 0.500000 0.500000
O O8 0.493773 0.408803 0.377999
O O9 0.752045 0.497956 0.413379
O O10 0.274945 0.658551 0.833687
O O11 0.043477 0.633253 0.738868
O O12 0.000000 0.500000 0.500000
O O13 0.040450 0.460822 0.365904
#
# Coordination Sequence:
#
# PCOD9459810 Si02
#       6
#     8   8   8   8   8   8
#     4  11  22  38  62  97 121 168 204 260 302 378
#     4  10  22  36  63  90 125 158 210 251 315 358
#     4  10  21  36  61  93 122 165 206 253 307 365
#     4  11  24  41  66  87 128 166 210 251 321 376
#     4  11  21  39  65  93 125 161 210 262 306 366
#     4  11  22  45  64  88 125 168 202 264 315 370
#
# _framework density 18.596651999999999
#
# number of rings (size 3 to 8) (size 9 to 14) (size 15 to 20)
#    0.000    1.333    3.333    5.000    4.667    0.000 
#    0.000    6.667    0.000    0.000    0.000    0.000 
#    0.000    0.000    0.000    0.000    0.000    0.000 
#
# Total GULP energy -268029.406261 kJ/mol
# GULP energy per Si atom -5583.945964 kJ/mol
# Density = 1.855433 g / cm^3
# Si number density = 18.596652 Si / 1000 Ang^3
#
#
#
# Elastic Constant Matrix: (Units=GPa)
#
#
# Indices 1 2 3 4 5 6 
#
# 1 53.4680 -16.0905 -8.2195 0.0000 0.0000 0.0000
# 2 -16.0905 84.4743 23.3807 0.0000 0.0000 0.0000
# 3 -8.2195 23.3807 65.5673 0.0000 0.0000 0.0000
# 4 0.0000 0.0000 0.0000 19.6691 0.0000 0.0000
# 5 0.0000 0.0000 0.0000 0.0000 29.4455 0.0000
# 6 0.0000 0.0000 0.0000 0.0000 0.0000 20.5308
#
#
#
# Elastic Compliance Matrix: (Units=1/GPa)
#
#
# Indices 1 2 3 4 5 6 
#
# 1 0.019935 0.003446 0.001270 0.000000 0.000000 0.000000
# 2 0.003446 0.013730 -0.004464 0.000000 0.000000 0.000000
# 3 0.001270 -0.004464 0.017003 0.000000 0.000000 0.000000
# 4 0.000000 0.000000 0.000000 0.050841 0.000000 0.000000
# 5 0.000000 0.000000 0.000000 0.000000 0.033961 0.000000
# 6 0.000000 0.000000 0.000000 0.000000 0.000000 0.048707
#
#
# Mechanical properties :
#
#
# Convention : Reuss Voigt Hill
#
# Bulk Modulus (GPa) = 19.54223 22.40567 20.97395
# Shear Modulus (GPa) = 24.90909 27.55834 26.23371
#
# Velocity S-wave (km/s) = 3.66381 3.85372 3.75996
# Velocity P-wave (km/s) = 5.33191 5.64588 5.49114
#
# Compressibility (1/GPa) = 0.05117124
#
# Stress axis : x y z
#
# Youngs Moduli (GPa) = 50.16308 72.83446 58.81465
#
# Poissons Ratio (x) = -0.25095 -0.07472
# Poissons Ratio (y) = -0.17284 0.26255
# Poissons Ratio (z) = -0.06373 0.32513
#
# Static dielectric constant tensor:
#      x y z
#    x 1.656550 0.000000 0.000000 
#    y 0.000000 1.661740 0.000000 
#    z 0.000000 0.000000 1.664730 
# 
# From -- ./inp_files/8934.got.cif
#   From: 2010.05.17/outbox.cif.g08.bks.cpg/sg61_5_cif.got.tgz:8934.got - 2010.06.03 15:17:17.
