data_PCOD9459924
_publ_section_title
;
Structure prediction by ZEFSAII (Michael W. Deem and Ramdas Pophale) SiO2 
 PCOD9459924
Probable space group: P B C A
;
_chemical_formula_sum "Si O2"
_cell_formula_units_Z 40
_cell_length_a 8.359487
_cell_length_b 9.032844
_cell_length_c 22.543074
_cell_angle_alpha 90.000000
_cell_angle_beta 90.000000
_cell_angle_gamma 90.000000
_cell_volume 1702.226210
_symmetry_space_group_name_H-M "P B C A"
_symmetry_group_IT_number 61
_symmetry_cell_setting 'orthorhombic'
loop_
_space_group_symop_operation_xyz
x,y,z
1/2-x,-y,1/2+z
1/2+x,1/2-y,-z
-x,1/2+y,1/2-z
-x,-y,-z
1/2+x,y,1/2-z
1/2-x,1/2+y,z
x,1/2-y,1/2+z
loop_
_atom_site_type_symbol
_atom_site_label
_atom_site_fract_x
_atom_site_fract_y
_atom_site_fract_z
Si Si1 0.085470 0.229258 0.529411
Si Si2 0.728282 0.713421 0.722853
Si Si3 0.380941 0.552968 0.340843
Si Si4 0.597049 0.213607 0.838136
Si Si5 0.734837 0.960188 0.032553
O O1 0.118578 0.278051 0.596772
O O2 0.112591 0.363120 0.484080
O O3 0.910480 0.157581 0.526693
O O4 0.200361 0.092982 0.512267
O O5 0.711500 0.539265 0.710148
O O6 0.563302 0.773736 0.694604
O O7 0.763125 0.735294 0.791436
O O8 0.869214 0.781210 0.682046
O O9 0.546168 0.461034 0.346726
O O10 0.286235 0.528251 0.402125
#
# Coordination Sequence:
#
# PCOD9459924 Si02
#       5
#     8   8   8   8   8
#     4  10  22  42  61  94 122 164 203 258 303 375
#     4  10  21  39  61  84 126 155 202 255 292 364
#     4   9  21  38  63  88 119 156 202 243 309 357
#     4   9  23  39  59  90 121 156 210 240 311 362
#     4  10  21  42  66  88 132 156 206 255 309 366
#
# _framework density 23.498636999999999
#
# number of rings (size 3 to 8) (size 9 to 14) (size 15 to 20)
#    1.200    1.200    0.000    1.200    2.800    2.400 
#   10.800    0.000    0.000    0.000    0.000    0.000 
#    0.000    0.000    0.000    0.000    0.000    0.000 
#
# Total GULP energy -223074.512066 kJ/mol
# GULP energy per Si atom -5576.862802 kJ/mol
# Density = 2.344515 g / cm^3
# Si number density = 23.498637 Si / 1000 Ang^3
#
#
#
# Elastic Constant Matrix: (Units=GPa)
#
#
# Indices 1 2 3 4 5 6 
#
# 1 36.0445 13.2988 22.0755 0.0000 0.0000 0.0000
# 2 13.2988 26.3559 12.3306 0.0000 0.0000 0.0000
# 3 22.0755 12.3306 134.6341 0.0000 0.0000 0.0000
# 4 0.0000 0.0000 0.0000 13.2708 0.0000 0.0000
# 5 0.0000 0.0000 0.0000 0.0000 10.9516 0.0000
# 6 0.0000 0.0000 0.0000 0.0000 0.0000 18.2989
#
#
#
# Elastic Compliance Matrix: (Units=1/GPa)
#
#
# Indices 1 2 3 4 5 6 
#
# 1 0.036518 -0.016325 -0.004493 0.000000 0.000000 0.000000
# 2 -0.016325 0.046938 -0.001622 0.000000 0.000000 0.000000
# 3 -0.004493 -0.001622 0.008313 0.000000 0.000000 0.000000
# 4 0.000000 0.000000 0.000000 0.075353 0.000000 0.000000
# 5 0.000000 0.000000 0.000000 0.000000 0.091311 0.000000
# 6 0.000000 0.000000 0.000000 0.000000 0.000000 0.054648
#
#
# Mechanical properties :
#
#
# Convention : Reuss Voigt Hill
#
# Bulk Modulus (GPa) = 21.32643 32.49382 26.91013
# Shear Modulus (GPa) = 13.38363 18.45956 15.92159
#
# Velocity S-wave (km/s) = 2.38911 2.80582 2.60581
# Velocity P-wave (km/s) = 4.08727 4.93506 4.53104
#
# Compressibility (1/GPa) = 0.04689017
#
# Stress axis : x y z
#
# Youngs Moduli (GPa) = 27.38367 21.30459 120.29703
#
# Poissons Ratio (x) = 0.34779 0.54045
# Poissons Ratio (y) = 0.44703 0.19514
# Poissons Ratio (z) = 0.12303 0.03456
#
# Static dielectric constant tensor:
#      x y z
#    x 1.938520 0.000000 0.000000 
#    y 0.000000 1.897960 0.000000 
#    z 0.000000 0.000000 1.848060 
# 
# From -- ./inp_files/1808.got.cif
#   From: 2010.05.17/outbox.cif.g08.bks.cpg/sg61_1_cif.got.tgz:1808.got - 2010.06.03 15:17:17.
