data_PCOD9459475
_publ_section_title
;
Structure prediction by ZEFSAII (Michael W. Deem and Ramdas Pophale) SiO2 
 PCOD9459475
Probable space group: P B C A
;
_chemical_formula_sum "Si O2"
_cell_formula_units_Z 48
_cell_length_a 8.462953
_cell_length_b 30.684169
_cell_length_c 8.947056
_cell_angle_alpha 90.000000
_cell_angle_beta 90.000000
_cell_angle_gamma 90.000000
_cell_volume 2323.359693
_symmetry_space_group_name_H-M "P B C A"
_symmetry_group_IT_number 61
_symmetry_cell_setting 'orthorhombic'
loop_
_space_group_symop_operation_xyz
x,y,z
1/2-x,-y,1/2+z
1/2+x,1/2-y,-z
-x,1/2+y,1/2-z
-x,-y,-z
1/2+x,y,1/2-z
1/2-x,1/2+y,z
x,1/2-y,1/2+z
loop_
_atom_site_type_symbol
_atom_site_label
_atom_site_fract_x
_atom_site_fract_y
_atom_site_fract_z
Si Si1 0.086360 0.203766 0.624303
Si Si2 0.443642 0.626798 0.981545
Si Si3 0.605127 0.522958 0.620487
Si Si4 0.902623 0.118999 0.675976
Si Si5 0.045002 0.784635 0.046372
Si Si6 0.896882 0.534758 0.411025
O O1 0.269567 0.209282 0.582175
O O2 0.986527 0.239065 0.532761
O O3 0.053454 0.213668 0.798864
O O4 0.015695 0.155194 0.602105
O O5 0.273151 0.625355 0.893903
O O6 0.580243 0.625188 0.854339
O O7 0.474533 0.674591 0.049328
O O8 0.458169 0.584674 0.089503
O O9 0.500000 0.500000 0.500000
O O10 0.534215 0.569396 0.666316
O O11 0.752688 0.537100 0.523482
O O12 0.638610 0.489084 0.754191
O O13 0.000000 0.500000 0.500000
#
# Coordination Sequence:
#
# PCOD9459475 Si02
#       6
#     8   8   8   8   8   8
#     4  11  22  40  66  94 127 170 214 264 322 385
#     4  10  20  36  61  90 124 168 212 263 318 385
#     4  11  24  40  62  91 125 166 218 270 322 394
#     4  10  20  36  61  89 122 166 211 259 317 390
#     4  11  22  40  65  95 129 168 214 265 321 387
#     4  11  22  39  63  90 127 168 214 268 323 382
#
# _framework density 20.659735999999999
#
# number of rings (size 3 to 8) (size 9 to 14) (size 15 to 20)
#    0.000    1.333    1.667    7.000    2.333    1.333 
#    3.000    0.000    3.667    0.000    0.000    0.000 
#    0.000    0.000    0.000    0.000    0.000    0.000 
#
# Total GULP energy -267466.357918 kJ/mol
# GULP energy per Si atom -5572.215790 kJ/mol
# Density = 2.061271 g / cm^3
# Si number density = 20.659736 Si / 1000 Ang^3
#
#
#
# Elastic Constant Matrix: (Units=GPa)
#
#
# Indices 1 2 3 4 5 6 
#
# 1 69.1366 53.1195 9.3611 0.0000 0.0000 0.0000
# 2 53.1195 177.6518 50.2125 0.0000 0.0000 0.0000
# 3 9.3611 50.2125 64.6607 0.0000 0.0000 0.0000
# 4 0.0000 0.0000 0.0000 37.0553 0.0000 0.0000
# 5 0.0000 0.0000 0.0000 0.0000 23.9198 0.0000
# 6 0.0000 0.0000 0.0000 0.0000 0.0000 28.9925
#
#
#
# Elastic Compliance Matrix: (Units=1/GPa)
#
#
# Indices 1 2 3 4 5 6 
#
# 1 0.019004 -0.006284 0.002129 0.000000 0.000000 0.000000
# 2 -0.006284 0.009290 -0.006304 0.000000 0.000000 0.000000
# 3 0.002129 -0.006304 0.020053 0.000000 0.000000 0.000000
# 4 0.000000 0.000000 0.000000 0.026987 0.000000 0.000000
# 5 0.000000 0.000000 0.000000 0.000000 0.041806 0.000000
# 6 0.000000 0.000000 0.000000 0.000000 0.000000 0.034492
#
#
# Mechanical properties :
#
#
# Convention : Reuss Voigt Hill
#
# Bulk Modulus (GPa) = 36.45996 59.64835 48.05416
# Shear Modulus (GPa) = 27.51888 31.24393 29.38140
#
# Velocity S-wave (km/s) = 3.65362 3.89306 3.77524
# Velocity P-wave (km/s) = 5.95691 7.01016 6.50489
#
# Compressibility (1/GPa) = 0.02742735
#
# Stress axis : x y z
#
# Youngs Moduli (GPa) = 52.62017 107.64410 49.86824
#
# Poissons Ratio (x) = 0.67644 -0.10615
# Poissons Ratio (y) = 0.33067 0.31439
# Poissons Ratio (z) = -0.11201 0.67862
#
# Static dielectric constant tensor:
#      x y z
#    x 1.771190 0.000000 0.000000 
#    y 0.000000 2.108760 0.000000 
#    z 0.000000 0.000000 1.741100 
# 
# From -- ./inp_files/1894.got.cif
#   From: 2010.05.17/outbox.cif.g08.bks.cpg/sg61_1_cif.got.tgz:1894.got - 2010.06.03 15:17:17.
