data_PCOD9459817
_publ_section_title
;
Structure prediction by ZEFSAII (Michael W. Deem and Ramdas Pophale) SiO2 
 PCOD9459817
Probable space group: P B C A
;
_chemical_formula_sum "Si O2"
_cell_formula_units_Z 64
_cell_length_a 16.842599
_cell_length_b 8.558494
_cell_length_c 19.364977
_cell_angle_alpha 90.000000
_cell_angle_beta 90.000000
_cell_angle_gamma 90.000000
_cell_volume 2791.408810
_symmetry_space_group_name_H-M "P B C A"
_symmetry_group_IT_number 61
_symmetry_cell_setting 'orthorhombic'
loop_
_space_group_symop_operation_xyz
x,y,z
1/2-x,-y,1/2+z
1/2+x,1/2-y,-z
-x,1/2+y,1/2-z
-x,-y,-z
1/2+x,y,1/2-z
1/2-x,1/2+y,z
x,1/2-y,1/2+z
loop_
_atom_site_type_symbol
_atom_site_label
_atom_site_fract_x
_atom_site_fract_y
_atom_site_fract_z
Si Si1 0.596059 0.286275 0.183036
Si Si2 0.810058 0.123464 0.867312
Si Si3 0.920025 0.276596 0.764684
Si Si4 0.417546 0.395499 0.887514
Si Si5 0.583342 0.148430 0.046303
Si Si6 0.588794 0.352789 0.925624
Si Si7 0.632099 0.112172 0.823299
Si Si8 0.106305 0.820344 0.515933
O O1 0.503615 0.286705 0.206477
O O2 0.618328 0.444794 0.142383
O O3 0.605619 0.153601 0.126271
O O4 0.640631 0.279410 0.255374
O O5 0.851103 0.168784 0.795072
O O6 0.717379 0.103031 0.857984
O O7 0.845342 0.961339 0.893711
O O8 0.840387 0.254150 0.922057
O O9 0.921857 0.291391 0.682188
O O10 0.903732 0.449922 0.796051
O O11 0.505395 0.439327 0.916008
O O12 0.383173 0.298894 0.951664
O O13 0.619502 0.994638 0.011650
O O14 0.610697 0.297275 0.001557
O O15 0.486993 0.166525 0.039104
O O16 0.578188 0.195970 0.880213
#
# Coordination Sequence:
#
# PCOD9459817 Si02
#       8
#     8   8   8   8   8   8   8   8
#     4  11  21  40  64  97 132 174 225 291 336 399
#     4  12  23  42  63  93 137 183 220 273 351 415
#     4  11  22  40  65  95 134 177 226 287 337 402
#     4  10  21  36  63 100 128 166 229 281 341 386
#     4  10  21  36  65 102 131 164 226 282 341 391
#     4  11  21  37  63  95 129 173 221 279 328 408
#     4  11  26  40  62  96 137 179 227 274 348 418
#     4  10  21  37  64  99 135 170 216 283 338 416
#
# _framework density 22.927492000000001
#
# number of rings (size 3 to 8) (size 9 to 14) (size 15 to 20)
#    0.000    1.250    3.750    2.250    3.500    3.000 
#    0.000    1.250    0.000    6.000    0.000    0.000 
#    0.000    0.000    0.000    0.000    0.000    0.000 
#
# Total GULP energy -357836.547960 kJ/mol
# GULP energy per Si atom -5591.196062 kJ/mol
# Density = 2.287531 g / cm^3
# Si number density = 22.927492 Si / 1000 Ang^3
#
#
#
# Elastic Constant Matrix: (Units=GPa)
#
#
# Indices 1 2 3 4 5 6 
#
# 1 29.6290 10.5561 7.3091 0.0000 0.0000 0.0000
# 2 10.5561 50.5042 19.0129 0.0000 0.0000 0.0000
# 3 7.3091 19.0129 138.5229 0.0000 0.0000 0.0000
# 4 0.0000 0.0000 0.0000 42.1879 0.0000 0.0000
# 5 0.0000 0.0000 0.0000 0.0000 20.7911 0.0000
# 6 0.0000 0.0000 0.0000 0.0000 0.0000 9.1889
#
#
#
# Elastic Compliance Matrix: (Units=1/GPa)
#
#
# Indices 1 2 3 4 5 6 
#
# 1 0.036579 -0.007296 -0.000929 0.000000 0.000000 0.000000
# 2 -0.007296 0.022334 -0.002681 0.000000 0.000000 0.000000
# 3 -0.000929 -0.002681 0.007636 0.000000 0.000000 0.000000
# 4 0.000000 0.000000 0.000000 0.023704 0.000000 0.000000
# 5 0.000000 0.000000 0.000000 0.000000 0.048098 0.000000
# 6 0.000000 0.000000 0.000000 0.000000 0.000000 0.108827
#
#
# Mechanical properties :
#
#
# Convention : Reuss Voigt Hill
#
# Bulk Modulus (GPa) = 22.35179 32.49027 27.42103
# Shear Modulus (GPa) = 17.61177 26.55209 22.08193
#
# Velocity S-wave (km/s) = 2.77456 3.40676 3.10678
# Velocity P-wave (km/s) = 4.47597 5.44760 4.98551
#
# Compressibility (1/GPa) = 0.04473914
#
# Stress axis : x y z
#
# Youngs Moduli (GPa) = 27.33798 44.77391 130.95963
#
# Poissons Ratio (x) = 0.32667 0.12162
# Poissons Ratio (y) = 0.19946 0.35104
# Poissons Ratio (z) = 0.02539 0.12002
#
# Static dielectric constant tensor:
#      x y z
#    x 1.818950 0.000000 0.000000 
#    y 0.000000 1.906190 0.000000 
#    z 0.000000 0.000000 1.863020 
# 
# From -- ./inp_files/10551.got.cif
#   From: 2010.05.17/outbox.cif.g08.bks.cpg/sg61_6_cif.got.tgz:10551.got - 2010.06.03 15:17:17.
