data_PCOD9459147
_publ_section_title
;
Structure prediction by ZEFSAII (Michael W. Deem and Ramdas Pophale) SiO2 
 PCOD9459147
Probable space group: P B C A
;
_chemical_formula_sum "Si O2"
_cell_formula_units_Z 56
_cell_length_a 5.225613
_cell_length_b 24.027548
_cell_length_c 25.918513
_cell_angle_alpha 90.000000
_cell_angle_beta 90.000000
_cell_angle_gamma 90.000000
_cell_volume 3254.293948
_symmetry_space_group_name_H-M "P B C A"
_symmetry_group_IT_number 61
_symmetry_cell_setting 'orthorhombic'
loop_
_space_group_symop_operation_xyz
x,y,z
1/2-x,-y,1/2+z
1/2+x,1/2-y,-z
-x,1/2+y,1/2-z
-x,-y,-z
1/2+x,y,1/2-z
1/2-x,1/2+y,z
x,1/2-y,1/2+z
loop_
_atom_site_type_symbol
_atom_site_label
_atom_site_fract_x
_atom_site_fract_y
_atom_site_fract_z
Si Si1 0.011708 0.786103 0.999384
Si Si2 0.762957 0.449494 0.275813
Si Si3 0.390574 0.893405 0.444265
Si Si4 0.598876 0.059739 0.893858
Si Si5 0.879726 0.609585 0.439329
Si Si6 0.607797 0.062686 0.110612
Si Si7 0.191566 0.425357 0.768000
O O1 0.959980 0.826594 0.950527
O O2 0.794228 0.739117 0.000839
O O3 0.967995 0.828954 0.046786
O O4 0.544491 0.427704 0.237156
O O5 0.670073 0.439259 0.333410
O O6 0.783270 0.516093 0.263909
O O7 0.639823 0.925225 0.423380
O O8 0.326707 0.913163 0.502708
O O9 0.138765 0.901322 0.409887
O O10 0.493768 0.998021 0.905189
O O11 0.123351 0.578375 0.415378
O O12 0.623714 0.603065 0.406120
O O13 0.652988 0.063145 0.172011
O O14 0.453371 0.394669 0.756693
#
# Coordination Sequence:
#
# PCOD9459147 Si02
#       7
#     8   8   8   8   8   8   8
#     4  10  20  42  63  72 105 140 176 248 286 314
#     4  10  19  32  49  73  99 154 203 211 248 293
#     4  10  24  36  51  86 106 143 196 208 272 349
#     4  12  21  33  54  75 123 158 174 223 254 314
#     4  10  24  36  51  86 106 143 196 208 272 349
#     4  12  21  33  54  75 123 158 174 223 254 314
#     4  10  19  32  49  73  99 154 203 211 248 293
#
# _framework density 17.208031999999999
#
# number of rings (size 3 to 8) (size 9 to 14) (size 15 to 20)
#    0.857    0.571    2.857    5.143    4.000    3.429 
#    0.000    0.000    0.000    0.000    0.000    0.000 
#    0.000   80.000    0.000    0.000    0.000    0.000 
#
# Total GULP energy -311965.827074 kJ/mol
# GULP energy per Si atom -5570.818341 kJ/mol
# Density = 1.716887 g / cm^3
# Si number density = 17.208032 Si / 1000 Ang^3
#
#
#
# Elastic Constant Matrix: (Units=GPa)
#
#
# Indices 1 2 3 4 5 6 
#
# 1 92.6718 -12.6151 11.6579 0.0000 0.0000 0.0000
# 2 -12.6151 21.0951 10.4814 0.0000 0.0000 0.0000
# 3 11.6579 10.4814 68.5756 0.0000 0.0000 0.0000
# 4 0.0000 0.0000 0.0000 -1.3581 0.0000 0.0000
# 5 0.0000 0.0000 0.0000 0.0000 431.3820 0.0000
# 6 0.0000 0.0000 0.0000 0.0000 0.0000 30.3547
#
#
#
# Elastic Compliance Matrix: (Units=1/GPa)
#
#
# Indices 1 2 3 4 5 6 
#
# 1 0.012491 0.009226 -0.003534 0.000000 0.000000 0.000000
# 2 0.009226 0.058114 -0.010451 0.000000 0.000000 0.000000
# 3 -0.003534 -0.010451 0.016780 0.000000 0.000000 0.000000
# 4 0.000000 0.000000 0.000000 -0.736310 0.000000 0.000000
# 5 0.000000 0.000000 0.000000 0.000000 0.002318 0.000000
# 6 0.000000 0.000000 0.000000 0.000000 0.000000 0.032944
#
#
# Mechanical properties :
#
#
# Convention : Reuss Voigt Hill
#
# Bulk Modulus (GPa) = 12.84224 22.37675 17.60949
# Shear Modulus (GPa) = -8.64769 103.59694 47.47462
#
# Velocity S-wave (km/s) = -2.24417 7.76746 5.25819
# Velocity P-wave (km/s) = 0.87412 9.66832 6.86442
#
# Compressibility (1/GPa) = 0.07786803
#
# Stress axis : x y z
#
# Youngs Moduli (GPa) = 80.05675 17.20760 59.59304
#
# Poissons Ratio (x) = -0.15875 0.21058
# Poissons Ratio (y) = -0.73857 0.62279
# Poissons Ratio (z) = 0.28289 0.17983
#
# Static dielectric constant tensor:
#      x y z
#    x 1.650720 0.000000 0.000000 
#    y 0.000000 1.591770 0.000000 
#    z 0.000000 0.000000 1.592320 
# 
# From -- ./inp_files/10747.got.cif
#   From: 2010.05.17/outbox.cif.g08.bks.cpg/sg61_6_cif.got.tgz:10747.got - 2010.06.03 15:17:17.
