data_PCOD9459482
_publ_section_title
;
Structure prediction by ZEFSAII (Michael W. Deem and Ramdas Pophale) SiO2 
 PCOD9459482
Probable space group: P B C A
;
_chemical_formula_sum "Si O2"
_cell_formula_units_Z 64
_cell_length_a 11.869843
_cell_length_b 18.755659
_cell_length_c 14.904815
_cell_angle_alpha 90.000000
_cell_angle_beta 90.000000
_cell_angle_gamma 90.000000
_cell_volume 3318.210190
_symmetry_space_group_name_H-M "P B C A"
_symmetry_group_IT_number 61
_symmetry_cell_setting 'orthorhombic'
loop_
_space_group_symop_operation_xyz
x,y,z
1/2-x,-y,1/2+z
1/2+x,1/2-y,-z
-x,1/2+y,1/2-z
-x,-y,-z
1/2+x,y,1/2-z
1/2-x,1/2+y,z
x,1/2-y,1/2+z
loop_
_atom_site_type_symbol
_atom_site_label
_atom_site_fract_x
_atom_site_fract_y
_atom_site_fract_z
Si Si1 0.304513 0.852381 0.935323
Si Si2 0.071520 0.194715 0.610510
Si Si3 0.479265 0.895062 0.378492
Si Si4 0.192628 0.023999 0.302741
Si Si5 0.951169 0.161083 0.062766
Si Si6 0.055661 0.545443 0.287913
Si Si7 0.823228 0.771415 0.201921
Si Si8 0.374706 0.131739 0.783643
O O1 0.300576 0.931516 0.894650
O O2 0.179128 0.827824 0.958307
O O3 0.343929 0.800719 0.853392
O O4 0.371789 0.843815 0.026740
O O5 0.144691 0.225880 0.693233
O O6 0.010602 0.263509 0.569985
O O7 0.987766 0.139463 0.658995
O O8 0.496772 0.885964 0.483412
O O9 0.393328 0.834155 0.346054
O O10 0.591534 0.877495 0.320293
O O11 0.445626 0.974426 0.349558
O O12 0.312273 0.044664 0.251795
O O13 0.064483 0.039837 0.265481
O O14 0.191992 0.938757 0.311349
O O15 0.955745 0.117113 0.154715
O O16 0.694307 0.796610 0.199116
#
# Coordination Sequence:
#
# PCOD9459482 Si02
#       8
#     8   8   8   8   8   8   8   8
#     4  11  23  40  60  87 127 156 204 261 313 364
#     4  11  23  37  61  89 119 162 208 248 313 377
#     4  10  20  36  62  85 117 162 205 251 303 371
#     4  10  22  41  63  90 124 166 202 261 308 369
#     4  11  21  38  58  91 122 158 206 258 311 371
#     4  10  21  39  64  89 125 161 208 253 311 368
#     4  11  20  38  61  86 120 160 200 259 305 366
#     4  10  21  39  61  85 119 160 208 245 311 368
#
# _framework density 19.287507000000002
#
# number of rings (size 3 to 8) (size 9 to 14) (size 15 to 20)
#    0.000    1.500    3.750    1.875    0.000    0.500 
#    0.000    2.500    0.000    0.000    0.000    0.000 
#    0.000    0.000    0.000    0.000    0.000    0.000 
#
# Total GULP energy -356435.656958 kJ/mol
# GULP energy per Si atom -5569.307140 kJ/mol
# Density = 1.924361 g / cm^3
# Si number density = 19.287507 Si / 1000 Ang^3
#
#
#
# Elastic Constant Matrix: (Units=GPa)
#
#
# Indices 1 2 3 4 5 6 
#
# 1 92.5361 -1.9951 30.7060 0.0000 0.0000 0.0000
# 2 -1.9951 16.9581 -10.6811 0.0000 0.0000 0.0000
# 3 30.7060 -10.6811 56.0578 0.0000 0.0000 0.0000
# 4 0.0000 0.0000 0.0000 24.7558 0.0000 0.0000
# 5 0.0000 0.0000 0.0000 0.0000 16.8187 0.0000
# 6 0.0000 0.0000 0.0000 0.0000 0.0000 23.1873
#
#
#
# Elastic Compliance Matrix: (Units=1/GPa)
#
#
# Indices 1 2 3 4 5 6 
#
# 1 0.013383 -0.003458 -0.007990 0.000000 0.000000 0.000000
# 2 -0.003458 0.067904 0.014832 0.000000 0.000000 0.000000
# 3 -0.007990 0.014832 0.025041 0.000000 0.000000 0.000000
# 4 0.000000 0.000000 0.000000 0.040395 0.000000 0.000000
# 5 0.000000 0.000000 0.000000 0.000000 0.059458 0.000000
# 6 0.000000 0.000000 0.000000 0.000000 0.000000 0.043127
#
#
# Mechanical properties :
#
#
# Convention : Reuss Voigt Hill
#
# Bulk Modulus (GPa) = 8.84183 22.40129 15.62156
# Shear Modulus (GPa) = 17.84201 22.78717 20.31459
#
# Velocity S-wave (km/s) = 3.04477 3.44095 3.24890
# Velocity P-wave (km/s) = 4.11765 5.23703 4.71070
#
# Compressibility (1/GPa) = 0.11309872
#
# Stress axis : x y z
#
# Youngs Moduli (GPa) = 74.72057 14.72660 39.93424
#
# Poissons Ratio (x) = 0.05092 0.31906
# Poissons Ratio (y) = 0.25836 -0.59232
# Poissons Ratio (z) = 0.59698 -0.21843
#
# Static dielectric constant tensor:
#      x y z
#    x 1.759680 0.000000 0.000000 
#    y 0.000000 1.646350 0.000000 
#    z 0.000000 0.000000 1.664860 
# 
# From -- ./inp_files/6290.got.cif
#   From: 2010.05.17/outbox.cif.g08.bks.cpg/sg61_4_cif.got.tgz:6290.got - 2010.06.03 15:17:17.
