data_PCOD9459071
_publ_section_title
;
Structure prediction by ZEFSAII (Michael W. Deem and Ramdas Pophale) SiO2 
 PCOD9459071
Probable space group: P B C A
;
_chemical_formula_sum "Si O2"
_cell_formula_units_Z 56
_cell_length_a 16.758566
_cell_length_b 17.858662
_cell_length_c 8.581474
_cell_angle_alpha 90.000000
_cell_angle_beta 90.000000
_cell_angle_gamma 90.000000
_cell_volume 2568.311301
_symmetry_space_group_name_H-M "P B C A"
_symmetry_group_IT_number 61
_symmetry_cell_setting 'orthorhombic'
loop_
_space_group_symop_operation_xyz
x,y,z
1/2-x,-y,1/2+z
1/2+x,1/2-y,-z
-x,1/2+y,1/2-z
-x,-y,-z
1/2+x,y,1/2-z
1/2-x,1/2+y,z
x,1/2-y,1/2+z
loop_
_atom_site_type_symbol
_atom_site_label
_atom_site_fract_x
_atom_site_fract_y
_atom_site_fract_z
Si Si1 0.995358 0.579943 0.312073
Si Si2 0.130666 0.502855 0.181991
Si Si3 0.414318 0.423459 0.144709
Si Si4 0.632694 0.227911 0.071553
Si Si5 0.167716 0.349734 0.653200
Si Si6 0.224798 0.994919 0.000108
Si Si7 0.044183 0.155300 0.700961
O O1 0.065848 0.569480 0.186753
O O2 0.040611 0.581912 0.477661
O O3 0.943024 0.504546 0.294361
O O4 0.928725 0.643007 0.323055
O O5 0.181055 0.493275 0.025917
O O6 0.192426 0.513131 0.325453
O O7 0.085369 0.425887 0.219264
O O8 0.321380 0.432716 0.104654
O O9 0.452127 0.359784 0.253542
O O10 0.689259 0.172693 0.171002
O O11 0.586996 0.288144 0.179885
O O12 0.683992 0.278648 0.954527
O O13 0.567501 0.183524 0.969805
O O14 0.198538 0.423834 0.569243
#
# Coordination Sequence:
#
# PCOD9459071 Si02
#       7
#     8   8   8   8   8   8   8
#     4   8  14  30  53  73  97 126 162 208 253 294
#     4  10  20  34  54  77 106 137 170 216 262 306
#     4   8  14  30  53  73  97 126 162 208 253 294
#     4  10  20  30  56  76 104 132 172 216 250 312
#     4  10  18  35  53  81  97 134 174 214 259 306
#     4  10  20  34  54  77 106 137 170 216 262 306
#     4  10  18  35  53  81  97 134 174 214 259 306
#
# _framework density 21.804210999999999
#
# number of rings (size 3 to 8) (size 9 to 14) (size 15 to 20)
#    0.000    2.571    2.857    1.714    2.000    0.000 
#    2.571    2.143    0.000   10.286    0.000    0.000 
#    0.000    0.000    0.000    0.000    0.000    0.000 
#
# Total GULP energy -312102.602413 kJ/mol
# GULP energy per Si atom -5573.260757 kJ/mol
# Density = 2.175458 g / cm^3
# Si number density = 21.804211 Si / 1000 Ang^3
#
#
#
# Elastic Constant Matrix: (Units=GPa)
#
#
# Indices 1 2 3 4 5 6 
#
# 1 40.9431 -7.8334 -5.4709 0.0000 0.0000 0.0000
# 2 -7.8334 27.4746 2.3236 0.0000 0.0000 0.0000
# 3 -5.4709 2.3236 50.1058 0.0000 0.0000 0.0000
# 4 0.0000 0.0000 0.0000 22.5622 0.0000 0.0000
# 5 0.0000 0.0000 0.0000 0.0000 27.9259 0.0000
# 6 0.0000 0.0000 0.0000 0.0000 0.0000 12.6525
#
#
#
# Elastic Compliance Matrix: (Units=1/GPa)
#
#
# Indices 1 2 3 4 5 6 
#
# 1 0.026146 0.007242 0.002519 0.000000 0.000000 0.000000
# 2 0.007242 0.038546 -0.000997 0.000000 0.000000 0.000000
# 3 0.002519 -0.000997 0.020279 0.000000 0.000000 0.000000
# 4 0.000000 0.000000 0.000000 0.044322 0.000000 0.000000
# 5 0.000000 0.000000 0.000000 0.000000 0.035809 0.000000
# 6 0.000000 0.000000 0.000000 0.000000 0.000000 0.079036
#
#
# Mechanical properties :
#
#
# Convention : Reuss Voigt Hill
#
# Bulk Modulus (GPa) = 9.75620 10.72914 10.24267
# Shear Modulus (GPa) = 19.17343 21.26171 20.21757
#
# Velocity S-wave (km/s) = 2.96859 3.12608 3.04835
# Velocity P-wave (km/s) = 4.02917 4.23806 4.13494
#
# Compressibility (1/GPa) = 0.10249895
#
# Stress axis : x y z
#
# Youngs Moduli (GPa) = 38.24645 25.94285 49.31202
#
# Poissons Ratio (x) = -0.18787 -0.12422
# Poissons Ratio (y) = -0.27697 0.04916
# Poissons Ratio (z) = -0.09634 0.02586
#
# Static dielectric constant tensor:
#      x y z
#    x 1.814620 0.000000 0.000000 
#    y 0.000000 1.822560 0.000000 
#    z 0.000000 0.000000 1.879080 
# 
# From -- ./inp_files/3666.got.cif
#   From: 2010.05.17/outbox.cif.g08.bks.cpg/sg61_2_cif.got.tgz:3666.got - 2010.06.03 15:17:17.
