data_PCOD9459327
_publ_section_title
;
Structure prediction by ZEFSAII (Michael W. Deem and Ramdas Pophale) SiO2 
 PCOD9459327
Probable space group: P B C A
;
_chemical_formula_sum "Si O2"
_cell_formula_units_Z 56
_cell_length_a 8.537678
_cell_length_b 16.260754
_cell_length_c 19.392664
_cell_angle_alpha 90.000000
_cell_angle_beta 90.000000
_cell_angle_gamma 90.000000
_cell_volume 2692.265735
_symmetry_space_group_name_H-M "P B C A"
_symmetry_group_IT_number 61
_symmetry_cell_setting 'orthorhombic'
loop_
_space_group_symop_operation_xyz
x,y,z
1/2-x,-y,1/2+z
1/2+x,1/2-y,-z
-x,1/2+y,1/2-z
-x,-y,-z
1/2+x,y,1/2-z
1/2-x,1/2+y,z
x,1/2-y,1/2+z
loop_
_atom_site_type_symbol
_atom_site_label
_atom_site_fract_x
_atom_site_fract_y
_atom_site_fract_z
Si Si1 0.302636 0.464546 0.339934
Si Si2 0.712123 0.988627 0.434402
Si Si3 0.892748 0.417083 0.581819
Si Si4 0.767514 0.670634 0.849274
Si Si5 0.984172 0.879565 0.236005
Si Si6 0.347111 0.126638 0.983052
Si Si7 0.420924 0.768512 0.536416
O O1 0.237506 0.553296 0.363966
O O2 0.151254 0.416379 0.311121
O O3 0.426477 0.451927 0.278500
O O4 0.359315 0.418627 0.409534
O O5 0.666635 0.944011 0.506033
O O6 0.772071 0.920499 0.382474
O O7 0.553848 0.031554 0.406740
O O8 0.833736 0.058977 0.456734
O O9 0.948017 0.323562 0.574765
O O10 0.604939 0.671756 0.809348
O O11 0.905301 0.676626 0.794089
O O12 0.794457 0.735628 0.908961
O O13 0.488398 0.189957 0.992904
O O14 0.179026 0.174144 0.985379
#
# Coordination Sequence:
#
# PCOD9459327 Si02
#       7
#     8   8   8   8   8   8   8
#     4  10  19  40  60  83 112 154 207 229 287 349
#     4   9  18  35  62  84 111 150 192 235 288 344
#     4   9  18  35  59  87 115 146 184 244 296 337
#     4  11  21  39  60  85 115 152 202 234 293 346
#     4  10  22  36  63  80 112 161 199 240 268 358
#     4  10  22  37  60  90 119 150 190 246 298 346
#     4  11  22  36  58  91 122 148 185 246 309 339
#
# _framework density 20.800324
#
# number of rings (size 3 to 8) (size 9 to 14) (size 15 to 20)
#    0.000    2.000    2.857    1.714    2.000    0.571 
#    2.571    1.429    0.000    0.000    0.000    0.000 
#    0.000    0.000    0.000    0.000    0.000    0.000 
#
# Total GULP energy -312713.321458 kJ/mol
# GULP energy per Si atom -5584.166455 kJ/mol
# Density = 2.075298 g / cm^3
# Si number density = 20.800324 Si / 1000 Ang^3
#
#
#
# Elastic Constant Matrix: (Units=GPa)
#
#
# Indices 1 2 3 4 5 6 
#
# 1 54.8601 2.2693 3.6685 0.0000 0.0000 0.0000
# 2 2.2693 54.9041 4.6684 0.0000 0.0000 0.0000
# 3 3.6685 4.6684 26.3139 0.0000 0.0000 0.0000
# 4 0.0000 0.0000 0.0000 11.1824 0.0000 0.0000
# 5 0.0000 0.0000 0.0000 0.0000 20.0262 0.0000
# 6 0.0000 0.0000 0.0000 0.0000 0.0000 37.8025
#
#
#
# Elastic Compliance Matrix: (Units=1/GPa)
#
#
# Indices 1 2 3 4 5 6 
#
# 1 0.018416 -0.000551 -0.002470 0.000000 0.000000 0.000000
# 2 -0.000551 0.018509 -0.003207 0.000000 0.000000 0.000000
# 3 -0.002470 -0.003207 0.038916 0.000000 0.000000 0.000000
# 4 0.000000 0.000000 0.000000 0.089427 0.000000 0.000000
# 5 0.000000 0.000000 0.000000 0.000000 0.049935 0.000000
# 6 0.000000 0.000000 0.000000 0.000000 0.000000 0.026453
#
#
# Mechanical properties :
#
#
# Convention : Reuss Voigt Hill
#
# Bulk Modulus (GPa) = 15.77643 17.47672 16.62657
# Shear Modulus (GPa) = 18.16598 22.16699 20.16649
#
# Velocity S-wave (km/s) = 2.95846 3.26805 3.11710
# Velocity P-wave (km/s) = 4.38989 4.76032 4.57885
#
# Compressibility (1/GPa) = 0.06338571
#
# Stress axis : x y z
#
# Youngs Moduli (GPa) = 54.30019 54.02767 25.69635
#
# Poissons Ratio (x) = 0.02978 0.06346
# Poissons Ratio (y) = 0.02993 0.08241
# Poissons Ratio (z) = 0.13410 0.17326
#
# Static dielectric constant tensor:
#      x y z
#    x 1.791390 0.000000 0.000000 
#    y 0.000000 1.748320 0.000000 
#    z 0.000000 0.000000 1.749050 
# 
# From -- ./inp_files/10124.got.cif
#   From: 2010.05.17/outbox.cif.g08.bks.cpg/sg61_6_cif.got.tgz:10124.got - 2010.06.03 15:17:17.
