data_PCOD9459911
_publ_section_title
;
Structure prediction by ZEFSAII (Michael W. Deem and Ramdas Pophale) SiO2 
 PCOD9459911
Probable space group: P B C A
;
_chemical_formula_sum "Si O2"
_cell_formula_units_Z 56
_cell_length_a 35.148906
_cell_length_b 5.235044
_cell_length_c 13.576431
_cell_angle_alpha 90.000000
_cell_angle_beta 90.000000
_cell_angle_gamma 90.000000
_cell_volume 2498.145706
_symmetry_space_group_name_H-M "P B C A"
_symmetry_group_IT_number 61
_symmetry_cell_setting 'orthorhombic'
loop_
_space_group_symop_operation_xyz
x,y,z
1/2-x,-y,1/2+z
1/2+x,1/2-y,-z
-x,1/2+y,1/2-z
-x,-y,-z
1/2+x,y,1/2-z
1/2-x,1/2+y,z
x,1/2-y,1/2+z
loop_
_atom_site_type_symbol
_atom_site_label
_atom_site_fract_x
_atom_site_fract_y
_atom_site_fract_z
Si Si1 0.729324 0.626938 0.832891
Si Si2 0.657318 0.233636 0.075123
Si Si3 0.845176 0.241348 0.946425
Si Si4 0.501703 0.230976 0.184256
Si Si5 0.420748 0.373226 0.668939
Si Si6 0.917365 0.627080 0.200249
Si Si7 0.238672 0.348131 0.383862
O O1 0.741225 0.345599 0.865513
O O2 0.686981 0.700639 0.863634
O O3 0.735824 0.626852 0.714282
O O4 0.620171 0.178455 0.138435
O O5 0.694472 0.309208 0.137829
O O6 0.650857 0.474590 0.003870
O O7 0.666898 0.975523 0.016176
O O8 0.885753 0.321622 0.902261
O O9 0.500692 0.518889 0.227188
O O10 0.462978 0.176897 0.125294
O O11 0.543321 0.176004 0.140746
O O12 0.418502 0.658142 0.713468
O O13 0.417327 0.157971 0.755125
O O14 0.244012 0.610290 0.440082
#
# Coordination Sequence:
#
# PCOD9459911 Si02
#       7
#     8   8   8   8   8   8   8
#     4  10  23  40  63  85 114 156 210 241 295 361
#     4  12  26  41  61  94 128 154 197 255 313 358
#     4  12  26  41  61  94 128 154 197 255 313 358
#     4   8  16  34  58  94 116 154 210 250 276 340
#     4  10  21  38  67  89 123 164 207 245 292 356
#     4  10  21  38  67  89 123 164 207 245 292 356
#     4  10  23  40  63  85 114 156 210 241 295 361
#
# _framework density 22.416627999999999
#
# number of rings (size 3 to 8) (size 9 to 14) (size 15 to 20)
#    0.000    1.714    0.000    3.429    8.000    3.429 
#    0.000    1.429    0.000    0.000    0.000    0.000 
#    0.000    0.000    0.000    0.000    0.000    0.000 
#
# Total GULP energy -312923.195610 kJ/mol
# GULP energy per Si atom -5587.914207 kJ/mol
# Density = 2.236561 g / cm^3
# Si number density = 22.416628 Si / 1000 Ang^3
#
#
#
# Elastic Constant Matrix: (Units=GPa)
#
#
# Indices 1 2 3 4 5 6 
#
# 1 136.2691 -2.2142 12.4508 0.0000 0.0000 0.0000
# 2 -2.2142 132.3223 8.6058 0.0000 0.0000 0.0000
# 3 12.4508 8.6058 37.7882 0.0000 0.0000 0.0000
# 4 0.0000 0.0000 0.0000 22.7860 0.0000 0.0000
# 5 0.0000 0.0000 0.0000 0.0000 0.5966 0.0000
# 6 0.0000 0.0000 0.0000 0.0000 0.0000 34.1388
#
#
#
# Elastic Compliance Matrix: (Units=1/GPa)
#
#
# Indices 1 2 3 4 5 6 
#
# 1 0.007577 0.000294 -0.002564 0.000000 0.000000 0.000000
# 2 0.000294 0.007682 -0.001846 0.000000 0.000000 0.000000
# 3 -0.002564 -0.001846 0.027728 0.000000 0.000000 0.000000
# 4 0.000000 0.000000 0.000000 0.043887 0.000000 0.000000
# 5 0.000000 0.000000 0.000000 0.000000 1.676034 0.000000
# 6 0.000000 0.000000 0.000000 0.000000 0.000000 0.029292
#
#
# Mechanical properties :
#
#
# Convention : Reuss Voigt Hill
#
# Bulk Modulus (GPa) = 28.77237 38.22938 33.50088
# Shear Modulus (GPa) = 2.75935 30.67345 16.71640
#
# Velocity S-wave (km/s) = 1.11068 3.70311 2.73374
# Velocity P-wave (km/s) = 3.80893 5.94770 4.99415
#
# Compressibility (1/GPa) = 0.03475557
#
# Stress axis : x y z
#
# Youngs Moduli (GPa) = 131.97106 130.16948 36.06411
#
# Poissons Ratio (x) = -0.03821 0.09245
# Poissons Ratio (y) = -0.03874 0.06658
# Poissons Ratio (z) = 0.33831 0.24033
#
# Static dielectric constant tensor:
#      x y z
#    x 1.840340 0.000000 0.000000 
#    y 0.000000 1.898670 0.000000 
#    z 0.000000 0.000000 1.827020 
# 
# From -- ./inp_files/603.got.cif
#   From: 2010.05.17/outbox.cif.g08.bks.cpg/sg61_1_cif.got.tgz:603.got - 2010.06.03 15:17:17.
