data_PCOD9459126
_publ_section_title
;
Structure prediction by ZEFSAII (Michael W. Deem and Ramdas Pophale) SiO2 
 PCOD9459126
Probable space group: P B C A
;
_chemical_formula_sum "Si O2"
_cell_formula_units_Z 48
_cell_length_a 14.214171
_cell_length_b 12.192477
_cell_length_c 13.420567
_cell_angle_alpha 90.000000
_cell_angle_beta 90.000000
_cell_angle_gamma 90.000000
_cell_volume 2325.864154
_symmetry_space_group_name_H-M "P B C A"
_symmetry_group_IT_number 61
_symmetry_cell_setting 'orthorhombic'
loop_
_space_group_symop_operation_xyz
x,y,z
1/2-x,-y,1/2+z
1/2+x,1/2-y,-z
-x,1/2+y,1/2-z
-x,-y,-z
1/2+x,y,1/2-z
1/2-x,1/2+y,z
x,1/2-y,1/2+z
loop_
_atom_site_type_symbol
_atom_site_label
_atom_site_fract_x
_atom_site_fract_y
_atom_site_fract_z
Si Si1 0.776133 0.694638 0.672535
Si Si2 0.905079 0.113073 0.744305
Si Si3 0.121150 0.369313 0.707637
Si Si4 0.607830 0.229782 0.983014
Si Si5 0.452814 0.319092 0.637547
Si Si6 0.615050 0.447032 0.327245
O O1 0.667950 0.661893 0.664979
O O2 0.794101 0.799115 0.744800
O O3 0.824462 0.726223 0.569467
O O4 0.828414 0.594738 0.730431
O O5 0.909713 0.203208 0.831308
O O6 0.007122 0.089017 0.697634
O O7 0.866509 0.998539 0.786237
O O8 0.098031 0.324510 0.598842
O O9 0.032722 0.340538 0.778324
O O10 0.510730 0.193467 0.035574
O O11 0.646167 0.125339 0.921791
O O12 0.386421 0.425113 0.645199
#
# Coordination Sequence:
#
# PCOD9459126 Si02
#       6
#     8   8   8   8   8   8
#     4  10  22  40  62  88 130 169 211 265 315 380
#     4  11  21  40  63  91 124 175 204 252 340 375
#     4   9  21  40  60  90 132 157 213 267 308 384
#     4  10  18  42  63  91 121 166 212 270 302 372
#     4  10  20  38  66  88 124 170 203 262 329 376
#     4  10  21  42  61  90 130 163 210 271 315 380
#
# _framework density 20.63749
#
# number of rings (size 3 to 8) (size 9 to 14) (size 15 to 20)
#    0.000    2.000    5.000    0.500    2.333    0.667 
#    6.000   10.000    0.000    0.000    0.000    0.000 
#    0.000    0.000    0.000    0.000    0.000    0.000 
#
# Total GULP energy -267959.145368 kJ/mol
# GULP energy per Si atom -5582.482195 kJ/mol
# Density = 2.059052 g / cm^3
# Si number density = 20.637490 Si / 1000 Ang^3
#
#
#
# Elastic Constant Matrix: (Units=GPa)
#
#
# Indices 1 2 3 4 5 6 
#
# 1 51.2628 2.0672 6.6247 0.0000 0.0000 0.0000
# 2 2.0672 144.7460 28.1812 0.0000 0.0000 0.0000
# 3 6.6247 28.1812 113.4679 0.0000 0.0000 0.0000
# 4 0.0000 0.0000 0.0000 16.1227 0.0000 0.0000
# 5 0.0000 0.0000 0.0000 0.0000 2.0987 0.0000
# 6 0.0000 0.0000 0.0000 0.0000 0.0000 13.8233
#
#
#
# Elastic Compliance Matrix: (Units=1/GPa)
#
#
# Indices 1 2 3 4 5 6 
#
# 1 0.019656 -0.000060 -0.001133 0.000000 0.000000 0.000000
# 2 -0.000060 0.007260 -0.001800 0.000000 0.000000 0.000000
# 3 -0.001133 -0.001800 0.009326 0.000000 0.000000 0.000000
# 4 0.000000 0.000000 0.000000 0.062024 0.000000 0.000000
# 5 0.000000 0.000000 0.000000 0.000000 0.476480 0.000000
# 6 0.000000 0.000000 0.000000 0.000000 0.000000 0.072342
#
#
# Mechanical properties :
#
#
# Convention : Reuss Voigt Hill
#
# Bulk Modulus (GPa) = 33.04985 42.58031 37.81508
# Shear Modulus (GPa) = 7.53967 24.58253 16.06110
#
# Velocity S-wave (km/s) = 1.91346 3.45506 2.79274
# Velocity P-wave (km/s) = 4.57504 6.04929 5.36306
#
# Compressibility (1/GPa) = 0.03025733
#
# Stress axis : x y z
#
# Youngs Moduli (GPa) = 50.87470 137.74337 107.22554
#
# Poissons Ratio (x) = 0.00829 0.12145
# Poissons Ratio (y) = 0.00306 0.19296
# Poissons Ratio (z) = 0.05762 0.24788
#
# Static dielectric constant tensor:
#      x y z
#    x 1.784480 0.000000 0.000000 
#    y 0.000000 1.754820 0.000000 
#    z 0.000000 0.000000 1.707470 
# 
# From -- ./inp_files/7479.got.cif
#   From: 2010.05.17/outbox.cif.g08.bks.cpg/sg61_4_cif.got.tgz:7479.got - 2010.06.03 15:17:17.
