data_PCOD9459543
_publ_section_title
;
Structure prediction by ZEFSAII (Michael W. Deem and Ramdas Pophale) SiO2 
 PCOD9459543
Probable space group: P B C A
;
_chemical_formula_sum "Si O2"
_cell_formula_units_Z 48
_cell_length_a 6.842554
_cell_length_b 10.191950
_cell_length_c 24.232629
_cell_angle_alpha 90.000000
_cell_angle_beta 90.000000
_cell_angle_gamma 90.000000
_cell_volume 1689.958544
_symmetry_space_group_name_H-M "P B C A"
_symmetry_group_IT_number 61
_symmetry_cell_setting 'orthorhombic'
loop_
_space_group_symop_operation_xyz
x,y,z
1/2-x,-y,1/2+z
1/2+x,1/2-y,-z
-x,1/2+y,1/2-z
-x,-y,-z
1/2+x,y,1/2-z
1/2-x,1/2+y,z
x,1/2-y,1/2+z
loop_
_atom_site_type_symbol
_atom_site_label
_atom_site_fract_x
_atom_site_fract_y
_atom_site_fract_z
Si Si1 0.590655 0.668978 0.627383
Si Si2 0.730979 0.332125 0.856743
Si Si3 0.348522 0.485305 0.817491
Si Si4 0.283067 0.083155 0.032897
Si Si5 0.669396 0.653015 0.034733
Si Si6 0.233889 0.766225 0.260075
O O1 0.369833 0.706122 0.611517
O O2 0.571275 0.701850 0.692749
O O3 0.728909 0.544186 0.630542
O O4 0.712999 0.777528 0.593404
O O5 0.853075 0.408185 0.903434
O O6 0.822880 0.269999 0.802030
O O7 0.560514 0.433364 0.836193
O O8 0.217451 0.377305 0.785863
O O9 0.363016 0.606338 0.774621
O O10 0.046329 0.091181 0.039752
O O11 0.345405 0.216942 0.003110
O O12 0.306990 0.955283 0.994008
#
# Coordination Sequence:
#
# PCOD9459543 Si02
#       6
#     8   8   8   8   8   8
#     4   8  20  36  57  84 112 156 200 251 308 376
#     4  10  20  38  57  87 122 156 203 255 317 373
#     4   9  20  34  56  85 112 156 196 251 307 375
#     4  10  24  41  64  92 126 168 209 270 311 380
#     4  10  22  40  67  89 125 164 216 259 320 371
#     4   9  20  33  57  82 115 149 194 247 305 372
#
# _framework density 28.403063
#
# number of rings (size 3 to 8) (size 9 to 14) (size 15 to 20)
#    1.000    1.667    0.000    0.000   11.667    2.000 
#    0.000    3.333    7.333    0.000    0.000    0.000 
#    0.000    0.000    0.000    0.000    0.000    0.000 
#
# Total GULP energy -267264.928585 kJ/mol
# GULP energy per Si atom -5568.019346 kJ/mol
# Density = 2.833842 g / cm^3
# Si number density = 28.403063 Si / 1000 Ang^3
#
#
#
# Elastic Constant Matrix: (Units=GPa)
#
#
# Indices 1 2 3 4 5 6 
#
# 1 70.3878 19.2686 13.3544 0.0000 0.0000 0.0000
# 2 19.2686 139.0991 39.4335 0.0000 0.0000 0.0000
# 3 13.3544 39.4335 167.7536 0.0000 0.0000 0.0000
# 4 0.0000 0.0000 0.0000 43.8987 0.0000 0.0000
# 5 0.0000 0.0000 0.0000 0.0000 17.6083 0.0000
# 6 0.0000 0.0000 0.0000 0.0000 0.0000 34.9675
#
#
#
# Elastic Compliance Matrix: (Units=1/GPa)
#
#
# Indices 1 2 3 4 5 6 
#
# 1 0.014854 -0.001845 -0.000749 0.000000 0.000000 0.000000
# 2 -0.001845 0.007932 -0.001718 0.000000 0.000000 0.000000
# 3 -0.000749 -0.001718 0.006424 0.000000 0.000000 0.000000
# 4 0.000000 0.000000 0.000000 0.022780 0.000000 0.000000
# 5 0.000000 0.000000 0.000000 0.000000 0.056791 0.000000
# 6 0.000000 0.000000 0.000000 0.000000 0.000000 0.028598
#
#
# Mechanical properties :
#
#
# Convention : Reuss Voigt Hill
#
# Bulk Modulus (GPa) = 48.57435 57.92815 53.25125
# Shear Modulus (GPa) = 32.70856 39.64049 36.17453
#
# Velocity S-wave (km/s) = 3.39718 3.73988 3.57264
# Velocity P-wave (km/s) = 5.70322 6.25206 5.98394
#
# Compressibility (1/GPa) = 0.02058700
#
# Stress axis : x y z
#
# Youngs Moduli (GPa) = 67.32081 126.07679 155.65480
#
# Poissons Ratio (x) = 0.23266 0.11654
# Poissons Ratio (y) = 0.12424 0.26735
# Poissons Ratio (z) = 0.05040 0.21655
#
# Static dielectric constant tensor:
#      x y z
#    x 2.575430 0.000000 0.000000 
#    y 0.000000 2.348280 0.000000 
#    z 0.000000 0.000000 2.328330 
# 
# From -- ./inp_files/10973.got.cif
#   From: 2010.05.17/outbox.cif.g08.bks.cpg/sg61_6_cif.got.tgz:10973.got - 2010.06.03 15:17:17.
