data_PCOD9459775
_publ_section_title
;
Structure prediction by ZEFSAII (Michael W. Deem and Ramdas Pophale) SiO2 
 PCOD9459775
Probable space group: P B C A
;
_chemical_formula_sum "Si O2"
_cell_formula_units_Z 60
_cell_length_a 20.700000
_cell_length_b 13.265829
_cell_length_c 9.542093
_cell_angle_alpha 90.000000
_cell_angle_beta 90.000000
_cell_angle_gamma 90.000000
_cell_volume 2620.284123
_symmetry_space_group_name_H-M "P B C A"
_symmetry_group_IT_number 61
_symmetry_cell_setting 'orthorhombic'
loop_
_space_group_symop_operation_xyz
x,y,z
1/2-x,-y,1/2+z
1/2+x,1/2-y,-z
-x,1/2+y,1/2-z
-x,-y,-z
1/2+x,y,1/2-z
1/2-x,1/2+y,z
x,1/2-y,1/2+z
loop_
_atom_site_type_symbol
_atom_site_label
_atom_site_fract_x
_atom_site_fract_y
_atom_site_fract_z
Si Si1 0.368620 0.138188 0.064977
Si Si2 0.143197 0.296290 0.352903
Si Si3 0.762314 0.348091 0.714235
Si Si4 0.088024 0.342625 0.647182
Si Si5 0.082213 0.004814 0.800505
Si Si6 0.167276 0.523950 0.783446
Si Si7 0.630166 0.856412 0.478395
Si Si8 0.500000 0.500000 0.000000
O O1 0.298102 0.156297 0.136487
O O2 0.407954 0.070083 0.174826
O O3 0.400385 0.247840 0.047870
O O4 0.357387 0.078318 0.922226
O O5 0.208184 0.236748 0.312093
O O6 0.132157 0.298931 0.519594
O O7 0.085931 0.240801 0.267576
O O8 0.137244 0.411467 0.302092
O O9 0.732222 0.459550 0.693132
O O10 0.818865 0.337026 0.601540
O O11 0.121989 0.435347 0.725906
O O12 0.027850 0.390326 0.570564
O O13 0.086064 0.948679 0.958225
O O14 0.012205 0.046305 0.833070
O O15 0.167009 0.604230 0.658020
#
# Coordination Sequence:
#
# PCOD9459775 Si02
#       8
#     8   8   8   8   8   8   8   4
#     4  11  25  39  59  99 133 183 228 272 334 424
#     4  10  22  42  66 102 132 175 227 290 340 404
#     4  10  24  36  62  93 134 182 227 271 337 411
#     4  10  23  42  74  96 137 172 225 297 341 420
#     4  10  23  45  69  91 137 173 228 285 347 409
#     4  11  21  41  62  93 137 176 222 282 339 396
#     4  11  22  41  57  90 135 184 224 276 331 413
#     4  10  20  50  72  96 128 176 224 286 364 396
#
# _framework density 22.898281000000001
#
# number of rings (size 3 to 8) (size 9 to 14) (size 15 to 20)
#    0.000    1.600    2.667    2.400    7.467    4.267 
#    4.800    0.667    0.000    0.000    0.000    0.000 
#    0.000    0.000    0.000    0.000    0.000    0.000 
#
# Total GULP energy -334288.102070 kJ/mol
# GULP energy per Si atom -5571.468368 kJ/mol
# Density = 2.284616 g / cm^3
# Si number density = 22.898281 Si / 1000 Ang^3
#
#
#
# Elastic Constant Matrix: (Units=GPa)
#
#
# Indices 1 2 3 4 5 6 
#
# 1 60.2762 23.7206 18.6058 0.0000 0.0000 0.0000
# 2 23.7206 136.6477 65.5518 0.0000 0.0000 0.0000
# 3 18.6058 65.5518 143.2521 0.0000 0.0000 0.0000
# 4 0.0000 0.0000 0.0000 50.9123 0.0000 0.0000
# 5 0.0000 0.0000 0.0000 0.0000 17.4996 0.0000
# 6 0.0000 0.0000 0.0000 0.0000 0.0000 35.9022
#
#
#
# Elastic Compliance Matrix: (Units=1/GPa)
#
#
# Indices 1 2 3 4 5 6 
#
# 1 0.017956 -0.002560 -0.001161 0.000000 0.000000 0.000000
# 2 -0.002560 0.009741 -0.004125 0.000000 0.000000 0.000000
# 3 -0.001161 -0.004125 0.009019 0.000000 0.000000 0.000000
# 4 0.000000 0.000000 0.000000 0.019642 0.000000 0.000000
# 5 0.000000 0.000000 0.000000 0.000000 0.057144 0.000000
# 6 0.000000 0.000000 0.000000 0.000000 0.000000 0.027853
#
#
# Mechanical properties :
#
#
# Convention : Reuss Voigt Hill
#
# Bulk Modulus (GPa) = 47.56319 61.77027 54.66673
# Shear Modulus (GPa) = 30.47742 36.34935 33.41339
#
# Velocity S-wave (km/s) = 3.65223 3.98858 3.82410
# Velocity P-wave (km/s) = 6.21303 6.94594 6.58968
#
# Compressibility (1/GPa) = 0.02102466
#
# Stress axis : x y z
#
# Youngs Moduli (GPa) = 55.69142 102.65474 110.87600
#
# Poissons Ratio (x) = 0.26282 0.12868
# Poissons Ratio (y) = 0.14258 0.45738
# Poissons Ratio (z) = 0.06464 0.42346
#
# Static dielectric constant tensor:
#      x y z
#    x 2.110380 0.000000 0.000000 
#    y 0.000000 1.927370 0.000000 
#    z 0.000000 0.000000 1.843280 
# 
# From -- ./inp_files/4310.got.cif
#   From: 2010.05.17/outbox.cif.g08.bks.cpg/sg61_3_cif.got.tgz:4310.got - 2010.06.03 15:17:17.
