data_PCOD9459981
_publ_section_title
;
Structure prediction by ZEFSAII (Michael W. Deem and Ramdas Pophale) SiO2 
 PCOD9459981
Probable space group: P B C A
;
_chemical_formula_sum "Si O2"
_cell_formula_units_Z 64
_cell_length_a 8.332232
_cell_length_b 23.671051
_cell_length_c 12.480140
_cell_angle_alpha 90.000000
_cell_angle_beta 90.000000
_cell_angle_gamma 90.000000
_cell_volume 2461.491567
_symmetry_space_group_name_H-M "P B C A"
_symmetry_group_IT_number 61
_symmetry_cell_setting 'orthorhombic'
loop_
_space_group_symop_operation_xyz
x,y,z
1/2-x,-y,1/2+z
1/2+x,1/2-y,-z
-x,1/2+y,1/2-z
-x,-y,-z
1/2+x,y,1/2-z
1/2-x,1/2+y,z
x,1/2-y,1/2+z
loop_
_atom_site_type_symbol
_atom_site_label
_atom_site_fract_x
_atom_site_fract_y
_atom_site_fract_z
Si Si1 0.756863 0.963311 0.050825
Si Si2 0.939716 0.293742 0.327178
Si Si3 0.069388 0.305447 0.105663
Si Si4 0.088316 0.545274 0.158226
Si Si5 0.573888 0.835336 0.882621
Si Si6 0.940379 0.821670 0.954193
Si Si7 0.341148 0.033437 0.732345
Si Si8 0.891422 0.076296 0.001726
O O1 0.923555 0.943839 0.999606
O O2 0.745251 0.937207 0.167930
O O3 0.612145 0.952969 0.970309
O O4 0.780863 0.031111 0.061225
O O5 0.758721 0.304627 0.368169
O O6 0.959969 0.225135 0.327256
O O7 0.976832 0.321678 0.213547
O O8 0.063153 0.316658 0.416238
O O9 0.018557 0.240631 0.084513
O O10 0.021367 0.336169 0.996017
O O11 0.035673 0.608550 0.185141
O O12 0.262777 0.525988 0.197029
O O13 0.995421 0.491701 0.206449
O O14 0.765277 0.837023 0.909474
O O15 0.088539 0.864528 0.939281
O O16 0.348375 0.070374 0.624773
#
# Coordination Sequence:
#
# PCOD9459981 Si02
#       8
#     8   8   8   8   8   8   8   8
#     4  10  21  40  61  88 130 163 209 261 309 368
#     4  10  22  40  62  93 122 159 203 257 313 370
#     4  10  22  41  63  90 128 158 207 260 312 379
#     4  11  23  39  64  93 125 168 206 257 320 369
#     4  10  22  39  62  91 123 162 205 255 310 377
#     4  10  21  41  66  88 123 167 206 254 316 372
#     4  11  23  40  61  95 126 163 215 262 305 378
#     4  10  21  40  65  89 126 169 208 261 321 364
#
# _framework density 26.000495000000001
#
# number of rings (size 3 to 8) (size 9 to 14) (size 15 to 20)
#    0.000    1.750    2.500    1.125    0.000    6.000 
#    2.250    0.000    0.000    0.000    0.000    0.000 
#    0.000    0.000    0.000    0.000    0.000    0.000 
#
# Total GULP energy -357688.772967 kJ/mol
# GULP energy per Si atom -5588.887078 kJ/mol
# Density = 2.594132 g / cm^3
# Si number density = 26.000495 Si / 1000 Ang^3
#
#
#
# Elastic Constant Matrix: (Units=GPa)
#
#
# Indices 1 2 3 4 5 6 
#
# 1 29.3797 5.4657 9.3983 0.0000 0.0000 0.0000
# 2 5.4657 92.3309 -10.3318 0.0000 0.0000 0.0000
# 3 9.3983 -10.3318 129.0967 0.0000 0.0000 0.0000
# 4 0.0000 0.0000 0.0000 12.8598 0.0000 0.0000
# 5 0.0000 0.0000 0.0000 0.0000 21.7103 0.0000
# 6 0.0000 0.0000 0.0000 0.0000 0.0000 30.9360
#
#
#
# Elastic Compliance Matrix: (Units=1/GPa)
#
#
# Indices 1 2 3 4 5 6 
#
# 1 0.035370 -0.002403 -0.002767 0.000000 0.000000 0.000000
# 2 -0.002403 0.011092 0.001063 0.000000 0.000000 0.000000
# 3 -0.002767 0.001063 0.008033 0.000000 0.000000 0.000000
# 4 0.000000 0.000000 0.000000 0.077762 0.000000 0.000000
# 5 0.000000 0.000000 0.000000 0.000000 0.046061 0.000000
# 6 0.000000 0.000000 0.000000 0.000000 0.000000 0.032325
#
#
# Mechanical properties :
#
#
# Convention : Reuss Voigt Hill
#
# Bulk Modulus (GPa) = 21.60859 28.87463 25.24161
# Shear Modulus (GPa) = 21.34166 29.51956 25.43061
#
# Velocity S-wave (km/s) = 2.86810 3.37315 3.13082
# Velocity P-wave (km/s) = 4.39282 5.12839 4.77479
#
# Compressibility (1/GPa) = 0.04627790
#
# Stress axis : x y z
#
# Youngs Moduli (GPa) = 28.27294 90.15669 124.49212
#
# Poissons Ratio (x) = 0.21668 0.34450
# Poissons Ratio (y) = 0.06795 -0.13229
# Poissons Ratio (z) = 0.07824 -0.09581
#
# Static dielectric constant tensor:
#      x y z
#    x 2.087670 0.000000 0.000000 
#    y 0.000000 2.156050 0.000000 
#    z 0.000000 0.000000 2.077500 
# 
# From -- ./inp_files/7233.got.cif
#   From: 2010.05.17/outbox.cif.g08.bks.cpg/sg61_4_cif.got.tgz:7233.got - 2010.06.03 15:17:17.
