data_PCOD9459888
_publ_section_title
;
Structure prediction by ZEFSAII (Michael W. Deem and Ramdas Pophale) SiO2 
 PCOD9459888
Probable space group: P B C A
;
_chemical_formula_sum "Si O2"
_cell_formula_units_Z 56
_cell_length_a 12.498722
_cell_length_b 16.194522
_cell_length_c 13.218280
_cell_angle_alpha 90.000000
_cell_angle_beta 90.000000
_cell_angle_gamma 90.000000
_cell_volume 2675.523005
_symmetry_space_group_name_H-M "P B C A"
_symmetry_group_IT_number 61
_symmetry_cell_setting 'orthorhombic'
loop_
_space_group_symop_operation_xyz
x,y,z
1/2-x,-y,1/2+z
1/2+x,1/2-y,-z
-x,1/2+y,1/2-z
-x,-y,-z
1/2+x,y,1/2-z
1/2-x,1/2+y,z
x,1/2-y,1/2+z
loop_
_atom_site_type_symbol
_atom_site_label
_atom_site_fract_x
_atom_site_fract_y
_atom_site_fract_z
Si Si1 0.389249 0.324352 0.560347
Si Si2 0.149742 0.508804 0.185799
Si Si3 0.411975 0.740500 0.821624
Si Si4 0.237314 0.191687 0.474421
Si Si5 0.146793 0.543200 0.567854
Si Si6 0.540422 0.152049 0.881859
Si Si7 0.900350 0.557169 0.613683
O O1 0.369209 0.406277 0.626653
O O2 0.481275 0.272115 0.620364
O O3 0.286081 0.270050 0.533776
O O4 0.434447 0.343986 0.448307
O O5 0.262001 0.469707 0.150352
O O6 0.059285 0.440119 0.159898
O O7 0.145069 0.508649 0.306491
O O8 0.310755 0.795156 0.861154
O O9 0.444693 0.721378 0.705391
O O10 0.374709 0.650047 0.857330
O O11 0.323903 0.120401 0.495805
O O12 0.134077 0.165208 0.537668
O O13 0.143381 0.463874 0.496060
O O14 0.028987 0.552638 0.611838
#
# Coordination Sequence:
#
# PCOD9459888 Si02
#       7
#     8   8   8   8   8   8   8
#     4  11  21  39  61  91 120 160 213 262 313 378
#     4  10  22  41  60  92 119 169 214 255 319 389
#     4  10  21  40  60  92 122 162 204 259 325 375
#     4  10  21  38  62  89 123 156 208 257 315 376
#     4  10  21  42  64  91 129 167 213 263 323 389
#     4   9  22  40  59  83 127 160 198 260 314 378
#     4  10  21  42  65  89 129 171 210 265 328 386
#
# _framework density 20.930488
#
# number of rings (size 3 to 8) (size 9 to 14) (size 15 to 20)
#    0.000    2.000    1.429    1.286    0.000    3.429 
#   25.714    0.000    0.000    0.000    0.000    0.000 
#    0.000    0.000    0.000    0.000    0.000    0.000 
#
# Total GULP energy -312119.920345 kJ/mol
# GULP energy per Si atom -5573.570006 kJ/mol
# Density = 2.088285 g / cm^3
# Si number density = 20.930488 Si / 1000 Ang^3
#
#
#
# Elastic Constant Matrix: (Units=GPa)
#
#
# Indices 1 2 3 4 5 6 
#
# 1 16.6057 4.1807 17.5322 0.0000 0.0000 0.0000
# 2 4.1807 56.6941 10.7208 0.0000 0.0000 0.0000
# 3 17.5322 10.7208 55.1331 0.0000 0.0000 0.0000
# 4 0.0000 0.0000 0.0000 24.2840 0.0000 0.0000
# 5 0.0000 0.0000 0.0000 0.0000 3.0357 0.0000
# 6 0.0000 0.0000 0.0000 0.0000 0.0000 258.4950
#
#
#
# Elastic Compliance Matrix: (Units=1/GPa)
#
#
# Indices 1 2 3 4 5 6 
#
# 1 0.090748 -0.001282 -0.028608 0.000000 0.000000 0.000000
# 2 -0.001282 0.018330 -0.003157 0.000000 0.000000 0.000000
# 3 -0.028608 -0.003157 0.027849 0.000000 0.000000 0.000000
# 4 0.000000 0.000000 0.000000 0.041179 0.000000 0.000000
# 5 0.000000 0.000000 0.000000 0.000000 0.329417 0.000000
# 6 0.000000 0.000000 0.000000 0.000000 0.000000 0.003869
#
#
# Mechanical properties :
#
#
# Convention : Reuss Voigt Hill
#
# Bulk Modulus (GPa) = 14.11776 21.47781 17.79779
# Shear Modulus (GPa) = 8.31813 63.56287 35.94050
#
# Velocity S-wave (km/s) = 1.99569 5.51675 4.14833
# Velocity P-wave (km/s) = 3.47421 7.13184 5.60951
#
# Compressibility (1/GPa) = 0.07083277
#
# Stress axis : x y z
#
# Youngs Moduli (GPa) = 11.01958 54.55543 35.90775
#
# Poissons Ratio (x) = 0.06994 1.02726
# Poissons Ratio (y) = 0.01413 0.11335
# Poissons Ratio (z) = 0.31525 0.17221
#
# Static dielectric constant tensor:
#      x y z
#    x 1.727030 0.000000 0.000000 
#    y 0.000000 1.770350 0.000000 
#    z 0.000000 0.000000 1.794580 
# 
# From -- ./inp_files/7517.got.cif
#   From: 2010.05.17/outbox.cif.g08.bks.cpg/sg61_4_cif.got.tgz:7517.got - 2010.06.03 15:17:17.
