data_PCOD9459420
_publ_section_title
;
Structure prediction by ZEFSAII (Michael W. Deem and Ramdas Pophale) SiO2 
 PCOD9459420
Probable space group: P B C A
;
_chemical_formula_sum "Si O2"
_cell_formula_units_Z 64
_cell_length_a 24.650682
_cell_length_b 15.267685
_cell_length_c 7.149193
_cell_angle_alpha 90.000000
_cell_angle_beta 90.000000
_cell_angle_gamma 90.000000
_cell_volume 2690.662040
_symmetry_space_group_name_H-M "P B C A"
_symmetry_group_IT_number 61
_symmetry_cell_setting 'orthorhombic'
loop_
_space_group_symop_operation_xyz
x,y,z
1/2-x,-y,1/2+z
1/2+x,1/2-y,-z
-x,1/2+y,1/2-z
-x,-y,-z
1/2+x,y,1/2-z
1/2-x,1/2+y,z
x,1/2-y,1/2+z
loop_
_atom_site_type_symbol
_atom_site_label
_atom_site_fract_x
_atom_site_fract_y
_atom_site_fract_z
Si Si1 0.133573 0.318075 0.731908
Si Si2 0.377602 0.623583 0.658973
Si Si3 0.750563 0.872344 0.774305
Si Si4 0.146036 0.871061 0.236403
Si Si5 0.069301 0.021185 0.176983
Si Si6 0.865982 0.179180 0.196448
Si Si7 0.450523 0.038001 0.263297
Si Si8 0.741266 0.426350 0.342830
O O1 0.111345 0.220301 0.737125
O O2 0.196508 0.317449 0.667444
O O3 0.099404 0.389460 0.617421
O O4 0.129154 0.358272 0.938571
O O5 0.422167 0.550112 0.692018
O O6 0.319215 0.588970 0.731937
O O7 0.691390 0.831317 0.803809
O O8 0.756149 0.886235 0.550241
O O9 0.752799 0.970232 0.855513
O O10 0.122496 0.781832 0.317914
O O11 0.209765 0.884999 0.276206
O O12 0.111385 0.957222 0.281887
O O13 0.143133 0.858279 0.011519
O O14 0.052675 0.969504 0.989524
O O15 0.013883 0.042787 0.284801
O O16 0.913575 0.121513 0.286626
#
# Coordination Sequence:
#
# PCOD9459420 Si02
#       8
#     8   8   8   8   8   8   8   8
#     4  11  23  38  60  89 119 154 194 238 292 350
#     4  11  23  38  60  89 119 154 194 238 292 350
#     4  10  20  35  58  87 116 150 189 235 291 347
#     4  10  21  37  58  85 116 149 188 235 288 344
#     4  10  22  41  62  84 115 155 198 245 293 339
#     4  10  21  37  58  85 116 149 188 235 288 344
#     4  10  22  41  62  84 115 155 198 245 293 339
#     4  10  20  35  58  87 116 150 189 235 291 347
#
# _framework density 23.785966999999999
#
# number of rings (size 3 to 8) (size 9 to 14) (size 15 to 20)
#    0.000    1.750    2.500    1.500    0.000    4.500 
#    0.000    2.500    0.000    0.000    0.000    0.000 
#    0.000    0.000    0.000    0.000    0.000    0.000 
#
# Total GULP energy -358128.919559 kJ/mol
# GULP energy per Si atom -5595.764368 kJ/mol
# Density = 2.373183 g / cm^3
# Si number density = 23.785967 Si / 1000 Ang^3
#
#
#
# Elastic Constant Matrix: (Units=GPa)
#
#
# Indices 1 2 3 4 5 6 
#
# 1 147.0952 50.4274 5.3642 0.0000 0.0000 0.0000
# 2 50.4274 145.3236 -8.7364 0.0000 0.0000 0.0000
# 3 5.3642 -8.7364 40.0581 0.0000 0.0000 0.0000
# 4 0.0000 0.0000 0.0000 9.8589 0.0000 0.0000
# 5 0.0000 0.0000 0.0000 0.0000 4.8803 0.0000
# 6 0.0000 0.0000 0.0000 0.0000 0.0000 4.9028
#
#
#
# Elastic Compliance Matrix: (Units=1/GPa)
#
#
# Indices 1 2 3 4 5 6 
#
# 1 0.007824 -0.002815 -0.001662 0.000000 0.000000 0.000000
# 2 -0.002815 0.007985 0.002118 0.000000 0.000000 0.000000
# 3 -0.001662 0.002118 0.025648 0.000000 0.000000 0.000000
# 4 0.000000 0.000000 0.000000 0.101431 0.000000 0.000000
# 5 0.000000 0.000000 0.000000 0.000000 0.204904 0.000000
# 6 0.000000 0.000000 0.000000 0.000000 0.000000 0.203966
#
#
# Mechanical properties :
#
#
# Convention : Reuss Voigt Hill
#
# Bulk Modulus (GPa) = 27.21709 47.39857 37.30783
# Shear Modulus (GPa) = 8.79167 22.95654 15.87410
#
# Velocity S-wave (km/s) = 1.92463 3.11002 2.58616
# Velocity P-wave (km/s) = 4.05046 5.73295 4.96351
#
# Compressibility (1/GPa) = 0.03674162
#
# Stress axis : x y z
#
# Youngs Moduli (GPa) = 127.81390 125.23040 38.98902
#
# Poissons Ratio (x) = 0.35250 0.06478
# Poissons Ratio (y) = 0.35977 -0.08260
# Poissons Ratio (z) = 0.21237 -0.26530
#
# Static dielectric constant tensor:
#      x y z
#    x 1.909340 0.000000 0.000000 
#    y 0.000000 1.868550 0.000000 
#    z 0.000000 0.000000 1.995000 
# 
# From -- ./inp_files/4346.got.cif
#   From: 2010.05.17/outbox.cif.g08.bks.cpg/sg61_3_cif.got.tgz:4346.got - 2010.06.03 15:17:17.
