data_PCOD9459410
_publ_section_title
;
Structure prediction by ZEFSAII (Michael W. Deem and Ramdas Pophale) SiO2 
 PCOD9459410
Probable space group: P B C A
;
_chemical_formula_sum "Si O2"
_cell_formula_units_Z 48
_cell_length_a 4.941800
_cell_length_b 29.159266
_cell_length_c 16.055059
_cell_angle_alpha 90.000000
_cell_angle_beta 90.000000
_cell_angle_gamma 90.000000
_cell_volume 2313.522133
_symmetry_space_group_name_H-M "P B C A"
_symmetry_group_IT_number 61
_symmetry_cell_setting 'orthorhombic'
loop_
_space_group_symop_operation_xyz
x,y,z
1/2-x,-y,1/2+z
1/2+x,1/2-y,-z
-x,1/2+y,1/2-z
-x,-y,-z
1/2+x,y,1/2-z
1/2-x,1/2+y,z
x,1/2-y,1/2+z
loop_
_atom_site_type_symbol
_atom_site_label
_atom_site_fract_x
_atom_site_fract_y
_atom_site_fract_z
Si Si1 0.279975 0.410785 0.194809
Si Si2 0.844553 0.518534 0.305034
Si Si3 0.890168 0.316318 0.803847
Si Si4 0.606163 0.275119 0.531805
Si Si5 0.623196 0.903083 0.916710
Si Si6 0.641585 0.627009 0.984208
O O1 0.480404 0.401792 0.271848
O O2 0.311344 0.464914 0.174449
O O3 0.355214 0.382754 0.113333
O O4 0.648439 0.527533 0.225627
O O5 0.744809 0.550903 0.378519
O O6 0.581616 0.310838 0.776163
O O7 0.928580 0.367250 0.841534
O O8 0.986620 0.282137 0.875911
O O9 0.349425 0.261083 0.475761
O O10 0.739543 0.322948 0.503845
O O11 0.349629 0.907462 0.969222
O O12 0.848650 0.879781 0.975549
#
# Coordination Sequence:
#
# PCOD9459410 Si02
#       6
#     8   8   8   8   8   8
#     4  10  22  40  59  82 117 157 199 242 280 335
#     4  10  20  35  56  85 121 159 193 232 285 337
#     4  11  21  37  60  88 117 147 186 233 288 347
#     4  11  23  42  62  84 118 153 189 242 298 350
#     4  11  21  35  59  89 120 152 189 237 290 354
#     4  11  23  39  60  86 113 154 198 239 301 350
#
# _framework density 20.747585000000001
#
# number of rings (size 3 to 8) (size 9 to 14) (size 15 to 20)
#    0.000    1.333    0.000    8.000    0.000    1.333 
#    0.000    5.000    0.000    0.000    0.000    0.000 
#    0.000    0.000    0.000    0.000    0.000    0.000 
#
# Total GULP energy -268466.724448 kJ/mol
# GULP energy per Si atom -5593.056759 kJ/mol
# Density = 2.070036 g / cm^3
# Si number density = 20.747585 Si / 1000 Ang^3
#
#
#
# Elastic Constant Matrix: (Units=GPa)
#
#
# Indices 1 2 3 4 5 6 
#
# 1 72.4482 -4.5468 -12.1256 0.0000 0.0000 0.0000
# 2 -4.5468 17.6401 18.6546 0.0000 0.0000 0.0000
# 3 -12.1256 18.6546 54.6435 0.0000 0.0000 0.0000
# 4 0.0000 0.0000 0.0000 19.7613 0.0000 0.0000
# 5 0.0000 0.0000 0.0000 0.0000 36.3154 0.0000
# 6 0.0000 0.0000 0.0000 0.0000 0.0000 12.4668
#
#
#
# Elastic Compliance Matrix: (Units=1/GPa)
#
#
# Indices 1 2 3 4 5 6 
#
# 1 0.014338 0.000518 0.003005 0.000000 0.000000 0.000000
# 2 0.000518 0.088737 -0.030179 0.000000 0.000000 0.000000
# 3 0.003005 -0.030179 0.029270 0.000000 0.000000 0.000000
# 4 0.000000 0.000000 0.000000 0.050604 0.000000 0.000000
# 5 0.000000 0.000000 0.000000 0.000000 0.027537 0.000000
# 6 0.000000 0.000000 0.000000 0.000000 0.000000 0.080213
#
#
# Mechanical properties :
#
#
# Convention : Reuss Voigt Hill
#
# Bulk Modulus (GPa) = 12.65283 16.52181 14.58732
# Shear Modulus (GPa) = 13.50057 23.22534 18.36296
#
# Velocity S-wave (km/s) = 2.55366 3.34941 2.97823
# Velocity P-wave (km/s) = 3.84794 4.78942 4.34426
#
# Compressibility (1/GPa) = 0.07903367
#
# Stress axis : x y z
#
# Youngs Moduli (GPa) = 69.74280 11.26926 34.16480
#
# Poissons Ratio (x) = -0.00584 -0.10266
# Poissons Ratio (y) = -0.03613 1.03105
# Poissons Ratio (z) = -0.20957 0.34009
#
# Static dielectric constant tensor:
#      x y z
#    x 1.717580 0.000000 0.000000 
#    y 0.000000 1.737250 0.000000 
#    z 0.000000 0.000000 1.709240 
# 
# From -- ./inp_files/6857.got.cif
#   From: 2010.05.17/outbox.cif.g08.bks.cpg/sg61_4_cif.got.tgz:6857.got - 2010.06.03 15:17:17.
