data_PCOD9459654
_publ_section_title
;
Structure prediction by ZEFSAII (Michael W. Deem and Ramdas Pophale) SiO2 
 PCOD9459654
Probable space group: P B C A
;
_chemical_formula_sum "Si O2"
_cell_formula_units_Z 56
_cell_length_a 8.151342
_cell_length_b 17.035827
_cell_length_c 19.161968
_cell_angle_alpha 90.000000
_cell_angle_beta 90.000000
_cell_angle_gamma 90.000000
_cell_volume 2660.923853
_symmetry_space_group_name_H-M "P B C A"
_symmetry_group_IT_number 61
_symmetry_cell_setting 'orthorhombic'
loop_
_space_group_symop_operation_xyz
x,y,z
1/2-x,-y,1/2+z
1/2+x,1/2-y,-z
-x,1/2+y,1/2-z
-x,-y,-z
1/2+x,y,1/2-z
1/2-x,1/2+y,z
x,1/2-y,1/2+z
loop_
_atom_site_type_symbol
_atom_site_label
_atom_site_fract_x
_atom_site_fract_y
_atom_site_fract_z
Si Si1 0.058627 0.489956 0.920317
Si Si2 0.142725 0.127447 0.609950
Si Si3 0.119819 0.802554 0.211770
Si Si4 0.779792 0.719938 0.649972
Si Si5 0.373725 0.429748 0.986855
Si Si6 0.038842 0.830159 0.625307
Si Si7 0.058054 0.752434 0.472361
O O1 0.244403 0.460436 0.928691
O O2 0.014949 0.571200 0.883748
O O3 0.951219 0.421583 0.885641
O O4 0.000000 0.500000 0.000000
O O5 0.238413 0.143977 0.680432
O O6 0.269953 0.085398 0.557458
O O7 0.090557 0.206451 0.569123
O O8 0.137370 0.795181 0.294305
O O9 0.151343 0.715267 0.179958
O O10 0.944486 0.824857 0.176612
O O11 0.714722 0.714549 0.571351
O O12 0.855883 0.807716 0.652357
O O13 0.443123 0.342257 0.970104
O O14 0.500000 0.500000 0.000000
O O15 0.057340 0.787144 0.550302
#
# Coordination Sequence:
#
# PCOD9459654 Si02
#       7
#     8   8   8   8   8   8   8
#     4  10  20  40  58  94 136 172 211 284 345 385
#     4  11  23  37  63  92 133 175 218 273 334 394
#     4  10  22  41  63  94 127 174 224 260 335 405
#     4  10  22  40  69  94 132 166 226 280 327 408
#     4  11  22  37  58 102 139 166 220 280 341 402
#     4  10  21  38  69  92 131 164 233 263 342 396
#     4  12  20  40  69 100 124 172 225 284 331 393
#
# _framework density 21.045324000000001
#
# number of rings (size 3 to 8) (size 9 to 14) (size 15 to 20)
#    0.857    0.571    5.714    0.857    0.000    5.714 
#    0.000    0.000    6.286    0.000    0.000    0.000 
#    0.000    0.000    0.000    0.000    0.000    0.000 
#
# Total GULP energy -311859.195501 kJ/mol
# GULP energy per Si atom -5568.914205 kJ/mol
# Density = 2.099742 g / cm^3
# Si number density = 21.045324 Si / 1000 Ang^3
#
#
#
# Elastic Constant Matrix: (Units=GPa)
#
#
# Indices 1 2 3 4 5 6 
#
# 1 67.2034 46.0792 20.8618 0.0000 0.0000 0.0000
# 2 46.0792 139.7763 28.6331 0.0000 0.0000 0.0000
# 3 20.8618 28.6331 90.8598 0.0000 0.0000 0.0000
# 4 0.0000 0.0000 0.0000 18.0734 0.0000 0.0000
# 5 0.0000 0.0000 0.0000 0.0000 27.7422 0.0000
# 6 0.0000 0.0000 0.0000 0.0000 0.0000 42.7478
#
#
#
# Elastic Compliance Matrix: (Units=1/GPa)
#
#
# Indices 1 2 3 4 5 6 
#
# 1 0.019811 -0.005986 -0.002662 0.000000 0.000000 0.000000
# 2 -0.005986 0.009456 -0.001606 0.000000 0.000000 0.000000
# 3 -0.002662 -0.001606 0.012123 0.000000 0.000000 0.000000
# 4 0.000000 0.000000 0.000000 0.055330 0.000000 0.000000
# 5 0.000000 0.000000 0.000000 0.000000 0.036046 0.000000
# 6 0.000000 0.000000 0.000000 0.000000 0.000000 0.023393
#
#
# Mechanical properties :
#
#
# Convention : Reuss Voigt Hill
#
# Bulk Modulus (GPa) = 47.88543 54.33196 51.10869
# Shear Modulus (GPa) = 27.22898 31.19704 29.21301
#
# Velocity S-wave (km/s) = 3.60088 3.85434 3.72976
# Velocity P-wave (km/s) = 6.33177 6.75874 6.54874
#
# Compressibility (1/GPa) = 0.02088318
#
# Stress axis : x y z
#
# Youngs Moduli (GPa) = 50.47760 105.74809 82.48581
#
# Poissons Ratio (x) = 0.63296 0.21961
# Poissons Ratio (y) = 0.30213 0.13245
# Poissons Ratio (z) = 0.13439 0.16981
#
# Static dielectric constant tensor:
#      x y z
#    x 1.881430 0.000000 0.000000 
#    y 0.000000 1.752680 0.000000 
#    z 0.000000 0.000000 1.742190 
# 
# From -- ./inp_files/10151.got.cif
#   From: 2010.05.17/outbox.cif.g08.bks.cpg/sg61_6_cif.got.tgz:10151.got - 2010.06.03 15:17:17.
