data_PCOD9459435
_publ_section_title
;
Structure prediction by ZEFSAII (Michael W. Deem and Ramdas Pophale) SiO2 
 PCOD9459435
Probable space group: P B C A
;
_chemical_formula_sum "Si O2"
_cell_formula_units_Z 56
_cell_length_a 8.969348
_cell_length_b 18.626978
_cell_length_c 14.911755
_cell_angle_alpha 90.000000
_cell_angle_beta 90.000000
_cell_angle_gamma 90.000000
_cell_volume 2491.334463
_symmetry_space_group_name_H-M "P B C A"
_symmetry_group_IT_number 61
_symmetry_cell_setting 'orthorhombic'
loop_
_space_group_symop_operation_xyz
x,y,z
1/2-x,-y,1/2+z
1/2+x,1/2-y,-z
-x,1/2+y,1/2-z
-x,-y,-z
1/2+x,y,1/2-z
1/2-x,1/2+y,z
x,1/2-y,1/2+z
loop_
_atom_site_type_symbol
_atom_site_label
_atom_site_fract_x
_atom_site_fract_y
_atom_site_fract_z
Si Si1 0.747162 0.957707 0.088866
Si Si2 0.473775 0.650501 0.580557
Si Si3 0.228332 0.923345 0.208453
Si Si4 0.287751 0.567141 0.103962
Si Si5 0.804795 0.813910 0.764561
Si Si6 0.953678 0.282960 0.245315
Si Si7 0.432132 0.898852 0.898469
O O1 0.611289 0.902902 0.078363
O O2 0.793004 0.946125 0.192998
O O3 0.670426 0.034400 0.073603
O O4 0.840554 0.942151 0.998869
O O5 0.348427 0.611897 0.641197
O O6 0.534386 0.716872 0.637223
O O7 0.427059 0.659267 0.478570
O O8 0.107551 0.859331 0.222845
O O9 0.170843 0.996478 0.161739
O O10 0.346724 0.641135 0.146944
O O11 0.104377 0.574333 0.112921
O O12 0.637975 0.785888 0.777319
O O13 0.849109 0.868602 0.687694
O O14 0.878282 0.738574 0.732102
#
# Coordination Sequence:
#
# PCOD9459435 Si02
#       7
#     8   8   8   8   8   8   8
#     4  10  20  35  66 105 124 171 222 274 337 394
#     4  10  20  40  64  90 130 170 222 263 326 407
#     4  11  20  38  70  93 130 172 221 271 328 402
#     4  11  21  39  69  98 129 170 229 281 328 402
#     4  12  24  43  67  94 137 175 219 277 338 393
#     4  11  25  44  62  94 134 179 218 267 335 401
#     4  11  20  38  68  99 131 172 219 273 344 393
#
# _framework density 22.477913999999998
#
# number of rings (size 3 to 8) (size 9 to 14) (size 15 to 20)
#    0.000    1.143    7.143    0.857    0.000    0.000 
#   10.286    0.000    3.143    5.143    0.000    0.000 
#    0.000    0.000    0.000    0.000    0.000    0.000 
#
# Total GULP energy -311850.848715 kJ/mol
# GULP energy per Si atom -5568.765156 kJ/mol
# Density = 2.242675 g / cm^3
# Si number density = 22.477914 Si / 1000 Ang^3
#
#
#
# Elastic Constant Matrix: (Units=GPa)
#
#
# Indices 1 2 3 4 5 6 
#
# 1 19.2016 -0.4613 -4.6912 0.0000 0.0000 0.0000
# 2 -0.4613 85.5193 17.9415 0.0000 0.0000 0.0000
# 3 -4.6912 17.9415 105.2827 0.0000 0.0000 0.0000
# 4 0.0000 0.0000 0.0000 8.9514 0.0000 0.0000
# 5 0.0000 0.0000 0.0000 0.0000 20.8021 0.0000
# 6 0.0000 0.0000 0.0000 0.0000 0.0000 21.6910
#
#
#
# Elastic Compliance Matrix: (Units=1/GPa)
#
#
# Indices 1 2 3 4 5 6 
#
# 1 0.052656 -0.000216 0.002383 0.000000 0.000000 0.000000
# 2 -0.000216 0.012128 -0.002076 0.000000 0.000000 0.000000
# 3 0.002383 -0.002076 0.009958 0.000000 0.000000 0.000000
# 4 0.000000 0.000000 0.000000 0.111714 0.000000 0.000000
# 5 0.000000 0.000000 0.000000 0.000000 0.048072 0.000000
# 6 0.000000 0.000000 0.000000 0.000000 0.000000 0.046102
#
#
# Mechanical properties :
#
#
# Convention : Reuss Voigt Hill
#
# Bulk Modulus (GPa) = 13.34693 26.17572 19.76132
# Shear Modulus (GPa) = 16.37075 23.43656 19.90366
#
# Velocity S-wave (km/s) = 2.70164 3.23251 2.97892
# Velocity P-wave (km/s) = 3.96011 5.05989 4.54340
#
# Compressibility (1/GPa) = 0.07492362
#
# Stress axis : x y z
#
# Youngs Moduli (GPa) = 18.99119 82.45585 100.41924
#
# Poissons Ratio (x) = 0.01780 -0.23931
# Poissons Ratio (y) = 0.00410 0.20850
# Poissons Ratio (z) = -0.04526 0.17121
#
# Static dielectric constant tensor:
#      x y z
#    x 1.856390 0.000000 0.000000 
#    y 0.000000 1.961880 0.000000 
#    z 0.000000 0.000000 1.895900 
# 
# From -- ./inp_files/7152.got.cif
#   From: 2010.05.17/outbox.cif.g08.bks.cpg/sg61_4_cif.got.tgz:7152.got - 2010.06.03 15:17:17.
