data_PCOD9459849
_publ_section_title
;
Structure prediction by ZEFSAII (Michael W. Deem and Ramdas Pophale) SiO2 
 PCOD9459849
Probable space group: P B C A
;
_chemical_formula_sum "Si O2"
_cell_formula_units_Z 64
_cell_length_a 15.584293
_cell_length_b 8.367603
_cell_length_c 25.221580
_cell_angle_alpha 90.000000
_cell_angle_beta 90.000000
_cell_angle_gamma 90.000000
_cell_volume 3288.974157
_symmetry_space_group_name_H-M "P B C A"
_symmetry_group_IT_number 61
_symmetry_cell_setting 'orthorhombic'
loop_
_space_group_symop_operation_xyz
x,y,z
1/2-x,-y,1/2+z
1/2+x,1/2-y,-z
-x,1/2+y,1/2-z
-x,-y,-z
1/2+x,y,1/2-z
1/2-x,1/2+y,z
x,1/2-y,1/2+z
loop_
_atom_site_type_symbol
_atom_site_label
_atom_site_fract_x
_atom_site_fract_y
_atom_site_fract_z
Si Si1 0.353725 0.487062 0.788386
Si Si2 0.122653 0.448159 0.573415
Si Si3 0.994292 0.863936 0.139826
Si Si4 0.372870 0.843078 0.462046
Si Si5 0.355890 0.130313 0.169556
Si Si6 0.210987 0.443206 0.926091
Si Si7 0.204859 0.811819 0.346710
Si Si8 0.766990 0.846000 0.387195
O O1 0.434706 0.581393 0.811858
O O2 0.355358 0.455817 0.726143
O O3 0.352557 0.308652 0.813428
O O4 0.270012 0.585119 0.809950
O O5 0.086391 0.411894 0.515465
O O6 0.191301 0.593459 0.574081
O O7 0.175763 0.292894 0.589428
O O8 0.055339 0.494157 0.618635
O O9 0.934225 0.834648 0.088767
O O10 0.054337 0.715103 0.155528
O O11 0.339188 0.661035 0.468881
O O12 0.292541 0.961119 0.449039
O O13 0.284064 0.270296 0.163267
O O14 0.325360 0.995688 0.128356
O O15 0.242635 0.309118 0.884508
O O16 0.160681 0.568455 0.888699
#
# Coordination Sequence:
#
# PCOD9459849 Si02
#       8
#     8   8   8   8   8   8   8   8
#     4  11  20  38  60  86 114 153 196 232 299 344
#     4  10  21  37  63  81 111 158 189 241 296 340
#     4  11  23  38  52  85 127 148 187 243 290 356
#     4  11  19  37  58  87 116 152 194 234 296 348
#     4  10  22  39  62  83 111 156 190 244 289 334
#     4   9  17  32  57  83 112 145 184 242 278 327
#     4   9  17  34  57  83 108 145 186 240 278 327
#     4   9  20  43  60  84 110 142 213 245 269 350
#
# _framework density 19.458956000000001
#
# number of rings (size 3 to 8) (size 9 to 14) (size 15 to 20)
#    0.000    2.000    3.750    1.875    0.000    1.000 
#    4.500    1.875    0.000    0.000    0.000    0.000 
#    0.000    0.000    0.000    0.000    0.000    0.000 
#
# Total GULP energy -356520.232367 kJ/mol
# GULP energy per Si atom -5570.628631 kJ/mol
# Density = 1.941467 g / cm^3
# Si number density = 19.458956 Si / 1000 Ang^3
#
#
#
# Elastic Constant Matrix: (Units=GPa)
#
#
# Indices 1 2 3 4 5 6 
#
# 1 65.6857 25.7939 6.8940 0.0000 0.0000 0.0000
# 2 25.7939 81.8624 -6.7540 0.0000 0.0000 0.0000
# 3 6.8940 -6.7540 40.6294 0.0000 0.0000 0.0000
# 4 0.0000 0.0000 0.0000 14.2121 0.0000 0.0000
# 5 0.0000 0.0000 0.0000 0.0000 15.0905 0.0000
# 6 0.0000 0.0000 0.0000 0.0000 0.0000 -43.4979
#
#
#
# Elastic Compliance Matrix: (Units=1/GPa)
#
#
# Indices 1 2 3 4 5 6 
#
# 1 0.018009 -0.006009 -0.004055 0.000000 0.000000 0.000000
# 2 -0.006009 0.014390 0.003412 0.000000 0.000000 0.000000
# 3 -0.004055 0.003412 0.025868 0.000000 0.000000 0.000000
# 4 0.000000 0.000000 0.000000 0.070362 0.000000 0.000000
# 5 0.000000 0.000000 0.000000 0.000000 0.066267 0.000000
# 6 0.000000 0.000000 0.000000 0.000000 0.000000 -0.022990
#
#
# Mechanical properties :
#
#
# Convention : Reuss Voigt Hill
#
# Bulk Modulus (GPa) = 22.24015 26.67169 24.45592
# Shear Modulus (GPa) = 24.97514 7.97719 16.47616
#
# Velocity S-wave (km/s) = 3.58645 2.02692 2.91299
# Velocity P-wave (km/s) = 5.34830 4.38341 4.88971
#
# Compressibility (1/GPa) = 0.04496372
#
# Stress axis : x y z
#
# Youngs Moduli (GPa) = 55.52701 69.49030 38.65800
#
# Poissons Ratio (x) = 0.41757 0.15675
# Poissons Ratio (y) = 0.33366 -0.13189
# Poissons Ratio (z) = 0.22515 -0.23709
#
# Static dielectric constant tensor:
#      x y z
#    x 1.715140 0.000000 0.000000 
#    y 0.000000 1.700160 0.000000 
#    z 0.000000 0.000000 1.717890 
# 
# From -- ./inp_files/11076.got.cif
#   From: 2010.05.17/outbox.cif.g08.bks.cpg/sg61_6_cif.got.tgz:11076.got - 2010.06.03 15:17:17.
