data_PCOD9459814
_publ_section_title
;
Structure prediction by ZEFSAII (Michael W. Deem and Ramdas Pophale) SiO2 
 PCOD9459814
Probable space group: P B C A
;
_chemical_formula_sum "Si O2"
_cell_formula_units_Z 64
_cell_length_a 23.768641
_cell_length_b 9.164038
_cell_length_c 14.583498
_cell_angle_alpha 90.000000
_cell_angle_beta 90.000000
_cell_angle_gamma 90.000000
_cell_volume 3176.529837
_symmetry_space_group_name_H-M "P B C A"
_symmetry_group_IT_number 61
_symmetry_cell_setting 'orthorhombic'
loop_
_space_group_symop_operation_xyz
x,y,z
1/2-x,-y,1/2+z
1/2+x,1/2-y,-z
-x,1/2+y,1/2-z
-x,-y,-z
1/2+x,y,1/2-z
1/2-x,1/2+y,z
x,1/2-y,1/2+z
loop_
_atom_site_type_symbol
_atom_site_label
_atom_site_fract_x
_atom_site_fract_y
_atom_site_fract_z
Si Si1 0.115286 0.438705 0.683712
Si Si2 0.674455 0.603036 0.664294
Si Si3 0.983813 0.438111 0.680663
Si Si4 0.443061 0.325236 0.432974
Si Si5 0.592182 0.212945 0.656340
Si Si6 0.991994 0.394943 0.883791
Si Si7 0.246644 0.649172 0.421255
Si Si8 0.322289 0.612703 0.995813
O O1 0.151156 0.564375 0.734723
O O2 0.113398 0.307104 0.757986
O O3 0.142979 0.392049 0.588962
O O4 0.049519 0.476266 0.668619
O O5 0.617751 0.631051 0.605471
O O6 0.713942 0.744875 0.650284
O O7 0.709161 0.462328 0.626646
O O8 0.960713 0.334183 0.601067
O O9 0.945997 0.579822 0.687570
O O10 0.977883 0.359646 0.779196
O O11 0.490811 0.435670 0.393391
O O12 0.447102 0.345960 0.541918
O O13 0.550908 0.314298 0.596145
O O14 0.640267 0.152487 0.592053
O O15 0.204460 0.543936 0.475091
O O16 0.275934 0.759765 0.492356
#
# Coordination Sequence:
#
# PCOD9459814 Si02
#       8
#     8   8   8   8   8   8   8   8
#     4  11  24  40  70  96 136 173 218 266 328 404
#     4  11  22  44  65  90 125 170 217 279 328 372
#     4  11  23  38  61 100 136 171 218 255 322 411
#     4  11  21  39  62  91 130 175 207 265 324 396
#     4  11  22  42  63  97 138 174 205 273 320 389
#     4  10  21  36  62  90 132 172 208 251 326 396
#     4  10  24  44  69  87 125 167 226 285 326 379
#     4  11  23  45  67  97 128 173 223 272 336 385
#
# _framework density 20.147773000000001
#
# number of rings (size 3 to 8) (size 9 to 14) (size 15 to 20)
#    0.000    1.250    3.750    3.000    0.000    7.000 
#    0.000    0.000    0.000    0.000    0.000    0.000 
#    0.000    0.000    0.000    0.000    0.000    0.000 
#
# Total GULP energy -357537.068765 kJ/mol
# GULP energy per Si atom -5586.516699 kJ/mol
# Density = 2.010192 g / cm^3
# Si number density = 20.147773 Si / 1000 Ang^3
#
#
#
# Elastic Constant Matrix: (Units=GPa)
#
#
# Indices 1 2 3 4 5 6 
#
# 1 85.8632 40.8062 44.7998 0.0000 0.0000 0.0000
# 2 40.8062 97.8906 23.4783 0.0000 0.0000 0.0000
# 3 44.7998 23.4783 43.1071 0.0000 0.0000 0.0000
# 4 0.0000 0.0000 0.0000 6.0118 0.0000 0.0000
# 5 0.0000 0.0000 0.0000 0.0000 23.6040 0.0000
# 6 0.0000 0.0000 0.0000 0.0000 0.0000 36.4106
#
#
#
# Elastic Compliance Matrix: (Units=1/GPa)
#
#
# Indices 1 2 3 4 5 6 
#
# 1 0.027669 -0.005334 -0.025850 0.000000 0.000000 0.000000
# 2 -0.005334 0.012779 -0.001417 0.000000 0.000000 0.000000
# 3 -0.025850 -0.001417 0.050835 0.000000 0.000000 0.000000
# 4 0.000000 0.000000 0.000000 0.166339 0.000000 0.000000
# 5 0.000000 0.000000 0.000000 0.000000 0.042366 0.000000
# 6 0.000000 0.000000 0.000000 0.000000 0.000000 0.027465
#
#
# Mechanical properties :
#
#
# Convention : Reuss Voigt Hill
#
# Bulk Modulus (GPa) = 38.34205 49.44773 43.89489
# Shear Modulus (GPa) = 12.45805 21.05707 16.75756
#
# Velocity S-wave (km/s) = 2.48933 3.23636 2.88711
# Velocity P-wave (km/s) = 5.22820 6.20976 5.74000
#
# Compressibility (1/GPa) = 0.02608103
#
# Stress axis : x y z
#
# Youngs Moduli (GPa) = 36.14157 78.25521 19.67148
#
# Poissons Ratio (x) = 0.41741 0.50851
# Poissons Ratio (y) = 0.19278 0.02787
# Poissons Ratio (z) = 0.93427 0.11085
#
# Static dielectric constant tensor:
#      x y z
#    x 1.730010 0.000000 0.000000 
#    y 0.000000 1.783000 0.000000 
#    z 0.000000 0.000000 1.695310 
# 
# From -- ./inp_files/8517.got.cif
#   From: 2010.05.17/outbox.cif.g08.bks.cpg/sg61_5_cif.got.tgz:8517.got - 2010.06.03 15:17:17.
