data_PCOD9459923
_publ_section_title
;
Structure prediction by ZEFSAII (Michael W. Deem and Ramdas Pophale) SiO2 
 PCOD9459923
Probable space group: P B C A
;
_chemical_formula_sum "Si O2"
_cell_formula_units_Z 48
_cell_length_a 13.445572
_cell_length_b 31.852868
_cell_length_c 4.969988
_cell_angle_alpha 90.000000
_cell_angle_beta 90.000000
_cell_angle_gamma 90.000000
_cell_volume 2128.546610
_symmetry_space_group_name_H-M "P B C A"
_symmetry_group_IT_number 61
_symmetry_cell_setting 'orthorhombic'
loop_
_space_group_symop_operation_xyz
x,y,z
1/2-x,-y,1/2+z
1/2+x,1/2-y,-z
-x,1/2+y,1/2-z
-x,-y,-z
1/2+x,y,1/2-z
1/2-x,1/2+y,z
x,1/2-y,1/2+z
loop_
_atom_site_type_symbol
_atom_site_label
_atom_site_fract_x
_atom_site_fract_y
_atom_site_fract_z
Si Si1 0.485901 0.347091 0.935974
Si Si2 0.342716 0.041988 0.817852
Si Si3 0.160900 0.775884 0.899657
Si Si4 0.519663 0.401277 0.458067
Si Si5 0.287756 0.555034 0.321114
Si Si6 0.397960 0.724273 0.378032
O O1 0.391366 0.317999 0.995413
O O2 0.460956 0.380644 0.706329
O O3 0.560203 0.316097 0.773881
O O4 0.525415 0.369816 0.203246
O O5 0.452568 0.059371 0.867800
O O6 0.303561 0.055305 0.527323
O O7 0.335480 0.991680 0.836522
O O8 0.260737 0.059982 0.028197
O O9 0.132364 0.761910 0.600000
O O10 0.279194 0.780179 0.894637
O O11 0.626506 0.413805 0.579211
O O12 0.426024 0.736725 0.681293
#
# Coordination Sequence:
#
# PCOD9459923 Si02
#       6
#     8   8   8   8   8   8
#     4  12  24  37  59  90 125 158 193 250 313 363
#     4  10  22  42  66  89 119 163 209 250 296 361
#     4  10  21  39  61  83 112 156 205 247 290 351
#     4  12  25  39  60  94 129 160 197 252 316 367
#     4  10  22  42  66  89 119 163 209 250 296 361
#     4  10  21  39  61  83 112 156 205 247 290 351
#
# _framework density 22.550599999999999
#
# number of rings (size 3 to 8) (size 9 to 14) (size 15 to 20)
#    0.000    1.333    0.000    5.500    0.000    4.000 
#    0.000    6.667    0.000    0.000    0.000    0.000 
#    0.000    0.000    0.000    0.000    0.000    0.000 
#
# Total GULP energy -268430.042040 kJ/mol
# GULP energy per Si atom -5592.292542 kJ/mol
# Density = 2.249927 g / cm^3
# Si number density = 22.550600 Si / 1000 Ang^3
#
#
#
# Elastic Constant Matrix: (Units=GPa)
#
#
# Indices 1 2 3 4 5 6 
#
# 1 59.9275 12.4918 -5.8148 0.0000 0.0000 0.0000
# 2 12.4918 54.5451 22.9993 0.0000 0.0000 0.0000
# 3 -5.8148 22.9993 93.8901 0.0000 0.0000 0.0000
# 4 0.0000 0.0000 0.0000 21.9601 0.0000 0.0000
# 5 0.0000 0.0000 0.0000 0.0000 14.5086 0.0000
# 6 0.0000 0.0000 0.0000 0.0000 0.0000 7.7630
#
#
#
# Elastic Compliance Matrix: (Units=1/GPa)
#
#
# Indices 1 2 3 4 5 6 
#
# 1 0.017983 -0.005117 0.002367 0.000000 0.000000 0.000000
# 2 -0.005117 0.021901 -0.005682 0.000000 0.000000 0.000000
# 3 0.002367 -0.005682 0.012189 0.000000 0.000000 0.000000
# 4 0.000000 0.000000 0.000000 0.045537 0.000000 0.000000
# 5 0.000000 0.000000 0.000000 0.000000 0.068925 0.000000
# 6 0.000000 0.000000 0.000000 0.000000 0.000000 0.128816
#
#
# Mechanical properties :
#
#
# Convention : Reuss Voigt Hill
#
# Bulk Modulus (GPa) = 28.40040 29.74614 29.07327
# Shear Modulus (GPa) = 15.43448 20.75876 18.09662
#
# Velocity S-wave (km/s) = 2.61901 3.03733 2.83590
# Velocity P-wave (km/s) = 4.66552 5.05173 4.86246
#
# Compressibility (1/GPa) = 0.03521078
#
# Stress axis : x y z
#
# Youngs Moduli (GPa) = 55.60791 45.66002 82.04014
#
# Poissons Ratio (x) = 0.23362 -0.19419
# Poissons Ratio (y) = 0.28452 0.46613
# Poissons Ratio (z) = -0.13163 0.25943
#
# Static dielectric constant tensor:
#      x y z
#    x 1.826350 0.000000 0.000000 
#    y 0.000000 1.871620 0.000000 
#    z 0.000000 0.000000 1.791190 
# 
# From -- ./inp_files/531.got.cif
#   From: 2010.05.17/outbox.cif.g08.bks.cpg/sg61_1_cif.got.tgz:531.got - 2010.06.03 15:17:17.
