data_PCOD9459246
_publ_section_title
;
Structure prediction by ZEFSAII (Michael W. Deem and Ramdas Pophale) SiO2 
 PCOD9459246
Probable space group: P B C A
;
_chemical_formula_sum "Si O2"
_cell_formula_units_Z 48
_cell_length_a 12.744678
_cell_length_b 26.016960
_cell_length_c 5.777910
_cell_angle_alpha 90.000000
_cell_angle_beta 90.000000
_cell_angle_gamma 90.000000
_cell_volume 1915.826558
_symmetry_space_group_name_H-M "P B C A"
_symmetry_group_IT_number 61
_symmetry_cell_setting 'orthorhombic'
loop_
_space_group_symop_operation_xyz
x,y,z
1/2-x,-y,1/2+z
1/2+x,1/2-y,-z
-x,1/2+y,1/2-z
-x,-y,-z
1/2+x,y,1/2-z
1/2-x,1/2+y,z
x,1/2-y,1/2+z
loop_
_atom_site_type_symbol
_atom_site_label
_atom_site_fract_x
_atom_site_fract_y
_atom_site_fract_z
Si Si1 0.566036 0.274085 0.348442
Si Si2 0.449498 0.882584 0.998900
Si Si3 0.371578 0.550422 0.876467
Si Si4 0.238398 0.372659 0.697822
Si Si5 0.195718 0.761406 0.602992
Si Si6 0.909305 0.432663 0.640192
O O1 0.537797 0.250878 0.601179
O O2 0.528566 0.333451 0.343767
O O3 0.694181 0.269497 0.364592
O O4 0.376009 0.859568 0.797775
O O5 0.545097 0.913332 0.887309
O O6 0.378593 0.924471 0.126457
O O7 0.360991 0.489469 0.866041
O O8 0.285353 0.579500 0.028923
O O9 0.487772 0.563434 0.980537
O O10 0.281101 0.321939 0.579159
O O11 0.319343 0.390655 0.896637
O O12 0.146635 0.744345 0.359346
#
# Coordination Sequence:
#
# PCOD9459246 Si02
#       6
#     8   8   8   8   8   8
#     4  10  19  35  65  95 128 177 226 274 343 418
#     4  11  22  40  69  91 133 180 221 282 351 412
#     4  10  23  44  66  90 138 175 222 297 351 416
#     4  11  23  39  68  98 127 180 232 280 353 418
#     4  10  19  37  63  96 134 173 228 284 340 417
#     4  10  25  43  61 102 133 170 235 289 345 424
#
# _framework density 25.054459999999999
#
# number of rings (size 3 to 8) (size 9 to 14) (size 15 to 20)
#    0.000    1.667    3.333    2.500    4.667    1.333 
#    0.000    1.667    0.000    0.000    0.000    0.000 
#    0.000    0.000    0.000    0.000    0.000    0.000 
#
# Total GULP energy -268244.489854 kJ/mol
# GULP energy per Si atom -5588.426872 kJ/mol
# Density = 2.499744 g / cm^3
# Si number density = 25.054460 Si / 1000 Ang^3
#
#
#
# Elastic Constant Matrix: (Units=GPa)
#
#
# Indices 1 2 3 4 5 6 
#
# 1 72.1057 14.1673 36.1274 0.0000 0.0000 0.0000
# 2 14.1673 117.7997 13.3856 0.0000 0.0000 0.0000
# 3 36.1274 13.3856 113.0694 0.0000 0.0000 0.0000
# 4 0.0000 0.0000 0.0000 37.0650 0.0000 0.0000
# 5 0.0000 0.0000 0.0000 0.0000 43.0162 0.0000
# 6 0.0000 0.0000 0.0000 0.0000 0.0000 -1.6067
#
#
#
# Elastic Compliance Matrix: (Units=1/GPa)
#
#
# Indices 1 2 3 4 5 6 
#
# 1 0.016745 -0.001425 -0.005181 0.000000 0.000000 0.000000
# 2 -0.001425 0.008726 -0.000578 0.000000 0.000000 0.000000
# 3 -0.005181 -0.000578 0.010568 0.000000 0.000000 0.000000
# 4 0.000000 0.000000 0.000000 0.026980 0.000000 0.000000
# 5 0.000000 0.000000 0.000000 0.000000 0.023247 0.000000
# 6 0.000000 0.000000 0.000000 0.000000 0.000000 -0.622402
#
#
# Mechanical properties :
#
#
# Convention : Reuss Voigt Hill
#
# Bulk Modulus (GPa) = 46.14610 47.81504 46.98057
# Shear Modulus (GPa) = -9.71733 31.64787 10.96527
#
# Velocity S-wave (km/s) = -1.97152 3.55796 2.09430
# Velocity P-wave (km/s) = 3.64359 6.00038 4.96389
#
# Compressibility (1/GPa) = 0.02167030
#
# Stress axis : x y z
#
# Youngs Moduli (GPa) = 59.72076 114.59988 94.62465
#
# Poissons Ratio (x) = 0.16331 0.49029
# Poissons Ratio (y) = 0.08510 0.05466
# Poissons Ratio (z) = 0.30944 0.06620
#
# Static dielectric constant tensor:
#      x y z
#    x 2.090450 0.000000 0.000000 
#    y 0.000000 1.906510 0.000000 
#    z 0.000000 0.000000 2.003930 
# 
# From -- ./inp_files/535.got.cif
#   From: 2010.05.17/outbox.cif.g08.bks.cpg/sg61_1_cif.got.tgz:535.got - 2010.06.03 15:17:17.
