data_PCOD9459296
_publ_section_title
;
Structure prediction by ZEFSAII (Michael W. Deem and Ramdas Pophale) SiO2 
 PCOD9459296
Probable space group: P B C A
;
_chemical_formula_sum "Si O2"
_cell_formula_units_Z 64
_cell_length_a 17.897339
_cell_length_b 22.757750
_cell_length_c 8.825206
_cell_angle_alpha 90.000000
_cell_angle_beta 90.000000
_cell_angle_gamma 90.000000
_cell_volume 3594.534350
_symmetry_space_group_name_H-M "P B C A"
_symmetry_group_IT_number 61
_symmetry_cell_setting 'orthorhombic'
loop_
_space_group_symop_operation_xyz
x,y,z
1/2-x,-y,1/2+z
1/2+x,1/2-y,-z
-x,1/2+y,1/2-z
-x,-y,-z
1/2+x,y,1/2-z
1/2-x,1/2+y,z
x,1/2-y,1/2+z
loop_
_atom_site_type_symbol
_atom_site_label
_atom_site_fract_x
_atom_site_fract_y
_atom_site_fract_z
Si Si1 0.657634 0.903105 0.905371
Si Si2 0.887521 0.680789 0.265169
Si Si3 0.146697 0.792936 0.055068
Si Si4 0.797996 0.929052 0.745680
Si Si5 0.801392 0.765150 0.049343
Si Si6 0.215096 0.477110 0.092579
Si Si7 0.734066 0.629082 0.722107
Si Si8 0.563250 0.806751 0.758821
O O1 0.727076 0.888285 0.792498
O O2 0.589832 0.862416 0.858675
O O3 0.650566 0.973588 0.887362
O O4 0.688287 0.890973 0.073728
O O5 0.869816 0.611367 0.261204
O O6 0.844334 0.711271 0.125950
O O7 0.850524 0.707823 0.415504
O O8 0.974606 0.694372 0.256039
O O9 0.177058 0.847825 0.150739
O O10 0.096004 0.751005 0.159362
O O11 0.220488 0.756141 0.008101
O O12 0.101572 0.810174 0.905629
O O13 0.786781 0.953544 0.577489
O O14 0.787719 0.982908 0.863630
O O15 0.784925 0.816232 0.171225
O O16 0.217245 0.423475 0.208671
#
# Coordination Sequence:
#
# PCOD9459296 Si02
#       8
#     8   8   8   8   8   8   8   8
#     4  10  19  38  60  84 119 157 205 253 296 367
#     4  12  25  37  60  92 132 160 196 259 323 360
#     4  12  22  38  64  86 122 166 210 247 303 375
#     4  10  20  38  63  89 119 156 207 263 304 354
#     4  12  21  39  60  92 119 157 212 256 291 365
#     4  10  20  36  63  93 113 150 216 269 297 342
#     4  12  20  34  67  90 113 150 213 260 291 349
#     4  12  23  40  56  90 130 166 195 248 324 382
#
# _framework density 17.804808000000001
#
# number of rings (size 3 to 8) (size 9 to 14) (size 15 to 20)
#    0.750    0.000    6.250    3.000    0.000    0.000 
#    0.000    0.625    0.000    5.250    0.000    0.000 
#    0.000    0.000    0.000    0.000    0.000    0.000 
#
# Total GULP energy -357034.905208 kJ/mol
# GULP energy per Si atom -5578.670394 kJ/mol
# Density = 1.776428 g / cm^3
# Si number density = 17.804808 Si / 1000 Ang^3
#
#
#
# Elastic Constant Matrix: (Units=GPa)
#
#
# Indices 1 2 3 4 5 6 
#
# 1 71.9189 8.2039 12.8200 0.0000 0.0000 0.0000
# 2 8.2039 63.7565 9.6833 0.0000 0.0000 0.0000
# 3 12.8200 9.6833 78.7054 0.0000 0.0000 0.0000
# 4 0.0000 0.0000 0.0000 41.8591 0.0000 0.0000
# 5 0.0000 0.0000 0.0000 0.0000 15.3504 0.0000
# 6 0.0000 0.0000 0.0000 0.0000 0.0000 19.2173
#
#
#
# Elastic Compliance Matrix: (Units=1/GPa)
#
#
# Indices 1 2 3 4 5 6 
#
# 1 0.014466 -0.001532 -0.002168 0.000000 0.000000 0.000000
# 2 -0.001532 0.016146 -0.001737 0.000000 0.000000 0.000000
# 3 -0.002168 -0.001737 0.013272 0.000000 0.000000 0.000000
# 4 0.000000 0.000000 0.000000 0.023890 0.000000 0.000000
# 5 0.000000 0.000000 0.000000 0.000000 0.065145 0.000000
# 6 0.000000 0.000000 0.000000 0.000000 0.000000 0.052036
#
#
# Mechanical properties :
#
#
# Convention : Reuss Voigt Hill
#
# Bulk Modulus (GPa) = 30.29370 30.64395 30.46882
# Shear Modulus (GPa) = 24.17423 27.53026 25.85224
#
# Velocity S-wave (km/s) = 3.68874 3.93647 3.81462
# Velocity P-wave (km/s) = 5.93243 6.15707 6.04579
#
# Compressibility (1/GPa) = 0.03301017
#
# Stress axis : x y z
#
# Youngs Moduli (GPa) = 69.12884 61.93634 75.34436
#
# Poissons Ratio (x) = 0.09490 0.16333
# Poissons Ratio (y) = 0.10592 0.13086
# Poissons Ratio (z) = 0.14986 0.10758
#
# Static dielectric constant tensor:
#      x y z
#    x 1.581520 0.000000 0.000000 
#    y 0.000000 1.641550 0.000000 
#    z 0.000000 0.000000 1.619520 
# 
# From -- ./inp_files/3701.got.cif
#   From: 2010.05.17/outbox.cif.g08.bks.cpg/sg61_2_cif.got.tgz:3701.got - 2010.06.03 15:17:17.
