data_PCOD9459692
_publ_section_title
;
Structure prediction by ZEFSAII (Michael W. Deem and Ramdas Pophale) SiO2 
 PCOD9459692
Probable space group: P B C A
;
_chemical_formula_sum "Si O2"
_cell_formula_units_Z 40
_cell_length_a 17.704893
_cell_length_b 8.389905
_cell_length_c 11.453902
_cell_angle_alpha 90.000000
_cell_angle_beta 90.000000
_cell_angle_gamma 90.000000
_cell_volume 1701.389752
_symmetry_space_group_name_H-M "P B C A"
_symmetry_group_IT_number 61
_symmetry_cell_setting 'orthorhombic'
loop_
_space_group_symop_operation_xyz
x,y,z
1/2-x,-y,1/2+z
1/2+x,1/2-y,-z
-x,1/2+y,1/2-z
-x,-y,-z
1/2+x,y,1/2-z
1/2-x,1/2+y,z
x,1/2-y,1/2+z
loop_
_atom_site_type_symbol
_atom_site_label
_atom_site_fract_x
_atom_site_fract_y
_atom_site_fract_z
Si Si1 0.214016 0.356704 0.168107
Si Si2 0.088606 0.515152 0.297621
Si Si3 0.536649 0.863451 0.129193
Si Si4 0.092644 0.214276 0.017779
Si Si5 0.647246 0.455501 0.766378
O O1 0.164298 0.498544 0.221753
O O2 0.171235 0.305740 0.048522
O O3 0.299597 0.412543 0.173049
O O4 0.197083 0.203191 0.249204
O O5 0.070657 0.694765 0.330665
O O6 0.096306 0.403793 0.410724
O O7 0.025300 0.432224 0.218115
O O8 0.483730 0.821618 0.017515
O O9 0.606668 0.983216 0.150126
O O10 0.087728 0.103682 0.135378
#
# Coordination Sequence:
#
# PCOD9459692 Si02
#       5
#     8   8   8   8   8
#     4   9  21  40  60  86 122 158 199 252 296 360
#     4  11  20  41  61  90 121 161 200 246 304 355
#     4  11  20  36  65  86 120 159 192 253 294 356
#     4   9  22  38  62  86 122 155 207 245 301 359
#     4  10  20  41  60  86 120 160 195 251 305 350
#
# _framework density 23.510190999999999
#
# number of rings (size 3 to 8) (size 9 to 14) (size 15 to 20)
#    1.200    0.800    2.000    1.800    0.000    0.000 
#    7.200    9.000    4.400    0.000    0.000    0.000 
#    0.000    0.000    0.000    0.000    0.000    0.000 
#
# Total GULP energy -222957.860143 kJ/mol
# GULP energy per Si atom -5573.946504 kJ/mol
# Density = 2.345668 g / cm^3
# Si number density = 23.510191 Si / 1000 Ang^3
#
#
#
# Elastic Constant Matrix: (Units=GPa)
#
#
# Indices 1 2 3 4 5 6 
#
# 1 86.0425 37.3869 2.7634 0.0000 0.0000 0.0000
# 2 37.3869 86.8507 14.9270 0.0000 0.0000 0.0000
# 3 2.7634 14.9270 43.8594 0.0000 0.0000 0.0000
# 4 0.0000 0.0000 0.0000 9.2135 0.0000 0.0000
# 5 0.0000 0.0000 0.0000 0.0000 12.7705 0.0000
# 6 0.0000 0.0000 0.0000 0.0000 0.0000 51.8250
#
#
#
# Elastic Compliance Matrix: (Units=1/GPa)
#
#
# Indices 1 2 3 4 5 6 
#
# 1 0.014363 -0.006402 0.001274 0.000000 0.000000 0.000000
# 2 -0.006402 0.015083 -0.004730 0.000000 0.000000 0.000000
# 3 0.001274 -0.004730 0.024330 0.000000 0.000000 0.000000
# 4 0.000000 0.000000 0.000000 0.108536 0.000000 0.000000
# 5 0.000000 0.000000 0.000000 0.000000 0.078305 0.000000
# 6 0.000000 0.000000 0.000000 0.000000 0.000000 0.019296
#
#
# Mechanical properties :
#
#
# Convention : Reuss Voigt Hill
#
# Bulk Modulus (GPa) = 29.36029 36.32303 32.84166
# Shear Modulus (GPa) = 17.18324 25.54018 21.36171
#
# Velocity S-wave (km/s) = 2.70642 3.29955 3.01759
# Velocity P-wave (km/s) = 4.72035 5.47718 5.11279
#
# Compressibility (1/GPa) = 0.03405960
#
# Stress axis : x y z
#
# Youngs Moduli (GPa) = 69.62364 66.30094 41.10219
#
# Poissons Ratio (x) = 0.42445 -0.05236
# Poissons Ratio (y) = 0.44572 0.19441
# Poissons Ratio (z) = -0.08869 0.31359
#
# Static dielectric constant tensor:
#      x y z
#    x 1.941340 0.000000 0.000000 
#    y 0.000000 1.929670 0.000000 
#    z 0.000000 0.000000 1.910510 
# 
# From -- ./inp_files/6088.got.cif
#   From: 2010.05.17/outbox.cif.g08.bks.cpg/sg61_4_cif.got.tgz:6088.got - 2010.06.03 15:17:17.
