data_PCOD9459134
_publ_section_title
;
Structure prediction by ZEFSAII (Michael W. Deem and Ramdas Pophale) SiO2 
 PCOD9459134
Probable space group: P B C A
;
_chemical_formula_sum "Si O2"
_cell_formula_units_Z 48
_cell_length_a 19.315034
_cell_length_b 5.127647
_cell_length_c 26.038533
_cell_angle_alpha 90.000000
_cell_angle_beta 90.000000
_cell_angle_gamma 90.000000
_cell_volume 2578.873914
_symmetry_space_group_name_H-M "P B C A"
_symmetry_group_IT_number 61
_symmetry_cell_setting 'orthorhombic'
loop_
_space_group_symop_operation_xyz
x,y,z
1/2-x,-y,1/2+z
1/2+x,1/2-y,-z
-x,1/2+y,1/2-z
-x,-y,-z
1/2+x,y,1/2-z
1/2-x,1/2+y,z
x,1/2-y,1/2+z
loop_
_atom_site_type_symbol
_atom_site_label
_atom_site_fract_x
_atom_site_fract_y
_atom_site_fract_z
Si Si1 0.792963 0.458573 0.423916
Si Si2 0.090998 0.744445 0.000212
Si Si3 0.522240 0.288335 0.172059
Si Si4 0.408747 0.020143 0.233315
Si Si5 0.123921 0.009468 0.179124
Si Si6 0.945681 0.743467 0.057966
O O1 0.770842 0.758886 0.429390
O O2 0.847995 0.356993 0.465150
O O3 0.826243 0.439131 0.367342
O O4 0.100409 0.468136 0.972203
O O5 0.074555 0.964061 0.957721
O O6 0.024037 0.710330 0.036885
O O7 0.484435 0.064636 0.206213
O O8 0.575711 0.431860 0.209317
O O9 0.455788 0.472842 0.159915
O O10 0.553954 0.199668 0.118703
O O11 0.369689 0.796331 0.201799
O O12 0.371293 0.294198 0.224102
#
# Coordination Sequence:
#
# PCOD9459134 Si02
#       6
#     8   8   8   8   8   8
#     4  12  24  39  60  79 109 152 195 230 278 333
#     4  10  21  37  48  84 105 146 173 236 273 327
#     4  10  19  31  53  86 111 154 164 216 283 344
#     4  10  19  30  53  79 123 138 172 212 276 332
#     4  10  20  34  50  80 113 143 177 232 264 335
#     4  10  21  31  58  74 121 135 175 222 293 335
#
# _framework density 18.612777000000001
#
# number of rings (size 3 to 8) (size 9 to 14) (size 15 to 20)
#    1.000    0.667    3.333    2.000    2.333    1.333 
#    0.000    0.000    0.000    0.000    0.000   23.333 
#    0.000    0.000    0.000    0.000    0.000    0.000 
#
# Total GULP energy -267575.068747 kJ/mol
# GULP energy per Si atom -5574.480599 kJ/mol
# Density = 1.857041 g / cm^3
# Si number density = 18.612777 Si / 1000 Ang^3
#
#
#
# Elastic Constant Matrix: (Units=GPa)
#
#
# Indices 1 2 3 4 5 6 
#
# 1 18.8259 -13.3104 8.8658 0.0000 0.0000 0.0000
# 2 -13.3104 45.0476 12.5260 0.0000 0.0000 0.0000
# 3 8.8658 12.5260 95.3105 0.0000 0.0000 0.0000
# 4 0.0000 0.0000 0.0000 10.6610 0.0000 0.0000
# 5 0.0000 0.0000 0.0000 0.0000 24.0869 0.0000
# 6 0.0000 0.0000 0.0000 0.0000 0.0000 22.7910
#
#
#
# Elastic Compliance Matrix: (Units=1/GPa)
#
#
# Indices 1 2 3 4 5 6 
#
# 1 0.075912 0.025319 -0.010389 0.000000 0.000000 0.000000
# 2 0.025319 0.031485 -0.006493 0.000000 0.000000 0.000000
# 3 -0.010389 -0.006493 0.012312 0.000000 0.000000 0.000000
# 4 0.000000 0.000000 0.000000 0.093800 0.000000 0.000000
# 5 0.000000 0.000000 0.000000 0.000000 0.041516 0.000000
# 6 0.000000 0.000000 0.000000 0.000000 0.000000 0.043877
#
#
# Mechanical properties :
#
#
# Convention : Reuss Voigt Hill
#
# Bulk Modulus (GPa) = 7.32156 19.48297 13.40227
# Shear Modulus (GPa) = 15.26456 21.58129 18.42292
#
# Velocity S-wave (km/s) = 2.86687 3.40882 3.14952
# Velocity P-wave (km/s) = 3.86015 5.09742 4.52130
#
# Compressibility (1/GPa) = 0.13658284
#
# Stress axis : x y z
#
# Youngs Moduli (GPa) = 13.17316 31.76087 81.22336
#
# Poissons Ratio (x) = -0.80415 0.84381
# Poissons Ratio (y) = -0.33353 0.52739
# Poissons Ratio (z) = 0.13685 0.20622
#
# Static dielectric constant tensor:
#      x y z
#    x 1.653910 0.000000 0.000000 
#    y 0.000000 1.667790 0.000000 
#    z 0.000000 0.000000 1.623950 
# 
# From -- ./inp_files/11531.got.cif
#   From: 2010.05.17/outbox.cif.g08.bks.cpg/sg61_6_cif.got.tgz:11531.got - 2010.06.03 15:17:17.
