data_PCOD9459724
_publ_section_title
;
Structure prediction by ZEFSAII (Michael W. Deem and Ramdas Pophale) SiO2 
 PCOD9459724
Probable space group: P B C A
;
_chemical_formula_sum "Si O2"
_cell_formula_units_Z 52
_cell_length_a 16.156955
_cell_length_b 9.159485
_cell_length_c 14.598259
_cell_angle_alpha 90.000000
_cell_angle_beta 90.000000
_cell_angle_gamma 90.000000
_cell_volume 2160.387400
_symmetry_space_group_name_H-M "P B C A"
_symmetry_group_IT_number 61
_symmetry_cell_setting 'orthorhombic'
loop_
_space_group_symop_operation_xyz
x,y,z
1/2-x,-y,1/2+z
1/2+x,1/2-y,-z
-x,1/2+y,1/2-z
-x,-y,-z
1/2+x,y,1/2-z
1/2-x,1/2+y,z
x,1/2-y,1/2+z
loop_
_atom_site_type_symbol
_atom_site_label
_atom_site_fract_x
_atom_site_fract_y
_atom_site_fract_z
Si Si1 0.603966 0.210993 0.725179
Si Si2 0.358690 0.741512 0.489155
Si Si3 0.739220 0.626591 0.264560
Si Si4 0.765023 0.461119 0.966776
Si Si5 0.500000 0.500000 0.500000
Si Si6 0.661795 0.622405 0.656396
Si Si7 0.988819 0.457492 0.807510
O O1 0.630272 0.235291 0.619904
O O2 0.681848 0.267013 0.781738
O O3 0.527313 0.319278 0.742574
O O4 0.574239 0.050771 0.748969
O O5 0.328874 0.899450 0.524276
O O6 0.283089 0.630303 0.511990
O O7 0.437994 0.647231 0.520551
O O8 0.710936 0.574944 0.363315
O O9 0.776617 0.493098 0.205865
O O10 0.676466 0.724566 0.205785
O O11 0.816102 0.383764 0.049323
O O12 0.537749 0.581400 0.409806
O O13 0.569716 0.558208 0.666189
#
# Coordination Sequence:
#
# PCOD9459724 Si02
#       7
#     8   8   8   8   4   8   8
#     4  10  21  42  59  95 127 176 214 278 326 411
#     4  11  23  41  68  93 140 170 231 279 340 399
#     4  11  23  37  69  93 127 170 221 264 344 391
#     4  12  21  43  65  99 131 180 217 287 335 407
#     4  10  20  42  62  94 124 182 216 278 330 424
#     4  11  22  43  60  99 129 162 223 281 317 413
#     4  10  22  40  64  86 134 168 223 267 342 390
#
# _framework density 24.069756000000002
#
# number of rings (size 3 to 8) (size 9 to 14) (size 15 to 20)
#    0.000    1.231    6.154    1.846    0.000    3.692 
#    2.769    0.000    0.000    6.462    0.000    0.000 
#    0.000    0.000    0.000    0.000    0.000    0.000 
#
# Total GULP energy -289730.926564 kJ/mol
# GULP energy per Si atom -5571.748588 kJ/mol
# Density = 2.401497 g / cm^3
# Si number density = 24.069756 Si / 1000 Ang^3
#
#
#
# Elastic Constant Matrix: (Units=GPa)
#
#
# Indices 1 2 3 4 5 6 
#
# 1 83.8789 32.4203 25.7322 0.0000 0.0000 0.0000
# 2 32.4203 79.8880 23.3679 0.0000 0.0000 0.0000
# 3 25.7322 23.3679 123.6340 0.0000 0.0000 0.0000
# 4 0.0000 0.0000 0.0000 23.8759 0.0000 0.0000
# 5 0.0000 0.0000 0.0000 0.0000 61.9859 0.0000
# 6 0.0000 0.0000 0.0000 0.0000 0.0000 91.9330
#
#
#
# Elastic Compliance Matrix: (Units=1/GPa)
#
#
# Indices 1 2 3 4 5 6 
#
# 1 0.014607 -0.005333 -0.002032 0.000000 0.000000 0.000000
# 2 -0.005333 0.015197 -0.001762 0.000000 0.000000 0.000000
# 3 -0.002032 -0.001762 0.008844 0.000000 0.000000 0.000000
# 4 0.000000 0.000000 0.000000 0.041883 0.000000 0.000000
# 5 0.000000 0.000000 0.000000 0.000000 0.016133 0.000000
# 6 0.000000 0.000000 0.000000 0.000000 0.000000 0.010877
#
#
# Mechanical properties :
#
#
# Convention : Reuss Voigt Hill
#
# Bulk Modulus (GPa) = 49.03655 50.04910 49.54282
# Shear Modulus (GPa) = 37.70867 49.28431 43.49649
#
# Velocity S-wave (km/s) = 3.96238 4.52991 4.25561
# Velocity P-wave (km/s) = 6.43046 6.94252 6.69139
#
# Compressibility (1/GPa) = 0.02039295
#
# Stress axis : x y z
#
# Youngs Moduli (GPa) = 68.46139 65.80051 113.06535
#
# Poissons Ratio (x) = 0.35094 0.22976
# Poissons Ratio (y) = 0.36513 0.19927
# Poissons Ratio (z) = 0.13912 0.11597
#
# Static dielectric constant tensor:
#      x y z
#    x 2.019400 0.000000 0.000000 
#    y 0.000000 1.878380 0.000000 
#    z 0.000000 0.000000 1.354850 
# 
# From -- ./inp_files/8341.got.cif
#   From: 2010.05.17/outbox.cif.g08.bks.cpg/sg61_5_cif.got.tgz:8341.got - 2010.06.03 15:17:17.
