data_PCOD9459512
_publ_section_title
;
Structure prediction by ZEFSAII (Michael W. Deem and Ramdas Pophale) SiO2 
 PCOD9459512
Probable space group: P B C A
;
_chemical_formula_sum "Si O2"
_cell_formula_units_Z 32
_cell_length_a 9.704281
_cell_length_b 12.745107
_cell_length_c 9.706364
_cell_angle_alpha 90.000000
_cell_angle_beta 90.000000
_cell_angle_gamma 90.000000
_cell_volume 1200.503480
_symmetry_space_group_name_H-M "P B C A"
_symmetry_group_IT_number 61
_symmetry_cell_setting 'orthorhombic'
loop_
_space_group_symop_operation_xyz
x,y,z
1/2-x,-y,1/2+z
1/2+x,1/2-y,-z
-x,1/2+y,1/2-z
-x,-y,-z
1/2+x,y,1/2-z
1/2-x,1/2+y,z
x,1/2-y,1/2+z
loop_
_atom_site_type_symbol
_atom_site_label
_atom_site_fract_x
_atom_site_fract_y
_atom_site_fract_z
Si Si1 0.168465 0.523897 0.079427
Si Si2 0.493233 0.295709 0.120803
Si Si3 0.676029 0.230287 0.875946
Si Si4 0.605197 0.997449 0.217666
O O1 0.169431 0.395254 0.086076
O O2 0.286784 0.555581 0.185916
O O3 0.021711 0.554491 0.144356
O O4 0.181103 0.551517 0.917794
O O5 0.339153 0.246552 0.112622
O O6 0.609425 0.256682 0.226551
O O7 0.460047 0.411009 0.181350
O O8 0.568669 0.287244 0.976303
#
# Coordination Sequence:
#
# PCOD9459512 Si02
#       4
#     8   8   8   8
#     4   9  19  37  59  89 120 154 196 241 293 354
#     4  10  20  37  60  88 121 157 196 247 297 356
#     4  10  20  37  60  87 121 157 197 242 298 355
#     4   9  19  37  59  85 120 155 195 242 292 346
#
# _framework density 26.655481000000002
#
# number of rings (size 3 to 8) (size 9 to 14) (size 15 to 20)
#    0.000    2.500    0.000    1.500    0.000    3.000 
#    0.000   30.000    0.000    0.000    0.000    0.000 
#    0.000    0.000    0.000    0.000    0.000    0.000 
#
# Total GULP energy -179162.622121 kJ/mol
# GULP energy per Si atom -5598.831941 kJ/mol
# Density = 2.659481 g / cm^3
# Si number density = 26.655481 Si / 1000 Ang^3
#
#
#
# Elastic Constant Matrix: (Units=GPa)
#
#
# Indices 1 2 3 4 5 6 
#
# 1 224.2614 24.1939 64.6807 0.0000 0.0000 0.0000
# 2 24.1939 58.5427 -11.3917 0.0000 0.0000 0.0000
# 3 64.6807 -11.3917 101.0277 0.0000 0.0000 0.0000
# 4 0.0000 0.0000 0.0000 42.9889 0.0000 0.0000
# 5 0.0000 0.0000 0.0000 0.0000 62.5047 0.0000
# 6 0.0000 0.0000 0.0000 0.0000 0.0000 45.6298
#
#
#
# Elastic Compliance Matrix: (Units=1/GPa)
#
#
# Indices 1 2 3 4 5 6 
#
# 1 0.006041 -0.003322 -0.004242 0.000000 0.000000 0.000000
# 2 -0.003322 0.019292 0.004302 0.000000 0.000000 0.000000
# 3 -0.004242 0.004302 0.013099 0.000000 0.000000 0.000000
# 4 0.000000 0.000000 0.000000 0.023262 0.000000 0.000000
# 5 0.000000 0.000000 0.000000 0.000000 0.015999 0.000000
# 6 0.000000 0.000000 0.000000 0.000000 0.000000 0.021915
#
#
# Mechanical properties :
#
#
# Convention : Reuss Voigt Hill
#
# Bulk Modulus (GPa) = 31.34033 59.86639 45.60336
# Shear Modulus (GPa) = 42.81990 50.64794 46.73392
#
# Velocity S-wave (km/s) = 4.01237 4.36374 4.19173
# Velocity P-wave (km/s) = 5.76615 6.92081 6.36970
#
# Compressibility (1/GPa) = 0.03190777
#
# Stress axis : x y z
#
# Youngs Moduli (GPa) = 165.53575 51.83605 76.33968
#
# Poissons Ratio (x) = 0.17220 0.32385
# Poissons Ratio (y) = 0.54992 -0.32842
# Poissons Ratio (z) = 0.70224 -0.22301
#
# Static dielectric constant tensor:
#      x y z
#    x 2.048280 0.000000 0.000000 
#    y 0.000000 2.381630 0.000000 
#    z 0.000000 0.000000 1.934710 
# 
# From -- ./inp_files/1671.got.cif
#   From: 2010.05.17/outbox.cif.g08.bks.cpg/sg61_1_cif.got.tgz:1671.got - 2010.06.03 15:17:17.
