data_PCOD9459752
_publ_section_title
;
Structure prediction by ZEFSAII (Michael W. Deem and Ramdas Pophale) SiO2 
 PCOD9459752
Probable space group: P B C A
;
_chemical_formula_sum "Si O2"
_cell_formula_units_Z 64
_cell_length_a 13.903075
_cell_length_b 31.329453
_cell_length_c 5.662780
_cell_angle_alpha 90.000000
_cell_angle_beta 90.000000
_cell_angle_gamma 90.000000
_cell_volume 2466.569559
_symmetry_space_group_name_H-M "P B C A"
_symmetry_group_IT_number 61
_symmetry_cell_setting 'orthorhombic'
loop_
_space_group_symop_operation_xyz
x,y,z
1/2-x,-y,1/2+z
1/2+x,1/2-y,-z
-x,1/2+y,1/2-z
-x,-y,-z
1/2+x,y,1/2-z
1/2-x,1/2+y,z
x,1/2-y,1/2+z
loop_
_atom_site_type_symbol
_atom_site_label
_atom_site_fract_x
_atom_site_fract_y
_atom_site_fract_z
Si Si1 0.494996 0.262626 0.171702
Si Si2 0.503152 0.432725 0.635210
Si Si3 0.037169 0.645858 0.870744
Si Si4 0.710532 0.444728 0.129754
Si Si5 0.847887 0.402786 0.504832
Si Si6 0.626487 0.496026 0.501651
Si Si7 0.752846 0.143903 0.395218
Si Si8 0.709874 0.263718 0.055949
O O1 0.452049 0.237655 0.402455
O O2 0.502050 0.309845 0.280127
O O3 0.602866 0.246346 0.113100
O O4 0.525338 0.386194 0.530287
O O5 0.414615 0.427652 0.812843
O O6 0.597794 0.459921 0.695767
O O7 0.448030 0.465364 0.459771
O O8 0.071263 0.620568 0.644189
O O9 0.138591 0.651303 0.006198
O O10 0.781177 0.432292 0.349125
O O11 0.623634 0.468250 0.259514
O O12 0.704012 0.398514 0.004793
O O13 0.772199 0.480031 0.993630
O O14 0.776537 0.368425 0.626646
O O15 0.701675 0.187210 0.470661
O O16 0.754467 0.259597 0.322485
#
# Coordination Sequence:
#
# PCOD9459752 Si02
#       8
#     8   8   8   8   8   8   8   8
#     4  10  24  44  67 100 136 175 221 278 336 408
#     4  10  22  42  60  93 128 168 217 274 325 403
#     4  10  22  41  65  93 130 168 215 276 333 399
#     4  11  23  41  61  94 130 174 217 281 329 407
#     4  10  20  43  61  90 129 169 216 269 332 396
#     4  11  22  41  63  89 130 168 221 270 329 392
#     4  10  23  41  64  94 129 170 217 271 339 399
#     4  10  24  45  68  99 137 174 222 279 335 412
#
# _framework density 25.946967000000001
#
# number of rings (size 3 to 8) (size 9 to 14) (size 15 to 20)
#    0.000    1.750    3.750    0.750    8.750    1.500 
#    4.500    0.000    0.000    0.000    0.000    0.000 
#    0.000    0.000    0.000    0.000    0.000    0.000 
#
# Total GULP energy -356940.503008 kJ/mol
# GULP energy per Si atom -5577.195360 kJ/mol
# Density = 2.588791 g / cm^3
# Si number density = 25.946967 Si / 1000 Ang^3
#
#
#
# Elastic Constant Matrix: (Units=GPa)
#
#
# Indices 1 2 3 4 5 6 
#
# 1 63.8076 15.2635 4.8447 0.0000 0.0000 0.0000
# 2 15.2635 150.3026 42.2950 0.0000 0.0000 0.0000
# 3 4.8447 42.2950 96.6839 0.0000 0.0000 0.0000
# 4 0.0000 0.0000 0.0000 12.6139 0.0000 0.0000
# 5 0.0000 0.0000 0.0000 0.0000 21.2146 0.0000
# 6 0.0000 0.0000 0.0000 0.0000 0.0000 35.7014
#
#
#
# Elastic Compliance Matrix: (Units=1/GPa)
#
#
# Indices 1 2 3 4 5 6 
#
# 1 0.016063 -0.001602 -0.000104 0.000000 0.000000 0.000000
# 2 -0.001602 0.007747 -0.003309 0.000000 0.000000 0.000000
# 3 -0.000104 -0.003309 0.011796 0.000000 0.000000 0.000000
# 4 0.000000 0.000000 0.000000 0.079277 0.000000 0.000000
# 5 0.000000 0.000000 0.000000 0.000000 0.047137 0.000000
# 6 0.000000 0.000000 0.000000 0.000000 0.000000 0.028010
#
#
# Mechanical properties :
#
#
# Convention : Reuss Voigt Hill
#
# Bulk Modulus (GPa) = 39.09871 48.40004 43.74938
# Shear Modulus (GPa) = 23.97096 30.46537 27.21817
#
# Velocity S-wave (km/s) = 3.04278 3.43029 3.24233
# Velocity P-wave (km/s) = 5.23890 5.86371 5.56009
#
# Compressibility (1/GPa) = 0.02557629
#
# Stress axis : x y z
#
# Youngs Moduli (GPa) = 62.25397 129.08243 84.77732
#
# Poissons Ratio (x) = 0.20678 0.00883
# Poissons Ratio (y) = 0.09973 0.28050
# Poissons Ratio (z) = 0.00648 0.42709
#
# Static dielectric constant tensor:
#      x y z
#    x 2.193880 0.000000 0.000000 
#    y 0.000000 2.026980 0.000000 
#    z 0.000000 0.000000 0.951260 
# 
# From -- ./inp_files/866.got.cif
#   From: 2010.05.17/outbox.cif.g08.bks.cpg/sg61_1_cif.got.tgz:866.got - 2010.06.03 15:17:17.
