data_PCOD9459409
_publ_section_title
;
Structure prediction by ZEFSAII (Michael W. Deem and Ramdas Pophale) SiO2 
 PCOD9459409
Probable space group: P B C A
;
_chemical_formula_sum "Si O2"
_cell_formula_units_Z 48
_cell_length_a 16.218992
_cell_length_b 5.006095
_cell_length_c 29.933046
_cell_angle_alpha 90.000000
_cell_angle_beta 90.000000
_cell_angle_gamma 90.000000
_cell_volume 2430.378192
_symmetry_space_group_name_H-M "P B C A"
_symmetry_group_IT_number 61
_symmetry_cell_setting 'orthorhombic'
loop_
_space_group_symop_operation_xyz
x,y,z
1/2-x,-y,1/2+z
1/2+x,1/2-y,-z
-x,1/2+y,1/2-z
-x,-y,-z
1/2+x,y,1/2-z
1/2-x,1/2+y,z
x,1/2-y,1/2+z
loop_
_atom_site_type_symbol
_atom_site_label
_atom_site_fract_x
_atom_site_fract_y
_atom_site_fract_z
Si Si1 0.195945 0.967542 0.766381
Si Si2 0.530198 0.749933 0.028382
Si Si3 0.195439 0.573586 0.161060
Si Si4 0.480127 0.930814 0.126443
Si Si5 0.423982 0.537488 0.844048
Si Si6 0.193510 0.908640 0.925455
O O1 0.271082 0.170868 0.776145
O O2 0.176310 0.968192 0.713746
O O3 0.120717 0.060544 0.796805
O O4 0.492722 0.806875 0.077331
O O5 0.626230 0.689297 0.038621
O O6 0.500000 0.500000 0.000000
O O7 0.500000 0.000000 0.000000
O O8 0.231515 0.864694 0.151817
O O9 0.113116 0.518058 0.133999
O O10 0.505408 0.686769 0.158625
O O11 0.539019 0.186918 0.136278
O O12 0.355494 0.416824 0.878306
O O13 0.230826 0.204106 0.928818
#
# Coordination Sequence:
#
# PCOD9459409 Si02
#       6
#     8   8   8   8   8   8
#     4  10  20  35  56  85 121 159 193 232 284 335
#     4  11  23  42  62  84 118 153 189 243 300 353
#     4  10  22  40  59  82 117 157 199 242 280 334
#     4  11  23  39  60  86 113 154 197 238 300 349
#     4  11  21  35  59  89 120 152 189 236 289 353
#     4  11  21  37  60  88 117 147 186 233 288 348
#
# _framework density 19.750012000000002
#
# number of rings (size 3 to 8) (size 9 to 14) (size 15 to 20)
#    0.000    1.333    0.000    8.000    0.000    1.333 
#    0.000    5.000    0.000    0.000    0.000    0.000 
#    0.000    0.000    0.000    0.000    0.000    0.000 
#
# Total GULP energy -267956.894992 kJ/mol
# GULP energy per Si atom -5582.435312 kJ/mol
# Density = 1.970506 g / cm^3
# Si number density = 19.750012 Si / 1000 Ang^3
#
#
#
# Elastic Constant Matrix: (Units=GPa)
#
#
# Indices 1 2 3 4 5 6 
#
# 1 55.2787 -11.9142 22.0072 0.0000 0.0000 0.0000
# 2 -11.9142 89.8202 3.1074 0.0000 0.0000 0.0000
# 3 22.0072 3.1074 33.5960 0.0000 0.0000 0.0000
# 4 0.0000 0.0000 0.0000 23.0606 0.0000 0.0000
# 5 0.0000 0.0000 0.0000 0.0000 31.5405 0.0000
# 6 0.0000 0.0000 0.0000 0.0000 0.0000 36.1340
#
#
#
# Elastic Compliance Matrix: (Units=1/GPa)
#
#
# Indices 1 2 3 4 5 6 
#
# 1 0.025847 0.004027 -0.017304 0.000000 0.000000 0.000000
# 2 0.004027 0.011797 -0.003729 0.000000 0.000000 0.000000
# 3 -0.017304 -0.003729 0.041445 0.000000 0.000000 0.000000
# 4 0.000000 0.000000 0.000000 0.043364 0.000000 0.000000
# 5 0.000000 0.000000 0.000000 0.000000 0.031705 0.000000
# 6 0.000000 0.000000 0.000000 0.000000 0.000000 0.027675
#
#
# Mechanical properties :
#
#
# Convention : Reuss Voigt Hill
#
# Bulk Modulus (GPa) = 22.18401 22.78838 22.48620
# Shear Modulus (GPa) = 21.65723 29.17999 25.41861
#
# Velocity S-wave (km/s) = 3.31504 3.84795 3.59139
# Velocity P-wave (km/s) = 5.09013 5.59516 5.34861
#
# Compressibility (1/GPa) = 0.04507751
#
# Stress axis : x y z
#
# Youngs Moduli (GPa) = 38.68929 84.77060 24.12824
#
# Poissons Ratio (x) = -0.34138 0.41751
# Poissons Ratio (y) = -0.15581 0.08998
# Poissons Ratio (z) = 0.66947 0.31611
#
# Static dielectric constant tensor:
#      x y z
#    x 1.713090 0.000000 0.000000 
#    y 0.000000 1.688990 0.000000 
#    z 0.000000 0.000000 1.728880 
# 
# From -- ./inp_files/11493.got.cif
#   From: 2010.05.17/outbox.cif.g08.bks.cpg/sg61_6_cif.got.tgz:11493.got - 2010.06.03 15:17:17.
