data_PCOD9459785
_publ_section_title
;
Structure prediction by ZEFSAII (Michael W. Deem and Ramdas Pophale) SiO2 
 PCOD9459785
Probable space group: P B C A
;
_chemical_formula_sum "Si O2"
_cell_formula_units_Z 64
_cell_length_a 13.071204
_cell_length_b 13.706408
_cell_length_c 19.632328
_cell_angle_alpha 90.000000
_cell_angle_beta 90.000000
_cell_angle_gamma 90.000000
_cell_volume 3517.313260
_symmetry_space_group_name_H-M "P B C A"
_symmetry_group_IT_number 61
_symmetry_cell_setting 'orthorhombic'
loop_
_space_group_symop_operation_xyz
x,y,z
1/2-x,-y,1/2+z
1/2+x,1/2-y,-z
-x,1/2+y,1/2-z
-x,-y,-z
1/2+x,y,1/2-z
1/2-x,1/2+y,z
x,1/2-y,1/2+z
loop_
_atom_site_type_symbol
_atom_site_label
_atom_site_fract_x
_atom_site_fract_y
_atom_site_fract_z
Si Si1 0.311678 0.542277 0.960142
Si Si2 0.394587 0.251120 0.282196
Si Si3 0.582791 0.231034 0.188375
Si Si4 0.633374 0.476148 0.892017
Si Si5 0.516350 0.831009 0.430694
Si Si6 0.427763 0.351398 0.922771
Si Si7 0.749247 0.598974 0.676527
Si Si8 0.236581 0.409394 0.748169
O O1 0.413983 0.606505 0.947087
O O2 0.343216 0.433238 0.938729
O O3 0.232887 0.580462 0.903872
O O4 0.296332 0.542594 0.041043
O O5 0.505741 0.246780 0.250440
O O6 0.395572 0.214244 0.359935
O O7 0.349001 0.359336 0.284669
O O8 0.319423 0.177150 0.241958
O O9 0.515390 0.245350 0.120401
O O10 0.665558 0.317729 0.184950
O O11 0.646139 0.133583 0.203812
O O12 0.593210 0.588673 0.897163
O O13 0.531674 0.409321 0.901860
O O14 0.689808 0.445567 0.823115
O O15 0.555596 0.798883 0.504768
O O16 0.785381 0.500414 0.712419
#
# Coordination Sequence:
#
# PCOD9459785 Si02
#       8
#     8   8   8   8   8   8   8   8
#     4   8  15  31  53  76 102 135 183 218 258 319
#     4  11  21  33  55  82 106 146 182 217 279 322
#     4  10  21  36  53  80 111 135 180 227 259 331
#     4   9  16  30  56  81 103 140 176 225 264 309
#     4   8  16  30  56  79 100 138 180 214 263 316
#     4   9  15  31  55  78 102 140 180 217 263 314
#     4  10  21  35  54  78 109 145 179 218 275 326
#     4  11  21  34  56  78 111 142 176 225 279 317
#
# _framework density 18.195706000000001
#
# number of rings (size 3 to 8) (size 9 to 14) (size 15 to 20)
#    0.000    2.500    2.500    2.250    0.000    1.000 
#    2.250    0.000    2.750    0.750    0.000    0.000 
#    0.000    0.000    0.000    0.000    0.000    0.000 
#
# Total GULP energy -356436.559875 kJ/mol
# GULP energy per Si atom -5569.321248 kJ/mol
# Density = 1.815429 g / cm^3
# Si number density = 18.195706 Si / 1000 Ang^3
#
#
#
# Elastic Constant Matrix: (Units=GPa)
#
#
# Indices 1 2 3 4 5 6 
#
# 1 18.5962 -7.8446 7.8720 0.0000 0.0000 0.0000
# 2 -7.8446 19.3328 24.3839 0.0000 0.0000 0.0000
# 3 7.8720 24.3839 120.8457 0.0000 0.0000 0.0000
# 4 0.0000 0.0000 0.0000 26.1275 0.0000 0.0000
# 5 0.0000 0.0000 0.0000 0.0000 28.1090 0.0000
# 6 0.0000 0.0000 0.0000 0.0000 0.0000 8.6766
#
#
#
# Elastic Compliance Matrix: (Units=1/GPa)
#
#
# Indices 1 2 3 4 5 6 
#
# 1 0.083966 0.054955 -0.016558 0.000000 0.000000 0.000000
# 2 0.054955 0.105351 -0.024837 0.000000 0.000000 0.000000
# 3 -0.016558 -0.024837 0.014365 0.000000 0.000000 0.000000
# 4 0.000000 0.000000 0.000000 0.038274 0.000000 0.000000
# 5 0.000000 0.000000 0.000000 0.000000 0.035576 0.000000
# 6 0.000000 0.000000 0.000000 0.000000 0.000000 0.115252
#
#
# Mechanical properties :
#
#
# Convention : Reuss Voigt Hill
#
# Bulk Modulus (GPa) = 4.33272 23.06637 13.69955
# Shear Modulus (GPa) = 11.29690 21.54018 16.41854
#
# Velocity S-wave (km/s) = 2.49440 3.44438 3.00714
# Velocity P-wave (km/s) = 3.26839 5.34066 4.42748
#
# Compressibility (1/GPa) = 0.23080171
#
# Stress axis : x y z
#
# Youngs Moduli (GPa) = 11.90958 9.49205 69.61235
#
# Poissons Ratio (x) = -0.52164 1.15267
# Poissons Ratio (y) = -0.65449 1.72899
# Poissons Ratio (z) = 0.19720 0.23576
#
# Static dielectric constant tensor:
#      x y z
#    x 1.629010 0.000000 0.000000 
#    y 0.000000 1.621620 0.000000 
#    z 0.000000 0.000000 1.652440 
# 
# From -- ./inp_files/8013.got.cif
#   From: 2010.05.17/outbox.cif.g08.bks.cpg/sg61_5_cif.got.tgz:8013.got - 2010.06.03 15:17:17.
