data_PCOD9459303
_publ_section_title
;
Structure prediction by ZEFSAII (Michael W. Deem and Ramdas Pophale) SiO2 
 PCOD9459303
Probable space group: P B C A
;
_chemical_formula_sum "Si O2"
_cell_formula_units_Z 48
_cell_length_a 13.297775
_cell_length_b 9.777345
_cell_length_c 14.636493
_cell_angle_alpha 90.000000
_cell_angle_beta 90.000000
_cell_angle_gamma 90.000000
_cell_volume 1902.991943
_symmetry_space_group_name_H-M "P B C A"
_symmetry_group_IT_number 61
_symmetry_cell_setting 'orthorhombic'
loop_
_space_group_symop_operation_xyz
x,y,z
1/2-x,-y,1/2+z
1/2+x,1/2-y,-z
-x,1/2+y,1/2-z
-x,-y,-z
1/2+x,y,1/2-z
1/2-x,1/2+y,z
x,1/2-y,1/2+z
loop_
_atom_site_type_symbol
_atom_site_label
_atom_site_fract_x
_atom_site_fract_y
_atom_site_fract_z
Si Si1 0.144068 0.977692 0.814431
Si Si2 0.946698 0.903258 0.893907
Si Si3 0.954663 0.064297 0.382422
Si Si4 0.377605 0.831164 0.986687
Si Si5 0.676628 0.677357 0.915931
Si Si6 0.310545 0.766944 0.756339
O O1 0.241998 0.885579 0.799543
O O2 0.066168 0.917357 0.887392
O O3 0.081553 0.963486 0.719399
O O4 0.166574 0.139079 0.822723
O O5 0.909756 0.818478 0.981003
O O6 0.901649 0.826743 0.804473
O O7 0.896104 0.051093 0.898865
O O8 0.068626 0.116892 0.394791
O O9 0.885455 0.183204 0.426209
O O10 0.933034 0.928213 0.438790
O O11 0.259507 0.847300 0.005556
O O12 0.740607 0.698468 0.823079
#
# Coordination Sequence:
#
# PCOD9459303 Si02
#       6
#     8   8   8   8   8   8
#     4  11  22  38  63  92 121 168 212 266 313 378
#     4  11  22  36  64  91 125 164 210 254 316 394
#     4  10  21  35  63  88 117 164 215 254 310 374
#     4  10  20  40  60  87 123 166 209 256 310 382
#     4  10  19  38  62  86 116 167 204 245 319 382
#     4  10  20  37  57  89 121 161 207 252 326 374
#
# _framework density 25.223436
#
# number of rings (size 3 to 8) (size 9 to 14) (size 15 to 20)
#    0.000    1.667    5.000    2.000    4.667    0.667 
#    0.000    1.667    3.667    4.000    0.000    0.000 
#    0.000    0.000    0.000    0.000    0.000    0.000 
#
# Total GULP energy -269045.513528 kJ/mol
# GULP energy per Si atom -5605.114865 kJ/mol
# Density = 2.516603 g / cm^3
# Si number density = 25.223436 Si / 1000 Ang^3
#
#
#
# Elastic Constant Matrix: (Units=GPa)
#
#
# Indices 1 2 3 4 5 6 
#
# 1 148.0147 38.1261 13.1895 0.0000 0.0000 0.0000
# 2 38.1261 135.8745 4.3342 0.0000 0.0000 0.0000
# 3 13.1895 4.3342 83.9289 0.0000 0.0000 0.0000
# 4 0.0000 0.0000 0.0000 11.3805 0.0000 0.0000
# 5 0.0000 0.0000 0.0000 0.0000 47.4871 0.0000
# 6 0.0000 0.0000 0.0000 0.0000 0.0000 36.6752
#
#
#
# Elastic Compliance Matrix: (Units=1/GPa)
#
#
# Indices 1 2 3 4 5 6 
#
# 1 0.007374 -0.002036 -0.001054 0.000000 0.000000 0.000000
# 2 -0.002036 0.007934 -0.000090 0.000000 0.000000 0.000000
# 3 -0.001054 -0.000090 0.012085 0.000000 0.000000 0.000000
# 4 0.000000 0.000000 0.000000 0.087870 0.000000 0.000000
# 5 0.000000 0.000000 0.000000 0.000000 0.021058 0.000000
# 6 0.000000 0.000000 0.000000 0.000000 0.000000 0.027266
#
#
# Mechanical properties :
#
#
# Convention : Reuss Voigt Hill
#
# Bulk Modulus (GPa) = 47.54020 53.23530 50.38775
# Shear Modulus (GPa) = 28.25533 39.91977 34.08755
#
# Velocity S-wave (km/s) = 3.35057 3.98256 3.68016
# Velocity P-wave (km/s) = 5.81868 6.50377 6.17074
#
# Compressibility (1/GPa) = 0.02103483
#
# Stress axis : x y z
#
# Youngs Moduli (GPa) = 135.60561 126.04329 82.74660
#
# Poissons Ratio (x) = 0.25657 0.08720
# Poissons Ratio (y) = 0.27604 0.00743
# Poissons Ratio (z) = 0.14290 0.01132
#
# Static dielectric constant tensor:
#      x y z
#    x 1.959880 0.000000 0.000000 
#    y 0.000000 1.897760 0.000000 
#    z 0.000000 0.000000 2.066480 
# 
# From -- ./inp_files/10414.got.cif
#   From: 2010.05.17/outbox.cif.g08.bks.cpg/sg61_6_cif.got.tgz:10414.got - 2010.06.03 15:17:17.
