data_PCOD9459749
_publ_section_title
;
Structure prediction by ZEFSAII (Michael W. Deem and Ramdas Pophale) SiO2 
 PCOD9459749
Probable space group: P B C A
;
_chemical_formula_sum "Si O2"
_cell_formula_units_Z 40
_cell_length_a 12.546290
_cell_length_b 7.337742
_cell_length_c 17.162381
_cell_angle_alpha 90.000000
_cell_angle_beta 90.000000
_cell_angle_gamma 90.000000
_cell_volume 1579.993493
_symmetry_space_group_name_H-M "P B C A"
_symmetry_group_IT_number 61
_symmetry_cell_setting 'orthorhombic'
loop_
_space_group_symop_operation_xyz
x,y,z
1/2-x,-y,1/2+z
1/2+x,1/2-y,-z
-x,1/2+y,1/2-z
-x,-y,-z
1/2+x,y,1/2-z
1/2-x,1/2+y,z
x,1/2-y,1/2+z
loop_
_atom_site_type_symbol
_atom_site_label
_atom_site_fract_x
_atom_site_fract_y
_atom_site_fract_z
Si Si1 0.379630 0.116872 0.150235
Si Si2 0.167250 0.505764 0.699873
Si Si3 0.611106 0.599494 0.523646
Si Si4 0.880221 0.836331 0.643038
Si Si5 0.470460 0.046655 0.410377
O O1 0.371361 0.287487 0.208198
O O2 0.287574 0.977128 0.169080
O O3 0.502965 0.067752 0.154185
O O4 0.352277 0.171673 0.060529
O O5 0.174033 0.385101 0.776769
O O6 0.079113 0.427885 0.639377
O O7 0.500000 0.500000 0.500000
O O8 0.672042 0.439568 0.569378
O O9 0.593776 0.766873 0.581602
O O10 0.906682 0.626528 0.624560
O O11 0.500000 0.000000 0.500000
#
# Coordination Sequence:
#
# PCOD9459749 Si02
#       5
#     8   8   8   8   8
#     4  10  24  43  67 100 133 187 228 279 351 413
#     4  11  25  42  67 103 141 179 229 292 353 410
#     4  10  20  42  73  95 127 180 234 278 339 420
#     4  10  24  44  70 101 137 183 229 290 352 407
#     4  11  21  42  70  98 130 182 231 276 348 416
#
# _framework density 25.316561
#
# number of rings (size 3 to 8) (size 9 to 14) (size 15 to 20)
#    0.000    1.600    6.000    0.000   11.200    0.000 
#    0.000    6.000    0.000    0.000    0.000    0.000 
#    0.000    0.000    0.000    0.000    0.000    0.000 
#
# Total GULP energy -223467.372801 kJ/mol
# GULP energy per Si atom -5586.684320 kJ/mol
# Density = 2.525894 g / cm^3
# Si number density = 25.316561 Si / 1000 Ang^3
#
#
#
# Elastic Constant Matrix: (Units=GPa)
#
#
# Indices 1 2 3 4 5 6 
#
# 1 59.6393 14.2746 7.4233 0.0000 0.0000 0.0000
# 2 14.2746 123.4431 37.1026 0.0000 0.0000 0.0000
# 3 7.4233 37.1026 118.4772 0.0000 0.0000 0.0000
# 4 0.0000 0.0000 0.0000 43.0359 0.0000 0.0000
# 5 0.0000 0.0000 0.0000 0.0000 18.3623 0.0000
# 6 0.0000 0.0000 0.0000 0.0000 0.0000 6.2112
#
#
#
# Elastic Compliance Matrix: (Units=1/GPa)
#
#
# Indices 1 2 3 4 5 6 
#
# 1 0.017272 -0.001846 -0.000504 0.000000 0.000000 0.000000
# 2 -0.001846 0.009140 -0.002747 0.000000 0.000000 0.000000
# 3 -0.000504 -0.002747 0.009332 0.000000 0.000000 0.000000
# 4 0.000000 0.000000 0.000000 0.023236 0.000000 0.000000
# 5 0.000000 0.000000 0.000000 0.000000 0.054460 0.000000
# 6 0.000000 0.000000 0.000000 0.000000 0.000000 0.160999
#
#
# Mechanical properties :
#
#
# Convention : Reuss Voigt Hill
#
# Bulk Modulus (GPa) = 39.13746 46.57340 42.85543
# Shear Modulus (GPa) = 17.05619 29.70582 23.38101
#
# Velocity S-wave (km/s) = 2.59842 3.42917 3.04229
# Velocity P-wave (km/s) = 4.94926 5.84083 5.41343
#
# Compressibility (1/GPa) = 0.02555097
#
# Stress axis : x y z
#
# Youngs Moduli (GPa) = 57.89719 109.41077 107.15620
#
# Poissons Ratio (x) = 0.20194 0.05403
# Poissons Ratio (y) = 0.10686 0.29432
# Poissons Ratio (z) = 0.02919 0.30051
#
# Static dielectric constant tensor:
#      x y z
#    x 2.028170 0.000000 0.000000 
#    y 0.000000 2.031890 0.000000 
#    z 0.000000 0.000000 2.212930 
# 
# From -- ./inp_files/9391.got.cif
#   From: 2010.05.17/outbox.cif.g08.bks.cpg/sg61_5_cif.got.tgz:9391.got - 2010.06.03 15:17:17.
