data_PCOD9459334
_publ_section_title
;
Structure prediction by ZEFSAII (Michael W. Deem and Ramdas Pophale) SiO2 
 PCOD9459334
Probable space group: P B C A
;
_chemical_formula_sum "Si O2"
_cell_formula_units_Z 64
_cell_length_a 9.411144
_cell_length_b 18.952187
_cell_length_c 16.809498
_cell_angle_alpha 90.000000
_cell_angle_beta 90.000000
_cell_angle_gamma 90.000000
_cell_volume 2998.171664
_symmetry_space_group_name_H-M "P B C A"
_symmetry_group_IT_number 61
_symmetry_cell_setting 'orthorhombic'
loop_
_space_group_symop_operation_xyz
x,y,z
1/2-x,-y,1/2+z
1/2+x,1/2-y,-z
-x,1/2+y,1/2-z
-x,-y,-z
1/2+x,y,1/2-z
1/2-x,1/2+y,z
x,1/2-y,1/2+z
loop_
_atom_site_type_symbol
_atom_site_label
_atom_site_fract_x
_atom_site_fract_y
_atom_site_fract_z
Si Si1 0.830753 0.461785 0.857912
Si Si2 0.479658 0.866799 0.311255
Si Si3 0.820275 0.736729 0.574004
Si Si4 0.401803 0.636708 0.182931
Si Si5 0.190501 0.381631 0.147791
Si Si6 0.484256 0.760359 0.076239
Si Si7 0.130631 0.983885 0.830087
Si Si8 0.127866 0.392186 0.869562
O O1 0.732062 0.393202 0.864996
O O2 0.799968 0.539941 0.890490
O O3 0.824198 0.481605 0.763122
O O4 0.980613 0.431223 0.883551
O O5 0.392505 0.803998 0.352275
O O6 0.650594 0.861095 0.321290
O O7 0.423007 0.876628 0.221114
O O8 0.429717 0.940306 0.351394
O O9 0.918757 0.718221 0.498431
O O10 0.651221 0.721721 0.566537
O O11 0.837937 0.820765 0.585236
O O12 0.462081 0.710442 0.153077
O O13 0.513714 0.575839 0.165767
O O14 0.371412 0.633630 0.276835
O O15 0.120643 0.326293 0.087998
O O16 0.258983 0.954210 0.880521
#
# Coordination Sequence:
#
# PCOD9459334 Si02
#       8
#     8   8   8   8   8   8   8   8
#     4   9  20  33  65  97 127 151 202 259 314 368
#     4  11  23  40  68  96 131 160 206 253 318 369
#     4  12  27  45  61  89 125 174 213 262 310 374
#     4  10  19  40  65  94 120 161 202 257 309 374
#     4  11  23  41  66 100 127 164 202 256 312 375
#     4  12  27  44  63  85 130 169 217 258 315 369
#     4   9  18  37  61  95 124 156 199 258 310 368
#     4  10  21  38  67  94 124 156 211 254 314 371
#
# _framework density 21.346342
#
# number of rings (size 3 to 8) (size 9 to 14) (size 15 to 20)
#    0.000    1.500    2.500    2.250   10.500    0.000 
#    0.000    2.500    0.000    0.000    0.000    0.000 
#    0.000    0.000    0.000    0.000    0.000    0.000 
#
# Total GULP energy -356928.194078 kJ/mol
# GULP energy per Si atom -5577.003032 kJ/mol
# Density = 2.129776 g / cm^3
# Si number density = 21.346342 Si / 1000 Ang^3
#
#
#
# Elastic Constant Matrix: (Units=GPa)
#
#
# Indices 1 2 3 4 5 6 
#
# 1 166.1688 0.8879 -4.7711 0.0000 0.0000 0.0000
# 2 0.8879 85.6566 8.5261 0.0000 0.0000 0.0000
# 3 -4.7711 8.5261 42.0912 0.0000 0.0000 0.0000
# 4 0.0000 0.0000 0.0000 13.7547 0.0000 0.0000
# 5 0.0000 0.0000 0.0000 0.0000 10.3234 0.0000
# 6 0.0000 0.0000 0.0000 0.0000 0.0000 45.2193
#
#
#
# Elastic Compliance Matrix: (Units=1/GPa)
#
#
# Indices 1 2 3 4 5 6 
#
# 1 0.006039 -0.000133 0.000712 0.000000 0.000000 0.000000
# 2 -0.000133 0.011918 -0.002429 0.000000 0.000000 0.000000
# 3 0.000712 -0.002429 0.024331 0.000000 0.000000 0.000000
# 4 0.000000 0.000000 0.000000 0.072703 0.000000 0.000000
# 5 0.000000 0.000000 0.000000 0.000000 0.096868 0.000000
# 6 0.000000 0.000000 0.000000 0.000000 0.000000 0.022114
#
#
# Mechanical properties :
#
#
# Convention : Reuss Voigt Hill
#
# Bulk Modulus (GPa) = 25.91658 33.68916 29.80287
# Shear Modulus (GPa) = 19.95719 33.14437 26.55078
#
# Velocity S-wave (km/s) = 3.06097 3.94470 3.53059
# Velocity P-wave (km/s) = 4.96589 6.04682 5.53281
#
# Compressibility (1/GPa) = 0.03858534
#
# Stress axis : x y z
#
# Youngs Moduli (GPa) = 165.58701 83.90876 41.10043
#
# Poissons Ratio (x) = 0.01120 -0.02925
# Poissons Ratio (y) = 0.02209 0.09984
# Poissons Ratio (z) = -0.11783 0.20383
#
# Static dielectric constant tensor:
#      x y z
#    x 1.709460 0.000000 0.000000 
#    y 0.000000 1.774790 0.000000 
#    z 0.000000 0.000000 1.803650 
# 
# From -- ./inp_files/10202.got.cif
#   From: 2010.05.17/outbox.cif.g08.bks.cpg/sg61_6_cif.got.tgz:10202.got - 2010.06.03 15:17:17.
