data_PCOD9459070
_publ_section_title
;
Structure prediction by ZEFSAII (Michael W. Deem and Ramdas Pophale) SiO2 
 PCOD9459070
Probable space group: P B C A
;
_chemical_formula_sum "Si O2"
_cell_formula_units_Z 56
_cell_length_a 16.869577
_cell_length_b 11.312791
_cell_length_c 12.946065
_cell_angle_alpha 90.000000
_cell_angle_beta 90.000000
_cell_angle_gamma 90.000000
_cell_volume 2470.652922
_symmetry_space_group_name_H-M "P B C A"
_symmetry_group_IT_number 61
_symmetry_cell_setting 'orthorhombic'
loop_
_space_group_symop_operation_xyz
x,y,z
1/2-x,-y,1/2+z
1/2+x,1/2-y,-z
-x,1/2+y,1/2-z
-x,-y,-z
1/2+x,y,1/2-z
1/2-x,1/2+y,z
x,1/2-y,1/2+z
loop_
_atom_site_type_symbol
_atom_site_label
_atom_site_fract_x
_atom_site_fract_y
_atom_site_fract_z
Si Si1 0.914229 0.171570 0.543332
Si Si2 0.409490 0.766534 0.059127
Si Si3 0.588601 0.084583 0.143184
Si Si4 0.296187 0.205299 0.796232
Si Si5 0.299754 0.901867 0.667827
Si Si6 0.668901 0.053084 0.786312
Si Si7 0.423524 0.329388 0.698873
O O1 0.832528 0.222009 0.590306
O O2 0.904369 0.158820 0.421730
O O3 0.995042 0.246106 0.560313
O O4 0.931135 0.040383 0.589283
O O5 0.357898 0.650636 0.082577
O O6 0.384719 0.855666 0.151513
O O7 0.387083 0.828569 0.950389
O O8 0.650161 0.056966 0.232953
O O9 0.516990 0.151868 0.200643
O O10 0.253338 0.299869 0.721481
O O11 0.383754 0.209531 0.740017
O O12 0.225111 0.110952 0.800035
O O13 0.237512 0.002184 0.636679
O O14 0.616112 0.944179 0.747674
#
# Coordination Sequence:
#
# PCOD9459070 Si02
#       7
#     8   8   8   8   8   8   8
#     4  11  19  37  61  82 105 147 193 220 266 333
#     4  10  20  36  58  81 110 148 185 227 265 326
#     4  11  19  37  61  82 105 147 193 220 266 333
#     4  10  22  34  55  84 116 140 179 232 281 318
#     4  10  22  34  55  84 116 140 179 232 281 318
#     4  10  18  35  50  82 112 143 176 221 282 312
#     4  10  20  36  58  81 110 148 185 227 265 326
#
# _framework density 22.666073999999998
#
# number of rings (size 3 to 8) (size 9 to 14) (size 15 to 20)
#    0.000    1.714    4.286    1.714    0.000    3.429 
#    0.000    0.000    0.000    3.429    0.000    0.000 
#    0.000    0.000    0.000    0.000    0.000    0.000 
#
# Total GULP energy -311850.177778 kJ/mol
# GULP energy per Si atom -5568.753175 kJ/mol
# Density = 2.261448 g / cm^3
# Si number density = 22.666074 Si / 1000 Ang^3
#
#
#
# Elastic Constant Matrix: (Units=GPa)
#
#
# Indices 1 2 3 4 5 6 
#
# 1 80.1080 -1.0154 17.0297 0.0000 0.0000 0.0000
# 2 -1.0154 16.2782 3.5954 0.0000 0.0000 0.0000
# 3 17.0297 3.5954 28.0206 0.0000 0.0000 0.0000
# 4 0.0000 0.0000 0.0000 22.1413 0.0000 0.0000
# 5 0.0000 0.0000 0.0000 0.0000 16.3575 0.0000
# 6 0.0000 0.0000 0.0000 0.0000 0.0000 18.2053
#
#
#
# Elastic Compliance Matrix: (Units=1/GPa)
#
#
# Indices 1 2 3 4 5 6 
#
# 1 0.014470 0.002928 -0.009170 0.000000 0.000000 0.000000
# 2 0.002928 0.063816 -0.009968 0.000000 0.000000 0.000000
# 3 -0.009170 -0.009968 0.042540 0.000000 0.000000 0.000000
# 4 0.000000 0.000000 0.000000 0.045164 0.000000 0.000000
# 5 0.000000 0.000000 0.000000 0.000000 0.061134 0.000000
# 6 0.000000 0.000000 0.000000 0.000000 0.000000 0.054929
#
#
# Mechanical properties :
#
#
# Convention : Reuss Voigt Hill
#
# Bulk Modulus (GPa) = 11.31139 18.18069 14.74604
# Shear Modulus (GPa) = 14.53736 18.32731 16.43233
#
# Velocity S-wave (km/s) = 2.53528 2.84664 2.69546
# Velocity P-wave (km/s) = 3.68395 4.34085 4.02582
#
# Compressibility (1/GPa) = 0.08840646
#
# Stress axis : x y z
#
# Youngs Moduli (GPa) = 69.11048 15.66998 23.50733
#
# Poissons Ratio (x) = -0.04588 0.21555
# Poissons Ratio (y) = -0.20235 0.23432
# Poissons Ratio (z) = 0.63372 0.15620
#
# Static dielectric constant tensor:
#      x y z
#    x 1.892590 0.000000 0.000000 
#    y 0.000000 2.000070 0.000000 
#    z 0.000000 0.000000 1.831580 
# 
# From -- ./inp_files/5815.got.cif
#   From: 2010.05.17/outbox.cif.g08.bks.cpg/sg61_3_cif.got.tgz:5815.got - 2010.06.03 15:17:17.
