data_PCOD9459710
_publ_section_title
;
Structure prediction by ZEFSAII (Michael W. Deem and Ramdas Pophale) SiO2 
 PCOD9459710
Probable space group: P B C A
;
_chemical_formula_sum "Si O2"
_cell_formula_units_Z 64
_cell_length_a 17.118131
_cell_length_b 13.299287
_cell_length_c 10.976626
_cell_angle_alpha 90.000000
_cell_angle_beta 90.000000
_cell_angle_gamma 90.000000
_cell_volume 2498.927008
_symmetry_space_group_name_H-M "P B C A"
_symmetry_group_IT_number 61
_symmetry_cell_setting 'orthorhombic'
loop_
_space_group_symop_operation_xyz
x,y,z
1/2-x,-y,1/2+z
1/2+x,1/2-y,-z
-x,1/2+y,1/2-z
-x,-y,-z
1/2+x,y,1/2-z
1/2-x,1/2+y,z
x,1/2-y,1/2+z
loop_
_atom_site_type_symbol
_atom_site_label
_atom_site_fract_x
_atom_site_fract_y
_atom_site_fract_z
Si Si1 0.942874 0.836802 0.645032
Si Si2 0.542245 0.140533 0.519832
Si Si3 0.401041 0.895150 0.107867
Si Si4 0.377198 0.055856 0.527160
Si Si5 0.800744 0.377376 0.224282
Si Si6 0.306754 0.714175 0.199988
Si Si7 0.460908 0.272456 0.311505
Si Si8 0.306070 0.052967 0.267793
O O1 0.921369 0.724410 0.603554
O O2 0.930903 0.909223 0.530934
O O3 0.878210 0.852288 0.747702
O O4 0.028066 0.808389 0.700360
O O5 0.465534 0.083894 0.569861
O O6 0.496242 0.206676 0.420228
O O7 0.610279 0.063677 0.486021
O O8 0.344368 0.795928 0.108148
O O9 0.476484 0.863450 0.185578
O O10 0.358608 0.984113 0.179255
O O11 0.321337 0.097980 0.632528
O O12 0.351030 0.089358 0.390449
O O13 0.735096 0.292930 0.209354
O O14 0.878842 0.326226 0.173922
O O15 0.762842 0.480619 0.178606
O O16 0.235315 0.637069 0.184115
#
# Coordination Sequence:
#
# PCOD9459710 Si02
#       8
#     8   8   8   8   8   8   8   8
#     4  10  20  41  68  94 126 178 221 273 339 403
#     4  10  21  39  72  96 126 175 224 283 332 403
#     4   9  22  42  65  93 133 174 229 277 337 408
#     4  11  23  40  69 100 128 180 232 267 342 414
#     4  11  24  42  65 102 133 172 229 283 328 414
#     4  10  23  42  64  94 137 178 219 279 343 399
#     4  10  20  41  67  96 131 166 226 283 335 391
#     4  11  25  43  64  99 140 178 223 284 334 419
#
# _framework density 25.610993000000001
#
# number of rings (size 3 to 8) (size 9 to 14) (size 15 to 20)
#    0.000    1.750    1.250    3.000   10.500    0.000 
#    0.000    0.000    2.750    4.500    0.000    0.000 
#    0.000    0.000    0.000    0.000    0.000    0.000 
#
# Total GULP energy -356642.573470 kJ/mol
# GULP energy per Si atom -5572.540210 kJ/mol
# Density = 2.555270 g / cm^3
# Si number density = 25.610993 Si / 1000 Ang^3
#
#
#
# Elastic Constant Matrix: (Units=GPa)
#
#
# Indices 1 2 3 4 5 6 
#
# 1 108.1612 2.9263 4.4173 0.0000 0.0000 0.0000
# 2 2.9263 44.9250 -17.6203 0.0000 0.0000 0.0000
# 3 4.4173 -17.6203 55.7118 0.0000 0.0000 0.0000
# 4 0.0000 0.0000 0.0000 21.6271 0.0000 0.0000
# 5 0.0000 0.0000 0.0000 0.0000 29.4126 0.0000
# 6 0.0000 0.0000 0.0000 0.0000 0.0000 48.9420
#
#
#
# Elastic Compliance Matrix: (Units=1/GPa)
#
#
# Indices 1 2 3 4 5 6 
#
# 1 0.009317 -0.001024 -0.001062 0.000000 0.000000 0.000000
# 2 -0.001024 0.025524 0.008154 0.000000 0.000000 0.000000
# 3 -0.001062 0.008154 0.020613 0.000000 0.000000 0.000000
# 4 0.000000 0.000000 0.000000 0.046238 0.000000 0.000000
# 5 0.000000 0.000000 0.000000 0.000000 0.033999 0.000000
# 6 0.000000 0.000000 0.000000 0.000000 0.000000 0.020432
#
#
# Mechanical properties :
#
#
# Convention : Reuss Voigt Hill
#
# Bulk Modulus (GPa) = 14.79533 20.91605 17.85569
# Shear Modulus (GPa) = 30.02701 34.60132 32.31417
#
# Velocity S-wave (km/s) = 3.42779 3.67963 3.55594
# Velocity P-wave (km/s) = 4.63204 5.12225 4.88330
#
# Compressibility (1/GPa) = 0.06758890
#
# Stress axis : x y z
#
# Youngs Moduli (GPa) = 107.33593 39.17872 48.51396
#
# Poissons Ratio (x) = 0.04010 0.05154
# Poissons Ratio (y) = 0.10986 -0.39557
# Poissons Ratio (z) = 0.11404 -0.31946
#
# Static dielectric constant tensor:
#      x y z
#    x 2.079210 0.000000 0.000000 
#    y 0.000000 2.060450 0.000000 
#    z 0.000000 0.000000 2.169420 
# 
# From -- ./inp_files/6280.got.cif
#   From: 2010.05.17/outbox.cif.g08.bks.cpg/sg61_4_cif.got.tgz:6280.got - 2010.06.03 15:17:17.
