data_PCOD9459068
_publ_section_title
;
Structure prediction by ZEFSAII (Michael W. Deem and Ramdas Pophale) SiO2 
 PCOD9459068
Probable space group: P B C A
;
_chemical_formula_sum "Si O2"
_cell_formula_units_Z 64
_cell_length_a 18.864108
_cell_length_b 19.007868
_cell_length_c 9.181679
_cell_angle_alpha 90.000000
_cell_angle_beta 90.000000
_cell_angle_gamma 90.000000
_cell_volume 3292.242272
_symmetry_space_group_name_H-M "P B C A"
_symmetry_group_IT_number 61
_symmetry_cell_setting 'orthorhombic'
loop_
_space_group_symop_operation_xyz
x,y,z
1/2-x,-y,1/2+z
1/2+x,1/2-y,-z
-x,1/2+y,1/2-z
-x,-y,-z
1/2+x,y,1/2-z
1/2-x,1/2+y,z
x,1/2-y,1/2+z
loop_
_atom_site_type_symbol
_atom_site_label
_atom_site_fract_x
_atom_site_fract_y
_atom_site_fract_z
Si Si1 0.474112 0.909426 0.956103
Si Si2 0.379342 0.020656 0.060965
Si Si3 0.353484 0.410245 0.063443
Si Si4 0.652518 0.455962 0.133954
Si Si5 0.370972 0.228374 0.378305
Si Si6 0.711244 0.871484 0.130727
Si Si7 0.525817 0.731445 0.377225
Si Si8 0.992996 0.612811 0.697673
O O1 0.490199 0.900019 0.128837
O O2 0.404486 0.957822 0.952236
O O3 0.544124 0.947138 0.892612
O O4 0.472770 0.833785 0.881613
O O5 0.341769 0.988847 0.202797
O O6 0.335292 0.080157 0.978332
O O7 0.307282 0.394711 0.205096
O O8 0.433789 0.412087 0.125577
O O9 0.335436 0.481373 0.979741
O O10 0.347974 0.343817 0.954038
O O11 0.707716 0.393172 0.107966
O O12 0.573137 0.426266 0.126545
O O13 0.313023 0.290382 0.382102
O O14 0.404042 0.216536 0.219574
O O15 0.439764 0.256250 0.465489
O O16 0.490438 0.803731 0.328756
#
# Coordination Sequence:
#
# PCOD9459068 Si02
#       8
#     8   8   8   8   8   8   8   8
#     4  10  18  34  62  89 112 151 200 247 294 347
#     4  10  20  37  60  84 116 158 194 238 297 356
#     4  11  22  40  64  89 115 155 205 245 289 351
#     4  11  25  38  60  88 123 158 192 243 306 350
#     4  11  21  36  65  86 111 154 198 240 291 351
#     4  12  22  43  58  88 124 154 196 246 293 358
#     4  11  17  36  61  89 113 149 202 248 289 345
#     4  10  20  38  58  89 121 153 196 256 290 341
#
# _framework density 19.439639
#
# number of rings (size 3 to 8) (size 9 to 14) (size 15 to 20)
#    0.000    1.250    6.250    1.875    0.000    0.000 
#    4.500    3.750    0.000    0.000    0.000    0.000 
#    0.000    0.000    0.000    0.000    0.000    0.000 
#
# Total GULP energy -357275.729515 kJ/mol
# GULP energy per Si atom -5582.433274 kJ/mol
# Density = 1.939539 g / cm^3
# Si number density = 19.439639 Si / 1000 Ang^3
#
#
#
# Elastic Constant Matrix: (Units=GPa)
#
#
# Indices 1 2 3 4 5 6 
#
# 1 46.2697 19.8192 3.7557 0.0000 0.0000 0.0000
# 2 19.8192 88.9121 16.2461 0.0000 0.0000 0.0000
# 3 3.7557 16.2461 34.5326 0.0000 0.0000 0.0000
# 4 0.0000 0.0000 0.0000 32.1241 0.0000 0.0000
# 5 0.0000 0.0000 0.0000 0.0000 12.2869 0.0000
# 6 0.0000 0.0000 0.0000 0.0000 0.0000 28.6570
#
#
#
# Elastic Compliance Matrix: (Units=1/GPa)
#
#
# Indices 1 2 3 4 5 6 
#
# 1 0.023894 -0.005308 -0.000102 0.000000 0.000000 0.000000
# 2 -0.005308 0.013484 -0.005766 0.000000 0.000000 0.000000
# 3 -0.000102 -0.005766 0.031682 0.000000 0.000000 0.000000
# 4 0.000000 0.000000 0.000000 0.031129 0.000000 0.000000
# 5 0.000000 0.000000 0.000000 0.000000 0.081388 0.000000
# 6 0.000000 0.000000 0.000000 0.000000 0.000000 0.034895
#
#
# Mechanical properties :
#
#
# Convention : Reuss Voigt Hill
#
# Bulk Modulus (GPa) = 21.40926 27.70628 24.55777
# Shear Modulus (GPa) = 19.65461 23.27315 21.46388
#
# Velocity S-wave (km/s) = 3.18316 3.46381 3.32645
# Velocity P-wave (km/s) = 4.95451 5.50279 5.23583
#
# Compressibility (1/GPa) = 0.04670875
#
# Stress axis : x y z
#
# Youngs Moduli (GPa) = 41.85120 74.16301 31.56369
#
# Poissons Ratio (x) = 0.39363 0.00321
# Poissons Ratio (y) = 0.22213 0.18201
# Poissons Ratio (z) = 0.00425 0.42765
#
# Static dielectric constant tensor:
#      x y z
#    x 1.662430 0.000000 0.000000 
#    y 0.000000 1.718950 0.000000 
#    z 0.000000 0.000000 1.687970 
# 
# From -- ./inp_files/4063.got.cif
#   From: 2010.05.17/outbox.cif.g08.bks.cpg/sg61_3_cif.got.tgz:4063.got - 2010.06.03 15:17:17.
