data_PCOD9459477
_publ_section_title
;
Structure prediction by ZEFSAII (Michael W. Deem and Ramdas Pophale) SiO2 
 PCOD9459477
Probable space group: P B C A
;
_chemical_formula_sum "Si O2"
_cell_formula_units_Z 64
_cell_length_a 5.278516
_cell_length_b 13.745061
_cell_length_c 32.566407
_cell_angle_alpha 90.000000
_cell_angle_beta 90.000000
_cell_angle_gamma 90.000000
_cell_volume 2362.807605
_symmetry_space_group_name_H-M "P B C A"
_symmetry_group_IT_number 61
_symmetry_cell_setting 'orthorhombic'
loop_
_space_group_symop_operation_xyz
x,y,z
1/2-x,-y,1/2+z
1/2+x,1/2-y,-z
-x,1/2+y,1/2-z
-x,-y,-z
1/2+x,y,1/2-z
1/2-x,1/2+y,z
x,1/2-y,1/2+z
loop_
_atom_site_type_symbol
_atom_site_label
_atom_site_fract_x
_atom_site_fract_y
_atom_site_fract_z
Si Si1 0.534795 0.362586 0.224027
Si Si2 0.065784 0.876470 0.962805
Si Si3 0.159251 0.903293 0.049284
Si Si4 0.105484 0.875890 0.646116
Si Si5 0.447843 0.514024 0.421462
Si Si6 0.579648 0.772902 0.620673
Si Si7 0.583132 0.372790 0.728511
Si Si8 0.111575 0.402337 0.368897
O O1 0.293555 0.389133 0.252040
O O2 0.550145 0.243840 0.220675
O O3 0.514307 0.402258 0.177368
O O4 0.358193 0.905828 0.953318
O O5 0.004213 0.802182 0.926052
O O6 0.058919 0.844997 0.010109
O O7 0.928028 0.982900 0.959351
O O8 0.058854 0.864344 0.092892
O O9 0.459703 0.920435 0.053964
O O10 0.356772 0.812177 0.649550
O O11 0.158922 0.952816 0.610566
O O12 0.858994 0.815367 0.631553
O O13 0.024090 0.923694 0.688273
O O14 0.216569 0.500083 0.389541
O O15 0.631320 0.661519 0.630965
O O16 0.375146 0.394457 0.763234
#
# Coordination Sequence:
#
# PCOD9459477 Si02
#       8
#     8   8   8   8   8   8   8   8
#     4  10  23  40  64  92 128 173 216 266 333 406
#     4   9  20  41  65  95 125 181 226 263 326 395
#     4  10  20  41  65  92 133 172 227 268 327 408
#     4  11  22  41  65  92 126 170 220 265 327 395
#     4  10  22  39  67  94 130 182 218 274 328 406
#     4  11  23  40  65  96 130 170 219 274 324 390
#     4  10  20  36  61  93 121 159 216 274 323 385
#     4  11  25  40  63 100 132 173 221 280 344 389
#
# _framework density 27.086421000000001
#
# number of rings (size 3 to 8) (size 9 to 14) (size 15 to 20)
#    0.000    1.750    2.500    1.125    7.000    0.000 
#    2.250    1.250    0.000    0.000    0.000    0.000 
#    0.000    0.000    0.000    0.000    0.000    0.000 
#
# Total GULP energy -357603.799595 kJ/mol
# GULP energy per Si atom -5587.559369 kJ/mol
# Density = 2.702477 g / cm^3
# Si number density = 27.086421 Si / 1000 Ang^3
#
#
#
# Elastic Constant Matrix: (Units=GPa)
#
#
# Indices 1 2 3 4 5 6 
#
# 1 120.8841 4.6157 56.3700 0.0000 0.0000 0.0000
# 2 4.6157 49.4145 5.8073 0.0000 0.0000 0.0000
# 3 56.3700 5.8073 214.0162 0.0000 0.0000 0.0000
# 4 0.0000 0.0000 0.0000 31.8796 0.0000 0.0000
# 5 0.0000 0.0000 0.0000 0.0000 32.8764 0.0000
# 6 0.0000 0.0000 0.0000 0.0000 0.0000 32.5679
#
#
#
# Elastic Compliance Matrix: (Units=1/GPa)
#
#
# Indices 1 2 3 4 5 6 
#
# 1 0.009448 -0.000592 -0.002472 0.000000 0.000000 0.000000
# 2 -0.000592 0.020339 -0.000396 0.000000 0.000000 0.000000
# 3 -0.002472 -0.000396 0.005335 0.000000 0.000000 0.000000
# 4 0.000000 0.000000 0.000000 0.031368 0.000000 0.000000
# 5 0.000000 0.000000 0.000000 0.000000 0.030417 0.000000
# 6 0.000000 0.000000 0.000000 0.000000 0.000000 0.030705
#
#
# Mechanical properties :
#
#
# Convention : Reuss Voigt Hill
#
# Bulk Modulus (GPa) = 35.46037 57.54453 46.50245
# Shear Modulus (GPa) = 34.73859 40.63290 37.68574
#
# Velocity S-wave (km/s) = 3.58510 3.87734 3.73408
# Velocity P-wave (km/s) = 5.50066 6.42930 5.98302
#
# Compressibility (1/GPa) = 0.02820050
#
# Stress axis : x y z
#
# Youngs Moduli (GPa) = 105.84337 49.16714 187.45872
#
# Poissons Ratio (x) = 0.02910 0.46348
# Poissons Ratio (y) = 0.06265 0.07423
# Poissons Ratio (z) = 0.26169 0.01947
#
# Static dielectric constant tensor:
#      x y z
#    x 2.198230 0.000000 0.000000 
#    y 0.000000 2.299790 0.000000 
#    z 0.000000 0.000000 2.110680 
# 
# From -- ./inp_files/850.got.cif
#   From: 2010.05.17/outbox.cif.g08.bks.cpg/sg61_1_cif.got.tgz:850.got - 2010.06.03 15:17:17.
