data_PCOD9459490
_publ_section_title
;
Structure prediction by ZEFSAII (Michael W. Deem and Ramdas Pophale) SiO2 
 PCOD9459490
Probable space group: P B C A
;
_chemical_formula_sum "Si O2"
_cell_formula_units_Z 52
_cell_length_a 15.594765
_cell_length_b 14.805499
_cell_length_c 8.971427
_cell_angle_alpha 90.000000
_cell_angle_beta 90.000000
_cell_angle_gamma 90.000000
_cell_volume 2071.397328
_symmetry_space_group_name_H-M "P B C A"
_symmetry_group_IT_number 61
_symmetry_cell_setting 'orthorhombic'
loop_
_space_group_symop_operation_xyz
x,y,z
1/2-x,-y,1/2+z
1/2+x,1/2-y,-z
-x,1/2+y,1/2-z
-x,-y,-z
1/2+x,y,1/2-z
1/2-x,1/2+y,z
x,1/2-y,1/2+z
loop_
_atom_site_type_symbol
_atom_site_label
_atom_site_fract_x
_atom_site_fract_y
_atom_site_fract_z
Si Si1 0.868091 0.965021 0.168995
Si Si2 0.344072 0.607234 0.419852
Si Si3 0.500000 0.500000 0.000000
Si Si4 0.495754 0.876667 0.155661
Si Si5 0.457496 0.823586 0.652934
Si Si6 0.294992 0.705261 0.948108
Si Si7 0.839299 0.427931 0.961525
O O1 0.974101 0.940478 0.200263
O O2 0.817645 0.869599 0.177789
O O3 0.844913 0.036989 0.292837
O O4 0.890022 0.985635 0.998623
O O5 0.409299 0.606271 0.560816
O O6 0.409956 0.628010 0.288592
O O7 0.279763 0.691077 0.410429
O O8 0.300205 0.509907 0.437138
O O9 0.515464 0.602694 0.076438
O O10 0.502034 0.771486 0.198835
O O11 0.572596 0.906922 0.049485
O O12 0.382613 0.791912 0.541201
O O13 0.217756 0.660510 0.034581
#
# Coordination Sequence:
#
# PCOD9459490 Si02
#       7
#     8   8   4   8   8   8   8
#     4  10  20  41  63  90 131 168 221 265 330 405
#     4  10  20  41  67  85 127 182 203 269 344 387
#     4  10  20  36  64  96 122 168 212 274 322 388
#     4  10  20  39  66  92 120 168 226 271 320 399
#     4  10  20  38  64  87 131 170 212 271 333 399
#     4  10  23  39  60  94 129 169 217 263 342 395
#     4  11  23  39  66  97 126 171 228 275 323 404
#
# _framework density 25.103828
#
# number of rings (size 3 to 8) (size 9 to 14) (size 15 to 20)
#    0.000    1.846    1.538    3.692    2.154    0.000 
#    5.538    1.538    0.000    0.000    0.000    0.000 
#    0.000    0.000    0.000    0.000    0.000    0.000 
#
# Total GULP energy -289501.641218 kJ/mol
# GULP energy per Si atom -5567.339254 kJ/mol
# Density = 2.504669 g / cm^3
# Si number density = 25.103828 Si / 1000 Ang^3
#
#
#
# Elastic Constant Matrix: (Units=GPa)
#
#
# Indices 1 2 3 4 5 6 
#
# 1 29.0766 23.1606 -1.7393 0.0000 0.0000 0.0000
# 2 23.1606 138.0863 3.7331 0.0000 0.0000 0.0000
# 3 -1.7393 3.7331 81.9564 0.0000 0.0000 0.0000
# 4 0.0000 0.0000 0.0000 27.3447 0.0000 0.0000
# 5 0.0000 0.0000 0.0000 0.0000 30.3010 0.0000
# 6 0.0000 0.0000 0.0000 0.0000 0.0000 17.8088
#
#
#
# Elastic Compliance Matrix: (Units=1/GPa)
#
#
# Indices 1 2 3 4 5 6 
#
# 1 0.039803 -0.006707 0.001150 0.000000 0.000000 0.000000
# 2 -0.006707 0.008381 -0.000524 0.000000 0.000000 0.000000
# 3 0.001150 -0.000524 0.012250 0.000000 0.000000 0.000000
# 4 0.000000 0.000000 0.000000 0.036570 0.000000 0.000000
# 5 0.000000 0.000000 0.000000 0.000000 0.033002 0.000000
# 6 0.000000 0.000000 0.000000 0.000000 0.000000 0.056152
#
#
# Mechanical properties :
#
#
# Convention : Reuss Voigt Hill
#
# Bulk Modulus (GPa) = 20.71591 33.26980 26.99285
# Shear Modulus (GPa) = 23.31969 30.02189 26.67079
#
# Velocity S-wave (km/s) = 3.05114 3.46194 3.26301
# Velocity P-wave (km/s) = 4.54782 5.40941 4.99722
#
# Compressibility (1/GPa) = 0.04827209
#
# Stress axis : x y z
#
# Youngs Moduli (GPa) = 25.12359 119.31792 81.63340
#
# Poissons Ratio (x) = 0.80028 -0.09390
# Poissons Ratio (y) = 0.16851 0.04278
# Poissons Ratio (z) = -0.02890 0.06253
#
# Static dielectric constant tensor:
#      x y z
#    x 1.911410 0.000000 0.000000 
#    y 0.000000 1.978930 0.000000 
#    z 0.000000 0.000000 0.969150 
# 
# From -- ./inp_files/6206.got.cif
#   From: 2010.05.17/outbox.cif.g08.bks.cpg/sg61_4_cif.got.tgz:6206.got - 2010.06.03 15:17:17.
