data_PCOD9459108
_publ_section_title
;
Structure prediction by ZEFSAII (Michael W. Deem and Ramdas Pophale) SiO2 
 PCOD9459108
Probable space group: P B C A
;
_chemical_formula_sum "Si O2"
_cell_formula_units_Z 64
_cell_length_a 12.481463
_cell_length_b 14.423198
_cell_length_c 16.906571
_cell_angle_alpha 90.000000
_cell_angle_beta 90.000000
_cell_angle_gamma 90.000000
_cell_volume 3043.565074
_symmetry_space_group_name_H-M "P B C A"
_symmetry_group_IT_number 61
_symmetry_cell_setting 'orthorhombic'
loop_
_space_group_symop_operation_xyz
x,y,z
1/2-x,-y,1/2+z
1/2+x,1/2-y,-z
-x,1/2+y,1/2-z
-x,-y,-z
1/2+x,y,1/2-z
1/2-x,1/2+y,z
x,1/2-y,1/2+z
loop_
_atom_site_type_symbol
_atom_site_label
_atom_site_fract_x
_atom_site_fract_y
_atom_site_fract_z
Si Si1 0.227292 0.842214 0.971954
Si Si2 0.769673 0.780921 0.346207
Si Si3 0.622416 0.074144 0.745931
Si Si4 0.373276 0.477048 0.495724
Si Si5 0.217995 0.345787 0.416477
Si Si6 0.257187 0.066800 0.157293
Si Si7 0.004161 0.390460 0.489793
Si Si8 0.590955 0.592629 0.825098
O O1 0.247636 0.803472 0.061538
O O2 0.098664 0.855071 0.960678
O O3 0.298638 0.935321 0.969852
O O4 0.268126 0.764172 0.912373
O O5 0.862659 0.846867 0.312943
O O6 0.777954 0.672256 0.332696
O O7 0.669751 0.826320 0.298602
O O8 0.674232 0.109691 0.664012
O O9 0.496916 0.059821 0.735463
O O10 0.680371 0.979412 0.769728
O O11 0.500000 0.500000 0.500000
O O12 0.330164 0.393726 0.440485
O O13 0.335313 0.445933 0.582837
O O14 0.129224 0.362481 0.487329
O O15 0.159040 0.995508 0.146207
O O16 0.969264 0.366554 0.400746
O O17 0.000000 0.500000 0.500000
#
# Coordination Sequence:
#
# PCOD9459108 Si02
#       8
#     8   8   8   8   8   8   8   8
#     4  11  22  41  65  94 129 170 220 272 335 400
#     4  10  21  40  67  86 126 175 214 256 336 403
#     4  10  23  41  63  96 132 169 220 278 325 398
#     4  12  25  40  65  99 131 169 224 284 339 397
#     4  11  24  40  63  99 131 164 226 279 327 392
#     4  11  21  43  66  91 130 180 215 267 346 407
#     4  10  18  38  64  83 125 174 209 259 325 403
#     4   9  20  38  61  89 125 166 214 269 321 395
#
# _framework density 21.027971999999998
#
# number of rings (size 3 to 8) (size 9 to 14) (size 15 to 20)
#    0.000    1.500    6.250    0.000    1.750    5.000 
#    0.000    0.000    0.000    0.000    0.000    0.000 
#    0.000    0.000    0.000    0.000    0.000    0.000 
#
# Total GULP energy -356757.554041 kJ/mol
# GULP energy per Si atom -5574.336782 kJ/mol
# Density = 2.098011 g / cm^3
# Si number density = 21.027972 Si / 1000 Ang^3
#
#
#
# Elastic Constant Matrix: (Units=GPa)
#
#
# Indices 1 2 3 4 5 6 
#
# 1 88.2900 -3.9310 1.9996 0.0000 0.0000 0.0000
# 2 -3.9310 90.0189 -4.7759 0.0000 0.0000 0.0000
# 3 1.9996 -4.7759 31.7164 0.0000 0.0000 0.0000
# 4 0.0000 0.0000 0.0000 22.2551 0.0000 0.0000
# 5 0.0000 0.0000 0.0000 0.0000 28.7749 0.0000
# 6 0.0000 0.0000 0.0000 0.0000 0.0000 13.5438
#
#
#
# Elastic Compliance Matrix: (Units=1/GPa)
#
#
# Indices 1 2 3 4 5 6 
#
# 1 0.011362 0.000462 -0.000647 0.000000 0.000000 0.000000
# 2 0.000462 0.011217 0.001660 0.000000 0.000000 0.000000
# 3 -0.000647 0.001660 0.031820 0.000000 0.000000 0.000000
# 4 0.000000 0.000000 0.000000 0.044933 0.000000 0.000000
# 5 0.000000 0.000000 0.000000 0.000000 0.034753 0.000000
# 6 0.000000 0.000000 0.000000 0.000000 0.000000 0.073835
#
#
# Mechanical properties :
#
#
# Convention : Reuss Voigt Hill
#
# Bulk Modulus (GPa) = 17.43718 21.84565 19.64141
# Shear Modulus (GPa) = 22.31289 27.36359 24.83824
#
# Velocity S-wave (km/s) = 3.26100 3.61126 3.44059
# Velocity P-wave (km/s) = 4.74227 5.27254 5.01442
#
# Compressibility (1/GPa) = 0.05734872
#
# Stress axis : x y z
#
# Youngs Moduli (GPa) = 88.01643 89.15025 31.42663
#
# Poissons Ratio (x) = -0.04117 0.02033
# Poissons Ratio (y) = -0.04065 -0.05217
# Poissons Ratio (z) = 0.05693 -0.14799
#
# Static dielectric constant tensor:
#      x y z
#    x 1.848230 0.000000 0.000000 
#    y 0.000000 1.742460 0.000000 
#    z 0.000000 0.000000 1.954390 
# 
# From -- ./inp_files/9278.got.cif
#   From: 2010.05.17/outbox.cif.g08.bks.cpg/sg61_5_cif.got.tgz:9278.got - 2010.06.03 15:17:17.
