data_PCOD9459892
_publ_section_title
;
Structure prediction by ZEFSAII (Michael W. Deem and Ramdas Pophale) SiO2 
 PCOD9459892
Probable space group: P B C A
;
_chemical_formula_sum "Si O2"
_cell_formula_units_Z 64
_cell_length_a 8.488805
_cell_length_b 12.786528
_cell_length_c 29.408680
_cell_angle_alpha 90.000000
_cell_angle_beta 90.000000
_cell_angle_gamma 90.000000
_cell_volume 3192.087026
_symmetry_space_group_name_H-M "P B C A"
_symmetry_group_IT_number 61
_symmetry_cell_setting 'orthorhombic'
loop_
_space_group_symop_operation_xyz
x,y,z
1/2-x,-y,1/2+z
1/2+x,1/2-y,-z
-x,1/2+y,1/2-z
-x,-y,-z
1/2+x,y,1/2-z
1/2-x,1/2+y,z
x,1/2-y,1/2+z
loop_
_atom_site_type_symbol
_atom_site_label
_atom_site_fract_x
_atom_site_fract_y
_atom_site_fract_z
Si Si1 0.855949 0.633877 0.596592
Si Si2 0.185549 0.228296 0.534636
Si Si3 0.538419 0.612348 0.983720
Si Si4 0.043725 0.831635 0.597039
Si Si5 0.960799 0.045450 0.551413
Si Si6 0.562339 0.680788 0.298228
Si Si7 0.820465 0.544642 0.252883
Si Si8 0.072104 0.410677 0.299851
O O1 0.016442 0.602151 0.570480
O O2 0.713082 0.586747 0.566616
O O3 0.863546 0.596799 0.648500
O O4 0.885085 0.759451 0.595030
O O5 0.083292 0.306532 0.505135
O O6 0.291420 0.153325 0.503242
O O7 0.315909 0.290381 0.564070
O O8 0.070432 0.147208 0.559322
O O9 0.500000 0.500000 0.000000
O O10 0.099541 0.821323 0.648558
O O11 0.004365 0.948947 0.583373
O O12 0.000000 0.000000 0.500000
O O13 0.713344 0.639262 0.271188
O O14 0.429454 0.595239 0.285939
O O15 0.496201 0.796251 0.287196
O O16 0.710771 0.453708 0.232282
O O17 0.931297 0.493857 0.291562
#
# Coordination Sequence:
#
# PCOD9459892 Si02
#       8
#     8   8   8   8   8   8   8   8
#     4  10  22  39  59  86 117 154 200 242 293 354
#     4  11  23  38  58  87 116 154 199 239 291 350
#     4  11  22  38  58  82 117 155 195 241 288 344
#     4  10  23  40  58  86 122 154 197 251 293 351
#     4  12  23  39  62  86 120 161 198 244 297 350
#     4  10  21  39  60  87 119 154 196 243 300 357
#     4  10  21  38  63  88 116 156 199 242 304 366
#     4  10  21  39  61  88 121 154 196 252 298 356
#
# _framework density 20.049579000000001
#
# number of rings (size 3 to 8) (size 9 to 14) (size 15 to 20)
#    0.000    1.500    0.000    6.000    0.000    5.000 
#    0.000    6.250    0.000    0.000    0.000    0.000 
#    0.000    0.000    0.000    0.000    0.000    0.000 
#
# Total GULP energy -356743.540552 kJ/mol
# GULP energy per Si atom -5574.117821 kJ/mol
# Density = 2.000395 g / cm^3
# Si number density = 20.049579 Si / 1000 Ang^3
#
#
#
# Elastic Constant Matrix: (Units=GPa)
#
#
# Indices 1 2 3 4 5 6 
#
# 1 89.9764 23.4435 22.2575 0.0000 0.0000 0.0000
# 2 23.4435 98.6414 14.5175 0.0000 0.0000 0.0000
# 3 22.2575 14.5175 64.0106 0.0000 0.0000 0.0000
# 4 0.0000 0.0000 0.0000 29.4153 0.0000 0.0000
# 5 0.0000 0.0000 0.0000 0.0000 20.8277 0.0000
# 6 0.0000 0.0000 0.0000 0.0000 0.0000 35.3423
#
#
#
# Elastic Compliance Matrix: (Units=1/GPa)
#
#
# Indices 1 2 3 4 5 6 
#
# 1 0.012708 -0.002452 -0.003863 0.000000 0.000000 0.000000
# 2 -0.002452 0.010961 -0.001633 0.000000 0.000000 0.000000
# 3 -0.003863 -0.001633 0.017336 0.000000 0.000000 0.000000
# 4 0.000000 0.000000 0.000000 0.033996 0.000000 0.000000
# 5 0.000000 0.000000 0.000000 0.000000 0.048013 0.000000
# 6 0.000000 0.000000 0.000000 0.000000 0.000000 0.028295
#
#
# Mechanical properties :
#
#
# Convention : Reuss Voigt Hill
#
# Bulk Modulus (GPa) = 39.82604 41.45173 40.63888
# Shear Modulus (GPa) = 28.47790 29.94438 29.21114
#
# Velocity S-wave (km/s) = 3.77287 3.86880 3.82114
# Velocity P-wave (km/s) = 6.23589 6.37780 6.30724
#
# Compressibility (1/GPa) = 0.02510920
#
# Stress axis : x y z
#
# Youngs Moduli (GPa) = 78.68804 91.23402 57.68332
#
# Poissons Ratio (x) = 0.22369 0.22282
# Poissons Ratio (y) = 0.19293 0.09422
# Poissons Ratio (z) = 0.30396 0.14902
#
# Static dielectric constant tensor:
#      x y z
#    x 1.741280 0.000000 0.000000 
#    y 0.000000 1.705280 0.000000 
#    z 0.000000 0.000000 1.519390 
# 
# From -- ./inp_files/2462.got.cif
#   From: 2010.05.17/outbox.cif.g08.bks.cpg/sg61_2_cif.got.tgz:2462.got - 2010.06.03 15:17:17.
