data_PCOD9459359
_publ_section_title
;
Structure prediction by ZEFSAII (Michael W. Deem and Ramdas Pophale) SiO2 
 PCOD9459359
Probable space group: P B C A
;
_chemical_formula_sum "Si O2"
_cell_formula_units_Z 64
_cell_length_a 16.750400
_cell_length_b 15.991817
_cell_length_c 12.399093
_cell_angle_alpha 90.000000
_cell_angle_beta 90.000000
_cell_angle_gamma 90.000000
_cell_volume 3321.336753
_symmetry_space_group_name_H-M "P B C A"
_symmetry_group_IT_number 61
_symmetry_cell_setting 'orthorhombic'
loop_
_space_group_symop_operation_xyz
x,y,z
1/2-x,-y,1/2+z
1/2+x,1/2-y,-z
-x,1/2+y,1/2-z
-x,-y,-z
1/2+x,y,1/2-z
1/2-x,1/2+y,z
x,1/2-y,1/2+z
loop_
_atom_site_type_symbol
_atom_site_label
_atom_site_fract_x
_atom_site_fract_y
_atom_site_fract_z
Si Si1 0.181940 0.670162 0.876815
Si Si2 0.967989 0.410967 0.039445
Si Si3 0.260697 0.689601 0.655243
Si Si4 0.865478 0.337403 0.522679
Si Si5 0.414018 0.982274 0.449560
Si Si6 0.169638 0.167614 0.035185
Si Si7 0.927636 0.862349 0.257304
Si Si8 0.017972 0.246596 0.922995
O O1 0.125539 0.600720 0.931794
O O2 0.200709 0.667455 0.751352
O O3 0.140591 0.759681 0.896861
O O4 0.266228 0.670156 0.938585
O O5 0.009890 0.387869 0.152314
O O6 0.000000 0.500000 0.000000
O O7 0.991429 0.340216 0.951344
O O8 0.215036 0.663301 0.547560
O O9 0.286482 0.786918 0.634959
O O10 0.342835 0.644819 0.684398
O O11 0.876150 0.427907 0.572893
O O12 0.942486 0.313053 0.449981
O O13 0.500000 0.000000 0.500000
O O14 0.363018 0.926884 0.534966
O O15 0.421795 0.927988 0.341078
O O16 0.092069 0.222129 0.001085
O O17 0.952823 0.776144 0.197104
#
# Coordination Sequence:
#
# PCOD9459359 Si02
#       8
#     8   8   8   8   8   8   8   8
#     4  10  22  42  64  93 129 173 217 267 334 405
#     4  11  25  45  67 100 137 170 227 284 331 399
#     4  11  21  41  65  91 127 176 212 268 332 397
#     4  10  22  39  64  90 128 169 215 270 325 393
#     4  11  21  41  64  94 127 165 221 275 322 396
#     4  10  20  39  66  90 127 166 218 272 329 390
#     4  11  22  41  67  93 131 173 215 264 340 398
#     4  10  19  43  67  89 125 179 216 270 331 407
#
# _framework density 19.269348999999998
#
# number of rings (size 3 to 8) (size 9 to 14) (size 15 to 20)
#    0.000    1.500    6.250    0.750    0.000    1.000 
#   15.750    0.000    0.000    0.000    0.000    0.000 
#    0.000    0.000    0.000    0.000    0.000    0.000 
#
# Total GULP energy -356820.320465 kJ/mol
# GULP energy per Si atom -5575.317507 kJ/mol
# Density = 1.922549 g / cm^3
# Si number density = 19.269349 Si / 1000 Ang^3
#
#
#
# Elastic Constant Matrix: (Units=GPa)
#
#
# Indices 1 2 3 4 5 6 
#
# 1 76.0428 16.8226 13.7668 0.0000 0.0000 0.0000
# 2 16.8226 100.2250 11.9888 0.0000 0.0000 0.0000
# 3 13.7668 11.9888 46.8366 0.0000 0.0000 0.0000
# 4 0.0000 0.0000 0.0000 22.4533 0.0000 0.0000
# 5 0.0000 0.0000 0.0000 0.0000 31.9737 0.0000
# 6 0.0000 0.0000 0.0000 0.0000 0.0000 30.4347
#
#
#
# Elastic Compliance Matrix: (Units=1/GPa)
#
#
# Indices 1 2 3 4 5 6 
#
# 1 0.014250 -0.001951 -0.003689 0.000000 0.000000 0.000000
# 2 -0.001951 0.010560 -0.002130 0.000000 0.000000 0.000000
# 3 -0.003689 -0.002130 0.022980 0.000000 0.000000 0.000000
# 4 0.000000 0.000000 0.000000 0.044537 0.000000 0.000000
# 5 0.000000 0.000000 0.000000 0.000000 0.031276 0.000000
# 6 0.000000 0.000000 0.000000 0.000000 0.000000 0.032857
#
#
# Mechanical properties :
#
#
# Convention : Reuss Voigt Hill
#
# Bulk Modulus (GPa) = 31.00668 34.25120 32.62894
# Shear Modulus (GPa) = 27.35993 29.00741 28.18367
#
# Velocity S-wave (km/s) = 3.77220 3.88411 3.82857
# Velocity P-wave (km/s) = 5.92442 6.15862 6.04266
#
# Compressibility (1/GPa) = 0.03225112
#
# Stress axis : x y z
#
# Youngs Moduli (GPa) = 70.17594 94.69970 43.51542
#
# Poissons Ratio (x) = 0.18471 0.16054
# Poissons Ratio (y) = 0.13688 0.09267
# Poissons Ratio (z) = 0.25890 0.20168
#
# Static dielectric constant tensor:
#      x y z
#    x 1.705660 0.000000 0.000000 
#    y 0.000000 1.683870 0.000000 
#    z 0.000000 0.000000 1.667970 
# 
# From -- ./inp_files/6284.got.cif
#   From: 2010.05.17/outbox.cif.g08.bks.cpg/sg61_4_cif.got.tgz:6284.got - 2010.06.03 15:17:17.
