data_PCOD9459826
_publ_section_title
;
Structure prediction by ZEFSAII (Michael W. Deem and Ramdas Pophale) SiO2 
 PCOD9459826
Probable space group: P B C A
;
_chemical_formula_sum "Si O2"
_cell_formula_units_Z 64
_cell_length_a 8.514590
_cell_length_b 15.795064
_cell_length_c 22.634541
_cell_angle_alpha 90.000000
_cell_angle_beta 90.000000
_cell_angle_gamma 90.000000
_cell_volume 3044.085331
_symmetry_space_group_name_H-M "P B C A"
_symmetry_group_IT_number 61
_symmetry_cell_setting 'orthorhombic'
loop_
_space_group_symop_operation_xyz
x,y,z
1/2-x,-y,1/2+z
1/2+x,1/2-y,-z
-x,1/2+y,1/2-z
-x,-y,-z
1/2+x,y,1/2-z
1/2-x,1/2+y,z
x,1/2-y,1/2+z
loop_
_atom_site_type_symbol
_atom_site_label
_atom_site_fract_x
_atom_site_fract_y
_atom_site_fract_z
Si Si1 0.304740 0.358177 0.054328
Si Si2 0.666743 0.068609 0.056709
Si Si3 0.804981 0.828080 0.676315
Si Si4 0.869263 0.308387 0.113441
Si Si5 0.340899 0.600915 0.979701
Si Si6 0.920727 0.968771 0.375027
Si Si7 0.147382 0.879590 0.705505
Si Si8 0.829161 0.691507 0.401808
O O1 0.479667 0.382688 0.037440
O O2 0.234366 0.422359 0.102453
O O3 0.294639 0.263161 0.078157
O O4 0.185005 0.368968 0.998722
O O5 0.711409 0.117859 0.116165
O O6 0.781353 0.991132 0.040100
O O7 0.498111 0.027436 0.073132
O O8 0.741442 0.735196 0.661526
O O9 0.705800 0.871087 0.728223
O O10 0.986308 0.828634 0.695158
O O11 0.769134 0.333541 0.056038
O O12 0.953541 0.394037 0.135155
O O13 0.005600 0.240710 0.099187
O O14 0.328860 0.618714 0.049191
O O15 0.891170 0.026774 0.318563
O O16 0.279918 0.843347 0.661524
#
# Coordination Sequence:
#
# PCOD9459826 Si02
#       8
#     8   8   8   8   8   8   8   8
#     4  11  21  35  60  92 122 158 201 252 303 360
#     4  10  21  37  58  87 122 161 197 248 309 366
#     4  11  23  41  63  86 117 159 206 253 306 366
#     4  10  22  41  61  89 127 162 203 253 307 365
#     4  11  21  35  59  91 124 158 198 249 305 365
#     4   9  22  41  62  89 125 164 206 253 310 366
#     4  11  24  43  65  88 118 162 207 253 305 364
#     4  11  22  37  59  88 121 160 202 249 303 360
#
# _framework density 21.024377000000001
#
# number of rings (size 3 to 8) (size 9 to 14) (size 15 to 20)
#    0.000    1.500    0.000    5.250    0.000    8.000 
#    0.000   12.500    0.000    0.000    0.000    0.000 
#    0.000    0.000    0.000    0.000    0.000    0.000 
#
# Total GULP energy -358075.538219 kJ/mol
# GULP energy per Si atom -5594.930285 kJ/mol
# Density = 2.097653 g / cm^3
# Si number density = 21.024377 Si / 1000 Ang^3
#
#
#
# Elastic Constant Matrix: (Units=GPa)
#
#
# Indices 1 2 3 4 5 6 
#
# 1 79.7416 17.5904 4.6199 0.0000 0.0000 0.0000
# 2 17.5904 66.1101 14.9888 0.0000 0.0000 0.0000
# 3 4.6199 14.9888 68.8866 0.0000 0.0000 0.0000
# 4 0.0000 0.0000 0.0000 23.7532 0.0000 0.0000
# 5 0.0000 0.0000 0.0000 0.0000 20.5636 0.0000
# 6 0.0000 0.0000 0.0000 0.0000 0.0000 24.0426
#
#
#
# Elastic Compliance Matrix: (Units=1/GPa)
#
#
# Indices 1 2 3 4 5 6 
#
# 1 0.013324 -0.003516 -0.000129 0.000000 0.000000 0.000000
# 2 -0.003516 0.016839 -0.003428 0.000000 0.000000 0.000000
# 3 -0.000129 -0.003428 0.015271 0.000000 0.000000 0.000000
# 4 0.000000 0.000000 0.000000 0.042100 0.000000 0.000000
# 5 0.000000 0.000000 0.000000 0.000000 0.048630 0.000000
# 6 0.000000 0.000000 0.000000 0.000000 0.000000 0.041593
#
#
# Mechanical properties :
#
#
# Convention : Reuss Voigt Hill
#
# Bulk Modulus (GPa) = 31.96066 32.12629 32.04348
# Shear Modulus (GPa) = 24.71205 25.50784 25.10995
#
# Velocity S-wave (km/s) = 3.43213 3.48695 3.45965
# Velocity P-wave (km/s) = 5.56244 5.61475 5.58866
#
# Compressibility (1/GPa) = 0.03128846
#
# Stress axis : x y z
#
# Youngs Moduli (GPa) = 75.05511 59.38575 65.48297
#
# Poissons Ratio (x) = 0.20880 0.00842
# Poissons Ratio (y) = 0.26389 0.22449
# Poissons Ratio (z) = 0.00965 0.20358
#
# Static dielectric constant tensor:
#      x y z
#    x 1.773790 0.000000 0.000000 
#    y 0.000000 1.772330 0.000000 
#    z 0.000000 0.000000 1.714310 
# 
# From -- ./inp_files/10168.got.cif
#   From: 2010.05.17/outbox.cif.g08.bks.cpg/sg61_6_cif.got.tgz:10168.got - 2010.06.03 15:17:17.
