data_PCOD9459083
_publ_section_title
;
Structure prediction by ZEFSAII (Michael W. Deem and Ramdas Pophale) SiO2 
 PCOD9459083
Probable space group: P B C A
;
_chemical_formula_sum "Si O2"
_cell_formula_units_Z 48
_cell_length_a 8.778464
_cell_length_b 27.714502
_cell_length_c 8.808342
_cell_angle_alpha 90.000000
_cell_angle_beta 90.000000
_cell_angle_gamma 90.000000
_cell_volume 2142.988203
_symmetry_space_group_name_H-M "P B C A"
_symmetry_group_IT_number 61
_symmetry_cell_setting 'orthorhombic'
loop_
_space_group_symop_operation_xyz
x,y,z
1/2-x,-y,1/2+z
1/2+x,1/2-y,-z
-x,1/2+y,1/2-z
-x,-y,-z
1/2+x,y,1/2-z
1/2-x,1/2+y,z
x,1/2-y,1/2+z
loop_
_atom_site_type_symbol
_atom_site_label
_atom_site_fract_x
_atom_site_fract_y
_atom_site_fract_z
Si Si1 0.721225 0.005769 0.461359
Si Si2 0.868052 0.092548 0.837311
Si Si3 0.133735 0.793160 0.575016
Si Si4 0.156152 0.348763 0.385475
Si Si5 0.035836 0.005788 0.747643
Si Si6 0.068340 0.254815 0.202488
O O1 0.289443 0.052740 0.555035
O O2 0.668656 0.017516 0.629188
O O3 0.588992 0.023212 0.345205
O O4 0.883043 0.019075 0.392421
O O5 0.002584 0.121897 0.918633
O O6 0.957759 0.057334 0.719317
O O7 0.750647 0.126333 0.750661
O O8 0.225183 0.840783 0.522553
O O9 0.270227 0.758338 0.629332
O O10 0.046421 0.774462 0.425283
O O11 0.010353 0.790029 0.709875
O O12 0.099122 0.296942 0.324442
#
# Coordination Sequence:
#
# PCOD9459083 Si02
#       6
#     8   8   8   8   8   8
#     4   9  18  34  58  86 116 151 191 245 279 356
#     4  10  18  36  55  91 113 151 198 244 291 366
#     4  12  23  40  62  89 119 162 205 261 298 374
#     4  12  21  34  66  86 116 157 203 253 304 348
#     4   9  18  34  58  86 113 152 190 241 285 350
#     4  12  23  40  60  92 118 157 216 247 310 365
#
# _framework density 22.398631000000002
#
# number of rings (size 3 to 8) (size 9 to 14) (size 15 to 20)
#    1.000    0.333    6.667    0.000    0.000    0.667 
#    0.000    0.000    3.667    0.000    0.000    0.000 
#    0.000    0.000    0.000    0.000    0.000    0.000 
#
# Total GULP energy -267580.731967 kJ/mol
# GULP energy per Si atom -5574.598583 kJ/mol
# Density = 2.234765 g / cm^3
# Si number density = 22.398631 Si / 1000 Ang^3
#
#
#
# Elastic Constant Matrix: (Units=GPa)
#
#
# Indices 1 2 3 4 5 6 
#
# 1 89.9721 2.4861 35.3951 0.0000 0.0000 0.0000
# 2 2.4861 38.2590 -3.4365 0.0000 0.0000 0.0000
# 3 35.3951 -3.4365 45.6062 0.0000 0.0000 0.0000
# 4 0.0000 0.0000 0.0000 20.4555 0.0000 0.0000
# 5 0.0000 0.0000 0.0000 0.0000 43.5067 0.0000
# 6 0.0000 0.0000 0.0000 0.0000 0.0000 37.3421
#
#
#
# Elastic Compliance Matrix: (Units=1/GPa)
#
#
# Indices 1 2 3 4 5 6 
#
# 1 0.016180 -0.002194 -0.012723 0.000000 0.000000 0.000000
# 2 -0.002194 0.026613 0.003708 0.000000 0.000000 0.000000
# 3 -0.012723 0.003708 0.032081 0.000000 0.000000 0.000000
# 4 0.000000 0.000000 0.000000 0.048887 0.000000 0.000000
# 5 0.000000 0.000000 0.000000 0.000000 0.022985 0.000000
# 6 0.000000 0.000000 0.000000 0.000000 0.000000 0.026779
#
#
# Mechanical properties :
#
#
# Convention : Reuss Voigt Hill
#
# Bulk Modulus (GPa) = 19.06345 26.96965 23.01655
# Shear Modulus (GPa) = 23.42704 29.55371 26.49037
#
# Velocity S-wave (km/s) = 3.23757 3.63635 3.44274
# Velocity P-wave (km/s) = 4.74397 5.44956 5.10896
#
# Compressibility (1/GPa) = 0.05245639
#
# Stress axis : x y z
#
# Youngs Moduli (GPa) = 61.80314 37.57523 31.17152
#
# Poissons Ratio (x) = 0.08245 0.39659
# Poissons Ratio (y) = 0.13561 -0.11559
# Poissons Ratio (z) = 0.78632 -0.13934
#
# Static dielectric constant tensor:
#      x y z
#    x 1.891820 0.000000 0.000000 
#    y 0.000000 1.856180 0.000000 
#    z 0.000000 0.000000 1.858390 
# 
# From -- ./inp_files/1901.got.cif
#   From: 2010.05.17/outbox.cif.g08.bks.cpg/sg61_1_cif.got.tgz:1901.got - 2010.06.03 15:17:17.
