data_PCOD9459050
_publ_section_title
;
Structure prediction by ZEFSAII (Michael W. Deem and Ramdas Pophale) SiO2 
 PCOD9459050
Probable space group: P B C A
;
_chemical_formula_sum "Si O2"
_cell_formula_units_Z 48
_cell_length_a 13.542289
_cell_length_b 8.383265
_cell_length_c 18.075831
_cell_angle_alpha 90.000000
_cell_angle_beta 90.000000
_cell_angle_gamma 90.000000
_cell_volume 2052.123740
_symmetry_space_group_name_H-M "P B C A"
_symmetry_group_IT_number 61
_symmetry_cell_setting 'orthorhombic'
loop_
_space_group_symop_operation_xyz
x,y,z
1/2-x,-y,1/2+z
1/2+x,1/2-y,-z
-x,1/2+y,1/2-z
-x,-y,-z
1/2+x,y,1/2-z
1/2-x,1/2+y,z
x,1/2-y,1/2+z
loop_
_atom_site_type_symbol
_atom_site_label
_atom_site_fract_x
_atom_site_fract_y
_atom_site_fract_z
Si Si1 0.825319 0.798214 0.845673
Si Si2 0.387306 0.331862 0.475184
Si Si3 0.450621 0.851279 0.281475
Si Si4 0.624152 0.843699 0.773371
Si Si5 0.284120 0.050866 0.544892
Si Si6 0.973320 0.900229 0.604578
O O1 0.907735 0.730622 0.792212
O O2 0.772715 0.669634 0.899188
O O3 0.738532 0.845672 0.788273
O O4 0.851338 0.940991 0.901746
O O5 0.344671 0.154885 0.485339
O O6 0.299249 0.442500 0.507466
O O7 0.418438 0.431618 0.402957
O O8 0.486387 0.340652 0.525735
O O9 0.411552 0.030062 0.287428
O O10 0.569020 0.826872 0.271785
O O11 0.419203 0.740490 0.350820
O O12 0.572193 0.915274 0.847054
#
# Coordination Sequence:
#
# PCOD9459050 Si02
#       6
#     8   8   8   8   8   8
#     4  11  19  34  58  83 111 145 192 234 274 347
#     4  10  19  36  58  75 111 146 193 223 277 336
#     4  10  21  35  58  83 114 142 190 237 285 334
#     4  10  21  36  56  85 109 152 185 230 293 336
#     4  10  18  33  58  82  99 147 194 223 272 336
#     4   9  20  36  55  77 112 152 175 232 282 336
#
# _framework density 23.390402000000002
#
# number of rings (size 3 to 8) (size 9 to 14) (size 15 to 20)
#    1.000    1.000    5.000    0.000    4.667    0.000 
#    3.000    0.000    3.667    9.000    0.000    0.000 
#    0.000    0.000    0.000    0.000    0.000    0.000 
#
# Total GULP energy -267442.085128 kJ/mol
# GULP energy per Si atom -5571.710107 kJ/mol
# Density = 2.333716 g / cm^3
# Si number density = 23.390402 Si / 1000 Ang^3
#
#
#
# Elastic Constant Matrix: (Units=GPa)
#
#
# Indices 1 2 3 4 5 6 
#
# 1 45.6112 1.3418 -8.2097 0.0000 0.0000 0.0000
# 2 1.3418 51.6788 -11.4464 0.0000 0.0000 0.0000
# 3 -8.2097 -11.4464 26.2574 0.0000 0.0000 0.0000
# 4 0.0000 0.0000 0.0000 26.7701 0.0000 0.0000
# 5 0.0000 0.0000 0.0000 0.0000 24.2343 0.0000
# 6 0.0000 0.0000 0.0000 0.0000 0.0000 20.4492
#
#
#
# Elastic Compliance Matrix: (Units=1/GPa)
#
#
# Indices 1 2 3 4 5 6 
#
# 1 0.023290 0.001116 0.007768 0.000000 0.000000 0.000000
# 2 0.001116 0.021472 0.009709 0.000000 0.000000 0.000000
# 3 0.007768 0.009709 0.044746 0.000000 0.000000 0.000000
# 4 0.000000 0.000000 0.000000 0.037355 0.000000 0.000000
# 5 0.000000 0.000000 0.000000 0.000000 0.041264 0.000000
# 6 0.000000 0.000000 0.000000 0.000000 0.000000 0.048902
#
#
# Mechanical properties :
#
#
# Convention : Reuss Voigt Hill
#
# Bulk Modulus (GPa) = 7.89301 9.65764 8.77533
# Shear Modulus (GPa) = 22.51513 23.74817 23.13165
#
# Velocity S-wave (km/s) = 3.10591 3.18983 3.14815
# Velocity P-wave (km/s) = 4.03039 4.20767 4.11999
#
# Compressibility (1/GPa) = 0.12669437
#
# Stress axis : x y z
#
# Youngs Moduli (GPa) = 42.93715 46.57270 22.34840
#
# Poissons Ratio (x) = -0.05197 -0.17361
# Poissons Ratio (y) = -0.04791 -0.21698
# Poissons Ratio (z) = -0.33355 -0.45218
#
# Static dielectric constant tensor:
#      x y z
#    x 1.914390 0.000000 0.000000 
#    y 0.000000 1.981970 0.000000 
#    z 0.000000 0.000000 1.953450 
# 
# From -- ./inp_files/10413.got.cif
#   From: 2010.05.17/outbox.cif.g08.bks.cpg/sg61_6_cif.got.tgz:10413.got - 2010.06.03 15:17:17.
