data_PCOD9459592
_publ_section_title
;
Structure prediction by ZEFSAII (Michael W. Deem and Ramdas Pophale) SiO2 
 PCOD9459592
Probable space group: P B C A
;
_chemical_formula_sum "Si O2"
_cell_formula_units_Z 56
_cell_length_a 13.231949
_cell_length_b 13.135485
_cell_length_c 14.195589
_cell_angle_alpha 90.000000
_cell_angle_beta 90.000000
_cell_angle_gamma 90.000000
_cell_volume 2467.307893
_symmetry_space_group_name_H-M "P B C A"
_symmetry_group_IT_number 61
_symmetry_cell_setting 'orthorhombic'
loop_
_space_group_symop_operation_xyz
x,y,z
1/2-x,-y,1/2+z
1/2+x,1/2-y,-z
-x,1/2+y,1/2-z
-x,-y,-z
1/2+x,y,1/2-z
1/2-x,1/2+y,z
x,1/2-y,1/2+z
loop_
_atom_site_type_symbol
_atom_site_label
_atom_site_fract_x
_atom_site_fract_y
_atom_site_fract_z
Si Si1 0.763653 0.851874 0.139536
Si Si2 0.393979 0.323142 0.518699
Si Si3 0.811942 0.862302 0.576664
Si Si4 0.147063 0.934666 0.810748
Si Si5 0.927247 0.674817 0.894924
Si Si6 0.764239 0.267906 0.814669
Si Si7 0.990952 0.964275 0.669102
O O1 0.688183 0.870342 0.052677
O O2 0.830254 0.754896 0.106532
O O3 0.706130 0.810249 0.232009
O O4 0.827387 0.948285 0.170747
O O5 0.482676 0.275191 0.455278
O O6 0.331706 0.255889 0.592572
O O7 0.450172 0.406714 0.583655
O O8 0.693645 0.880663 0.597025
O O9 0.851359 0.875547 0.471838
O O10 0.876622 0.934870 0.645565
O O11 0.211875 0.879064 0.727855
O O12 0.034978 0.925096 0.768644
O O13 0.853169 0.746989 0.836604
O O14 0.979859 0.582541 0.839299
#
# Coordination Sequence:
#
# PCOD9459592 Si02
#       7
#     8   8   8   8   8   8   8
#     4  11  20  40  63  89 127 172 208 270 324 376
#     4  10  21  38  64  90 124 169 212 260 323 389
#     4  10  21  37  61  94 123 163 222 263 319 403
#     4  10  21  38  58  92 127 165 209 266 319 375
#     4  11  19  40  63  90 123 167 218 264 325 389
#     4  10  22  39  58  96 126 160 217 269 313 397
#     4  10  20  38  65  91 124 169 216 267 322 393
#
# _framework density 22.696802999999999
#
# number of rings (size 3 to 8) (size 9 to 14) (size 15 to 20)
#    0.000    1.714    2.857    3.429    0.000    0.000 
#   20.571    0.000    0.000    0.857    0.000    0.000 
#    0.000    0.000    0.000    0.000    0.000    0.000 
#
# Total GULP energy -312358.076507 kJ/mol
# GULP energy per Si atom -5577.822795 kJ/mol
# Density = 2.264514 g / cm^3
# Si number density = 22.696803 Si / 1000 Ang^3
#
#
#
# Elastic Constant Matrix: (Units=GPa)
#
#
# Indices 1 2 3 4 5 6 
#
# 1 43.6923 -7.9276 9.6542 0.0000 0.0000 0.0000
# 2 -7.9276 59.3477 -13.4393 0.0000 0.0000 0.0000
# 3 9.6542 -13.4393 69.5291 0.0000 0.0000 0.0000
# 4 0.0000 0.0000 0.0000 20.6002 0.0000 0.0000
# 5 0.0000 0.0000 0.0000 0.0000 45.9749 0.0000
# 6 0.0000 0.0000 0.0000 0.0000 0.0000 31.5094
#
#
#
# Elastic Compliance Matrix: (Units=1/GPa)
#
#
# Indices 1 2 3 4 5 6 
#
# 1 0.023978 0.002561 -0.002834 0.000000 0.000000 0.000000
# 2 0.002561 0.017895 0.003103 0.000000 0.000000 0.000000
# 3 -0.002834 0.003103 0.015376 0.000000 0.000000 0.000000
# 4 0.000000 0.000000 0.000000 0.048543 0.000000 0.000000
# 5 0.000000 0.000000 0.000000 0.000000 0.021751 0.000000
# 6 0.000000 0.000000 0.000000 0.000000 0.000000 0.031737
#
#
# Mechanical properties :
#
#
# Convention : Reuss Voigt Hill
#
# Bulk Modulus (GPa) = 15.89601 16.57154 16.23377
# Shear Modulus (GPa) = 28.63866 31.90235 30.27051
#
# Velocity S-wave (km/s) = 3.55603 3.75318 3.65593
# Velocity P-wave (km/s) = 4.88664 5.10872 4.99891
#
# Compressibility (1/GPa) = 0.06290886
#
# Stress axis : x y z
#
# Youngs Moduli (GPa) = 41.70436 55.88252 65.03705
#
# Poissons Ratio (x) = -0.14312 0.18434
# Poissons Ratio (y) = -0.10681 -0.20183
# Poissons Ratio (z) = 0.11821 -0.17342
#
# Static dielectric constant tensor:
#      x y z
#    x 1.864200 0.000000 0.000000 
#    y 0.000000 1.892420 0.000000 
#    z 0.000000 0.000000 1.894820 
# 
# From -- ./inp_files/7913.got.cif
#   From: 2010.05.17/outbox.cif.g08.bks.cpg/sg61_4_cif.got.tgz:7913.got - 2010.06.03 15:17:17.
