data_PCOD9459145
_publ_section_title
;
Structure prediction by ZEFSAII (Michael W. Deem and Ramdas Pophale) SiO2 
 PCOD9459145
Probable space group: P B C A
;
_chemical_formula_sum "Si O2"
_cell_formula_units_Z 48
_cell_length_a 22.134981
_cell_length_b 5.488821
_cell_length_c 18.220530
_cell_angle_alpha 90.000000
_cell_angle_beta 90.000000
_cell_angle_gamma 90.000000
_cell_volume 2213.702355
_symmetry_space_group_name_H-M "P B C A"
_symmetry_group_IT_number 61
_symmetry_cell_setting 'orthorhombic'
loop_
_space_group_symop_operation_xyz
x,y,z
1/2-x,-y,1/2+z
1/2+x,1/2-y,-z
-x,1/2+y,1/2-z
-x,-y,-z
1/2+x,y,1/2-z
1/2-x,1/2+y,z
x,1/2-y,1/2+z
loop_
_atom_site_type_symbol
_atom_site_label
_atom_site_fract_x
_atom_site_fract_y
_atom_site_fract_z
Si Si1 0.496226 0.751012 0.073677
Si Si2 0.029106 0.535063 0.276503
Si Si3 0.398597 0.446141 0.648745
Si Si4 0.778410 0.678330 0.882227
Si Si5 0.900800 0.120257 0.983224
Si Si6 0.269522 0.369987 0.951328
O O1 0.522837 0.571842 0.136770
O O2 0.443770 0.612055 0.028613
O O3 0.463112 0.963782 0.117695
O O4 0.553696 0.809286 0.023515
O O5 0.091984 0.591703 0.234945
O O6 0.012029 0.256749 0.256413
O O7 0.348791 0.649251 0.633363
O O8 0.382172 0.220102 0.596959
O O9 0.747943 0.430313 0.853155
O O10 0.765657 0.664316 0.970076
O O11 0.839872 0.093445 0.029152
O O12 0.242607 0.610086 0.913960
#
# Coordination Sequence:
#
# PCOD9459145 Si02
#       6
#     8   8   8   8   8   8
#     4  10  22  35  52  86 115 148 182 228 286 340
#     4  10  21  37  55  77 111 145 179 215 275 331
#     4  11  20  34  58  79 113 148 186 233 276 335
#     4  10  19  31  53  80 104 134 188 235 271 309
#     4  11  20  34  57  82 114 144 187 235 279 332
#     4  10  19  33  52  79 105 139 183 233 273 316
#
# _framework density 21.683129999999998
#
# number of rings (size 3 to 8) (size 9 to 14) (size 15 to 20)
#    0.000    1.667    5.000    2.500    0.000    0.000 
#    0.000    0.000    0.000    2.000    0.000    0.000 
#    0.000    0.000    0.000    0.000    0.000    0.000 
#
# Total GULP energy -267559.807827 kJ/mol
# GULP energy per Si atom -5574.162663 kJ/mol
# Density = 2.163378 g / cm^3
# Si number density = 21.683130 Si / 1000 Ang^3
#
#
#
# Elastic Constant Matrix: (Units=GPa)
#
#
# Indices 1 2 3 4 5 6 
#
# 1 93.0691 21.6452 19.6995 0.0000 0.0000 0.0000
# 2 21.6452 121.6518 7.2967 0.0000 0.0000 0.0000
# 3 19.6995 7.2967 34.9878 0.0000 0.0000 0.0000
# 4 0.0000 0.0000 0.0000 23.1034 0.0000 0.0000
# 5 0.0000 0.0000 0.0000 0.0000 12.2893 0.0000
# 6 0.0000 0.0000 0.0000 0.0000 0.0000 24.1658
#
#
#
# Elastic Compliance Matrix: (Units=1/GPa)
#
#
# Indices 1 2 3 4 5 6 
#
# 1 0.012592 -0.001838 -0.006706 0.000000 0.000000 0.000000
# 2 -0.001838 0.008593 -0.000757 0.000000 0.000000 0.000000
# 3 -0.006706 -0.000757 0.032515 0.000000 0.000000 0.000000
# 4 0.000000 0.000000 0.000000 0.043284 0.000000 0.000000
# 5 0.000000 0.000000 0.000000 0.000000 0.081372 0.000000
# 6 0.000000 0.000000 0.000000 0.000000 0.000000 0.041381
#
#
# Mechanical properties :
#
#
# Convention : Reuss Voigt Hill
#
# Bulk Modulus (GPa) = 28.49285 38.55464 33.52374
# Shear Modulus (GPa) = 19.99701 25.31618 22.65660
#
# Velocity S-wave (km/s) = 3.04013 3.42065 3.23599
# Velocity P-wave (km/s) = 5.04899 5.78106 5.42738
#
# Compressibility (1/GPa) = 0.03509653
#
# Stress axis : x y z
#
# Youngs Moduli (GPa) = 79.41744 116.37852 30.75492
#
# Poissons Ratio (x) = 0.21392 0.20625
# Poissons Ratio (y) = 0.14598 0.02328
# Poissons Ratio (z) = 0.53259 0.08810
#
# Static dielectric constant tensor:
#      x y z
#    x 1.801940 0.000000 0.000000 
#    y 0.000000 1.891660 0.000000 
#    z 0.000000 0.000000 1.852290 
# 
# From -- ./inp_files/751.got.cif
#   From: 2010.05.17/outbox.cif.g08.bks.cpg/sg61_1_cif.got.tgz:751.got - 2010.06.03 15:17:17.
