data_PCOD9459703
_publ_section_title
;
Structure prediction by ZEFSAII (Michael W. Deem and Ramdas Pophale) SiO2 
 PCOD9459703
Probable space group: P B C A
;
_chemical_formula_sum "Si O2"
_cell_formula_units_Z 48
_cell_length_a 20.982208
_cell_length_b 13.524245
_cell_length_c 8.916198
_cell_angle_alpha 90.000000
_cell_angle_beta 90.000000
_cell_angle_gamma 90.000000
_cell_volume 2530.136325
_symmetry_space_group_name_H-M "P B C A"
_symmetry_group_IT_number 61
_symmetry_cell_setting 'orthorhombic'
loop_
_space_group_symop_operation_xyz
x,y,z
1/2-x,-y,1/2+z
1/2+x,1/2-y,-z
-x,1/2+y,1/2-z
-x,-y,-z
1/2+x,y,1/2-z
1/2-x,1/2+y,z
x,1/2-y,1/2+z
loop_
_atom_site_type_symbol
_atom_site_label
_atom_site_fract_x
_atom_site_fract_y
_atom_site_fract_z
Si Si1 0.656021 0.533345 0.177047
Si Si2 0.693297 0.724543 0.989257
Si Si3 0.011766 0.276472 0.129860
Si Si4 0.770489 0.844762 0.211145
Si Si5 0.905777 0.846514 0.100527
Si Si6 0.074513 0.834758 0.634298
O O1 0.713627 0.461027 0.223962
O O2 0.612948 0.460949 0.073260
O O3 0.612925 0.568367 0.315926
O O4 0.680543 0.630226 0.093984
O O5 0.746224 0.698250 0.866654
O O6 0.628178 0.754408 0.908045
O O7 0.717966 0.815556 0.088977
O O8 0.047722 0.339008 0.256528
O O9 0.964600 0.204670 0.222351
O O10 0.061715 0.210622 0.035253
O O11 0.972196 0.339426 0.008144
O O12 0.837997 0.800873 0.153552
#
# Coordination Sequence:
#
# PCOD9459703 Si02
#       6
#     8   8   8   8   8   8
#     4  10  24  37  61  96 118 157 217 238 313 369
#     4  12  21  43  63  90 129 162 197 268 305 371
#     4  10  20  41  65  82 129 163 199 252 305 354
#     4  10  24  38  67  87 128 157 208 251 315 368
#     4   9  22  40  62  93 117 166 202 252 304 368
#     4  11  21  39  63  89 118 168 199 247 306 360
#
# _framework density 18.971309000000002
#
# number of rings (size 3 to 8) (size 9 to 14) (size 15 to 20)
#    1.000    0.667    3.333    1.000    2.333    1.333 
#    0.000    0.000    3.667    0.000    0.000    0.000 
#    0.000    0.000    0.000    0.000    0.000    0.000 
#
# Total GULP energy -267467.182205 kJ/mol
# GULP energy per Si atom -5572.232963 kJ/mol
# Density = 1.892813 g / cm^3
# Si number density = 18.971309 Si / 1000 Ang^3
#
#
#
# Elastic Constant Matrix: (Units=GPa)
#
#
# Indices 1 2 3 4 5 6 
#
# 1 72.5027 7.2806 20.5373 0.0000 0.0000 0.0000
# 2 7.2806 34.9716 -7.1682 0.0000 0.0000 0.0000
# 3 20.5373 -7.1682 62.4289 0.0000 0.0000 0.0000
# 4 0.0000 0.0000 0.0000 10.7658 0.0000 0.0000
# 5 0.0000 0.0000 0.0000 0.0000 32.2202 0.0000
# 6 0.0000 0.0000 0.0000 0.0000 0.0000 -502.1723
#
#
#
# Elastic Compliance Matrix: (Units=1/GPa)
#
#
# Indices 1 2 3 4 5 6 
#
# 1 0.015866 -0.004478 -0.005734 0.000000 0.000000 0.000000
# 2 -0.004478 0.030548 0.004981 0.000000 0.000000 0.000000
# 3 -0.005734 0.004981 0.018476 0.000000 0.000000 0.000000
# 4 0.000000 0.000000 0.000000 0.092887 0.000000 0.000000
# 5 0.000000 0.000000 0.000000 0.000000 0.031036 0.000000
# 6 0.000000 0.000000 0.000000 0.000000 0.000000 -0.001991
#
#
# Mechanical properties :
#
#
# Convention : Reuss Voigt Hill
#
# Bulk Modulus (GPa) = 18.37292 23.46694 20.91993
# Shear Modulus (GPa) = 23.20959 -81.88703 -29.33872
#
# Velocity S-wave (km/s) = 3.50152 -6.57703 -3.93680
# Velocity P-wave (km/s) = 5.10422 6.72903 3.10055
#
# Compressibility (1/GPa) = 0.05442794
#
# Stress axis : x y z
#
# Youngs Moduli (GPa) = 63.02593 32.73546 54.12313
#
# Poissons Ratio (x) = 0.14660 0.31033
# Poissons Ratio (y) = 0.28226 -0.26958
# Poissons Ratio (z) = 0.36138 -0.16305
#
# Static dielectric constant tensor:
#      x y z
#    x 1.681020 0.000000 0.000000 
#    y 0.000000 1.646880 0.000000 
#    z 0.000000 0.000000 1.649520 
# 
# From -- ./inp_files/3846.got.cif
#   From: 2010.05.17/outbox.cif.g08.bks.cpg/sg61_2_cif.got.tgz:3846.got - 2010.06.03 15:17:17.
