data_PCOD9459432
_publ_section_title
;
Structure prediction by ZEFSAII (Michael W. Deem and Ramdas Pophale) SiO2 
 PCOD9459432
Probable space group: P B C A
;
_chemical_formula_sum "Si O2"
_cell_formula_units_Z 56
_cell_length_a 8.413631
_cell_length_b 14.540336
_cell_length_c 19.087891
_cell_angle_alpha 90.000000
_cell_angle_beta 90.000000
_cell_angle_gamma 90.000000
_cell_volume 2335.155736
_symmetry_space_group_name_H-M "P B C A"
_symmetry_group_IT_number 61
_symmetry_cell_setting 'orthorhombic'
loop_
_space_group_symop_operation_xyz
x,y,z
1/2-x,-y,1/2+z
1/2+x,1/2-y,-z
-x,1/2+y,1/2-z
-x,-y,-z
1/2+x,y,1/2-z
1/2-x,1/2+y,z
x,1/2-y,1/2+z
loop_
_atom_site_type_symbol
_atom_site_label
_atom_site_fract_x
_atom_site_fract_y
_atom_site_fract_z
Si Si1 0.547593 0.371931 0.966806
Si Si2 0.944499 0.993006 0.371808
Si Si3 0.059380 0.057123 0.784421
Si Si4 0.353238 0.430511 0.081612
Si Si5 0.754875 0.819452 0.847350
Si Si6 0.070126 0.262233 0.785167
Si Si7 0.747943 0.086287 0.127951
O O1 0.626516 0.473370 0.960722
O O2 0.667350 0.305546 0.924542
O O3 0.386026 0.381416 0.922630
O O4 0.476827 0.360344 0.044655
O O5 0.832520 0.081771 0.355484
O O6 0.106032 0.027366 0.407441
O O7 0.990303 0.958144 0.294970
O O8 0.835396 0.918854 0.411376
O O9 0.916106 0.055199 0.839824
O O10 0.132284 0.158660 0.786736
O O11 0.173764 0.977664 0.812649
O O12 0.612153 0.761236 0.812389
O O13 0.898233 0.807899 0.791248
O O14 0.166193 0.326732 0.837255
#
# Coordination Sequence:
#
# PCOD9459432 Si02
#       7
#     8   8   8   8   8   8   8
#     4   9  19  40  62  82 125 168 209 256 318 391
#     4  10  20  35  62  93 125 158 205 271 323 383
#     4  11  22  37  61  90 132 164 216 272 321 385
#     4   9  20  37  61  90 119 171 208 251 327 383
#     4  10  21  37  59  89 124 164 210 261 325 385
#     4  11  23  36  60  94 122 168 218 268 330 383
#     4  10  21  38  61  92 127 167 210 270 325 385
#
# _framework density 23.981269000000001
#
# number of rings (size 3 to 8) (size 9 to 14) (size 15 to 20)
#    0.000    2.000    1.429    1.714   12.000    0.571 
#    0.000    2.857    0.000    0.000    0.000    0.000 
#    0.000    0.000    0.000    0.000    0.000    0.000 
#
# Total GULP energy -312513.889734 kJ/mol
# GULP energy per Si atom -5580.605174 kJ/mol
# Density = 2.392669 g / cm^3
# Si number density = 23.981269 Si / 1000 Ang^3
#
#
#
# Elastic Constant Matrix: (Units=GPa)
#
#
# Indices 1 2 3 4 5 6 
#
# 1 101.0670 20.3510 29.1374 0.0000 0.0000 0.0000
# 2 20.3510 70.5373 -7.3057 0.0000 0.0000 0.0000
# 3 29.1374 -7.3057 70.9536 0.0000 0.0000 0.0000
# 4 0.0000 0.0000 0.0000 -0.0656 0.0000 0.0000
# 5 0.0000 0.0000 0.0000 0.0000 23.8920 0.0000
# 6 0.0000 0.0000 0.0000 0.0000 0.0000 18.8916
#
#
#
# Elastic Compliance Matrix: (Units=1/GPa)
#
#
# Indices 1 2 3 4 5 6 
#
# 1 0.012302 -0.004116 -0.005476 0.000000 0.000000 0.000000
# 2 -0.004116 0.015707 0.003308 0.000000 0.000000 0.000000
# 3 -0.005476 0.003308 0.016683 0.000000 0.000000 0.000000
# 4 0.000000 0.000000 0.000000-15.239156 0.000000 0.000000
# 5 0.000000 0.000000 0.000000 0.000000 0.041855 0.000000
# 6 0.000000 0.000000 0.000000 0.000000 0.000000 0.052934
#
#
# Mechanical properties :
#
#
# Convention : Reuss Voigt Hill
#
# Bulk Modulus (GPa) = 31.13020 36.32483 33.72751
# Shear Modulus (GPa) = -0.33164 21.90194 10.78515
#
# Velocity S-wave (km/s) = -0.37228 3.02535 2.12299
# Velocity P-wave (km/s) = 3.58112 5.23295 4.48376
#
# Compressibility (1/GPa) = 0.03212315
#
# Stress axis : x y z
#
# Youngs Moduli (GPa) = 81.28804 63.66538 59.94166
#
# Poissons Ratio (x) = 0.26207 0.32822
# Poissons Ratio (y) = 0.33462 -0.19827
# Poissons Ratio (z) = 0.44511 -0.21059
#
# Static dielectric constant tensor:
#      x y z
#    x 1.993520 0.000000 0.000000 
#    y 0.000000 1.955350 0.000000 
#    z 0.000000 0.000000 1.969110 
# 
# From -- ./inp_files/10128.got.cif
#   From: 2010.05.17/outbox.cif.g08.bks.cpg/sg61_6_cif.got.tgz:10128.got - 2010.06.03 15:17:17.
