data_PCOD9459358
_publ_section_title
;
Structure prediction by ZEFSAII (Michael W. Deem and Ramdas Pophale) SiO2 
 PCOD9459358
Probable space group: P B C A
;
_chemical_formula_sum "Si O2"
_cell_formula_units_Z 48
_cell_length_a 10.029531
_cell_length_b 12.530415
_cell_length_c 16.236047
_cell_angle_alpha 90.000000
_cell_angle_beta 90.000000
_cell_angle_gamma 90.000000
_cell_volume 2040.451985
_symmetry_space_group_name_H-M "P B C A"
_symmetry_group_IT_number 61
_symmetry_cell_setting 'orthorhombic'
loop_
_space_group_symop_operation_xyz
x,y,z
1/2-x,-y,1/2+z
1/2+x,1/2-y,-z
-x,1/2+y,1/2-z
-x,-y,-z
1/2+x,y,1/2-z
1/2-x,1/2+y,z
x,1/2-y,1/2+z
loop_
_atom_site_type_symbol
_atom_site_label
_atom_site_fract_x
_atom_site_fract_y
_atom_site_fract_z
Si Si1 0.942188 0.808657 0.158139
Si Si2 0.573182 0.754706 0.620462
Si Si3 0.815051 0.595286 0.172034
Si Si4 0.400558 0.596426 0.021149
Si Si5 0.822349 0.109058 0.754320
Si Si6 0.865953 0.059208 0.521280
O O1 0.933679 0.680933 0.169238
O O2 0.893936 0.839246 0.066041
O O3 0.824259 0.853449 0.220994
O O4 0.094242 0.851092 0.166717
O O5 0.684036 0.835234 0.655227
O O6 0.451190 0.826133 0.592550
O O7 0.572160 0.662734 0.689019
O O8 0.609287 0.683348 0.540949
O O9 0.820384 0.518663 0.250451
O O10 0.816204 0.508754 0.099488
O O11 0.254616 0.553004 0.041858
O O12 0.500000 0.500000 0.000000
O O13 0.000000 0.000000 0.500000
#
# Coordination Sequence:
#
# PCOD9459358 Si02
#       6
#     8   8   8   8   8   8
#     4  11  23  44  64  97 133 184 226 289 340 415
#     4  10  21  41  70  95 133 180 229 287 352 413
#     4  10  19  43  67  86 133 180 216 281 345 402
#     4  12  22  41  70  97 137 179 231 290 359 416
#     4  10  23  43  66  94 137 178 234 278 347 413
#     4  11  22  39  64  97 135 173 222 285 358 407
#
# _framework density 23.524201000000001
#
# number of rings (size 3 to 8) (size 9 to 14) (size 15 to 20)
#    0.000    1.333    6.667    1.000    0.000    4.000 
#   12.000    0.000    0.000    0.000    0.000    0.000 
#    0.000    0.000    0.000    0.000    0.000    0.000 
#
# Total GULP energy -267501.407703 kJ/mol
# GULP energy per Si atom -5572.945994 kJ/mol
# Density = 2.347066 g / cm^3
# Si number density = 23.524201 Si / 1000 Ang^3
#
#
#
# Elastic Constant Matrix: (Units=GPa)
#
#
# Indices 1 2 3 4 5 6 
#
# 1 126.1660 43.2376 20.5169 0.0000 0.0000 0.0000
# 2 43.2376 151.0985 8.8664 0.0000 0.0000 0.0000
# 3 20.5169 8.8664 29.7529 0.0000 0.0000 0.0000
# 4 0.0000 0.0000 0.0000 31.2603 0.0000 0.0000
# 5 0.0000 0.0000 0.0000 0.0000 38.4352 0.0000
# 6 0.0000 0.0000 0.0000 0.0000 0.0000 27.1532
#
#
#
# Elastic Compliance Matrix: (Units=1/GPa)
#
#
# Indices 1 2 3 4 5 6 
#
# 1 0.009734 -0.002434 -0.005987 0.000000 0.000000 0.000000
# 2 -0.002434 0.007345 -0.000510 0.000000 0.000000 0.000000
# 3 -0.005987 -0.000510 0.037891 0.000000 0.000000 0.000000
# 4 0.000000 0.000000 0.000000 0.031989 0.000000 0.000000
# 5 0.000000 0.000000 0.000000 0.000000 0.026018 0.000000
# 6 0.000000 0.000000 0.000000 0.000000 0.000000 0.036828
#
#
# Mechanical properties :
#
#
# Convention : Reuss Voigt Hill
#
# Bulk Modulus (GPa) = 26.94926 50.25101 38.60013
# Shear Modulus (GPa) = 27.77228 34.99618 31.38423
#
# Velocity S-wave (km/s) = 3.43969 3.86121 3.65653
# Velocity P-wave (km/s) = 5.22074 6.42545 5.85417
#
# Compressibility (1/GPa) = 0.03710678
#
# Stress axis : x y z
#
# Youngs Moduli (GPa) = 102.73471 136.15331 26.39175
#
# Poissons Ratio (x) = 0.33141 0.15800
# Poissons Ratio (y) = 0.25006 0.01347
# Poissons Ratio (z) = 0.61506 0.06947
#
# Static dielectric constant tensor:
#      x y z
#    x 1.979530 0.000000 0.000000 
#    y 0.000000 1.941230 0.000000 
#    z 0.000000 0.000000 2.167620 
# 
# From -- ./inp_files/10838.got.cif
#   From: 2010.05.17/outbox.cif.g08.bks.cpg/sg61_6_cif.got.tgz:10838.got - 2010.06.03 15:17:17.
