data_PCOD9459261
_publ_section_title
;
Structure prediction by ZEFSAII (Michael W. Deem and Ramdas Pophale) SiO2 
 PCOD9459261
Probable space group: P B C A
;
_chemical_formula_sum "Si O2"
_cell_formula_units_Z 52
_cell_length_a 26.142865
_cell_length_b 12.481395
_cell_length_c 7.093870
_cell_angle_alpha 90.000000
_cell_angle_beta 90.000000
_cell_angle_gamma 90.000000
_cell_volume 2314.725698
_symmetry_space_group_name_H-M "P B C A"
_symmetry_group_IT_number 61
_symmetry_cell_setting 'orthorhombic'
loop_
_space_group_symop_operation_xyz
x,y,z
1/2-x,-y,1/2+z
1/2+x,1/2-y,-z
-x,1/2+y,1/2-z
-x,-y,-z
1/2+x,y,1/2-z
1/2-x,1/2+y,z
x,1/2-y,1/2+z
loop_
_atom_site_type_symbol
_atom_site_label
_atom_site_fract_x
_atom_site_fract_y
_atom_site_fract_z
Si Si1 0.566259 0.512268 0.420877
Si Si2 0.822599 0.669133 0.252514
Si Si3 0.937943 0.664383 0.249468
Si Si4 0.511158 0.865053 0.233671
Si Si5 0.317823 0.013382 0.063894
Si Si6 0.731192 0.378577 0.122475
Si Si7 0.500000 0.500000 0.000000
O O1 0.562834 0.407238 0.557589
O O2 0.527019 0.475780 0.253857
O O3 0.543545 0.608085 0.548535
O O4 0.624293 0.534228 0.370982
O O5 0.880775 0.709985 0.272037
O O6 0.821129 0.585463 0.082516
O O7 0.806627 0.613445 0.445139
O O8 0.783480 0.765917 0.216457
O O9 0.978232 0.760284 0.252276
O O10 0.954984 0.585456 0.412823
O O11 0.537034 0.892867 0.428858
O O12 0.288405 0.107691 0.955194
O O13 0.282733 0.972852 0.233991
#
# Coordination Sequence:
#
# PCOD9459261 Si02
#       7
#     8   8   8   8   8   8   4
#     4   9  21  37  58  88 126 168 207 259 334 389
#     4  11  24  39  66 101 127 169 224 274 333 398
#     4  10  21  37  63  93 127 165 219 270 322 393
#     4  10  19  36  60  88 129 166 209 270 312 392
#     4  11  23  41  65  95 132 170 212 280 336 395
#     4  12  23  40  68  95 128 168 218 277 334 391
#     4  10  22  34  60  96 126 164 216 262 328 390
#
# _framework density 22.464863999999999
#
# number of rings (size 3 to 8) (size 9 to 14) (size 15 to 20)
#    0.000    1.538    3.077    1.846    6.462    0.000 
#    0.000    0.000   23.692    0.000    0.000    0.000 
#    0.000    0.000    0.000    0.000    0.000    0.000 
#
# Total GULP energy -289755.466645 kJ/mol
# GULP energy per Si atom -5572.220512 kJ/mol
# Density = 2.241373 g / cm^3
# Si number density = 22.464864 Si / 1000 Ang^3
#
#
#
# Elastic Constant Matrix: (Units=GPa)
#
#
# Indices 1 2 3 4 5 6 
#
# 1 79.1045 39.4019 4.5560 0.0000 0.0000 0.0000
# 2 39.4019 88.7741 7.4609 0.0000 0.0000 0.0000
# 3 4.5560 7.4609 88.1638 0.0000 0.0000 0.0000
# 4 0.0000 0.0000 0.0000 26.6162 0.0000 0.0000
# 5 0.0000 0.0000 0.0000 0.0000 28.2163 0.0000
# 6 0.0000 0.0000 0.0000 0.0000 0.0000 34.8270
#
#
#
# Elastic Compliance Matrix: (Units=1/GPa)
#
#
# Indices 1 2 3 4 5 6 
#
# 1 0.016234 -0.007186 -0.000231 0.000000 0.000000 0.000000
# 2 -0.007186 0.014526 -0.000858 0.000000 0.000000 0.000000
# 3 -0.000231 -0.000858 0.011427 0.000000 0.000000 0.000000
# 4 0.000000 0.000000 0.000000 0.037571 0.000000 0.000000
# 5 0.000000 0.000000 0.000000 0.000000 0.035440 0.000000
# 6 0.000000 0.000000 0.000000 0.000000 0.000000 0.028713
#
#
# Mechanical properties :
#
#
# Convention : Reuss Voigt Hill
#
# Bulk Modulus (GPa) = 39.00490 39.87554 39.44022
# Shear Modulus (GPa) = 29.58443 31.57347 30.57895
#
# Velocity S-wave (km/s) = 3.63288 3.75301 3.69343
# Velocity P-wave (km/s) = 5.91586 6.04722 5.98190
#
# Compressibility (1/GPa) = 0.02563780
#
# Stress axis : x y z
#
# Youngs Moduli (GPa) = 61.59852 68.84145 87.51159
#
# Poissons Ratio (x) = 0.49470 0.02020
# Poissons Ratio (y) = 0.44265 0.07508
# Poissons Ratio (z) = 0.01422 0.05906
#
# Static dielectric constant tensor:
#      x y z
#    x 1.857290 0.000000 0.000000 
#    y 0.000000 1.877530 0.000000 
#    z 0.000000 0.000000 2.263140 
# 
# From -- ./inp_files/4443.got.cif
#   From: 2010.05.17/outbox.cif.g08.bks.cpg/sg61_3_cif.got.tgz:4443.got - 2010.06.03 15:17:17.
