data_PCOD9459052
_publ_section_title
;
Structure prediction by ZEFSAII (Michael W. Deem and Ramdas Pophale) SiO2 
 PCOD9459052
Probable space group: P B C A
;
_chemical_formula_sum "Si O2"
_cell_formula_units_Z 64
_cell_length_a 7.270774
_cell_length_b 15.111644
_cell_length_c 25.798590
_cell_angle_alpha 90.000000
_cell_angle_beta 90.000000
_cell_angle_gamma 90.000000
_cell_volume 2834.577465
_symmetry_space_group_name_H-M "P B C A"
_symmetry_group_IT_number 61
_symmetry_cell_setting 'orthorhombic'
loop_
_space_group_symop_operation_xyz
x,y,z
1/2-x,-y,1/2+z
1/2+x,1/2-y,-z
-x,1/2+y,1/2-z
-x,-y,-z
1/2+x,y,1/2-z
1/2-x,1/2+y,z
x,1/2-y,1/2+z
loop_
_atom_site_type_symbol
_atom_site_label
_atom_site_fract_x
_atom_site_fract_y
_atom_site_fract_z
Si Si1 0.953659 0.450578 0.947775
Si Si2 0.854145 0.474379 0.791210
Si Si3 0.088808 0.391262 0.130662
Si Si4 0.568627 0.963882 0.673679
Si Si5 0.542194 0.676778 0.365595
Si Si6 0.025653 0.135333 0.887679
Si Si7 0.931512 0.898422 0.993657
Si Si8 0.016985 0.198328 0.106975
O O1 0.963771 0.527635 0.905764
O O2 0.041801 0.368590 0.917362
O O3 0.757196 0.413167 0.963851
O O4 0.000000 0.500000 0.000000
O O5 0.930787 0.568730 0.811604
O O6 0.649093 0.471206 0.814149
O O7 0.842081 0.466758 0.729919
O O8 0.961370 0.392350 0.818051
O O9 0.304276 0.378171 0.116269
O O10 0.981885 0.301552 0.117956
O O11 0.587284 0.872062 0.643260
O O12 0.615585 0.049099 0.638576
O O13 0.449297 0.771618 0.358619
O O14 0.763001 0.690367 0.377338
O O15 0.074789 0.139547 0.948469
O O16 0.025517 0.832146 0.952205
O O17 0.000000 0.000000 0.000000
#
# Coordination Sequence:
#
# PCOD9459052 Si02
#       8
#     8   8   8   8   8   8   8   8
#     4  10  20  34  51  76 112 146 169 209 272 320
#     4   9  19  36  56  74 103 139 180 222 267 320
#     4   9  18  35  54  75 105 147 178 210 269 327
#     4  10  19  35  56  78 102 139 178 224 272 315
#     4   8  18  35  52  75 105 143 177 209 267 329
#     4  10  18  33  59  80 102 139 187 221 255 318
#     4  11  18  34  56  81 106 137 184 223 250 315
#     4   9  18  32  55  79 104 139 184 216 260 322
#
# _framework density 22.578319
#
# number of rings (size 3 to 8) (size 9 to 14) (size 15 to 20)
#    0.000    2.500    2.500    1.500    1.750    1.000 
#    4.500    0.000    2.750    0.000    0.000    0.000 
#    0.000    0.000    0.000    0.000    0.000    0.000 
#
# Total GULP energy -356870.732250 kJ/mol
# GULP energy per Si atom -5576.105191 kJ/mol
# Density = 2.252693 g / cm^3
# Si number density = 22.578319 Si / 1000 Ang^3
#
#
#
# Elastic Constant Matrix: (Units=GPa)
#
#
# Indices 1 2 3 4 5 6 
#
# 1 47.5100 15.8088 7.9219 0.0000 0.0000 0.0000
# 2 15.8088 143.0825 63.3296 0.0000 0.0000 0.0000
# 3 7.9219 63.3296 141.6395 0.0000 0.0000 0.0000
# 4 0.0000 0.0000 0.0000 19.8889 0.0000 0.0000
# 5 0.0000 0.0000 0.0000 0.0000 28.2441 0.0000
# 6 0.0000 0.0000 0.0000 0.0000 0.0000 6.1549
#
#
#
# Elastic Compliance Matrix: (Units=1/GPa)
#
#
# Indices 1 2 3 4 5 6 
#
# 1 0.021855 -0.002336 -0.000178 0.000000 0.000000 0.000000
# 2 -0.002336 0.008963 -0.003877 0.000000 0.000000 0.000000
# 3 -0.000178 -0.003877 0.008804 0.000000 0.000000 0.000000
# 4 0.000000 0.000000 0.000000 0.050279 0.000000 0.000000
# 5 0.000000 0.000000 0.000000 0.000000 0.035406 0.000000
# 6 0.000000 0.000000 0.000000 0.000000 0.000000 0.162471
#
#
# Mechanical properties :
#
#
# Convention : Reuss Voigt Hill
#
# Bulk Modulus (GPa) = 37.25753 56.26140 46.75946
# Shear Modulus (GPa) = 16.15476 27.20237 21.67857
#
# Velocity S-wave (km/s) = 2.67778 3.47479 3.10199
# Velocity P-wave (km/s) = 5.10862 6.40869 5.79523
#
# Compressibility (1/GPa) = 0.02684021
#
# Stress axis : x y z
#
# Youngs Moduli (GPa) = 45.75578 111.56971 113.59061
#
# Poissons Ratio (x) = 0.26062 0.02021
# Poissons Ratio (y) = 0.10688 0.44038
# Poissons Ratio (z) = 0.00814 0.43254
#
# Static dielectric constant tensor:
#      x y z
#    x 2.005100 0.000000 0.000000 
#    y 0.000000 1.842670 0.000000 
#    z 0.000000 0.000000 1.815430 
# 
# From -- ./inp_files/10926.got.cif
#   From: 2010.05.17/outbox.cif.g08.bks.cpg/sg61_6_cif.got.tgz:10926.got - 2010.06.03 15:17:17.
