data_PCOD9459784
_publ_section_title
;
Structure prediction by ZEFSAII (Michael W. Deem and Ramdas Pophale) SiO2 
 PCOD9459784
Probable space group: P B C A
;
_chemical_formula_sum "Si O2"
_cell_formula_units_Z 64
_cell_length_a 14.643306
_cell_length_b 18.660958
_cell_length_c 8.839696
_cell_angle_alpha 90.000000
_cell_angle_beta 90.000000
_cell_angle_gamma 90.000000
_cell_volume 2415.518695
_symmetry_space_group_name_H-M "P B C A"
_symmetry_group_IT_number 61
_symmetry_cell_setting 'orthorhombic'
loop_
_space_group_symop_operation_xyz
x,y,z
1/2-x,-y,1/2+z
1/2+x,1/2-y,-z
-x,1/2+y,1/2-z
-x,-y,-z
1/2+x,y,1/2-z
1/2-x,1/2+y,z
x,1/2-y,1/2+z
loop_
_atom_site_type_symbol
_atom_site_label
_atom_site_fract_x
_atom_site_fract_y
_atom_site_fract_z
Si Si1 0.962301 0.749394 0.095344
Si Si2 0.785468 0.897119 0.246993
Si Si3 0.978685 0.614780 0.907133
Si Si4 0.837024 0.275496 0.345979
Si Si5 0.429892 0.648101 0.146193
Si Si6 0.922242 0.515319 0.170367
Si Si7 0.769148 0.490102 0.522186
Si Si8 0.150871 0.849666 0.844929
O O1 0.906706 0.702138 0.215010
O O2 0.052892 0.783770 0.168700
O O3 0.001423 0.692953 0.971655
O O4 0.906641 0.809308 0.006220
O O5 0.877377 0.877872 0.338075
O O6 0.719169 0.829204 0.239903
O O7 0.732090 0.955258 0.355578
O O8 0.808033 0.936845 0.091235
O O9 0.032211 0.560979 0.795126
O O10 0.982841 0.567288 0.062273
O O11 0.815524 0.301370 0.514471
O O12 0.819690 0.193060 0.304016
O O13 0.400820 0.568089 0.190221
O O14 0.541239 0.645801 0.145602
O O15 0.836694 0.501170 0.063846
O O16 0.810026 0.427719 0.629068
#
# Coordination Sequence:
#
# PCOD9459784 Si02
#       8
#     8   8   8   8   8   8   8   8
#     4   9  18  32  53  77 103 138 176 219 271 324
#     4  10  21  37  56  82 112 144 186 233 277 331
#     4   9  18  34  55  77 103 144 188 221 263 333
#     4   9  19  33  53  79 107 138 180 226 272 325
#     4   9  17  32  52  74 103 137 175 220 269 323
#     4   9  18  32  53  78 103 137 186 228 263 320
#     4  10  21  35  54  78 109 144 182 227 279 330
#     4   9  18  33  52  75 104 140 177 221 272 323
#
# _framework density 26.495342999999998
#
# number of rings (size 3 to 8) (size 9 to 14) (size 15 to 20)
#    0.000    2.750    0.000    0.750    0.000    8.000 
#    0.000    1.250    0.000    8.250    0.000    0.000 
#    0.000    0.000    0.000    0.000    0.000    0.000 
#
# Total GULP energy -357912.210704 kJ/mol
# GULP energy per Si atom -5592.378292 kJ/mol
# Density = 2.643504 g / cm^3
# Si number density = 26.495343 Si / 1000 Ang^3
#
#
#
# Elastic Constant Matrix: (Units=GPa)
#
#
# Indices 1 2 3 4 5 6 
#
# 1 40.1431 24.7296 9.9162 0.0000 0.0000 0.0000
# 2 24.7296 131.1359 24.0958 0.0000 0.0000 0.0000
# 3 9.9162 24.0958 79.3120 0.0000 0.0000 0.0000
# 4 0.0000 0.0000 0.0000 41.7455 0.0000 0.0000
# 5 0.0000 0.0000 0.0000 0.0000 23.7330 0.0000
# 6 0.0000 0.0000 0.0000 0.0000 0.0000 46.1855
#
#
#
# Elastic Compliance Matrix: (Units=1/GPa)
#
#
# Indices 1 2 3 4 5 6 
#
# 1 0.028495 -0.004998 -0.002044 0.000000 0.000000 0.000000
# 2 -0.004998 0.008953 -0.002095 0.000000 0.000000 0.000000
# 3 -0.002044 -0.002095 0.013501 0.000000 0.000000 0.000000
# 4 0.000000 0.000000 0.000000 0.023955 0.000000 0.000000
# 5 0.000000 0.000000 0.000000 0.000000 0.042136 0.000000
# 6 0.000000 0.000000 0.000000 0.000000 0.000000 0.021652
#
#
# Mechanical properties :
#
#
# Convention : Reuss Voigt Hill
#
# Bulk Modulus (GPa) = 30.60556 40.89716 35.75136
# Shear Modulus (GPa) = 29.78738 35.12275 32.45507
#
# Velocity S-wave (km/s) = 3.35662 3.64486 3.50370
# Velocity P-wave (km/s) = 5.15741 5.76042 5.46724
#
# Compressibility (1/GPa) = 0.03267381
#
# Stress axis : x y z
#
# Youngs Moduli (GPa) = 35.09422 111.69231 74.07105
#
# Poissons Ratio (x) = 0.55823 0.15142
# Poissons Ratio (y) = 0.17540 0.15519
# Poissons Ratio (z) = 0.07174 0.23402
#
# Static dielectric constant tensor:
#      x y z
#    x 2.074360 0.000000 0.000000 
#    y 0.000000 2.086790 0.000000 
#    z 0.000000 0.000000 2.192070 
# 
# From -- ./inp_files/6014.got.cif
#   From: 2010.05.17/outbox.cif.g08.bks.cpg/sg61_4_cif.got.tgz:6014.got - 2010.06.03 15:17:17.
