data_PCOD9459129
_publ_section_title
;
Structure prediction by ZEFSAII (Michael W. Deem and Ramdas Pophale) SiO2 
 PCOD9459129
Probable space group: P B C A
;
_chemical_formula_sum "Si O2"
_cell_formula_units_Z 40
_cell_length_a 13.512352
_cell_length_b 16.265430
_cell_length_c 8.230271
_cell_angle_alpha 90.000000
_cell_angle_beta 90.000000
_cell_angle_gamma 90.000000
_cell_volume 1808.883656
_symmetry_space_group_name_H-M "P B C A"
_symmetry_group_IT_number 61
_symmetry_cell_setting 'orthorhombic'
loop_
_space_group_symop_operation_xyz
x,y,z
1/2-x,-y,1/2+z
1/2+x,1/2-y,-z
-x,1/2+y,1/2-z
-x,-y,-z
1/2+x,y,1/2-z
1/2-x,1/2+y,z
x,1/2-y,1/2+z
loop_
_atom_site_type_symbol
_atom_site_label
_atom_site_fract_x
_atom_site_fract_y
_atom_site_fract_z
Si Si1 0.975670 0.704259 0.314182
Si Si2 0.687707 0.393508 0.961970
Si Si3 0.687244 0.840836 0.684032
Si Si4 0.384267 0.851103 0.016886
Si Si5 0.304788 0.983096 0.221758
O O1 0.920887 0.642771 0.439630
O O2 0.954512 0.666445 0.136778
O O3 0.920860 0.790353 0.342860
O O4 0.091625 0.713050 0.341896
O O5 0.715899 0.413977 0.144726
O O6 0.760734 0.333283 0.861213
O O7 0.707427 0.477887 0.861128
O O8 0.774734 0.832389 0.554306
O O9 0.650954 0.936407 0.690564
O O10 0.374493 0.942862 0.086265
#
# Coordination Sequence:
#
# PCOD9459129 Si02
#       5
#     8   8   8   8   8
#     4  11  23  39  62  93 133 169 218 271 330 398
#     4   9  19  38  61  91 127 161 214 267 323 389
#     4   9  21  40  64  92 129 169 218 263 332 389
#     4  11  23  42  63  95 131 171 223 272 332 387
#     4  10  18  43  66  91 129 171 212 278 324 388
#
# _framework density 22.113085000000002
#
# number of rings (size 3 to 8) (size 9 to 14) (size 15 to 20)
#    1.200    0.800    2.000    1.200    0.000    4.800 
#    0.000    2.000    0.000    0.000    0.000    0.000 
#    0.000    0.000    0.000    0.000    0.000    0.000 
#
# Total GULP energy -222842.487655 kJ/mol
# GULP energy per Si atom -5571.062191 kJ/mol
# Density = 2.206275 g / cm^3
# Si number density = 22.113085 Si / 1000 Ang^3
#
#
#
# Elastic Constant Matrix: (Units=GPa)
#
#
# Indices 1 2 3 4 5 6 
#
# 1 101.3965 10.8253 12.6808 0.0000 0.0000 0.0000
# 2 10.8253 42.6964 7.7263 0.0000 0.0000 0.0000
# 3 12.6808 7.7263 61.3972 0.0000 0.0000 0.0000
# 4 0.0000 0.0000 0.0000 33.4966 0.0000 0.0000
# 5 0.0000 0.0000 0.0000 0.0000 10.2310 0.0000
# 6 0.0000 0.0000 0.0000 0.0000 0.0000 13.3842
#
#
#
# Elastic Compliance Matrix: (Units=1/GPa)
#
#
# Indices 1 2 3 4 5 6 
#
# 1 0.010337 -0.002287 -0.001847 0.000000 0.000000 0.000000
# 2 -0.002287 0.024473 -0.002607 0.000000 0.000000 0.000000
# 3 -0.001847 -0.002607 0.016997 0.000000 0.000000 0.000000
# 4 0.000000 0.000000 0.000000 0.029854 0.000000 0.000000
# 5 0.000000 0.000000 0.000000 0.000000 0.097742 0.000000
# 6 0.000000 0.000000 0.000000 0.000000 0.000000 0.074715
#
#
# Mechanical properties :
#
#
# Convention : Reuss Voigt Hill
#
# Bulk Modulus (GPa) = 26.09296 29.77275 27.93286
# Shear Modulus (GPa) = 17.83322 23.03955 20.43639
#
# Velocity S-wave (km/s) = 2.84290 3.23134 3.04332
# Velocity P-wave (km/s) = 4.75410 5.23595 5.00083
#
# Compressibility (1/GPa) = 0.03832451
#
# Stress axis : x y z
#
# Youngs Moduli (GPa) = 96.73585 40.86168 58.83380
#
# Poissons Ratio (x) = 0.09344 0.10868
# Poissons Ratio (y) = 0.22120 0.15340
# Poissons Ratio (z) = 0.17870 0.10654
#
# Static dielectric constant tensor:
#      x y z
#    x 1.774670 0.000000 0.000000 
#    y 0.000000 1.871920 0.000000 
#    z 0.000000 0.000000 1.866620 
# 
# From -- ./inp_files/2122.got.cif
#   From: 2010.05.17/outbox.cif.g08.bks.cpg/sg61_2_cif.got.tgz:2122.got - 2010.06.03 15:17:17.
