data_PCOD9459872
_publ_section_title
;
Structure prediction by ZEFSAII (Michael W. Deem and Ramdas Pophale) SiO2 
 PCOD9459872
Probable space group: P B C A
;
_chemical_formula_sum "Si O2"
_cell_formula_units_Z 40
_cell_length_a 5.504254
_cell_length_b 11.129575
_cell_length_c 25.976861
_cell_angle_alpha 90.000000
_cell_angle_beta 90.000000
_cell_angle_gamma 90.000000
_cell_volume 1591.342705
_symmetry_space_group_name_H-M "P B C A"
_symmetry_group_IT_number 61
_symmetry_cell_setting 'orthorhombic'
loop_
_space_group_symop_operation_xyz
x,y,z
1/2-x,-y,1/2+z
1/2+x,1/2-y,-z
-x,1/2+y,1/2-z
-x,-y,-z
1/2+x,y,1/2-z
1/2-x,1/2+y,z
x,1/2-y,1/2+z
loop_
_atom_site_type_symbol
_atom_site_label
_atom_site_fract_x
_atom_site_fract_y
_atom_site_fract_z
Si Si1 0.225165 0.312802 0.146172
Si Si2 0.165382 0.173236 0.999754
Si Si3 0.489397 0.503612 0.088396
Si Si4 0.291286 0.847330 0.748695
Si Si5 0.776657 0.787439 0.635352
O O1 0.320997 0.446021 0.133235
O O2 0.209420 0.249898 0.202487
O O3 0.449492 0.241369 0.119637
O O4 0.958571 0.294144 0.122755
O O5 0.117341 0.090213 0.950028
O O6 0.419995 0.244571 0.995959
O O7 0.162211 0.086031 0.049121
O O8 0.691986 0.583411 0.116197
O O9 0.541235 0.920302 0.750190
O O10 0.290788 0.780107 0.802962
#
# Coordination Sequence:
#
# PCOD9459872 Si02
#       5
#     8   8   8   8   8
#     4  10  21  38  59  88 124 159 202 253 296 352
#     4  11  26  45  64  92 126 155 200 261 306 360
#     4  11  24  40  68  92 118 166 206 241 312 370
#     4   8  16  34  54  78 120 158 190 244 294 334
#     4  10  21  38  59  88 124 159 202 253 296 352
#
# _framework density 25.136006999999999
#
# number of rings (size 3 to 8) (size 9 to 14) (size 15 to 20)
#    0.000    2.000    0.000    2.400    0.000    8.000 
#    0.000   18.000    0.000    0.000    0.000    0.000 
#    0.000    0.000    0.000    0.000    0.000    0.000 
#
# Total GULP energy -223105.693906 kJ/mol
# GULP energy per Si atom -5577.642348 kJ/mol
# Density = 2.507880 g / cm^3
# Si number density = 25.136007 Si / 1000 Ang^3
#
#
#
# Elastic Constant Matrix: (Units=GPa)
#
#
# Indices 1 2 3 4 5 6 
#
# 1 131.8205 -21.1646 8.6362 0.0000 0.0000 0.0000
# 2 -21.1646 42.0713 36.6980 0.0000 0.0000 0.0000
# 3 8.6362 36.6980 134.6136 0.0000 0.0000 0.0000
# 4 0.0000 0.0000 0.0000 10.7601 0.0000 0.0000
# 5 0.0000 0.0000 0.0000 0.0000 30.1044 0.0000
# 6 0.0000 0.0000 0.0000 0.0000 0.0000 11.8343
#
#
#
# Elastic Compliance Matrix: (Units=1/GPa)
#
#
# Indices 1 2 3 4 5 6 
#
# 1 0.008771 0.006433 -0.002316 0.000000 0.000000 0.000000
# 2 0.006433 0.035903 -0.010200 0.000000 0.000000 0.000000
# 3 -0.002316 -0.010200 0.010358 0.000000 0.000000 0.000000
# 4 0.000000 0.000000 0.000000 0.092936 0.000000 0.000000
# 5 0.000000 0.000000 0.000000 0.000000 0.033218 0.000000
# 6 0.000000 0.000000 0.000000 0.000000 0.000000 0.084500
#
#
# Mechanical properties :
#
#
# Convention : Reuss Voigt Hill
#
# Bulk Modulus (GPa) = 23.32988 39.64941 31.48964
# Shear Modulus (GPa) = 17.11499 29.49548 23.30523
#
# Velocity S-wave (km/s) = 2.61223 3.42926 3.04824
# Velocity P-wave (km/s) = 4.28951 5.61141 4.99439
#
# Compressibility (1/GPa) = 0.04286349
#
# Stress axis : x y z
#
# Youngs Moduli (GPa) = 114.01672 27.85286 96.54273
#
# Poissons Ratio (x) = -0.17917 0.22363
# Poissons Ratio (y) = -0.73344 0.98478
# Poissons Ratio (z) = 0.26410 0.28411
#
# Static dielectric constant tensor:
#      x y z
#    x 2.054980 0.000000 0.000000 
#    y 0.000000 2.051040 0.000000 
#    z 0.000000 0.000000 2.015140 
# 
# From -- ./inp_files/6665.got.cif
#   From: 2010.05.17/outbox.cif.g08.bks.cpg/sg61_4_cif.got.tgz:6665.got - 2010.06.03 15:17:17.
