data_PCOD9459941
_publ_section_title
;
Structure prediction by ZEFSAII (Michael W. Deem and Ramdas Pophale) SiO2 
 PCOD9459941
Probable space group: P B C A
;
_chemical_formula_sum "Si O2"
_cell_formula_units_Z 64
_cell_length_a 12.284757
_cell_length_b 18.383923
_cell_length_c 14.745357
_cell_angle_alpha 90.000000
_cell_angle_beta 90.000000
_cell_angle_gamma 90.000000
_cell_volume 3330.121310
_symmetry_space_group_name_H-M "P B C A"
_symmetry_group_IT_number 61
_symmetry_cell_setting 'orthorhombic'
loop_
_space_group_symop_operation_xyz
x,y,z
1/2-x,-y,1/2+z
1/2+x,1/2-y,-z
-x,1/2+y,1/2-z
-x,-y,-z
1/2+x,y,1/2-z
1/2-x,1/2+y,z
x,1/2-y,1/2+z
loop_
_atom_site_type_symbol
_atom_site_label
_atom_site_fract_x
_atom_site_fract_y
_atom_site_fract_z
Si Si1 0.821904 0.192592 0.937986
Si Si2 0.374630 0.086834 0.403195
Si Si3 0.340977 0.918991 0.440872
Si Si4 0.966303 0.704826 0.664769
Si Si5 0.919447 0.694745 0.878867
Si Si6 0.657426 0.685899 0.589074
Si Si7 0.897461 0.643256 0.372802
Si Si8 0.283224 0.807504 0.809986
O O1 0.907543 0.211610 0.859441
O O2 0.701650 0.170076 0.904415
O O3 0.872178 0.128870 0.000491
O O4 0.813736 0.263978 0.001994
O O5 0.485496 0.107967 0.350050
O O6 0.271686 0.122664 0.354191
O O7 0.364875 0.001430 0.416363
O O8 0.423033 0.863823 0.391242
O O9 0.226534 0.887073 0.408111
O O10 0.347863 0.906424 0.548921
O O11 0.937410 0.693384 0.770336
O O12 0.892748 0.775943 0.642565
O O13 0.926341 0.777952 0.913453
O O14 0.031842 0.663165 0.915214
O O15 0.696946 0.741026 0.670576
O O16 0.819155 0.666486 0.290179
#
# Coordination Sequence:
#
# PCOD9459941 Si02
#       8
#     8   8   8   8   8   8   8   8
#     4  11  22  39  66  89 119 167 206 259 305 370
#     4  11  23  41  62  88 131 165 212 248 312 386
#     4  11  22  42  60  92 123 168 205 256 314 381
#     4  10  23  37  64  92 121 155 207 264 311 357
#     4  11  22  38  63  96 122 152 211 262 313 361
#     4  10  21  39  63  91 128 157 206 258 310 368
#     4  11  20  38  65  92 118 166 210 255 306 378
#     4   9  22  38  62  92 122 156 207 258 309 357
#
# _framework density 19.218519000000001
#
# number of rings (size 3 to 8) (size 9 to 14) (size 15 to 20)
#    0.000    1.500    5.000    0.375    8.750    0.000 
#    4.500    0.625    0.000    0.000    0.000    0.000 
#    0.000    0.000    0.000    0.000    0.000    0.000 
#
# Total GULP energy -356620.975619 kJ/mol
# GULP energy per Si atom -5572.202744 kJ/mol
# Density = 1.917478 g / cm^3
# Si number density = 19.218519 Si / 1000 Ang^3
#
#
#
# Elastic Constant Matrix: (Units=GPa)
#
#
# Indices 1 2 3 4 5 6 
#
# 1 128.4224 8.1056 34.8038 0.0000 0.0000 0.0000
# 2 8.1056 77.1110 12.8416 0.0000 0.0000 0.0000
# 3 34.8038 12.8416 68.0823 0.0000 0.0000 0.0000
# 4 0.0000 0.0000 0.0000 11.7827 0.0000 0.0000
# 5 0.0000 0.0000 0.0000 0.0000 36.6815 0.0000
# 6 0.0000 0.0000 0.0000 0.0000 0.0000 7.4452
#
#
#
# Elastic Compliance Matrix: (Units=1/GPa)
#
#
# Indices 1 2 3 4 5 6 
#
# 1 0.009042 -0.000187 -0.004587 0.000000 0.000000 0.000000
# 2 -0.000187 0.013393 -0.002431 0.000000 0.000000 0.000000
# 3 -0.004587 -0.002431 0.017491 0.000000 0.000000 0.000000
# 4 0.000000 0.000000 0.000000 0.084870 0.000000 0.000000
# 5 0.000000 0.000000 0.000000 0.000000 0.027262 0.000000
# 6 0.000000 0.000000 0.000000 0.000000 0.000000 0.134315
#
#
# Mechanical properties :
#
#
# Convention : Reuss Voigt Hill
#
# Bulk Modulus (GPa) = 39.18900 42.79087 40.98993
# Shear Modulus (GPa) = 16.16618 25.70617 20.93618
#
# Velocity S-wave (km/s) = 2.90345 3.66125 3.30415
# Velocity P-wave (km/s) = 5.62811 6.33931 5.99426
#
# Compressibility (1/GPa) = 0.02551736
#
# Stress axis : x y z
#
# Youngs Moduli (GPa) = 110.59877 74.66735 57.17075
#
# Poissons Ratio (x) = 0.01393 0.26224
# Poissons Ratio (y) = 0.02063 0.13897
# Poissons Ratio (z) = 0.50731 0.18150
#
# Static dielectric constant tensor:
#      x y z
#    x 1.760790 0.000000 0.000000 
#    y 0.000000 1.625050 0.000000 
#    z 0.000000 0.000000 1.747940 
# 
# From -- ./inp_files/7622.got.cif
#   From: 2010.05.17/outbox.cif.g08.bks.cpg/sg61_4_cif.got.tgz:7622.got - 2010.06.03 15:17:17.
