data_PCOD9459618
_publ_section_title
;
Structure prediction by ZEFSAII (Michael W. Deem and Ramdas Pophale) SiO2 
 PCOD9459618
Probable space group: P B C A
;
_chemical_formula_sum "Si O2"
_cell_formula_units_Z 56
_cell_length_a 14.241757
_cell_length_b 8.191437
_cell_length_c 22.454948
_cell_angle_alpha 90.000000
_cell_angle_beta 90.000000
_cell_angle_gamma 90.000000
_cell_volume 2619.604456
_symmetry_space_group_name_H-M "P B C A"
_symmetry_group_IT_number 61
_symmetry_cell_setting 'orthorhombic'
loop_
_space_group_symop_operation_xyz
x,y,z
1/2-x,-y,1/2+z
1/2+x,1/2-y,-z
-x,1/2+y,1/2-z
-x,-y,-z
1/2+x,y,1/2-z
1/2-x,1/2+y,z
x,1/2-y,1/2+z
loop_
_atom_site_type_symbol
_atom_site_label
_atom_site_fract_x
_atom_site_fract_y
_atom_site_fract_z
Si Si1 0.274046 0.070087 0.140456
Si Si2 0.869907 0.329958 0.197496
Si Si3 0.050480 0.854308 0.428016
Si Si4 0.939854 0.192152 0.437390
Si Si5 0.569674 0.457510 0.897298
Si Si6 0.810960 0.688804 0.769935
Si Si7 0.020619 0.392967 0.739367
O O1 0.352028 0.170528 0.106492
O O2 0.234728 0.152482 0.200008
O O3 0.183126 0.037674 0.099864
O O4 0.322526 0.913827 0.169516
O O5 0.879603 0.316291 0.126605
O O6 0.765743 0.363856 0.221411
O O7 0.941771 0.474573 0.214865
O O8 0.915324 0.173992 0.232227
O O9 0.090446 0.831563 0.494163
O O10 0.970421 0.713358 0.422051
O O11 0.009805 0.039523 0.424488
O O12 0.972862 0.378515 0.426528
O O13 0.545591 0.456348 0.826901
O O14 0.911927 0.738077 0.745879
#
# Coordination Sequence:
#
# PCOD9459618 Si02
#       7
#     8   8   8   8   8   8   8
#     4  11  19  35  64  90 108 153 210 255 299 361
#     4  11  22  38  60  89 127 160 201 251 326 372
#     4  10  25  39  58  92 126 159 208 252 305 385
#     4  11  21  40  65  85 123 163 205 261 302 352
#     4  10  20  39  61  91 116 151 205 260 307 358
#     4  11  21  38  59  92 126 150 203 268 303 366
#     4  10  23  35  59  93 117 159 204 253 315 380
#
# _framework density 21.377272000000001
#
# number of rings (size 3 to 8) (size 9 to 14) (size 15 to 20)
#    0.000    1.429    4.286    3.000    6.000    0.000 
#    0.000    1.429    0.000    0.000    0.000    0.000 
#    0.000    0.000    0.000    0.000    0.000    0.000 
#
# Total GULP energy -312264.384079 kJ/mol
# GULP energy per Si atom -5576.149716 kJ/mol
# Density = 2.132862 g / cm^3
# Si number density = 21.377272 Si / 1000 Ang^3
#
#
#
# Elastic Constant Matrix: (Units=GPa)
#
#
# Indices 1 2 3 4 5 6 
#
# 1 54.9759 1.0397 23.5491 0.0000 0.0000 0.0000
# 2 1.0397 76.3513 -3.3251 0.0000 0.0000 0.0000
# 3 23.5491 -3.3251 60.5067 0.0000 0.0000 0.0000
# 4 0.0000 0.0000 0.0000 30.4868 0.0000 0.0000
# 5 0.0000 0.0000 0.0000 0.0000 13.0667 0.0000
# 6 0.0000 0.0000 0.0000 0.0000 0.0000 18.1002
#
#
#
# Elastic Compliance Matrix: (Units=1/GPa)
#
#
# Indices 1 2 3 4 5 6 
#
# 1 0.021863 -0.000670 -0.008546 0.000000 0.000000 0.000000
# 2 -0.000670 0.013149 0.000983 0.000000 0.000000 0.000000
# 3 -0.008546 0.000983 0.019907 0.000000 0.000000 0.000000
# 4 0.000000 0.000000 0.000000 0.032801 0.000000 0.000000
# 5 0.000000 0.000000 0.000000 0.000000 0.076530 0.000000
# 6 0.000000 0.000000 0.000000 0.000000 0.000000 0.055248
#
#
# Mechanical properties :
#
#
# Convention : Reuss Voigt Hill
#
# Bulk Modulus (GPa) = 26.00465 26.04016 26.02240
# Shear Modulus (GPa) = 20.09793 23.70211 21.90002
#
# Velocity S-wave (km/s) = 3.06952 3.33341 3.20418
# Velocity P-wave (km/s) = 4.97530 5.19838 5.08806
#
# Compressibility (1/GPa) = 0.03845466
#
# Stress axis : x y z
#
# Youngs Moduli (GPa) = 45.73911 76.04973 50.23315
#
# Poissons Ratio (x) = 0.05094 0.42929
# Poissons Ratio (y) = 0.03064 -0.04939
# Poissons Ratio (z) = 0.39088 -0.07478
#
# Static dielectric constant tensor:
#      x y z
#    x 1.813290 0.000000 0.000000 
#    y 0.000000 1.932880 0.000000 
#    z 0.000000 0.000000 1.726110 
# 
# From -- ./inp_files/7168.got.cif
#   From: 2010.05.17/outbox.cif.g08.bks.cpg/sg61_4_cif.got.tgz:7168.got - 2010.06.03 15:17:17.
