data_PCOD9459419
_publ_section_title
;
Structure prediction by ZEFSAII (Michael W. Deem and Ramdas Pophale) SiO2 
 PCOD9459419
Probable space group: P B C A
;
_chemical_formula_sum "Si O2"
_cell_formula_units_Z 40
_cell_length_a 5.071620
_cell_length_b 20.978434
_cell_length_c 18.349910
_cell_angle_alpha 90.000000
_cell_angle_beta 90.000000
_cell_angle_gamma 90.000000
_cell_volume 1952.332168
_symmetry_space_group_name_H-M "P B C A"
_symmetry_group_IT_number 61
_symmetry_cell_setting 'orthorhombic'
loop_
_space_group_symop_operation_xyz
x,y,z
1/2-x,-y,1/2+z
1/2+x,1/2-y,-z
-x,1/2+y,1/2-z
-x,-y,-z
1/2+x,y,1/2-z
1/2-x,1/2+y,z
x,1/2-y,1/2+z
loop_
_atom_site_type_symbol
_atom_site_label
_atom_site_fract_x
_atom_site_fract_y
_atom_site_fract_z
Si Si1 0.264306 0.254399 0.904955
Si Si2 0.405588 0.484044 0.204680
Si Si3 0.226229 0.677873 0.056877
Si Si4 0.549196 0.668919 0.790986
Si Si5 0.245745 0.027667 0.043086
O O1 0.548449 0.287442 0.895203
O O2 0.060346 0.312815 0.909072
O O3 0.109554 0.204855 0.853536
O O4 0.281094 0.216532 0.981102
O O5 0.694498 0.503759 0.233069
O O6 0.439379 0.407179 0.198699
O O7 0.292734 0.507233 0.127475
O O8 0.269100 0.604064 0.041650
O O9 0.355210 0.684842 0.722743
O O10 0.500000 0.000000 0.000000
O O11 0.000000 0.000000 0.000000
#
# Coordination Sequence:
#
# PCOD9459419 Si02
#       5
#     8   8   8   8   8
#     4  10  20  38  57  82 117 147 188 245 297 349
#     4  10  22  40  60  87 124 161 199 253 314 365
#     4  10  22  37  59  85 114 151 190 241 302 350
#     4  10  20  35  58  84 111 150 196 236 285 350
#     4  12  24  40  64  92 120 159 213 257 302 374
#
# _framework density 20.488318
#
# number of rings (size 3 to 8) (size 9 to 14) (size 15 to 20)
#    0.000    1.600    0.000    4.800    0.000    6.400 
#    0.000    6.000    0.000    0.000    0.000    0.000 
#    0.000    0.000    0.000    0.000    0.000    0.000 
#
# Total GULP energy -222887.096479 kJ/mol
# GULP energy per Si atom -5572.177412 kJ/mol
# Density = 2.044169 g / cm^3
# Si number density = 20.488318 Si / 1000 Ang^3
#
#
#
# Elastic Constant Matrix: (Units=GPa)
#
#
# Indices 1 2 3 4 5 6 
#
# 1 109.7944 44.2359 21.9014 0.0000 0.0000 0.0000
# 2 44.2359 80.8014 12.0508 0.0000 0.0000 0.0000
# 3 21.9014 12.0508 48.4357 0.0000 0.0000 0.0000
# 4 0.0000 0.0000 0.0000 20.1800 0.0000 0.0000
# 5 0.0000 0.0000 0.0000 0.0000 30.5959 0.0000
# 6 0.0000 0.0000 0.0000 0.0000 0.0000 18.4280
#
#
#
# Elastic Compliance Matrix: (Units=1/GPa)
#
#
# Indices 1 2 3 4 5 6 
#
# 1 0.012414 -0.006189 -0.004074 0.000000 0.000000 0.000000
# 2 -0.006189 0.015938 -0.001167 0.000000 0.000000 0.000000
# 3 -0.004074 -0.001167 0.022778 0.000000 0.000000 0.000000
# 4 0.000000 0.000000 0.000000 0.049554 0.000000 0.000000
# 5 0.000000 0.000000 0.000000 0.000000 0.032684 0.000000
# 6 0.000000 0.000000 0.000000 0.000000 0.000000 0.054265
#
#
# Mechanical properties :
#
#
# Convention : Reuss Voigt Hill
#
# Bulk Modulus (GPa) = 35.37089 43.93420 39.65254
# Shear Modulus (GPa) = 22.73593 24.56366 23.64979
#
# Velocity S-wave (km/s) = 3.33483 3.46628 3.40119
# Velocity P-wave (km/s) = 5.66829 6.12456 5.90084
#
# Compressibility (1/GPa) = 0.02827184
#
# Stress axis : x y z
#
# Youngs Moduli (GPa) = 80.55493 62.74259 43.90153
#
# Poissons Ratio (x) = 0.38829 0.17883
# Poissons Ratio (y) = 0.49853 0.05124
# Poissons Ratio (z) = 0.32814 0.07322
#
# Static dielectric constant tensor:
#      x y z
#    x 1.711270 0.000000 0.000000 
#    y 0.000000 1.658580 0.000000 
#    z 0.000000 0.000000 1.769330 
# 
# From -- ./inp_files/8722.got.cif
#   From: 2010.05.17/outbox.cif.g08.bks.cpg/sg61_5_cif.got.tgz:8722.got - 2010.06.03 15:17:17.
