data_PCOD9459555
_publ_section_title
;
Structure prediction by ZEFSAII (Michael W. Deem and Ramdas Pophale) SiO2 
 PCOD9459555
Probable space group: P B C A
;
_chemical_formula_sum "Si O2"
_cell_formula_units_Z 48
_cell_length_a 16.433178
_cell_length_b 17.522087
_cell_length_c 8.977101
_cell_angle_alpha 90.000000
_cell_angle_beta 90.000000
_cell_angle_gamma 90.000000
_cell_volume 2584.898552
_symmetry_space_group_name_H-M "P B C A"
_symmetry_group_IT_number 61
_symmetry_cell_setting 'orthorhombic'
loop_
_space_group_symop_operation_xyz
x,y,z
1/2-x,-y,1/2+z
1/2+x,1/2-y,-z
-x,1/2+y,1/2-z
-x,-y,-z
1/2+x,y,1/2-z
1/2-x,1/2+y,z
x,1/2-y,1/2+z
loop_
_atom_site_type_symbol
_atom_site_label
_atom_site_fract_x
_atom_site_fract_y
_atom_site_fract_z
Si Si1 0.818328 0.284968 0.302536
Si Si2 0.420517 0.687925 0.380022
Si Si3 0.571253 0.591973 0.918224
Si Si4 0.083238 0.414547 0.614985
Si Si5 0.513852 0.696763 0.676989
Si Si6 0.711763 0.200623 0.524664
O O1 0.852702 0.350443 0.413132
O O2 0.899039 0.263738 0.207764
O O3 0.777430 0.217946 0.396282
O O4 0.755266 0.316450 0.180809
O O5 0.411353 0.611092 0.286511
O O6 0.488533 0.685779 0.507869
O O7 0.447535 0.751311 0.259199
O O8 0.338697 0.720803 0.452453
O O9 0.595485 0.504118 0.910254
O O10 0.522957 0.617793 0.767922
O O11 0.506756 0.604387 0.050501
O O12 0.148870 0.363874 0.526523
#
# Coordination Sequence:
#
# PCOD9459555 Si02
#       6
#     8   8   8   8   8   8
#     4  10  23  38  58  92 121 158 192 254 305 350
#     4  12  20  36  66  89 113 158 214 243 287 359
#     4   9  23  43  60  86 128 158 200 247 310 356
#     4  11  22  41  65  90 117 166 202 251 302 361
#     4  10  20  38  60  88 119 156 204 247 287 362
#     4  12  20  38  63  89 121 152 207 247 300 362
#
# _framework density 18.569393999999999
#
# number of rings (size 3 to 8) (size 9 to 14) (size 15 to 20)
#    1.000    0.333    5.000    1.000    2.333    0.667 
#    3.000    0.000    3.667    0.000    0.000    0.000 
#    0.000    0.000    0.000    0.000    0.000    0.000 
#
# Total GULP energy -267560.257924 kJ/mol
# GULP energy per Si atom -5574.172040 kJ/mol
# Density = 1.852713 g / cm^3
# Si number density = 18.569394 Si / 1000 Ang^3
#
#
#
# Elastic Constant Matrix: (Units=GPa)
#
#
# Indices 1 2 3 4 5 6 
#
# 1 69.2012 15.6384 8.9037 0.0000 0.0000 0.0000
# 2 15.6384 52.2626 6.5370 0.0000 0.0000 0.0000
# 3 8.9037 6.5370 62.4122 0.0000 0.0000 0.0000
# 4 0.0000 0.0000 0.0000 23.5643 0.0000 0.0000
# 5 0.0000 0.0000 0.0000 0.0000 36.5673 0.0000
# 6 0.0000 0.0000 0.0000 0.0000 0.0000 21.6073
#
#
#
# Elastic Compliance Matrix: (Units=1/GPa)
#
#
# Indices 1 2 3 4 5 6 
#
# 1 0.015689 -0.004473 -0.001770 0.000000 0.000000 0.000000
# 2 -0.004473 0.020664 -0.001526 0.000000 0.000000 0.000000
# 3 -0.001770 -0.001526 0.016435 0.000000 0.000000 0.000000
# 4 0.000000 0.000000 0.000000 0.042437 0.000000 0.000000
# 5 0.000000 0.000000 0.000000 0.000000 0.027347 0.000000
# 6 0.000000 0.000000 0.000000 0.000000 0.000000 0.046281
#
#
# Mechanical properties :
#
#
# Convention : Reuss Voigt Hill
#
# Bulk Modulus (GPa) = 26.84608 27.33714 27.09161
# Shear Modulus (GPa) = 25.40565 26.53426 25.96995
#
# Velocity S-wave (km/s) = 3.70286 3.78421 3.74376
# Velocity P-wave (km/s) = 5.72452 5.81784 5.77137
#
# Compressibility (1/GPa) = 0.03724938
#
# Stress axis : x y z
#
# Youngs Moduli (GPa) = 63.73812 48.39440 60.84644
#
# Poissons Ratio (x) = 0.21648 0.10768
# Poissons Ratio (y) = 0.28512 0.09286
# Poissons Ratio (z) = 0.11280 0.07386
#
# Static dielectric constant tensor:
#      x y z
#    x 1.673450 0.000000 0.000000 
#    y 0.000000 1.620220 0.000000 
#    z 0.000000 0.000000 1.667280 
# 
# From -- ./inp_files/2816.got.cif
#   From: 2010.05.17/outbox.cif.g08.bks.cpg/sg61_2_cif.got.tgz:2816.got - 2010.06.03 15:17:17.
