data_PCOD9459273
_publ_section_title
;
Structure prediction by ZEFSAII (Michael W. Deem and Ramdas Pophale) SiO2 
 PCOD9459273
Probable space group: P B C A
;
_chemical_formula_sum "Si O2"
_cell_formula_units_Z 56
_cell_length_a 9.714476
_cell_length_b 13.028100
_cell_length_c 19.739941
_cell_angle_alpha 90.000000
_cell_angle_beta 90.000000
_cell_angle_gamma 90.000000
_cell_volume 2498.309926
_symmetry_space_group_name_H-M "P B C A"
_symmetry_group_IT_number 61
_symmetry_cell_setting 'orthorhombic'
loop_
_space_group_symop_operation_xyz
x,y,z
1/2-x,-y,1/2+z
1/2+x,1/2-y,-z
-x,1/2+y,1/2-z
-x,-y,-z
1/2+x,y,1/2-z
1/2-x,1/2+y,z
x,1/2-y,1/2+z
loop_
_atom_site_type_symbol
_atom_site_label
_atom_site_fract_x
_atom_site_fract_y
_atom_site_fract_z
Si Si1 0.228367 0.803245 0.387746
Si Si2 0.952194 0.129797 0.431587
Si Si3 0.180867 0.160513 0.268733
Si Si4 0.913558 0.457859 0.791217
Si Si5 0.904681 0.816244 0.347763
Si Si6 0.719398 0.998566 0.041660
Si Si7 0.307528 0.183546 0.526381
O O1 0.309976 0.741412 0.330321
O O2 0.238023 0.745436 0.459449
O O3 0.065524 0.805832 0.367744
O O4 0.272161 0.921089 0.401211
O O5 0.882810 0.101944 0.360997
O O6 0.935720 0.250877 0.445230
O O7 0.100379 0.075328 0.431688
O O8 0.864123 0.071615 0.488667
O O9 0.322701 0.099343 0.263928
O O10 0.143413 0.226483 0.202279
O O11 0.069308 0.071163 0.275748
O O12 0.889192 0.576496 0.807079
O O13 0.810932 0.818957 0.415805
O O14 0.827610 0.068522 0.001330
#
# Coordination Sequence:
#
# PCOD9459273 Si02
#       7
#     8   8   8   8   8   8   8
#     4  11  25  43  70 106 141 193 245 304 366 445
#     4  10  19  36  66  98 129 184 230 288 356 426
#     4  12  28  47  73 110 148 193 248 314 364 457
#     4  12  25  46  76 101 147 196 244 296 385 435
#     4  12  25  46  74 106 148 192 255 302 374 452
#     4  10  19  39  67  99 135 181 237 289 360 426
#     4  11  21  38  72 102 138 183 245 296 354 430
#
# _framework density 22.415154000000001
#
# number of rings (size 3 to 8) (size 9 to 14) (size 15 to 20)
#    0.000    0.857    5.714    2.571    2.000    0.000 
#    0.000    0.000    0.000   15.429    0.000    0.000 
#    0.000    0.000    0.000    0.000    0.000    0.000 
#
# Total GULP energy -312859.887781 kJ/mol
# GULP energy per Si atom -5586.783710 kJ/mol
# Density = 2.236414 g / cm^3
# Si number density = 22.415154 Si / 1000 Ang^3
#
#
#
# Elastic Constant Matrix: (Units=GPa)
#
#
# Indices 1 2 3 4 5 6 
#
# 1 19.7469 3.1505 -10.2332 0.0000 0.0000 0.0000
# 2 3.1505 83.9100 17.4090 0.0000 0.0000 0.0000
# 3 -10.2332 17.4090 62.9651 0.0000 0.0000 0.0000
# 4 0.0000 0.0000 0.0000 49.4728 0.0000 0.0000
# 5 0.0000 0.0000 0.0000 0.0000 12.1776 0.0000
# 6 0.0000 0.0000 0.0000 0.0000 0.0000 1.7955
#
#
#
# Elastic Compliance Matrix: (Units=1/GPa)
#
#
# Indices 1 2 3 4 5 6 
#
# 1 0.056716 -0.004288 0.010403 0.000000 0.000000 0.000000
# 2 -0.004288 0.012967 -0.004282 0.000000 0.000000 0.000000
# 3 0.010403 -0.004282 0.018756 0.000000 0.000000 0.000000
# 4 0.000000 0.000000 0.000000 0.020213 0.000000 0.000000
# 5 0.000000 0.000000 0.000000 0.000000 0.082118 0.000000
# 6 0.000000 0.000000 0.000000 0.000000 0.000000 0.556946
#
#
# Mechanical properties :
#
#
# Convention : Reuss Voigt Hill
#
# Bulk Modulus (GPa) = 10.85708 20.80829 15.83268
# Shear Modulus (GPa) = 6.45368 23.10890 14.78129
#
# Velocity S-wave (km/s) = 1.69865 3.21432 2.57073
# Velocity P-wave (km/s) = 2.94981 4.80407 3.98626
#
# Compressibility (1/GPa) = 0.09210583
#
# Stress axis : x y z
#
# Youngs Moduli (GPa) = 17.63173 77.11928 53.31492
#
# Poissons Ratio (x) = 0.33067 -0.55464
# Poissons Ratio (y) = 0.07560 0.22830
# Poissons Ratio (z) = -0.18342 0.33023
#
# Static dielectric constant tensor:
#      x y z
#    x 1.831450 0.000000 0.000000 
#    y 0.000000 1.850850 0.000000 
#    z 0.000000 0.000000 1.863820 
# 
# From -- ./inp_files/10310.got.cif
#   From: 2010.05.17/outbox.cif.g08.bks.cpg/sg61_6_cif.got.tgz:10310.got - 2010.06.03 15:17:17.
