data_PCOD9459173
_publ_section_title
;
Structure prediction by ZEFSAII (Michael W. Deem and Ramdas Pophale) SiO2 
 PCOD9459173
Probable space group: P B C A
;
_chemical_formula_sum "Si O2"
_cell_formula_units_Z 56
_cell_length_a 5.106564
_cell_length_b 27.798529
_cell_length_c 16.357331
_cell_angle_alpha 90.000000
_cell_angle_beta 90.000000
_cell_angle_gamma 90.000000
_cell_volume 2322.004390
_symmetry_space_group_name_H-M "P B C A"
_symmetry_group_IT_number 61
_symmetry_cell_setting 'orthorhombic'
loop_
_space_group_symop_operation_xyz
x,y,z
1/2-x,-y,1/2+z
1/2+x,1/2-y,-z
-x,1/2+y,1/2-z
-x,-y,-z
1/2+x,y,1/2-z
1/2-x,1/2+y,z
x,1/2-y,1/2+z
loop_
_atom_site_type_symbol
_atom_site_label
_atom_site_fract_x
_atom_site_fract_y
_atom_site_fract_z
Si Si1 0.523597 0.847149 0.199969
Si Si2 0.985750 0.231708 0.200491
Si Si3 0.927961 0.919255 0.443512
Si Si4 0.991830 0.719814 0.480382
Si Si5 0.427044 0.886119 0.522720
Si Si6 0.272433 0.512815 0.698718
Si Si7 0.716459 0.897104 0.799508
O O1 0.812989 0.860128 0.230102
O O2 0.518275 0.789661 0.190228
O O3 0.436358 0.874288 0.118951
O O4 0.273117 0.218632 0.231463
O O5 0.912654 0.211888 0.112327
O O6 0.715135 0.908332 0.513527
O O7 0.841010 0.963601 0.387656
O O8 0.219400 0.920834 0.478648
O O9 0.723863 0.750363 0.477457
O O10 0.935934 0.667303 0.517017
O O11 0.315436 0.879189 0.613431
O O12 0.493524 0.527463 0.764500
O O13 0.278241 0.455221 0.692870
O O14 0.428861 0.883579 0.769471
#
# Coordination Sequence:
#
# PCOD9459173 Si02
#       7
#     8   8   8   8   8   8   8
#     4  10  19  33  54  81 115 153 192 240 296 352
#     4  10  21  36  57  82 107 145 198 251 297 350
#     4  12  23  38  60  93 130 159 205 248 301 381
#     4  12  25  43  63  86 124 165 207 258 318 375
#     4  12  26  40  63  93 121 165 206 258 320 358
#     4  10  21  40  66  95 128 169 203 241 302 366
#     4  10  23  44  67  92 125 162 209 258 304 366
#
# _framework density 24.117097000000001
#
# number of rings (size 3 to 8) (size 9 to 14) (size 15 to 20)
#    0.000    1.143    0.000    6.857    0.000    4.571 
#    0.000    0.000    0.000    0.000    0.000    0.000 
#    0.000    0.000    0.000    0.000    0.000    0.000 
#
# Total GULP energy -313809.452686 kJ/mol
# GULP energy per Si atom -5603.740227 kJ/mol
# Density = 2.406221 g / cm^3
# Si number density = 24.117097 Si / 1000 Ang^3
#
#
#
# Elastic Constant Matrix: (Units=GPa)
#
#
# Indices 1 2 3 4 5 6 
#
# 1 80.5243 12.2539 -16.6114 0.0000 0.0000 0.0000
# 2 12.2539 72.6365 -14.9954 0.0000 0.0000 0.0000
# 3 -16.6114 -14.9954 55.0187 0.0000 0.0000 0.0000
# 4 0.0000 0.0000 0.0000 28.3572 0.0000 0.0000
# 5 0.0000 0.0000 0.0000 0.0000 39.9901 0.0000
# 6 0.0000 0.0000 0.0000 0.0000 0.0000 23.9517
#
#
#
# Elastic Compliance Matrix: (Units=1/GPa)
#
#
# Indices 1 2 3 4 5 6 
#
# 1 0.013398 -0.001510 0.003634 0.000000 0.000000 0.000000
# 2 -0.001510 0.014758 0.003566 0.000000 0.000000 0.000000
# 3 0.003634 0.003566 0.020245 0.000000 0.000000 0.000000
# 4 0.000000 0.000000 0.000000 0.035264 0.000000 0.000000
# 5 0.000000 0.000000 0.000000 0.000000 0.025006 0.000000
# 6 0.000000 0.000000 0.000000 0.000000 0.000000 0.041751
#
#
# Mechanical properties :
#
#
# Convention : Reuss Voigt Hill
#
# Bulk Modulus (GPa) = 16.72783 18.83042 17.77913
# Shear Modulus (GPa) = 31.45260 33.62862 32.54061
#
# Velocity S-wave (km/s) = 3.61524 3.73820 3.67723
# Velocity P-wave (km/s) = 4.93738 5.14364 5.04157
#
# Compressibility (1/GPa) = 0.05978061
#
# Stress axis : x y z
#
# Youngs Moduli (GPa) = 74.63803 67.75887 49.39561
#
# Poissons Ratio (x) = 0.10233 -0.17948
# Poissons Ratio (y) = 0.11271 -0.17617
# Poissons Ratio (z) = -0.27120 -0.24166
#
# Static dielectric constant tensor:
#      x y z
#    x 1.850180 0.000000 0.000000 
#    y 0.000000 1.944700 0.000000 
#    z 0.000000 0.000000 1.889250 
# 
# From -- ./inp_files/6868.got.cif
#   From: 2010.05.17/outbox.cif.g08.bks.cpg/sg61_4_cif.got.tgz:6868.got - 2010.06.03 15:17:17.
