data_PCOD9459838
_publ_section_title
;
Structure prediction by ZEFSAII (Michael W. Deem and Ramdas Pophale) SiO2 
 PCOD9459838
Probable space group: P B C A
;
_chemical_formula_sum "Si O2"
_cell_formula_units_Z 48
_cell_length_a 8.792602
_cell_length_b 9.369084
_cell_length_c 22.567103
_cell_angle_alpha 90.000000
_cell_angle_beta 90.000000
_cell_angle_gamma 90.000000
_cell_volume 1859.046954
_symmetry_space_group_name_H-M "P B C A"
_symmetry_group_IT_number 61
_symmetry_cell_setting 'orthorhombic'
loop_
_space_group_symop_operation_xyz
x,y,z
1/2-x,-y,1/2+z
1/2+x,1/2-y,-z
-x,1/2+y,1/2-z
-x,-y,-z
1/2+x,y,1/2-z
1/2-x,1/2+y,z
x,1/2-y,1/2+z
loop_
_atom_site_type_symbol
_atom_site_label
_atom_site_fract_x
_atom_site_fract_y
_atom_site_fract_z
Si Si1 0.436696 0.192899 0.941779
Si Si2 0.329489 0.888537 0.277553
Si Si3 0.627522 0.658690 0.824743
Si Si4 0.766382 0.936734 0.503803
Si Si5 0.958141 0.045974 0.667568
Si Si6 0.758066 0.407901 0.886173
O O1 0.672899 0.943962 0.048679
O O2 0.453936 0.194170 0.870292
O O3 0.588404 0.153357 0.979001
O O4 0.355725 0.331086 0.968306
O O5 0.212762 0.799716 0.236253
O O6 0.449454 0.811517 0.320095
O O7 0.443840 0.952544 0.228280
O O8 0.213965 0.987145 0.314012
O O9 0.707317 0.466981 0.948956
O O10 0.656764 0.492272 0.838387
O O11 0.720280 0.758619 0.375326
O O12 0.066875 0.954837 0.625191
#
# Coordination Sequence:
#
# PCOD9459838 Si02
#       6
#     8   8   8   8   8   8
#     4  10  22  40  63  91 123 158 200 248 301 359
#     4   9  20  39  60  87 120 160 202 249 299 354
#     4  10  21  37  61  88 121 159 201 247 301 357
#     4  10  22  41  63  89 122 158 199 249 301 356
#     4   9  20  38  60  88 121 157 202 248 297 356
#     4  10  21  39  61  90 121 156 200 248 299 359
#
# _framework density 25.819683000000001
#
# number of rings (size 3 to 8) (size 9 to 14) (size 15 to 20)
#    0.000    2.333    0.000    1.000    0.000   11.333 
#    0.000   13.333    0.000    0.000    0.000    0.000 
#    0.000    0.000    0.000    0.000    0.000    0.000 
#
# Total GULP energy -267967.094849 kJ/mol
# GULP energy per Si atom -5582.647809 kJ/mol
# Density = 2.576092 g / cm^3
# Si number density = 25.819683 Si / 1000 Ang^3
#
#
#
# Elastic Constant Matrix: (Units=GPa)
#
#
# Indices 1 2 3 4 5 6 
#
# 1 163.3242 42.9214 37.7913 0.0000 0.0000 0.0000
# 2 42.9214 82.7886 17.6052 0.0000 0.0000 0.0000
# 3 37.7913 17.6052 89.1872 0.0000 0.0000 0.0000
# 4 0.0000 0.0000 0.0000 21.9250 0.0000 0.0000
# 5 0.0000 0.0000 0.0000 0.0000 35.5811 0.0000
# 6 0.0000 0.0000 0.0000 0.0000 0.0000 39.9446
#
#
#
# Elastic Compliance Matrix: (Units=1/GPa)
#
#
# Indices 1 2 3 4 5 6 
#
# 1 0.007607 -0.003401 -0.002552 0.000000 0.000000 0.000000
# 2 -0.003401 0.014129 -0.001348 0.000000 0.000000 0.000000
# 3 -0.002552 -0.001348 0.012560 0.000000 0.000000 0.000000
# 4 0.000000 0.000000 0.000000 0.045610 0.000000 0.000000
# 5 0.000000 0.000000 0.000000 0.000000 0.028105 0.000000
# 6 0.000000 0.000000 0.000000 0.000000 0.000000 0.025035
#
#
# Mechanical properties :
#
#
# Convention : Reuss Voigt Hill
#
# Bulk Modulus (GPa) = 50.77731 59.10397 54.94064
# Shear Modulus (GPa) = 32.42290 35.28893 33.85592
#
# Velocity S-wave (km/s) = 3.54749 3.70096 3.62504
# Velocity P-wave (km/s) = 6.04056 6.41900 6.23266
#
# Compressibility (1/GPa) = 0.01969384
#
# Stress axis : x y z
#
# Youngs Moduli (GPa) = 131.45581 70.77693 79.61923
#
# Poissons Ratio (x) = 0.24073 0.20319
# Poissons Ratio (y) = 0.44711 0.10731
# Poissons Ratio (z) = 0.33547 0.09539
#
# Static dielectric constant tensor:
#      x y z
#    x 2.029470 0.000000 0.000000 
#    y 0.000000 2.101030 0.000000 
#    z 0.000000 0.000000 2.151810 
# 
# From -- ./inp_files/10072.got.cif
#   From: 2010.05.17/outbox.cif.g08.bks.cpg/sg61_6_cif.got.tgz:10072.got - 2010.06.03 15:17:17.
