data_PCOD9459829
_publ_section_title
;
Structure prediction by ZEFSAII (Michael W. Deem and Ramdas Pophale) SiO2 
 PCOD9459829
Probable space group: P B C A
;
_chemical_formula_sum "Si O2"
_cell_formula_units_Z 48
_cell_length_a 8.394706
_cell_length_b 8.498467
_cell_length_c 26.668711
_cell_angle_alpha 90.000000
_cell_angle_beta 90.000000
_cell_angle_gamma 90.000000
_cell_volume 1902.602698
_symmetry_space_group_name_H-M "P B C A"
_symmetry_group_IT_number 61
_symmetry_cell_setting 'orthorhombic'
loop_
_space_group_symop_operation_xyz
x,y,z
1/2-x,-y,1/2+z
1/2+x,1/2-y,-z
-x,1/2+y,1/2-z
-x,-y,-z
1/2+x,y,1/2-z
1/2-x,1/2+y,z
x,1/2-y,1/2+z
loop_
_atom_site_type_symbol
_atom_site_label
_atom_site_fract_x
_atom_site_fract_y
_atom_site_fract_z
Si Si1 0.710293 0.412120 0.464371
Si Si2 0.083492 0.107450 0.093475
Si Si3 0.593774 0.700055 0.738614
Si Si4 0.287131 0.212256 0.869193
Si Si5 0.687946 0.105799 0.298035
Si Si6 0.913657 0.908775 0.572258
O O1 0.881740 0.465732 0.444549
O O2 0.641676 0.262624 0.435506
O O3 0.587115 0.553800 0.450121
O O4 0.697969 0.385881 0.523462
O O5 0.190410 0.078747 0.142899
O O6 0.909680 0.146382 0.115599
O O7 0.709860 0.691891 0.690252
O O8 0.646002 0.844312 0.774037
O O9 0.424661 0.743457 0.714252
O O10 0.612115 0.543806 0.770787
O O11 0.117285 0.263067 0.891018
O O12 0.359204 0.061049 0.896396
#
# Coordination Sequence:
#
# PCOD9459829 Si02
#       6
#     8   8   8   8   8   8
#     4  10  21  38  59  86 117 153 193 238 290 347
#     4  10  22  38  57  85 116 148 195 239 286 349
#     4  11  23  39  60  86 118 155 199 246 299 356
#     4  10  22  38  56  85 116 148 194 240 286 350
#     4  11  23  40  61  87 119 157 199 247 299 356
#     4  10  21  37  59  85 118 154 192 239 290 344
#
# _framework density 25.228601000000001
#
# number of rings (size 3 to 8) (size 9 to 14) (size 15 to 20)
#    0.000    1.667    0.000    4.000    0.000    7.333 
#    0.000    0.000    0.000    0.000    0.000    0.000 
#    0.000    0.000    0.000    0.000    0.000    0.000 
#
# Total GULP energy -268835.064603 kJ/mol
# GULP energy per Si atom -5600.730513 kJ/mol
# Density = 2.517118 g / cm^3
# Si number density = 25.228601 Si / 1000 Ang^3
#
#
#
# Elastic Constant Matrix: (Units=GPa)
#
#
# Indices 1 2 3 4 5 6 
#
# 1 28.0611 -2.7719 1.7421 0.0000 0.0000 0.0000
# 2 -2.7719 37.6271 -2.2968 0.0000 0.0000 0.0000
# 3 1.7421 -2.2968 154.4163 0.0000 0.0000 0.0000
# 4 0.0000 0.0000 0.0000 17.1892 0.0000 0.0000
# 5 0.0000 0.0000 0.0000 0.0000 36.5801 0.0000
# 6 0.0000 0.0000 0.0000 0.0000 0.0000 18.1733
#
#
#
# Elastic Compliance Matrix: (Units=1/GPa)
#
#
# Indices 1 2 3 4 5 6 
#
# 1 0.035918 0.002624 -0.000366 0.000000 0.000000 0.000000
# 2 0.002624 0.026792 0.000369 0.000000 0.000000 0.000000
# 3 -0.000366 0.000369 0.006486 0.000000 0.000000 0.000000
# 4 0.000000 0.000000 0.000000 0.058176 0.000000 0.000000
# 5 0.000000 0.000000 0.000000 0.000000 0.027337 0.000000
# 6 0.000000 0.000000 0.000000 0.000000 0.000000 0.055026
#
#
# Mechanical properties :
#
#
# Convention : Reuss Voigt Hill
#
# Bulk Modulus (GPa) = 13.43195 23.71681 18.57438
# Shear Modulus (GPa) = 21.80557 29.28393 25.54475
#
# Velocity S-wave (km/s) = 2.94312 3.41066 3.18548
# Velocity P-wave (km/s) = 4.10913 4.99313 4.57254
#
# Compressibility (1/GPa) = 0.07444933
#
# Stress axis : x y z
#
# Youngs Moduli (GPa) = 27.84083 37.32401 154.18734
#
# Poissons Ratio (x) = -0.09793 0.05646
# Poissons Ratio (y) = -0.07305 -0.05688
# Poissons Ratio (z) = 0.01020 -0.01377
#
# Static dielectric constant tensor:
#      x y z
#    x 2.058690 0.000000 0.000000 
#    y 0.000000 1.968050 0.000000 
#    z 0.000000 0.000000 1.886240 
# 
# From -- ./inp_files/4578.got.cif
#   From: 2010.05.17/outbox.cif.g08.bks.cpg/sg61_3_cif.got.tgz:4578.got - 2010.06.03 15:17:17.
