data_PCOD9459812
_publ_section_title
;
Structure prediction by ZEFSAII (Michael W. Deem and Ramdas Pophale) SiO2 
 PCOD9459812
Probable space group: P B C A
;
_chemical_formula_sum "Si O2"
_cell_formula_units_Z 64
_cell_length_a 13.266670
_cell_length_b 17.135006
_cell_length_c 11.458255
_cell_angle_alpha 90.000000
_cell_angle_beta 90.000000
_cell_angle_gamma 90.000000
_cell_volume 2604.741746
_symmetry_space_group_name_H-M "P B C A"
_symmetry_group_IT_number 61
_symmetry_cell_setting 'orthorhombic'
loop_
_space_group_symop_operation_xyz
x,y,z
1/2-x,-y,1/2+z
1/2+x,1/2-y,-z
-x,1/2+y,1/2-z
-x,-y,-z
1/2+x,y,1/2-z
1/2-x,1/2+y,z
x,1/2-y,1/2+z
loop_
_atom_site_type_symbol
_atom_site_label
_atom_site_fract_x
_atom_site_fract_y
_atom_site_fract_z
Si Si1 0.746132 0.422010 0.230250
Si Si2 0.439253 0.004174 0.337200
Si Si3 0.033014 0.767526 0.906185
Si Si4 0.290587 0.712407 0.075596
Si Si5 0.900168 0.102353 0.933162
Si Si6 0.807515 0.752677 0.669266
Si Si7 0.001759 0.135869 0.305808
Si Si8 0.869052 0.391170 0.024706
O O1 0.657688 0.484743 0.240341
O O2 0.804788 0.405593 0.349526
O O3 0.691696 0.341645 0.185836
O O4 0.827399 0.444777 0.129113
O O5 0.501064 0.927239 0.365864
O O6 0.397673 0.045214 0.454386
O O7 0.519555 0.061986 0.277616
O O8 0.060998 0.810596 0.785707
O O9 0.076840 0.680901 0.906383
O O10 0.911780 0.777979 0.916964
O O11 0.074733 0.812391 0.018930
O O12 0.257707 0.727018 0.207352
O O13 0.263548 0.763609 0.960624
O O14 0.234233 0.632834 0.041879
O O15 0.906195 0.807490 0.663838
O O16 0.948722 0.100069 0.419987
#
# Coordination Sequence:
#
# PCOD9459812 Si02
#       8
#     8   8   8   8   8   8   8   8
#     4  11  25  42  70 102 136 185 240 293 349 432
#     4  10  24  46  70  98 139 197 238 280 364 441
#     4  10  21  39  64  93 130 175 222 285 360 419
#     4  10  21  36  61  96 131 175 218 287 356 417
#     4  10  22  45  70  93 137 189 233 283 353 438
#     4  10  21  42  63  99 134 178 230 301 358 409
#     4  10  23  42  65  98 136 179 233 292 354 424
#     4  11  23  36  66  99 135 172 231 296 350 413
#
# _framework density 24.570575999999999
#
# number of rings (size 3 to 8) (size 9 to 14) (size 15 to 20)
#    0.000    1.750    1.250    2.250    7.000    3.000 
#    0.000    0.625    0.000    0.000    0.000    0.000 
#    0.000    0.000    0.000    0.000    0.000    0.000 
#
# Total GULP energy -356679.827253 kJ/mol
# GULP energy per Si atom -5573.122301 kJ/mol
# Density = 2.451465 g / cm^3
# Si number density = 24.570576 Si / 1000 Ang^3
#
#
#
# Elastic Constant Matrix: (Units=GPa)
#
#
# Indices 1 2 3 4 5 6 
#
# 1 105.8150 29.0055 34.9349 0.0000 0.0000 0.0000
# 2 29.0055 24.0857 10.0898 0.0000 0.0000 0.0000
# 3 34.9349 10.0898 81.3589 0.0000 0.0000 0.0000
# 4 0.0000 0.0000 0.0000-1039.2181 0.0000 0.0000
# 5 0.0000 0.0000 0.0000 0.0000 23.0162 0.0000
# 6 0.0000 0.0000 0.0000 0.0000 0.0000 29.0469
#
#
#
# Elastic Compliance Matrix: (Units=1/GPa)
#
#
# Indices 1 2 3 4 5 6 
#
# 1 0.015587 -0.016842 -0.004604 0.000000 0.000000 0.000000
# 2 -0.016842 0.061992 -0.000456 0.000000 0.000000 0.000000
# 3 -0.004604 -0.000456 0.014325 0.000000 0.000000 0.000000
# 4 0.000000 0.000000 0.000000 -0.000962 0.000000 0.000000
# 5 0.000000 0.000000 0.000000 0.000000 0.043448 0.000000
# 6 0.000000 0.000000 0.000000 0.000000 0.000000 0.034427
#
#
# Mechanical properties :
#
#
# Convention : Reuss Voigt Hill
#
# Bulk Modulus (GPa) = 20.79053 39.92443 30.35748
# Shear Modulus (GPa) = 21.86694 -188.28238 -83.20772
#
# Velocity S-wave (km/s) = 2.98646 -8.76331 -5.82566
# Velocity P-wave (km/s) = 4.51352 9.27954 5.73315
#
# Compressibility (1/GPa) = 0.04809882
#
# Stress axis : x y z
#
# Youngs Moduli (GPa) = 64.15449 16.13103 69.80883
#
# Poissons Ratio (x) = 0.27169 0.32142
# Poissons Ratio (y) = 1.08052 0.03183
# Poissons Ratio (z) = 0.29539 0.00736
#
# Static dielectric constant tensor:
#      x y z
#    x 1.986310 0.000000 0.000000 
#    y 0.000000 1.966600 0.000000 
#    z 0.000000 0.000000 1.964980 
# 
# From -- ./inp_files/5988.got.cif
#   From: 2010.05.17/outbox.cif.g08.bks.cpg/sg61_3_cif.got.tgz:5988.got - 2010.06.03 15:17:17.
