data_PCOD9459286
_publ_section_title
;
Structure prediction by ZEFSAII (Michael W. Deem and Ramdas Pophale) SiO2 
 PCOD9459286
Probable space group: P B C A
;
_chemical_formula_sum "Si O2"
_cell_formula_units_Z 64
_cell_length_a 5.318840
_cell_length_b 20.366082
_cell_length_c 26.103860
_cell_angle_alpha 90.000000
_cell_angle_beta 90.000000
_cell_angle_gamma 90.000000
_cell_volume 2827.672745
_symmetry_space_group_name_H-M "P B C A"
_symmetry_group_IT_number 61
_symmetry_cell_setting 'orthorhombic'
loop_
_space_group_symop_operation_xyz
x,y,z
1/2-x,-y,1/2+z
1/2+x,1/2-y,-z
-x,1/2+y,1/2-z
-x,-y,-z
1/2+x,y,1/2-z
1/2-x,1/2+y,z
x,1/2-y,1/2+z
loop_
_atom_site_type_symbol
_atom_site_label
_atom_site_fract_x
_atom_site_fract_y
_atom_site_fract_z
Si Si1 0.817236 0.608545 0.154673
Si Si2 0.169808 0.096120 0.519849
Si Si3 0.662371 0.260832 0.467254
Si Si4 0.039394 0.774435 0.716852
Si Si5 0.487552 0.489303 0.782663
Si Si6 0.504109 0.136037 0.431262
Si Si7 0.118039 0.965927 0.577826
Si Si8 0.076110 0.366364 0.283966
O O1 0.987731 0.658474 0.186430
O O2 0.596876 0.576680 0.188396
O O3 0.725090 0.650829 0.105926
O O4 0.944681 0.546371 0.126500
O O5 0.111148 0.164486 0.547486
O O6 0.421680 0.111232 0.487526
O O7 0.989243 0.071812 0.473194
O O8 0.171936 0.038742 0.560441
O O9 0.415034 0.242993 0.500015
O O10 0.676549 0.199903 0.429172
O O11 0.822324 0.774100 0.761125
O O12 0.980690 0.703938 0.688920
O O13 0.772904 0.489099 0.762156
O O14 0.454741 0.561414 0.809355
O O15 0.632231 0.072296 0.408713
O O16 0.357732 0.365544 0.260233
#
# Coordination Sequence:
#
# PCOD9459286 Si02
#       8
#     8   8   8   8   8   8   8   8
#     4  11  24  35  55  88 121 151 192 253 297 347
#     4   9  19  37  61  85 109 162 200 237 296 362
#     4  10  19  37  62  87 110 152 198 238 284 350
#     4  10  21  38  62  86 112 159 200 236 293 358
#     4  10  21  38  62  85 114 159 199 238 292 359
#     4  10  21  36  59  84 123 154 196 252 297 351
#     4  10  20  37  58  84 121 151 197 245 299 350
#     4   8  16  34  58  81 105 142 195 236 276 341
#
# _framework density 22.633451999999998
#
# number of rings (size 3 to 8) (size 9 to 14) (size 15 to 20)
#    0.000    2.250    1.250    1.125    3.500    0.000 
#    2.250    0.000    2.750    0.000    0.000    0.000 
#    0.000    0.000    0.000    0.000    0.000    0.000 
#
# Total GULP energy -356344.411482 kJ/mol
# GULP energy per Si atom -5567.881429 kJ/mol
# Density = 2.258194 g / cm^3
# Si number density = 22.633452 Si / 1000 Ang^3
#
#
#
# Elastic Constant Matrix: (Units=GPa)
#
#
# Indices 1 2 3 4 5 6 
#
# 1 80.7627 7.0362 4.7436 0.0000 0.0000 0.0000
# 2 7.0362 164.9549 25.8232 0.0000 0.0000 0.0000
# 3 4.7436 25.8232 31.3314 0.0000 0.0000 0.0000
# 4 0.0000 0.0000 0.0000 -219.9085 0.0000 0.0000
# 5 0.0000 0.0000 0.0000 0.0000 14.8797 0.0000
# 6 0.0000 0.0000 0.0000 0.0000 0.0000 28.3668
#
#
#
# Elastic Compliance Matrix: (Units=1/GPa)
#
#
# Indices 1 2 3 4 5 6 
#
# 1 0.012504 -0.000272 -0.001669 0.000000 0.000000 0.000000
# 2 -0.000272 0.006966 -0.005700 0.000000 0.000000 0.000000
# 3 -0.001669 -0.005700 0.036868 0.000000 0.000000 0.000000
# 4 0.000000 0.000000 0.000000 -0.004547 0.000000 0.000000
# 5 0.000000 0.000000 0.000000 0.000000 0.067206 0.000000
# 6 0.000000 0.000000 0.000000 0.000000 0.000000 0.035253
#
#
# Mechanical properties :
#
#
# Convention : Reuss Voigt Hill
#
# Bulk Modulus (GPa) = 24.35749 39.13944 31.74847
# Shear Modulus (GPa) = 27.29018 -19.36936 3.96041
#
# Velocity S-wave (km/s) = 3.47615 -2.92855 1.32424
# Velocity P-wave (km/s) = 5.18619 2.42797 4.04918
#
# Compressibility (1/GPa) = 0.04105513
#
# Stress axis : x y z
#
# Youngs Moduli (GPa) = 79.97645 143.54940 27.12402
#
# Poissons Ratio (x) = 0.03906 0.04526
# Poissons Ratio (y) = 0.02176 0.15462
# Poissons Ratio (z) = 0.13346 0.81828
#
# Static dielectric constant tensor:
#      x y z
#    x 1.876900 0.000000 0.000000 
#    y 0.000000 1.948140 0.000000 
#    z 0.000000 0.000000 1.907490 
# 
# From -- ./inp_files/11296.got.cif
#   From: 2010.05.17/outbox.cif.g08.bks.cpg/sg61_6_cif.got.tgz:11296.got - 2010.06.03 15:17:17.
