data_PCOD9459729
_publ_section_title
;
Structure prediction by ZEFSAII (Michael W. Deem and Ramdas Pophale) SiO2 
 PCOD9459729
Probable space group: P B C A
;
_chemical_formula_sum "Si O2"
_cell_formula_units_Z 64
_cell_length_a 7.866364
_cell_length_b 14.198092
_cell_length_c 23.134412
_cell_angle_alpha 90.000000
_cell_angle_beta 90.000000
_cell_angle_gamma 90.000000
_cell_volume 2583.821396
_symmetry_space_group_name_H-M "P B C A"
_symmetry_group_IT_number 61
_symmetry_cell_setting 'orthorhombic'
loop_
_space_group_symop_operation_xyz
x,y,z
1/2-x,-y,1/2+z
1/2+x,1/2-y,-z
-x,1/2+y,1/2-z
-x,-y,-z
1/2+x,y,1/2-z
1/2-x,1/2+y,z
x,1/2-y,1/2+z
loop_
_atom_site_type_symbol
_atom_site_label
_atom_site_fract_x
_atom_site_fract_y
_atom_site_fract_z
Si Si1 0.874036 0.482757 0.690734
Si Si2 0.339493 0.200143 0.865063
Si Si3 0.841446 0.839129 0.551121
Si Si4 0.195311 0.724864 0.566419
Si Si5 0.992992 0.344409 0.333726
Si Si6 0.152684 0.800966 0.741047
Si Si7 0.472192 0.004870 0.875186
Si Si8 0.178634 0.387563 0.638349
O O1 0.973694 0.575420 0.712904
O O2 0.007058 0.447382 0.641662
O O3 0.883636 0.404330 0.738494
O O4 0.676831 0.488140 0.672797
O O5 0.294466 0.289042 0.905393
O O6 0.342356 0.235584 0.798301
O O7 0.162893 0.142384 0.870129
O O8 0.473521 0.119037 0.881547
O O9 0.764545 0.830581 0.487824
O O10 0.894890 0.943359 0.571594
O O11 0.014011 0.776226 0.553672
O O12 0.158308 0.658203 0.621423
O O13 0.311871 0.812413 0.586616
O O14 0.983512 0.245042 0.301968
O O15 0.306914 0.819860 0.695619
O O16 0.654207 0.954937 0.863299
#
# Coordination Sequence:
#
# PCOD9459729 Si02
#       8
#     8   8   8   8   8   8   8   8
#     4  11  23  40  67  91 125 173 210 254 322 391
#     4  10  21  41  63  92 127 172 215 260 327 383
#     4  10  20  42  65  91 124 173 211 268 324 375
#     4   9  21  41  65  88 134 163 212 275 312 380
#     4   9  22  42  59  96 130 164 214 271 317 374
#     4  11  22  38  67  92 132 170 212 265 322 388
#     4  10  23  44  63  92 133 164 212 265 318 377
#     4  10  24  42  60  99 131 165 213 270 317 375
#
# _framework density 24.769515999999999
#
# number of rings (size 3 to 8) (size 9 to 14) (size 15 to 20)
#    0.000    2.000    1.250    1.500    5.250    1.000 
#    9.000    3.125    0.000    0.000    0.000    0.000 
#    0.000    0.000    0.000    0.000    0.000    0.000 
#
# Total GULP energy -356945.434355 kJ/mol
# GULP energy per Si atom -5577.272412 kJ/mol
# Density = 2.471314 g / cm^3
# Si number density = 24.769516 Si / 1000 Ang^3
#
#
#
# Elastic Constant Matrix: (Units=GPa)
#
#
# Indices 1 2 3 4 5 6 
#
# 1 127.9556 14.4893 7.1400 0.0000 0.0000 0.0000
# 2 14.4893 86.4006 3.3842 0.0000 0.0000 0.0000
# 3 7.1400 3.3842 62.8128 0.0000 0.0000 0.0000
# 4 0.0000 0.0000 0.0000 10.2241 0.0000 0.0000
# 5 0.0000 0.0000 0.0000 0.0000 21.4506 0.0000
# 6 0.0000 0.0000 0.0000 0.0000 0.0000 31.5518
#
#
#
# Elastic Compliance Matrix: (Units=1/GPa)
#
#
# Indices 1 2 3 4 5 6 
#
# 1 0.008010 -0.001310 -0.000840 0.000000 0.000000 0.000000
# 2 -0.001310 0.011813 -0.000487 0.000000 0.000000 0.000000
# 3 -0.000840 -0.000487 0.016042 0.000000 0.000000 0.000000
# 4 0.000000 0.000000 0.000000 0.097808 0.000000 0.000000
# 5 0.000000 0.000000 0.000000 0.000000 0.046619 0.000000
# 6 0.000000 0.000000 0.000000 0.000000 0.000000 0.031694
#
#
# Mechanical properties :
#
#
# Convention : Reuss Voigt Hill
#
# Bulk Modulus (GPa) = 32.69083 36.35510 34.52297
# Shear Modulus (GPa) = 21.98201 29.45565 25.71883
#
# Velocity S-wave (km/s) = 2.98226 3.45220 3.22580
# Velocity P-wave (km/s) = 5.00851 5.53168 5.27658
#
# Compressibility (1/GPa) = 0.03058962
#
# Stress axis : x y z
#
# Youngs Moduli (GPa) = 124.83655 84.65359 62.33608
#
# Poissons Ratio (x) = 0.11093 0.05236
# Poissons Ratio (y) = 0.16359 0.03039
# Poissons Ratio (z) = 0.10486 0.04127
#
# Static dielectric constant tensor:
#      x y z
#    x 2.039870 0.000000 0.000000 
#    y 0.000000 2.142520 0.000000 
#    z 0.000000 0.000000 1.977220 
# 
# From -- ./inp_files/10928.got.cif
#   From: 2010.05.17/outbox.cif.g08.bks.cpg/sg61_6_cif.got.tgz:10928.got - 2010.06.03 15:17:17.
