data_PCOD9459469
_publ_section_title
;
Structure prediction by ZEFSAII (Michael W. Deem and Ramdas Pophale) SiO2 
 PCOD9459469
Probable space group: P B C A
;
_chemical_formula_sum "Si O2"
_cell_formula_units_Z 44
_cell_length_a 13.265790
_cell_length_b 9.524396
_cell_length_c 12.939969
_cell_angle_alpha 90.000000
_cell_angle_beta 90.000000
_cell_angle_gamma 90.000000
_cell_volume 1634.947449
_symmetry_space_group_name_H-M "P B C A"
_symmetry_group_IT_number 61
_symmetry_cell_setting 'orthorhombic'
loop_
_space_group_symop_operation_xyz
x,y,z
1/2-x,-y,1/2+z
1/2+x,1/2-y,-z
-x,1/2+y,1/2-z
-x,-y,-z
1/2+x,y,1/2-z
1/2-x,1/2+y,z
x,1/2-y,1/2+z
loop_
_atom_site_type_symbol
_atom_site_label
_atom_site_fract_x
_atom_site_fract_y
_atom_site_fract_z
Si Si1 0.047416 0.794921 0.306140
Si Si2 0.730130 0.876593 0.652236
Si Si3 0.620012 0.362662 0.895870
Si Si4 0.112302 0.156677 0.856493
Si Si5 0.500000 0.500000 0.500000
Si Si6 0.221936 0.081217 0.576413
O O1 0.986624 0.655379 0.343090
O O2 0.992837 0.846251 0.202997
O O3 0.158565 0.737351 0.295049
O O4 0.032699 0.905755 0.398262
O O5 0.842436 0.813585 0.662763
O O6 0.720541 0.868037 0.527392
O O7 0.688095 0.031562 0.676060
O O8 0.600901 0.357436 0.019747
O O9 0.696314 0.485253 0.868042
O O10 0.679400 0.219136 0.871086
O O11 0.620524 0.501080 0.458371
#
# Coordination Sequence:
#
# PCOD9459469 Si02
#       6
#     8   8   8   8   4   8
#     4  11  23  39  65  94 126 169 214 270 334 392
#     4  10  22  42  63  88 131 168 211 275 330 392
#     4   9  20  38  60  89 122 160 212 260 319 388
#     4  10  23  41  63  93 127 170 216 267 330 394
#     4  10  20  36  60  88 122 164 208 254 324 388
#     4   9  18  36  59  84 119 161 201 258 315 373
#
# _framework density 26.912181
#
# number of rings (size 3 to 8) (size 9 to 14) (size 15 to 20)
#    0.000    2.182    0.000    3.273    0.000   11.636 
#    0.000    7.273    0.000    0.000    0.000    0.000 
#    0.000    0.000    0.000    0.000    0.000    0.000 
#
# Total GULP energy -245348.406133 kJ/mol
# GULP energy per Si atom -5576.100139 kJ/mol
# Density = 2.685093 g / cm^3
# Si number density = 26.912181 Si / 1000 Ang^3
#
#
#
# Elastic Constant Matrix: (Units=GPa)
#
#
# Indices 1 2 3 4 5 6 
#
# 1 100.5542 26.0015 7.1911 0.0000 0.0000 0.0000
# 2 26.0015 87.8075 5.4628 0.0000 0.0000 0.0000
# 3 7.1911 5.4628 68.5048 0.0000 0.0000 0.0000
# 4 0.0000 0.0000 0.0000 32.7944 0.0000 0.0000
# 5 0.0000 0.0000 0.0000 0.0000 53.7688 0.0000
# 6 0.0000 0.0000 0.0000 0.0000 0.0000 39.1861
#
#
#
# Elastic Compliance Matrix: (Units=1/GPa)
#
#
# Indices 1 2 3 4 5 6 
#
# 1 0.010823 -0.003150 -0.000885 0.000000 0.000000 0.000000
# 2 -0.003150 0.012362 -0.000655 0.000000 0.000000 0.000000
# 3 -0.000885 -0.000655 0.014743 0.000000 0.000000 0.000000
# 4 0.000000 0.000000 0.000000 0.030493 0.000000 0.000000
# 5 0.000000 0.000000 0.000000 0.000000 0.018598 0.000000
# 6 0.000000 0.000000 0.000000 0.000000 0.000000 0.025519
#
#
# Mechanical properties :
#
#
# Convention : Reuss Voigt Hill
#
# Bulk Modulus (GPa) = 35.02909 37.13080 36.07995
# Shear Modulus (GPa) = 38.04214 39.69726 38.86970
#
# Velocity S-wave (km/s) = 3.76382 3.84483 3.80454
# Velocity P-wave (km/s) = 5.65091 5.79113 5.72145
#
# Compressibility (1/GPa) = 0.02854770
#
# Stress axis : x y z
#
# Youngs Moduli (GPa) = 92.39894 80.89303 67.83039
#
# Poissons Ratio (x) = 0.25479 0.06002
# Poissons Ratio (y) = 0.29103 0.04444
# Poissons Ratio (z) = 0.08176 0.05300
#
# Static dielectric constant tensor:
#      x y z
#    x 2.102190 0.000000 0.000000 
#    y 0.000000 2.139390 0.000000 
#    z 0.000000 0.000000 2.132980 
# 
# From -- ./inp_files/7776.got.cif
#   From: 2010.05.17/outbox.cif.g08.bks.cpg/sg61_4_cif.got.tgz:7776.got - 2010.06.03 15:17:17.
