data_PCOD9459642
_publ_section_title
;
Structure prediction by ZEFSAII (Michael W. Deem and Ramdas Pophale) SiO2 
 PCOD9459642
Probable space group: P B C A
;
_chemical_formula_sum "Si O2"
_cell_formula_units_Z 48
_cell_length_a 16.532844
_cell_length_b 13.298731
_cell_length_c 9.048304
_cell_angle_alpha 90.000000
_cell_angle_beta 90.000000
_cell_angle_gamma 90.000000
_cell_volume 1989.413005
_symmetry_space_group_name_H-M "P B C A"
_symmetry_group_IT_number 61
_symmetry_cell_setting 'orthorhombic'
loop_
_space_group_symop_operation_xyz
x,y,z
1/2-x,-y,1/2+z
1/2+x,1/2-y,-z
-x,1/2+y,1/2-z
-x,-y,-z
1/2+x,y,1/2-z
1/2-x,1/2+y,z
x,1/2-y,1/2+z
loop_
_atom_site_type_symbol
_atom_site_label
_atom_site_fract_x
_atom_site_fract_y
_atom_site_fract_z
Si Si1 0.296945 0.162320 0.103120
Si Si2 0.107800 0.120707 0.799002
Si Si3 0.905878 0.247396 0.155771
Si Si4 0.550191 0.890471 0.423054
Si Si5 0.719299 0.977598 0.535971
Si Si6 0.841215 0.693358 0.000701
O O1 0.345817 0.175543 0.253156
O O2 0.263246 0.053279 0.075455
O O3 0.223770 0.241363 0.093085
O O4 0.356246 0.191720 0.967466
O O5 0.102815 0.141960 0.624387
O O6 0.033181 0.057831 0.872971
O O7 0.185877 0.054083 0.839735
O O8 0.118559 0.227600 0.886057
O O9 0.940374 0.319088 0.279740
O O10 0.967295 0.177740 0.066665
O O11 0.639617 0.933612 0.453025
O O12 0.786750 0.894087 0.574644
#
# Coordination Sequence:
#
# PCOD9459642 Si02
#       6
#     8   8   8   8   8   8
#     4  10  21  38  62  98 119 163 220 270 310 374
#     4  11  26  44  64  99 134 166 218 266 331 386
#     4  10  20  39  66  89 130 169 212 261 327 383
#     4  11  23  41  65  93 133 173 205 265 335 387
#     4  11  24  36  69  94 125 166 217 264 315 380
#     4  11  23  42  68  95 126 172 217 269 314 383
#
# _framework density 24.127723
#
# number of rings (size 3 to 8) (size 9 to 14) (size 15 to 20)
#    0.000    1.333    3.333    3.500    2.333    1.333 
#    0.000    0.000    0.000    3.000    0.000    0.000 
#    0.000    0.000    0.000    0.000    0.000    0.000 
#
# Total GULP energy -268299.308263 kJ/mol
# GULP energy per Si atom -5589.568922 kJ/mol
# Density = 2.407281 g / cm^3
# Si number density = 24.127723 Si / 1000 Ang^3
#
#
#
# Elastic Constant Matrix: (Units=GPa)
#
#
# Indices 1 2 3 4 5 6 
#
# 1 46.3253 13.7099 1.1775 0.0000 0.0000 0.0000
# 2 13.7099 88.6090 10.2838 0.0000 0.0000 0.0000
# 3 1.1775 10.2838 106.0078 0.0000 0.0000 0.0000
# 4 0.0000 0.0000 0.0000 28.4423 0.0000 0.0000
# 5 0.0000 0.0000 0.0000 0.0000 33.9246 0.0000
# 6 0.0000 0.0000 0.0000 0.0000 0.0000 43.0160
#
#
#
# Elastic Compliance Matrix: (Units=1/GPa)
#
#
# Indices 1 2 3 4 5 6 
#
# 1 0.022623 -0.003511 0.000089 0.000000 0.000000 0.000000
# 2 -0.003511 0.011959 -0.001121 0.000000 0.000000 0.000000
# 3 0.000089 -0.001121 0.009541 0.000000 0.000000 0.000000
# 4 0.000000 0.000000 0.000000 0.035159 0.000000 0.000000
# 5 0.000000 0.000000 0.000000 0.000000 0.029477 0.000000
# 6 0.000000 0.000000 0.000000 0.000000 0.000000 0.023247
#
#
# Mechanical properties :
#
#
# Convention : Reuss Voigt Hill
#
# Bulk Modulus (GPa) = 28.54044 32.36492 30.45268
# Shear Modulus (GPa) = 32.72880 35.46132 34.09506
#
# Velocity S-wave (km/s) = 3.68704 3.83787 3.76321
# Velocity P-wave (km/s) = 5.47542 5.75170 5.61526
#
# Compressibility (1/GPa) = 0.03503800
#
# Stress axis : x y z
#
# Youngs Moduli (GPa) = 44.20240 83.62011 104.81039
#
# Poissons Ratio (x) = 0.29357 -0.00936
# Poissons Ratio (y) = 0.15518 0.11751
# Poissons Ratio (z) = -0.00395 0.09375
#
# Static dielectric constant tensor:
#      x y z
#    x 1.985620 0.000000 0.000000 
#    y 0.000000 2.016630 0.000000 
#    z 0.000000 0.000000 1.896150 
# 
# From -- ./inp_files/3476.got.cif
#   From: 2010.05.17/outbox.cif.g08.bks.cpg/sg61_2_cif.got.tgz:3476.got - 2010.06.03 15:17:17.
