data_PCOD9459685
_publ_section_title
;
Structure prediction by ZEFSAII (Michael W. Deem and Ramdas Pophale) SiO2 
 PCOD9459685
Probable space group: P B C A
;
_chemical_formula_sum "Si O2"
_cell_formula_units_Z 44
_cell_length_a 9.846000
_cell_length_b 9.043013
_cell_length_c 18.953343
_cell_angle_alpha 90.000000
_cell_angle_beta 90.000000
_cell_angle_gamma 90.000000
_cell_volume 1687.558391
_symmetry_space_group_name_H-M "P B C A"
_symmetry_group_IT_number 61
_symmetry_cell_setting 'orthorhombic'
loop_
_space_group_symop_operation_xyz
x,y,z
1/2-x,-y,1/2+z
1/2+x,1/2-y,-z
-x,1/2+y,1/2-z
-x,-y,-z
1/2+x,y,1/2-z
1/2-x,1/2+y,z
x,1/2-y,1/2+z
loop_
_atom_site_type_symbol
_atom_site_label
_atom_site_fract_x
_atom_site_fract_y
_atom_site_fract_z
Si Si1 0.500000 0.000000 0.500000
Si Si2 0.311367 0.214183 0.628225
Si Si3 0.458197 0.793061 0.215714
Si Si4 0.148578 0.316146 0.004723
Si Si5 0.520567 0.478054 0.610115
Si Si6 0.530619 0.006451 0.667227
O O1 0.401960 0.850740 0.506629
O O2 0.551207 0.982876 0.584540
O O3 0.169427 0.240290 0.665104
O O4 0.292564 0.169777 0.545122
O O5 0.406825 0.355494 0.626904
O O6 0.378401 0.075905 0.666135
O O7 0.543094 0.643074 0.211679
O O8 0.544556 0.922788 0.178073
O O9 0.401792 0.858627 0.289001
O O10 0.140285 0.389629 0.928206
O O11 0.044903 0.410264 0.053049
#
# Coordination Sequence:
#
# PCOD9459685 Si02
#       6
#     4   8   8   8   8   8
#     4  12  22  44  68 106 138 180 236 292 346 414
#     4  11  22  44  73  97 140 187 232 285 363 422
#     4  11  24  42  70 102 136 187 235 283 360 417
#     4  10  22  36  67 103 135 181 230 281 354 416
#     4  10  20  40  68 101 138 182 231 287 349 423
#     4  12  25  44  72 102 142 185 234 294 352 424
#
# _framework density 26.073170000000001
#
# number of rings (size 3 to 8) (size 9 to 14) (size 15 to 20)
#    0.000    1.091    5.455    3.273    0.000    0.000 
#    0.000    1.818   12.000    0.000    0.000    0.000 
#    0.000    0.000    0.000    0.000    0.000    0.000 
#
# Total GULP energy -245153.299873 kJ/mol
# GULP energy per Si atom -5571.665906 kJ/mol
# Density = 2.601383 g / cm^3
# Si number density = 26.073170 Si / 1000 Ang^3
#
#
#
# Elastic Constant Matrix: (Units=GPa)
#
#
# Indices 1 2 3 4 5 6 
#
# 1 40.6507 7.4382 13.0751 0.0000 0.0000 0.0000
# 2 7.4382 179.4863 72.2640 0.0000 0.0000 0.0000
# 3 13.0751 72.2640 125.5477 0.0000 0.0000 0.0000
# 4 0.0000 0.0000 0.0000 55.9916 0.0000 0.0000
# 5 0.0000 0.0000 0.0000 0.0000 29.9883 0.0000
# 6 0.0000 0.0000 0.0000 0.0000 0.0000 22.1624
#
#
#
# Elastic Compliance Matrix: (Units=1/GPa)
#
#
# Indices 1 2 3 4 5 6 
#
# 1 0.025452 0.000016 -0.002660 0.000000 0.000000 0.000000
# 2 0.000016 0.007252 -0.004176 0.000000 0.000000 0.000000
# 3 -0.002660 -0.004176 0.010646 0.000000 0.000000 0.000000
# 4 0.000000 0.000000 0.000000 0.017860 0.000000 0.000000
# 5 0.000000 0.000000 0.000000 0.000000 0.033346 0.000000
# 6 0.000000 0.000000 0.000000 0.000000 0.000000 0.045121
#
#
# Mechanical properties :
#
#
# Convention : Reuss Voigt Hill
#
# Bulk Modulus (GPa) = 33.65786 59.02659 46.34222
# Shear Modulus (GPa) = 30.63331 38.48895 34.56113
#
# Velocity S-wave (km/s) = 3.43140 3.84629 3.64475
# Velocity P-wave (km/s) = 5.35129 6.51254 5.96027
#
# Compressibility (1/GPa) = 0.02971075
#
# Stress axis : x y z
#
# Youngs Moduli (GPa) = 39.28889 137.89168 93.93433
#
# Poissons Ratio (x) = -0.00223 0.24987
# Poissons Ratio (y) = -0.00064 0.39226
# Poissons Ratio (z) = 0.10451 0.57582
#
# Static dielectric constant tensor:
#      x y z
#    x 3.600160 0.000000 0.000000 
#    y 0.000000 1.948900 0.000000 
#    z 0.000000 0.000000 2.260380 
# 
# From -- ./inp_files/9409.got.cif
#   From: 2010.05.17/outbox.cif.g08.bks.cpg/sg61_5_cif.got.tgz:9409.got - 2010.06.03 15:17:17.
