data_PCOD9459910
_publ_section_title
;
Structure prediction by ZEFSAII (Michael W. Deem and Ramdas Pophale) SiO2 
 PCOD9459910
Probable space group: P B C A
;
_chemical_formula_sum "Si O2"
_cell_formula_units_Z 48
_cell_length_a 9.834862
_cell_length_b 16.876440
_cell_length_c 16.088855
_cell_angle_alpha 90.000000
_cell_angle_beta 90.000000
_cell_angle_gamma 90.000000
_cell_volume 2670.387262
_symmetry_space_group_name_H-M "P B C A"
_symmetry_group_IT_number 61
_symmetry_cell_setting 'orthorhombic'
loop_
_space_group_symop_operation_xyz
x,y,z
1/2-x,-y,1/2+z
1/2+x,1/2-y,-z
-x,1/2+y,1/2-z
-x,-y,-z
1/2+x,y,1/2-z
1/2-x,1/2+y,z
x,1/2-y,1/2+z
loop_
_atom_site_type_symbol
_atom_site_label
_atom_site_fract_x
_atom_site_fract_y
_atom_site_fract_z
Si Si1 0.633018 0.946916 0.494162
Si Si2 0.400838 0.482581 0.576313
Si Si3 0.514076 0.661181 0.313776
Si Si4 0.339301 0.927141 0.238405
Si Si5 0.285953 0.094129 0.319701
Si Si6 0.081372 0.655978 0.663429
O O1 0.679769 0.915478 0.583551
O O2 0.607422 0.876336 0.429166
O O3 0.500000 0.000000 0.500000
O O4 0.749803 0.002943 0.456485
O O5 0.500000 0.500000 0.500000
O O6 0.428500 0.396530 0.614275
O O7 0.413400 0.543223 0.653861
O O8 0.592191 0.636169 0.229813
O O9 0.354517 0.641013 0.307086
O O10 0.547459 0.751714 0.332854
O O11 0.452559 0.890144 0.297820
O O12 0.217331 0.867905 0.214592
O O13 0.275939 0.006030 0.280156
#
# Coordination Sequence:
#
# PCOD9459910 Si02
#       6
#     8   8   8   8   8   8
#     4  11  23  41  64  92 125 163 217 254 306 376
#     4  10  21  40  62  88 120 165 212 249 301 380
#     4  11  24  41  63  93 131 161 209 263 324 363
#     4  10  21  38  67  85 125 165 212 248 306 382
#     4  11  22  42  67  92 124 172 212 253 308 386
#     4  11  23  42  60  97 126 163 206 268 316 367
#
# _framework density 17.974921999999999
#
# number of rings (size 3 to 8) (size 9 to 14) (size 15 to 20)
#    0.000    1.333    3.333    3.000    4.667    0.000 
#    6.000    0.000    0.000    0.000    0.000    0.000 
#    0.000    0.000    0.000    0.000    0.000    0.000 
#
# Total GULP energy -268127.197531 kJ/mol
# GULP energy per Si atom -5585.983282 kJ/mol
# Density = 1.793401 g / cm^3
# Si number density = 17.974922 Si / 1000 Ang^3
#
#
#
# Elastic Constant Matrix: (Units=GPa)
#
#
# Indices 1 2 3 4 5 6 
#
# 1 113.0345 47.3864 53.1686 0.0000 0.0000 0.0000
# 2 47.3864 97.6518 33.9113 0.0000 0.0000 0.0000
# 3 53.1686 33.9113 122.5749 0.0000 0.0000 0.0000
# 4 0.0000 0.0000 0.0000 13.0455 0.0000 0.0000
# 5 0.0000 0.0000 0.0000 0.0000 31.2535 0.0000
# 6 0.0000 0.0000 0.0000 0.0000 0.0000 28.4562
#
#
#
# Elastic Compliance Matrix: (Units=1/GPa)
#
#
# Indices 1 2 3 4 5 6 
#
# 1 0.012841 -0.004754 -0.004255 0.000000 0.000000 0.000000
# 2 -0.004754 0.013089 -0.001559 0.000000 0.000000 0.000000
# 3 -0.004255 -0.001559 0.010435 0.000000 0.000000 0.000000
# 4 0.000000 0.000000 0.000000 0.076655 0.000000 0.000000
# 5 0.000000 0.000000 0.000000 0.000000 0.031996 0.000000
# 6 0.000000 0.000000 0.000000 0.000000 0.000000 0.035142
#
#
# Mechanical properties :
#
#
# Convention : Reuss Voigt Hill
#
# Bulk Modulus (GPa) = 65.66125 66.91042 66.28584
# Shear Modulus (GPa) = 24.22839 27.80404 26.01621
#
# Velocity S-wave (km/s) = 3.67536 3.93723 3.80855
# Velocity P-wave (km/s) = 7.39051 7.61408 7.50313
#
# Compressibility (1/GPa) = 0.01522968
#
# Stress axis : x y z
#
# Youngs Moduli (GPa) = 77.87506 76.40200 95.82930
#
# Poissons Ratio (x) = 0.36319 0.40774
# Poissons Ratio (y) = 0.37019 0.14941
# Poissons Ratio (z) = 0.33135 0.11912
#
# Static dielectric constant tensor:
#      x y z
#    x 1.536520 0.000000 0.000000 
#    y 0.000000 1.582200 0.000000 
#    z 0.000000 0.000000 1.614620 
# 
# From -- ./inp_files/3409.got.cif
#   From: 2010.05.17/outbox.cif.g08.bks.cpg/sg61_2_cif.got.tgz:3409.got - 2010.06.03 15:17:17.
