data_PCOD9459723
_publ_section_title
;
Structure prediction by ZEFSAII (Michael W. Deem and Ramdas Pophale) SiO2 
 PCOD9459723
Probable space group: P B C A
;
_chemical_formula_sum "Si O2"
_cell_formula_units_Z 40
_cell_length_a 14.276472
_cell_length_b 12.782761
_cell_length_c 8.514590
_cell_angle_alpha 90.000000
_cell_angle_beta 90.000000
_cell_angle_gamma 90.000000
_cell_volume 1553.850770
_symmetry_space_group_name_H-M "P B C A"
_symmetry_group_IT_number 61
_symmetry_cell_setting 'orthorhombic'
loop_
_space_group_symop_operation_xyz
x,y,z
1/2-x,-y,1/2+z
1/2+x,1/2-y,-z
-x,1/2+y,1/2-z
-x,-y,-z
1/2+x,y,1/2-z
1/2-x,1/2+y,z
x,1/2-y,1/2+z
loop_
_atom_site_type_symbol
_atom_site_label
_atom_site_fract_x
_atom_site_fract_y
_atom_site_fract_z
Si Si1 0.621815 0.834948 0.883209
Si Si2 0.790374 0.503973 0.051761
Si Si3 0.112052 0.393261 0.380390
Si Si4 0.683326 0.279731 0.430324
Si Si5 0.565419 0.860985 0.199423
O O1 0.583566 0.758441 0.751494
O O2 0.668988 0.950187 0.890105
O O3 0.712245 0.768143 0.940843
O O4 0.541476 0.851732 0.014623
O O5 0.680066 0.486025 0.066320
O O6 0.843368 0.435050 0.184080
O O7 0.817408 0.623531 0.050117
O O8 0.113704 0.313010 0.525015
O O9 0.009910 0.414093 0.311800
O O10 0.160583 0.326548 0.239567
#
# Coordination Sequence:
#
# PCOD9459723 Si02
#       5
#     8   8   8   8   8
#     4   9  19  40  60  85 127 159 201 263 304 363
#     4   9  23  39  63  91 126 163 206 253 313 375
#     4  11  23  40  68  90 126 165 208 259 319 369
#     4  11  21  43  64  92 125 173 206 257 317 376
#     4  10  20  42  59  93 124 161 206 258 312 365
#
# _framework density 25.742498999999999
#
# number of rings (size 3 to 8) (size 9 to 14) (size 15 to 20)
#    1.200    0.800    2.000    1.200    0.000    5.600 
#    3.600    1.000    0.000    0.000    0.000    0.000 
#    0.000    0.000    0.000    0.000    0.000    0.000 
#
# Total GULP energy -223180.976481 kJ/mol
# GULP energy per Si atom -5579.524412 kJ/mol
# Density = 2.568391 g / cm^3
# Si number density = 25.742499 Si / 1000 Ang^3
#
#
#
# Elastic Constant Matrix: (Units=GPa)
#
#
# Indices 1 2 3 4 5 6 
#
# 1 88.0541 10.9206 -8.7462 0.0000 0.0000 0.0000
# 2 10.9206 80.4986 1.3996 0.0000 0.0000 0.0000
# 3 -8.7462 1.3996 41.8663 0.0000 0.0000 0.0000
# 4 0.0000 0.0000 0.0000 37.6905 0.0000 0.0000
# 5 0.0000 0.0000 0.0000 0.0000 32.9253 0.0000
# 6 0.0000 0.0000 0.0000 0.0000 0.0000 11.8905
#
#
#
# Elastic Compliance Matrix: (Units=1/GPa)
#
#
# Indices 1 2 3 4 5 6 
#
# 1 0.011811 -0.001646 0.002523 0.000000 0.000000 0.000000
# 2 -0.001646 0.012659 -0.000767 0.000000 0.000000 0.000000
# 3 0.002523 -0.000767 0.024438 0.000000 0.000000 0.000000
# 4 0.000000 0.000000 0.000000 0.026532 0.000000 0.000000
# 5 0.000000 0.000000 0.000000 0.000000 0.030372 0.000000
# 6 0.000000 0.000000 0.000000 0.000000 0.000000 0.084101
#
#
# Mechanical properties :
#
#
# Convention : Reuss Voigt Hill
#
# Bulk Modulus (GPa) = 20.35530 24.17410 22.26470
# Shear Modulus (GPa) = 24.26350 30.29091 27.27720
#
# Velocity S-wave (km/s) = 3.07342 3.43401 3.25871
# Velocity P-wave (km/s) = 4.52979 5.01342 4.77773
#
# Compressibility (1/GPa) = 0.04912726
#
# Stress axis : x y z
#
# Youngs Moduli (GPa) = 84.66406 78.99364 40.91956
#
# Poissons Ratio (x) = 0.13004 -0.10322
# Poissons Ratio (y) = 0.13938 0.03139
# Poissons Ratio (z) = -0.21357 0.06060
#
# Static dielectric constant tensor:
#      x y z
#    x 2.040240 0.000000 0.000000 
#    y 0.000000 1.972610 0.000000 
#    z 0.000000 0.000000 2.105420 
# 
# From -- ./inp_files/3289.got.cif
#   From: 2010.05.17/outbox.cif.g08.bks.cpg/sg61_2_cif.got.tgz:3289.got - 2010.06.03 15:17:17.
