data_PCOD9459204
_publ_section_title
;
Structure prediction by ZEFSAII (Michael W. Deem and Ramdas Pophale) SiO2 
 PCOD9459204
Probable space group: P B C A
;
_chemical_formula_sum "Si O2"
_cell_formula_units_Z 56
_cell_length_a 8.601977
_cell_length_b 26.424111
_cell_length_c 12.534753
_cell_angle_alpha 90.000000
_cell_angle_beta 90.000000
_cell_angle_gamma 90.000000
_cell_volume 2849.144281
_symmetry_space_group_name_H-M "P B C A"
_symmetry_group_IT_number 61
_symmetry_cell_setting 'orthorhombic'
loop_
_space_group_symop_operation_xyz
x,y,z
1/2-x,-y,1/2+z
1/2+x,1/2-y,-z
-x,1/2+y,1/2-z
-x,-y,-z
1/2+x,y,1/2-z
1/2-x,1/2+y,z
x,1/2-y,1/2+z
loop_
_atom_site_type_symbol
_atom_site_label
_atom_site_fract_x
_atom_site_fract_y
_atom_site_fract_z
Si Si1 0.628292 0.664047 0.283238
Si Si2 0.569428 0.183337 0.007660
Si Si3 0.135810 0.135538 0.039457
Si Si4 0.406985 0.982355 0.849237
Si Si5 0.098662 0.779951 0.935008
Si Si6 0.431245 0.438554 0.846353
Si Si7 0.444593 0.083747 0.964675
O O1 0.496553 0.673417 0.372571
O O2 0.786274 0.657155 0.350808
O O3 0.618457 0.705206 0.189643
O O4 0.612437 0.610945 0.222752
O O5 0.736643 0.208329 0.012443
O O6 0.570154 0.128282 0.953449
O O7 0.454670 0.222903 0.952020
O O8 0.283162 0.114589 0.975081
O O9 0.026225 0.182301 0.008874
O O10 0.026884 0.086692 0.058165
O O11 0.454543 0.970677 0.728386
O O12 0.227977 0.967406 0.871120
O O13 0.513411 0.947379 0.927041
O O14 0.436892 0.040545 0.876924
#
# Coordination Sequence:
#
# PCOD9459204 Si02
#       7
#     8   8   8   8   8   8   8
#     4  10  19  35  60  88 112 146 194 247 279 348
#     4  11  21  38  58  87 119 152 191 242 296 350
#     4  10  19  34  58  88 113 143 195 239 285 337
#     4  11  20  34  58  82 113 149 195 237 291 328
#     4  11  22  34  62  89 116 152 195 237 295 353
#     4  11  18  33  57  84 109 147 192 237 274 343
#     4  10  21  36  54  83 117 150 184 245 288 343
#
# _framework density 19.655023
#
# number of rings (size 3 to 8) (size 9 to 14) (size 15 to 20)
#    0.000    1.429    4.286    5.143    0.000    0.571 
#    0.000    1.429   12.571    0.000    0.000    0.000 
#    0.000    0.000    0.000    0.000    0.000    0.000 
#
# Total GULP energy -312426.189212 kJ/mol
# GULP energy per Si atom -5579.039093 kJ/mol
# Density = 1.961029 g / cm^3
# Si number density = 19.655023 Si / 1000 Ang^3
#
#
#
# Elastic Constant Matrix: (Units=GPa)
#
#
# Indices 1 2 3 4 5 6 
#
# 1 79.9475 15.7559 -13.0048 0.0000 0.0000 0.0000
# 2 15.7559 129.3901 20.4018 0.0000 0.0000 0.0000
# 3 -13.0048 20.4018 10.7017 0.0000 0.0000 0.0000
# 4 0.0000 0.0000 0.0000 18.4570 0.0000 0.0000
# 5 0.0000 0.0000 0.0000 0.0000 13.5147 0.0000
# 6 0.0000 0.0000 0.0000 0.0000 0.0000 30.9383
#
#
#
# Elastic Compliance Matrix: (Units=1/GPa)
#
#
# Indices 1 2 3 4 5 6 
#
# 1 0.021751 -0.009746 0.045012 0.000000 0.000000 0.000000
# 2 -0.009746 0.015417 -0.041235 0.000000 0.000000 0.000000
# 3 0.045012 -0.041235 0.226752 0.000000 0.000000 0.000000
# 4 0.000000 0.000000 0.000000 0.054180 0.000000 0.000000
# 5 0.000000 0.000000 0.000000 0.000000 0.073994 0.000000
# 6 0.000000 0.000000 0.000000 0.000000 0.000000 0.032322
#
#
# Mechanical properties :
#
#
# Convention : Reuss Voigt Hill
#
# Bulk Modulus (GPa) = 3.96853 29.59389 16.78121
# Shear Modulus (GPa) = 9.60895 25.70775 17.65835
#
# Velocity S-wave (km/s) = 2.21346 3.62048 3.00061
# Velocity P-wave (km/s) = 2.92507 5.70671 4.53445
#
# Compressibility (1/GPa) = 0.25198227
#
# Stress axis : x y z
#
# Youngs Moduli (GPa) = 45.97525 64.86310 4.41010
#
# Poissons Ratio (x) = 0.63215 -0.19851
# Poissons Ratio (y) = 0.44807 0.18185
# Poissons Ratio (z) = -2.06942 2.67461
#
# Static dielectric constant tensor:
#      x y z
#    x 1.753740 0.000000 0.000000 
#    y 0.000000 1.683250 0.000000 
#    z 0.000000 0.000000 1.703370 
# 
# From -- ./inp_files/7141.got.cif
#   From: 2010.05.17/outbox.cif.g08.bks.cpg/sg61_4_cif.got.tgz:7141.got - 2010.06.03 15:17:17.
