data_PCOD9459451
_publ_section_title
;
Structure prediction by ZEFSAII (Michael W. Deem and Ramdas Pophale) SiO2 
 PCOD9459451
Probable space group: P B C A
;
_chemical_formula_sum "Si O2"
_cell_formula_units_Z 48
_cell_length_a 18.033524
_cell_length_b 8.073749
_cell_length_c 16.639534
_cell_angle_alpha 90.000000
_cell_angle_beta 90.000000
_cell_angle_gamma 90.000000
_cell_volume 2422.685307
_symmetry_space_group_name_H-M "P B C A"
_symmetry_group_IT_number 61
_symmetry_cell_setting 'orthorhombic'
loop_
_space_group_symop_operation_xyz
x,y,z
1/2-x,-y,1/2+z
1/2+x,1/2-y,-z
-x,1/2+y,1/2-z
-x,-y,-z
1/2+x,y,1/2-z
1/2-x,1/2+y,z
x,1/2-y,1/2+z
loop_
_atom_site_type_symbol
_atom_site_label
_atom_site_fract_x
_atom_site_fract_y
_atom_site_fract_z
Si Si1 0.407847 0.422133 0.925506
Si Si2 0.044602 0.234390 0.513598
Si Si3 0.174181 0.263431 0.629078
Si Si4 0.410555 0.595892 0.764563
Si Si5 0.336342 0.354508 0.085457
Si Si6 0.519251 0.844198 0.855654
O O1 0.434861 0.594387 0.966452
O O2 0.385557 0.470221 0.835356
O O3 0.476514 0.293677 0.929964
O O4 0.346648 0.360209 0.988727
O O5 0.116189 0.184394 0.564771
O O6 0.019935 0.116886 0.440560
O O7 0.160972 0.459749 0.620993
O O8 0.153621 0.188450 0.715474
O O9 0.258439 0.225565 0.607468
O O10 0.463982 0.729419 0.805341
O O11 0.457826 0.494822 0.699787
O O12 0.406417 0.255821 0.120490
#
# Coordination Sequence:
#
# PCOD9459451 Si02
#       6
#     8   8   8   8   8   8
#     4   8  16  34  56  77 105 145 184 222 270 327
#     4   8  16  33  56  77 106 146 183 219 270 333
#     4  11  21  36  57  81 111 145 185 232 280 330
#     4  11  20  34  58  86 112 142 187 236 277 321
#     4  10  21  39  57  77 111 151 185 222 280 341
#     4  10  20  36  58  84 113 147 186 229 277 331
#
# _framework density 19.812726999999999
#
# number of rings (size 3 to 8) (size 9 to 14) (size 15 to 20)
#    0.000    2.333    0.000    6.000    0.000    0.667 
#    0.000   13.333    0.000    0.000    0.000    0.000 
#    0.000    0.000    0.000    0.000    0.000    0.000 
#
# Total GULP energy -267956.778810 kJ/mol
# GULP energy per Si atom -5582.432892 kJ/mol
# Density = 1.976763 g / cm^3
# Si number density = 19.812727 Si / 1000 Ang^3
#
#
#
# Elastic Constant Matrix: (Units=GPa)
#
#
# Indices 1 2 3 4 5 6 
#
# 1 87.6642 -7.4418 24.6835 0.0000 0.0000 0.0000
# 2 -7.4418 23.1748 9.6264 0.0000 0.0000 0.0000
# 3 24.6835 9.6264 72.4775 0.0000 0.0000 0.0000
# 4 0.0000 0.0000 0.0000 38.7426 0.0000 0.0000
# 5 0.0000 0.0000 0.0000 0.0000 27.5328 0.0000
# 6 0.0000 0.0000 0.0000 0.0000 0.0000 22.2484
#
#
#
# Elastic Compliance Matrix: (Units=1/GPa)
#
#
# Indices 1 2 3 4 5 6 
#
# 1 0.013512 0.006615 -0.005480 0.000000 0.000000 0.000000
# 2 0.006615 0.048909 -0.008749 0.000000 0.000000 0.000000
# 3 -0.005480 -0.008749 0.016826 0.000000 0.000000 0.000000
# 4 0.000000 0.000000 0.000000 0.025811 0.000000 0.000000
# 5 0.000000 0.000000 0.000000 0.000000 0.036320 0.000000
# 6 0.000000 0.000000 0.000000 0.000000 0.000000 0.044947
#
#
# Mechanical properties :
#
#
# Convention : Reuss Voigt Hill
#
# Bulk Modulus (GPa) = 15.62050 26.33919 20.97984
# Shear Modulus (GPa) = 22.43233 28.13466 25.28349
#
# Velocity S-wave (km/s) = 3.36850 3.77242 3.57616
# Velocity P-wave (km/s) = 4.79898 5.68311 5.25966
#
# Compressibility (1/GPa) = 0.06401844
#
# Stress axis : x y z
#
# Youngs Moduli (GPa) = 74.00915 20.44624 59.43238
#
# Poissons Ratio (x) = -0.13526 0.32571
# Poissons Ratio (y) = -0.48959 0.51997
# Poissons Ratio (z) = 0.40560 0.17888
#
# Static dielectric constant tensor:
#      x y z
#    x 1.667750 0.000000 0.000000 
#    y 0.000000 1.752910 0.000000 
#    z 0.000000 0.000000 1.717760 
# 
# From -- ./inp_files/2931.got.cif
#   From: 2010.05.17/outbox.cif.g08.bks.cpg/sg61_2_cif.got.tgz:2931.got - 2010.06.03 15:17:17.
