data_PCOD9459701
_publ_section_title
;
Structure prediction by ZEFSAII (Michael W. Deem and Ramdas Pophale) SiO2 
 PCOD9459701
Probable space group: P B C A
;
_chemical_formula_sum "Si O2"
_cell_formula_units_Z 56
_cell_length_a 13.937533
_cell_length_b 11.696759
_cell_length_c 14.384141
_cell_angle_alpha 90.000000
_cell_angle_beta 90.000000
_cell_angle_gamma 90.000000
_cell_volume 2344.959693
_symmetry_space_group_name_H-M "P B C A"
_symmetry_group_IT_number 61
_symmetry_cell_setting 'orthorhombic'
loop_
_space_group_symop_operation_xyz
x,y,z
1/2-x,-y,1/2+z
1/2+x,1/2-y,-z
-x,1/2+y,1/2-z
-x,-y,-z
1/2+x,y,1/2-z
1/2-x,1/2+y,z
x,1/2-y,1/2+z
loop_
_atom_site_type_symbol
_atom_site_label
_atom_site_fract_x
_atom_site_fract_y
_atom_site_fract_z
Si Si1 0.346953 0.748429 0.685099
Si Si2 0.506331 0.601002 0.141789
Si Si3 0.379499 0.879760 0.365450
Si Si4 0.339668 0.062112 0.881998
Si Si5 0.877521 0.238368 0.774723
Si Si6 0.668303 0.162916 0.014327
Si Si7 0.616851 0.771374 0.489522
O O1 0.396725 0.869858 0.664869
O O2 0.398258 0.685787 0.769525
O O3 0.236892 0.762323 0.715184
O O4 0.358383 0.668952 0.594132
O O5 0.540070 0.474294 0.121795
O O6 0.570242 0.656847 0.223979
O O7 0.535995 0.674078 0.052414
O O8 0.274386 0.939861 0.360645
O O9 0.362833 0.782380 0.441294
O O10 0.385333 0.126695 0.792582
O O11 0.368966 0.937717 0.919115
O O12 0.360838 0.146138 0.969144
O O13 0.907692 0.227626 0.881542
O O14 0.784504 0.159956 0.009778
#
# Coordination Sequence:
#
# PCOD9459701 Si02
#       7
#     8   8   8   8   8   8   8
#     4  10  24  42  64 102 133 176 233 277 345 414
#     4  11  22  43  65  95 137 175 225 286 336 400
#     4  10  22  41  64  97 140 174 228 289 338 418
#     4   9  18  37  67  95 131 177 218 287 336 399
#     4   9  21  42  67 101 131 178 228 271 352 410
#     4  10  20  41  64  98 130 173 231 276 342 411
#     4   9  19  38  63  95 126 172 222 271 338 405
#
# _framework density 23.881007
#
# number of rings (size 3 to 8) (size 9 to 14) (size 15 to 20)
#    0.000    2.286    1.429    0.857    2.000    1.714 
#    7.714    2.857    0.000    0.000    0.000    0.000 
#    0.000    0.000    0.000    0.000    0.000    0.000 
#
# Total GULP energy -313373.104522 kJ/mol
# GULP energy per Si atom -5595.948295 kJ/mol
# Density = 2.382665 g / cm^3
# Si number density = 23.881007 Si / 1000 Ang^3
#
#
#
# Elastic Constant Matrix: (Units=GPa)
#
#
# Indices 1 2 3 4 5 6 
#
# 1 68.4415 14.8932 37.5028 0.0000 0.0000 0.0000
# 2 14.8932 64.0620 16.6694 0.0000 0.0000 0.0000
# 3 37.5028 16.6694 135.5014 0.0000 0.0000 0.0000
# 4 0.0000 0.0000 0.0000 18.9274 0.0000 0.0000
# 5 0.0000 0.0000 0.0000 0.0000 27.0521 0.0000
# 6 0.0000 0.0000 0.0000 0.0000 0.0000 28.2427
#
#
#
# Elastic Compliance Matrix: (Units=1/GPa)
#
#
# Indices 1 2 3 4 5 6 
#
# 1 0.017744 -0.002941 -0.004549 0.000000 0.000000 0.000000
# 2 -0.002941 0.016614 -0.001230 0.000000 0.000000 0.000000
# 3 -0.004549 -0.001230 0.008790 0.000000 0.000000 0.000000
# 4 0.000000 0.000000 0.000000 0.052834 0.000000 0.000000
# 5 0.000000 0.000000 0.000000 0.000000 0.036966 0.000000
# 6 0.000000 0.000000 0.000000 0.000000 0.000000 0.035407
#
#
# Mechanical properties :
#
#
# Convention : Reuss Voigt Hill
#
# Bulk Modulus (GPa) = 38.89938 45.12619 42.01278
# Shear Modulus (GPa) = 25.72493 28.10707 26.91600
#
# Velocity S-wave (km/s) = 3.28565 3.43441 3.36086
# Velocity P-wave (km/s) = 5.54240 5.88763 5.71762
#
# Compressibility (1/GPa) = 0.02570735
#
# Stress axis : x y z
#
# Youngs Moduli (GPa) = 56.35772 60.19141 113.76121
#
# Poissons Ratio (x) = 0.17705 0.51751
# Poissons Ratio (y) = 0.16577 0.13989
# Poissons Ratio (z) = 0.25638 0.07402
#
# Static dielectric constant tensor:
#      x y z
#    x 1.977320 0.000000 0.000000 
#    y 0.000000 1.874500 0.000000 
#    z 0.000000 0.000000 1.906030 
# 
# From -- ./inp_files/7862.got.cif
#   From: 2010.05.17/outbox.cif.g08.bks.cpg/sg61_4_cif.got.tgz:7862.got - 2010.06.03 15:17:17.
