data_PCOD9459631
_publ_section_title
;
Structure prediction by ZEFSAII (Michael W. Deem and Ramdas Pophale) SiO2 
 PCOD9459631
Probable space group: P B C A
;
_chemical_formula_sum "Si O2"
_cell_formula_units_Z 48
_cell_length_a 13.896573
_cell_length_b 13.981551
_cell_length_c 13.438890
_cell_angle_alpha 90.000000
_cell_angle_beta 90.000000
_cell_angle_gamma 90.000000
_cell_volume 2611.117789
_symmetry_space_group_name_H-M "P B C A"
_symmetry_group_IT_number 61
_symmetry_cell_setting 'orthorhombic'
loop_
_space_group_symop_operation_xyz
x,y,z
1/2-x,-y,1/2+z
1/2+x,1/2-y,-z
-x,1/2+y,1/2-z
-x,-y,-z
1/2+x,y,1/2-z
1/2-x,1/2+y,z
x,1/2-y,1/2+z
loop_
_atom_site_type_symbol
_atom_site_label
_atom_site_fract_x
_atom_site_fract_y
_atom_site_fract_z
Si Si1 0.278446 0.685918 0.565002
Si Si2 0.073141 0.135954 0.731069
Si Si3 0.543777 0.566002 0.358541
Si Si4 0.152699 0.492776 0.947285
Si Si5 0.766678 0.675491 0.614624
Si Si6 0.623588 0.763705 0.274267
O O1 0.371343 0.682792 0.637276
O O2 0.285164 0.590181 0.499043
O O3 0.278947 0.776337 0.492197
O O4 0.185662 0.690864 0.635971
O O5 0.133138 0.163724 0.828280
O O6 0.964878 0.171129 0.740552
O O7 0.073582 0.023105 0.710109
O O8 0.429647 0.556950 0.380011
O O9 0.595882 0.548782 0.464707
O O10 0.579268 0.663952 0.310855
O O11 0.216168 0.571920 0.892448
O O12 0.697526 0.741844 0.682316
#
# Coordination Sequence:
#
# PCOD9459631 Si02
#       6
#     8   8   8   8   8   8
#     4  10  23  40  61  91 118 160 204 254 303 371
#     4  10  23  40  59  93 123 158 208 253 307 368
#     4  10  20  39  64  85 122 164 200 255 305 366
#     4  10  20  39  65  86 119 163 203 248 313 361
#     4  11  22  39  64  89 125 162 204 254 308 363
#     4  11  22  41  60  91 125 158 208 252 304 365
#
# _framework density 18.382932
#
# number of rings (size 3 to 8) (size 9 to 14) (size 15 to 20)
#    0.000    1.667    3.333    1.000    2.333    1.333 
#    3.000    0.833    0.000    0.000    0.000    0.000 
#    0.000    0.000    0.000    0.000    0.000    0.000 
#
# Total GULP energy -268009.846053 kJ/mol
# GULP energy per Si atom -5583.538459 kJ/mol
# Density = 1.834109 g / cm^3
# Si number density = 18.382932 Si / 1000 Ang^3
#
#
#
# Elastic Constant Matrix: (Units=GPa)
#
#
# Indices 1 2 3 4 5 6 
#
# 1 67.1021 34.7466 30.3406 0.0000 0.0000 0.0000
# 2 34.7466 64.3016 26.7181 0.0000 0.0000 0.0000
# 3 30.3406 26.7181 60.7902 0.0000 0.0000 0.0000
# 4 0.0000 0.0000 0.0000 30.9504 0.0000 0.0000
# 5 0.0000 0.0000 0.0000 0.0000 15.4954 0.0000
# 6 0.0000 0.0000 0.0000 0.0000 0.0000 25.7126
#
#
#
# Elastic Compliance Matrix: (Units=1/GPa)
#
#
# Indices 1 2 3 4 5 6 
#
# 1 0.023129 -0.009422 -0.007402 0.000000 0.000000 0.000000
# 2 -0.009422 0.022865 -0.005347 0.000000 0.000000 0.000000
# 3 -0.007402 -0.005347 0.022495 0.000000 0.000000 0.000000
# 4 0.000000 0.000000 0.000000 0.032310 0.000000 0.000000
# 5 0.000000 0.000000 0.000000 0.000000 0.064535 0.000000
# 6 0.000000 0.000000 0.000000 0.000000 0.000000 0.038891
#
#
# Mechanical properties :
#
#
# Convention : Reuss Voigt Hill
#
# Bulk Modulus (GPa) = 41.41588 41.75604 41.58596
# Shear Modulus (GPa) = 19.48440 21.12427 20.30434
#
# Velocity S-wave (km/s) = 3.25917 3.39355 3.32704
# Velocity P-wave (km/s) = 6.06147 6.17404 6.11801
#
# Compressibility (1/GPa) = 0.02414533
#
# Stress axis : x y z
#
# Youngs Moduli (GPa) = 43.23631 43.73538 44.45525
#
# Poissons Ratio (x) = 0.41208 0.32908
# Poissons Ratio (y) = 0.40738 0.23769
# Poissons Ratio (z) = 0.32005 0.23384
#
# Static dielectric constant tensor:
#      x y z
#    x 1.615250 0.000000 0.000000 
#    y 0.000000 1.606570 0.000000 
#    z 0.000000 0.000000 1.628610 
# 
# From -- ./inp_files/5727.got.cif
#   From: 2010.05.17/outbox.cif.g08.bks.cpg/sg61_3_cif.got.tgz:5727.got - 2010.06.03 15:17:17.
