data_PCOD9459229
_publ_section_title
;
Structure prediction by ZEFSAII (Michael W. Deem and Ramdas Pophale) SiO2 
 PCOD9459229
Probable space group: P B C A
;
_chemical_formula_sum "Si O2"
_cell_formula_units_Z 64
_cell_length_a 15.628848
_cell_length_b 19.614674
_cell_length_c 8.222658
_cell_angle_alpha 90.000000
_cell_angle_beta 90.000000
_cell_angle_gamma 90.000000
_cell_volume 2520.694938
_symmetry_space_group_name_H-M "P B C A"
_symmetry_group_IT_number 61
_symmetry_cell_setting 'orthorhombic'
loop_
_space_group_symop_operation_xyz
x,y,z
1/2-x,-y,1/2+z
1/2+x,1/2-y,-z
-x,1/2+y,1/2-z
-x,-y,-z
1/2+x,y,1/2-z
1/2-x,1/2+y,z
x,1/2-y,1/2+z
loop_
_atom_site_type_symbol
_atom_site_label
_atom_site_fract_x
_atom_site_fract_y
_atom_site_fract_z
Si Si1 0.110697 0.150294 0.347153
Si Si2 0.650413 0.101536 0.634217
Si Si3 0.560248 0.223490 0.477267
Si Si4 0.309509 0.345420 0.847255
Si Si5 0.370411 0.523410 0.541618
Si Si6 0.879905 0.274313 0.350261
Si Si7 0.356722 0.396945 0.356560
Si Si8 0.338313 0.028265 0.530530
O O1 0.097136 0.200692 0.501666
O O2 0.210826 0.148087 0.300259
O O3 0.091725 0.073802 0.404466
O O4 0.063678 0.188143 0.198908
O O5 0.614405 0.174675 0.595374
O O6 0.753352 0.107279 0.637137
O O7 0.628716 0.047359 0.493636
O O8 0.613190 0.062397 0.790607
O O9 0.465894 0.222910 0.548663
O O10 0.353617 0.299572 0.711644
O O11 0.352338 0.418446 0.883206
O O12 0.312124 0.307523 0.023894
O O13 0.390817 0.444783 0.500899
O O14 0.265654 0.525162 0.535841
O O15 0.888287 0.321977 0.189683
O O16 0.374614 0.439513 0.192657
#
# Coordination Sequence:
#
# PCOD9459229 Si02
#       8
#     8   8   8   8   8   8   8   8
#     4  11  22  39  61  85 112 152 197 237 283 343
#     4  10  19  35  59  88 116 149 193 238 282 339
#     4  12  24  38  57  86 120 153 188 239 295 343
#     4  10  21  39  61  84 112 152 198 238 281 344
#     4   9  18  33  58  86 112 145 195 243 278 329
#     4  11  23  39  57  86 120 153 190 239 294 344
#     4   9  18  36  58  82 114 153 192 235 283 339
#     4   8  17  33  56  85 112 143 192 241 282 331
#
# _framework density 25.389823
#
# number of rings (size 3 to 8) (size 9 to 14) (size 15 to 20)
#    0.000    2.000    0.000    4.500    0.000    4.000 
#    0.000    7.500    0.000    0.000    0.000    0.000 
#    0.000    0.000    0.000    0.000    0.000    0.000 
#
# Total GULP energy -358219.620773 kJ/mol
# GULP energy per Si atom -5597.181575 kJ/mol
# Density = 2.533203 g / cm^3
# Si number density = 25.389823 Si / 1000 Ang^3
#
#
#
# Elastic Constant Matrix: (Units=GPa)
#
#
# Indices 1 2 3 4 5 6 
#
# 1 49.6460 17.7485 10.5023 0.0000 0.0000 0.0000
# 2 17.7485 91.1760 -1.3715 0.0000 0.0000 0.0000
# 3 10.5023 -1.3715 76.7992 0.0000 0.0000 0.0000
# 4 0.0000 0.0000 0.0000 100.6806 0.0000 0.0000
# 5 0.0000 0.0000 0.0000 0.0000 27.1187 0.0000
# 6 0.0000 0.0000 0.0000 0.0000 0.0000 786.2795
#
#
#
# Elastic Compliance Matrix: (Units=1/GPa)
#
#
# Indices 1 2 3 4 5 6 
#
# 1 0.022381 -0.004404 -0.003139 0.000000 0.000000 0.000000
# 2 -0.004404 0.011837 0.000814 0.000000 0.000000 0.000000
# 3 -0.003139 0.000814 0.013465 0.000000 0.000000 0.000000
# 4 0.000000 0.000000 0.000000 0.009932 0.000000 0.000000
# 5 0.000000 0.000000 0.000000 0.000000 0.036875 0.000000
# 6 0.000000 0.000000 0.000000 0.000000 0.000000 0.001272
#
#
# Mechanical properties :
#
#
# Convention : Reuss Voigt Hill
#
# Bulk Modulus (GPa) = 29.21920 30.15328 29.68624
# Shear Modulus (GPa) = 41.44920 195.53189 118.49054
#
# Velocity S-wave (km/s) = 4.04482 8.78516 6.83885
# Velocity P-wave (km/s) = 5.77471 10.71482 8.60682
#
# Compressibility (1/GPa) = 0.03422407
#
# Stress axis : x y z
#
# Youngs Moduli (GPa) = 44.68049 84.47851 74.26774
#
# Poissons Ratio (x) = 0.37204 0.23315
# Poissons Ratio (y) = 0.19677 -0.06043
# Poissons Ratio (z) = 0.14026 -0.06874
#
# Static dielectric constant tensor:
#      x y z
#    x 1.985850 0.000000 0.000000 
#    y 0.000000 1.975080 0.000000 
#    z 0.000000 0.000000 2.078100 
# 
# From -- ./inp_files/3730.got.cif
#   From: 2010.05.17/outbox.cif.g08.bks.cpg/sg61_2_cif.got.tgz:3730.got - 2010.06.03 15:17:17.
