data_PCOD9459702
_publ_section_title
;
Structure prediction by ZEFSAII (Michael W. Deem and Ramdas Pophale) SiO2 
 PCOD9459702
Probable space group: P B C A
;
_chemical_formula_sum "Si O2"
_cell_formula_units_Z 64
_cell_length_a 21.162454
_cell_length_b 16.138649
_cell_length_c 7.264038
_cell_angle_alpha 90.000000
_cell_angle_beta 90.000000
_cell_angle_gamma 90.000000
_cell_volume 2480.911720
_symmetry_space_group_name_H-M "P B C A"
_symmetry_group_IT_number 61
_symmetry_cell_setting 'orthorhombic'
loop_
_space_group_symop_operation_xyz
x,y,z
1/2-x,-y,1/2+z
1/2+x,1/2-y,-z
-x,1/2+y,1/2-z
-x,-y,-z
1/2+x,y,1/2-z
1/2-x,1/2+y,z
x,1/2-y,1/2+z
loop_
_atom_site_type_symbol
_atom_site_label
_atom_site_fract_x
_atom_site_fract_y
_atom_site_fract_z
Si Si1 0.737520 0.981769 0.443474
Si Si2 0.211603 0.154923 0.936186
Si Si3 0.056413 0.647948 0.739135
Si Si4 0.585371 0.662252 0.186087
Si Si5 0.228452 0.819608 0.814701
Si Si6 0.955668 0.866664 0.687381
Si Si7 0.139181 0.508740 0.895497
Si Si8 0.428353 0.680004 0.896079
O O1 0.737334 0.888030 0.524322
O O2 0.812312 0.003634 0.435505
O O3 0.719188 0.056770 0.585587
O O4 0.684783 0.992256 0.286234
O O5 0.262136 0.223359 0.868170
O O6 0.144832 0.176964 0.847238
O O7 0.220069 0.165020 0.156427
O O8 0.065150 0.741809 0.802708
O O9 0.081245 0.637986 0.528990
O O10 0.097448 0.589520 0.865577
O O11 0.980894 0.634043 0.726876
O O12 0.657295 0.663717 0.251448
O O13 0.530286 0.613924 0.294172
O O14 0.909635 0.933395 0.601465
O O15 0.947202 0.776557 0.597482
O O16 0.934302 0.856657 0.900002
#
# Coordination Sequence:
#
# PCOD9459702 Si02
#       8
#     8   8   8   8   8   8   8   8
#     4  12  25  43  64  97 138 170 231 281 342 411
#     4  12  25  41  67  97 138 176 223 278 343 408
#     4  10  22  39  70  89 135 165 228 269 338 392
#     4  10  21  40  65  98 123 180 218 277 325 413
#     4  12  25  41  66  98 133 178 223 275 345 401
#     4  10  22  42  67  90 137 164 233 274 335 395
#     4  12  24  46  62 100 129 185 214 296 332 409
#     4  10  20  41  64  99 122 179 216 274 326 410
#
# _framework density 25.796969000000001
#
# number of rings (size 3 to 8) (size 9 to 14) (size 15 to 20)
#    0.000    1.000    3.750    3.000    1.750    3.000 
#    2.250    0.000    0.000   12.750    0.000    0.000 
#    0.000    0.000    0.000    0.000    0.000    0.000 
#
# Total GULP energy -358024.981839 kJ/mol
# GULP energy per Si atom -5594.140341 kJ/mol
# Density = 2.573825 g / cm^3
# Si number density = 25.796969 Si / 1000 Ang^3
#
#
#
# Elastic Constant Matrix: (Units=GPa)
#
#
# Indices 1 2 3 4 5 6 
#
# 1 167.6486 41.6582 43.5764 0.0000 0.0000 0.0000
# 2 41.6582 82.1060 49.4569 0.0000 0.0000 0.0000
# 3 43.5764 49.4569 67.0632 0.0000 0.0000 0.0000
# 4 0.0000 0.0000 0.0000 36.7954 0.0000 0.0000
# 5 0.0000 0.0000 0.0000 0.0000 33.9140 0.0000
# 6 0.0000 0.0000 0.0000 0.0000 0.0000 45.6471
#
#
#
# Elastic Compliance Matrix: (Units=1/GPa)
#
#
# Indices 1 2 3 4 5 6 
#
# 1 0.007281 -0.001519 -0.003611 0.000000 0.000000 0.000000
# 2 -0.001519 0.022231 -0.015407 0.000000 0.000000 0.000000
# 3 -0.003611 -0.015407 0.028620 0.000000 0.000000 0.000000
# 4 0.000000 0.000000 0.000000 0.027177 0.000000 0.000000
# 5 0.000000 0.000000 0.000000 0.000000 0.029486 0.000000
# 6 0.000000 0.000000 0.000000 0.000000 0.000000 0.021907
#
#
# Mechanical properties :
#
#
# Convention : Reuss Voigt Hill
#
# Bulk Modulus (GPa) = 58.62631 65.13341 61.87986
# Shear Modulus (GPa) = 27.25353 35.41306 31.33330
#
# Velocity S-wave (km/s) = 3.25385 3.70910 3.48891
# Velocity P-wave (km/s) = 6.07389 6.60655 6.34581
#
# Compressibility (1/GPa) = 0.01705719
#
# Stress axis : x y z
#
# Youngs Moduli (GPa) = 137.34660 44.98242 34.94086
#
# Poissons Ratio (x) = 0.06834 0.12616
# Poissons Ratio (y) = 0.20867 0.53835
# Poissons Ratio (z) = 0.49590 0.69306
#
# Static dielectric constant tensor:
#      x y z
#    x 2.029800 0.000000 0.000000 
#    y 0.000000 2.000350 0.000000 
#    z 0.000000 0.000000 2.119220 
# 
# From -- ./inp_files/4047.got.cif
#   From: 2010.05.17/outbox.cif.g08.bks.cpg/sg61_3_cif.got.tgz:4047.got - 2010.06.03 15:17:17.
