data_PCOD9459065
_publ_section_title
;
Structure prediction by ZEFSAII (Michael W. Deem and Ramdas Pophale) SiO2 
 PCOD9459065
Probable space group: P B C A
;
_chemical_formula_sum "Si O2"
_cell_formula_units_Z 64
_cell_length_a 16.569873
_cell_length_b 29.391453
_cell_length_c 5.586108
_cell_angle_alpha 90.000000
_cell_angle_beta 90.000000
_cell_angle_gamma 90.000000
_cell_volume 2720.505224
_symmetry_space_group_name_H-M "P B C A"
_symmetry_group_IT_number 61
_symmetry_cell_setting 'orthorhombic'
loop_
_space_group_symop_operation_xyz
x,y,z
1/2-x,-y,1/2+z
1/2+x,1/2-y,-z
-x,1/2+y,1/2-z
-x,-y,-z
1/2+x,y,1/2-z
1/2-x,1/2+y,z
x,1/2-y,1/2+z
loop_
_atom_site_type_symbol
_atom_site_label
_atom_site_fract_x
_atom_site_fract_y
_atom_site_fract_z
Si Si1 0.280026 0.260799 0.235456
Si Si2 0.013912 0.633214 0.366307
Si Si3 0.574424 0.932377 0.005107
Si Si4 0.964346 0.227390 0.324286
Si Si5 0.643571 0.493235 0.808658
Si Si6 0.160044 0.640918 0.690930
Si Si7 0.764084 0.569785 0.999011
Si Si8 0.917268 0.572420 0.659827
O O1 0.238734 0.242885 0.475900
O O2 0.366406 0.234457 0.196830
O O3 0.300421 0.313414 0.278257
O O4 0.011248 0.674178 0.178673
O O5 0.075202 0.651738 0.566083
O O6 0.932842 0.615885 0.489360
O O7 0.052553 0.587061 0.253908
O O8 0.639792 0.896766 0.110244
O O9 0.492377 0.927956 0.158198
O O10 0.606903 0.982490 0.071917
O O11 0.992655 0.250020 0.573096
O O12 0.701272 0.530451 0.925556
O O13 0.694961 0.449246 0.735510
O O14 0.582287 0.473216 0.000332
O O15 0.216518 0.616620 0.495795
O O16 0.834354 0.574396 0.803330
#
# Coordination Sequence:
#
# PCOD9459065 Si02
#       8
#     8   8   8   8   8   8   8   8
#     4  10  18  34  60  95 128 163 211 267 325 386
#     4  11  22  37  63  96 129 161 212 271 336 385
#     4  10  23  38  63  91 128 157 212 267 326 385
#     4  10  19  34  62  96 132 168 209 265 326 398
#     4  11  23  42  63  87 118 175 214 265 319 393
#     4  10  22  36  60  97 123 164 209 269 322 392
#     4  11  24  40  62  85 127 167 222 260 324 388
#     4  11  24  41  59  91 123 167 213 272 325 388
#
# _framework density 23.525040000000001
#
# number of rings (size 3 to 8) (size 9 to 14) (size 15 to 20)
#    0.000    1.500    3.750    2.625    3.500    3.000 
#    0.000    0.000    0.000    1.500    0.000    0.000 
#    0.000    0.000    0.000    0.000    0.000    0.000 
#
# Total GULP energy -357705.833026 kJ/mol
# GULP energy per Si atom -5589.153641 kJ/mol
# Density = 2.347150 g / cm^3
# Si number density = 23.525040 Si / 1000 Ang^3
#
#
#
# Elastic Constant Matrix: (Units=GPa)
#
#
# Indices 1 2 3 4 5 6 
#
# 1 32.3658 32.5426 5.9790 0.0000 0.0000 0.0000
# 2 32.5426 78.5253 4.5252 0.0000 0.0000 0.0000
# 3 5.9790 4.5252 86.1149 0.0000 0.0000 0.0000
# 4 0.0000 0.0000 0.0000 30.3270 0.0000 0.0000
# 5 0.0000 0.0000 0.0000 0.0000 20.9539 0.0000
# 6 0.0000 0.0000 0.0000 0.0000 0.0000 11.1988
#
#
#
# Elastic Compliance Matrix: (Units=1/GPa)
#
#
# Indices 1 2 3 4 5 6 
#
# 1 0.053524 -0.022034 -0.002558 0.000000 0.000000 0.000000
# 2 -0.022034 0.021844 0.000382 0.000000 0.000000 0.000000
# 3 -0.002558 0.000382 0.011770 0.000000 0.000000 0.000000
# 4 0.000000 0.000000 0.000000 0.032974 0.000000 0.000000
# 5 0.000000 0.000000 0.000000 0.000000 0.047724 0.000000
# 6 0.000000 0.000000 0.000000 0.000000 0.000000 0.089295
#
#
# Mechanical properties :
#
#
# Convention : Reuss Voigt Hill
#
# Bulk Modulus (GPa) = 25.82840 31.45552 28.64196
# Shear Modulus (GPa) = 15.70069 22.75989 19.23029
#
# Velocity S-wave (km/s) = 2.58622 3.11380 2.86219
# Velocity P-wave (km/s) = 4.46329 5.13106 4.80878
#
# Compressibility (1/GPa) = 0.03871707
#
# Stress axis : x y z
#
# Youngs Moduli (GPa) = 18.68330 45.77891 84.96218
#
# Poissons Ratio (x) = 1.00869 0.21736
# Poissons Ratio (y) = 0.41167 -0.03245
# Poissons Ratio (z) = 0.04780 -0.01749
#
# Static dielectric constant tensor:
#      x y z
#    x 1.886660 0.000000 0.000000 
#    y 0.000000 1.883460 0.000000 
#    z 0.000000 0.000000 1.983270 
# 
# From -- ./inp_files/856.got.cif
#   From: 2010.05.17/outbox.cif.g08.bks.cpg/sg61_1_cif.got.tgz:856.got - 2010.06.03 15:17:17.
