data_PCOD9459748
_publ_section_title
;
Structure prediction by ZEFSAII (Michael W. Deem and Ramdas Pophale) SiO2 
 PCOD9459748
Probable space group: P B C A
;
_chemical_formula_sum "Si O2"
_cell_formula_units_Z 44
_cell_length_a 12.602586
_cell_length_b 7.418060
_cell_length_c 17.285508
_cell_angle_alpha 90.000000
_cell_angle_beta 90.000000
_cell_angle_gamma 90.000000
_cell_volume 1615.965777
_symmetry_space_group_name_H-M "P B C A"
_symmetry_group_IT_number 61
_symmetry_cell_setting 'orthorhombic'
loop_
_space_group_symop_operation_xyz
x,y,z
1/2-x,-y,1/2+z
1/2+x,1/2-y,-z
-x,1/2+y,1/2-z
-x,-y,-z
1/2+x,y,1/2-z
1/2-x,1/2+y,z
x,1/2-y,1/2+z
loop_
_atom_site_type_symbol
_atom_site_label
_atom_site_fract_x
_atom_site_fract_y
_atom_site_fract_z
Si Si1 0.094745 0.150607 0.083169
Si Si2 0.190637 0.576370 0.862541
Si Si3 0.362766 0.655760 0.739421
Si Si4 0.516081 0.866411 0.834272
Si Si5 0.000000 0.500000 0.000000
Si Si6 0.861611 0.378626 0.541393
O O1 0.135427 0.204855 0.167590
O O2 0.082029 0.339538 0.037288
O O3 0.974157 0.075228 0.079935
O O4 0.155100 0.995037 0.035310
O O5 0.261439 0.661710 0.794779
O O6 0.083779 0.503924 0.825898
O O7 0.141546 0.663528 0.942969
O O8 0.268966 0.431814 0.899850
O O9 0.466450 0.697370 0.791650
O O10 0.383029 0.457233 0.704865
O O11 0.525903 0.861265 0.925887
#
# Coordination Sequence:
#
# PCOD9459748 Si02
#       6
#     8   8   8   8   4   8
#     4  10  23  44  71 104 137 188 241 294 359 425
#     4  12  23  44  68  98 145 186 235 294 354 424
#     4  11  23  42  69 100 142 181 231 291 356 408
#     4  11  24  43  68 104 137 186 234 289 357 424
#     4  10  20  42  72  98 134 180 240 292 356 424
#     4  11  23  43  69  98 140 185 238 291 351 424
#
# _framework density 27.228297999999999
#
# number of rings (size 3 to 8) (size 9 to 14) (size 15 to 20)
#    0.000    1.091    5.455    2.182    0.000    1.455 
#    3.273    0.000    0.000    0.000    0.000    0.000 
#    0.000    0.000    0.000    0.000    0.000    0.000 
#
# Total GULP energy -245090.849355 kJ/mol
# GULP energy per Si atom -5570.246576 kJ/mol
# Density = 2.716633 g / cm^3
# Si number density = 27.228298 Si / 1000 Ang^3
#
#
#
# Elastic Constant Matrix: (Units=GPa)
#
#
# Indices 1 2 3 4 5 6 
#
# 1 92.0033 -16.3694 26.5978 0.0000 0.0000 0.0000
# 2 -16.3694 33.8334 12.3785 0.0000 0.0000 0.0000
# 3 26.5978 12.3785 152.1782 0.0000 0.0000 0.0000
# 4 0.0000 0.0000 0.0000 35.7084 0.0000 0.0000
# 5 0.0000 0.0000 0.0000 0.0000 163.7529 0.0000
# 6 0.0000 0.0000 0.0000 0.0000 0.0000 38.3161
#
#
#
# Elastic Compliance Matrix: (Units=1/GPa)
#
#
# Indices 1 2 3 4 5 6 
#
# 1 0.013005 0.007342 -0.002870 0.000000 0.000000 0.000000
# 2 0.007342 0.034608 -0.004098 0.000000 0.000000 0.000000
# 3 -0.002870 -0.004098 0.007406 0.000000 0.000000 0.000000
# 4 0.000000 0.000000 0.000000 0.028005 0.000000 0.000000
# 5 0.000000 0.000000 0.000000 0.000000 0.006107 0.000000
# 6 0.000000 0.000000 0.000000 0.000000 0.000000 0.026099
#
#
# Mechanical properties :
#
#
# Convention : Reuss Voigt Hill
#
# Bulk Modulus (GPa) = 17.93160 35.91432 26.92296
# Shear Modulus (GPa) = 37.57363 64.58268 51.07816
#
# Velocity S-wave (km/s) = 3.71879 4.87549 4.33589
# Velocity P-wave (km/s) = 5.00392 6.70169 5.91404
#
# Compressibility (1/GPa) = 0.05576746
#
# Stress axis : x y z
#
# Youngs Moduli (GPa) = 76.89135 28.89465 135.02019
#
# Poissons Ratio (x) = -0.21216 0.38755
# Poissons Ratio (y) = -0.56457 0.55337
# Poissons Ratio (z) = 0.22070 0.11842
#
# Static dielectric constant tensor:
#      x y z
#    x 2.003140 0.000000 0.000000 
#    y 0.000000 2.279450 0.000000 
#    z 0.000000 0.000000 2.058990 
# 
# From -- ./inp_files/3385.got.cif
#   From: 2010.05.17/outbox.cif.g08.bks.cpg/sg61_2_cif.got.tgz:3385.got - 2010.06.03 15:17:17.
