data_PCOD9459379
_publ_section_title
;
Structure prediction by ZEFSAII (Michael W. Deem and Ramdas Pophale) SiO2 
 PCOD9459379
Probable space group: P B C A
;
_chemical_formula_sum "Si O2"
_cell_formula_units_Z 64
_cell_length_a 15.145639
_cell_length_b 8.694623
_cell_length_c 23.540229
_cell_angle_alpha 90.000000
_cell_angle_beta 90.000000
_cell_angle_gamma 90.000000
_cell_volume 3099.909679
_symmetry_space_group_name_H-M "P B C A"
_symmetry_group_IT_number 61
_symmetry_cell_setting 'orthorhombic'
loop_
_space_group_symop_operation_xyz
x,y,z
1/2-x,-y,1/2+z
1/2+x,1/2-y,-z
-x,1/2+y,1/2-z
-x,-y,-z
1/2+x,y,1/2-z
1/2-x,1/2+y,z
x,1/2-y,1/2+z
loop_
_atom_site_type_symbol
_atom_site_label
_atom_site_fract_x
_atom_site_fract_y
_atom_site_fract_z
Si Si1 0.630713 0.907869 0.279534
Si Si2 0.841731 0.593242 0.176997
Si Si3 0.064589 0.451541 0.428663
Si Si4 0.789354 0.130132 0.477085
Si Si5 0.629819 0.569341 0.954720
Si Si6 0.570969 0.095354 0.695822
Si Si7 0.159614 0.346295 0.952839
Si Si8 0.204285 0.909505 0.732645
O O1 0.531591 0.944243 0.297339
O O2 0.656748 0.735018 0.294445
O O3 0.633527 0.939059 0.211071
O O4 0.712621 0.014372 0.299852
O O5 0.915087 0.721606 0.191314
O O6 0.827132 0.588938 0.110329
O O7 0.753889 0.647952 0.209887
O O8 0.108710 0.553064 0.477499
O O9 0.103211 0.465857 0.365755
O O10 0.078895 0.274257 0.448944
O O11 0.960617 0.481672 0.426275
O O12 0.844732 0.255162 0.442735
O O13 0.737801 0.234722 0.524205
O O14 0.711362 0.043392 0.443535
O O15 0.844545 0.992392 0.505689
O O16 0.631598 0.030640 0.746092
#
# Coordination Sequence:
#
# PCOD9459379 Si02
#       8
#     8   8   8   8   8   8   8   8
#     4  10  21  33  53  75 105 137 171 210 263 310
#     4   9  19  32  49  77 103 130 167 212 262 299
#     4   9  20  34  51  72 105 131 164 213 257 303
#     4   9  18  29  52  76 100 130 166 202 249 314
#     4   9  18  35  51  75 100 133 166 206 258 300
#     4  11  20  36  53  77 103 139 175 217 262 302
#     4   9  18  27  49  78 101 125 162 205 252 301
#     4  10  20  34  52  76 104 138 171 216 258 311
#
# _framework density 20.645762999999999
#
# number of rings (size 3 to 8) (size 9 to 14) (size 15 to 20)
#    0.750    1.750    1.250    0.750    8.750    0.500 
#    0.000    1.250    0.000    0.000    0.000    0.000 
#    0.000    0.000    0.000    0.000    0.000    0.000 
#
# Total GULP energy -356296.295805 kJ/mol
# GULP energy per Si atom -5567.129622 kJ/mol
# Density = 2.059877 g / cm^3
# Si number density = 20.645763 Si / 1000 Ang^3
#
#
#
# Elastic Constant Matrix: (Units=GPa)
#
#
# Indices 1 2 3 4 5 6 
#
# 1 86.8362 19.7701 7.6658 0.0000 0.0000 0.0000
# 2 19.7701 76.7231 13.9550 0.0000 0.0000 0.0000
# 3 7.6658 13.9550 15.4219 0.0000 0.0000 0.0000
# 4 0.0000 0.0000 0.0000 -0.4694 0.0000 0.0000
# 5 0.0000 0.0000 0.0000 0.0000 7.1157 0.0000
# 6 0.0000 0.0000 0.0000 0.0000 0.0000 21.1654
#
#
#
# Elastic Compliance Matrix: (Units=1/GPa)
#
#
# Indices 1 2 3 4 5 6 
#
# 1 0.012429 -0.002489 -0.003926 0.000000 0.000000 0.000000
# 2 -0.002489 0.016100 -0.013332 0.000000 0.000000 0.000000
# 3 -0.003926 -0.013332 0.078858 0.000000 0.000000 0.000000
# 4 0.000000 0.000000 0.000000 -2.130221 0.000000 0.000000
# 5 0.000000 0.000000 0.000000 0.000000 0.140535 0.000000
# 6 0.000000 0.000000 0.000000 0.000000 0.000000 0.047247
#
#
# Mechanical properties :
#
#
# Convention : Reuss Voigt Hill
#
# Bulk Modulus (GPa) = 14.72882 29.08476 21.90679
# Shear Modulus (GPa) = -2.82019 14.73501 5.95741
#
# Velocity S-wave (km/s) = -1.17002 2.67443 1.70053
# Velocity P-wave (km/s) = 2.30744 4.86363 3.80652
#
# Compressibility (1/GPa) = 0.06789412
#
# Stress axis : x y z
#
# Youngs Moduli (GPa) = 80.45617 62.11174 12.68105
#
# Poissons Ratio (x) = 0.15457 0.04979
# Poissons Ratio (y) = 0.20022 0.16906
# Poissons Ratio (z) = 0.31589 0.82805
#
# Static dielectric constant tensor:
#      x y z
#    x 1.760680 0.000000 0.000000 
#    y 0.000000 1.740840 0.000000 
#    z 0.000000 0.000000 1.748690 
# 
# From -- ./inp_files/11831.got.cif
#   From: 2010.05.17/outbox.cif.g08.bks.cpg/sg61_6_cif.got.tgz:11831.got - 2010.06.03 15:17:17.
