data_PCOD9459448
_publ_section_title
;
Structure prediction by ZEFSAII (Michael W. Deem and Ramdas Pophale) SiO2 
 PCOD9459448
Probable space group: P B C A
;
_chemical_formula_sum "Si O2"
_cell_formula_units_Z 64
_cell_length_a 27.029441
_cell_length_b 5.140839
_cell_length_c 20.618901
_cell_angle_alpha 90.000000
_cell_angle_beta 90.000000
_cell_angle_gamma 90.000000
_cell_volume 2865.078861
_symmetry_space_group_name_H-M "P B C A"
_symmetry_group_IT_number 61
_symmetry_cell_setting 'orthorhombic'
loop_
_space_group_symop_operation_xyz
x,y,z
1/2-x,-y,1/2+z
1/2+x,1/2-y,-z
-x,1/2+y,1/2-z
-x,-y,-z
1/2+x,y,1/2-z
1/2-x,1/2+y,z
x,1/2-y,1/2+z
loop_
_atom_site_type_symbol
_atom_site_label
_atom_site_fract_x
_atom_site_fract_y
_atom_site_fract_z
Si Si1 0.106866 0.268265 0.910358
Si Si2 0.874993 0.540402 0.891603
Si Si3 0.466032 0.069422 0.835103
Si Si4 0.782344 0.725208 0.593143
Si Si5 0.219977 0.313621 0.562825
Si Si6 0.464695 0.925493 0.596408
Si Si7 0.063548 0.691223 0.211550
Si Si8 0.589704 0.772591 0.500765
O O1 0.062365 0.314366 0.859715
O O2 0.162123 0.270886 0.881147
O O3 0.097158 0.517881 0.955978
O O4 0.103581 0.012762 0.953966
O O5 0.827550 0.715469 0.899081
O O6 0.922350 0.710150 0.914856
O O7 0.889269 0.445541 0.820220
O O8 0.873835 0.293868 0.940229
O O9 0.515836 0.994614 0.796410
O O10 0.485695 0.261032 0.891715
O O11 0.431393 0.217423 0.784596
O O12 0.755279 0.456861 0.610061
O O13 0.789198 0.718981 0.514515
O O14 0.262807 0.103600 0.577373
O O15 0.450361 0.072835 0.662816
O O16 0.459755 0.139394 0.539215
#
# Coordination Sequence:
#
# PCOD9459448 Si02
#       8
#     8   8   8   8   8   8   8   8
#     4  12  25  38  64  92 131 160 206 253 304 384
#     4  10  21  39  63  87 126 167 195 259 311 359
#     4  11  24  41  63  92 118 163 217 259 301 366
#     4  10  20  36  57  86 123 164 197 241 300 367
#     4  10  21  32  59  91 122 157 203 247 299 367
#     4  10  21  40  64  85 125 168 199 257 305 372
#     4  10  22  41  63  85 121 160 217 257 306 360
#     4  11  22  39  58  93 131 160 194 241 317 373
#
# _framework density 22.337952999999999
#
# number of rings (size 3 to 8) (size 9 to 14) (size 15 to 20)
#    0.000    1.500    3.750    0.750    8.750    1.000 
#    0.000    0.000    0.000    1.500    0.000    0.000 
#    0.000    0.000    0.000    0.000    0.000    0.000 
#
# Total GULP energy -357722.079898 kJ/mol
# GULP energy per Si atom -5589.407498 kJ/mol
# Density = 2.228711 g / cm^3
# Si number density = 22.337953 Si / 1000 Ang^3
#
#
#
# Elastic Constant Matrix: (Units=GPa)
#
#
# Indices 1 2 3 4 5 6 
#
# 1 72.2817 -0.1982 4.9251 0.0000 0.0000 0.0000
# 2 -0.1982 101.7365 7.3270 0.0000 0.0000 0.0000
# 3 4.9251 7.3270 25.9340 0.0000 0.0000 0.0000
# 4 0.0000 0.0000 0.0000 23.3457 0.0000 0.0000
# 5 0.0000 0.0000 0.0000 0.0000 14.7850 0.0000
# 6 0.0000 0.0000 0.0000 0.0000 0.0000 29.7636
#
#
#
# Elastic Compliance Matrix: (Units=1/GPa)
#
#
# Indices 1 2 3 4 5 6 
#
# 1 0.014021 0.000224 -0.002726 0.000000 0.000000 0.000000
# 2 0.000224 0.010037 -0.002878 0.000000 0.000000 0.000000
# 3 -0.002726 -0.002878 0.039890 0.000000 0.000000 0.000000
# 4 0.000000 0.000000 0.000000 0.042834 0.000000 0.000000
# 5 0.000000 0.000000 0.000000 0.000000 0.067636 0.000000
# 6 0.000000 0.000000 0.000000 0.000000 0.000000 0.033598
#
#
# Mechanical properties :
#
#
# Convention : Reuss Voigt Hill
#
# Bulk Modulus (GPa) = 18.80144 24.89556 21.84850
# Shear Modulus (GPa) = 21.14103 26.10543 23.62323
#
# Velocity S-wave (km/s) = 3.07973 3.42227 3.25551
# Velocity P-wave (km/s) = 4.59145 5.17543 4.89216
#
# Compressibility (1/GPa) = 0.05318742
#
# Stress axis : x y z
#
# Youngs Moduli (GPa) = 71.32102 99.63103 25.06881
#
# Poissons Ratio (x) = -0.02228 0.06834
# Poissons Ratio (y) = -0.01595 0.07215
# Poissons Ratio (z) = 0.19441 0.28676
#
# Static dielectric constant tensor:
#      x y z
#    x 1.857200 0.000000 0.000000 
#    y 0.000000 1.880490 0.000000 
#    z 0.000000 0.000000 1.844460 
# 
# From -- ./inp_files/11186.got.cif
#   From: 2010.05.17/outbox.cif.g08.bks.cpg/sg61_6_cif.got.tgz:11186.got - 2010.06.03 15:17:17.
