data_PCOD9459069
_publ_section_title
;
Structure prediction by ZEFSAII (Michael W. Deem and Ramdas Pophale) SiO2 
 PCOD9459069
Probable space group: P B C A
;
_chemical_formula_sum "Si O2"
_cell_formula_units_Z 52
_cell_length_a 13.072232
_cell_length_b 9.180019
_cell_length_c 15.394218
_cell_angle_alpha 90.000000
_cell_angle_beta 90.000000
_cell_angle_gamma 90.000000
_cell_volume 1847.357548
_symmetry_space_group_name_H-M "P B C A"
_symmetry_group_IT_number 61
_symmetry_cell_setting 'orthorhombic'
loop_
_space_group_symop_operation_xyz
x,y,z
1/2-x,-y,1/2+z
1/2+x,1/2-y,-z
-x,1/2+y,1/2-z
-x,-y,-z
1/2+x,y,1/2-z
1/2-x,1/2+y,z
x,1/2-y,1/2+z
loop_
_atom_site_type_symbol
_atom_site_label
_atom_site_fract_x
_atom_site_fract_y
_atom_site_fract_z
Si Si1 0.241611 0.069847 0.171410
Si Si2 0.255430 0.840549 0.481850
Si Si3 0.927398 0.154732 0.835540
Si Si4 0.271100 0.406377 0.863483
Si Si5 0.580158 0.235340 0.901634
Si Si6 0.470024 0.533516 0.329630
Si Si7 0.500000 0.000000 0.500000
O O1 0.300284 0.078458 0.262573
O O2 0.151977 0.194525 0.174536
O O3 0.189228 0.909699 0.167409
O O4 0.287599 0.100919 0.074311
O O5 0.203556 0.749755 0.405316
O O6 0.341047 0.730861 0.517927
O O7 0.312223 0.974018 0.432815
O O8 0.969100 0.316571 0.822118
O O9 0.974070 0.057708 0.759398
O O10 0.959126 0.120467 0.932248
O O11 0.147844 0.435970 0.857134
O O12 0.523858 0.084746 0.891585
O O13 0.511310 0.373042 0.923822
#
# Coordination Sequence:
#
# PCOD9459069 Si02
#       7
#     8   8   8   8   8   8   4
#     4   8  21  45  65 102 140 178 244 296 358 442
#     4  10  24  44  64  99 139 187 241 291 355 450
#     4  10  20  36  65 103 142 179 228 303 369 430
#     4  11  23  43  69  94 141 193 236 292 370 434
#     4   9  21  41  63 101 138 174 233 309 351 433
#     4  11  22  41  71 105 140 185 242 299 373 441
#     4  10  18  34  62  96 134 174 220 294 358 408
#
# _framework density 28.148313999999999
#
# number of rings (size 3 to 8) (size 9 to 14) (size 15 to 20)
#    0.923    1.231    0.000    3.692    0.000    4.923 
#    2.769    6.154    0.000    0.000    0.000    0.000 
#    0.000    0.000    0.000    0.000    0.000    0.000 
#
# Total GULP energy -289882.773183 kJ/mol
# GULP energy per Si atom -5574.668715 kJ/mol
# Density = 2.808425 g / cm^3
# Si number density = 28.148314 Si / 1000 Ang^3
#
#
#
# Elastic Constant Matrix: (Units=GPa)
#
#
# Indices 1 2 3 4 5 6 
#
# 1 93.1901 49.1738 23.7876 0.0000 0.0000 0.0000
# 2 49.1738 212.7340 59.4536 0.0000 0.0000 0.0000
# 3 23.7876 59.4536 196.3228 0.0000 0.0000 0.0000
# 4 0.0000 0.0000 0.0000 32.3950 0.0000 0.0000
# 5 0.0000 0.0000 0.0000 0.0000 6.5505 0.0000
# 6 0.0000 0.0000 0.0000 0.0000 0.0000 41.9008
#
#
#
# Elastic Compliance Matrix: (Units=1/GPa)
#
#
# Indices 1 2 3 4 5 6 
#
# 1 0.012306 -0.002652 -0.000688 0.000000 0.000000 0.000000
# 2 -0.002652 0.005707 -0.001407 0.000000 0.000000 0.000000
# 3 -0.000688 -0.001407 0.005603 0.000000 0.000000 0.000000
# 4 0.000000 0.000000 0.000000 0.030869 0.000000 0.000000
# 5 0.000000 0.000000 0.000000 0.000000 0.152659 0.000000
# 6 0.000000 0.000000 0.000000 0.000000 0.000000 0.023866
#
#
# Mechanical properties :
#
#
# Convention : Reuss Voigt Hill
#
# Bulk Modulus (GPa) = 70.81240 85.23078 78.02159
# Shear Modulus (GPa) = 20.39056 40.82472 30.60764
#
# Velocity S-wave (km/s) = 2.69438 3.81247 3.30111
# Velocity P-wave (km/s) = 5.90687 7.05158 6.50446
#
# Compressibility (1/GPa) = 0.01412182
#
# Stress axis : x y z
#
# Youngs Moduli (GPa) = 81.26205 175.22396 178.47398
#
# Poissons Ratio (x) = 0.46474 0.12276
# Poissons Ratio (y) = 0.21553 0.25110
# Poissons Ratio (z) = 0.05590 0.24652
#
# Static dielectric constant tensor:
#      x y z
#    x 2.327580 0.000000 0.000000 
#    y 0.000000 2.122320 0.000000 
#    z 0.000000 0.000000 2.132940 
# 
# From -- ./inp_files/9648.got.cif
#   From: 2010.05.17/outbox.cif.g08.bks.cpg/sg61_5_cif.got.tgz:9648.got - 2010.06.03 15:17:17.
