data_PCOD9459098
_publ_section_title
;
Structure prediction by ZEFSAII (Michael W. Deem and Ramdas Pophale) SiO2 
 PCOD9459098
Probable space group: P B C A
;
_chemical_formula_sum "Si O2"
_cell_formula_units_Z 56
_cell_length_a 19.529699
_cell_length_b 13.126158
_cell_length_c 8.860402
_cell_angle_alpha 90.000000
_cell_angle_beta 90.000000
_cell_angle_gamma 90.000000
_cell_volume 2271.363297
_symmetry_space_group_name_H-M "P B C A"
_symmetry_group_IT_number 61
_symmetry_cell_setting 'orthorhombic'
loop_
_space_group_symop_operation_xyz
x,y,z
1/2-x,-y,1/2+z
1/2+x,1/2-y,-z
-x,1/2+y,1/2-z
-x,-y,-z
1/2+x,y,1/2-z
1/2-x,1/2+y,z
x,1/2-y,1/2+z
loop_
_atom_site_type_symbol
_atom_site_label
_atom_site_fract_x
_atom_site_fract_y
_atom_site_fract_z
Si Si1 0.438706 0.541053 0.711847
Si Si2 0.239986 0.636137 0.147035
Si Si3 0.401747 0.336783 0.520968
Si Si4 0.958865 0.758715 0.493666
Si Si5 0.907036 0.060661 0.789705
Si Si6 0.379094 0.837080 0.738478
Si Si7 0.680596 0.516848 0.071567
O O1 0.427559 0.439796 0.608295
O O2 0.445902 0.638235 0.602637
O O3 0.511383 0.541281 0.798009
O O4 0.374295 0.542961 0.823987
O O5 0.172409 0.688360 0.084136
O O6 0.307227 0.702592 0.176663
O O7 0.219499 0.587061 0.307904
O O8 0.266719 0.553137 0.023795
O O9 0.463082 0.257783 0.545688
O O10 0.396532 0.356978 0.342160
O O11 0.936179 0.666893 0.390917
O O12 0.907923 0.769556 0.630424
O O13 0.874775 0.955477 0.720715
O O14 0.865932 0.072908 0.945209
#
# Coordination Sequence:
#
# PCOD9459098 Si02
#       7
#     8   8   8   8   8   8   8
#     4  10  19  37  67  92 122 163 217 271 313 367
#     4  10  22  38  59  91 128 163 202 268 318 380
#     4  10  19  42  68  91 124 169 215 272 320 364
#     4  11  23  40  64  89 125 174 206 259 320 387
#     4  10  18  37  63  99 124 156 216 272 309 378
#     4  11  23  39  60  89 131 165 213 256 323 391
#     4  10  21  32  61  93 124 152 207 263 325 375
#
# _framework density 24.654799000000001
#
# number of rings (size 3 to 8) (size 9 to 14) (size 15 to 20)
#    0.000    1.714    2.857    3.000    6.000    0.000 
#    0.000    1.429    0.000    0.000    0.000    0.000 
#    0.000    0.000    0.000    0.000    0.000    0.000 
#
# Total GULP energy -313442.384373 kJ/mol
# GULP energy per Si atom -5597.185435 kJ/mol
# Density = 2.459868 g / cm^3
# Si number density = 24.654799 Si / 1000 Ang^3
#
#
#
# Elastic Constant Matrix: (Units=GPa)
#
#
# Indices 1 2 3 4 5 6 
#
# 1 179.3163 35.6100 56.2291 0.0000 0.0000 0.0000
# 2 35.6100 36.2300 22.1581 0.0000 0.0000 0.0000
# 3 56.2291 22.1581 135.3459 0.0000 0.0000 0.0000
# 4 0.0000 0.0000 0.0000 15.6260 0.0000 0.0000
# 5 0.0000 0.0000 0.0000 0.0000 57.5230 0.0000
# 6 0.0000 0.0000 0.0000 0.0000 0.0000 17.1586
#
#
#
# Elastic Compliance Matrix: (Units=1/GPa)
#
#
# Indices 1 2 3 4 5 6 
#
# 1 0.007431 -0.006018 -0.002102 0.000000 0.000000 0.000000
# 2 -0.006018 0.035547 -0.003319 0.000000 0.000000 0.000000
# 3 -0.002102 -0.003319 0.008805 0.000000 0.000000 0.000000
# 4 0.000000 0.000000 0.000000 0.063996 0.000000 0.000000
# 5 0.000000 0.000000 0.000000 0.000000 0.017384 0.000000
# 6 0.000000 0.000000 0.000000 0.000000 0.000000 0.058280
#
#
# Mechanical properties :
#
#
# Convention : Reuss Voigt Hill
#
# Bulk Modulus (GPa) = 34.59731 64.32073 49.45902
# Shear Modulus (GPa) = 22.32577 33.85453 28.09015
#
# Velocity S-wave (km/s) = 3.01247 3.70961 3.37907
# Velocity P-wave (km/s) = 5.11499 6.67034 5.94376
#
# Compressibility (1/GPa) = 0.02890398
#
# Stress axis : x y z
#
# Youngs Moduli (GPa) = 134.57128 28.13195 113.57037
#
# Poissons Ratio (x) = 0.16931 0.23871
# Poissons Ratio (y) = 0.80989 0.37697
# Poissons Ratio (z) = 0.28286 0.09338
#
# Static dielectric constant tensor:
#      x y z
#    x 1.946530 0.000000 0.000000 
#    y 0.000000 1.953400 0.000000 
#    z 0.000000 0.000000 1.957140 
# 
# From -- ./inp_files/3991.got.cif
#   From: 2010.05.17/outbox.cif.g08.bks.cpg/sg61_2_cif.got.tgz:3991.got - 2010.06.03 15:17:17.
