data_PCOD9459694
_publ_section_title
;
Structure prediction by ZEFSAII (Michael W. Deem and Ramdas Pophale) SiO2 
 PCOD9459694
Probable space group: P B C A
;
_chemical_formula_sum "Si O2"
_cell_formula_units_Z 40
_cell_length_a 8.509204
_cell_length_b 21.483337
_cell_length_c 9.109184
_cell_angle_alpha 90.000000
_cell_angle_beta 90.000000
_cell_angle_gamma 90.000000
_cell_volume 1665.214375
_symmetry_space_group_name_H-M "P B C A"
_symmetry_group_IT_number 61
_symmetry_cell_setting 'orthorhombic'
loop_
_space_group_symop_operation_xyz
x,y,z
1/2-x,-y,1/2+z
1/2+x,1/2-y,-z
-x,1/2+y,1/2-z
-x,-y,-z
1/2+x,y,1/2-z
1/2-x,1/2+y,z
x,1/2-y,1/2+z
loop_
_atom_site_type_symbol
_atom_site_label
_atom_site_fract_x
_atom_site_fract_y
_atom_site_fract_z
Si Si1 0.347237 0.196630 0.184645
Si Si2 0.159145 0.249582 0.924895
Si Si3 0.285822 0.931025 0.593154
Si Si4 0.516010 0.880031 0.395806
Si Si5 0.241150 0.059959 0.754601
O O1 0.519403 0.203296 0.114807
O O2 0.316856 0.227175 0.342281
O O3 0.294736 0.125504 0.176727
O O4 0.221145 0.235082 0.086500
O O5 0.076722 0.184116 0.879359
O O6 0.464126 0.909449 0.550883
O O7 0.213932 0.936191 0.427870
O O8 0.274279 0.994753 0.678715
O O9 0.444245 0.927400 0.274644
O O10 0.694512 0.884725 0.350158
#
# Coordination Sequence:
#
# PCOD9459694 Si02
#       5
#     8   8   8   8   8
#     4  11  24  43  66 100 128 173 212 272 318 395
#     4  11  23  43  67  94 135 163 220 263 330 376
#     4   9  23  40  61  93 123 162 217 252 321 374
#     4   9  21  38  65  87 122 162 204 254 318 372
#     4  10  20  41  61  86 127 158 207 260 307 382
#
# _framework density 24.02093
#
# number of rings (size 3 to 8) (size 9 to 14) (size 15 to 20)
#    1.200    0.800    0.000    3.000    2.800    2.400 
#   10.800    0.000    0.000    0.000    0.000    0.000 
#    0.000    0.000    0.000    0.000    0.000    0.000 
#
# Total GULP energy -223085.510143 kJ/mol
# GULP energy per Si atom -5577.137754 kJ/mol
# Density = 2.396626 g / cm^3
# Si number density = 24.020930 Si / 1000 Ang^3
#
#
#
# Elastic Constant Matrix: (Units=GPa)
#
#
# Indices 1 2 3 4 5 6 
#
# 1 47.9218 -11.4660 -6.5946 0.0000 0.0000 0.0000
# 2 -11.4660 68.0865 19.7039 0.0000 0.0000 0.0000
# 3 -6.5946 19.7039 59.1153 0.0000 0.0000 0.0000
# 4 0.0000 0.0000 0.0000 31.9224 0.0000 0.0000
# 5 0.0000 0.0000 0.0000 0.0000 30.4992 0.0000
# 6 0.0000 0.0000 0.0000 0.0000 0.0000 25.6172
#
#
#
# Elastic Compliance Matrix: (Units=1/GPa)
#
#
# Indices 1 2 3 4 5 6 
#
# 1 0.021839 0.003290 0.001340 0.000000 0.000000 0.000000
# 2 0.003290 0.016751 -0.005216 0.000000 0.000000 0.000000
# 3 0.001340 -0.005216 0.018804 0.000000 0.000000 0.000000
# 4 0.000000 0.000000 0.000000 0.031326 0.000000 0.000000
# 5 0.000000 0.000000 0.000000 0.000000 0.032788 0.000000
# 6 0.000000 0.000000 0.000000 0.000000 0.000000 0.039036
#
#
# Mechanical properties :
#
#
# Convention : Reuss Voigt Hill
#
# Bulk Modulus (GPa) = 17.78702 19.82334 18.80518
# Shear Modulus (GPa) = 27.70740 29.17311 28.44025
#
# Velocity S-wave (km/s) = 3.39996 3.48873 3.44463
# Velocity P-wave (km/s) = 4.77848 4.94962 4.86480
#
# Compressibility (1/GPa) = 0.05622077
#
# Stress axis : x y z
#
# Youngs Moduli (GPa) = 45.78993 59.69862 53.17970
#
# Poissons Ratio (x) = -0.19641 -0.07124
# Poissons Ratio (y) = -0.15065 0.27740
# Poissons Ratio (z) = -0.06134 0.31140
#
# Static dielectric constant tensor:
#      x y z
#    x 1.953790 0.000000 0.000000 
#    y 0.000000 1.890460 0.000000 
#    z 0.000000 0.000000 1.937090 
# 
# From -- ./inp_files/1748.got.cif
#   From: 2010.05.17/outbox.cif.g08.bks.cpg/sg61_1_cif.got.tgz:1748.got - 2010.06.03 15:17:17.
