data_PCOD9459099
_publ_section_title
;
Structure prediction by ZEFSAII (Michael W. Deem and Ramdas Pophale) SiO2 
 PCOD9459099
Probable space group: P B C A
;
_chemical_formula_sum "Si O2"
_cell_formula_units_Z 64
_cell_length_a 10.763833
_cell_length_b 13.573956
_cell_length_c 17.687267
_cell_angle_alpha 90.000000
_cell_angle_beta 90.000000
_cell_angle_gamma 90.000000
_cell_volume 2584.247590
_symmetry_space_group_name_H-M "P B C A"
_symmetry_group_IT_number 61
_symmetry_cell_setting 'orthorhombic'
loop_
_space_group_symop_operation_xyz
x,y,z
1/2-x,-y,1/2+z
1/2+x,1/2-y,-z
-x,1/2+y,1/2-z
-x,-y,-z
1/2+x,y,1/2-z
1/2-x,1/2+y,z
x,1/2-y,1/2+z
loop_
_atom_site_type_symbol
_atom_site_label
_atom_site_fract_x
_atom_site_fract_y
_atom_site_fract_z
Si Si1 0.986409 0.767493 0.138692
Si Si2 0.876558 0.107352 0.742878
Si Si3 0.710480 0.850473 0.460025
Si Si4 0.199329 0.421001 0.572049
Si Si5 0.192848 0.250078 0.666304
Si Si6 0.755167 0.872253 0.091657
Si Si7 0.400634 0.077698 0.393679
Si Si8 0.018112 0.110566 0.252004
O O1 0.597040 0.009680 0.250204
O O2 0.849267 0.785435 0.110319
O O3 0.998089 0.654947 0.165456
O O4 0.088808 0.801030 0.077863
O O5 0.763549 0.168054 0.783895
O O6 0.854383 0.126094 0.653498
O O7 0.985380 0.155427 0.792761
O O8 0.824527 0.797014 0.417140
O O9 0.679792 0.857591 0.548399
O O10 0.721632 0.963005 0.430970
O O11 0.249564 0.356606 0.641357
O O12 0.265564 0.375964 0.497725
O O13 0.045726 0.416592 0.577620
O O14 0.082512 0.295687 0.712468
O O15 0.841263 0.969932 0.100840
O O16 0.401317 0.099424 0.304274
#
# Coordination Sequence:
#
# PCOD9459099 Si02
#       8
#     8   8   8   8   8   8   8   8
#     4  11  20  40  59  87 127 162 205 265 310 380
#     4  11  24  40  60  94 127 166 212 255 326 378
#     4  10  19  36  61  88 118 158 213 260 312 371
#     4  10  19  36  61  87 115 161 211 255 321 372
#     4  10  20  35  58  85 123 157 202 259 300 380
#     4  11  19  38  63  88 125 158 204 271 305 373
#     4  10  18  37  64  85 117 169 202 262 321 374
#     4  11  23  39  61  91 126 170 211 250 331 387
#
# _framework density 24.765428
#
# number of rings (size 3 to 8) (size 9 to 14) (size 15 to 20)
#    0.000    1.500    5.000    3.000    0.000    3.000 
#    4.500    0.000    0.000    0.000    0.000   11.375 
#    0.000    0.000    0.000    0.000    0.000    0.000 
#
# Total GULP energy -356437.713235 kJ/mol
# GULP energy per Si atom -5569.339269 kJ/mol
# Density = 2.470906 g / cm^3
# Si number density = 24.765428 Si / 1000 Ang^3
#
#
#
# Elastic Constant Matrix: (Units=GPa)
#
#
# Indices 1 2 3 4 5 6 
#
# 1 35.1579 31.2847 2.4503 0.0000 0.0000 0.0000
# 2 31.2847 117.7764 39.8744 0.0000 0.0000 0.0000
# 3 2.4503 39.8744 90.9139 0.0000 0.0000 0.0000
# 4 0.0000 0.0000 0.0000 43.9649 0.0000 0.0000
# 5 0.0000 0.0000 0.0000 0.0000 42.8601 0.0000
# 6 0.0000 0.0000 0.0000 0.0000 0.0000 20.0959
#
#
#
# Elastic Compliance Matrix: (Units=1/GPa)
#
#
# Indices 1 2 3 4 5 6 
#
# 1 0.038474 -0.011590 0.004046 0.000000 0.000000 0.000000
# 2 -0.011590 0.013463 -0.005592 0.000000 0.000000 0.000000
# 3 0.004046 -0.005592 0.013343 0.000000 0.000000 0.000000
# 4 0.000000 0.000000 0.000000 0.022745 0.000000 0.000000
# 5 0.000000 0.000000 0.000000 0.000000 0.023332 0.000000
# 6 0.000000 0.000000 0.000000 0.000000 0.000000 0.049761
#
#
# Mechanical properties :
#
#
# Convention : Reuss Voigt Hill
#
# Bulk Modulus (GPa) = 25.63560 43.45188 34.54374
# Shear Modulus (GPa) = 24.95108 32.73343 28.84225
#
# Velocity S-wave (km/s) = 3.17755 3.63952 3.41635
# Velocity P-wave (km/s) = 4.88224 5.93674 5.43513
#
# Compressibility (1/GPa) = 0.03900826
#
# Stress axis : x y z
#
# Youngs Moduli (GPa) = 25.99161 74.28039 74.94515
#
# Poissons Ratio (x) = 0.86088 -0.30325
# Poissons Ratio (y) = 0.30123 0.41911
# Poissons Ratio (z) = -0.10517 0.41539
#
# Static dielectric constant tensor:
#      x y z
#    x 2.017860 0.000000 0.000000 
#    y 0.000000 2.025940 0.000000 
#    z 0.000000 0.000000 2.126750 
# 
# From -- ./inp_files/9597.got.cif
#   From: 2010.05.17/outbox.cif.g08.bks.cpg/sg61_5_cif.got.tgz:9597.got - 2010.06.03 15:17:17.
