data_PCOD9459782
_publ_section_title
;
Structure prediction by ZEFSAII (Michael W. Deem and Ramdas Pophale) SiO2 
 PCOD9459782
Probable space group: P B C A
;
_chemical_formula_sum "Si O2"
_cell_formula_units_Z 40
_cell_length_a 17.724233
_cell_length_b 5.173639
_cell_length_c 20.436286
_cell_angle_alpha 90.000000
_cell_angle_beta 90.000000
_cell_angle_gamma 90.000000
_cell_volume 1873.982557
_symmetry_space_group_name_H-M "P B C A"
_symmetry_group_IT_number 61
_symmetry_cell_setting 'orthorhombic'
loop_
_space_group_symop_operation_xyz
x,y,z
1/2-x,-y,1/2+z
1/2+x,1/2-y,-z
-x,1/2+y,1/2-z
-x,-y,-z
1/2+x,y,1/2-z
1/2-x,1/2+y,z
x,1/2-y,1/2+z
loop_
_atom_site_type_symbol
_atom_site_label
_atom_site_fract_x
_atom_site_fract_y
_atom_site_fract_z
Si Si1 0.223935 0.490422 0.162847
Si Si2 0.550123 0.247707 0.517681
Si Si3 0.931018 0.785038 0.810114
Si Si4 0.282083 0.624868 0.016284
Si Si5 0.523059 0.288154 0.663449
O O1 0.219723 0.776432 0.193760
O O2 0.147057 0.331971 0.165682
O O3 0.249006 0.559815 0.088779
O O4 0.500000 0.500000 0.500000
O O5 0.631713 0.219175 0.483734
O O6 0.564637 0.245346 0.595490
O O7 0.500000 0.000000 0.500000
O O8 0.991520 0.578777 0.836499
O O9 0.932276 0.763213 0.731313
O O10 0.956589 0.070631 0.831892
O O11 0.270142 0.344480 0.984172
#
# Coordination Sequence:
#
# PCOD9459782 Si02
#       5
#     8   8   8   8   8
#     4  10  21  34  61  88 124 159 217 263 322 384
#     4  12  26  40  65  98 134 176 222 271 343 405
#     4  10  21  41  63  92 122 169 215 274 330 390
#     4  10  23  40  59  90 130 173 212 272 324 394
#     4  10  23  39  64  90 129 163 217 274 329 393
#
# _framework density 21.344916000000001
#
# number of rings (size 3 to 8) (size 9 to 14) (size 15 to 20)
#    0.000    1.600    0.000    3.600   16.800    0.000 
#    0.000    2.000    0.000    0.000    0.000    0.000 
#    0.000    0.000    0.000    0.000    0.000    0.000 
#
# Total GULP energy -223021.962042 kJ/mol
# GULP energy per Si atom -5575.549051 kJ/mol
# Density = 2.129633 g / cm^3
# Si number density = 21.344916 Si / 1000 Ang^3
#
#
#
# Elastic Constant Matrix: (Units=GPa)
#
#
# Indices 1 2 3 4 5 6 
#
# 1 106.3852 14.2450 15.9164 0.0000 0.0000 0.0000
# 2 14.2450 156.4336 -8.8751 0.0000 0.0000 0.0000
# 3 15.9164 -8.8751 46.7392 0.0000 0.0000 0.0000
# 4 0.0000 0.0000 0.0000 20.0483 0.0000 0.0000
# 5 0.0000 0.0000 0.0000 0.0000 24.3959 0.0000
# 6 0.0000 0.0000 0.0000 0.0000 0.0000 33.0040
#
#
#
# Elastic Compliance Matrix: (Units=1/GPa)
#
#
# Indices 1 2 3 4 5 6 
#
# 1 0.010097 -0.001127 -0.003652 0.000000 0.000000 0.000000
# 2 -0.001127 0.006588 0.001635 0.000000 0.000000 0.000000
# 3 -0.003652 0.001635 0.022949 0.000000 0.000000 0.000000
# 4 0.000000 0.000000 0.000000 0.049879 0.000000 0.000000
# 5 0.000000 0.000000 0.000000 0.000000 0.040990 0.000000
# 6 0.000000 0.000000 0.000000 0.000000 0.000000 0.030299
#
#
# Mechanical properties :
#
#
# Convention : Reuss Voigt Hill
#
# Bulk Modulus (GPa) = 29.98902 39.12562 34.55732
# Shear Modulus (GPa) = 28.05715 34.70777 31.38246
#
# Velocity S-wave (km/s) = 3.62949 4.03680 3.83855
# Velocity P-wave (km/s) = 5.62534 6.33227 5.98924
#
# Compressibility (1/GPa) = 0.03334554
#
# Stress axis : x y z
#
# Youngs Moduli (GPa) = 99.03832 151.79519 43.57396
#
# Poissons Ratio (x) = 0.17102 0.15915
# Poissons Ratio (y) = 0.11158 -0.07123
# Poissons Ratio (z) = 0.36173 -0.24813
#
# Static dielectric constant tensor:
#      x y z
#    x 1.842950 0.000000 0.000000 
#    y 0.000000 1.961140 0.000000 
#    z 0.000000 0.000000 1.840560 
# 
# From -- ./inp_files/10503.got.cif
#   From: 2010.05.17/outbox.cif.g08.bks.cpg/sg61_6_cif.got.tgz:10503.got - 2010.06.03 15:17:17.
