data_PCOD9459658
_publ_section_title
;
Structure prediction by ZEFSAII (Michael W. Deem and Ramdas Pophale) SiO2 
 PCOD9459658
Probable space group: P B C A
;
_chemical_formula_sum "Si O2"
_cell_formula_units_Z 40
_cell_length_a 15.748894
_cell_length_b 11.397279
_cell_length_c 8.761006
_cell_angle_alpha 90.000000
_cell_angle_beta 90.000000
_cell_angle_gamma 90.000000
_cell_volume 1572.552732
_symmetry_space_group_name_H-M "P B C A"
_symmetry_group_IT_number 61
_symmetry_cell_setting 'orthorhombic'
loop_
_space_group_symop_operation_xyz
x,y,z
1/2-x,-y,1/2+z
1/2+x,1/2-y,-z
-x,1/2+y,1/2-z
-x,-y,-z
1/2+x,y,1/2-z
1/2-x,1/2+y,z
x,1/2-y,1/2+z
loop_
_atom_site_type_symbol
_atom_site_label
_atom_site_fract_x
_atom_site_fract_y
_atom_site_fract_z
Si Si1 0.427253 0.746540 0.015467
Si Si2 0.137111 0.604552 0.202384
Si Si3 0.334405 0.153030 0.842206
Si Si4 0.505495 0.585035 0.765032
Si Si5 0.692983 0.328353 0.729555
O O1 0.482050 0.655352 0.918125
O O2 0.373940 0.830549 0.904513
O O3 0.478532 0.832335 0.123830
O O4 0.357760 0.678857 0.114883
O O5 0.119435 0.726867 0.285779
O O6 0.059142 0.522261 0.242202
O O7 0.230967 0.577311 0.271987
O O8 0.155256 0.626601 0.022117
O O9 0.393917 0.061364 0.750881
O O10 0.240658 0.199191 0.793501
#
# Coordination Sequence:
#
# PCOD9459658 Si02
#       5
#     8   8   8   8   8
#     4  10  21  38  60  90 127 155 200 264 300 360
#     4  10  21  39  66  85 122 165 212 241 318 362
#     4  10  20  40  61  86 124 163 203 259 295 368
#     4  11  23  38  63  93 122 161 213 252 309 359
#     4   9  18  39  60  80 125 162 193 255 311 355
#
# _framework density 25.436349
#
# number of rings (size 3 to 8) (size 9 to 14) (size 15 to 20)
#    1.200    0.800    2.000    1.800    0.000    1.600 
#    0.000    8.000    0.000    0.000    0.000    0.000 
#    0.000    0.000    0.000    0.000    0.000    0.000 
#
# Total GULP energy -223390.042311 kJ/mol
# GULP energy per Si atom -5584.751058 kJ/mol
# Density = 2.537845 g / cm^3
# Si number density = 25.436349 Si / 1000 Ang^3
#
#
#
# Elastic Constant Matrix: (Units=GPa)
#
#
# Indices 1 2 3 4 5 6 
#
# 1 94.5627 -4.7463 3.9101 0.0000 0.0000 0.0000
# 2 -4.7463 57.2290 17.0689 0.0000 0.0000 0.0000
# 3 3.9101 17.0689 96.1919 0.0000 0.0000 0.0000
# 4 0.0000 0.0000 0.0000 13.0284 0.0000 0.0000
# 5 0.0000 0.0000 0.0000 0.0000 19.6029 0.0000
# 6 0.0000 0.0000 0.0000 0.0000 0.0000 32.7434
#
#
#
# Elastic Compliance Matrix: (Units=1/GPa)
#
#
# Indices 1 2 3 4 5 6 
#
# 1 0.010654 0.001069 -0.000623 0.000000 0.000000 0.000000
# 2 0.001069 0.018557 -0.003336 0.000000 0.000000 0.000000
# 3 -0.000623 -0.003336 0.011013 0.000000 0.000000 0.000000
# 4 0.000000 0.000000 0.000000 0.076755 0.000000 0.000000
# 5 0.000000 0.000000 0.000000 0.000000 0.051013 0.000000
# 6 0.000000 0.000000 0.000000 0.000000 0.000000 0.030540
#
#
# Mechanical properties :
#
#
# Convention : Reuss Voigt Hill
#
# Bulk Modulus (GPa) = 29.03147 31.16100 30.09623
# Shear Modulus (GPa) = 23.17007 28.52499 25.84753
#
# Velocity S-wave (km/s) = 3.02139 3.35240 3.19119
# Velocity P-wave (km/s) = 4.85900 5.22130 5.04341
#
# Compressibility (1/GPa) = 0.03444538
#
# Stress axis : x y z
#
# Youngs Moduli (GPa) = 93.85768 53.88669 90.79981
#
# Poissons Ratio (x) = -0.05763 0.05656
# Poissons Ratio (y) = -0.10037 0.30295
# Poissons Ratio (z) = 0.05846 0.17979
#
# Static dielectric constant tensor:
#      x y z
#    x 2.237920 0.000000 0.000000 
#    y 0.000000 2.235650 0.000000 
#    z 0.000000 0.000000 1.978760 
# 
# From -- ./inp_files/3350.got.cif
#   From: 2010.05.17/outbox.cif.g08.bks.cpg/sg61_2_cif.got.tgz:3350.got - 2010.06.03 15:17:17.
