data_PCOD9459761
_publ_section_title
;
Structure prediction by ZEFSAII (Michael W. Deem and Ramdas Pophale) SiO2 
 PCOD9459761
Probable space group: P B C A
;
_chemical_formula_sum "Si O2"
_cell_formula_units_Z 40
_cell_length_a 13.106132
_cell_length_b 9.209077
_cell_length_c 12.945429
_cell_angle_alpha 90.000000
_cell_angle_beta 90.000000
_cell_angle_gamma 90.000000
_cell_volume 1562.453456
_symmetry_space_group_name_H-M "P B C A"
_symmetry_group_IT_number 61
_symmetry_cell_setting 'orthorhombic'
loop_
_space_group_symop_operation_xyz
x,y,z
1/2-x,-y,1/2+z
1/2+x,1/2-y,-z
-x,1/2+y,1/2-z
-x,-y,-z
1/2+x,y,1/2-z
1/2-x,1/2+y,z
x,1/2-y,1/2+z
loop_
_atom_site_type_symbol
_atom_site_label
_atom_site_fract_x
_atom_site_fract_y
_atom_site_fract_z
Si Si1 0.240304 0.887554 0.272417
Si Si2 0.613280 0.156901 0.013197
Si Si3 0.932460 0.227078 0.097106
Si Si4 0.610429 0.141807 0.260935
Si Si5 0.687111 0.486779 0.019196
O O1 0.316910 0.779439 0.217260
O O2 0.163211 0.797764 0.345572
O O3 0.171479 0.997140 0.207423
O O4 0.303767 0.981485 0.354567
O O5 0.598175 0.142631 0.136811
O O6 0.653693 0.323441 0.993544
O O7 0.701708 0.042636 0.984229
O O8 0.506259 0.153001 0.954217
O O9 0.004012 0.152779 0.182404
O O10 0.895473 0.115032 0.009128
#
# Coordination Sequence:
#
# PCOD9459761 Si02
#       5
#     8   8   8   8   8
#     4  10  21  43  62  91 134 155 208 268 303 369
#     4  10  23  43  65  92 127 165 206 260 310 372
#     4  12  23  40  70  91 122 172 210 249 324 368
#     4  10  24  41  66  92 128 166 208 261 313 371
#     4  10  20  44  61  91 130 157 204 267 301 367
#
# _framework density 25.600762
#
# number of rings (size 3 to 8) (size 9 to 14) (size 15 to 20)
#    0.000    1.600    6.000    0.600    5.600    4.800 
#    3.600    0.000    0.000    0.000    0.000    0.000 
#    0.000    0.000    0.000    0.000    0.000    0.000 
#
# Total GULP energy -224058.296583 kJ/mol
# GULP energy per Si atom -5601.457415 kJ/mol
# Density = 2.554249 g / cm^3
# Si number density = 25.600762 Si / 1000 Ang^3
#
#
#
# Elastic Constant Matrix: (Units=GPa)
#
#
# Indices 1 2 3 4 5 6 
#
# 1 123.9295 25.6558 19.2431 0.0000 0.0000 0.0000
# 2 25.6558 101.2222 -6.6504 0.0000 0.0000 0.0000
# 3 19.2431 -6.6504 64.2667 0.0000 0.0000 0.0000
# 4 0.0000 0.0000 0.0000 39.4880 0.0000 0.0000
# 5 0.0000 0.0000 0.0000 0.0000 50.4468 0.0000
# 6 0.0000 0.0000 0.0000 0.0000 0.0000 41.8216
#
#
#
# Elastic Compliance Matrix: (Units=1/GPa)
#
#
# Indices 1 2 3 4 5 6 
#
# 1 0.009044 -0.002487 -0.002966 0.000000 0.000000 0.000000
# 2 -0.002487 0.010631 0.001845 0.000000 0.000000 0.000000
# 3 -0.002966 0.001845 0.016639 0.000000 0.000000 0.000000
# 4 0.000000 0.000000 0.000000 0.025324 0.000000 0.000000
# 5 0.000000 0.000000 0.000000 0.000000 0.019823 0.000000
# 6 0.000000 0.000000 0.000000 0.000000 0.000000 0.023911
#
#
# Mechanical properties :
#
#
# Convention : Reuss Voigt Hill
#
# Bulk Modulus (GPa) = 34.36602 40.65727 37.51165
# Shear Modulus (GPa) = 40.88711 43.09593 41.99152
#
# Velocity S-wave (km/s) = 4.00072 4.10736 4.05439
# Velocity P-wave (km/s) = 5.89864 6.19755 6.04994
#
# Compressibility (1/GPa) = 0.02909851
#
# Stress axis : x y z
#
# Youngs Moduli (GPa) = 110.56461 94.06550 60.09967
#
# Poissons Ratio (x) = 0.23397 0.17823
# Poissons Ratio (y) = 0.27500 -0.11088
# Poissons Ratio (z) = 0.32788 -0.17354
#
# Static dielectric constant tensor:
#      x y z
#    x 1.962060 0.000000 0.000000 
#    y 0.000000 2.028090 0.000000 
#    z 0.000000 0.000000 2.125430 
# 
# From -- ./inp_files/2651.got.cif
#   From: 2010.05.17/outbox.cif.g08.bks.cpg/sg61_2_cif.got.tgz:2651.got - 2010.06.03 15:17:17.
