data_PCOD9459572
_publ_section_title
;
Structure prediction by ZEFSAII (Michael W. Deem and Ramdas Pophale) SiO2 
 PCOD9459572
Probable space group: P B C A
;
_chemical_formula_sum "Si O2"
_cell_formula_units_Z 48
_cell_length_a 9.890783
_cell_length_b 15.186192
_cell_length_c 17.043259
_cell_angle_alpha 90.000000
_cell_angle_beta 90.000000
_cell_angle_gamma 90.000000
_cell_volume 2559.954250
_symmetry_space_group_name_H-M "P B C A"
_symmetry_group_IT_number 61
_symmetry_cell_setting 'orthorhombic'
loop_
_space_group_symop_operation_xyz
x,y,z
1/2-x,-y,1/2+z
1/2+x,1/2-y,-z
-x,1/2+y,1/2-z
-x,-y,-z
1/2+x,y,1/2-z
1/2-x,1/2+y,z
x,1/2-y,1/2+z
loop_
_atom_site_type_symbol
_atom_site_label
_atom_site_fract_x
_atom_site_fract_y
_atom_site_fract_z
Si Si1 0.663510 0.747487 0.410922
Si Si2 0.629360 0.759596 0.095410
Si Si3 0.593531 0.279411 0.189053
Si Si4 0.104198 0.124987 0.653720
Si Si5 0.000510 0.882007 0.798768
Si Si6 0.287971 0.438251 0.673794
O O1 0.663262 0.747233 0.504427
O O2 0.522735 0.783349 0.375987
O O3 0.780439 0.809085 0.376777
O O4 0.686825 0.649013 0.377896
O O5 0.762150 0.770073 0.148490
O O6 0.532787 0.842610 0.112969
O O7 0.550789 0.672538 0.125834
O O8 0.590472 0.357378 0.252835
O O9 0.560107 0.192593 0.240406
O O10 0.148593 0.025925 0.637518
O O11 0.873584 0.945315 0.814544
O O12 0.129241 0.922820 0.754651
#
# Coordination Sequence:
#
# PCOD9459572 Si02
#       6
#     8   8   8   8   8   8
#     4  11  23  41  63  91 127 164 202 260 317 367
#     4  11  21  40  64  88 127 165 203 254 316 367
#     4  10  20  38  62  87 118 163 209 247 302 366
#     4  11  23  40  64  92 121 163 214 255 303 372
#     4  10  20  40  61  91 119 164 201 258 299 360
#     4  11  23  39  65  92 127 158 215 255 306 362
#
# _framework density 18.750335
#
# number of rings (size 3 to 8) (size 9 to 14) (size 15 to 20)
#    0.000    1.333    5.000    3.000    4.667    0.667 
#    0.000    2.500    0.000    0.000    0.000    0.000 
#    0.000    0.000    0.000    0.000    0.000    0.000 
#
# Total GULP energy -268080.423951 kJ/mol
# GULP energy per Si atom -5585.008832 kJ/mol
# Density = 1.870766 g / cm^3
# Si number density = 18.750335 Si / 1000 Ang^3
#
#
#
# Elastic Constant Matrix: (Units=GPa)
#
#
# Indices 1 2 3 4 5 6 
#
# 1 75.2940 5.3128 -2.6029 0.0000 0.0000 0.0000
# 2 5.3128 82.7853 18.0261 0.0000 0.0000 0.0000
# 3 -2.6029 18.0261 67.2718 0.0000 0.0000 0.0000
# 4 0.0000 0.0000 0.0000 7.1755 0.0000 0.0000
# 5 0.0000 0.0000 0.0000 0.0000 16.1067 0.0000
# 6 0.0000 0.0000 0.0000 0.0000 0.0000 3.9773
#
#
#
# Elastic Compliance Matrix: (Units=1/GPa)
#
#
# Indices 1 2 3 4 5 6 
#
# 1 0.013382 -0.001032 0.000794 0.000000 0.000000 0.000000
# 2 -0.001032 0.012907 -0.003499 0.000000 0.000000 0.000000
# 3 0.000794 -0.003499 0.015833 0.000000 0.000000 0.000000
# 4 0.000000 0.000000 0.000000 0.139363 0.000000 0.000000
# 5 0.000000 0.000000 0.000000 0.000000 0.062086 0.000000
# 6 0.000000 0.000000 0.000000 0.000000 0.000000 0.251427
#
#
# Mechanical properties :
#
#
# Convention : Reuss Voigt Hill
#
# Bulk Modulus (GPa) = 28.85994 29.64701 29.25348
# Shear Modulus (GPa) = 9.72724 19.09292 14.41008
#
# Velocity S-wave (km/s) = 2.28014 3.19450 2.77523
# Velocity P-wave (km/s) = 4.72833 5.42699 5.08966
#
# Compressibility (1/GPa) = 0.03465010
#
# Stress axis : x y z
#
# Youngs Moduli (GPa) = 74.72990 77.47467 63.15816
#
# Poissons Ratio (x) = 0.07993 -0.05016
# Poissons Ratio (y) = 0.07710 0.22096
# Poissons Ratio (z) = -0.05935 0.27105
#
# Static dielectric constant tensor:
#      x y z
#    x 1.665980 0.000000 0.000000 
#    y 0.000000 1.648970 0.000000 
#    z 0.000000 0.000000 1.619120 
# 
# From -- ./inp_files/3508.got.cif
#   From: 2010.05.17/outbox.cif.g08.bks.cpg/sg61_2_cif.got.tgz:3508.got - 2010.06.03 15:17:17.
