data_PCOD9459927
_publ_section_title
;
Structure prediction by ZEFSAII (Michael W. Deem and Ramdas Pophale) SiO2 
 PCOD9459927
Probable space group: P B C A
;
_chemical_formula_sum "Si O2"
_cell_formula_units_Z 48
_cell_length_a 17.600119
_cell_length_b 5.368676
_cell_length_c 19.091114
_cell_angle_alpha 90.000000
_cell_angle_beta 90.000000
_cell_angle_gamma 90.000000
_cell_volume 1803.906694
_symmetry_space_group_name_H-M "P B C A"
_symmetry_group_IT_number 61
_symmetry_cell_setting 'orthorhombic'
loop_
_space_group_symop_operation_xyz
x,y,z
1/2-x,-y,1/2+z
1/2+x,1/2-y,-z
-x,1/2+y,1/2-z
-x,-y,-z
1/2+x,y,1/2-z
1/2-x,1/2+y,z
x,1/2-y,1/2+z
loop_
_atom_site_type_symbol
_atom_site_label
_atom_site_fract_x
_atom_site_fract_y
_atom_site_fract_z
Si Si1 0.201998 0.287547 0.007577
Si Si2 0.300940 0.671736 0.662619
Si Si3 0.010717 0.767447 0.157780
Si Si4 0.112080 0.901417 0.779494
Si Si5 0.126868 0.943894 0.388406
Si Si6 0.547927 0.746094 0.988503
O O1 0.241241 0.021623 0.009762
O O2 0.162385 0.325340 0.931573
O O3 0.160675 0.316334 0.084267
O O4 0.253720 0.928011 0.666480
O O5 0.352904 0.621535 0.731242
O O6 0.953242 0.538564 0.143365
O O7 0.063937 0.753571 0.223921
O O8 0.067105 0.777523 0.092406
O O9 0.950917 0.987406 0.168233
O O10 0.164302 0.717769 0.826289
O O11 0.112773 0.765049 0.454748
O O12 0.500000 0.500000 0.000000
O O13 0.500000 0.000000 0.000000
#
# Coordination Sequence:
#
# PCOD9459927 Si02
#       6
#     8   8   8   8   8   8
#     4  10  24  46  69  95 128 174 231 285 331 393
#     4  10  25  48  71  97 132 182 230 275 340 407
#     4  11  24  42  62 101 139 179 220 273 347 413
#     4  12  24  41  68  97 142 178 220 281 340 411
#     4  11  24  41  65  98 131 178 222 281 333 401
#     4  10  21  39  62  88 126 168 214 260 318 389
#
# _framework density 26.608916000000001
#
# number of rings (size 3 to 8) (size 9 to 14) (size 15 to 20)
#    0.000    1.333    3.333    1.000    4.667    1.333 
#    0.000    5.000    0.000    0.000    0.000    0.000 
#    0.000    0.000    0.000    0.000    0.000    0.000 
#
# Total GULP energy -268201.848969 kJ/mol
# GULP energy per Si atom -5587.538520 kJ/mol
# Density = 2.654835 g / cm^3
# Si number density = 26.608916 Si / 1000 Ang^3
#
#
#
# Elastic Constant Matrix: (Units=GPa)
#
#
# Indices 1 2 3 4 5 6 
#
# 1 21.6565 24.5936 13.9031 0.0000 0.0000 0.0000
# 2 24.5936 146.1553 26.8785 0.0000 0.0000 0.0000
# 3 13.9031 26.8785 182.8955 0.0000 0.0000 0.0000
# 4 0.0000 0.0000 0.0000 21.5995 0.0000 0.0000
# 5 0.0000 0.0000 0.0000 0.0000 18.5936 0.0000
# 6 0.0000 0.0000 0.0000 0.0000 0.0000 50.5161
#
#
#
# Elastic Compliance Matrix: (Units=1/GPa)
#
#
# Indices 1 2 3 4 5 6 
#
# 1 0.058742 -0.009315 -0.003096 0.000000 0.000000 0.000000
# 2 -0.009315 0.008509 -0.000542 0.000000 0.000000 0.000000
# 3 -0.003096 -0.000542 0.005783 0.000000 0.000000 0.000000
# 4 0.000000 0.000000 0.000000 0.046297 0.000000 0.000000
# 5 0.000000 0.000000 0.000000 0.000000 0.053782 0.000000
# 6 0.000000 0.000000 0.000000 0.000000 0.000000 0.019796
#
#
# Mechanical properties :
#
#
# Convention : Reuss Voigt Hill
#
# Bulk Modulus (GPa) = 21.21973 53.49529 37.35751
# Shear Modulus (GPa) = 21.31970 37.16400 29.24185
#
# Velocity S-wave (km/s) = 2.83366 3.74127 3.31864
# Velocity P-wave (km/s) = 4.32414 6.22982 5.36231
#
# Compressibility (1/GPa) = 0.04712594
#
# Stress axis : x y z
#
# Youngs Moduli (GPa) = 17.02367 117.51944 172.92966
#
# Poissons Ratio (x) = 1.09470 0.53546
# Poissons Ratio (y) = 0.15858 0.09380
# Poissons Ratio (z) = 0.05271 0.06375
#
# Static dielectric constant tensor:
#      x y z
#    x 2.147370 0.000000 0.000000 
#    y 0.000000 2.071260 0.000000 
#    z 0.000000 0.000000 2.132610 
# 
# From -- ./inp_files/9811.got.cif
#   From: 2010.05.17/outbox.cif.g08.bks.cpg/sg61_5_cif.got.tgz:9811.got - 2010.06.03 15:17:17.
