data_PCOD9459316
_publ_section_title
;
Structure prediction by ZEFSAII (Michael W. Deem and Ramdas Pophale) SiO2 
 PCOD9459316
Probable space group: P B C A
;
_chemical_formula_sum "Si O2"
_cell_formula_units_Z 48
_cell_length_a 19.192467
_cell_length_b 10.317656
_cell_length_c 9.509552
_cell_angle_alpha 90.000000
_cell_angle_beta 90.000000
_cell_angle_gamma 90.000000
_cell_volume 1883.093586
_symmetry_space_group_name_H-M "P B C A"
_symmetry_group_IT_number 61
_symmetry_cell_setting 'orthorhombic'
loop_
_space_group_symop_operation_xyz
x,y,z
1/2-x,-y,1/2+z
1/2+x,1/2-y,-z
-x,1/2+y,1/2-z
-x,-y,-z
1/2+x,y,1/2-z
1/2-x,1/2+y,z
x,1/2-y,1/2+z
loop_
_atom_site_type_symbol
_atom_site_label
_atom_site_fract_x
_atom_site_fract_y
_atom_site_fract_z
Si Si1 0.095506 0.579557 0.080501
Si Si2 0.421695 0.461942 0.157214
Si Si3 0.060261 0.342390 0.878417
Si Si4 0.422568 0.560398 0.852396
Si Si5 0.730686 0.602204 0.807285
Si Si6 0.757855 0.156410 0.486185
O O1 0.115269 0.516834 0.230365
O O2 0.158164 0.661494 0.020848
O O3 0.023310 0.656876 0.097047
O O4 0.085551 0.456357 0.979782
O O5 0.420853 0.606339 0.223394
O O6 0.498295 0.417533 0.206588
O O7 0.353845 0.385634 0.205097
O O8 0.423376 0.472321 0.989828
O O9 0.096061 0.204867 0.898508
O O10 0.763219 0.708821 0.912927
O O11 0.758815 0.622688 0.648566
O O12 0.737499 0.463073 0.884256
#
# Coordination Sequence:
#
# PCOD9459316 Si02
#       6
#     8   8   8   8   8   8
#     4  10  22  39  66  95 139 176 231 278 354 418
#     4  10  22  41  62  99 139 178 231 283 348 424
#     4  10  19  39  61  99 136 183 221 289 343 420
#     4  10  21  35  65 101 138 183 226 280 351 418
#     4  12  28  51  76 103 142 186 245 298 361 423
#     4  12  28  51  75 105 138 191 240 301 358 426
#
# _framework density 25.489972000000002
#
# number of rings (size 3 to 8) (size 9 to 14) (size 15 to 20)
#    0.000    1.333    1.667    3.000    4.667    2.667 
#    6.000    0.000    0.000    0.000    0.000    0.000 
#    0.000    0.000    0.000    0.000    0.000    0.000 
#
# Total GULP energy -268573.286346 kJ/mol
# GULP energy per Si atom -5595.276799 kJ/mol
# Density = 2.543196 g / cm^3
# Si number density = 25.489972 Si / 1000 Ang^3
#
#
#
# Elastic Constant Matrix: (Units=GPa)
#
#
# Indices 1 2 3 4 5 6 
#
# 1 89.2206 -2.5756 17.9012 0.0000 0.0000 0.0000
# 2 -2.5756 88.2361 0.7347 0.0000 0.0000 0.0000
# 3 17.9012 0.7347 120.4381 0.0000 0.0000 0.0000
# 4 0.0000 0.0000 0.0000 29.3451 0.0000 0.0000
# 5 0.0000 0.0000 0.0000 0.0000 28.4822 0.0000
# 6 0.0000 0.0000 0.0000 0.0000 0.0000 22.5357
#
#
#
# Elastic Compliance Matrix: (Units=1/GPa)
#
#
# Indices 1 2 3 4 5 6 
#
# 1 0.011564 0.000352 -0.001721 0.000000 0.000000 0.000000
# 2 0.000352 0.011345 -0.000122 0.000000 0.000000 0.000000
# 3 -0.001721 -0.000122 0.008560 0.000000 0.000000 0.000000
# 4 0.000000 0.000000 0.000000 0.034077 0.000000 0.000000
# 5 0.000000 0.000000 0.000000 0.000000 0.035110 0.000000
# 6 0.000000 0.000000 0.000000 0.000000 0.000000 0.044374
#
#
# Mechanical properties :
#
#
# Convention : Reuss Voigt Hill
#
# Bulk Modulus (GPa) = 35.10420 36.66838 35.88629
# Shear Modulus (GPa) = 31.74499 34.86157 33.30328
#
# Velocity S-wave (km/s) = 3.53284 3.70220 3.61851
# Velocity P-wave (km/s) = 5.51751 5.71766 5.61848
#
# Compressibility (1/GPa) = 0.02848662
#
# Stress axis : x y z
#
# Youngs Moduli (GPa) = 86.47819 88.14831 116.82862
#
# Poissons Ratio (x) = -0.03102 0.20105
# Poissons Ratio (y) = -0.03043 0.01420
# Poissons Ratio (z) = 0.14882 0.01071
#
# Static dielectric constant tensor:
#      x y z
#    x 2.129270 0.000000 0.000000 
#    y 0.000000 2.000670 0.000000 
#    z 0.000000 0.000000 1.972280 
# 
# From -- ./inp_files/4219.got.cif
#   From: 2010.05.17/outbox.cif.g08.bks.cpg/sg61_3_cif.got.tgz:4219.got - 2010.06.03 15:17:17.
