data_PCOD9459187
_publ_section_title
;
Structure prediction by ZEFSAII (Michael W. Deem and Ramdas Pophale) SiO2 
 PCOD9459187
Probable space group: P B C A
;
_chemical_formula_sum "Si O2"
_cell_formula_units_Z 48
_cell_length_a 12.556570
_cell_length_b 8.088363
_cell_length_c 17.815483
_cell_angle_alpha 90.000000
_cell_angle_beta 90.000000
_cell_angle_gamma 90.000000
_cell_volume 1809.377798
_symmetry_space_group_name_H-M "P B C A"
_symmetry_group_IT_number 61
_symmetry_cell_setting 'orthorhombic'
loop_
_space_group_symop_operation_xyz
x,y,z
1/2-x,-y,1/2+z
1/2+x,1/2-y,-z
-x,1/2+y,1/2-z
-x,-y,-z
1/2+x,y,1/2-z
1/2-x,1/2+y,z
x,1/2-y,1/2+z
loop_
_atom_site_type_symbol
_atom_site_label
_atom_site_fract_x
_atom_site_fract_y
_atom_site_fract_z
Si Si1 0.084235 0.388580 0.726169
Si Si2 0.147428 0.802113 0.127296
Si Si3 0.642927 0.069980 0.862925
Si Si4 0.570432 0.186464 0.531508
Si Si5 0.576578 0.863805 0.604108
Si Si6 0.903735 0.494195 0.104677
O O1 0.128610 0.555338 0.688158
O O2 0.128362 0.208666 0.701805
O O3 0.100282 0.422554 0.813334
O O4 0.965212 0.381395 0.689413
O O5 0.165634 0.619130 0.159561
O O6 0.257478 0.860501 0.090478
O O7 0.044957 0.797294 0.074002
O O8 0.529637 0.048626 0.902705
O O9 0.532984 0.144000 0.447273
O O10 0.624515 0.360814 0.548223
O O11 0.627108 0.030776 0.571559
O O12 0.639986 0.692116 0.597050
#
# Coordination Sequence:
#
# PCOD9459187 Si02
#       6
#     8   8   8   8   8   8
#     4  10  21  33  53  88 111 144 191 237 286 331
#     4  10  19  34  53  80 108 147 193 228 284 334
#     4  10  20  32  52  82 110 147 182 243 272 340
#     4   9  19  34  54  81 109 144 187 232 283 332
#     4   9  19  33  52  81 113 140 179 234 281 327
#     4  10  21  32  56  86 112 145 189 238 285 336
#
# _framework density 26.528455999999998
#
# number of rings (size 3 to 8) (size 9 to 14) (size 15 to 20)
#    0.000    2.333    1.667    0.500   14.000    0.000 
#    0.000    0.000    0.000    0.000   34.667    0.000 
#    0.000    0.000    0.000    0.000    0.000    0.000 
#
# Total GULP energy -267965.487258 kJ/mol
# GULP energy per Si atom -5582.614318 kJ/mol
# Density = 2.646808 g / cm^3
# Si number density = 26.528456 Si / 1000 Ang^3
#
#
#
# Elastic Constant Matrix: (Units=GPa)
#
#
# Indices 1 2 3 4 5 6 
#
# 1 67.0978 30.8525 7.4236 0.0000 0.0000 0.0000
# 2 30.8525 285.9135 52.7750 0.0000 0.0000 0.0000
# 3 7.4236 52.7750 129.5389 0.0000 0.0000 0.0000
# 4 0.0000 0.0000 0.0000 24.1745 0.0000 0.0000
# 5 0.0000 0.0000 0.0000 0.0000 6.1376 0.0000
# 6 0.0000 0.0000 0.0000 0.0000 0.0000 29.8360
#
#
#
# Elastic Compliance Matrix: (Units=1/GPa)
#
#
# Indices 1 2 3 4 5 6 
#
# 1 0.015688 -0.001651 -0.000226 0.000000 0.000000 0.000000
# 2 -0.001651 0.003956 -0.001517 0.000000 0.000000 0.000000
# 3 -0.000226 -0.001517 0.008351 0.000000 0.000000 0.000000
# 4 0.000000 0.000000 0.000000 0.041366 0.000000 0.000000
# 5 0.000000 0.000000 0.000000 0.000000 0.162930 0.000000
# 6 0.000000 0.000000 0.000000 0.000000 0.000000 0.033517
#
#
# Mechanical properties :
#
#
# Convention : Reuss Voigt Hill
#
# Bulk Modulus (GPa) = 47.15773 73.85026 60.50400
# Shear Modulus (GPa) = 17.87858 38.12957 28.00407
#
# Velocity S-wave (km/s) = 2.59885 3.79530 3.25256
# Velocity P-wave (km/s) = 5.17883 6.86326 6.07966
#
# Compressibility (1/GPa) = 0.02120543
#
# Stress axis : x y z
#
# Youngs Moduli (GPa) = 63.74361 252.79764 119.75065
#
# Poissons Ratio (x) = 0.41739 0.02711
# Poissons Ratio (y) = 0.10524 0.18166
# Poissons Ratio (z) = 0.01443 0.38349
#
# Static dielectric constant tensor:
#      x y z
#    x 2.118340 0.000000 0.000000 
#    y 0.000000 2.188150 0.000000 
#    z 0.000000 0.000000 2.090650 
# 
# From -- ./inp_files/3503.got.cif
#   From: 2010.05.17/outbox.cif.g08.bks.cpg/sg61_2_cif.got.tgz:3503.got - 2010.06.03 15:17:17.
