data_PCOD9459514
_publ_section_title
;
Structure prediction by ZEFSAII (Michael W. Deem and Ramdas Pophale) SiO2 
 PCOD9459514
Probable space group: P B C A
;
_chemical_formula_sum "Si O2"
_cell_formula_units_Z 48
_cell_length_a 8.613759
_cell_length_b 15.965458
_cell_length_c 18.570047
_cell_angle_alpha 90.000000
_cell_angle_beta 90.000000
_cell_angle_gamma 90.000000
_cell_volume 2553.801286
_symmetry_space_group_name_H-M "P B C A"
_symmetry_group_IT_number 61
_symmetry_cell_setting 'orthorhombic'
loop_
_space_group_symop_operation_xyz
x,y,z
1/2-x,-y,1/2+z
1/2+x,1/2-y,-z
-x,1/2+y,1/2-z
-x,-y,-z
1/2+x,y,1/2-z
1/2-x,1/2+y,z
x,1/2-y,1/2+z
loop_
_atom_site_type_symbol
_atom_site_label
_atom_site_fract_x
_atom_site_fract_y
_atom_site_fract_z
Si Si1 0.671992 0.272648 0.032710
Si Si2 0.411454 0.662032 0.341284
Si Si3 0.561356 0.996288 0.919038
Si Si4 0.044482 0.662903 0.317308
Si Si5 0.482009 0.816427 0.087733
Si Si6 0.909912 0.561429 0.446031
O O1 0.577820 0.240046 0.102684
O O2 0.849540 0.294512 0.052636
O O3 0.648528 0.199765 0.973245
O O4 0.607135 0.353958 0.992900
O O5 0.470849 0.578537 0.380443
O O6 0.229173 0.661265 0.324469
O O7 0.499824 0.662703 0.265886
O O8 0.528317 0.088147 0.886883
O O9 0.742596 0.974930 0.924672
O O10 0.500000 0.000000 0.000000
O O11 0.969925 0.747772 0.349957
O O12 0.988287 0.588633 0.370564
O O13 0.000000 0.500000 0.500000
#
# Coordination Sequence:
#
# PCOD9459514 Si02
#       6
#     8   8   8   8   8   8
#     4  10  20  37  61  87 121 159 205 250 310 369
#     4  11  22  42  64  87 127 166 204 264 314 375
#     4  12  21  39  66  95 126 163 209 264 313 366
#     4  10  24  43  61  89 126 167 209 252 322 377
#     4  10  22  38  63  93 120 164 206 254 309 376
#     4  11  23  39  62  94 123 161 212 260 310 375
#
# _framework density 18.795511000000001
#
# number of rings (size 3 to 8) (size 9 to 14) (size 15 to 20)
#    0.000    1.333    3.333    2.000    4.667    1.333 
#    3.000    1.667    0.000    0.000    0.000    0.000 
#    0.000    0.000    0.000    0.000    0.000    0.000 
#
# Total GULP energy -267813.556846 kJ/mol
# GULP energy per Si atom -5579.449101 kJ/mol
# Density = 1.875273 g / cm^3
# Si number density = 18.795511 Si / 1000 Ang^3
#
#
#
# Elastic Constant Matrix: (Units=GPa)
#
#
# Indices 1 2 3 4 5 6 
#
# 1 56.3025 23.6811 23.4137 0.0000 0.0000 0.0000
# 2 23.6811 102.5794 38.1449 0.0000 0.0000 0.0000
# 3 23.4137 38.1449 119.1038 0.0000 0.0000 0.0000
# 4 0.0000 0.0000 0.0000 24.2762 0.0000 0.0000
# 5 0.0000 0.0000 0.0000 0.0000 32.3687 0.0000
# 6 0.0000 0.0000 0.0000 0.0000 0.0000 25.9658
#
#
#
# Elastic Compliance Matrix: (Units=1/GPa)
#
#
# Indices 1 2 3 4 5 6 
#
# 1 0.020491 -0.003670 -0.002853 0.000000 0.000000 0.000000
# 2 -0.003670 0.011724 -0.003033 0.000000 0.000000 0.000000
# 3 -0.002853 -0.003033 0.009928 0.000000 0.000000 0.000000
# 4 0.000000 0.000000 0.000000 0.041193 0.000000 0.000000
# 5 0.000000 0.000000 0.000000 0.000000 0.030894 0.000000
# 6 0.000000 0.000000 0.000000 0.000000 0.000000 0.038512
#
#
# Mechanical properties :
#
#
# Convention : Reuss Voigt Hill
#
# Bulk Modulus (GPa) = 43.41907 49.82947 46.62427
# Shear Modulus (GPa) = 27.85039 29.37187 28.61113
#
# Velocity S-wave (km/s) = 3.85354 3.95740 3.90581
# Velocity P-wave (km/s) = 6.55367 6.88841 6.72312
#
# Compressibility (1/GPa) = 0.02303136
#
# Stress axis : x y z
#
# Youngs Moduli (GPa) = 48.80182 85.29762 100.72177
#
# Poissons Ratio (x) = 0.31301 0.28735
# Poissons Ratio (y) = 0.17908 0.30552
# Poissons Ratio (z) = 0.13923 0.25873
#
# Static dielectric constant tensor:
#      x y z
#    x 1.646130 0.000000 0.000000 
#    y 0.000000 1.706660 0.000000 
#    z 0.000000 0.000000 1.586520 
# 
# From -- ./inp_files/2849.got.cif
#   From: 2010.05.17/outbox.cif.g08.bks.cpg/sg61_2_cif.got.tgz:2849.got - 2010.06.03 15:17:17.
