data_PCOD9459438
_publ_section_title
;
Structure prediction by ZEFSAII (Michael W. Deem and Ramdas Pophale) SiO2 
 PCOD9459438
Probable space group: P B C A
;
_chemical_formula_sum "Si O2"
_cell_formula_units_Z 56
_cell_length_a 5.022388
_cell_length_b 24.315170
_cell_length_c 23.006500
_cell_angle_alpha 90.000000
_cell_angle_beta 90.000000
_cell_angle_gamma 90.000000
_cell_volume 2809.558796
_symmetry_space_group_name_H-M "P B C A"
_symmetry_group_IT_number 61
_symmetry_cell_setting 'orthorhombic'
loop_
_space_group_symop_operation_xyz
x,y,z
1/2-x,-y,1/2+z
1/2+x,1/2-y,-z
-x,1/2+y,1/2-z
-x,-y,-z
1/2+x,y,1/2-z
1/2-x,1/2+y,z
x,1/2-y,1/2+z
loop_
_atom_site_type_symbol
_atom_site_label
_atom_site_fract_x
_atom_site_fract_y
_atom_site_fract_z
Si Si1 0.314895 0.656842 0.599520
Si Si2 0.424049 0.496699 0.286018
Si Si3 0.108802 0.864372 0.286332
Si Si4 0.017749 0.015806 0.416053
Si Si5 0.361138 0.378983 0.516796
Si Si6 0.474326 0.440263 0.060326
Si Si7 0.906266 0.259324 0.962286
O O1 0.508071 0.661307 0.653891
O O2 0.482325 0.637907 0.542350
O O3 0.166511 0.713098 0.584281
O O4 0.107551 0.606242 0.607176
O O5 0.630254 0.511573 0.235211
O O6 0.420336 0.430430 0.293591
O O7 0.517667 0.521177 0.347015
O O8 0.901070 0.849647 0.235205
O O9 0.009445 0.074380 0.446874
O O10 0.780412 0.979613 0.444133
O O11 0.284383 0.980092 0.423023
O O12 0.083251 0.405195 0.494421
O O13 0.339616 0.322364 0.552059
O O14 0.710423 0.246276 0.017007
#
# Coordination Sequence:
#
# PCOD9459438 Si02
#       7
#     8   8   8   8   8   8   8
#     4  11  23  39  60  85 121 148 195 242 291 342
#     4  10  20  36  53  78 111 151 190 235 283 341
#     4  10  22  34  56  81 112 148 189 236 290 338
#     4  12  25  35  58  87 121 152 192 235 296 353
#     4  11  24  39  59  87 121 156 192 230 295 352
#     4  12  22  36  55  89 116 152 178 236 297 340
#     4  10  22  38  59  82 109 151 187 228 275 340
#
# _framework density 19.931956
#
# number of rings (size 3 to 8) (size 9 to 14) (size 15 to 20)
#    0.000    1.143    4.286    1.714    8.000    0.000 
#    0.000    0.000    0.000    1.714    0.000    0.000 
#    0.000    0.000    0.000    0.000    0.000    0.000 
#
# Total GULP energy -313090.956516 kJ/mol
# GULP energy per Si atom -5590.909938 kJ/mol
# Density = 1.988659 g / cm^3
# Si number density = 19.931956 Si / 1000 Ang^3
#
#
#
# Elastic Constant Matrix: (Units=GPa)
#
#
# Indices 1 2 3 4 5 6 
#
# 1 77.5204 17.0574 -2.6537 0.0000 0.0000 0.0000
# 2 17.0574 119.8007 24.2072 0.0000 0.0000 0.0000
# 3 -2.6537 24.2072 60.9298 0.0000 0.0000 0.0000
# 4 0.0000 0.0000 0.0000 16.7622 0.0000 0.0000
# 5 0.0000 0.0000 0.0000 0.0000 21.1280 0.0000
# 6 0.0000 0.0000 0.0000 0.0000 0.0000 14.7852
#
#
#
# Elastic Compliance Matrix: (Units=1/GPa)
#
#
# Indices 1 2 3 4 5 6 
#
# 1 0.013436 -0.002209 0.001463 0.000000 0.000000 0.000000
# 2 -0.002209 0.009439 -0.003846 0.000000 0.000000 0.000000
# 3 0.001463 -0.003846 0.018004 0.000000 0.000000 0.000000
# 4 0.000000 0.000000 0.000000 0.059658 0.000000 0.000000
# 5 0.000000 0.000000 0.000000 0.000000 0.047331 0.000000
# 6 0.000000 0.000000 0.000000 0.000000 0.000000 0.067635
#
#
# Mechanical properties :
#
#
# Convention : Reuss Voigt Hill
#
# Bulk Modulus (GPa) = 31.55118 37.27476 34.41297
# Shear Modulus (GPa) = 21.25382 25.17774 23.21578
#
# Velocity S-wave (km/s) = 3.26900 3.55799 3.41655
# Velocity P-wave (km/s) = 5.48746 5.96830 5.73293
#
# Compressibility (1/GPa) = 0.03169453
#
# Stress axis : x y z
#
# Youngs Moduli (GPa) = 74.42761 105.94533 55.54286
#
# Poissons Ratio (x) = 0.23399 -0.08124
# Poissons Ratio (y) = 0.16438 0.21363
# Poissons Ratio (z) = -0.10886 0.40749
#
# Static dielectric constant tensor:
#      x y z
#    x 1.764010 0.000000 0.000000 
#    y 0.000000 1.697840 0.000000 
#    z 0.000000 0.000000 1.727430 
# 
# From -- ./inp_files/10766.got.cif
#   From: 2010.05.17/outbox.cif.g08.bks.cpg/sg61_6_cif.got.tgz:10766.got - 2010.06.03 15:17:17.
