data_PCOD9459959
_publ_section_title
;
Structure prediction by ZEFSAII (Michael W. Deem and Ramdas Pophale) SiO2 
 PCOD9459959
Probable space group: P B C A
;
_chemical_formula_sum "Si O2"
_cell_formula_units_Z 64
_cell_length_a 8.803233
_cell_length_b 11.661620
_cell_length_c 28.577801
_cell_angle_alpha 90.000000
_cell_angle_beta 90.000000
_cell_angle_gamma 90.000000
_cell_volume 2933.795851
_symmetry_space_group_name_H-M "P B C A"
_symmetry_group_IT_number 61
_symmetry_cell_setting 'orthorhombic'
loop_
_space_group_symop_operation_xyz
x,y,z
1/2-x,-y,1/2+z
1/2+x,1/2-y,-z
-x,1/2+y,1/2-z
-x,-y,-z
1/2+x,y,1/2-z
1/2-x,1/2+y,z
x,1/2-y,1/2+z
loop_
_atom_site_type_symbol
_atom_site_label
_atom_site_fract_x
_atom_site_fract_y
_atom_site_fract_z
Si Si1 0.743963 0.507398 0.509273
Si Si2 0.241820 0.289332 0.710619
Si Si3 0.191110 0.413507 0.278437
Si Si4 0.836838 0.607548 0.869517
Si Si5 0.546119 0.030367 0.340189
Si Si6 0.535649 0.330245 0.469947
Si Si7 0.982281 0.583018 0.440133
Si Si8 0.498896 0.037087 0.198574
O O1 0.654487 0.386773 0.505894
O O2 0.618841 0.599443 0.523673
O O3 0.820391 0.536832 0.459112
O O4 0.883988 0.501780 0.544556
O O5 0.236293 0.213922 0.758932
O O6 0.192956 0.208649 0.667668
O O7 0.118416 0.392204 0.701672
O O8 0.412452 0.340395 0.703097
O O9 0.330466 0.498856 0.289959
O O10 0.073418 0.438292 0.320331
O O11 0.102270 0.463240 0.234231
O O12 0.681866 0.538326 0.864113
O O13 0.886137 0.652282 0.919464
O O14 0.963838 0.517736 0.851832
O O15 0.493026 0.104334 0.384844
O O16 0.500257 0.197064 0.471217
#
# Coordination Sequence:
#
# PCOD9459959 Si02
#       8
#     8   8   8   8   8   8   8   8
#     4  10  24  40  69 100 141 177 225 282 330 403
#     4  10  22  45  66  91 133 177 217 282 340 394
#     4  11  24  42  65  95 130 174 226 279 332 404
#     4  10  21  39  64  97 131 176 223 274 326 406
#     4  11  23  41  69  99 134 176 226 276 337 406
#     4  11  21  42  69  99 134 184 223 270 343 402
#     4  11  22  43  66 101 140 178 225 279 339 398
#     4  10  23  40  64  92 127 171 227 271 336 396
#
# _framework density 21.814743
#
# number of rings (size 3 to 8) (size 9 to 14) (size 15 to 20)
#    0.000    1.500    2.500    3.000    1.750    6.000 
#    0.000    2.500    0.000    0.000    0.000    0.000 
#    0.000    0.000    0.000    0.000    0.000    0.000 
#
# Total GULP energy -356559.374127 kJ/mol
# GULP energy per Si atom -5571.240221 kJ/mol
# Density = 2.176509 g / cm^3
# Si number density = 21.814743 Si / 1000 Ang^3
#
#
#
# Elastic Constant Matrix: (Units=GPa)
#
#
# Indices 1 2 3 4 5 6 
#
# 1 101.8472 24.4076 24.2752 0.0000 0.0000 0.0000
# 2 24.4076 68.6035 16.0173 0.0000 0.0000 0.0000
# 3 24.2752 16.0173 56.1879 0.0000 0.0000 0.0000
# 4 0.0000 0.0000 0.0000 17.6708 0.0000 0.0000
# 5 0.0000 0.0000 0.0000 0.0000 0.2348 0.0000
# 6 0.0000 0.0000 0.0000 0.0000 0.0000 54.7537
#
#
#
# Elastic Compliance Matrix: (Units=1/GPa)
#
#
# Indices 1 2 3 4 5 6 
#
# 1 0.011549 -0.003154 -0.004091 0.000000 0.000000 0.000000
# 2 -0.003154 0.016477 -0.003334 0.000000 0.000000 0.000000
# 3 -0.004091 -0.003334 0.020515 0.000000 0.000000 0.000000
# 4 0.000000 0.000000 0.000000 0.056591 0.000000 0.000000
# 5 0.000000 0.000000 0.000000 0.000000 4.259346 0.000000
# 6 0.000000 0.000000 0.000000 0.000000 0.000000 0.018264
#
#
# Mechanical properties :
#
#
# Convention : Reuss Voigt Hill
#
# Bulk Modulus (GPa) = 36.51813 39.55987 38.03900
# Shear Modulus (GPa) = 1.13301 25.32775 13.23038
#
# Velocity S-wave (km/s) = 0.72146 3.41110 2.46537
# Velocity P-wave (km/s) = 4.17977 5.80413 5.05759
#
# Compressibility (1/GPa) = 0.02738366
#
# Stress axis : x y z
#
# Youngs Moduli (GPa) = 86.58393 60.69010 48.74414
#
# Poissons Ratio (x) = 0.19141 0.19940
# Poissons Ratio (y) = 0.27308 0.16254
# Poissons Ratio (z) = 0.35419 0.20237
#
# Static dielectric constant tensor:
#      x y z
#    x 1.829550 0.000000 0.000000 
#    y 0.000000 1.886880 0.000000 
#    z 0.000000 0.000000 1.858090 
# 
# From -- ./inp_files/11739.got.cif
#   From: 2010.05.17/outbox.cif.g08.bks.cpg/sg61_6_cif.got.tgz:11739.got - 2010.06.03 15:17:17.
