data_PCOD9459277
_publ_section_title
;
Structure prediction by ZEFSAII (Michael W. Deem and Ramdas Pophale) SiO2 
 PCOD9459277
Probable space group: P B C A
;
_chemical_formula_sum "Si O2"
_cell_formula_units_Z 64
_cell_length_a 15.335010
_cell_length_b 13.782111
_cell_length_c 14.441289
_cell_angle_alpha 90.000000
_cell_angle_beta 90.000000
_cell_angle_gamma 90.000000
_cell_volume 3052.149245
_symmetry_space_group_name_H-M "P B C A"
_symmetry_group_IT_number 61
_symmetry_cell_setting 'orthorhombic'
loop_
_space_group_symop_operation_xyz
x,y,z
1/2-x,-y,1/2+z
1/2+x,1/2-y,-z
-x,1/2+y,1/2-z
-x,-y,-z
1/2+x,y,1/2-z
1/2-x,1/2+y,z
x,1/2-y,1/2+z
loop_
_atom_site_type_symbol
_atom_site_label
_atom_site_fract_x
_atom_site_fract_y
_atom_site_fract_z
Si Si1 0.714985 0.086357 0.222206
Si Si2 0.250068 0.274313 0.211929
Si Si3 0.621134 0.563716 0.841609
Si Si4 0.555015 0.248184 0.857434
Si Si5 0.979215 0.858398 0.035605
Si Si6 0.473837 0.541724 0.685700
Si Si7 0.672003 0.073433 0.659265
Si Si8 0.968944 0.831636 0.660182
O O1 0.780512 0.168951 0.256865
O O2 0.632556 0.136520 0.172345
O O3 0.682027 0.026985 0.313306
O O4 0.760583 0.013359 0.151933
O O5 0.318378 0.341361 0.160074
O O6 0.160026 0.256303 0.155903
O O7 0.224146 0.333232 0.304646
O O8 0.558665 0.573810 0.930414
O O9 0.555067 0.559966 0.754523
O O10 0.529199 0.136732 0.879197
O O11 0.514120 0.280945 0.759625
O O12 0.526721 0.329330 0.929641
O O13 0.889800 0.904005 0.074072
O O14 0.985403 0.753683 0.087728
O O15 0.390467 0.548391 0.753261
O O16 0.482375 0.433876 0.645299
#
# Coordination Sequence:
#
# PCOD9459277 Si02
#       8
#     8   8   8   8   8   8   8   8
#     4   9  17  31  59  77 108 153 193 230 282 337
#     4   9  17  35  56  79 107 152 193 228 290 335
#     4   9  18  33  55  84 111 145 192 240 275 345
#     4  10  20  37  60  83 117 154 183 240 294 342
#     4  11  20  36  60  83 121 149 189 241 297 339
#     4   9  18  34  58  83 108 147 190 227 285 338
#     4   9  17  33  55  80 108 149 186 231 283 340
#     4  10  19  37  57  81 114 150 193 235 284 342
#
# _framework density 20.968830000000001
#
# number of rings (size 3 to 8) (size 9 to 14) (size 15 to 20)
#    0.000    2.500    5.000    0.000    1.750    0.500 
#    0.000   13.750   22.000    0.000    0.000    0.000 
#    0.000    0.000    0.000    0.000    0.000    0.000 
#
# Total GULP energy -356881.545754 kJ/mol
# GULP energy per Si atom -5576.274152 kJ/mol
# Density = 2.092110 g / cm^3
# Si number density = 20.968830 Si / 1000 Ang^3
#
#
#
# Elastic Constant Matrix: (Units=GPa)
#
#
# Indices 1 2 3 4 5 6 
#
# 1 30.8800 21.1071 -1.3910 0.0000 0.0000 0.0000
# 2 21.1071 123.3210 1.2143 0.0000 0.0000 0.0000
# 3 -1.3910 1.2143 27.3595 0.0000 0.0000 0.0000
# 4 0.0000 0.0000 0.0000 13.6204 0.0000 0.0000
# 5 0.0000 0.0000 0.0000 0.0000 5.6563 0.0000
# 6 0.0000 0.0000 0.0000 0.0000 0.0000 36.6847
#
#
#
# Elastic Compliance Matrix: (Units=1/GPa)
#
#
# Indices 1 2 3 4 5 6 
#
# 1 0.036800 -0.006320 0.002152 0.000000 0.000000 0.000000
# 2 -0.006320 0.009198 -0.000730 0.000000 0.000000 0.000000
# 3 0.002152 -0.000730 0.036692 0.000000 0.000000 0.000000
# 4 0.000000 0.000000 0.000000 0.073419 0.000000 0.000000
# 5 0.000000 0.000000 0.000000 0.000000 0.176793 0.000000
# 6 0.000000 0.000000 0.000000 0.000000 0.000000 0.027259
#
#
# Mechanical properties :
#
#
# Convention : Reuss Voigt Hill
#
# Bulk Modulus (GPa) = 13.71846 24.82459 19.27153
# Shear Modulus (GPa) = 12.68213 21.90095 17.29154
#
# Velocity S-wave (km/s) = 2.46195 3.23531 2.87475
# Velocity P-wave (km/s) = 3.82598 5.08141 4.49772
#
# Compressibility (1/GPa) = 0.07289448
#
# Stress axis : x y z
#
# Youngs Moduli (GPa) = 27.17389 108.72212 27.25375
#
# Poissons Ratio (x) = 0.68709 -0.05864
# Poissons Ratio (y) = 0.17173 0.01988
# Poissons Ratio (z) = -0.05847 0.07932
#
# Static dielectric constant tensor:
#      x y z
#    x 1.803160 0.000000 0.000000 
#    y 0.000000 1.664550 0.000000 
#    z 0.000000 0.000000 1.731320 
# 
# From -- ./inp_files/8272.got.cif
#   From: 2010.05.17/outbox.cif.g08.bks.cpg/sg61_5_cif.got.tgz:8272.got - 2010.06.03 15:17:17.
