data_PCOD9459040
_publ_section_title
;
Structure prediction by ZEFSAII (Michael W. Deem and Ramdas Pophale) SiO2 
 PCOD9459040
Probable space group: P B C A
;
_chemical_formula_sum "Si O2"
_cell_formula_units_Z 56
_cell_length_a 8.591740
_cell_length_b 18.820991
_cell_length_c 14.312703
_cell_angle_alpha 90.000000
_cell_angle_beta 90.000000
_cell_angle_gamma 90.000000
_cell_volume 2314.436515
_symmetry_space_group_name_H-M "P B C A"
_symmetry_group_IT_number 61
_symmetry_cell_setting 'orthorhombic'
loop_
_space_group_symop_operation_xyz
x,y,z
1/2-x,-y,1/2+z
1/2+x,1/2-y,-z
-x,1/2+y,1/2-z
-x,-y,-z
1/2+x,y,1/2-z
1/2-x,1/2+y,z
x,1/2-y,1/2+z
loop_
_atom_site_type_symbol
_atom_site_label
_atom_site_fract_x
_atom_site_fract_y
_atom_site_fract_z
Si Si1 0.227527 0.553444 0.190092
Si Si2 0.913632 0.608390 0.140857
Si Si3 0.474231 0.879368 0.488708
Si Si4 0.970577 0.171583 0.710389
Si Si5 0.180478 0.264789 0.380654
Si Si6 0.857860 0.018572 0.114681
Si Si7 0.236169 0.597890 0.641860
O O1 0.345055 0.599938 0.252673
O O2 0.135150 0.512103 0.273929
O O3 0.280640 0.486721 0.128902
O O4 0.097852 0.599229 0.138638
O O5 0.860223 0.683594 0.103790
O O6 0.817295 0.545016 0.092047
O O7 0.364095 0.812806 0.470342
O O8 0.529278 0.916642 0.583513
O O9 0.635896 0.863195 0.436589
O O10 0.396775 0.944678 0.432117
O O11 0.858347 0.223207 0.651708
O O12 0.853044 0.117826 0.762341
O O13 0.071748 0.209743 0.792212
O O14 0.091193 0.127750 0.647929
#
# Coordination Sequence:
#
# PCOD9459040 Si02
#       7
#     8   8   8   8   8   8   8
#     4  10  19  33  60  82 116 145 190 244 279 337
#     4  10  21  34  57  81 114 146 189 233 286 342
#     4  10  20  38  61  79 116 155 189 234 288 347
#     4   9  18  30  54  85 112 139 190 243 275 328
#     4  10  19  34  57  83 113 150 186 238 285 339
#     4   9  21  37  59  81 113 150 189 230 296 338
#     4  10  18  32  57  86 108 144 193 235 287 321
#
# _framework density 24.195955000000001
#
# number of rings (size 3 to 8) (size 9 to 14) (size 15 to 20)
#    0.857    1.429    0.000    5.143    2.000    0.000 
#    0.000    2.143   15.714    0.000    0.000    0.000 
#    0.000    0.000    0.000    0.000    0.000    0.000 
#
# Total GULP energy -312775.156135 kJ/mol
# GULP energy per Si atom -5585.270645 kJ/mol
# Density = 2.414088 g / cm^3
# Si number density = 24.195955 Si / 1000 Ang^3
#
#
#
# Elastic Constant Matrix: (Units=GPa)
#
#
# Indices 1 2 3 4 5 6 
#
# 1 76.8500 26.2568 -1.8456 0.0000 0.0000 0.0000
# 2 26.2568 85.8099 -11.3440 0.0000 0.0000 0.0000
# 3 -1.8456 -11.3440 29.5677 0.0000 0.0000 0.0000
# 4 0.0000 0.0000 0.0000 14.6268 0.0000 0.0000
# 5 0.0000 0.0000 0.0000 0.0000 21.8169 0.0000
# 6 0.0000 0.0000 0.0000 0.0000 0.0000 31.2970
#
#
#
# Elastic Compliance Matrix: (Units=1/GPa)
#
#
# Indices 1 2 3 4 5 6 
#
# 1 0.014551 -0.004564 -0.000843 0.000000 0.000000 0.000000
# 2 -0.004564 0.013708 0.004974 0.000000 0.000000 0.000000
# 3 -0.000843 0.004974 0.035677 0.000000 0.000000 0.000000
# 4 0.000000 0.000000 0.000000 0.068368 0.000000 0.000000
# 5 0.000000 0.000000 0.000000 0.000000 0.045836 0.000000
# 6 0.000000 0.000000 0.000000 0.000000 0.000000 0.031952
#
#
# Mechanical properties :
#
#
# Convention : Reuss Voigt Hill
#
# Bulk Modulus (GPa) = 15.85514 24.26242 20.05878
# Shear Modulus (GPa) = 21.55359 25.49217 23.52288
#
# Velocity S-wave (km/s) = 2.98785 3.24940 3.12137
# Velocity P-wave (km/s) = 4.29768 4.91196 4.61505
#
# Compressibility (1/GPa) = 0.06307103
#
# Stress axis : x y z
#
# Youngs Moduli (GPa) = 68.72165 72.95124 28.02959
#
# Poissons Ratio (x) = 0.33295 0.02362
# Poissons Ratio (y) = 0.31364 -0.13943
# Poissons Ratio (z) = 0.05791 -0.36288
#
# Static dielectric constant tensor:
#      x y z
#    x 1.978540 0.000000 0.000000 
#    y 0.000000 1.885320 0.000000 
#    z 0.000000 0.000000 1.999410 
# 
# From -- ./inp_files/9027.got.cif
#   From: 2010.05.17/outbox.cif.g08.bks.cpg/sg61_5_cif.got.tgz:9027.got - 2010.06.03 15:17:17.
