data_PCOD9459840
_publ_section_title
;
Structure prediction by ZEFSAII (Michael W. Deem and Ramdas Pophale) SiO2 
 PCOD9459840
Probable space group: P B C A
;
_chemical_formula_sum "Si O2"
_cell_formula_units_Z 56
_cell_length_a 12.847330
_cell_length_b 10.707291
_cell_length_c 14.720205
_cell_angle_alpha 90.000000
_cell_angle_beta 90.000000
_cell_angle_gamma 90.000000
_cell_volume 2024.912885
_symmetry_space_group_name_H-M "P B C A"
_symmetry_group_IT_number 61
_symmetry_cell_setting 'orthorhombic'
loop_
_space_group_symop_operation_xyz
x,y,z
1/2-x,-y,1/2+z
1/2+x,1/2-y,-z
-x,1/2+y,1/2-z
-x,-y,-z
1/2+x,y,1/2-z
1/2-x,1/2+y,z
x,1/2-y,1/2+z
loop_
_atom_site_type_symbol
_atom_site_label
_atom_site_fract_x
_atom_site_fract_y
_atom_site_fract_z
Si Si1 0.162128 0.397212 0.146145
Si Si2 0.039044 0.058072 0.368819
Si Si3 0.588659 0.745646 0.450927
Si Si4 0.183171 0.771816 0.737285
Si Si5 0.771930 0.052482 0.529402
Si Si6 0.422552 0.432038 0.895923
Si Si7 0.618556 0.133214 0.313514
O O1 0.061715 0.482575 0.166698
O O2 0.239254 0.348314 0.227921
O O3 0.110842 0.259977 0.129335
O O4 0.216870 0.454020 0.055489
O O5 0.997349 0.136811 0.453777
O O6 0.136421 0.977230 0.399645
O O7 0.082307 0.145927 0.289921
O O8 0.605124 0.760481 0.343724
O O9 0.695966 0.686388 0.489801
O O10 0.559164 0.861470 0.509891
O O11 0.130728 0.828791 0.826683
O O12 0.258037 0.884088 0.698892
O O13 0.662185 0.036197 0.579033
O O14 0.535615 0.461539 0.854892
#
# Coordination Sequence:
#
# PCOD9459840 Si02
#       7
#     8   8   8   8   8   8   8
#     4   9  20  39  59  87 124 157 203 255 303 371
#     4  11  20  38  63  93 122 165 211 250 310 377
#     4  11  23  39  64  91 124 166 210 254 308 378
#     4  10  22  41  59  89 128 160 201 265 308 367
#     4  11  21  38  64  89 122 167 209 251 308 383
#     4  12  21  40  61  91 122 162 210 253 314 365
#     4  10  21  37  61  90 127 157 206 264 306 364
#
# _framework density 27.655511000000001
#
# number of rings (size 3 to 8) (size 9 to 14) (size 15 to 20)
#    0.857    0.571    4.286    3.429    0.000    1.143 
#    0.000    2.143    0.000    0.000    0.000    0.000 
#    0.000    0.000    0.000    0.000    0.000    0.000 
#
# Total GULP energy -312969.403943 kJ/mol
# GULP energy per Si atom -5588.739356 kJ/mol
# Density = 2.759257 g / cm^3
# Si number density = 27.655511 Si / 1000 Ang^3
#
#
#
# Elastic Constant Matrix: (Units=GPa)
#
#
# Indices 1 2 3 4 5 6 
#
# 1 118.0196 6.5324 33.6755 0.0000 0.0000 0.0000
# 2 6.5324 64.3805 17.5117 0.0000 0.0000 0.0000
# 3 33.6755 17.5117 117.8000 0.0000 0.0000 0.0000
# 4 0.0000 0.0000 0.0000 43.5743 0.0000 0.0000
# 5 0.0000 0.0000 0.0000 0.0000 50.6680 0.0000
# 6 0.0000 0.0000 0.0000 0.0000 0.0000 30.1273
#
#
#
# Elastic Compliance Matrix: (Units=1/GPa)
#
#
# Indices 1 2 3 4 5 6 
#
# 1 0.009229 -0.000228 -0.002604 0.000000 0.000000 0.000000
# 2 -0.000228 0.016193 -0.002342 0.000000 0.000000 0.000000
# 3 -0.002604 -0.002342 0.009582 0.000000 0.000000 0.000000
# 4 0.000000 0.000000 0.000000 0.022949 0.000000 0.000000
# 5 0.000000 0.000000 0.000000 0.000000 0.019736 0.000000
# 6 0.000000 0.000000 0.000000 0.000000 0.000000 0.033193
#
#
# Mechanical properties :
#
#
# Convention : Reuss Voigt Hill
#
# Bulk Modulus (GPa) = 40.56034 46.18213 43.37123
# Shear Modulus (GPa) = 38.62541 41.03928 39.83235
#
# Velocity S-wave (km/s) = 3.74125 3.85638 3.79925
# Velocity P-wave (km/s) = 5.77587 6.04684 5.91291
#
# Compressibility (1/GPa) = 0.02465463
#
# Stress axis : x y z
#
# Youngs Moduli (GPa) = 108.35505 61.75577 104.36639
#
# Poissons Ratio (x) = 0.01408 0.27181
# Poissons Ratio (y) = 0.02471 0.24442
# Poissons Ratio (z) = 0.28220 0.14463
#
# Static dielectric constant tensor:
#      x y z
#    x 2.218090 0.000000 0.000000 
#    y 0.000000 2.190590 0.000000 
#    z 0.000000 0.000000 2.102400 
# 
# From -- ./inp_files/7921.got.cif
#   From: 2010.05.17/outbox.cif.g08.bks.cpg/sg61_4_cif.got.tgz:7921.got - 2010.06.03 15:17:17.
