data_PCOD9459347
_publ_section_title
;
Structure prediction by ZEFSAII (Michael W. Deem and Ramdas Pophale) SiO2 
 PCOD9459347
Probable space group: P B C A
;
_chemical_formula_sum "Si O2"
_cell_formula_units_Z 48
_cell_length_a 14.274684
_cell_length_b 19.398030
_cell_length_c 9.012830
_cell_angle_alpha 90.000000
_cell_angle_beta 90.000000
_cell_angle_gamma 90.000000
_cell_volume 2495.659373
_symmetry_space_group_name_H-M "P B C A"
_symmetry_group_IT_number 61
_symmetry_cell_setting 'orthorhombic'
loop_
_space_group_symop_operation_xyz
x,y,z
1/2-x,-y,1/2+z
1/2+x,1/2-y,-z
-x,1/2+y,1/2-z
-x,-y,-z
1/2+x,y,1/2-z
1/2-x,1/2+y,z
x,1/2-y,1/2+z
loop_
_atom_site_type_symbol
_atom_site_label
_atom_site_fract_x
_atom_site_fract_y
_atom_site_fract_z
Si Si1 0.946022 0.727585 0.778125
Si Si2 0.000811 0.878182 0.778478
Si Si3 0.982553 0.093995 0.880504
Si Si4 0.867310 0.493515 0.758627
Si Si5 0.352481 0.674644 0.422141
Si Si6 0.221387 0.934972 0.028715
O O1 0.857160 0.759129 0.686390
O O2 0.010845 0.795477 0.795252
O O3 0.996485 0.669350 0.683521
O O4 0.911111 0.697187 0.933266
O O5 0.910093 0.882450 0.673147
O O6 0.086191 0.919480 0.705750
O O7 0.988938 0.907067 0.944925
O O8 0.873515 0.074636 0.877890
O O9 0.046707 0.042410 0.787380
O O10 0.804169 0.529340 0.880966
O O11 0.805361 0.480453 0.612946
O O12 0.256926 0.639699 0.471994
#
# Coordination Sequence:
#
# PCOD9459347 Si02
#       6
#     8   8   8   8   8   8
#     4  10  19  41  65  91 123 172 207 270 321 379
#     4   9  20  39  65  87 124 171 207 264 322 381
#     4  11  22  44  65  88 138 170 209 267 334 380
#     4  11  25  42  64  94 132 170 217 273 327 392
#     4  10  21  40  67  89 127 164 218 266 319 391
#     4  11  25  40  63 101 125 174 220 265 323 397
#
# _framework density 19.233395000000002
#
# number of rings (size 3 to 8) (size 9 to 14) (size 15 to 20)
#    1.000    0.667    3.333    2.000    4.667    2.000 
#    6.000    0.000    0.000    0.000    0.000    0.000 
#    0.000    0.000    0.000    0.000    0.000    0.000 
#
# Total GULP energy -267462.587888 kJ/mol
# GULP energy per Si atom -5572.137248 kJ/mol
# Density = 1.918962 g / cm^3
# Si number density = 19.233395 Si / 1000 Ang^3
#
#
#
# Elastic Constant Matrix: (Units=GPa)
#
#
# Indices 1 2 3 4 5 6 
#
# 1 74.5737 25.8683 23.1028 0.0000 0.0000 0.0000
# 2 25.8683 64.8179 -2.7655 0.0000 0.0000 0.0000
# 3 23.1028 -2.7655 33.6902 0.0000 0.0000 0.0000
# 4 0.0000 0.0000 0.0000 20.5959 0.0000 0.0000
# 5 0.0000 0.0000 0.0000 0.0000 48.6698 0.0000
# 6 0.0000 0.0000 0.0000 0.0000 0.0000 26.4795
#
#
#
# Elastic Compliance Matrix: (Units=1/GPa)
#
#
# Indices 1 2 3 4 5 6 
#
# 1 0.021369 -0.009186 -0.015408 0.000000 0.000000 0.000000
# 2 -0.009186 0.019431 0.007894 0.000000 0.000000 0.000000
# 3 -0.015408 0.007894 0.040896 0.000000 0.000000 0.000000
# 4 0.000000 0.000000 0.000000 0.048553 0.000000 0.000000
# 5 0.000000 0.000000 0.000000 0.000000 0.020547 0.000000
# 6 0.000000 0.000000 0.000000 0.000000 0.000000 0.037765
#
#
# Mechanical properties :
#
#
# Convention : Reuss Voigt Hill
#
# Bulk Modulus (GPa) = 20.70531 29.49923 25.10227
# Shear Modulus (GPa) = 21.00324 27.60747 24.30535
#
# Velocity S-wave (km/s) = 3.30816 3.79277 3.55872
# Velocity P-wave (km/s) = 5.03791 5.87800 5.47410
#
# Compressibility (1/GPa) = 0.04829679
#
# Stress axis : x y z
#
# Youngs Moduli (GPa) = 46.79634 51.46526 24.45230
#
# Poissons Ratio (x) = 0.47274 0.37676
# Poissons Ratio (y) = 0.42986 -0.19303
# Poissons Ratio (z) = 0.72103 -0.40627
#
# Static dielectric constant tensor:
#      x y z
#    x 1.658360 0.000000 0.000000 
#    y 0.000000 1.697050 0.000000 
#    z 0.000000 0.000000 1.672010 
# 
# From -- ./inp_files/2933.got.cif
#   From: 2010.05.17/outbox.cif.g08.bks.cpg/sg61_2_cif.got.tgz:2933.got - 2010.06.03 15:17:17.
