data_PCOD9459201
_publ_section_title
;
Structure prediction by ZEFSAII (Michael W. Deem and Ramdas Pophale) SiO2 
 PCOD9459201
Probable space group: P B C A
;
_chemical_formula_sum "Si O2"
_cell_formula_units_Z 48
_cell_length_a 7.935803
_cell_length_b 15.031203
_cell_length_c 17.242691
_cell_angle_alpha 90.000000
_cell_angle_beta 90.000000
_cell_angle_gamma 90.000000
_cell_volume 2056.788634
_symmetry_space_group_name_H-M "P B C A"
_symmetry_group_IT_number 61
_symmetry_cell_setting 'orthorhombic'
loop_
_space_group_symop_operation_xyz
x,y,z
1/2-x,-y,1/2+z
1/2+x,1/2-y,-z
-x,1/2+y,1/2-z
-x,-y,-z
1/2+x,y,1/2-z
1/2-x,1/2+y,z
x,1/2-y,1/2+z
loop_
_atom_site_type_symbol
_atom_site_label
_atom_site_fract_x
_atom_site_fract_y
_atom_site_fract_z
Si Si1 0.742067 0.920033 0.297347
Si Si2 0.801741 0.678199 0.213232
Si Si3 0.609499 0.632302 0.532287
Si Si4 0.946316 0.746578 0.352371
Si Si5 0.613016 0.360057 0.147625
Si Si6 0.482614 0.044922 0.121990
O O1 0.858700 0.838762 0.326454
O O2 0.560004 0.911871 0.336861
O O3 0.746052 0.901974 0.205620
O O4 0.840426 0.007750 0.320762
O O5 0.819449 0.680751 0.306379
O O6 0.618461 0.708229 0.184736
O O7 0.913586 0.759915 0.178012
O O8 0.871149 0.590909 0.172032
O O9 0.508734 0.720222 0.562517
O O10 0.801265 0.640639 0.563623
O O11 0.586064 0.614200 0.442030
O O12 0.542764 0.541709 0.573317
#
# Coordination Sequence:
#
# PCOD9459201 Si02
#       6
#     8   8   8   8   8   8
#     4  10  19  35  61  87 118 158 196 242 301 359
#     4  10  19  34  57  85 112 147 198 245 288 349
#     4   9  20  39  57  78 119 162 191 233 308 366
#     4   9  18  35  58  82 114 152 188 236 299 353
#     4  10  19  36  59  83 117 160 198 239 303 362
#     4  10  21  37  58  86 118 153 199 252 295 350
#
# _framework density 23.337354000000001
#
# number of rings (size 3 to 8) (size 9 to 14) (size 15 to 20)
#    0.000    2.333    0.000    7.000    0.000    3.333 
#    0.000   15.000    0.000    0.000    0.000    0.000 
#    0.000    0.000    0.000    0.000    0.000    0.000 
#
# Total GULP energy -267411.158113 kJ/mol
# GULP energy per Si atom -5571.065794 kJ/mol
# Density = 2.328424 g / cm^3
# Si number density = 23.337354 Si / 1000 Ang^3
#
#
#
# Elastic Constant Matrix: (Units=GPa)
#
#
# Indices 1 2 3 4 5 6 
#
# 1 80.8267 22.0824 31.0609 0.0000 0.0000 0.0000
# 2 22.0824 92.3989 34.4864 0.0000 0.0000 0.0000
# 3 31.0609 34.4864 85.1841 0.0000 0.0000 0.0000
# 4 0.0000 0.0000 0.0000 32.0054 0.0000 0.0000
# 5 0.0000 0.0000 0.0000 0.0000 29.3028 0.0000
# 6 0.0000 0.0000 0.0000 0.0000 0.0000 34.2383
#
#
#
# Elastic Compliance Matrix: (Units=1/GPa)
#
#
# Indices 1 2 3 4 5 6 
#
# 1 0.014631 -0.001773 -0.004617 0.000000 0.000000 0.000000
# 2 -0.001773 0.012964 -0.004602 0.000000 0.000000 0.000000
# 3 -0.004617 -0.004602 0.015286 0.000000 0.000000 0.000000
# 4 0.000000 0.000000 0.000000 0.031245 0.000000 0.000000
# 5 0.000000 0.000000 0.000000 0.000000 0.034126 0.000000
# 6 0.000000 0.000000 0.000000 0.000000 0.000000 0.029207
#
#
# Mechanical properties :
#
#
# Convention : Reuss Voigt Hill
#
# Bulk Modulus (GPa) = 47.85514 48.18546 48.02030
# Shear Modulus (GPa) = 30.04653 30.49464 30.27058
#
# Velocity S-wave (km/s) = 3.59205 3.61874 3.60542
# Velocity P-wave (km/s) = 6.14443 6.17677 6.16062
#
# Compressibility (1/GPa) = 0.02089640
#
# Stress axis : x y z
#
# Youngs Moduli (GPa) = 68.34849 77.13660 65.42037
#
# Poissons Ratio (x) = 0.13680 0.30204
# Poissons Ratio (y) = 0.12121 0.30105
# Poissons Ratio (z) = 0.31556 0.35496
#
# Static dielectric constant tensor:
#      x y z
#    x 1.930270 0.000000 0.000000 
#    y 0.000000 1.907700 0.000000 
#    z 0.000000 0.000000 1.908980 
# 
# From -- ./inp_files/10073.got.cif
#   From: 2010.05.17/outbox.cif.g08.bks.cpg/sg61_6_cif.got.tgz:10073.got - 2010.06.03 15:17:17.
