data_PCOD9459250
_publ_section_title
;
Structure prediction by ZEFSAII (Michael W. Deem and Ramdas Pophale) SiO2 
 PCOD9459250
Probable space group: P B C A
;
_chemical_formula_sum "Si O2"
_cell_formula_units_Z 56
_cell_length_a 14.857126
_cell_length_b 19.369673
_cell_length_c 8.932526
_cell_angle_alpha 90.000000
_cell_angle_beta 90.000000
_cell_angle_gamma 90.000000
_cell_volume 2570.581540
_symmetry_space_group_name_H-M "P B C A"
_symmetry_group_IT_number 61
_symmetry_cell_setting 'orthorhombic'
loop_
_space_group_symop_operation_xyz
x,y,z
1/2-x,-y,1/2+z
1/2+x,1/2-y,-z
-x,1/2+y,1/2-z
-x,-y,-z
1/2+x,y,1/2-z
1/2-x,1/2+y,z
x,1/2-y,1/2+z
loop_
_atom_site_type_symbol
_atom_site_label
_atom_site_fract_x
_atom_site_fract_y
_atom_site_fract_z
Si Si1 0.858346 0.655917 0.272444
Si Si2 0.073729 0.255081 0.486005
Si Si3 0.016389 0.662840 0.776902
Si Si4 0.667162 0.565773 0.801428
Si Si5 0.578955 0.026876 0.893688
Si Si6 0.748306 0.458101 0.611838
Si Si7 0.989679 0.537922 0.343017
O O1 0.882772 0.697898 0.122925
O O2 0.850096 0.709338 0.409651
O O3 0.779112 0.602376 0.229556
O O4 0.946432 0.612560 0.326521
O O5 0.001437 0.219871 0.596711
O O6 0.022609 0.307951 0.377543
O O7 0.118344 0.635089 0.756297
O O8 0.951579 0.599767 0.825938
O O9 0.747786 0.532270 0.701113
O O10 0.589739 0.509218 0.775758
O O11 0.682005 0.565436 0.981461
O O12 0.578319 0.972173 0.757102
O O13 0.664743 0.033186 0.995986
O O14 0.500000 0.000000 0.000000
O O15 0.000000 0.500000 0.500000
#
# Coordination Sequence:
#
# PCOD9459250 Si02
#       7
#     8   8   8   8   8   8   8
#     4  10  19  36  56  85 118 148 195 243 286 349
#     4  10  20  34  63  89 112 155 202 245 277 346
#     4  10  19  38  59  90 116 148 201 243 291 349
#     4  10  23  38  56  85 121 154 191 249 312 366
#     4  11  17  35  61  83 110 151 191 250 305 350
#     4  11  22  39  56  85 122 154 193 251 315 360
#     4  10  20  34  60  90 114 142 199 249 306 357
#
# _framework density 21.784953000000002
#
# number of rings (size 3 to 8) (size 9 to 14) (size 15 to 20)
#    0.000    1.714    5.714    1.714    2.000    0.000 
#    0.000    1.429    0.000    0.000    0.000    0.000 
#    0.000    0.000    0.000    0.000    0.000    0.000 
#
# Total GULP energy -311885.997865 kJ/mol
# GULP energy per Si atom -5569.392819 kJ/mol
# Density = 2.173537 g / cm^3
# Si number density = 21.784953 Si / 1000 Ang^3
#
#
#
# Elastic Constant Matrix: (Units=GPa)
#
#
# Indices 1 2 3 4 5 6 
#
# 1 24.7728 1.8700 3.9521 0.0000 0.0000 0.0000
# 2 1.8700 82.2195 51.6229 0.0000 0.0000 0.0000
# 3 3.9521 51.6229 159.3105 0.0000 0.0000 0.0000
# 4 0.0000 0.0000 0.0000 54.8535 0.0000 0.0000
# 5 0.0000 0.0000 0.0000 0.0000 28.4481 0.0000
# 6 0.0000 0.0000 0.0000 0.0000 0.0000 18.2039
#
#
#
# Elastic Compliance Matrix: (Units=1/GPa)
#
#
# Indices 1 2 3 4 5 6 
#
# 1 0.040536 -0.000365 -0.000887 0.000000 0.000000 0.000000
# 2 -0.000365 0.015272 -0.004940 0.000000 0.000000 0.000000
# 3 -0.000887 -0.004940 0.007900 0.000000 0.000000 0.000000
# 4 0.000000 0.000000 0.000000 0.018230 0.000000 0.000000
# 5 0.000000 0.000000 0.000000 0.000000 0.035152 0.000000
# 6 0.000000 0.000000 0.000000 0.000000 0.000000 0.054933
#
#
# Mechanical properties :
#
#
# Convention : Reuss Voigt Hill
#
# Bulk Modulus (GPa) = 19.48401 42.35477 30.91939
# Shear Modulus (GPa) = 24.81196 34.22494 29.51845
#
# Velocity S-wave (km/s) = 3.37849 3.96793 3.68502
# Velocity P-wave (km/s) = 4.91754 6.36216 5.68591
#
# Compressibility (1/GPa) = 0.05132414
#
# Stress axis : x y z
#
# Youngs Moduli (GPa) = 24.66946 65.47750 126.58605
#
# Poissons Ratio (x) = 0.02388 0.11233
# Poissons Ratio (y) = 0.00900 0.62531
# Poissons Ratio (z) = 0.02189 0.32345
#
# Static dielectric constant tensor:
#      x y z
#    x 1.633290 0.000000 0.000000 
#    y 0.000000 1.899850 0.000000 
#    z 0.000000 0.000000 1.901300 
# 
# From -- ./inp_files/3656.got.cif
#   From: 2010.05.17/outbox.cif.g08.bks.cpg/sg61_2_cif.got.tgz:3656.got - 2010.06.03 15:17:17.
