data_PCOD9459120
_publ_section_title
;
Structure prediction by ZEFSAII (Michael W. Deem and Ramdas Pophale) SiO2 
 PCOD9459120
Probable space group: P B C A
;
_chemical_formula_sum "Si O2"
_cell_formula_units_Z 60
_cell_length_a 11.492314
_cell_length_b 11.816591
_cell_length_c 20.092770
_cell_angle_alpha 90.000000
_cell_angle_beta 90.000000
_cell_angle_gamma 90.000000
_cell_volume 2728.597647
_symmetry_space_group_name_H-M "P B C A"
_symmetry_group_IT_number 61
_symmetry_cell_setting 'orthorhombic'
loop_
_space_group_symop_operation_xyz
x,y,z
1/2-x,-y,1/2+z
1/2+x,1/2-y,-z
-x,1/2+y,1/2-z
-x,-y,-z
1/2+x,y,1/2-z
1/2-x,1/2+y,z
x,1/2-y,1/2+z
loop_
_atom_site_type_symbol
_atom_site_label
_atom_site_fract_x
_atom_site_fract_y
_atom_site_fract_z
Si Si1 0.908783 0.147563 0.578951
Si Si2 0.548188 0.767999 0.932861
Si Si3 0.000000 0.500000 0.500000
Si Si4 0.569742 0.983141 0.857949
Si Si5 0.778398 0.349843 0.360205
Si Si6 0.920314 0.837789 0.880436
Si Si7 0.355760 0.882592 0.394976
Si Si8 0.470677 0.454850 0.215114
O O1 0.912309 0.182610 0.502066
O O2 0.780706 0.127756 0.605657
O O3 0.985294 0.035401 0.586611
O O4 0.975106 0.246542 0.618643
O O5 0.625103 0.654687 0.919937
O O6 0.415786 0.729956 0.925972
O O7 0.576138 0.851415 0.872703
O O8 0.069379 0.405018 0.549764
O O9 0.099192 0.482943 0.442330
O O10 0.693600 0.043312 0.864638
O O11 0.510595 0.016944 0.788812
O O12 0.693876 0.241546 0.369141
O O13 0.860894 0.370457 0.296043
O O14 0.934284 0.929538 0.822288
O O15 0.419100 0.902511 0.324436
#
# Coordination Sequence:
#
# PCOD9459120 Si02
#       8
#     8   8   4   8   8   8   8   8
#     4  11  24  42  69 103 137 173 226 282 346 402
#     4  11  23  43  69 101 132 176 228 283 345 404
#     4  10  18  40  66  96 138 170 226 276 340 400
#     4  11  26  45  65  98 141 176 228 286 344 411
#     4  10  23  44  69  95 131 184 227 283 342 417
#     4  10  21  41  70 100 133 182 226 284 344 408
#     4  10  23  41  69 100 135 177 225 281 334 417
#     4  10  24  45  65  99 136 183 230 277 346 415
#
# _framework density 21.989317
#
# number of rings (size 3 to 8) (size 9 to 14) (size 15 to 20)
#    0.000    1.600    1.333    2.000    3.733    8.533 
#    0.000    0.000    0.000    0.000    0.000    0.000 
#    0.000    0.000    0.000    0.000    0.000    0.000 
#
# Total GULP energy -334190.949734 kJ/mol
# GULP energy per Si atom -5569.849162 kJ/mol
# Density = 2.193927 g / cm^3
# Si number density = 21.989317 Si / 1000 Ang^3
#
#
#
# Elastic Constant Matrix: (Units=GPa)
#
#
# Indices 1 2 3 4 5 6 
#
# 1 155.1658 30.0577 14.8888 0.0000 0.0000 0.0000
# 2 30.0577 80.1835 10.5750 0.0000 0.0000 0.0000
# 3 14.8888 10.5750 69.2246 0.0000 0.0000 0.0000
# 4 0.0000 0.0000 0.0000 25.7934 0.0000 0.0000
# 5 0.0000 0.0000 0.0000 0.0000 16.9057 0.0000
# 6 0.0000 0.0000 0.0000 0.0000 0.0000 14.1519
#
#
#
# Elastic Compliance Matrix: (Units=1/GPa)
#
#
# Indices 1 2 3 4 5 6 
#
# 1 0.007035 -0.002488 -0.001133 0.000000 0.000000 0.000000
# 2 -0.002488 0.013608 -0.001544 0.000000 0.000000 0.000000
# 3 -0.001133 -0.001544 0.014925 0.000000 0.000000 0.000000
# 4 0.000000 0.000000 0.000000 0.038770 0.000000 0.000000
# 5 0.000000 0.000000 0.000000 0.000000 0.059152 0.000000
# 6 0.000000 0.000000 0.000000 0.000000 0.000000 0.070662
#
#
# Mechanical properties :
#
#
# Convention : Reuss Voigt Hill
#
# Bulk Modulus (GPa) = 39.62127 46.17966 42.90046
# Shear Modulus (GPa) = 22.43223 27.97369 25.20296
#
# Velocity S-wave (km/s) = 3.19743 3.57059 3.38915
# Velocity P-wave (km/s) = 5.62929 6.16809 5.90484
#
# Compressibility (1/GPa) = 0.02523897
#
# Stress axis : x y z
#
# Youngs Moduli (GPa) = 142.13880 73.48842 67.00048
#
# Poissons Ratio (x) = 0.18283 0.07592
# Poissons Ratio (y) = 0.35362 0.10343
# Poissons Ratio (z) = 0.16106 0.11344
#
# Static dielectric constant tensor:
#      x y z
#    x 1.783100 0.000000 0.000000 
#    y 0.000000 1.892920 0.000000 
#    z 0.000000 0.000000 1.857830 
# 
# From -- ./inp_files/10329.got.cif
#   From: 2010.05.17/outbox.cif.g08.bks.cpg/sg61_6_cif.got.tgz:10329.got - 2010.06.03 15:17:17.
