data_PCOD9459184
_publ_section_title
;
Structure prediction by ZEFSAII (Michael W. Deem and Ramdas Pophale) SiO2 
 PCOD9459184
Probable space group: P B C A
;
_chemical_formula_sum "Si O2"
_cell_formula_units_Z 56
_cell_length_a 25.440417
_cell_length_b 5.057001
_cell_length_c 21.282350
_cell_angle_alpha 90.000000
_cell_angle_beta 90.000000
_cell_angle_gamma 90.000000
_cell_volume 2738.021451
_symmetry_space_group_name_H-M "P B C A"
_symmetry_group_IT_number 61
_symmetry_cell_setting 'orthorhombic'
loop_
_space_group_symop_operation_xyz
x,y,z
1/2-x,-y,1/2+z
1/2+x,1/2-y,-z
-x,1/2+y,1/2-z
-x,-y,-z
1/2+x,y,1/2-z
1/2-x,1/2+y,z
x,1/2-y,1/2+z
loop_
_atom_site_type_symbol
_atom_site_label
_atom_site_fract_x
_atom_site_fract_y
_atom_site_fract_z
Si Si1 0.868750 0.533663 0.863142
Si Si2 0.430330 0.270333 0.234152
Si Si3 0.048363 0.270685 0.311961
Si Si4 0.066466 0.956203 0.435322
Si Si5 0.125836 0.652886 0.522023
Si Si6 0.458205 0.713552 0.061689
Si Si7 0.288126 0.825522 0.574656
O O1 0.882115 0.338971 0.806656
O O2 0.855783 0.353075 0.923992
O O3 0.922700 0.681239 0.881431
O O4 0.822521 0.751121 0.862962
O O5 0.484851 0.251240 0.194459
O O6 0.436559 0.065350 0.291833
O O7 0.428077 0.565897 0.260517
O O8 0.067724 0.160484 0.378358
O O9 0.117820 0.790887 0.455288
O O10 0.018582 0.752832 0.422566
O O11 0.053130 0.119816 0.498557
O O12 0.067120 0.567275 0.544943
O O13 0.164689 0.402434 0.525829
O O14 0.249528 0.577630 0.569306
#
# Coordination Sequence:
#
# PCOD9459184 Si02
#       7
#     8   8   8   8   8   8   8
#     4  10  20  36  58  84 116 151 193 236 298 353
#     4  10  22  36  52  80 111 160 198 233 276 327
#     4  10  22  35  53  76 119 160 194 232 268 332
#     4  10  19  34  49  83 118 164 197 229 277 340
#     4  10  21  33  58  87 115 151 188 242 295 355
#     4   9  19  31  52  81 120 157 190 238 272 339
#     4  11  22  39  59  88 117 140 181 244 312 359
#
# _framework density 20.452722999999999
#
# number of rings (size 3 to 8) (size 9 to 14) (size 15 to 20)
#    0.000    2.000    2.857    0.429    6.000    1.143 
#    0.000    0.000    0.000    0.000    0.000    6.000 
#    0.000    0.000    0.000    0.000    0.000    0.000 
#
# Total GULP energy -312403.582335 kJ/mol
# GULP energy per Si atom -5578.635399 kJ/mol
# Density = 2.040617 g / cm^3
# Si number density = 20.452723 Si / 1000 Ang^3
#
#
#
# Elastic Constant Matrix: (Units=GPa)
#
#
# Indices 1 2 3 4 5 6 
#
# 1 71.7272 22.2984 17.8691 0.0000 0.0000 0.0000
# 2 22.2984 86.6926 10.7061 0.0000 0.0000 0.0000
# 3 17.8691 10.7061 56.0924 0.0000 0.0000 0.0000
# 4 0.0000 0.0000 0.0000 23.2685 0.0000 0.0000
# 5 0.0000 0.0000 0.0000 0.0000 12.5189 0.0000
# 6 0.0000 0.0000 0.0000 0.0000 0.0000 35.8219
#
#
#
# Elastic Compliance Matrix: (Units=1/GPa)
#
#
# Indices 1 2 3 4 5 6 
#
# 1 0.016176 -0.003609 -0.004464 0.000000 0.000000 0.000000
# 2 -0.003609 0.012619 -0.001259 0.000000 0.000000 0.000000
# 3 -0.004464 -0.001259 0.019490 0.000000 0.000000 0.000000
# 4 0.000000 0.000000 0.000000 0.042977 0.000000 0.000000
# 5 0.000000 0.000000 0.000000 0.000000 0.079880 0.000000
# 6 0.000000 0.000000 0.000000 0.000000 0.000000 0.027916
#
#
# Mechanical properties :
#
#
# Convention : Reuss Voigt Hill
#
# Bulk Modulus (GPa) = 33.76052 35.13995 34.45023
# Shear Modulus (GPa) = 21.96888 25.23110 23.59999
#
# Velocity S-wave (km/s) = 3.28095 3.51612 3.40057
# Velocity P-wave (km/s) = 5.55835 5.80538 5.68321
#
# Compressibility (1/GPa) = 0.02962040
#
# Stress axis : x y z
#
# Youngs Moduli (GPa) = 61.82028 79.24668 51.30806
#
# Poissons Ratio (x) = 0.28603 0.22905
# Poissons Ratio (y) = 0.22313 0.06458
# Poissons Ratio (z) = 0.27598 0.09975
#
# Static dielectric constant tensor:
#      x y z
#    x 1.760800 0.000000 0.000000 
#    y 0.000000 1.850260 0.000000 
#    z 0.000000 0.000000 1.759070 
# 
# From -- ./inp_files/1033.got.cif
#   From: 2010.05.17/outbox.cif.g08.bks.cpg/sg61_1_cif.got.tgz:1033.got - 2010.06.03 15:17:17.
