data_PCOD9459573
_publ_section_title
;
Structure prediction by ZEFSAII (Michael W. Deem and Ramdas Pophale) SiO2 
 PCOD9459573
Probable space group: P B C A
;
_chemical_formula_sum "Si O2"
_cell_formula_units_Z 64
_cell_length_a 8.862307
_cell_length_b 31.990281
_cell_length_c 11.548150
_cell_angle_alpha 90.000000
_cell_angle_beta 90.000000
_cell_angle_gamma 90.000000
_cell_volume 3273.989345
_symmetry_space_group_name_H-M "P B C A"
_symmetry_group_IT_number 61
_symmetry_cell_setting 'orthorhombic'
loop_
_space_group_symop_operation_xyz
x,y,z
1/2-x,-y,1/2+z
1/2+x,1/2-y,-z
-x,1/2+y,1/2-z
-x,-y,-z
1/2+x,y,1/2-z
1/2-x,1/2+y,z
x,1/2-y,1/2+z
loop_
_atom_site_type_symbol
_atom_site_label
_atom_site_fract_x
_atom_site_fract_y
_atom_site_fract_z
Si Si1 0.384562 0.115871 0.356110
Si Si2 0.475327 0.613221 0.393262
Si Si3 0.451474 0.706109 0.385874
Si Si4 0.493120 0.541124 0.580979
Si Si5 0.508997 0.531993 0.103369
Si Si6 0.261200 0.010612 0.742500
Si Si7 0.202111 0.753162 0.499133
Si Si8 0.540030 0.294687 0.877905
O O1 0.436331 0.103852 0.225546
O O2 0.204594 0.114605 0.368034
O O3 0.459367 0.079276 0.432108
O O4 0.453285 0.161158 0.385480
O O5 0.518014 0.661207 0.419034
O O6 0.504288 0.580628 0.495792
O O7 0.317628 0.715644 0.475136
O O8 0.583275 0.740549 0.397516
O O9 0.397242 0.706264 0.253221
O O10 0.500000 0.500000 0.500000
O O11 0.627146 0.536985 0.675119
O O12 0.336458 0.537996 0.652580
O O13 0.646643 0.515319 0.179628
O O14 0.359010 0.524029 0.176063
O O15 0.500000 0.500000 0.000000
O O16 0.080078 0.743306 0.397385
O O17 0.325812 0.789181 0.528292
#
# Coordination Sequence:
#
# PCOD9459573 Si02
#       8
#     8   8   8   8   8   8   8   8
#     4  11  22  36  59  96 120 149 204 256 299 345
#     4  11  23  38  62  92 124 152 202 257 301 348
#     4  10  21  38  64  90 118 151 198 250 297 356
#     4  11  22  40  63  88 123 168 204 253 303 357
#     4  11  21  37  59  86 119 160 198 245 292 349
#     4  10  22  38  59  86 120 169 204 242 296 359
#     4  10  20  38  62  87 120 156 187 238 316 364
#     4  10  21  37  62  91 121 153 193 251 299 359
#
# _framework density 19.548014999999999
#
# number of rings (size 3 to 8) (size 9 to 14) (size 15 to 20)
#    0.000    1.500    1.250    5.250    5.250    1.000 
#    0.000    0.000   11.000    0.000    0.000    0.000 
#    0.000    0.000    0.000    0.000    0.000    0.000 
#
# Total GULP energy -356424.392550 kJ/mol
# GULP energy per Si atom -5569.131134 kJ/mol
# Density = 1.950352 g / cm^3
# Si number density = 19.548015 Si / 1000 Ang^3
#
#
#
# Elastic Constant Matrix: (Units=GPa)
#
#
# Indices 1 2 3 4 5 6 
#
# 1 92.8066 28.8928 36.5019 0.0000 0.0000 0.0000
# 2 28.8928 83.2604 54.2810 0.0000 0.0000 0.0000
# 3 36.5019 54.2810 74.9143 0.0000 0.0000 0.0000
# 4 0.0000 0.0000 0.0000 35.0251 0.0000 0.0000
# 5 0.0000 0.0000 0.0000 0.0000 22.0155 0.0000
# 6 0.0000 0.0000 0.0000 0.0000 0.0000 22.8981
#
#
#
# Elastic Compliance Matrix: (Units=1/GPa)
#
#
# Indices 1 2 3 4 5 6 
#
# 1 0.013354 -0.000743 -0.005968 0.000000 0.000000 0.000000
# 2 -0.000743 0.022805 -0.016162 0.000000 0.000000 0.000000
# 3 -0.005968 -0.016162 0.027967 0.000000 0.000000 0.000000
# 4 0.000000 0.000000 0.000000 0.028551 0.000000 0.000000
# 5 0.000000 0.000000 0.000000 0.000000 0.045423 0.000000
# 6 0.000000 0.000000 0.000000 0.000000 0.000000 0.043672
#
#
# Mechanical properties :
#
#
# Convention : Reuss Voigt Hill
#
# Bulk Modulus (GPa) = 54.40823 54.48141 54.44482
# Shear Modulus (GPa) = 21.40010 24.74146 23.07078
#
# Velocity S-wave (km/s) = 3.31228 3.56149 3.43915
# Velocity P-wave (km/s) = 6.52088 6.69652 6.60928
#
# Compressibility (1/GPa) = 0.01837957
#
# Stress axis : x y z
#
# Youngs Moduli (GPa) = 74.88508 43.85007 35.75633
#
# Poissons Ratio (x) = 0.03258 0.21340
# Poissons Ratio (y) = 0.05564 0.57789
# Poissons Ratio (z) = 0.44693 0.70870
#
# Static dielectric constant tensor:
#      x y z
#    x 1.726340 0.000000 0.000000 
#    y 0.000000 1.717410 0.000000 
#    z 0.000000 0.000000 1.620660 
# 
# From -- ./inp_files/4974.got.cif
#   From: 2010.05.17/outbox.cif.g08.bks.cpg/sg61_3_cif.got.tgz:4974.got - 2010.06.03 15:17:17.
