data_PCOD9459621
_publ_section_title
;
Structure prediction by ZEFSAII (Michael W. Deem and Ramdas Pophale) SiO2 
 PCOD9459621
Probable space group: P B C A
;
_chemical_formula_sum "Si O2"
_cell_formula_units_Z 64
_cell_length_a 10.469022
_cell_length_b 16.058187
_cell_length_c 21.633524
_cell_angle_alpha 90.000000
_cell_angle_beta 90.000000
_cell_angle_gamma 90.000000
_cell_volume 3636.887718
_symmetry_space_group_name_H-M "P B C A"
_symmetry_group_IT_number 61
_symmetry_cell_setting 'orthorhombic'
loop_
_space_group_symop_operation_xyz
x,y,z
1/2-x,-y,1/2+z
1/2+x,1/2-y,-z
-x,1/2+y,1/2-z
-x,-y,-z
1/2+x,y,1/2-z
1/2-x,1/2+y,z
x,1/2-y,1/2+z
loop_
_atom_site_type_symbol
_atom_site_label
_atom_site_fract_x
_atom_site_fract_y
_atom_site_fract_z
Si Si1 0.772546 0.403595 0.354164
Si Si2 0.874680 0.693620 0.241943
Si Si3 1.000000 0.326204 0.000000
Si Si4 0.727454 0.096405 0.354164
Si Si5 0.250000 0.250000 0.052523
Si Si6 0.025704 0.405841 0.866628
Si Si7 0.374680 0.193620 0.758057
Si Si8 0.025704 0.905841 0.366628
O O1 0.800097 0.500000 0.372681
O O2 0.786220 0.330287 0.405155
O O3 0.856372 0.375682 0.295428
O O4 0.619903 0.400965 0.340767
O O5 0.887252 0.652246 0.175071
O O6 0.750000 0.750000 0.247072
O O7 0.112748 0.847754 0.324928
O O8 1.000000 0.750000 0.250000
O O9 0.126727 0.273104 0.012625
O O10 0.980413 0.379612 0.061989
O O11 0.019587 0.379612 0.938011
O O12 0.873273 0.273104 0.987375
O O13 0.713780 0.169713 0.405155
O O14 0.643628 0.124318 0.295428
O O15 0.880097 0.099035 0.340767
O O16 0.070201 0.500000 0.861546
#
# Coordination Sequence:
#
# PCOD9459621 Si02
#       8
#     8   8   8   8   8   8   8   8
#     4  10  20  39  62  86 118 158 196 237 302 362
#     4  12  21  37  60  87 119 153 191 240 301 354
#     4  10  21  38  61  80 114 156 202 234 292 340
#     4  10  20  39  62  86 118 158 196 237 302 362
#     4  10  20  40  60  86 112 162 194 246 290 352
#     4  10  21  37  59  86 115 153 200 243 288 351
#     4  12  21  37  60  87 119 153 191 240 301 354
#     4  10  21  37  59  86 115 153 200 243 288 351
#
# _framework density 17.597463000000001
#
# number of rings (size 3 to 8) (size 9 to 14) (size 15 to 20)
#    0.000    1.500    3.750    2.625    1.750    1.000 
#    0.000    0.625    0.000    0.000    0.000    0.000 
#    0.000    0.000    0.000    0.000    0.000    0.000 
#
# Total GULP energy -356887.062495 kJ/mol
# GULP energy per Si atom -5576.360351 kJ/mol
# Density = 1.755741 g / cm^3
# Si number density = 17.597463 Si / 1000 Ang^3
#
#
#
# Elastic Constant Matrix: (Units=GPa)
#
#
# Indices 1 2 3 4 5 6 
#
# 1 64.1758 35.4609 24.9474 0.0000 0.0000 0.0000
# 2 35.4609 126.4075 40.3792 0.0000 0.0000 0.0000
# 3 24.9474 40.3792 85.3596 0.0000 0.0000 0.0000
# 4 0.0000 0.0000 0.0000 9.8385 0.0000 0.0000
# 5 0.0000 0.0000 0.0000 0.0000 35.2461 0.0000
# 6 0.0000 0.0000 0.0000 0.0000 0.0000 17.9942
#
#
#
# Elastic Compliance Matrix: (Units=1/GPa)
#
#
# Indices 1 2 3 4 5 6 
#
# 1 0.019354 -0.004267 -0.003638 0.000000 0.000000 0.000000
# 2 -0.004267 0.010260 -0.003606 0.000000 0.000000 0.000000
# 3 -0.003638 -0.003606 0.014484 0.000000 0.000000 0.000000
# 4 0.000000 0.000000 0.000000 0.101642 0.000000 0.000000
# 5 0.000000 0.000000 0.000000 0.000000 0.028372 0.000000
# 6 0.000000 0.000000 0.000000 0.000000 0.000000 0.055573
#
#
# Mechanical properties :
#
#
# Convention : Reuss Voigt Hill
#
# Bulk Modulus (GPa) = 47.44824 53.05753 50.25288
# Shear Modulus (GPa) = 19.25046 24.29278 21.77162
#
# Velocity S-wave (km/s) = 3.31106 3.71950 3.52120
# Velocity P-wave (km/s) = 6.45284 6.97584 6.71943
#
# Compressibility (1/GPa) = 0.02107560
#
# Stress axis : x y z
#
# Youngs Moduli (GPa) = 51.66799 97.46565 69.04022
#
# Poissons Ratio (x) = 0.41592 0.25116
# Poissons Ratio (y) = 0.22049 0.24898
# Poissons Ratio (z) = 0.18796 0.35149
#
# Static dielectric constant tensor:
#      x y z
#    x 1.580080 0.000000 0.000000 
#    y 0.000000 1.625490 0.000000 
#    z 0.000000 0.000000 1.587040 
# 
# From -- ./inp_files/9288.got.cif
#   From: 2010.05.17/outbox.cif.g08.bks.cpg/sg61_5_cif.got.tgz:9288.got - 2010.06.03 15:17:17.
