data_PCOD9459699
_publ_section_title
;
Structure prediction by ZEFSAII (Michael W. Deem and Ramdas Pophale) SiO2 
 PCOD9459699
Probable space group: P B C A
;
_chemical_formula_sum "Si O2"
_cell_formula_units_Z 64
_cell_length_a 9.634078
_cell_length_b 9.998266
_cell_length_c 25.845124
_cell_angle_alpha 90.000000
_cell_angle_beta 90.000000
_cell_angle_gamma 90.000000
_cell_volume 2489.507650
_symmetry_space_group_name_H-M "P B C A"
_symmetry_group_IT_number 61
_symmetry_cell_setting 'orthorhombic'
loop_
_space_group_symop_operation_xyz
x,y,z
1/2-x,-y,1/2+z
1/2+x,1/2-y,-z
-x,1/2+y,1/2-z
-x,-y,-z
1/2+x,y,1/2-z
1/2-x,1/2+y,z
x,1/2-y,1/2+z
loop_
_atom_site_type_symbol
_atom_site_label
_atom_site_fract_x
_atom_site_fract_y
_atom_site_fract_z
Si Si1 0.779045 0.418426 0.697361
Si Si2 0.829991 0.166255 0.439709
Si Si3 0.103240 0.012238 0.922902
Si Si4 0.021450 0.205494 0.015610
Si Si5 0.678144 0.665077 0.636710
Si Si6 0.007806 0.341162 0.772038
Si Si7 0.899713 0.131486 0.844740
Si Si8 0.106189 0.041687 0.641833
O O1 0.733378 0.567831 0.683318
O O2 0.768092 0.314142 0.648868
O O3 0.924174 0.389552 0.723237
O O4 0.668691 0.359522 0.737916
O O5 0.675088 0.207319 0.458807
O O6 0.941082 0.175428 0.486451
O O7 0.870519 0.262651 0.391563
O O8 0.842835 0.021991 0.412419
O O9 0.248059 0.084135 0.909662
O O10 0.004257 0.028847 0.872777
O O11 0.088102 0.864056 0.945417
O O12 0.041013 0.103891 0.967866
O O13 0.512408 0.652208 0.633462
O O14 0.968390 0.197184 0.794468
O O15 0.968668 0.436012 0.820616
O O16 0.747294 0.082883 0.830608
#
# Coordination Sequence:
#
# PCOD9459699 Si02
#       8
#     8   8   8   8   8   8   8   8
#     4  11  26  44  67 100 129 173 217 267 324 389
#     4  10  22  38  61  92 126 166 215 275 323 390
#     4  10  21  41  63  85 126 172 210 266 329 388
#     4  10  22  38  61  91 123 168 220 264 331 385
#     4  11  26  44  67  97 135 171 219 266 330 387
#     4  10  24  42  64  93 131 166 211 270 323 386
#     4  10  20  41  64  85 126 167 213 260 332 382
#     4  10  23  42  62  93 131 169 215 272 322 390
#
# _framework density 25.707895000000001
#
# number of rings (size 3 to 8) (size 9 to 14) (size 15 to 20)
#    0.000    1.750    2.500    0.000    7.000    4.000 
#    0.000    1.250    0.000    0.000    0.000    0.000 
#    0.000    0.000    0.000    0.000    0.000    0.000 
#
# Total GULP energy -357855.411971 kJ/mol
# GULP energy per Si atom -5591.490812 kJ/mol
# Density = 2.564938 g / cm^3
# Si number density = 25.707895 Si / 1000 Ang^3
#
#
#
# Elastic Constant Matrix: (Units=GPa)
#
#
# Indices 1 2 3 4 5 6 
#
# 1 94.8914 3.4284 19.4048 0.0000 0.0000 0.0000
# 2 3.4284 66.3563 12.6900 0.0000 0.0000 0.0000
# 3 19.4048 12.6900 91.1785 0.0000 0.0000 0.0000
# 4 0.0000 0.0000 0.0000 28.2006 0.0000 0.0000
# 5 0.0000 0.0000 0.0000 0.0000 47.9265 0.0000
# 6 0.0000 0.0000 0.0000 0.0000 0.0000 29.1099
#
#
#
# Elastic Compliance Matrix: (Units=1/GPa)
#
#
# Indices 1 2 3 4 5 6 
#
# 1 0.011019 -0.000124 -0.002328 0.000000 0.000000 0.000000
# 2 -0.000124 0.015484 -0.002129 0.000000 0.000000 0.000000
# 3 -0.002328 -0.002129 0.011759 0.000000 0.000000 0.000000
# 4 0.000000 0.000000 0.000000 0.035460 0.000000 0.000000
# 5 0.000000 0.000000 0.000000 0.000000 0.020865 0.000000
# 6 0.000000 0.000000 0.000000 0.000000 0.000000 0.034353
#
#
# Mechanical properties :
#
#
# Convention : Reuss Voigt Hill
#
# Bulk Modulus (GPa) = 34.36344 35.94140 35.15242
# Shear Modulus (GPa) = 33.82929 35.50760 34.66845
#
# Velocity S-wave (km/s) = 3.63148 3.72047 3.67625
# Velocity P-wave (km/s) = 5.56592 5.69798 5.63234
#
# Compressibility (1/GPa) = 0.02910070
#
# Stress axis : x y z
#
# Youngs Moduli (GPa) = 90.75339 64.58432 85.04012
#
# Poissons Ratio (x) = 0.00802 0.19796
# Poissons Ratio (y) = 0.01127 0.18101
# Poissons Ratio (z) = 0.21125 0.13747
#
# Static dielectric constant tensor:
#      x y z
#    x 2.026740 0.000000 0.000000 
#    y 0.000000 2.070040 0.000000 
#    z 0.000000 0.000000 2.045350 
# 
# From -- ./inp_files/11745.got.cif
#   From: 2010.05.17/outbox.cif.g08.bks.cpg/sg61_6_cif.got.tgz:11745.got - 2010.06.03 15:17:17.
