data_PCOD9459155
_publ_section_title
;
Structure prediction by ZEFSAII (Michael W. Deem and Ramdas Pophale) SiO2 
 PCOD9459155
Probable space group: P B C A
;
_chemical_formula_sum "Si O2"
_cell_formula_units_Z 48
_cell_length_a 17.737554
_cell_length_b 8.087965
_cell_length_c 13.776922
_cell_angle_alpha 90.000000
_cell_angle_beta 90.000000
_cell_angle_gamma 90.000000
_cell_volume 1976.447094
_symmetry_space_group_name_H-M "P B C A"
_symmetry_group_IT_number 61
_symmetry_cell_setting 'orthorhombic'
loop_
_space_group_symop_operation_xyz
x,y,z
1/2-x,-y,1/2+z
1/2+x,1/2-y,-z
-x,1/2+y,1/2-z
-x,-y,-z
1/2+x,y,1/2-z
1/2-x,1/2+y,z
x,1/2-y,1/2+z
loop_
_atom_site_type_symbol
_atom_site_label
_atom_site_fract_x
_atom_site_fract_y
_atom_site_fract_z
Si Si1 0.092615 0.604617 0.284576
Si Si2 0.772726 0.289012 0.166122
Si Si3 0.631401 0.388157 0.611986
Si Si4 0.696923 0.867725 0.387320
Si Si5 0.145603 0.517191 0.076541
Si Si6 0.941025 0.477081 0.290275
O O1 0.167171 0.639474 0.347218
O O2 0.113901 0.506765 0.185622
O O3 0.066980 0.789646 0.250093
O O4 0.022195 0.515796 0.333584
O O5 0.814223 0.453596 0.132301
O O6 0.771053 0.299204 0.283794
O O7 0.690233 0.260019 0.124047
O O8 0.598957 0.421870 0.505516
O O9 0.571591 0.402727 0.698017
O O10 0.657831 0.713209 0.439553
O O11 0.630694 0.995607 0.360908
O O12 0.770403 0.943500 0.433625
#
# Coordination Sequence:
#
# PCOD9459155 Si02
#       6
#     8   8   8   8   8   8
#     4   9  19  33  50  70  97 131 165 199 236 287
#     4   9  18  33  51  73  99 129 164 198 237 290
#     4  10  19  32  52  76 101 125 157 205 249 285
#     4   9  18  33  51  73  99 129 164 198 237 290
#     4  10  19  32  52  76 101 125 157 205 249 285
#     4   9  19  33  50  70  97 131 165 199 236 287
#
# _framework density 24.286000999999999
#
# number of rings (size 3 to 8) (size 9 to 14) (size 15 to 20)
#    0.000    3.333    0.000    5.000    0.000    4.667 
#    0.000    0.000    0.000   25.000    0.000    0.000 
#    0.000    0.000    0.000    0.000    0.000    0.000 
#
# Total GULP energy -267984.793230 kJ/mol
# GULP energy per Si atom -5583.016526 kJ/mol
# Density = 2.423072 g / cm^3
# Si number density = 24.286001 Si / 1000 Ang^3
#
#
#
# Elastic Constant Matrix: (Units=GPa)
#
#
# Indices 1 2 3 4 5 6 
#
# 1 86.9748 5.1560 0.1182 0.0000 0.0000 0.0000
# 2 5.1560 40.0224 -4.3288 0.0000 0.0000 0.0000
# 3 0.1182 -4.3288 38.3024 0.0000 0.0000 0.0000
# 4 0.0000 0.0000 0.0000 8.8645 0.0000 0.0000
# 5 0.0000 0.0000 0.0000 0.0000 2.7440 0.0000
# 6 0.0000 0.0000 0.0000 0.0000 0.0000 36.9446
#
#
#
# Elastic Compliance Matrix: (Units=1/GPa)
#
#
# Indices 1 2 3 4 5 6 
#
# 1 0.011588 -0.001515 -0.000207 0.000000 0.000000 0.000000
# 2 -0.001515 0.025493 0.002886 0.000000 0.000000 0.000000
# 3 -0.000207 0.002886 0.026435 0.000000 0.000000 0.000000
# 4 0.000000 0.000000 0.000000 0.112810 0.000000 0.000000
# 5 0.000000 0.000000 0.000000 0.000000 0.364433 0.000000
# 6 0.000000 0.000000 0.000000 0.000000 0.000000 0.027068
#
#
# Mechanical properties :
#
#
# Convention : Reuss Voigt Hill
#
# Bulk Modulus (GPa) = 15.18762 18.57670 16.88216
# Shear Modulus (GPa) = 8.51141 20.66756 14.58949
#
# Velocity S-wave (km/s) = 1.87410 2.92037 2.45365
# Velocity P-wave (km/s) = 3.30912 4.36316 3.87217
#
# Compressibility (1/GPa) = 0.06584311
#
# Stress axis : x y z
#
# Youngs Moduli (GPa) = 86.29846 39.22593 37.82887
#
# Poissons Ratio (x) = 0.05943 0.00783
# Poissons Ratio (y) = 0.13076 -0.10917
# Poissons Ratio (z) = 0.01786 -0.11320
#
# Static dielectric constant tensor:
#      x y z
#    x 1.930020 0.000000 0.000000 
#    y 0.000000 1.986890 0.000000 
#    z 0.000000 0.000000 2.041990 
# 
# From -- ./inp_files/9614.got.cif
#   From: 2010.05.17/outbox.cif.g08.bks.cpg/sg61_5_cif.got.tgz:9614.got - 2010.06.03 15:17:17.
