data_PCOD9459164
_publ_section_title
;
Structure prediction by ZEFSAII (Michael W. Deem and Ramdas Pophale) SiO2 
 PCOD9459164
Probable space group: P B C A
;
_chemical_formula_sum "Si O2"
_cell_formula_units_Z 56
_cell_length_a 22.350558
_cell_length_b 17.559413
_cell_length_c 6.931714
_cell_angle_alpha 90.000000
_cell_angle_beta 90.000000
_cell_angle_gamma 90.000000
_cell_volume 2720.439044
_symmetry_space_group_name_H-M "P B C A"
_symmetry_group_IT_number 61
_symmetry_cell_setting 'orthorhombic'
loop_
_space_group_symop_operation_xyz
x,y,z
1/2-x,-y,1/2+z
1/2+x,1/2-y,-z
-x,1/2+y,1/2-z
-x,-y,-z
1/2+x,y,1/2-z
1/2-x,1/2+y,z
x,1/2-y,1/2+z
loop_
_atom_site_type_symbol
_atom_site_label
_atom_site_fract_x
_atom_site_fract_y
_atom_site_fract_z
Si Si1 0.378816 0.005635 0.424574
Si Si2 0.812906 0.857594 0.992229
Si Si3 0.665217 0.188351 0.931190
Si Si4 0.761505 0.417560 0.528333
Si Si5 0.434574 0.440232 0.302440
Si Si6 0.941214 0.918903 0.432481
Si Si7 0.804255 0.425689 0.086761
O O1 0.348908 0.935341 0.545903
O O2 0.419925 0.051243 0.575640
O O3 0.413012 0.969051 0.243967
O O4 0.321614 0.056570 0.359250
O O5 0.822390 0.845205 0.220304
O O6 0.742431 0.874238 0.967700
O O7 0.836177 0.778628 0.910318
O O8 0.721079 0.157342 0.058574
O O9 0.603056 0.149350 0.987906
O O10 0.786674 0.413854 0.311138
O O11 0.714561 0.487225 0.543103
O O12 0.447188 0.524621 0.386799
O O13 0.493762 0.393862 0.356624
O O14 0.374859 0.412582 0.413356
#
# Coordination Sequence:
#
# PCOD9459164 Si02
#       7
#     8   8   8   8   8   8   8
#     4   9  19  35  52  79 102 133 177 224 267 311
#     4   9  20  31  51  76 104 136 173 217 271 315
#     4  10  19  33  48  77 107 135 175 222 258 318
#     4   9  17  29  51  73 101 130 165 222 267 301
#     4  10  19  32  56  75 104 139 169 220 264 313
#     4  10  20  33  51  80 104 133 180 216 258 318
#     4   9  17  31  48  76 100 132 171 212 269 310
#
# _framework density 20.584913
#
# number of rings (size 3 to 8) (size 9 to 14) (size 15 to 20)
#    0.000    2.571    1.429    1.286    2.000    1.143 
#    0.000    0.000    0.000   12.000    0.000    0.000 
#    0.000    0.000    0.000    0.000    0.000    0.000 
#
# Total GULP energy -312281.109176 kJ/mol
# GULP energy per Si atom -5576.448378 kJ/mol
# Density = 2.053806 g / cm^3
# Si number density = 20.584913 Si / 1000 Ang^3
#
#
#
# Elastic Constant Matrix: (Units=GPa)
#
#
# Indices 1 2 3 4 5 6 
#
# 1 110.0583 8.5511 14.6402 0.0000 0.0000 0.0000
# 2 8.5511 47.3985 -7.9841 0.0000 0.0000 0.0000
# 3 14.6402 -7.9841 39.6074 0.0000 0.0000 0.0000
# 4 0.0000 0.0000 0.0000 23.1967 0.0000 0.0000
# 5 0.0000 0.0000 0.0000 0.0000 29.0706 0.0000
# 6 0.0000 0.0000 0.0000 0.0000 0.0000 23.7048
#
#
#
# Elastic Compliance Matrix: (Units=1/GPa)
#
#
# Indices 1 2 3 4 5 6 
#
# 1 0.009827 -0.002469 -0.004130 0.000000 0.000000 0.000000
# 2 -0.002469 0.022459 0.005440 0.000000 0.000000 0.000000
# 3 -0.004130 0.005440 0.027871 0.000000 0.000000 0.000000
# 4 0.000000 0.000000 0.000000 0.043109 0.000000 0.000000
# 5 0.000000 0.000000 0.000000 0.000000 0.034399 0.000000
# 6 0.000000 0.000000 0.000000 0.000000 0.000000 0.042186
#
#
# Mechanical properties :
#
#
# Convention : Reuss Voigt Hill
#
# Bulk Modulus (GPa) = 17.28909 25.27538 21.28224
# Shear Modulus (GPa) = 24.82013 27.31825 26.06919
#
# Velocity S-wave (km/s) = 3.47615 3.64689 3.56254
# Velocity P-wave (km/s) = 4.95264 5.48072 5.22336
#
# Compressibility (1/GPa) = 0.05783996
#
# Stress axis : x y z
#
# Youngs Moduli (GPa) = 101.75743 44.52481 35.87960
#
# Poissons Ratio (x) = 0.10991 0.14819
# Poissons Ratio (y) = 0.25120 -0.19518
# Poissons Ratio (z) = 0.42027 -0.24221
#
# Static dielectric constant tensor:
#      x y z
#    x 1.785870 0.000000 0.000000 
#    y 0.000000 1.737770 0.000000 
#    z 0.000000 0.000000 1.863090 
# 
# From -- ./inp_files/4025.got.cif
#   From: 2010.05.17/outbox.cif.g08.bks.cpg/sg61_3_cif.got.tgz:4025.got - 2010.06.03 15:17:17.
