data_PCOD9459457
_publ_section_title
;
Structure prediction by ZEFSAII (Michael W. Deem and Ramdas Pophale) SiO2 
 PCOD9459457
Probable space group: P B C A
;
_chemical_formula_sum "Si O2"
_cell_formula_units_Z 48
_cell_length_a 8.031936
_cell_length_b 14.930521
_cell_length_c 17.591393
_cell_angle_alpha 90.000000
_cell_angle_beta 90.000000
_cell_angle_gamma 90.000000
_cell_volume 2109.577249
_symmetry_space_group_name_H-M "P B C A"
_symmetry_group_IT_number 61
_symmetry_cell_setting 'orthorhombic'
loop_
_space_group_symop_operation_xyz
x,y,z
1/2-x,-y,1/2+z
1/2+x,1/2-y,-z
-x,1/2+y,1/2-z
-x,-y,-z
1/2+x,y,1/2-z
1/2-x,1/2+y,z
x,1/2-y,1/2+z
loop_
_atom_site_type_symbol
_atom_site_label
_atom_site_fract_x
_atom_site_fract_y
_atom_site_fract_z
Si Si1 0.280927 0.872598 0.900863
Si Si2 0.584182 0.151338 0.946281
Si Si3 0.725619 0.329633 0.132254
Si Si4 0.725315 0.498169 0.864636
Si Si5 0.868011 0.991470 0.214135
Si Si6 0.417121 0.855422 0.524712
O O1 0.302008 0.776446 0.860159
O O2 0.106411 0.865910 0.947727
O O3 0.250057 0.950684 0.841279
O O4 0.418497 0.884493 0.966542
O O5 0.408291 0.153475 0.903137
O O6 0.709537 0.089810 0.900092
O O7 0.639502 0.254742 0.954765
O O8 0.693472 0.388881 0.206238
O O9 0.603810 0.364745 0.065324
O O10 0.552971 0.504216 0.818488
O O11 0.855882 0.471898 0.799141
O O12 0.691810 0.427560 0.930969
#
# Coordination Sequence:
#
# PCOD9459457 Si02
#       6
#     8   8   8   8   8   8
#     4   9  20  38  58  81 110 144 181 223 270 320
#     4  10  20  36  59  85 110 140 181 225 270 321
#     4  10  20  36  59  85 110 140 181 225 270 321
#     4  11  23  38  55  78 111 147 182 222 271 324
#     4  11  23  38  55  78 111 147 182 222 271 324
#     4   9  20  38  58  81 110 144 181 223 270 320
#
# _framework density 22.753374999999998
#
# number of rings (size 3 to 8) (size 9 to 14) (size 15 to 20)
#    0.000    2.000    0.000    3.000    0.000    9.333 
#    0.000    3.333    0.000    0.000    0.000    0.000 
#    0.000    0.000    0.000    0.000    0.000    0.000 
#
# Total GULP energy -268554.287031 kJ/mol
# GULP energy per Si atom -5594.880980 kJ/mol
# Density = 2.270159 g / cm^3
# Si number density = 22.753375 Si / 1000 Ang^3
#
#
#
# Elastic Constant Matrix: (Units=GPa)
#
#
# Indices 1 2 3 4 5 6 
#
# 1 60.0412 8.4892 -12.1871 0.0000 0.0000 0.0000
# 2 8.4892 38.6476 7.8669 0.0000 0.0000 0.0000
# 3 -12.1871 7.8669 25.3996 0.0000 0.0000 0.0000
# 4 0.0000 0.0000 0.0000 -8.5978 0.0000 0.0000
# 5 0.0000 0.0000 0.0000 0.0000 35.5461 0.0000
# 6 0.0000 0.0000 0.0000 0.0000 0.0000 24.1838
#
#
#
# Elastic Compliance Matrix: (Units=1/GPa)
#
#
# Indices 1 2 3 4 5 6 
#
# 1 0.019984 -0.006768 0.011685 0.000000 0.000000 0.000000
# 2 -0.006768 0.029908 -0.012511 0.000000 0.000000 0.000000
# 3 0.011685 -0.012511 0.048852 0.000000 0.000000 0.000000
# 4 0.000000 0.000000 0.000000 -0.116308 0.000000 0.000000
# 5 0.000000 0.000000 0.000000 0.000000 0.028132 0.000000
# 6 0.000000 0.000000 0.000000 0.000000 0.000000 0.041350
#
#
# Mechanical properties :
#
#
# Convention : Reuss Voigt Hill
#
# Bulk Modulus (GPa) = 11.96799 14.71404 13.34102
# Shear Modulus (GPa) = 52.65451 18.22104 35.43778
#
# Velocity S-wave (km/s) = 4.81577 2.83292 3.95077
# Velocity P-wave (km/s) = 6.01610 4.14504 5.16599
#
# Compressibility (1/GPa) = 0.08355619
#
# Stress axis : x y z
#
# Youngs Moduli (GPa) = 50.04009 33.43568 20.46993
#
# Poissons Ratio (x) = 0.22630 -0.23919
# Poissons Ratio (y) = 0.33868 0.25609
# Poissons Ratio (z) = -0.58471 0.41831
#
# Static dielectric constant tensor:
#      x y z
#    x 1.883860 0.000000 0.000000 
#    y 0.000000 1.818280 0.000000 
#    z 0.000000 0.000000 1.846140 
# 
# From -- ./inp_files/2871.got.cif
#   From: 2010.05.17/outbox.cif.g08.bks.cpg/sg61_2_cif.got.tgz:2871.got - 2010.06.03 15:17:17.
