data_PCOD9459912
_publ_section_title
;
Structure prediction by ZEFSAII (Michael W. Deem and Ramdas Pophale) SiO2 
 PCOD9459912
Probable space group: P B C A
;
_chemical_formula_sum "Si O2"
_cell_formula_units_Z 60
_cell_length_a 14.575144
_cell_length_b 9.405902
_cell_length_c 19.833947
_cell_angle_alpha 90.000000
_cell_angle_beta 90.000000
_cell_angle_gamma 90.000000
_cell_volume 2719.082922
_symmetry_space_group_name_H-M "P B C A"
_symmetry_group_IT_number 61
_symmetry_cell_setting 'orthorhombic'
loop_
_space_group_symop_operation_xyz
x,y,z
1/2-x,-y,1/2+z
1/2+x,1/2-y,-z
-x,1/2+y,1/2-z
-x,-y,-z
1/2+x,y,1/2-z
1/2-x,1/2+y,z
x,1/2-y,1/2+z
loop_
_atom_site_type_symbol
_atom_site_label
_atom_site_fract_x
_atom_site_fract_y
_atom_site_fract_z
Si Si1 0.707163 0.127085 0.479957
Si Si2 0.322533 0.757911 0.823919
Si Si3 0.296202 0.354260 0.950711
Si Si4 0.500000 0.000000 0.000000
Si Si5 0.033185 0.296543 0.429996
Si Si6 0.032302 0.764203 0.382789
Si Si7 0.341064 0.077952 0.772421
Si Si8 0.398623 0.509768 0.130501
O O1 0.775535 0.256652 0.485165
O O2 0.608218 0.165210 0.512167
O O3 0.692586 0.063635 0.407062
O O4 0.743036 0.006758 0.530693
O O5 0.263661 0.792881 0.890611
O O6 0.414838 0.697135 0.857212
O O7 0.259602 0.649050 0.782036
O O8 0.336645 0.910347 0.789848
O O9 0.398504 0.338303 0.925070
O O10 0.496620 0.862819 0.947800
O O11 0.498688 0.113959 0.934966
O O12 0.952849 0.410354 0.422392
O O13 0.090204 0.839660 0.323178
O O14 0.955745 0.655049 0.355918
O O15 0.376754 0.080258 0.696388
#
# Coordination Sequence:
#
# PCOD9459912 Si02
#       8
#     8   8   8   4   8   8   8   8
#     4  11  22  39  64  98 133 169 225 283 356 409
#     4  10  22  44  66  96 130 182 239 273 340 433
#     4  10  21  38  67  91 126 174 220 284 343 410
#     4  12  22  38  72 108 128 162 232 294 354 414
#     4  11  22  41  70 102 135 175 225 300 350 422
#     4  11  23  42  67 100 134 178 234 285 351 426
#     4  11  26  43  68  98 136 193 235 279 343 431
#     4  12  26  43  65 101 144 182 223 293 358 414
#
# _framework density 22.066264
#
# number of rings (size 3 to 8) (size 9 to 14) (size 15 to 20)
#    0.000    1.067    4.000    3.600    5.600    1.067 
#    0.000    1.333    0.000    0.000    0.000    0.000 
#    0.000    0.000    0.000    0.000    0.000    0.000 
#
# Total GULP energy -334157.792764 kJ/mol
# GULP energy per Si atom -5569.296546 kJ/mol
# Density = 2.201604 g / cm^3
# Si number density = 22.066264 Si / 1000 Ang^3
#
#
#
# Elastic Constant Matrix: (Units=GPa)
#
#
# Indices 1 2 3 4 5 6 
#
# 1 31.1002 3.1050 22.2259 0.0000 0.0000 0.0000
# 2 3.1050 83.9902 13.8211 0.0000 0.0000 0.0000
# 3 22.2259 13.8211 88.3820 0.0000 0.0000 0.0000
# 4 0.0000 0.0000 0.0000 35.4281 0.0000 0.0000
# 5 0.0000 0.0000 0.0000 0.0000 19.3081 0.0000
# 6 0.0000 0.0000 0.0000 0.0000 0.0000 21.6003
#
#
#
# Elastic Compliance Matrix: (Units=1/GPa)
#
#
# Indices 1 2 3 4 5 6 
#
# 1 0.039201 0.000178 -0.009886 0.000000 0.000000 0.000000
# 2 0.000178 0.012221 -0.001956 0.000000 0.000000 0.000000
# 3 -0.009886 -0.001956 0.014106 0.000000 0.000000 0.000000
# 4 0.000000 0.000000 0.000000 0.028226 0.000000 0.000000
# 5 0.000000 0.000000 0.000000 0.000000 0.051792 0.000000
# 6 0.000000 0.000000 0.000000 0.000000 0.000000 0.046296
#
#
# Mechanical properties :
#
#
# Convention : Reuss Voigt Hill
#
# Bulk Modulus (GPa) = 23.69621 31.30851 27.50236
# Shear Modulus (GPa) = 21.81137 26.22201 24.01669
#
# Velocity S-wave (km/s) = 3.14737 3.45096 3.30265
# Velocity P-wave (km/s) = 4.89591 5.48617 5.19942
#
# Compressibility (1/GPa) = 0.04220084
#
# Stress axis : x y z
#
# Youngs Moduli (GPa) = 25.50926 81.82351 70.88953
#
# Poissons Ratio (x) = -0.01453 0.70081
# Poissons Ratio (y) = -0.00453 0.13865
# Poissons Ratio (z) = 0.25218 0.16003
#
# Static dielectric constant tensor:
#      x y z
#    x 1.869100 0.000000 0.000000 
#    y 0.000000 1.804820 0.000000 
#    z 0.000000 0.000000 1.839990 
# 
# From -- ./inp_files/8986.got.cif
#   From: 2010.05.17/outbox.cif.g08.bks.cpg/sg61_5_cif.got.tgz:8986.got - 2010.06.03 15:17:17.
