data_PCOD9459245
_publ_section_title
;
Structure prediction by ZEFSAII (Michael W. Deem and Ramdas Pophale) SiO2 
 PCOD9459245
Probable space group: P B C A
;
_chemical_formula_sum "Si O2"
_cell_formula_units_Z 56
_cell_length_a 11.490786
_cell_length_b 13.407065
_cell_length_c 15.062878
_cell_angle_alpha 90.000000
_cell_angle_beta 90.000000
_cell_angle_gamma 90.000000
_cell_volume 2320.552563
_symmetry_space_group_name_H-M "P B C A"
_symmetry_group_IT_number 61
_symmetry_cell_setting 'orthorhombic'
loop_
_space_group_symop_operation_xyz
x,y,z
1/2-x,-y,1/2+z
1/2+x,1/2-y,-z
-x,1/2+y,1/2-z
-x,-y,-z
1/2+x,y,1/2-z
1/2-x,1/2+y,z
x,1/2-y,1/2+z
loop_
_atom_site_type_symbol
_atom_site_label
_atom_site_fract_x
_atom_site_fract_y
_atom_site_fract_z
Si Si1 0.650985 0.339456 0.388721
Si Si2 0.093048 0.258090 0.936487
Si Si3 0.295340 0.610000 0.796556
Si Si4 0.150502 0.820231 0.636986
Si Si5 0.134495 0.431520 0.566320
Si Si6 0.408436 0.246669 0.823420
Si Si7 0.876412 0.070419 0.089612
O O1 0.639699 0.345880 0.495729
O O2 0.662514 0.411939 0.303457
O O3 0.764639 0.273580 0.373000
O O4 0.534501 0.280571 0.358277
O O5 0.136536 0.206174 0.842527
O O6 0.963080 0.298584 0.920628
O O7 0.110205 0.159194 0.997303
O O8 0.162654 0.646947 0.803121
O O9 0.308564 0.510096 0.852875
O O10 0.241783 0.906894 0.610210
O O11 0.104094 0.816768 0.737339
O O12 0.135996 0.533069 0.510654
O O13 0.013221 0.438051 0.618989
O O14 0.345787 0.314538 0.897567
#
# Coordination Sequence:
#
# PCOD9459245 Si02
#       7
#     8   8   8   8   8   8   8
#     4  10  21  37  59  91 118 158 207 253 307 372
#     4  10  19  35  65  87 122 163 200 260 308 367
#     4  10  23  40  60  96 121 163 215 250 312 374
#     4  10  20  37  62  89 125 159 209 255 309 373
#     4   9  20  36  58  93 119 157 217 251 301 382
#     4  11  21  40  64  89 126 164 205 259 311 372
#     4  10  20  39  61  88 121 164 206 254 308 368
#
# _framework density 24.132183000000001
#
# number of rings (size 3 to 8) (size 9 to 14) (size 15 to 20)
#    0.000    2.000    4.286    0.000    6.000    0.000 
#    2.571    2.857    0.000    1.714    0.000    0.000 
#    0.000    0.000    0.000    0.000    0.000    0.000 
#
# Total GULP energy -311834.468764 kJ/mol
# GULP energy per Si atom -5568.472657 kJ/mol
# Density = 2.407726 g / cm^3
# Si number density = 24.132183 Si / 1000 Ang^3
#
#
#
# Elastic Constant Matrix: (Units=GPa)
#
#
# Indices 1 2 3 4 5 6 
#
# 1 100.7891 3.8284 37.5006 0.0000 0.0000 0.0000
# 2 3.8284 47.5015 -0.8495 0.0000 0.0000 0.0000
# 3 37.5006 -0.8495 88.5166 0.0000 0.0000 0.0000
# 4 0.0000 0.0000 0.0000 17.8095 0.0000 0.0000
# 5 0.0000 0.0000 0.0000 0.0000 36.3442 0.0000
# 6 0.0000 0.0000 0.0000 0.0000 0.0000 21.6072
#
#
#
# Elastic Compliance Matrix: (Units=1/GPa)
#
#
# Indices 1 2 3 4 5 6 
#
# 1 0.011830 -0.001043 -0.005022 0.000000 0.000000 0.000000
# 2 -0.001043 0.021148 0.000645 0.000000 0.000000 0.000000
# 3 -0.005022 0.000645 0.013431 0.000000 0.000000 0.000000
# 4 0.000000 0.000000 0.000000 0.056150 0.000000 0.000000
# 5 0.000000 0.000000 0.000000 0.000000 0.027515 0.000000
# 6 0.000000 0.000000 0.000000 0.000000 0.000000 0.046281
#
#
# Mechanical properties :
#
#
# Convention : Reuss Voigt Hill
#
# Bulk Modulus (GPa) = 28.11499 35.30737 31.71118
# Shear Modulus (GPa) = 25.11932 28.24070 26.68001
#
# Velocity S-wave (km/s) = 3.22981 3.42460 3.32863
# Velocity P-wave (km/s) = 5.05812 5.50453 5.28604
#
# Compressibility (1/GPa) = 0.03556821
#
# Stress axis : x y z
#
# Youngs Moduli (GPa) = 84.53235 47.28674 74.45456
#
# Poissons Ratio (x) = 0.04933 0.37389
# Poissons Ratio (y) = 0.08819 -0.04802
# Poissons Ratio (z) = 0.42450 -0.03050
#
# Static dielectric constant tensor:
#      x y z
#    x 1.939040 0.000000 0.000000 
#    y 0.000000 1.958130 0.000000 
#    z 0.000000 0.000000 2.099990 
# 
# From -- ./inp_files/9320.got.cif
#   From: 2010.05.17/outbox.cif.g08.bks.cpg/sg61_5_cif.got.tgz:9320.got - 2010.06.03 15:17:17.
