data_PCOD9459673
_publ_section_title
;
Structure prediction by ZEFSAII (Michael W. Deem and Ramdas Pophale) SiO2 
 PCOD9459673
Probable space group: P B C A
;
_chemical_formula_sum "Si O2"
_cell_formula_units_Z 64
_cell_length_a 15.377803
_cell_length_b 8.631526
_cell_length_c 20.362953
_cell_angle_alpha 90.000000
_cell_angle_beta 90.000000
_cell_angle_gamma 90.000000
_cell_volume 2702.854298
_symmetry_space_group_name_H-M "P B C A"
_symmetry_group_IT_number 61
_symmetry_cell_setting 'orthorhombic'
loop_
_space_group_symop_operation_xyz
x,y,z
1/2-x,-y,1/2+z
1/2+x,1/2-y,-z
-x,1/2+y,1/2-z
-x,-y,-z
1/2+x,y,1/2-z
1/2-x,1/2+y,z
x,1/2-y,1/2+z
loop_
_atom_site_type_symbol
_atom_site_label
_atom_site_fract_x
_atom_site_fract_y
_atom_site_fract_z
Si Si1 0.157477 0.791403 0.977329
Si Si2 0.258572 0.206369 0.659249
Si Si3 0.914009 0.055422 0.893072
Si Si4 0.071963 0.596415 0.348612
Si Si5 0.109650 0.207802 0.559207
Si Si6 0.520663 0.560973 0.658021
Si Si7 0.157606 0.061542 0.436834
Si Si8 0.354158 0.486007 0.726600
O O1 0.093524 0.857888 0.922537
O O2 0.163600 0.606977 0.970877
O O3 0.247875 0.863534 0.949348
O O4 0.113763 0.833646 0.047088
O O5 0.207466 0.190910 0.589644
O O6 0.302333 0.366665 0.680269
O O7 0.338600 0.087589 0.659215
O O8 0.184731 0.153309 0.709876
O O9 0.907880 0.883891 0.922593
O O10 0.005357 0.046842 0.855798
O O11 0.041467 0.763230 0.319508
O O12 0.152459 0.549443 0.303191
O O13 0.045081 0.092059 0.596722
O O14 0.100704 0.173456 0.482959
O O15 0.606273 0.472969 0.631081
O O16 0.456760 0.478878 0.709309
#
# Coordination Sequence:
#
# PCOD9459673 Si02
#       8
#     8   8   8   8   8   8   8   8
#     4  11  24  40  66  97 140 177 224 287 345 411
#     4  11  23  41  70 100 130 175 227 282 336 408
#     4  11  22  42  68  97 134 171 225 279 343 402
#     4  10  25  47  63  98 136 179 230 284 341 412
#     4  10  20  40  64  96 131 170 220 278 334 408
#     4   9  23  42  64  94 135 177 225 283 337 410
#     4  11  22  40  64  98 139 177 225 284 351 409
#     4  11  25  46  71  99 133 183 236 281 343 416
#
# _framework density 23.67867
#
# number of rings (size 3 to 8) (size 9 to 14) (size 15 to 20)
#    0.000    1.500    2.500    1.500    5.250    2.000 
#    4.500    0.000    0.000    0.000    0.000    0.000 
#    0.000    0.000    0.000    0.000    0.000    0.000 
#
# Total GULP energy -356939.273032 kJ/mol
# GULP energy per Si atom -5577.176141 kJ/mol
# Density = 2.362478 g / cm^3
# Si number density = 23.678670 Si / 1000 Ang^3
#
#
#
# Elastic Constant Matrix: (Units=GPa)
#
#
# Indices 1 2 3 4 5 6 
#
# 1 63.1588 5.9208 -4.7783 0.0000 0.0000 0.0000
# 2 5.9208 18.4074 -4.7661 0.0000 0.0000 0.0000
# 3 -4.7783 -4.7661 37.8720 0.0000 0.0000 0.0000
# 4 0.0000 0.0000 0.0000 20.3041 0.0000 0.0000
# 5 0.0000 0.0000 0.0000 0.0000 21.5126 0.0000
# 6 0.0000 0.0000 0.0000 0.0000 0.0000 30.7334
#
#
#
# Elastic Compliance Matrix: (Units=1/GPa)
#
#
# Indices 1 2 3 4 5 6 
#
# 1 0.016402 -0.004900 0.001453 0.000000 0.000000 0.000000
# 2 -0.004900 0.057619 0.006633 0.000000 0.000000 0.000000
# 3 0.001453 0.006633 0.027423 0.000000 0.000000 0.000000
# 4 0.000000 0.000000 0.000000 0.049251 0.000000 0.000000
# 5 0.000000 0.000000 0.000000 0.000000 0.046484 0.000000
# 6 0.000000 0.000000 0.000000 0.000000 0.000000 0.032538
#
#
# Mechanical properties :
#
#
# Convention : Reuss Voigt Hill
#
# Bulk Modulus (GPa) = 9.27498 12.46568 10.87033
# Shear Modulus (GPa) = 19.28383 22.71414 20.99899
#
# Velocity S-wave (km/s) = 2.85686 3.10056 2.98120
# Velocity P-wave (km/s) = 3.84808 4.25370 4.05596
#
# Compressibility (1/GPa) = 0.10781697
#
# Stress axis : x y z
#
# Youngs Moduli (GPa) = 60.96690 17.35525 36.46600
#
# Poissons Ratio (x) = 0.08504 -0.05298
# Poissons Ratio (y) = 0.29872 -0.24188
# Poissons Ratio (z) = -0.08858 -0.11512
#
# Static dielectric constant tensor:
#      x y z
#    x 2.005180 0.000000 0.000000 
#    y 0.000000 1.903280 0.000000 
#    z 0.000000 0.000000 1.931300 
# 
# From -- ./inp_files/11093.got.cif
#   From: 2010.05.17/outbox.cif.g08.bks.cpg/sg61_6_cif.got.tgz:11093.got - 2010.06.03 15:17:17.
