data_PCOD9459756
_publ_section_title
;
Structure prediction by ZEFSAII (Michael W. Deem and Ramdas Pophale) SiO2 
 PCOD9459756
Probable space group: P B C A
;
_chemical_formula_sum "Si O2"
_cell_formula_units_Z 56
_cell_length_a 14.105610
_cell_length_b 10.361766
_cell_length_c 15.454785
_cell_angle_alpha 90.000000
_cell_angle_beta 90.000000
_cell_angle_gamma 90.000000
_cell_volume 2258.856386
_symmetry_space_group_name_H-M "P B C A"
_symmetry_group_IT_number 61
_symmetry_cell_setting 'orthorhombic'
loop_
_space_group_symop_operation_xyz
x,y,z
1/2-x,-y,1/2+z
1/2+x,1/2-y,-z
-x,1/2+y,1/2-z
-x,-y,-z
1/2+x,y,1/2-z
1/2-x,1/2+y,z
x,1/2-y,1/2+z
loop_
_atom_site_type_symbol
_atom_site_label
_atom_site_fract_x
_atom_site_fract_y
_atom_site_fract_z
Si Si1 0.334063 0.104437 0.190673
Si Si2 0.763021 0.467273 0.465744
Si Si3 0.842316 0.822356 0.730733
Si Si4 0.147002 0.060813 0.856060
Si Si5 0.555717 0.436389 0.892824
Si Si6 0.079079 0.179751 0.540154
Si Si7 0.975443 0.536047 0.132880
O O1 0.294545 0.067516 0.095875
O O2 0.264260 0.203722 0.236557
O O3 0.445328 0.123043 0.180995
O O4 0.321978 0.989960 0.261067
O O5 0.787288 0.516861 0.562748
O O6 0.864932 0.459262 0.418777
O O7 0.692797 0.345008 0.460740
O O8 0.862884 0.712467 0.660952
O O9 0.900505 0.842736 0.819024
O O10 0.877784 0.955007 0.684679
O O11 0.044536 0.995189 0.870805
O O12 0.550204 0.328297 0.967486
O O13 0.043903 0.101177 0.457852
O O14 0.024492 0.102299 0.617448
#
# Coordination Sequence:
#
# PCOD9459756 Si02
#       7
#     8   8   8   8   8   8   8
#     4  10  23  46  64 106 144 190 247 298 379 436
#     4  10  23  44  70 104 145 191 243 309 367 450
#     4  11  23  43  69  99 145 183 243 309 355 459
#     4  12  24  47  72 110 148 195 252 309 386 447
#     4  11  24  45  70 105 146 190 244 311 378 451
#     4  10  22  44  68  99 143 179 247 303 357 458
#     4  10  20  43  68  98 137 194 233 293 380 424
#
# _framework density 24.791305999999999
#
# number of rings (size 3 to 8) (size 9 to 14) (size 15 to 20)
#    0.000    1.429    1.429    3.857    0.000    0.000 
#   36.000    0.000    0.000    0.000    0.000    0.000 
#    0.000    0.000    0.000    0.000    0.000    0.000 
#
# Total GULP energy -312368.158419 kJ/mol
# GULP energy per Si atom -5578.002829 kJ/mol
# Density = 2.473488 g / cm^3
# Si number density = 24.791306 Si / 1000 Ang^3
#
#
#
# Elastic Constant Matrix: (Units=GPa)
#
#
# Indices 1 2 3 4 5 6 
#
# 1 127.3422 27.4721 10.1532 0.0000 0.0000 0.0000
# 2 27.4721 50.1944 -5.2101 0.0000 0.0000 0.0000
# 3 10.1532 -5.2101 64.6069 0.0000 0.0000 0.0000
# 4 0.0000 0.0000 0.0000 26.5317 0.0000 0.0000
# 5 0.0000 0.0000 0.0000 0.0000 45.9451 0.0000
# 6 0.0000 0.0000 0.0000 0.0000 0.0000 27.9073
#
#
#
# Elastic Compliance Matrix: (Units=1/GPa)
#
#
# Indices 1 2 3 4 5 6 
#
# 1 0.009119 -0.005183 -0.001851 0.000000 0.000000 0.000000
# 2 -0.005183 0.023037 0.002672 0.000000 0.000000 0.000000
# 3 -0.001851 0.002672 0.015985 0.000000 0.000000 0.000000
# 4 0.000000 0.000000 0.000000 0.037691 0.000000 0.000000
# 5 0.000000 0.000000 0.000000 0.000000 0.021765 0.000000
# 6 0.000000 0.000000 0.000000 0.000000 0.000000 0.035833
#
#
# Mechanical properties :
#
#
# Convention : Reuss Voigt Hill
#
# Bulk Modulus (GPa) = 25.37003 34.10820 29.73911
# Shear Modulus (GPa) = 30.24978 34.05871 32.15424
#
# Velocity S-wave (km/s) = 3.49689 3.71052 3.60529
# Velocity P-wave (km/s) = 5.15364 5.66968 5.41781
#
# Compressibility (1/GPa) = 0.03941659
#
# Stress axis : x y z
#
# Youngs Moduli (GPa) = 109.66652 43.40930 62.56014
#
# Poissons Ratio (x) = 0.22498 0.11580
# Poissons Ratio (y) = 0.56838 -0.16718
# Poissons Ratio (z) = 0.20299 -0.11600
#
# Static dielectric constant tensor:
#      x y z
#    x 1.991410 0.000000 0.000000 
#    y 0.000000 2.070480 0.000000 
#    z 0.000000 0.000000 2.093410 
# 
# From -- ./inp_files/7910.got.cif
#   From: 2010.05.17/outbox.cif.g08.bks.cpg/sg61_4_cif.got.tgz:7910.got - 2010.06.03 15:17:17.
