data_PCOD9459800
_publ_section_title
;
Structure prediction by ZEFSAII (Michael W. Deem and Ramdas Pophale) SiO2 
 PCOD9459800
Probable space group: P B C A
;
_chemical_formula_sum "Si O2"
_cell_formula_units_Z 48
_cell_length_a 31.352950
_cell_length_b 8.731132
_cell_length_c 7.825168
_cell_angle_alpha 90.000000
_cell_angle_beta 90.000000
_cell_angle_gamma 90.000000
_cell_volume 2142.114269
_symmetry_space_group_name_H-M "P B C A"
_symmetry_group_IT_number 61
_symmetry_cell_setting 'orthorhombic'
loop_
_space_group_symop_operation_xyz
x,y,z
1/2-x,-y,1/2+z
1/2+x,1/2-y,-z
-x,1/2+y,1/2-z
-x,-y,-z
1/2+x,y,1/2-z
1/2-x,1/2+y,z
x,1/2-y,1/2+z
loop_
_atom_site_type_symbol
_atom_site_label
_atom_site_fract_x
_atom_site_fract_y
_atom_site_fract_z
Si Si1 0.873841 0.344478 0.300672
Si Si2 0.794044 0.514425 0.183036
Si Si3 0.458060 0.002646 0.235130
Si Si4 0.785337 0.837309 0.056606
Si Si5 0.964142 0.312039 0.120107
Si Si6 0.634450 0.982758 0.679436
O O1 0.840523 0.440984 0.189902
O O2 0.920746 0.350637 0.220841
O O3 0.859076 0.167142 0.296605
O O4 0.872792 0.410955 0.490765
O O5 0.789544 0.655163 0.053541
O O6 0.758811 0.387566 0.142767
O O7 0.786260 0.588677 0.369253
O O8 0.466890 0.128084 0.382054
O O9 0.410075 0.941729 0.261680
O O10 0.493969 0.876124 0.213570
O O11 0.460330 0.105130 0.062125
O O12 0.825319 0.907237 0.161367
#
# Coordination Sequence:
#
# PCOD9459800 Si02
#       6
#     8   8   8   8   8   8
#     4  10  21  37  58  83 111 146 186 229 278 330
#     4  11  24  40  60  86 115 149 188 231 280 334
#     4  10  21  36  56  82 111 146 186 228 276 329
#     4  11  24  40  60  86 115 149 188 231 280 334
#     4  10  21  36  56  82 111 146 186 228 276 329
#     4  10  21  37  58  83 111 146 186 229 278 330
#
# _framework density 22.407768999999998
#
# number of rings (size 3 to 8) (size 9 to 14) (size 15 to 20)
#    0.000    1.667    0.000    6.000    0.000   12.000 
#    0.000    6.667    0.000    0.000    0.000    0.000 
#    0.000    0.000    0.000    0.000    0.000    0.000 
#
# Total GULP energy -268676.442341 kJ/mol
# GULP energy per Si atom -5597.425882 kJ/mol
# Density = 2.235677 g / cm^3
# Si number density = 22.407769 Si / 1000 Ang^3
#
#
#
# Elastic Constant Matrix: (Units=GPa)
#
#
# Indices 1 2 3 4 5 6 
#
# 1 60.6973 28.5271 5.5809 0.0000 0.0000 0.0000
# 2 28.5271 43.7294 -7.3628 0.0000 0.0000 0.0000
# 3 5.5809 -7.3628 65.3010 0.0000 0.0000 0.0000
# 4 0.0000 0.0000 0.0000 24.2943 0.0000 0.0000
# 5 0.0000 0.0000 0.0000 0.0000 23.8135 0.0000
# 6 0.0000 0.0000 0.0000 0.0000 0.0000 40.1238
#
#
#
# Elastic Compliance Matrix: (Units=1/GPa)
#
#
# Indices 1 2 3 4 5 6 
#
# 1 0.024750 -0.016821 -0.004012 0.000000 0.000000 0.000000
# 2 -0.016821 0.034743 0.005355 0.000000 0.000000 0.000000
# 3 -0.004012 0.005355 0.016260 0.000000 0.000000 0.000000
# 4 0.000000 0.000000 0.000000 0.041162 0.000000 0.000000
# 5 0.000000 0.000000 0.000000 0.000000 0.041993 0.000000
# 6 0.000000 0.000000 0.000000 0.000000 0.000000 0.024923
#
#
# Mechanical properties :
#
#
# Convention : Reuss Voigt Hill
#
# Bulk Modulus (GPa) = 22.32295 24.80200 23.56247
# Shear Modulus (GPa) = 21.76572 27.17850 24.47211
#
# Velocity S-wave (km/s) = 3.12002 3.48646 3.30832
# Velocity P-wave (km/s) = 4.79199 5.22491 5.01313
#
# Compressibility (1/GPa) = 0.04479694
#
# Stress axis : x y z
#
# Youngs Moduli (GPa) = 40.40436 28.78287 61.49931
#
# Poissons Ratio (x) = 0.48416 0.24672
# Poissons Ratio (y) = 0.67965 -0.32932
# Poissons Ratio (z) = 0.16209 -0.15413
#
# Static dielectric constant tensor:
#      x y z
#    x 1.786140 0.000000 0.000000 
#    y 0.000000 1.814870 0.000000 
#    z 0.000000 0.000000 1.887510 
# 
# From -- ./inp_files/4581.got.cif
#   From: 2010.05.17/outbox.cif.g08.bks.cpg/sg61_3_cif.got.tgz:4581.got - 2010.06.03 15:17:17.
