data_PCOD9459860
_publ_section_title
;
Structure prediction by ZEFSAII (Michael W. Deem and Ramdas Pophale) SiO2 
 PCOD9459860
Probable space group: P B C A
;
_chemical_formula_sum "Si O2"
_cell_formula_units_Z 64
_cell_length_a 17.236976
_cell_length_b 16.519592
_cell_length_c 8.338773
_cell_angle_alpha 90.000000
_cell_angle_beta 90.000000
_cell_angle_gamma 90.000000
_cell_volume 2374.447357
_symmetry_space_group_name_H-M "P B C A"
_symmetry_group_IT_number 61
_symmetry_cell_setting 'orthorhombic'
loop_
_space_group_symop_operation_xyz
x,y,z
1/2-x,-y,1/2+z
1/2+x,1/2-y,-z
-x,1/2+y,1/2-z
-x,-y,-z
1/2+x,y,1/2-z
1/2-x,1/2+y,z
x,1/2-y,1/2+z
loop_
_atom_site_type_symbol
_atom_site_label
_atom_site_fract_x
_atom_site_fract_y
_atom_site_fract_z
Si Si1 0.538295 0.149252 0.611119
Si Si2 0.490538 0.160110 0.113921
Si Si3 0.258095 0.512411 0.379976
Si Si4 0.834525 0.586122 0.846109
Si Si5 0.898455 0.388307 0.580280
Si Si6 0.247514 0.763713 0.135644
Si Si7 0.859244 0.198977 0.596701
Si Si8 0.638963 0.135959 0.279756
O O1 0.508514 0.242392 0.642421
O O2 0.585684 0.110665 0.758936
O O3 0.462683 0.098318 0.556737
O O4 0.593347 0.147359 0.449987
O O5 0.441716 0.111773 0.248140
O O6 0.437591 0.155893 0.956080
O O7 0.575365 0.125329 0.139291
O O8 0.223918 0.432239 0.302016
O O9 0.317811 0.513431 0.529256
O O10 0.177885 0.558382 0.424536
O O11 0.304239 0.560554 0.240460
O O12 0.797411 0.663686 0.934312
O O13 0.875105 0.294603 0.579201
O O14 0.210067 0.692640 0.030887
O O15 0.176602 0.804959 0.229851
O O16 0.310326 0.716966 0.242727
#
# Coordination Sequence:
#
# PCOD9459860 Si02
#       8
#     8   8   8   8   8   8   8   8
#     4  10  23  40  69 105 132 176 226 288 349 417
#     4  10  21  37  67 101 134 166 218 276 344 403
#     4  12  26  46  67  97 139 188 235 286 349 415
#     4  12  26  43  67  98 137 185 233 287 347 415
#     4  10  21  41  65  94 133 180 220 280 339 414
#     4  12  21  38  66  98 126 171 218 281 338 397
#     4  11  20  36  62  98 128 165 213 275 338 403
#     4  11  22  41  67  99 137 169 226 285 347 402
#
# _framework density 26.95364
#
# number of rings (size 3 to 8) (size 9 to 14) (size 15 to 20)
#    0.000    1.000    5.000    1.500    1.750    2.500 
#    0.000    0.000    0.000    4.500    0.000    0.000 
#    0.000    0.000    0.000    0.000    0.000    0.000 
#
# Total GULP energy -357679.899816 kJ/mol
# GULP energy per Si atom -5588.748435 kJ/mol
# Density = 2.689229 g / cm^3
# Si number density = 26.953640 Si / 1000 Ang^3
#
#
#
# Elastic Constant Matrix: (Units=GPa)
#
#
# Indices 1 2 3 4 5 6 
#
# 1 159.3489 33.8847 47.3951 0.0000 0.0000 0.0000
# 2 33.8847 43.4644 -6.6504 0.0000 0.0000 0.0000
# 3 47.3951 -6.6504 69.4599 0.0000 0.0000 0.0000
# 4 0.0000 0.0000 0.0000 30.4188 0.0000 0.0000
# 5 0.0000 0.0000 0.0000 0.0000 59.4782 0.0000
# 6 0.0000 0.0000 0.0000 0.0000 0.0000 39.4382
#
#
#
# Elastic Compliance Matrix: (Units=1/GPa)
#
#
# Indices 1 2 3 4 5 6 
#
# 1 0.010806 -0.009695 -0.008302 0.000000 0.000000 0.000000
# 2 -0.009695 0.032047 0.009683 0.000000 0.000000 0.000000
# 3 -0.008302 0.009683 0.020988 0.000000 0.000000 0.000000
# 4 0.000000 0.000000 0.000000 0.032874 0.000000 0.000000
# 5 0.000000 0.000000 0.000000 0.000000 0.016813 0.000000
# 6 0.000000 0.000000 0.000000 0.000000 0.000000 0.025356
#
#
# Mechanical properties :
#
#
# Convention : Reuss Voigt Hill
#
# Bulk Modulus (GPa) = 21.17945 46.83688 34.00816
# Shear Modulus (GPa) = 29.19711 39.04329 34.12020
#
# Velocity S-wave (km/s) = 3.29482 3.81009 3.56179
# Velocity P-wave (km/s) = 4.72750 6.06385 5.43689
#
# Compressibility (1/GPa) = 0.04721557
#
# Stress axis : x y z
#
# Youngs Moduli (GPa) = 92.53902 31.20420 47.64515
#
# Poissons Ratio (x) = 0.30252 0.39554
# Poissons Ratio (y) = 0.89714 -0.46137
# Poissons Ratio (z) = 0.76823 -0.30216
#
# Static dielectric constant tensor:
#      x y z
#    x 2.231720 0.000000 0.000000 
#    y 0.000000 2.052200 0.000000 
#    z 0.000000 0.000000 2.275570 
# 
# From -- ./inp_files/3691.got.cif
#   From: 2010.05.17/outbox.cif.g08.bks.cpg/sg61_2_cif.got.tgz:3691.got - 2010.06.03 15:17:17.
