data_PCOD9459992
_publ_section_title
;
Structure prediction by ZEFSAII (Michael W. Deem and Ramdas Pophale) SiO2 
 PCOD9459992
Probable space group: P B C A
;
_chemical_formula_sum "Si O2"
_cell_formula_units_Z 64
_cell_length_a 17.009647
_cell_length_b 20.669625
_cell_length_c 9.311562
_cell_angle_alpha 90.000000
_cell_angle_beta 90.000000
_cell_angle_gamma 90.000000
_cell_volume 3273.787134
_symmetry_space_group_name_H-M "P B C A"
_symmetry_group_IT_number 61
_symmetry_cell_setting 'orthorhombic'
loop_
_space_group_symop_operation_xyz
x,y,z
1/2-x,-y,1/2+z
1/2+x,1/2-y,-z
-x,1/2+y,1/2-z
-x,-y,-z
1/2+x,y,1/2-z
1/2-x,1/2+y,z
x,1/2-y,1/2+z
loop_
_atom_site_type_symbol
_atom_site_label
_atom_site_fract_x
_atom_site_fract_y
_atom_site_fract_z
Si Si1 0.924911 0.133972 0.267619
Si Si2 0.546806 0.724055 0.822835
Si Si3 0.846264 0.122380 0.961218
Si Si4 0.392724 0.626762 0.181968
Si Si5 0.338076 0.007486 0.152223
Si Si6 0.934190 0.755535 0.434029
Si Si7 0.337526 0.617682 0.488822
Si Si8 0.172872 0.019683 0.991997
O O1 0.919609 0.203323 0.344664
O O2 0.016237 0.122287 0.229302
O O3 0.891239 0.071511 0.347650
O O4 0.877313 0.141098 0.119069
O O5 0.610417 0.669151 0.850755
O O6 0.505500 0.723507 0.668991
O O7 0.475250 0.718289 0.934945
O O8 0.752054 0.127017 0.959955
O O9 0.865589 0.046331 0.946093
O O10 0.380995 0.702334 0.145949
O O11 0.340687 0.605614 0.318026
O O12 0.374293 0.581586 0.047054
O O13 0.371768 0.943909 0.073665
O O14 0.322765 0.989256 0.319904
O O15 0.258729 0.022831 0.064185
O O16 0.886833 0.817847 0.482810
#
# Coordination Sequence:
#
# PCOD9459992 Si02
#       8
#     8   8   8   8   8   8   8   8
#     4  10  21  40  63  90 122 166 200 255 312 364
#     4  11  21  44  62  88 123 161 206 255 308 369
#     4  10  22  41  63  88 125 160 208 252 307 371
#     4  11  22  40  64  90 126 163 203 258 312 367
#     4  10  23  41  62  89 125 161 210 257 313 372
#     4  11  23  42  64  88 127 161 203 261 309 368
#     4  11  24  42  62  94 126 163 209 261 309 374
#     4  10  22  41  62  89 124 164 205 263 310 371
#
# _framework density 19.549223999999999
#
# number of rings (size 3 to 8) (size 9 to 14) (size 15 to 20)
#    0.000    1.500    5.000    2.250    1.750    5.500 
#    6.750    0.000    0.000    0.000    0.000    0.000 
#    0.000    0.000    0.000    0.000    0.000    0.000 
#
# Total GULP energy -357237.940576 kJ/mol
# GULP energy per Si atom -5581.842822 kJ/mol
# Density = 1.950473 g / cm^3
# Si number density = 19.549224 Si / 1000 Ang^3
#
#
#
# Elastic Constant Matrix: (Units=GPa)
#
#
# Indices 1 2 3 4 5 6 
#
# 1 21.1460 10.1326 -9.1804 0.0000 0.0000 0.0000
# 2 10.1326 71.0366 9.8260 0.0000 0.0000 0.0000
# 3 -9.1804 9.8260 48.0718 0.0000 0.0000 0.0000
# 4 0.0000 0.0000 0.0000 36.9956 0.0000 0.0000
# 5 0.0000 0.0000 0.0000 0.0000 33.2680 0.0000
# 6 0.0000 0.0000 0.0000 0.0000 0.0000 33.9916
#
#
#
# Elastic Compliance Matrix: (Units=1/GPa)
#
#
# Indices 1 2 3 4 5 6 
#
# 1 0.057792 -0.010054 0.013092 0.000000 0.000000 0.000000
# 2 -0.010054 0.016236 -0.005239 0.000000 0.000000 0.000000
# 3 0.013092 -0.005239 0.024373 0.000000 0.000000 0.000000
# 4 0.000000 0.000000 0.000000 0.027030 0.000000 0.000000
# 5 0.000000 0.000000 0.000000 0.000000 0.030059 0.000000
# 6 0.000000 0.000000 0.000000 0.000000 0.000000 0.029419
#
#
# Mechanical properties :
#
#
# Convention : Reuss Voigt Hill
#
# Bulk Modulus (GPa) = 10.63848 17.97897 14.30872
# Shear Modulus (GPa) = 22.66090 29.48280 26.07185
#
# Velocity S-wave (km/s) = 3.40835 3.88768 3.65588
# Velocity P-wave (km/s) = 4.57634 5.41930 5.01556
#
# Compressibility (1/GPa) = 0.09399843
#
# Stress axis : x y z
#
# Youngs Moduli (GPa) = 17.30353 61.59141 41.02865
#
# Poissons Ratio (x) = 0.61926 -0.53714
# Poissons Ratio (y) = 0.17397 0.21494
# Poissons Ratio (z) = -0.22653 0.32266
#
# Static dielectric constant tensor:
#      x y z
#    x 1.676630 0.000000 0.000000 
#    y 0.000000 1.705070 0.000000 
#    z 0.000000 0.000000 1.700200 
# 
# From -- ./inp_files/3712.got.cif
#   From: 2010.05.17/outbox.cif.g08.bks.cpg/sg61_2_cif.got.tgz:3712.got - 2010.06.03 15:17:17.
