data_PCOD9459210
_publ_section_title
;
Structure prediction by ZEFSAII (Michael W. Deem and Ramdas Pophale) SiO2 
 PCOD9459210
Probable space group: P B C A
;
_chemical_formula_sum "Si O2"
_cell_formula_units_Z 56
_cell_length_a 9.641795
_cell_length_b 13.535327
_cell_length_c 16.180182
_cell_angle_alpha 90.000000
_cell_angle_beta 90.000000
_cell_angle_gamma 90.000000
_cell_volume 2111.592196
_symmetry_space_group_name_H-M "P B C A"
_symmetry_group_IT_number 61
_symmetry_cell_setting 'orthorhombic'
loop_
_space_group_symop_operation_xyz
x,y,z
1/2-x,-y,1/2+z
1/2+x,1/2-y,-z
-x,1/2+y,1/2-z
-x,-y,-z
1/2+x,y,1/2-z
1/2-x,1/2+y,z
x,1/2-y,1/2+z
loop_
_atom_site_type_symbol
_atom_site_label
_atom_site_fract_x
_atom_site_fract_y
_atom_site_fract_z
Si Si1 0.351483 0.877530 0.147926
Si Si2 0.963393 0.340110 0.001977
Si Si3 0.958486 0.120225 0.039646
Si Si4 0.467895 0.167538 0.186545
Si Si5 0.670131 0.138772 0.320955
Si Si6 0.126586 0.623803 0.763457
Si Si7 0.201953 0.064365 0.926307
O O1 0.413188 0.886199 0.056310
O O2 0.331184 0.757761 0.159002
O O3 0.479577 0.914551 0.204180
O O4 0.204560 0.914741 0.181836
O O5 0.921777 0.234832 0.041701
O O6 0.823833 0.403023 0.011414
O O7 0.004498 0.318646 0.908653
O O8 0.070183 0.096794 0.110111
O O9 0.829121 0.051463 0.061452
O O10 0.051005 0.104777 0.956423
O O11 0.327338 0.105600 0.182315
O O12 0.418734 0.263703 0.239348
O O13 0.761951 0.395204 0.161691
O O14 0.597477 0.123793 0.233671
#
# Coordination Sequence:
#
# PCOD9459210 Si02
#       7
#     8   8   8   8   8   8   8
#     4   8  17  32  54  85 117 154 211 248 312 376
#     4  10  20  37  62  90 126 172 209 273 322 401
#     4  10  21  38  62  92 123 168 222 264 333 399
#     4  10  19  34  60  91 123 166 219 265 330 388
#     4   9  18  35  54  88 122 158 213 265 311 388
#     4   9  18  33  55  86 120 158 207 260 310 381
#     4  10  21  39  62  90 125 167 219 271 324 406
#
# _framework density 26.520271000000001
#
# number of rings (size 3 to 8) (size 9 to 14) (size 15 to 20)
#    0.000    2.571    1.429    0.857    6.000    0.000 
#    0.000    4.286    0.000    0.857    0.000    0.000 
#    0.000    0.000    0.000    0.000    0.000    0.000 
#
# Total GULP energy -313028.398829 kJ/mol
# GULP energy per Si atom -5589.792836 kJ/mol
# Density = 2.645991 g / cm^3
# Si number density = 26.520271 Si / 1000 Ang^3
#
#
#
# Elastic Constant Matrix: (Units=GPa)
#
#
# Indices 1 2 3 4 5 6 
#
# 1 100.2802 29.7145 80.0173 0.0000 0.0000 0.0000
# 2 29.7145 96.6450 31.3697 0.0000 0.0000 0.0000
# 3 80.0173 31.3697 139.9973 0.0000 0.0000 0.0000
# 4 0.0000 0.0000 0.0000 7.2433 0.0000 0.0000
# 5 0.0000 0.0000 0.0000 0.0000 33.0138 0.0000
# 6 0.0000 0.0000 0.0000 0.0000 0.0000 43.0402
#
#
#
# Elastic Compliance Matrix: (Units=1/GPa)
#
#
# Indices 1 2 3 4 5 6 
#
# 1 0.018870 -0.002481 -0.010229 0.000000 0.000000 0.000000
# 2 -0.002481 0.011485 -0.001155 0.000000 0.000000 0.000000
# 3 -0.010229 -0.001155 0.013248 0.000000 0.000000 0.000000
# 4 0.000000 0.000000 0.000000 0.138058 0.000000 0.000000
# 5 0.000000 0.000000 0.000000 0.000000 0.030290 0.000000
# 6 0.000000 0.000000 0.000000 0.000000 0.000000 0.023234
#
#
# Mechanical properties :
#
#
# Convention : Reuss Voigt Hill
#
# Bulk Modulus (GPa) = 63.00584 68.79173 65.89879
# Shear Modulus (GPa) = 18.64228 29.71419 24.17824
#
# Velocity S-wave (km/s) = 2.65419 3.35092 3.02269
# Velocity P-wave (km/s) = 5.76213 6.40056 6.08972
#
# Compressibility (1/GPa) = 0.01587154
#
# Stress axis : x y z
#
# Youngs Moduli (GPa) = 52.99548 87.06974 75.48060
#
# Poissons Ratio (x) = 0.21606 0.77210
# Poissons Ratio (y) = 0.13150 0.08720
# Poissons Ratio (z) = 0.54210 0.10058
#
# Static dielectric constant tensor:
#      x y z
#    x 1.997330 0.000000 0.000000 
#    y 0.000000 2.194710 0.000000 
#    z 0.000000 0.000000 2.135650 
# 
# From -- ./inp_files/10123.got.cif
#   From: 2010.05.17/outbox.cif.g08.bks.cpg/sg61_6_cif.got.tgz:10123.got - 2010.06.03 15:17:17.
