data_PCOD9459926
_publ_section_title
;
Structure prediction by ZEFSAII (Michael W. Deem and Ramdas Pophale) SiO2 
 PCOD9459926
Probable space group: P B C A
;
_chemical_formula_sum "Si O2"
_cell_formula_units_Z 48
_cell_length_a 14.446631
_cell_length_b 8.097322
_cell_length_c 17.254417
_cell_angle_alpha 90.000000
_cell_angle_beta 90.000000
_cell_angle_gamma 90.000000
_cell_volume 2018.404843
_symmetry_space_group_name_H-M "P B C A"
_symmetry_group_IT_number 61
_symmetry_cell_setting 'orthorhombic'
loop_
_space_group_symop_operation_xyz
x,y,z
1/2-x,-y,1/2+z
1/2+x,1/2-y,-z
-x,1/2+y,1/2-z
-x,-y,-z
1/2+x,y,1/2-z
1/2-x,1/2+y,z
x,1/2-y,1/2+z
loop_
_atom_site_type_symbol
_atom_site_label
_atom_site_fract_x
_atom_site_fract_y
_atom_site_fract_z
Si Si1 0.458155 0.656711 0.851858
Si Si2 0.874060 0.340820 0.117724
Si Si3 0.721496 0.524937 0.178076
Si Si4 0.549632 0.303398 0.816770
Si Si5 0.624362 0.788627 0.937401
Si Si6 0.216459 0.097133 0.645294
O O1 0.353824 0.592601 0.865087
O O2 0.513447 0.485761 0.834085
O O3 0.458063 0.764135 0.773934
O O4 0.517763 0.749423 0.916429
O O5 0.820168 0.507652 0.137021
O O6 0.979659 0.324885 0.142012
O O7 0.820651 0.206307 0.170759
O O8 0.863334 0.290801 0.029102
O O9 0.727720 0.472268 0.267528
O O10 0.651458 0.258997 0.845786
O O11 0.690006 0.652779 0.896497
O O12 0.660058 0.961267 0.902889
#
# Coordination Sequence:
#
# PCOD9459926 Si02
#       6
#     8   8   8   8   8   8
#     4  10  21  39  62  87 118 158 206 253 298 360
#     4  11  24  39  60  90 124 157 195 252 312 362
#     4  10  22  40  61  85 116 160 206 244 294 360
#     4  10  22  40  63  89 119 160 207 251 300 359
#     4  12  24  39  61  91 125 157 198 254 312 363
#     4  11  23  40  63  88 118 163 210 250 296 363
#
# _framework density 23.781157
#
# number of rings (size 3 to 8) (size 9 to 14) (size 15 to 20)
#    0.000    1.333    0.000    7.000    0.000   10.000 
#    0.000    0.000    0.000    0.000    0.000    0.000 
#    0.000    0.000    0.000    0.000    0.000    0.000 
#
# Total GULP energy -268958.020179 kJ/mol
# GULP energy per Si atom -5603.292087 kJ/mol
# Density = 2.372703 g / cm^3
# Si number density = 23.781157 Si / 1000 Ang^3
#
#
#
# Elastic Constant Matrix: (Units=GPa)
#
#
# Indices 1 2 3 4 5 6 
#
# 1 110.5507 15.1864 27.0828 0.0000 0.0000 0.0000
# 2 15.1864 60.4242 4.7107 0.0000 0.0000 0.0000
# 3 27.0828 4.7107 99.0687 0.0000 0.0000 0.0000
# 4 0.0000 0.0000 0.0000 20.7598 0.0000 0.0000
# 5 0.0000 0.0000 0.0000 0.0000 7.4545 0.0000
# 6 0.0000 0.0000 0.0000 0.0000 0.0000 41.5999
#
#
#
# Elastic Compliance Matrix: (Units=1/GPa)
#
#
# Indices 1 2 3 4 5 6 
#
# 1 0.010006 -0.002310 -0.002626 0.000000 0.000000 0.000000
# 2 -0.002310 0.017145 -0.000184 0.000000 0.000000 0.000000
# 3 -0.002626 -0.000184 0.010821 0.000000 0.000000 0.000000
# 4 0.000000 0.000000 0.000000 0.048170 0.000000 0.000000
# 5 0.000000 0.000000 0.000000 0.000000 0.134148 0.000000
# 6 0.000000 0.000000 0.000000 0.000000 0.000000 0.024039
#
#
# Mechanical properties :
#
#
# Convention : Reuss Voigt Hill
#
# Bulk Modulus (GPa) = 36.05886 40.44483 38.25184
# Shear Modulus (GPa) = 18.95298 28.83373 23.89335
#
# Velocity S-wave (km/s) = 2.82614 3.48582 3.17317
# Velocity P-wave (km/s) = 5.08381 5.76587 5.43555
#
# Compressibility (1/GPa) = 0.02773243
#
# Stress axis : x y z
#
# Youngs Moduli (GPa) = 99.93814 58.32740 92.41708
#
# Poissons Ratio (x) = 0.13475 0.24265
# Poissons Ratio (y) = 0.23087 0.01698
# Poissons Ratio (z) = 0.26240 0.01071
#
# Static dielectric constant tensor:
#      x y z
#    x 1.900480 0.000000 0.000000 
#    y 0.000000 1.957200 0.000000 
#    z 0.000000 0.000000 1.801640 
# 
# From -- ./inp_files/3445.got.cif
#   From: 2010.05.17/outbox.cif.g08.bks.cpg/sg61_2_cif.got.tgz:3445.got - 2010.06.03 15:17:17.
