data_PCOD9459506
_publ_section_title
;
Structure prediction by ZEFSAII (Michael W. Deem and Ramdas Pophale) SiO2 
 PCOD9459506
Probable space group: P B C A
;
_chemical_formula_sum "Si O2"
_cell_formula_units_Z 48
_cell_length_a 20.975784
_cell_length_b 12.741938
_cell_length_c 8.709966
_cell_angle_alpha 90.000000
_cell_angle_beta 90.000000
_cell_angle_gamma 90.000000
_cell_volume 2327.931245
_symmetry_space_group_name_H-M "P B C A"
_symmetry_group_IT_number 61
_symmetry_cell_setting 'orthorhombic'
loop_
_space_group_symop_operation_xyz
x,y,z
1/2-x,-y,1/2+z
1/2+x,1/2-y,-z
-x,1/2+y,1/2-z
-x,-y,-z
1/2+x,y,1/2-z
1/2-x,1/2+y,z
x,1/2-y,1/2+z
loop_
_atom_site_type_symbol
_atom_site_label
_atom_site_fract_x
_atom_site_fract_y
_atom_site_fract_z
Si Si1 0.068678 0.009832 0.700629
Si Si2 0.936360 0.394700 0.129759
Si Si3 0.198596 0.969019 0.339212
Si Si4 0.198768 0.386557 0.111717
Si Si5 0.121837 0.669215 0.376683
Si Si6 0.790431 0.214266 0.408801
O O1 0.064636 0.934166 0.548665
O O2 0.083852 0.937265 0.847167
O O3 0.128460 0.086638 0.671361
O O4 0.002286 0.070686 0.704559
O O5 0.874960 0.450995 0.205020
O O6 0.923989 0.270518 0.136238
O O7 0.250658 0.955609 0.208809
O O8 0.211714 0.873843 0.460465
O O9 0.202976 0.074954 0.436356
O O10 0.223124 0.267807 0.125239
O O11 0.173411 0.672718 0.239242
O O12 0.163840 0.692762 0.526108
#
# Coordination Sequence:
#
# PCOD9459506 Si02
#       6
#     8   8   8   8   8   8
#     4  10  20  37  59  85 113 151 192 240 291 334
#     4   9  19  37  59  81 112 156 191 227 292 352
#     4  10  21  36  57  85 111 157 186 234 294 344
#     4  11  20  35  59  85 116 143 197 244 283 339
#     4  11  18  38  61  82 109 157 192 226 291 358
#     4  11  20  35  59  83 113 151 194 227 285 356
#
# _framework density 20.619166
#
# number of rings (size 3 to 8) (size 9 to 14) (size 15 to 20)
#    0.000    1.667    8.333    1.000    0.000    0.000 
#    0.000    7.500    0.000    0.000    0.000    0.000 
#    0.000    0.000    0.000    0.000    0.000    0.000 
#
# Total GULP energy -268054.899820 kJ/mol
# GULP energy per Si atom -5584.477080 kJ/mol
# Density = 2.057224 g / cm^3
# Si number density = 20.619166 Si / 1000 Ang^3
#
#
#
# Elastic Constant Matrix: (Units=GPa)
#
#
# Indices 1 2 3 4 5 6 
#
# 1 153.8268 45.3380 14.3412 0.0000 0.0000 0.0000
# 2 45.3380 64.3918 -6.7545 0.0000 0.0000 0.0000
# 3 14.3412 -6.7545 29.7012 0.0000 0.0000 0.0000
# 4 0.0000 0.0000 0.0000 31.4484 0.0000 0.0000
# 5 0.0000 0.0000 0.0000 0.0000 20.0950 0.0000
# 6 0.0000 0.0000 0.0000 0.0000 0.0000 41.5110
#
#
#
# Elastic Compliance Matrix: (Units=1/GPa)
#
#
# Indices 1 2 3 4 5 6 
#
# 1 0.009147 -0.007072 -0.006025 0.000000 0.000000 0.000000
# 2 -0.007072 0.021378 0.008276 0.000000 0.000000 0.000000
# 3 -0.006025 0.008276 0.038460 0.000000 0.000000 0.000000
# 4 0.000000 0.000000 0.000000 0.031798 0.000000 0.000000
# 5 0.000000 0.000000 0.000000 0.000000 0.049764 0.000000
# 6 0.000000 0.000000 0.000000 0.000000 0.000000 0.024090
#
#
# Mechanical properties :
#
#
# Convention : Reuss Voigt Hill
#
# Bulk Modulus (GPa) = 16.85120 39.30770 28.07945
# Shear Modulus (GPa) = 24.50270 31.61054 28.05662
#
# Velocity S-wave (km/s) = 3.45098 3.91969 3.69278
# Velocity P-wave (km/s) = 4.90605 6.29208 5.64179
#
# Compressibility (1/GPa) = 0.05934295
#
# Stress axis : x y z
#
# Youngs Moduli (GPa) = 109.32559 46.77768 26.00107
#
# Poissons Ratio (x) = 0.33083 0.15666
# Poissons Ratio (y) = 0.77319 -0.21520
# Poissons Ratio (z) = 0.65868 -0.38715
#
# Static dielectric constant tensor:
#      x y z
#    x 1.731210 0.000000 0.000000 
#    y 0.000000 1.762940 0.000000 
#    z 0.000000 0.000000 1.775680 
# 
# From -- ./inp_files/3853.got.cif
#   From: 2010.05.17/outbox.cif.g08.bks.cpg/sg61_2_cif.got.tgz:3853.got - 2010.06.03 15:17:17.
