data_PCOD9459266
_publ_section_title
;
Structure prediction by ZEFSAII (Michael W. Deem and Ramdas Pophale) SiO2 
 PCOD9459266
Probable space group: P B C A
;
_chemical_formula_sum "Si O2"
_cell_formula_units_Z 52
_cell_length_a 13.261080
_cell_length_b 8.083542
_cell_length_c 18.549408
_cell_angle_alpha 90.000000
_cell_angle_beta 90.000000
_cell_angle_gamma 90.000000
_cell_volume 1988.431562
_symmetry_space_group_name_H-M "P B C A"
_symmetry_group_IT_number 61
_symmetry_cell_setting 'orthorhombic'
loop_
_space_group_symop_operation_xyz
x,y,z
1/2-x,-y,1/2+z
1/2+x,1/2-y,-z
-x,1/2+y,1/2-z
-x,-y,-z
1/2+x,y,1/2-z
1/2-x,1/2+y,z
x,1/2-y,1/2+z
loop_
_atom_site_type_symbol
_atom_site_label
_atom_site_fract_x
_atom_site_fract_y
_atom_site_fract_z
Si Si1 0.835517 0.657414 0.476873
Si Si2 0.500000 0.500000 0.000000
Si Si3 0.793170 0.329026 0.307481
Si Si4 0.538003 0.398632 0.833478
Si Si5 0.851383 0.029661 0.398173
Si Si6 0.952090 0.660827 0.072892
Si Si7 0.609076 0.170412 0.713981
O O1 0.934101 0.625142 0.419506
O O2 0.726119 0.616185 0.452126
O O3 0.879264 0.512985 0.527431
O O4 0.859311 0.827202 0.517246
O O5 0.481356 0.317650 0.045875
O O6 0.870623 0.479458 0.309903
O O7 0.846023 0.158552 0.329820
O O8 0.708560 0.369037 0.369792
O O9 0.725693 0.329539 0.236571
O O10 0.438334 0.498863 0.813304
O O11 0.547884 0.236195 0.784602
O O12 0.966927 0.015707 0.421016
O O13 0.910402 0.698037 0.151483
#
# Coordination Sequence:
#
# PCOD9459266 Si02
#       7
#     8   4   8   8   8   8   8
#     4   9  18  38  62  88 115 165 207 243 308 379
#     4   8  16  36  62  80 120 158 200 236 310 366
#     4  11  22  38  60  91 120 166 205 247 304 389
#     4  11  22  39  60  91 121 166 205 245 322 373
#     4  11  20  40  64  89 121 163 209 243 315 382
#     4  10  19  36  62  89 116 159 204 257 298 363
#     4  12  21  37  65  88 126 157 207 266 305 362
#
# _framework density 26.151264999999999
#
# number of rings (size 3 to 8) (size 9 to 14) (size 15 to 20)
#    0.923    0.615    6.154    1.846    0.000    0.000 
#    0.000    5.385    0.000    0.000    0.000    0.000 
#    0.000    0.000    0.000    0.000    0.000    0.000 
#
# Total GULP energy -289572.655096 kJ/mol
# GULP energy per Si atom -5568.704906 kJ/mol
# Density = 2.609174 g / cm^3
# Si number density = 26.151265 Si / 1000 Ang^3
#
#
#
# Elastic Constant Matrix: (Units=GPa)
#
#
# Indices 1 2 3 4 5 6 
#
# 1 115.8717 1.7710 40.0305 0.0000 0.0000 0.0000
# 2 1.7710 72.4296 17.2903 0.0000 0.0000 0.0000
# 3 40.0305 17.2903 110.1995 0.0000 0.0000 0.0000
# 4 0.0000 0.0000 0.0000 23.1713 0.0000 0.0000
# 5 0.0000 0.0000 0.0000 0.0000 44.4913 0.0000
# 6 0.0000 0.0000 0.0000 0.0000 0.0000 49.3036
#
#
#
# Elastic Compliance Matrix: (Units=1/GPa)
#
#
# Indices 1 2 3 4 5 6 
#
# 1 0.009897 0.000640 -0.003696 0.000000 0.000000 0.000000
# 2 0.000640 0.014385 -0.002490 0.000000 0.000000 0.000000
# 3 -0.003696 -0.002490 0.010808 0.000000 0.000000 0.000000
# 4 0.000000 0.000000 0.000000 0.043157 0.000000 0.000000
# 5 0.000000 0.000000 0.000000 0.000000 0.022476 0.000000
# 6 0.000000 0.000000 0.000000 0.000000 0.000000 0.020282
#
#
# Mechanical properties :
#
#
# Convention : Reuss Voigt Hill
#
# Bulk Modulus (GPa) = 41.66695 46.29827 43.98261
# Shear Modulus (GPa) = 35.68991 39.35383 37.52187
#
# Velocity S-wave (km/s) = 3.69826 3.88345 3.79199
# Velocity P-wave (km/s) = 5.84840 6.15230 6.00227
#
# Compressibility (1/GPa) = 0.02399984
#
# Stress axis : x y z
#
# Youngs Moduli (GPa) = 101.03868 69.51607 92.52804
#
# Poissons Ratio (x) = -0.04451 0.34195
# Poissons Ratio (y) = -0.06469 0.23036
# Poissons Ratio (z) = 0.37340 0.17307
#
# Static dielectric constant tensor:
#      x y z
#    x 2.315300 0.000000 0.000000 
#    y 0.000000 2.494120 0.000000 
#    z 0.000000 0.000000 2.870040 
# 
# From -- ./inp_files/8162.got.cif
#   From: 2010.05.17/outbox.cif.g08.bks.cpg/sg61_5_cif.got.tgz:8162.got - 2010.06.03 15:17:17.
