data_PCOD9459747
_publ_section_title
;
Structure prediction by ZEFSAII (Michael W. Deem and Ramdas Pophale) SiO2 
 PCOD9459747
Probable space group: P B C A
;
_chemical_formula_sum "Si O2"
_cell_formula_units_Z 52
_cell_length_a 13.767291
_cell_length_b 6.979789
_cell_length_c 17.579741
_cell_angle_alpha 90.000000
_cell_angle_beta 90.000000
_cell_angle_gamma 90.000000
_cell_volume 1689.286295
_symmetry_space_group_name_H-M "P B C A"
_symmetry_group_IT_number 61
_symmetry_cell_setting 'orthorhombic'
loop_
_space_group_symop_operation_xyz
x,y,z
1/2-x,-y,1/2+z
1/2+x,1/2-y,-z
-x,1/2+y,1/2-z
-x,-y,-z
1/2+x,y,1/2-z
1/2-x,1/2+y,z
x,1/2-y,1/2+z
loop_
_atom_site_type_symbol
_atom_site_label
_atom_site_fract_x
_atom_site_fract_y
_atom_site_fract_z
Si Si1 0.118744 0.972633 0.672879
Si Si2 0.737102 0.513331 0.972592
Si Si3 0.298230 0.963465 0.785520
Si Si4 0.151399 0.217145 0.930633
Si Si5 0.427267 0.043968 0.650495
Si Si6 0.500000 0.000000 0.000000
Si Si7 0.931846 0.269215 0.131882
O O1 0.176501 0.979684 0.591943
O O2 0.196891 0.998755 0.740140
O O3 0.072938 0.761611 0.677544
O O4 0.027100 0.111473 0.662678
O O5 0.638503 0.528977 0.923708
O O6 0.722799 0.239287 0.992992
O O7 0.695128 0.493667 0.062086
O O8 0.329760 0.815871 0.851169
O O9 0.368996 0.926666 0.714108
O O10 0.340358 0.161972 0.820740
O O11 0.052426 0.304722 0.963149
O O12 0.530929 0.947797 0.637726
O O13 0.574781 0.865539 0.049158
#
# Coordination Sequence:
#
# PCOD9459747 Si02
#       7
#     8   8   8   8   8   4   8
#     4  11  24  46  74 109 145 206 258 321 396 488
#     4  11  20  40  69 102 136 196 259 309 392 471
#     4  10  28  43  72 111 155 201 262 331 403 471
#     4  11  22  40  70 102 146 194 249 330 387 470
#     4  11  24  44  73 108 142 207 262 310 394 491
#     4  10  20  42  72 102 138 198 240 320 394 454
#     4  11  24  49  75 104 156 199 256 325 399 476
#
# _framework density 30.782229999999998
#
# number of rings (size 3 to 8) (size 9 to 14) (size 15 to 20)
#    0.000    1.231    4.615    0.000   10.769    0.000 
#    0.000    2.308   13.538    0.000    0.000    0.000 
#    0.000    0.000    0.000    0.000    0.000    0.000 
#
# Total GULP energy -290149.260362 kJ/mol
# GULP energy per Si atom -5579.793468 kJ/mol
# Density = 3.071217 g / cm^3
# Si number density = 30.782230 Si / 1000 Ang^3
#
#
#
# Elastic Constant Matrix: (Units=GPa)
#
#
# Indices 1 2 3 4 5 6 
#
# 1 171.2624 15.6581 52.3023 0.0000 0.0000 0.0000
# 2 15.6581 56.1191 -15.0852 0.0000 0.0000 0.0000
# 3 52.3023 -15.0852 137.6923 0.0000 0.0000 0.0000
# 4 0.0000 0.0000 0.0000 53.3126 0.0000 0.0000
# 5 0.0000 0.0000 0.0000 0.0000 96.6811 0.0000
# 6 0.0000 0.0000 0.0000 0.0000 0.0000 37.3225
#
#
#
# Elastic Compliance Matrix: (Units=1/GPa)
#
#
# Indices 1 2 3 4 5 6 
#
# 1 0.006993 -0.002746 -0.002957 0.000000 0.000000 0.000000
# 2 -0.002746 0.019438 0.003173 0.000000 0.000000 0.000000
# 3 -0.002957 0.003173 0.008733 0.000000 0.000000 0.000000
# 4 0.000000 0.000000 0.000000 0.018757 0.000000 0.000000
# 5 0.000000 0.000000 0.000000 0.000000 0.010343 0.000000
# 6 0.000000 0.000000 0.000000 0.000000 0.000000 0.026793
#
#
# Mechanical properties :
#
#
# Convention : Reuss Voigt Hill
#
# Bulk Modulus (GPa) = 33.21851 52.31382 42.76617
# Shear Modulus (GPa) = 47.10103 58.27648 52.68876
#
# Velocity S-wave (km/s) = 3.91594 4.35580 4.14171
# Velocity P-wave (km/s) = 5.59115 6.50607 6.06589
#
# Compressibility (1/GPa) = 0.03010370
#
# Stress axis : x y z
#
# Youngs Moduli (GPa) = 142.99655 51.44483 114.50221
#
# Poissons Ratio (x) = 0.14127 0.33861
# Poissons Ratio (y) = 0.39269 -0.36328
# Poissons Ratio (z) = 0.42287 -0.16322
#
# Static dielectric constant tensor:
#      x y z
#    x 2.448020 0.000000 0.000000 
#    y 0.000000 3.228820 0.000000 
#    z 0.000000 0.000000 2.479200 
# 
# From -- ./inp_files/10426.got.cif
#   From: 2010.05.17/outbox.cif.g08.bks.cpg/sg61_6_cif.got.tgz:10426.got - 2010.06.03 15:17:17.
