data_PCOD9459682
_publ_section_title
;
Structure prediction by ZEFSAII (Michael W. Deem and Ramdas Pophale) SiO2 
 PCOD9459682
Probable space group: P B C A
;
_chemical_formula_sum "Si O2"
_cell_formula_units_Z 56
_cell_length_a 9.832183
_cell_length_b 14.618864
_cell_length_c 16.227265
_cell_angle_alpha 90.000000
_cell_angle_beta 90.000000
_cell_angle_gamma 90.000000
_cell_volume 2332.431551
_symmetry_space_group_name_H-M "P B C A"
_symmetry_group_IT_number 61
_symmetry_cell_setting 'orthorhombic'
loop_
_space_group_symop_operation_xyz
x,y,z
1/2-x,-y,1/2+z
1/2+x,1/2-y,-z
-x,1/2+y,1/2-z
-x,-y,-z
1/2+x,y,1/2-z
1/2-x,1/2+y,z
x,1/2-y,1/2+z
loop_
_atom_site_type_symbol
_atom_site_label
_atom_site_fract_x
_atom_site_fract_y
_atom_site_fract_z
Si Si1 0.226829 0.842276 0.140734
Si Si2 0.157170 0.024821 0.512142
Si Si3 0.399043 0.545747 0.932370
Si Si4 0.929715 0.010719 0.768813
Si Si5 0.427840 0.413469 0.641526
Si Si6 0.572298 0.257731 0.104281
Si Si7 0.286431 0.683489 0.239131
O O1 0.319829 0.760664 0.172411
O O2 0.078845 0.798754 0.122421
O O3 0.292223 0.885964 0.060015
O O4 0.189083 0.916102 0.212293
O O5 0.255534 0.005440 0.436753
O O6 0.191680 0.946001 0.581418
O O7 0.000000 0.000000 0.500000
O O8 0.465911 0.528180 0.843347
O O9 0.374960 0.654781 0.946530
O O10 0.500000 0.500000 0.000000
O O11 0.871516 0.908430 0.767850
O O12 0.008189 0.005495 0.681602
O O13 0.529538 0.348245 0.589001
O O14 0.363928 0.353680 0.716261
O O15 0.681406 0.236799 0.176472
#
# Coordination Sequence:
#
# PCOD9459682 Si02
#       7
#     8   8   8   8   8   8   8
#     4  10  21  40  65  98 136 175 221 296 343 413
#     4  12  26  45  63 102 146 183 233 280 359 437
#     4  11  21  44  68 100 137 188 227 278 367 427
#     4  10  21  40  75  94 131 185 232 287 356 414
#     4  10  22  43  64 101 139 178 237 303 346 414
#     4   9  21  39  67  96 129 176 237 284 348 421
#     4  10  20  40  67 104 132 169 238 301 347 405
#
# _framework density 24.009281000000001
#
# number of rings (size 3 to 8) (size 9 to 14) (size 15 to 20)
#    0.000    1.714    4.286    0.000    4.000    3.429 
#   12.857    0.000    0.000    0.000    0.000    0.000 
#    0.000    0.000    0.000    0.000    0.000    0.000 
#
# Total GULP energy -311738.702372 kJ/mol
# GULP energy per Si atom -5566.762542 kJ/mol
# Density = 2.395463 g / cm^3
# Si number density = 24.009281 Si / 1000 Ang^3
#
#
#
# Elastic Constant Matrix: (Units=GPa)
#
#
# Indices 1 2 3 4 5 6 
#
# 1 73.7531 -2.4634 -3.0170 0.0000 0.0000 0.0000
# 2 -2.4634 49.0333 -11.4515 0.0000 0.0000 0.0000
# 3 -3.0170 -11.4515 36.5980 0.0000 0.0000 0.0000
# 4 0.0000 0.0000 0.0000 31.8047 0.0000 0.0000
# 5 0.0000 0.0000 0.0000 0.0000 47.1554 0.0000
# 6 0.0000 0.0000 0.0000 0.0000 0.0000 30.5007
#
#
#
# Elastic Compliance Matrix: (Units=1/GPa)
#
#
# Indices 1 2 3 4 5 6 
#
# 1 0.013652 0.001023 0.001446 0.000000 0.000000 0.000000
# 2 0.001023 0.022079 0.006993 0.000000 0.000000 0.000000
# 3 0.001446 0.006993 0.029631 0.000000 0.000000 0.000000
# 4 0.000000 0.000000 0.000000 0.031442 0.000000 0.000000
# 5 0.000000 0.000000 0.000000 0.000000 0.021206 0.000000
# 6 0.000000 0.000000 0.000000 0.000000 0.000000 0.032786
#
#
# Mechanical properties :
#
#
# Convention : Reuss Voigt Hill
#
# Bulk Modulus (GPa) = 11.86436 13.94675 12.90556
# Shear Modulus (GPa) = 31.25627 33.64658 32.45142
#
# Velocity S-wave (km/s) = 3.61202 3.74759 3.68043
# Velocity P-wave (km/s) = 4.72735 4.95453 4.84228
#
# Compressibility (1/GPa) = 0.08428602
#
# Stress axis : x y z
#
# Youngs Moduli (GPa) = 73.24897 45.29221 33.74831
#
# Poissons Ratio (x) = -0.04636 -0.04879
# Poissons Ratio (y) = -0.07497 -0.23600
# Poissons Ratio (z) = -0.10589 -0.31672
#
# Static dielectric constant tensor:
#      x y z
#    x 2.029070 0.000000 0.000000 
#    y 0.000000 2.035550 0.000000 
#    z 0.000000 0.000000 2.071470 
# 
# From -- ./inp_files/7534.got.cif
#   From: 2010.05.17/outbox.cif.g08.bks.cpg/sg61_4_cif.got.tgz:7534.got - 2010.06.03 15:17:17.
