data_PCOD9459310
_publ_section_title
;
Structure prediction by ZEFSAII (Michael W. Deem and Ramdas Pophale) SiO2 
 PCOD9459310
Probable space group: P B C A
;
_chemical_formula_sum "Si O2"
_cell_formula_units_Z 64
_cell_length_a 14.435265
_cell_length_b 8.555217
_cell_length_c 24.071966
_cell_angle_alpha 90.000000
_cell_angle_beta 90.000000
_cell_angle_gamma 90.000000
_cell_volume 2972.811361
_symmetry_space_group_name_H-M "P B C A"
_symmetry_group_IT_number 61
_symmetry_cell_setting 'orthorhombic'
loop_
_space_group_symop_operation_xyz
x,y,z
1/2-x,-y,1/2+z
1/2+x,1/2-y,-z
-x,1/2+y,1/2-z
-x,-y,-z
1/2+x,y,1/2-z
1/2-x,1/2+y,z
x,1/2-y,1/2+z
loop_
_atom_site_type_symbol
_atom_site_label
_atom_site_fract_x
_atom_site_fract_y
_atom_site_fract_z
Si Si1 0.797946 0.540927 0.438364
Si Si2 0.675718 0.321807 0.773839
Si Si3 0.832364 0.001788 0.335058
Si Si4 0.862776 0.264570 0.994900
Si Si5 0.177506 0.422058 0.850750
Si Si6 0.545415 0.452610 0.857641
Si Si7 0.863254 0.264179 0.623171
Si Si8 0.009727 0.808417 0.604670
O O1 0.734396 0.467895 0.388537
O O2 0.728999 0.648435 0.472778
O O3 0.842537 0.414679 0.479029
O O4 0.883627 0.615210 0.404481
O O5 0.775248 0.374685 0.797786
O O6 0.671667 0.336017 0.708307
O O7 0.601566 0.440412 0.800636
O O8 0.653691 0.152012 0.798596
O O9 0.926081 0.078309 0.357855
O O10 0.948719 0.317761 0.957102
O O11 0.878885 0.285153 0.059438
O O12 0.162479 0.606961 0.844090
O O13 0.277365 0.382808 0.875346
O O14 0.096034 0.356420 0.889391
O O15 0.453718 0.350660 0.855046
O O16 0.524417 0.630595 0.874473
#
# Coordination Sequence:
#
# PCOD9459310 Si02
#       8
#     8   8   8   8   8   8   8   8
#     4   9  18  36  63  95 121 156 209 253 307 376
#     4  11  22  39  64  90 123 165 198 257 319 362
#     4  10  19  38  65  94 124 157 208 256 307 375
#     4  10  21  38  64  90 125 166 201 261 317 360
#     4  12  27  42  59  88 123 163 212 259 313 381
#     4  10  22  40  63  91 123 162 212 260 310 373
#     4  12  26  43  61  89 127 167 212 258 313 377
#     4  10  23  41  63  95 124 159 214 260 308 379
#
# _framework density 21.528444
#
# number of rings (size 3 to 8) (size 9 to 14) (size 15 to 20)
#    0.000    1.500    0.000    6.750    0.000    7.500 
#    0.000    0.000    0.000    0.000    0.000    0.000 
#    0.000    0.000    0.000    0.000    0.000    0.000 
#
# Total GULP energy -358044.815398 kJ/mol
# GULP energy per Si atom -5594.450241 kJ/mol
# Density = 2.147944 g / cm^3
# Si number density = 21.528444 Si / 1000 Ang^3
#
#
#
# Elastic Constant Matrix: (Units=GPa)
#
#
# Indices 1 2 3 4 5 6 
#
# 1 71.9531 -13.5280 1.1858 0.0000 0.0000 0.0000
# 2 -13.5280 61.6206 4.8216 0.0000 0.0000 0.0000
# 3 1.1858 4.8216 67.6522 0.0000 0.0000 0.0000
# 4 0.0000 0.0000 0.0000 7.0876 0.0000 0.0000
# 5 0.0000 0.0000 0.0000 0.0000 -12.0940 0.0000
# 6 0.0000 0.0000 0.0000 0.0000 0.0000 18.3984
#
#
#
# Elastic Compliance Matrix: (Units=1/GPa)
#
#
# Indices 1 2 3 4 5 6 
#
# 1 0.014512 0.003224 -0.000484 0.000000 0.000000 0.000000
# 2 0.003224 0.017036 -0.001271 0.000000 0.000000 0.000000
# 3 -0.000484 -0.001271 0.014881 0.000000 0.000000 0.000000
# 4 0.000000 0.000000 0.000000 0.141092 0.000000 0.000000
# 5 0.000000 0.000000 0.000000 0.000000 -0.082686 0.000000
# 6 0.000000 0.000000 0.000000 0.000000 0.000000 0.054352
#
#
# Mechanical properties :
#
#
# Convention : Reuss Voigt Hill
#
# Bulk Modulus (GPa) = 20.25679 20.68719 20.47199
# Shear Modulus (GPa) = 28.95125 16.59484 22.77304
#
# Velocity S-wave (km/s) = 3.67112 2.77940 3.25593
# Velocity P-wave (km/s) = 5.23443 4.46432 4.86464
#
# Compressibility (1/GPa) = 0.04936616
#
# Stress axis : x y z
#
# Youngs Moduli (GPa) = 68.90829 58.70091 67.20192
#
# Poissons Ratio (x) = -0.18924 0.03253
# Poissons Ratio (y) = -0.22215 0.08539
# Poissons Ratio (z) = 0.03336 0.07459
#
# Static dielectric constant tensor:
#      x y z
#    x 1.753360 0.000000 0.000000 
#    y 0.000000 1.802000 0.000000 
#    z 0.000000 0.000000 1.763050 
# 
# From -- ./inp_files/11097.got.cif
#   From: 2010.05.17/outbox.cif.g08.bks.cpg/sg61_6_cif.got.tgz:11097.got - 2010.06.03 15:17:17.
