data_PCOD9459735
_publ_section_title
;
Structure prediction by ZEFSAII (Michael W. Deem and Ramdas Pophale) SiO2 
 PCOD9459735
Probable space group: P B C A
;
_chemical_formula_sum "Si O2"
_cell_formula_units_Z 56
_cell_length_a 20.810579
_cell_length_b 7.980600
_cell_length_c 13.873991
_cell_angle_alpha 90.000000
_cell_angle_beta 90.000000
_cell_angle_gamma 90.000000
_cell_volume 2304.205006
_symmetry_space_group_name_H-M "P B C A"
_symmetry_group_IT_number 61
_symmetry_cell_setting 'orthorhombic'
loop_
_space_group_symop_operation_xyz
x,y,z
1/2-x,-y,1/2+z
1/2+x,1/2-y,-z
-x,1/2+y,1/2-z
-x,-y,-z
1/2+x,y,1/2-z
1/2-x,1/2+y,z
x,1/2-y,1/2+z
loop_
_atom_site_type_symbol
_atom_site_label
_atom_site_fract_x
_atom_site_fract_y
_atom_site_fract_z
Si Si1 0.326589 0.009565 0.100463
Si Si2 0.064969 0.311394 0.037243
Si Si3 0.777971 0.172236 0.788640
Si Si4 0.006864 0.694138 0.630937
Si Si5 0.637843 0.518331 0.933117
Si Si6 0.683958 0.724185 0.582045
Si Si7 0.952055 0.333933 0.666192
O O1 0.312049 0.162265 0.171264
O O2 0.400690 0.965971 0.086597
O O3 0.286763 0.862931 0.151980
O O4 0.308877 0.071330 0.992839
O O5 0.008587 0.242516 0.102381
O O6 0.119495 0.166549 0.033942
O O7 0.033779 0.324493 0.932673
O O8 0.826160 0.027942 0.829718
O O9 0.770603 0.192984 0.674263
O O10 0.069774 0.617685 0.576539
O O11 0.031922 0.778228 0.726723
O O12 0.960237 0.534435 0.652841
O O13 0.682636 0.615233 0.010080
O O14 0.614544 0.752227 0.632306
#
# Coordination Sequence:
#
# PCOD9459735 Si02
#       7
#     8   8   8   8   8   8   8
#     4  11  28  45  72 102 133 191 237 301 360 433
#     4  11  23  41  67 105 150 179 226 286 355 434
#     4  11  25  48  68  98 135 178 251 300 345 427
#     4  11  22  38  66 105 152 182 230 285 344 439
#     4  10  20  42  67  97 137 186 229 285 348 419
#     4  11  23  44  72  98 139 189 231 296 363 410
#     4  11  23  39  67 109 144 190 229 282 359 424
#
# _framework density 24.303394000000001
#
# number of rings (size 3 to 8) (size 9 to 14) (size 15 to 20)
#    0.000    1.143    4.286    1.714    4.000    2.857 
#    0.000    4.286    0.000    0.000    0.000    0.000 
#    0.000    0.000    0.000    0.000    0.000    0.000 
#
# Total GULP energy -313183.511539 kJ/mol
# GULP energy per Si atom -5592.562706 kJ/mol
# Density = 2.424808 g / cm^3
# Si number density = 24.303394 Si / 1000 Ang^3
#
#
#
# Elastic Constant Matrix: (Units=GPa)
#
#
# Indices 1 2 3 4 5 6 
#
# 1 69.1493 21.7879 20.0773 0.0000 0.0000 0.0000
# 2 21.7879 62.7208 26.5736 0.0000 0.0000 0.0000
# 3 20.0773 26.5736 162.2423 0.0000 0.0000 0.0000
# 4 0.0000 0.0000 0.0000 22.6839 0.0000 0.0000
# 5 0.0000 0.0000 0.0000 0.0000 26.6192 0.0000
# 6 0.0000 0.0000 0.0000 0.0000 0.0000 33.6732
#
#
#
# Elastic Compliance Matrix: (Units=1/GPa)
#
#
# Indices 1 2 3 4 5 6 
#
# 1 0.016447 -0.005213 -0.001181 0.000000 0.000000 0.000000
# 2 -0.005213 0.018785 -0.002432 0.000000 0.000000 0.000000
# 3 -0.001181 -0.002432 0.006708 0.000000 0.000000 0.000000
# 4 0.000000 0.000000 0.000000 0.044084 0.000000 0.000000
# 5 0.000000 0.000000 0.000000 0.000000 0.037567 0.000000
# 6 0.000000 0.000000 0.000000 0.000000 0.000000 0.029697
#
#
# Mechanical properties :
#
#
# Convention : Reuss Voigt Hill
#
# Bulk Modulus (GPa) = 41.17267 47.88778 44.53022
# Shear Modulus (GPa) = 27.92737 31.64017 29.78377
#
# Velocity S-wave (km/s) = 3.39354 3.61208 3.50451
# Velocity P-wave (km/s) = 5.68618 6.09451 5.89388
#
# Compressibility (1/GPa) = 0.02428796
#
# Stress axis : x y z
#
# Youngs Moduli (GPa) = 60.80148 53.23472 149.07328
#
# Poissons Ratio (x) = 0.27750 0.17613
# Poissons Ratio (y) = 0.31694 0.36250
# Poissons Ratio (z) = 0.07184 0.12945
#
# Static dielectric constant tensor:
#      x y z
#    x 1.948790 0.000000 0.000000 
#    y 0.000000 1.989060 0.000000 
#    z 0.000000 0.000000 1.928530 
# 
# From -- ./inp_files/8358.got.cif
#   From: 2010.05.17/outbox.cif.g08.bks.cpg/sg61_5_cif.got.tgz:8358.got - 2010.06.03 15:17:17.
