data_PCOD9459039
_publ_section_title
;
Structure prediction by ZEFSAII (Michael W. Deem and Ramdas Pophale) SiO2 
 PCOD9459039
Probable space group: P B C A
;
_chemical_formula_sum "Si O2"
_cell_formula_units_Z 64
_cell_length_a 8.688971
_cell_length_b 20.603166
_cell_length_c 19.739237
_cell_angle_alpha 90.000000
_cell_angle_beta 90.000000
_cell_angle_gamma 90.000000
_cell_volume 3533.724364
_symmetry_space_group_name_H-M "P B C A"
_symmetry_group_IT_number 61
_symmetry_cell_setting 'orthorhombic'
loop_
_space_group_symop_operation_xyz
x,y,z
1/2-x,-y,1/2+z
1/2+x,1/2-y,-z
-x,1/2+y,1/2-z
-x,-y,-z
1/2+x,y,1/2-z
1/2-x,1/2+y,z
x,1/2-y,1/2+z
loop_
_atom_site_type_symbol
_atom_site_label
_atom_site_fract_x
_atom_site_fract_y
_atom_site_fract_z
Si Si1 0.476768 0.809103 0.478633
Si Si2 0.108478 0.950402 0.461666
Si Si3 0.881452 0.195060 0.565696
Si Si4 0.078209 0.442724 0.542060
Si Si5 0.039877 0.980045 0.317368
Si Si6 0.682299 0.504652 0.823827
Si Si7 0.485741 0.673311 0.703087
Si Si8 0.640096 0.839561 0.339288
O O1 0.298843 0.804699 0.454049
O O2 0.528437 0.747261 0.521479
O O3 0.494887 0.873425 0.524883
O O4 0.582236 0.817379 0.412269
O O5 0.049629 0.877118 0.448837
O O6 0.253806 0.941080 0.508890
O O7 0.136031 0.980690 0.387027
O O8 0.000000 0.000000 0.500000
O O9 0.907210 0.205615 0.645929
O O10 0.095001 0.462409 0.620082
O O11 0.000000 0.500000 0.500000
O O12 0.866519 0.005719 0.328538
O O13 0.017307 0.903892 0.301273
O O14 0.124138 0.009046 0.252204
O O15 0.648256 0.581252 0.838825
O O16 0.310087 0.683990 0.681438
O O17 0.526698 0.687132 0.780759
#
# Coordination Sequence:
#
# PCOD9459039 Si02
#       8
#     8   8   8   8   8   8   8   8
#     4  11  22  37  58  82 114 153 192 238 285 340
#     4  10  20  37  58  84 112 147 190 239 286 340
#     4  10  22  36  56  83 112 150 191 235 282 339
#     4  11  22  34  57  86 118 146 190 237 288 341
#     4   9  19  31  54  80 114 149 185 229 280 338
#     4  10  19  33  52  83 115 148 185 232 287 337
#     4   9  18  32  54  82 111 142 188 235 274 336
#     4  10  18  32  56  83 111 145 186 235 284 333
#
# _framework density 18.111203
#
# number of rings (size 3 to 8) (size 9 to 14) (size 15 to 20)
#    0.000    2.000    2.500    1.500    1.750    4.000 
#    0.000    0.000    2.750    0.000    0.000    0.000 
#    0.000    0.000    0.000    0.000    0.000    0.000 
#
# Total GULP energy -356807.924108 kJ/mol
# GULP energy per Si atom -5575.123814 kJ/mol
# Density = 1.806998 g / cm^3
# Si number density = 18.111203 Si / 1000 Ang^3
#
#
#
# Elastic Constant Matrix: (Units=GPa)
#
#
# Indices 1 2 3 4 5 6 
#
# 1 36.1483 16.3275 14.7478 0.0000 0.0000 0.0000
# 2 16.3275 64.5823 39.3077 0.0000 0.0000 0.0000
# 3 14.7478 39.3077 126.5116 0.0000 0.0000 0.0000
# 4 0.0000 0.0000 0.0000 25.7744 0.0000 0.0000
# 5 0.0000 0.0000 0.0000 0.0000 32.4300 0.0000
# 6 0.0000 0.0000 0.0000 0.0000 0.0000 16.9537
#
#
#
# Elastic Compliance Matrix: (Units=1/GPa)
#
#
# Indices 1 2 3 4 5 6 
#
# 1 0.031452 -0.007054 -0.001475 0.000000 0.000000 0.000000
# 2 -0.007054 0.020677 -0.005602 0.000000 0.000000 0.000000
# 3 -0.001475 -0.005602 0.009817 0.000000 0.000000 0.000000
# 4 0.000000 0.000000 0.000000 0.038798 0.000000 0.000000
# 5 0.000000 0.000000 0.000000 0.000000 0.030836 0.000000
# 6 0.000000 0.000000 0.000000 0.000000 0.000000 0.058984
#
#
# Mechanical properties :
#
#
# Convention : Reuss Voigt Hill
#
# Bulk Modulus (GPa) = 29.68760 40.88981 35.28871
# Shear Modulus (GPa) = 21.73407 25.48890 23.61149
#
# Velocity S-wave (km/s) = 3.46791 3.75554 3.61459
# Velocity P-wave (km/s) = 5.69760 6.43674 6.07841
#
# Compressibility (1/GPa) = 0.03368409
#
# Stress axis : x y z
#
# Youngs Moduli (GPa) = 31.79489 48.36242 101.86461
#
# Poissons Ratio (x) = 0.34114 0.15022
# Poissons Ratio (y) = 0.22428 0.57067
# Poissons Ratio (z) = 0.04689 0.27094
#
# Static dielectric constant tensor:
#      x y z
#    x 1.635980 0.000000 0.000000 
#    y 0.000000 1.613500 0.000000 
#    z 0.000000 0.000000 1.591370 
# 
# From -- ./inp_files/4079.got.cif
#   From: 2010.05.17/outbox.cif.g08.bks.cpg/sg61_3_cif.got.tgz:4079.got - 2010.06.03 15:17:17.
