data_PCOD9459777
_publ_section_title
;
Structure prediction by ZEFSAII (Michael W. Deem and Ramdas Pophale) SiO2 
 PCOD9459777
Probable space group: P B C A
;
_chemical_formula_sum "Si O2"
_cell_formula_units_Z 56
_cell_length_a 5.506156
_cell_length_b 17.384023
_cell_length_c 27.106252
_cell_angle_alpha 90.000000
_cell_angle_beta 90.000000
_cell_angle_gamma 90.000000
_cell_volume 2594.587199
_symmetry_space_group_name_H-M "P B C A"
_symmetry_group_IT_number 61
_symmetry_cell_setting 'orthorhombic'
loop_
_space_group_symop_operation_xyz
x,y,z
1/2-x,-y,1/2+z
1/2+x,1/2-y,-z
-x,1/2+y,1/2-z
-x,-y,-z
1/2+x,y,1/2-z
1/2-x,1/2+y,z
x,1/2-y,1/2+z
loop_
_atom_site_type_symbol
_atom_site_label
_atom_site_fract_x
_atom_site_fract_y
_atom_site_fract_z
Si Si1 0.210147 0.889535 0.276097
Si Si2 0.734525 0.698555 0.930313
Si Si3 0.750995 0.544355 0.510852
Si Si4 0.844281 0.881914 0.115429
Si Si5 0.800381 0.201470 0.223664
Si Si6 0.633589 0.793002 0.612084
Si Si7 0.977738 0.831765 0.528683
O O1 0.445808 0.913559 0.243977
O O2 0.264412 0.914072 0.332258
O O3 0.204604 0.795486 0.275821
O O4 0.629988 0.637354 0.892000
O O5 0.538413 0.742133 0.964452
O O6 0.860015 0.769165 0.901807
O O7 0.886387 0.658728 0.972905
O O8 0.500000 0.500000 0.500000
O O9 0.770171 0.569813 0.567895
O O10 0.716164 0.615801 0.473234
O O11 0.000000 0.500000 0.500000
O O12 0.739877 0.794751 0.112697
O O13 0.540464 0.177303 0.245994
O O14 0.832796 0.176305 0.166989
O O15 0.778260 0.842893 0.571440
#
# Coordination Sequence:
#
# PCOD9459777 Si02
#       7
#     8   8   8   8   8   8   8
#     4   9  19  31  53  82 114 150 182 231 292 358
#     4  11  19  33  59  87 119 157 187 250 296 354
#     4  12  27  42  59  82 120 168 200 249 302 357
#     4  10  22  36  55  86 122 151 195 238 299 359
#     4   9  19  32  47  79 120 147 183 222 293 372
#     4  10  21  32  60  83 113 161 184 250 296 348
#     4  11  21  36  55  86 116 151 207 238 292 365
#
# _framework density 21.583396
#
# number of rings (size 3 to 8) (size 9 to 14) (size 15 to 20)
#    0.000    1.714    2.857    1.714   14.000    0.000 
#    0.000    0.000    0.000    0.000    0.000    6.000 
#    0.000    0.000    0.000    0.000    0.000    0.000 
#
# Total GULP energy -311979.496268 kJ/mol
# GULP energy per Si atom -5571.062433 kJ/mol
# Density = 2.153427 g / cm^3
# Si number density = 21.583396 Si / 1000 Ang^3
#
#
#
# Elastic Constant Matrix: (Units=GPa)
#
#
# Indices 1 2 3 4 5 6 
#
# 1 126.6035 20.6629 70.5820 0.0000 0.0000 0.0000
# 2 20.6629 19.7412 22.6728 0.0000 0.0000 0.0000
# 3 70.5820 22.6728 156.9632 0.0000 0.0000 0.0000
# 4 0.0000 0.0000 0.0000 12.3602 0.0000 0.0000
# 5 0.0000 0.0000 0.0000 0.0000 31.7825 0.0000
# 6 0.0000 0.0000 0.0000 0.0000 0.0000 30.4070
#
#
#
# Elastic Compliance Matrix: (Units=1/GPa)
#
#
# Indices 1 2 3 4 5 6 
#
# 1 0.011337 -0.007207 -0.004057 0.000000 0.000000 0.000000
# 2 -0.007207 0.065312 -0.006193 0.000000 0.000000 0.000000
# 3 -0.004057 -0.006193 0.009090 0.000000 0.000000 0.000000
# 4 0.000000 0.000000 0.000000 0.080905 0.000000 0.000000
# 5 0.000000 0.000000 0.000000 0.000000 0.031464 0.000000
# 6 0.000000 0.000000 0.000000 0.000000 0.000000 0.032887
#
#
# Mechanical properties :
#
#
# Convention : Reuss Voigt Hill
#
# Bulk Modulus (GPa) = 19.67557 59.01592 39.34575
# Shear Modulus (GPa) = 17.67726 27.53596 22.60661
#
# Velocity S-wave (km/s) = 2.86496 3.57570 3.23988
# Velocity P-wave (km/s) = 4.48105 6.66709 5.68023
#
# Compressibility (1/GPa) = 0.05082446
#
# Stress axis : x y z
#
# Youngs Moduli (GPa) = 88.21055 15.31115 110.01398
#
# Poissons Ratio (x) = 0.11034 0.44630
# Poissons Ratio (y) = 0.63570 0.68137
# Poissons Ratio (z) = 0.35785 0.09483
#
# Static dielectric constant tensor:
#      x y z
#    x 2.093270 0.000000 0.000000 
#    y 0.000000 1.891530 0.000000 
#    z 0.000000 0.000000 1.784780 
# 
# From -- ./inp_files/11287.got.cif
#   From: 2010.05.17/outbox.cif.g08.bks.cpg/sg61_6_cif.got.tgz:11287.got - 2010.06.03 15:17:17.
