data_PCOD9459883
_publ_section_title
;
Structure prediction by ZEFSAII (Michael W. Deem and Ramdas Pophale) SiO2 
 PCOD9459883
Probable space group: P B C A
;
_chemical_formula_sum "Si O2"
_cell_formula_units_Z 60
_cell_length_a 16.914300
_cell_length_b 28.851612
_cell_length_c 5.223494
_cell_angle_alpha 90.000000
_cell_angle_beta 90.000000
_cell_angle_gamma 90.000000
_cell_volume 2549.090254
_symmetry_space_group_name_H-M "P B C A"
_symmetry_group_IT_number 61
_symmetry_cell_setting 'orthorhombic'
loop_
_space_group_symop_operation_xyz
x,y,z
1/2-x,-y,1/2+z
1/2+x,1/2-y,-z
-x,1/2+y,1/2-z
-x,-y,-z
1/2+x,y,1/2-z
1/2-x,1/2+y,z
x,1/2-y,1/2+z
loop_
_atom_site_type_symbol
_atom_site_label
_atom_site_fract_x
_atom_site_fract_y
_atom_site_fract_z
Si Si1 0.110699 0.056061 0.863678
Si Si2 0.822950 0.376745 0.954488
Si Si3 0.778244 0.613567 0.952274
Si Si4 0.569544 0.264054 0.983349
Si Si5 0.583780 0.139389 0.256339
Si Si6 0.000000 0.000000 0.000000
Si Si7 0.108044 0.775262 0.521825
Si Si8 0.526753 0.568782 0.495984
O O1 0.170169 0.067992 0.635704
O O2 0.101927 0.008645 0.012061
O O3 0.017312 0.052119 0.758694
O O4 0.113006 0.099761 0.048958
O O5 0.764479 0.370764 0.194394
O O6 0.867410 0.327579 0.921327
O O7 0.781691 0.391256 0.688647
O O8 0.883767 0.417074 0.032793
O O9 0.843715 0.648785 0.066128
O O10 0.614022 0.242780 0.744777
O O11 0.555168 0.317495 0.921320
O O12 0.487478 0.234594 0.009265
O O13 0.517344 0.116312 0.081871
O O14 0.988827 0.035171 0.260319
O O15 0.137620 0.742113 0.747959
#
# Coordination Sequence:
#
# PCOD9459883 Si02
#       8
#     8   8   8   8   8   4   8   8
#     4  10  22  44  75 101 141 186 234 296 361 435
#     4  12  25  43  70 101 144 189 245 288 372 447
#     4  11  25  45  68  97 145 194 228 288 365 454
#     4  10  22  35  61  96 131 167 235 304 347 397
#     4  10  22  43  70  98 133 192 241 294 362 434
#     4  10  22  44  70 112 140 170 236 298 354 422
#     4  10  21  38  61  94 132 175 231 308 354 401
#     4  10  23  39  74 104 137 181 240 294 350 434
#
# _framework density 23.537807000000001
#
# number of rings (size 3 to 8) (size 9 to 14) (size 15 to 20)
#    0.000    1.600    1.333    2.800   11.200    0.000 
#    0.000    5.333    0.000    0.000    0.000    0.000 
#    0.000    0.000    0.000    0.000    0.000    0.000 
#
# Total GULP energy -334071.363071 kJ/mol
# GULP energy per Si atom -5567.856051 kJ/mol
# Density = 2.348423 g / cm^3
# Si number density = 23.537807 Si / 1000 Ang^3
#
#
#
# Elastic Constant Matrix: (Units=GPa)
#
#
# Indices 1 2 3 4 5 6 
#
# 1 53.6876 10.5002 18.5305 0.0000 0.0000 0.0000
# 2 10.5002 36.1803 14.7659 0.0000 0.0000 0.0000
# 3 18.5305 14.7659 143.8086 0.0000 0.0000 0.0000
# 4 0.0000 0.0000 0.0000 35.0751 0.0000 0.0000
# 5 0.0000 0.0000 0.0000 0.0000 31.1985 0.0000
# 6 0.0000 0.0000 0.0000 0.0000 0.0000 13.0140
#
#
#
# Elastic Compliance Matrix: (Units=1/GPa)
#
#
# Indices 1 2 3 4 5 6 
#
# 1 0.020339 -0.005044 -0.002103 0.000000 0.000000 0.000000
# 2 -0.005044 0.030099 -0.002441 0.000000 0.000000 0.000000
# 3 -0.002103 -0.002441 0.007475 0.000000 0.000000 0.000000
# 4 0.000000 0.000000 0.000000 0.028510 0.000000 0.000000
# 5 0.000000 0.000000 0.000000 0.000000 0.032053 0.000000
# 6 0.000000 0.000000 0.000000 0.000000 0.000000 0.076840
#
#
# Mechanical properties :
#
#
# Convention : Reuss Voigt Hill
#
# Bulk Modulus (GPa) = 25.81465 35.69664 30.75564
# Shear Modulus (GPa) = 21.98722 28.51619 25.25170
#
# Velocity S-wave (km/s) = 3.05966 3.48444 3.27894
# Velocity P-wave (km/s) = 4.84491 5.60242 5.23738
#
# Compressibility (1/GPa) = 0.03873769
#
# Stress axis : x y z
#
# Youngs Moduli (GPa) = 49.16745 33.22329 133.77511
#
# Poissons Ratio (x) = 0.16759 0.28130
# Poissons Ratio (y) = 0.24802 0.32648
# Poissons Ratio (z) = 0.10339 0.08108
#
# Static dielectric constant tensor:
#      x y z
#    x 1.985670 0.000000 0.000000 
#    y 0.000000 2.170830 0.000000 
#    z 0.000000 0.000000 2.068360 
# 
# From -- ./inp_files/811.got.cif
#   From: 2010.05.17/outbox.cif.g08.bks.cpg/sg61_1_cif.got.tgz:811.got - 2010.06.03 15:17:17.
