data_PCOD9459414
_publ_section_title
;
Structure prediction by ZEFSAII (Michael W. Deem and Ramdas Pophale) SiO2 
 PCOD9459414
Probable space group: P B C A
;
_chemical_formula_sum "Si O2"
_cell_formula_units_Z 64
_cell_length_a 8.631916
_cell_length_b 24.951892
_cell_length_c 10.900974
_cell_angle_alpha 90.000000
_cell_angle_beta 90.000000
_cell_angle_gamma 90.000000
_cell_volume 2347.880513
_symmetry_space_group_name_H-M "P B C A"
_symmetry_group_IT_number 61
_symmetry_cell_setting 'orthorhombic'
loop_
_space_group_symop_operation_xyz
x,y,z
1/2-x,-y,1/2+z
1/2+x,1/2-y,-z
-x,1/2+y,1/2-z
-x,-y,-z
1/2+x,y,1/2-z
1/2-x,1/2+y,z
x,1/2-y,1/2+z
loop_
_atom_site_type_symbol
_atom_site_label
_atom_site_fract_x
_atom_site_fract_y
_atom_site_fract_z
Si Si1 0.476227 0.869261 0.012600
Si Si2 0.413577 0.689154 0.820017
Si Si3 0.181040 0.773228 0.525295
Si Si4 0.844607 0.383661 0.271713
Si Si5 0.317289 0.493975 0.338490
Si Si6 0.684338 0.844088 0.571109
Si Si7 0.586335 0.195592 0.273101
Si Si8 0.844922 0.037114 0.385625
O O1 0.527135 0.807161 0.996778
O O2 0.291105 0.884517 0.011599
O O3 0.581823 0.905570 0.923326
O O4 0.554809 0.879785 0.144616
O O5 0.522826 0.639264 0.861490
O O6 0.285396 0.661715 0.734440
O O7 0.481313 0.744650 0.762839
O O8 0.309730 0.708170 0.930236
O O9 0.158268 0.711533 0.500084
O O10 0.264242 0.788032 0.649285
O O11 0.784852 0.443146 0.251010
O O12 0.266854 0.483656 0.482909
O O13 0.249094 0.538935 0.243983
O O14 0.500610 0.502784 0.355779
O O15 0.530873 0.843835 0.654822
O O16 0.830484 0.835223 0.663450
#
# Coordination Sequence:
#
# PCOD9459414 Si02
#       8
#     8   8   8   8   8   8   8   8
#     4  10  22  40  60  88 124 166 210 264 318 391
#     4  10  20  35  57  86 117 159 207 260 312 375
#     4  10  21  37  56  82 118 158 205 253 307 371
#     4  10  20  37  62  88 120 159 216 270 323 390
#     4  10  22  43  68  99 133 176 219 285 354 411
#     4  11  22  36  56  80 115 160 202 249 310 369
#     4  11  22  35  53  80 116 155 197 248 307 369
#     4  10  23  43  68  97 135 173 226 282 347 413
#
# _framework density 27.258628999999999
#
# number of rings (size 3 to 8) (size 9 to 14) (size 15 to 20)
#    0.000    1.750    0.000    5.250    0.000    6.500 
#    0.000    1.250    0.000    0.000    0.000    0.000 
#    0.000    0.000    0.000    0.000    0.000    0.000 
#
# Total GULP energy -357050.212471 kJ/mol
# GULP energy per Si atom -5578.909570 kJ/mol
# Density = 2.719659 g / cm^3
# Si number density = 27.258629 Si / 1000 Ang^3
#
#
#
# Elastic Constant Matrix: (Units=GPa)
#
#
# Indices 1 2 3 4 5 6 
#
# 1 81.5913 4.2155 0.0831 0.0000 0.0000 0.0000
# 2 4.2155 90.5288 12.3979 0.0000 0.0000 0.0000
# 3 0.0831 12.3979 54.4702 0.0000 0.0000 0.0000
# 4 0.0000 0.0000 0.0000 33.9601 0.0000 0.0000
# 5 0.0000 0.0000 0.0000 0.0000 -260.4030 0.0000
# 6 0.0000 0.0000 0.0000 0.0000 0.0000 45.7698
#
#
#
# Elastic Compliance Matrix: (Units=1/GPa)
#
#
# Indices 1 2 3 4 5 6 
#
# 1 0.012286 -0.000588 0.000115 0.000000 0.000000 0.000000
# 2 -0.000588 0.011430 -0.002601 0.000000 0.000000 0.000000
# 3 0.000115 -0.002601 0.018950 0.000000 0.000000 0.000000
# 4 0.000000 0.000000 0.000000 0.029446 0.000000 0.000000
# 5 0.000000 0.000000 0.000000 0.000000 -0.003840 0.000000
# 6 0.000000 0.000000 0.000000 0.000000 0.000000 0.021848
#
#
# Mechanical properties :
#
#
# Convention : Reuss Voigt Hill
#
# Bulk Modulus (GPa) = 27.38246 28.88705 28.13476
# Shear Modulus (GPa) = 46.10787 -22.14171 11.98308
#
# Velocity S-wave (km/s) = 4.11724 -2.85315 2.09895
# Velocity P-wave (km/s) = 5.71572 0.48327 4.02715
#
# Compressibility (1/GPa) = 0.03651973
#
# Stress axis : x y z
#
# Youngs Moduli (GPa) = 81.39040 87.49102 52.76929
#
# Poissons Ratio (x) = 0.05143 -0.00607
# Poissons Ratio (y) = 0.04785 0.13723
# Poissons Ratio (z) = -0.00936 0.22753
#
# Static dielectric constant tensor:
#      x y z
#    x 2.196930 0.000000 0.000000 
#    y 0.000000 2.212100 0.000000 
#    z 0.000000 0.000000 10.702630 
# 
# From -- ./inp_files/4955.got.cif
#   From: 2010.05.17/outbox.cif.g08.bks.cpg/sg61_3_cif.got.tgz:4955.got - 2010.06.03 15:17:17.
