data_PCOD9459706
_publ_section_title
;
Structure prediction by ZEFSAII (Michael W. Deem and Ramdas Pophale) SiO2 
 PCOD9459706
Probable space group: P B C A
;
_chemical_formula_sum "Si O2"
_cell_formula_units_Z 64
_cell_length_a 14.245624
_cell_length_b 26.365555
_cell_length_c 8.276882
_cell_angle_alpha 90.000000
_cell_angle_beta 90.000000
_cell_angle_gamma 90.000000
_cell_volume 3108.745422
_symmetry_space_group_name_H-M "P B C A"
_symmetry_group_IT_number 61
_symmetry_cell_setting 'orthorhombic'
loop_
_space_group_symop_operation_xyz
x,y,z
1/2-x,-y,1/2+z
1/2+x,1/2-y,-z
-x,1/2+y,1/2-z
-x,-y,-z
1/2+x,y,1/2-z
1/2-x,1/2+y,z
x,1/2-y,1/2+z
loop_
_atom_site_type_symbol
_atom_site_label
_atom_site_fract_x
_atom_site_fract_y
_atom_site_fract_z
Si Si1 0.074378 0.541189 0.560923
Si Si2 0.897671 0.498121 0.078419
Si Si3 0.874455 0.393190 0.985474
Si Si4 0.164903 0.672819 0.274150
Si Si5 0.148511 0.777515 0.120294
Si Si6 0.497438 0.141155 0.719241
Si Si7 0.743567 0.085730 0.046749
Si Si8 0.780549 0.646168 0.720251
O O1 0.103030 0.520685 0.737374
O O2 0.164488 0.549776 0.447503
O O3 0.000000 0.500000 0.500000
O O4 0.033169 0.597897 0.590537
O O5 0.851112 0.452462 0.977496
O O6 0.846393 0.551397 0.070981
O O7 0.000000 0.500000 0.000000
O O8 0.780246 0.368723 0.063834
O O9 0.958434 0.381388 0.111306
O O10 0.900202 0.368354 0.815113
O O11 0.163035 0.718065 0.143080
O O12 0.142105 0.703579 0.436276
O O13 0.247344 0.634472 0.335352
O O14 0.237776 0.802157 0.209678
O O15 0.058026 0.805848 0.197038
O O16 0.608190 0.147941 0.704616
O O17 0.743330 0.106450 0.863067
#
# Coordination Sequence:
#
# PCOD9459706 Si02
#       8
#     8   8   8   8   8   8   8   8
#     4  11  24  40  63  97 135 175 222 275 333 407
#     4  11  25  40  64  99 136 182 223 276 336 408
#     4  10  22  40  62  95 130 175 223 272 340 401
#     4  11  23  42  71  93 135 176 225 286 344 419
#     4  10  21  43  63  95 129 167 222 282 347 398
#     4  10  20  42  66  94 126 175 217 282 336 407
#     4  11  23  42  65  97 137 178 223 277 340 410
#     4  10  20  41  66  89 127 169 220 277 334 404
#
# _framework density 20.587083
#
# number of rings (size 3 to 8) (size 9 to 14) (size 15 to 20)
#    0.000    1.500    5.000    3.000    5.250    0.000 
#    0.000   11.250    0.000    0.000    0.000    0.000 
#    0.000    0.000    0.000    0.000    0.000    0.000 
#
# Total GULP energy -356627.099380 kJ/mol
# GULP energy per Si atom -5572.298428 kJ/mol
# Density = 2.054023 g / cm^3
# Si number density = 20.587083 Si / 1000 Ang^3
#
#
#
# Elastic Constant Matrix: (Units=GPa)
#
#
# Indices 1 2 3 4 5 6 
#
# 1 117.1285 30.6209 3.3433 0.0000 0.0000 0.0000
# 2 30.6209 130.8952 31.5006 0.0000 0.0000 0.0000
# 3 3.3433 31.5006 65.0448 0.0000 0.0000 0.0000
# 4 0.0000 0.0000 0.0000 35.0243 0.0000 0.0000
# 5 0.0000 0.0000 0.0000 0.0000 9.5367 0.0000
# 6 0.0000 0.0000 0.0000 0.0000 0.0000 17.4847
#
#
#
# Elastic Compliance Matrix: (Units=1/GPa)
#
#
# Indices 1 2 3 4 5 6 
#
# 1 0.009117 -0.002287 0.000639 0.000000 0.000000 0.000000
# 2 -0.002287 0.009221 -0.004348 0.000000 0.000000 0.000000
# 3 0.000639 -0.004348 0.017447 0.000000 0.000000 0.000000
# 4 0.000000 0.000000 0.000000 0.028552 0.000000 0.000000
# 5 0.000000 0.000000 0.000000 0.000000 0.104858 0.000000
# 6 0.000000 0.000000 0.000000 0.000000 0.000000 0.057193
#
#
# Mechanical properties :
#
#
# Convention : Reuss Voigt Hill
#
# Bulk Modulus (GPa) = 42.02872 49.33314 45.68093
# Shear Modulus (GPa) = 20.29954 28.91604 24.60779
#
# Velocity S-wave (km/s) = 3.14352 3.75183 3.46107
# Velocity P-wave (km/s) = 5.79957 6.54091 6.18136
#
# Compressibility (1/GPa) = 0.02379325
#
# Stress axis : x y z
#
# Youngs Moduli (GPa) = 109.68316 108.44816 57.31660
#
# Poissons Ratio (x) = 0.24797 -0.03661
# Poissons Ratio (y) = 0.25079 0.24922
# Poissons Ratio (z) = -0.07006 0.47155
#
# Static dielectric constant tensor:
#      x y z
#    x 1.731090 0.000000 0.000000 
#    y 0.000000 1.775970 0.000000 
#    z 0.000000 0.000000 1.798850 
# 
# From -- ./inp_files/3212.got.cif
#   From: 2010.05.17/outbox.cif.g08.bks.cpg/sg61_2_cif.got.tgz:3212.got - 2010.06.03 15:17:17.
