data_PCOD9459456
_publ_section_title
;
Structure prediction by ZEFSAII (Michael W. Deem and Ramdas Pophale) SiO2 
 PCOD9459456
Probable space group: P B C A
;
_chemical_formula_sum "Si O2"
_cell_formula_units_Z 64
_cell_length_a 8.776942
_cell_length_b 10.879008
_cell_length_c 34.216883
_cell_angle_alpha 90.000000
_cell_angle_beta 90.000000
_cell_angle_gamma 90.000000
_cell_volume 3267.179304
_symmetry_space_group_name_H-M "P B C A"
_symmetry_group_IT_number 61
_symmetry_cell_setting 'orthorhombic'
loop_
_space_group_symop_operation_xyz
x,y,z
1/2-x,-y,1/2+z
1/2+x,1/2-y,-z
-x,1/2+y,1/2-z
-x,-y,-z
1/2+x,y,1/2-z
1/2-x,1/2+y,z
x,1/2-y,1/2+z
loop_
_atom_site_type_symbol
_atom_site_label
_atom_site_fract_x
_atom_site_fract_y
_atom_site_fract_z
Si Si1 0.478834 0.787909 0.197892
Si Si2 0.686929 0.359508 0.075796
Si Si3 0.519977 0.719581 0.611846
Si Si4 0.416159 0.501464 0.109903
Si Si5 0.267190 0.899428 0.258816
Si Si6 0.944379 0.508630 0.300633
Si Si7 0.335450 0.902277 0.965758
Si Si8 0.359995 0.538779 0.553349
O O1 0.450929 0.823679 0.153035
O O2 0.335093 0.809569 0.225793
O O3 0.627370 0.853038 0.215320
O O4 0.510592 0.644405 0.197280
O O5 0.523202 0.394408 0.092807
O O6 0.744288 0.485164 0.054835
O O7 0.691346 0.236485 0.049205
O O8 0.805399 0.324386 0.110004
O O9 0.440417 0.651084 0.575916
O O10 0.499857 0.865771 0.607992
O O11 0.388698 0.476261 0.155833
O O12 0.268377 0.509648 0.082621
O O13 0.190752 0.003387 0.231253
O O14 0.413122 0.929417 0.285302
O O15 0.511712 0.937350 0.956868
O O16 0.300754 0.913743 0.011686
#
# Coordination Sequence:
#
# PCOD9459456 Si02
#       8
#     8   8   8   8   8   8   8   8
#     4  10  20  36  59  83 118 155 194 250 295 352
#     4  11  22  43  62  92 121 170 201 257 305 376
#     4  10  22  40  59  87 126 158 203 254 307 363
#     4  11  23  37  64  90 122 161 207 255 307 367
#     4  10  20  36  59  84 117 157 194 245 294 365
#     4  10  21  37  57  89 118 154 202 243 299 361
#     4  10  24  42  65  88 127 159 210 248 318 363
#     4  10  24  41  61  91 124 160 204 257 301 371
#
# _framework density 19.588761000000002
#
# number of rings (size 3 to 8) (size 9 to 14) (size 15 to 20)
#    0.000    1.750    1.250    2.250    3.500    2.500 
#    0.000    0.000    8.250    0.000    0.000    0.000 
#    0.000    0.000    0.000    0.000    0.000    0.000 
#
# Total GULP energy -356787.382595 kJ/mol
# GULP energy per Si atom -5574.802853 kJ/mol
# Density = 1.954418 g / cm^3
# Si number density = 19.588761 Si / 1000 Ang^3
#
#
#
# Elastic Constant Matrix: (Units=GPa)
#
#
# Indices 1 2 3 4 5 6 
#
# 1 44.8957 8.2638 18.3330 0.0000 0.0000 0.0000
# 2 8.2638 68.4947 33.6786 0.0000 0.0000 0.0000
# 3 18.3330 33.6786 120.9250 0.0000 0.0000 0.0000
# 4 0.0000 0.0000 0.0000 27.2750 0.0000 0.0000
# 5 0.0000 0.0000 0.0000 0.0000 22.2995 0.0000
# 6 0.0000 0.0000 0.0000 0.0000 0.0000 17.9830
#
#
#
# Elastic Compliance Matrix: (Units=1/GPa)
#
#
# Indices 1 2 3 4 5 6 
#
# 1 0.023839 -0.001274 -0.003259 0.000000 0.000000 0.000000
# 2 -0.001274 0.016984 -0.004537 0.000000 0.000000 0.000000
# 3 -0.003259 -0.004537 0.010027 0.000000 0.000000 0.000000
# 4 0.000000 0.000000 0.000000 0.036664 0.000000 0.000000
# 5 0.000000 0.000000 0.000000 0.000000 0.044844 0.000000
# 6 0.000000 0.000000 0.000000 0.000000 0.000000 0.055608
#
#
# Mechanical properties :
#
#
# Convention : Reuss Voigt Hill
#
# Bulk Modulus (GPa) = 30.57121 39.42958 35.00039
# Shear Modulus (GPa) = 23.04035 25.11416 24.07726
#
# Velocity S-wave (km/s) = 3.43330 3.58448 3.50971
# Velocity P-wave (km/s) = 5.59974 6.10768 5.85922
#
# Compressibility (1/GPa) = 0.03271052
#
# Stress axis : x y z
#
# Youngs Moduli (GPa) = 41.94761 58.87815 99.72693
#
# Poissons Ratio (x) = 0.07498 0.32506
# Poissons Ratio (y) = 0.05342 0.45248
# Poissons Ratio (z) = 0.13673 0.26714
#
# Static dielectric constant tensor:
#      x y z
#    x 1.704990 0.000000 0.000000 
#    y 0.000000 1.679520 0.000000 
#    z 0.000000 0.000000 1.698560 
# 
# From -- ./inp_files/2431.got.cif
#   From: 2010.05.17/outbox.cif.g08.bks.cpg/sg61_2_cif.got.tgz:2431.got - 2010.06.03 15:17:17.
