data_PCOD9459769
_publ_section_title
;
Structure prediction by ZEFSAII (Michael W. Deem and Ramdas Pophale) SiO2 
 PCOD9459769
Probable space group: P B C A
;
_chemical_formula_sum "Si O2"
_cell_formula_units_Z 64
_cell_length_a 9.180116
_cell_length_b 13.731957
_cell_length_c 22.738068
_cell_angle_alpha 90.000000
_cell_angle_beta 90.000000
_cell_angle_gamma 90.000000
_cell_volume 2866.382639
_symmetry_space_group_name_H-M "P B C A"
_symmetry_group_IT_number 61
_symmetry_cell_setting 'orthorhombic'
loop_
_space_group_symop_operation_xyz
x,y,z
1/2-x,-y,1/2+z
1/2+x,1/2-y,-z
-x,1/2+y,1/2-z
-x,-y,-z
1/2+x,y,1/2-z
1/2-x,1/2+y,z
x,1/2-y,1/2+z
loop_
_atom_site_type_symbol
_atom_site_label
_atom_site_fract_x
_atom_site_fract_y
_atom_site_fract_z
Si Si1 0.654280 0.235514 0.805644
Si Si2 0.588516 0.616655 0.186682
Si Si3 0.268494 0.661719 0.508246
Si Si4 0.157061 0.249324 0.828747
Si Si5 0.057775 0.437906 0.109948
Si Si6 0.894742 0.376563 0.820355
Si Si7 0.768555 0.493319 0.586715
Si Si8 0.066204 0.336209 0.453549
O O1 0.572714 0.339761 0.813850
O O2 0.641079 0.205913 0.737007
O O3 0.594032 0.149013 0.844911
O O4 0.814865 0.271633 0.824348
O O5 0.678569 0.713450 0.168825
O O6 0.628980 0.589690 0.253372
O O7 0.632177 0.531949 0.142828
O O8 0.368850 0.595718 0.549719
O O9 0.262415 0.607818 0.445870
O O10 0.347860 0.763988 0.497031
O O11 0.105332 0.670757 0.533679
O O12 0.106441 0.191965 0.885973
O O13 0.063535 0.348590 0.826904
O O14 0.130838 0.537455 0.133983
O O15 0.884618 0.455477 0.102347
O O16 0.863563 0.557528 0.541816
#
# Coordination Sequence:
#
# PCOD9459769 Si02
#       8
#     8   8   8   8   8   8   8   8
#     4  10  24  40  70 102 142 176 229 284 347 418
#     4  10  21  42  66  94 139 180 220 284 343 410
#     4  12  28  47  69 102 139 181 242 296 351 413
#     4  10  20  46  65  98 137 181 221 290 345 410
#     4  12  25  44  73 106 134 193 230 286 357 432
#     4  10  22  42  65 101 144 174 223 285 346 413
#     4  12  26  45  70  98 137 189 235 289 352 423
#     4  12  26  46  72  99 138 186 239 295 352 419
#
# _framework density 22.327794000000001
#
# number of rings (size 3 to 8) (size 9 to 14) (size 15 to 20)
#    0.000    1.000    2.500    3.000    5.250    2.000 
#    2.250    0.000    0.000    0.000    0.000    0.000 
#    0.000    0.000    0.000    0.000    0.000    0.000 
#
# Total GULP energy -357593.404517 kJ/mol
# GULP energy per Si atom -5587.396946 kJ/mol
# Density = 2.227697 g / cm^3
# Si number density = 22.327794 Si / 1000 Ang^3
#
#
#
# Elastic Constant Matrix: (Units=GPa)
#
#
# Indices 1 2 3 4 5 6 
#
# 1 53.8235 5.4419 1.5014 0.0000 0.0000 0.0000
# 2 5.4419 35.3164 0.6828 0.0000 0.0000 0.0000
# 3 1.5014 0.6828 71.1976 0.0000 0.0000 0.0000
# 4 0.0000 0.0000 0.0000 53.1190 0.0000 0.0000
# 5 0.0000 0.0000 0.0000 0.0000 33.0057 0.0000
# 6 0.0000 0.0000 0.0000 0.0000 0.0000 33.7038
#
#
#
# Elastic Compliance Matrix: (Units=1/GPa)
#
#
# Indices 1 2 3 4 5 6 
#
# 1 0.018883 -0.002903 -0.000370 0.000000 0.000000 0.000000
# 2 -0.002903 0.028767 -0.000215 0.000000 0.000000 0.000000
# 3 -0.000370 -0.000215 0.014055 0.000000 0.000000 0.000000
# 4 0.000000 0.000000 0.000000 0.018826 0.000000 0.000000
# 5 0.000000 0.000000 0.000000 0.000000 0.030298 0.000000
# 6 0.000000 0.000000 0.000000 0.000000 0.000000 0.029670
#
#
# Mechanical properties :
#
#
# Convention : Reuss Voigt Hill
#
# Bulk Modulus (GPa) = 18.27151 19.50998 18.89075
# Shear Modulus (GPa) = 30.17185 34.14646 32.15916
#
# Velocity S-wave (km/s) = 3.68001 3.91490 3.79927
# Velocity P-wave (km/s) = 5.12423 5.40298 5.26545
#
# Compressibility (1/GPa) = 0.05473000
#
# Stress axis : x y z
#
# Youngs Moduli (GPa) = 52.95759 34.76223 71.14761
#
# Poissons Ratio (x) = 0.10090 0.02635
# Poissons Ratio (y) = 0.15371 0.01527
# Poissons Ratio (z) = 0.01961 0.00746
#
# Static dielectric constant tensor:
#      x y z
#    x 1.793930 0.000000 0.000000 
#    y 0.000000 1.834460 0.000000 
#    z 0.000000 0.000000 1.827320 
# 
# From -- ./inp_files/10921.got.cif
#   From: 2010.05.17/outbox.cif.g08.bks.cpg/sg61_6_cif.got.tgz:10921.got - 2010.06.03 15:17:17.
