data_PCOD9459314
_publ_section_title
;
Structure prediction by ZEFSAII (Michael W. Deem and Ramdas Pophale) SiO2 
 PCOD9459314
Probable space group: P B C A
;
_chemical_formula_sum "Si O2"
_cell_formula_units_Z 48
_cell_length_a 8.027055
_cell_length_b 15.005846
_cell_length_c 18.685313
_cell_angle_alpha 90.000000
_cell_angle_beta 90.000000
_cell_angle_gamma 90.000000
_cell_volume 2250.697357
_symmetry_space_group_name_H-M "P B C A"
_symmetry_group_IT_number 61
_symmetry_cell_setting 'orthorhombic'
loop_
_space_group_symop_operation_xyz
x,y,z
1/2-x,-y,1/2+z
1/2+x,1/2-y,-z
-x,1/2+y,1/2-z
-x,-y,-z
1/2+x,y,1/2-z
1/2-x,1/2+y,z
x,1/2-y,1/2+z
loop_
_atom_site_type_symbol
_atom_site_label
_atom_site_fract_x
_atom_site_fract_y
_atom_site_fract_z
Si Si1 0.382205 0.995117 0.607211
Si Si2 0.807508 0.380103 0.162163
Si Si3 0.560823 0.832261 0.304678
Si Si4 0.369115 0.579500 0.330472
Si Si5 0.243746 0.505655 0.956698
Si Si6 0.224391 0.648158 0.195829
O O1 0.565553 0.004260 0.572431
O O2 0.364408 0.902540 0.650007
O O3 0.361842 0.079343 0.659421
O O4 0.252427 0.996494 0.541414
O O5 0.630133 0.333047 0.170334
O O6 0.933928 0.336219 0.217873
O O7 0.797251 0.482551 0.190651
O O8 0.839156 0.405508 0.079018
O O9 0.663962 0.745402 0.327127
O O10 0.339236 0.578086 0.415617
O O11 0.279115 0.647962 0.278415
O O12 0.562525 0.586258 0.313791
#
# Coordination Sequence:
#
# PCOD9459314 Si02
#       6
#     8   8   8   8   8   8
#     4  10  19  39  58  83 116 154 192 227 301 337
#     4   9  19  37  57  81 107 151 190 231 289 333
#     4  11  21  35  57  86 116 149 192 240 284 346
#     4  10  20  37  57  85 108 151 193 235 290 335
#     4   8  19  36  63  76 111 161 185 233 291 347
#     4  12  22  34  59  87 117 148 195 244 283 344
#
# _framework density 21.326723000000001
#
# number of rings (size 3 to 8) (size 9 to 14) (size 15 to 20)
#    1.000    1.000    1.667    3.000    0.000    0.667 
#    0.000    6.667    0.000    0.000    0.000    0.000 
#    0.000    0.000    0.000    0.000    0.000    0.000 
#
# Total GULP energy -267218.744387 kJ/mol
# GULP energy per Si atom -5567.057175 kJ/mol
# Density = 2.127818 g / cm^3
# Si number density = 21.326723 Si / 1000 Ang^3
#
#
#
# Elastic Constant Matrix: (Units=GPa)
#
#
# Indices 1 2 3 4 5 6 
#
# 1 21.6609 2.0501 11.6229 0.0000 0.0000 0.0000
# 2 2.0501 80.0999 -3.6643 0.0000 0.0000 0.0000
# 3 11.6229 -3.6643 81.3275 0.0000 0.0000 0.0000
# 4 0.0000 0.0000 0.0000 3.9556 0.0000 0.0000
# 5 0.0000 0.0000 0.0000 0.0000 27.2049 0.0000
# 6 0.0000 0.0000 0.0000 0.0000 0.0000 13.3145
#
#
#
# Elastic Compliance Matrix: (Units=1/GPa)
#
#
# Indices 1 2 3 4 5 6 
#
# 1 0.050208 -0.001617 -0.007248 0.000000 0.000000 0.000000
# 2 -0.001617 0.012562 0.000797 0.000000 0.000000 0.000000
# 3 -0.007248 0.000797 0.013368 0.000000 0.000000 0.000000
# 4 0.000000 0.000000 0.000000 0.252805 0.000000 0.000000
# 5 0.000000 0.000000 0.000000 0.000000 0.036758 0.000000
# 6 0.000000 0.000000 0.000000 0.000000 0.000000 0.075106
#
#
# Mechanical properties :
#
#
# Convention : Reuss Voigt Hill
#
# Bulk Modulus (GPa) = 16.66597 22.56730 19.61663
# Shear Modulus (GPa) = 10.48339 20.43364 15.45852
#
# Velocity S-wave (km/s) = 2.21952 3.09872 2.69521
# Velocity P-wave (km/s) = 3.79473 4.83812 4.34783
#
# Compressibility (1/GPa) = 0.06000251
#
# Stress axis : x y z
#
# Youngs Moduli (GPa) = 19.91697 79.60360 74.80672
#
# Poissons Ratio (x) = 0.12869 0.54223
# Poissons Ratio (y) = 0.03220 -0.05963
# Poissons Ratio (z) = 0.14437 -0.06345
#
# Static dielectric constant tensor:
#      x y z
#    x 1.821250 0.000000 0.000000 
#    y 0.000000 1.789550 0.000000 
#    z 0.000000 0.000000 1.876180 
# 
# From -- ./inp_files/10853.got.cif
#   From: 2010.05.17/outbox.cif.g08.bks.cpg/sg61_6_cif.got.tgz:10853.got - 2010.06.03 15:17:17.
