data_PCOD9459904
_publ_section_title
;
Structure prediction by ZEFSAII (Michael W. Deem and Ramdas Pophale) SiO2 
 PCOD9459904
Probable space group: P B C A
;
_chemical_formula_sum "Si O2"
_cell_formula_units_Z 48
_cell_length_a 25.033043
_cell_length_b 7.796215
_cell_length_c 8.466486
_cell_angle_alpha 90.000000
_cell_angle_beta 90.000000
_cell_angle_gamma 90.000000
_cell_volume 1652.344683
_symmetry_space_group_name_H-M "P B C A"
_symmetry_group_IT_number 61
_symmetry_cell_setting 'orthorhombic'
loop_
_space_group_symop_operation_xyz
x,y,z
1/2-x,-y,1/2+z
1/2+x,1/2-y,-z
-x,1/2+y,1/2-z
-x,-y,-z
1/2+x,y,1/2-z
1/2-x,1/2+y,z
x,1/2-y,1/2+z
loop_
_atom_site_type_symbol
_atom_site_label
_atom_site_fract_x
_atom_site_fract_y
_atom_site_fract_z
Si Si1 0.309991 0.809415 0.853543
Si Si2 0.086893 0.101751 0.931539
Si Si3 0.636102 0.698045 0.887948
Si Si4 0.428174 0.417248 0.404222
Si Si5 0.745202 0.913590 0.346531
Si Si6 0.502324 0.389587 0.787616
O O1 0.278836 0.635380 0.808412
O O2 0.370983 0.750203 0.885891
O O3 0.291732 0.576152 0.201860
O O4 0.285749 0.900346 0.007463
O O5 0.052041 0.111719 0.091686
O O6 0.123478 0.934882 0.970454
O O7 0.039479 0.047688 0.812815
O O8 0.618486 0.607396 0.725207
O O9 0.698683 0.728306 0.878871
O O10 0.599403 0.862714 0.932289
O O11 0.466927 0.580847 0.377963
O O12 0.466581 0.265780 0.343933
#
# Coordination Sequence:
#
# PCOD9459904 Si02
#       6
#     8   8   8   8   8   8
#     4  12  26  47  75 106 146 196 248 309 377 447
#     4   9  20  42  68  95 139 189 237 298 370 443
#     4  10  21  41  63  94 138 184 232 294 365 435
#     4  10  21  38  65  94 136 185 235 302 371 438
#     4  12  26  46  71 106 147 193 253 306 368 455
#     4   9  20  40  66 102 138 181 245 307 367 446
#
# _framework density 29.049627000000001
#
# number of rings (size 3 to 8) (size 9 to 14) (size 15 to 20)
#    0.000    1.667    0.000    5.000    0.000    6.000 
#    0.000    3.333    0.000    4.000    0.000    0.000 
#    0.000    0.000    0.000    0.000    0.000    0.000 
#
# Total GULP energy -268511.251957 kJ/mol
# GULP energy per Si atom -5593.984416 kJ/mol
# Density = 2.898351 g / cm^3
# Si number density = 29.049627 Si / 1000 Ang^3
#
#
#
# Elastic Constant Matrix: (Units=GPa)
#
#
# Indices 1 2 3 4 5 6 
#
# 1 237.4049 55.1558 70.6702 0.0000 0.0000 0.0000
# 2 55.1558 75.4237 28.3783 0.0000 0.0000 0.0000
# 3 70.6702 28.3783 127.6578 0.0000 0.0000 0.0000
# 4 0.0000 0.0000 0.0000 40.1015 0.0000 0.0000
# 5 0.0000 0.0000 0.0000 0.0000 46.1134 0.0000
# 6 0.0000 0.0000 0.0000 0.0000 0.0000 52.7947
#
#
#
# Elastic Compliance Matrix: (Units=1/GPa)
#
#
# Indices 1 2 3 4 5 6 
#
# 1 0.005689 -0.003247 -0.002428 0.000000 0.000000 0.000000
# 2 -0.003247 0.016322 -0.001831 0.000000 0.000000 0.000000
# 3 -0.002428 -0.001831 0.009584 0.000000 0.000000 0.000000
# 4 0.000000 0.000000 0.000000 0.024937 0.000000 0.000000
# 5 0.000000 0.000000 0.000000 0.000000 0.021686 0.000000
# 6 0.000000 0.000000 0.000000 0.000000 0.000000 0.018941
#
#
# Mechanical properties :
#
#
# Convention : Reuss Voigt Hill
#
# Bulk Modulus (GPa) = 60.29784 83.21055 71.75419
# Shear Modulus (GPa) = 42.48152 46.88741 44.68447
#
# Velocity S-wave (km/s) = 3.82825 4.02188 3.92626
# Velocity P-wave (km/s) = 6.35158 7.09040 6.73114
#
# Compressibility (1/GPa) = 0.01658434
#
# Stress axis : x y z
#
# Youngs Moduli (GPa) = 175.76976 61.26792 104.33639
#
# Poissons Ratio (x) = 0.19894 0.25330
# Poissons Ratio (y) = 0.57073 0.19102
# Poissons Ratio (z) = 0.42672 0.11217
#
# Static dielectric constant tensor:
#      x y z
#    x 2.189380 0.000000 0.000000 
#    y 0.000000 2.589050 0.000000 
#    z 0.000000 0.000000 2.167970 
# 
# From -- ./inp_files/4233.got.cif
#   From: 2010.05.17/outbox.cif.g08.bks.cpg/sg61_3_cif.got.tgz:4233.got - 2010.06.03 15:17:17.
