data_PCOD9459263
_publ_section_title
;
Structure prediction by ZEFSAII (Michael W. Deem and Ramdas Pophale) SiO2 
 PCOD9459263
Probable space group: P B C A
;
_chemical_formula_sum "Si O2"
_cell_formula_units_Z 40
_cell_length_a 18.476582
_cell_length_b 5.379979
_cell_length_c 15.555751
_cell_angle_alpha 90.000000
_cell_angle_beta 90.000000
_cell_angle_gamma 90.000000
_cell_volume 1546.298010
_symmetry_space_group_name_H-M "P B C A"
_symmetry_group_IT_number 61
_symmetry_cell_setting 'orthorhombic'
loop_
_space_group_symop_operation_xyz
x,y,z
1/2-x,-y,1/2+z
1/2+x,1/2-y,-z
-x,1/2+y,1/2-z
-x,-y,-z
1/2+x,y,1/2-z
1/2-x,1/2+y,z
x,1/2-y,1/2+z
loop_
_atom_site_type_symbol
_atom_site_label
_atom_site_fract_x
_atom_site_fract_y
_atom_site_fract_z
Si Si1 0.266295 0.880822 0.052698
Si Si2 0.958915 0.739476 0.573444
Si Si3 0.790774 0.147616 0.762384
Si Si4 0.571922 0.096563 0.888783
Si Si5 0.566493 0.765306 0.165482
O O1 0.252145 0.629096 0.002008
O O2 0.212723 0.870522 0.134128
O O3 0.343364 0.886857 0.101055
O O4 0.953609 0.739345 0.471046
O O5 0.928093 0.498967 0.618845
O O6 0.919397 0.995082 0.603922
O O7 0.041013 0.819126 0.596533
O O8 0.759416 0.880283 0.733474
O O9 0.872264 0.210205 0.735977
O O10 0.519886 0.197859 0.812358
#
# Coordination Sequence:
#
# PCOD9459263 Si02
#       5
#     8   8   8   8   8
#     4  10  23  39  58  83 122 160 197 248 298 355
#     4   9  20  34  65  86 118 144 205 245 297 349
#     4  10  21  40  57  81 121 159 198 247 295 350
#     4   9  21  37  63  87 120 155 202 245 297 360
#     4  10  19  36  61  86 114 158 194 248 295 353
#
# _framework density 25.868234999999999
#
# number of rings (size 3 to 8) (size 9 to 14) (size 15 to 20)
#    1.200    1.200    0.000    1.800    2.800    0.000 
#    0.000   14.000    0.000    0.000    0.000    0.000 
#    0.000    0.000    0.000    0.000    0.000    0.000 
#
# Total GULP energy -223266.133950 kJ/mol
# GULP energy per Si atom -5581.653349 kJ/mol
# Density = 2.580936 g / cm^3
# Si number density = 25.868235 Si / 1000 Ang^3
#
#
#
# Elastic Constant Matrix: (Units=GPa)
#
#
# Indices 1 2 3 4 5 6 
#
# 1 90.9318 31.1291 8.3420 0.0000 0.0000 0.0000
# 2 31.1291 223.7406 11.9096 0.0000 0.0000 0.0000
# 3 8.3420 11.9096 38.3619 0.0000 0.0000 0.0000
# 4 0.0000 0.0000 0.0000 12.8660 0.0000 0.0000
# 5 0.0000 0.0000 0.0000 0.0000 10.5405 0.0000
# 6 0.0000 0.0000 0.0000 0.0000 0.0000 33.9713
#
#
#
# Elastic Compliance Matrix: (Units=1/GPa)
#
#
# Indices 1 2 3 4 5 6 
#
# 1 0.011707 -0.001518 -0.002074 0.000000 0.000000 0.000000
# 2 -0.001518 0.004742 -0.001142 0.000000 0.000000 0.000000
# 3 -0.002074 -0.001142 0.026873 0.000000 0.000000 0.000000
# 4 0.000000 0.000000 0.000000 0.077724 0.000000 0.000000
# 5 0.000000 0.000000 0.000000 0.000000 0.094872 0.000000
# 6 0.000000 0.000000 0.000000 0.000000 0.000000 0.029437
#
#
# Mechanical properties :
#
#
# Convention : Reuss Voigt Hill
#
# Bulk Modulus (GPa) = 29.53981 50.64396 40.09188
# Shear Modulus (GPa) = 18.78935 31.58580 25.18758
#
# Velocity S-wave (km/s) = 2.69801 3.49811 3.12378
# Velocity P-wave (km/s) = 4.59889 5.99465 5.34255
#
# Compressibility (1/GPa) = 0.03385262
#
# Stress axis : x y z
#
# Youngs Moduli (GPa) = 85.41626 210.90366 37.21192
#
# Poissons Ratio (x) = 0.32024 0.07719
# Poissons Ratio (y) = 0.12970 0.04249
# Poissons Ratio (z) = 0.17719 0.24082
#
# Static dielectric constant tensor:
#      x y z
#    x 2.118850 0.000000 0.000000 
#    y 0.000000 2.201990 0.000000 
#    z 0.000000 0.000000 2.013830 
# 
# From -- ./inp_files/10509.got.cif
#   From: 2010.05.17/outbox.cif.g08.bks.cpg/sg61_6_cif.got.tgz:10509.got - 2010.06.03 15:17:17.
