data_PCOD9459009
_publ_section_title
;
Structure prediction by ZEFSAII (Michael W. Deem and Ramdas Pophale) SiO2 
 PCOD9459009
Probable space group: P B C A
;
_chemical_formula_sum "Si O2"
_cell_formula_units_Z 48
_cell_length_a 13.961996
_cell_length_b 8.767715
_cell_length_c 17.834988
_cell_angle_alpha 90.000000
_cell_angle_beta 90.000000
_cell_angle_gamma 90.000000
_cell_volume 2183.266520
_symmetry_space_group_name_H-M "P B C A"
_symmetry_group_IT_number 61
_symmetry_cell_setting 'orthorhombic'
loop_
_space_group_symop_operation_xyz
x,y,z
1/2-x,-y,1/2+z
1/2+x,1/2-y,-z
-x,1/2+y,1/2-z
-x,-y,-z
1/2+x,y,1/2-z
1/2-x,1/2+y,z
x,1/2-y,1/2+z
loop_
_atom_site_type_symbol
_atom_site_label
_atom_site_fract_x
_atom_site_fract_y
_atom_site_fract_z
Si Si1 0.544777 0.037649 0.804123
Si Si2 0.811733 0.098356 0.183380
Si Si3 0.641461 0.916074 0.123377
Si Si4 0.336117 0.682125 0.187421
Si Si5 0.868376 0.403681 0.958809
Si Si6 0.302000 0.096238 0.590243
O O1 0.603668 0.970398 0.734443
O O2 0.586160 0.963176 0.881102
O O3 0.431267 0.021201 0.813284
O O4 0.569831 0.217512 0.801127
O O5 0.850280 0.235662 0.133989
O O6 0.733250 0.163706 0.241887
O O7 0.747691 0.981515 0.135763
O O8 0.596862 0.948864 0.041567
O O9 0.271225 0.792908 0.134597
O O10 0.352370 0.519400 0.147973
O O11 0.762970 0.482526 0.958401
O O12 0.865600 0.219873 0.952525
#
# Coordination Sequence:
#
# PCOD9459009 Si02
#       6
#     8   8   8   8   8   8
#     4  11  24  42  68  94 129 179 218 260 327 404
#     4  12  23  43  64  95 133 175 214 270 326 388
#     4  12  27  41  65  99 137 162 220 280 329 375
#     4  10  17  37  62  91 116 168 219 251 306 389
#     4  10  20  40  63  99 128 170 216 271 323 392
#     4   9  16  33  67  89 119 171 218 248 318 385
#
# _framework density 21.985406000000001
#
# number of rings (size 3 to 8) (size 9 to 14) (size 15 to 20)
#    0.000    1.333    6.667    1.500    2.333    0.000 
#    0.000    2.500    0.000    0.000    0.000    1.167 
#    0.000    0.000    0.000    0.000    0.000    0.000 
#
# Total GULP energy -267694.267522 kJ/mol
# GULP energy per Si atom -5576.963907 kJ/mol
# Density = 2.193537 g / cm^3
# Si number density = 21.985406 Si / 1000 Ang^3
#
#
#
# Elastic Constant Matrix: (Units=GPa)
#
#
# Indices 1 2 3 4 5 6 
#
# 1 33.6254 2.0879 -5.4709 0.0000 0.0000 0.0000
# 2 2.0879 103.1429 20.5246 0.0000 0.0000 0.0000
# 3 -5.4709 20.5246 81.0520 0.0000 0.0000 0.0000
# 4 0.0000 0.0000 0.0000 21.7745 0.0000 0.0000
# 5 0.0000 0.0000 0.0000 0.0000 25.7695 0.0000
# 6 0.0000 0.0000 0.0000 0.0000 0.0000 20.1036
#
#
#
# Elastic Compliance Matrix: (Units=1/GPa)
#
#
# Indices 1 2 3 4 5 6 
#
# 1 0.030181 -0.001070 0.002308 0.000000 0.000000 0.000000
# 2 -0.001070 0.010248 -0.002667 0.000000 0.000000 0.000000
# 3 0.002308 -0.002667 0.013169 0.000000 0.000000 0.000000
# 4 0.000000 0.000000 0.000000 0.045925 0.000000 0.000000
# 5 0.000000 0.000000 0.000000 0.000000 0.038806 0.000000
# 6 0.000000 0.000000 0.000000 0.000000 0.000000 0.049742
#
#
# Mechanical properties :
#
#
# Convention : Reuss Voigt Hill
#
# Bulk Modulus (GPa) = 19.70847 28.01149 23.85998
# Shear Modulus (GPa) = 24.05660 26.90809 25.48234
#
# Velocity S-wave (km/s) = 3.31147 3.50223 3.40819
# Velocity P-wave (km/s) = 4.85849 5.39655 5.13457
#
# Compressibility (1/GPa) = 0.05073960
#
# Stress axis : x y z
#
# Youngs Moduli (GPa) = 33.13293 97.58279 75.93597
#
# Poissons Ratio (x) = 0.10444 -0.17528
# Poissons Ratio (y) = 0.03546 0.20254
# Poissons Ratio (z) = -0.07648 0.26028
#
# Static dielectric constant tensor:
#      x y z
#    x 1.817790 0.000000 0.000000 
#    y 0.000000 1.809710 0.000000 
#    z 0.000000 0.000000 1.852300 
# 
# From -- ./inp_files/7063.got.cif
#   From: 2010.05.17/outbox.cif.g08.bks.cpg/sg61_4_cif.got.tgz:7063.got - 2010.06.03 15:17:17.
