data_PCOD9459176
_publ_section_title
;
Structure prediction by ZEFSAII (Michael W. Deem and Ramdas Pophale) SiO2 
 PCOD9459176
Probable space group: P B C A
;
_chemical_formula_sum "Si O2"
_cell_formula_units_Z 52
_cell_length_a 22.517606
_cell_length_b 5.372208
_cell_length_c 17.341891
_cell_angle_alpha 90.000000
_cell_angle_beta 90.000000
_cell_angle_gamma 90.000000
_cell_volume 2097.835775
_symmetry_space_group_name_H-M "P B C A"
_symmetry_group_IT_number 61
_symmetry_cell_setting 'orthorhombic'
loop_
_space_group_symop_operation_xyz
x,y,z
1/2-x,-y,1/2+z
1/2+x,1/2-y,-z
-x,1/2+y,1/2-z
-x,-y,-z
1/2+x,y,1/2-z
1/2-x,1/2+y,z
x,1/2-y,1/2+z
loop_
_atom_site_type_symbol
_atom_site_label
_atom_site_fract_x
_atom_site_fract_y
_atom_site_fract_z
Si Si1 0.903883 0.967928 0.862962
Si Si2 0.000000 0.500000 0.500000
Si Si3 0.899480 0.452207 0.639242
Si Si4 0.266195 0.550844 0.092834
Si Si5 0.218395 0.563885 0.266191
Si Si6 0.548196 0.970190 0.791667
Si Si7 0.556298 0.445226 0.591063
O O1 0.834943 0.964034 0.885890
O O2 0.915799 0.716511 0.815300
O O3 0.918164 0.221527 0.818127
O O4 0.947709 0.964846 0.935137
O O5 0.983898 0.782655 0.533864
O O6 0.843592 0.386224 0.691613
O O7 0.954029 0.471227 0.699478
O O8 0.893735 0.731199 0.606014
O O9 0.918409 0.229507 0.580114
O O10 0.247263 0.303996 0.049296
O O11 0.225923 0.560603 0.172115
O O12 0.239528 0.290811 0.290088
O O13 0.485314 0.976930 0.833898
#
# Coordination Sequence:
#
# PCOD9459176 Si02
#       7
#     8   4   8   8   8   8   8
#     4  11  22  39  66  93 130 174 222 281 337 408
#     4  10  26  46  66  94 132 188 242 276 330 410
#     4  12  22  37  61  93 129 160 207 276 350 413
#     4  10  19  34  57  91 122 157 210 270 339 400
#     4  10  19  33  55  85 121 157 198 256 335 415
#     4  11  21  37  60  94 128 161 206 270 348 413
#     4  11  24  39  60  89 126 173 216 265 328 407
#
# _framework density 24.787451000000001
#
# number of rings (size 3 to 8) (size 9 to 14) (size 15 to 20)
#    0.000    1.231    0.000    9.231    0.000    5.538 
#    0.000    0.000    0.000    5.538    0.000    0.000 
#    0.000    0.000    0.000    0.000    0.000    0.000 
#
# Total GULP energy -289759.709041 kJ/mol
# GULP energy per Si atom -5572.302097 kJ/mol
# Density = 2.473103 g / cm^3
# Si number density = 24.787451 Si / 1000 Ang^3
#
#
#
# Elastic Constant Matrix: (Units=GPa)
#
#
# Indices 1 2 3 4 5 6 
#
# 1 62.6634 11.4694 12.8194 0.0000 0.0000 0.0000
# 2 11.4694 219.5628 10.5293 0.0000 0.0000 0.0000
# 3 12.8194 10.5293 42.8186 0.0000 0.0000 0.0000
# 4 0.0000 0.0000 0.0000 13.1736 0.0000 0.0000
# 5 0.0000 0.0000 0.0000 0.0000 21.9717 0.0000
# 6 0.0000 0.0000 0.0000 0.0000 0.0000 35.9675
#
#
#
# Elastic Compliance Matrix: (Units=1/GPa)
#
#
# Indices 1 2 3 4 5 6 
#
# 1 0.017092 -0.000655 -0.004956 0.000000 0.000000 0.000000
# 2 -0.000655 0.004634 -0.000943 0.000000 0.000000 0.000000
# 3 -0.004956 -0.000943 0.025070 0.000000 0.000000 0.000000
# 4 0.000000 0.000000 0.000000 0.075910 0.000000 0.000000
# 5 0.000000 0.000000 0.000000 0.000000 0.045513 0.000000
# 6 0.000000 0.000000 0.000000 0.000000 0.000000 0.027803
#
#
# Mechanical properties :
#
#
# Convention : Reuss Voigt Hill
#
# Bulk Modulus (GPa) = 29.68507 43.85342 36.76925
# Shear Modulus (GPa) = 22.69014 33.57099 28.13056
#
# Velocity S-wave (km/s) = 3.02882 3.68415 3.37244
# Velocity P-wave (km/s) = 4.92275 5.98560 5.48001
#
# Compressibility (1/GPa) = 0.03368697
#
# Stress axis : x y z
#
# Youngs Moduli (GPa) = 58.50659 215.79771 39.88811
#
# Poissons Ratio (x) = 0.14138 0.19769
# Poissons Ratio (y) = 0.03833 0.03763
# Poissons Ratio (z) = 0.28996 0.20357
#
# Static dielectric constant tensor:
#      x y z
#    x 1.894150 0.000000 0.000000 
#    y 0.000000 2.064980 0.000000 
#    z 0.000000 0.000000 1.975280 
# 
# From -- ./inp_files/10592.got.cif
#   From: 2010.05.17/outbox.cif.g08.bks.cpg/sg61_6_cif.got.tgz:10592.got - 2010.06.03 15:17:17.
