data_PCOD9459966
_publ_section_title
;
Structure prediction by ZEFSAII (Michael W. Deem and Ramdas Pophale) SiO2 
 PCOD9459966
Probable space group: P B C A
;
_chemical_formula_sum "Si O2"
_cell_formula_units_Z 64
_cell_length_a 10.350515
_cell_length_b 30.175061
_cell_length_c 9.320132
_cell_angle_alpha 90.000000
_cell_angle_beta 90.000000
_cell_angle_gamma 90.000000
_cell_volume 2910.932796
_symmetry_space_group_name_H-M "P B C A"
_symmetry_group_IT_number 61
_symmetry_cell_setting 'orthorhombic'
loop_
_space_group_symop_operation_xyz
x,y,z
1/2-x,-y,1/2+z
1/2+x,1/2-y,-z
-x,1/2+y,1/2-z
-x,-y,-z
1/2+x,y,1/2-z
1/2-x,1/2+y,z
x,1/2-y,1/2+z
loop_
_atom_site_type_symbol
_atom_site_label
_atom_site_fract_x
_atom_site_fract_y
_atom_site_fract_z
Si Si1 0.505446 0.707854 0.407035
Si Si2 0.746681 0.301997 0.426323
Si Si3 0.979864 0.055077 0.069786
Si Si4 0.496304 0.105680 0.137569
Si Si5 0.275679 0.592439 0.564999
Si Si6 0.720671 0.949130 0.985494
Si Si7 0.366295 0.253911 0.341359
Si Si8 0.837870 0.982278 0.234633
O O1 0.382991 0.717612 0.504961
O O2 0.495996 0.658059 0.355471
O O3 0.522913 0.739437 0.271450
O O4 0.616858 0.712317 0.526640
O O5 0.738923 0.355042 0.404668
O O6 0.840219 0.290109 0.561534
O O7 0.774202 0.277163 0.276723
O O8 0.965840 0.086520 0.208091
O O9 0.127638 0.063260 0.021635
O O10 0.947895 0.006119 0.137120
O O11 0.863242 0.069718 0.964685
O O12 0.381068 0.089966 0.032333
O O13 0.632578 0.088564 0.074912
O O14 0.351074 0.565301 0.688976
O O15 0.690830 0.983327 0.859737
O O16 0.713018 0.975831 0.133496
#
# Coordination Sequence:
#
# PCOD9459966 Si02
#       8
#     8   8   8   8   8   8   8   8
#     4  10  21  40  63  93 126 165 212 260 325 388
#     4  10  22  41  65  93 128 166 209 268 324 391
#     4  11  23  43  63  94 125 173 214 264 314 380
#     4  10  23  40  65  91 127 167 212 262 319 380
#     4  11  24  41  64  93 130 166 215 266 323 377
#     4  11  25  41  66  91 127 168 217 259 318 375
#     4  10  21  39  65  93 126 164 210 260 326 393
#     4  11  24  40  64  90 126 163 216 259 318 365
#
# _framework density 21.986080999999999
#
# number of rings (size 3 to 8) (size 9 to 14) (size 15 to 20)
#    0.000    1.500    1.250    3.375    3.500    2.000 
#    2.250    5.000    0.000    0.000    0.000    0.000 
#    0.000    0.000    0.000    0.000    0.000    0.000 
#
# Total GULP energy -356627.374079 kJ/mol
# GULP energy per Si atom -5572.302720 kJ/mol
# Density = 2.193604 g / cm^3
# Si number density = 21.986081 Si / 1000 Ang^3
#
#
#
# Elastic Constant Matrix: (Units=GPa)
#
#
# Indices 1 2 3 4 5 6 
#
# 1 55.0651 16.9419 -4.4843 0.0000 0.0000 0.0000
# 2 16.9419 41.5268 18.6660 0.0000 0.0000 0.0000
# 3 -4.4843 18.6660 92.3280 0.0000 0.0000 0.0000
# 4 0.0000 0.0000 0.0000 17.8332 0.0000 0.0000
# 5 0.0000 0.0000 0.0000 0.0000 33.3616 0.0000
# 6 0.0000 0.0000 0.0000 0.0000 0.0000 14.6838
#
#
#
# Elastic Compliance Matrix: (Units=1/GPa)
#
#
# Indices 1 2 3 4 5 6 
#
# 1 0.021547 -0.010187 0.003106 0.000000 0.000000 0.000000
# 2 -0.010187 0.031304 -0.006824 0.000000 0.000000 0.000000
# 3 0.003106 -0.006824 0.012361 0.000000 0.000000 0.000000
# 4 0.000000 0.000000 0.000000 0.056075 0.000000 0.000000
# 5 0.000000 0.000000 0.000000 0.000000 0.029975 0.000000
# 6 0.000000 0.000000 0.000000 0.000000 0.000000 0.068102
#
#
# Mechanical properties :
#
#
# Convention : Reuss Voigt Hill
#
# Bulk Modulus (GPa) = 26.73517 27.90745 27.32131
# Shear Modulus (GPa) = 19.25732 23.69549 21.47641
#
# Velocity S-wave (km/s) = 2.96275 3.28647 3.12880
# Velocity P-wave (km/s) = 4.88777 5.20788 5.05036
#
# Compressibility (1/GPa) = 0.03740391
#
# Stress axis : x y z
#
# Youngs Moduli (GPa) = 46.40916 31.94482 80.89748
#
# Poissons Ratio (x) = 0.32542 -0.25127
# Poissons Ratio (y) = 0.47277 0.55201
# Poissons Ratio (z) = -0.14415 0.21798
#
# Static dielectric constant tensor:
#      x y z
#    x 1.918830 0.000000 0.000000 
#    y 0.000000 1.813010 0.000000 
#    z 0.000000 0.000000 1.625800 
# 
# From -- ./inp_files/2437.got.cif
#   From: 2010.05.17/outbox.cif.g08.bks.cpg/sg61_2_cif.got.tgz:2437.got - 2010.06.03 15:17:17.
