data_PCOD9459291
_publ_section_title
;
Structure prediction by ZEFSAII (Michael W. Deem and Ramdas Pophale) SiO2 
 PCOD9459291
Probable space group: P B C A
;
_chemical_formula_sum "Si O2"
_cell_formula_units_Z 64
_cell_length_a 21.911248
_cell_length_b 15.629316
_cell_length_c 8.344260
_cell_angle_alpha 90.000000
_cell_angle_beta 90.000000
_cell_angle_gamma 90.000000
_cell_volume 2857.557080
_symmetry_space_group_name_H-M "P B C A"
_symmetry_group_IT_number 61
_symmetry_cell_setting 'orthorhombic'
loop_
_space_group_symop_operation_xyz
x,y,z
1/2-x,-y,1/2+z
1/2+x,1/2-y,-z
-x,1/2+y,1/2-z
-x,-y,-z
1/2+x,y,1/2-z
1/2-x,1/2+y,z
x,1/2-y,1/2+z
loop_
_atom_site_type_symbol
_atom_site_label
_atom_site_fract_x
_atom_site_fract_y
_atom_site_fract_z
Si Si1 0.071551 0.165129 0.978085
Si Si2 0.370412 0.079969 0.658006
Si Si3 0.056312 0.722106 0.471129
Si Si4 0.562799 0.620379 0.363031
Si Si5 0.261558 0.643997 0.710464
Si Si6 0.070532 0.075397 0.306736
Si Si7 0.134972 0.479042 0.320355
Si Si8 0.174814 0.290529 0.914611
O O1 0.131538 0.221706 0.006285
O O2 0.013703 0.225897 0.966955
O O3 0.087357 0.100872 0.834337
O O4 0.055591 0.104528 0.125434
O O5 0.412187 0.154315 0.587659
O O6 0.308527 0.120265 0.724489
O O7 0.358096 0.021866 0.496449
O O8 0.403191 0.019262 0.786978
O O9 0.082753 0.816450 0.495175
O O10 0.060533 0.683542 0.293666
O O11 0.494466 0.584406 0.392891
O O12 0.608182 0.545649 0.307075
O O13 0.302126 0.564954 0.771803
O O14 0.278400 0.660125 0.526304
O O15 0.285730 0.730433 0.796876
O O16 0.124829 0.140018 0.356484
#
# Coordination Sequence:
#
# PCOD9459291 Si02
#       8
#     8   8   8   8   8   8   8   8
#     4   9  17  36  63  88 117 154 202 255 308 370
#     4  10  23  41  59  91 121 171 206 254 312 369
#     4  10  20  36  61  88 125 155 206 256 315 369
#     4  10  20  38  63  93 122 162 200 262 319 375
#     4  11  25  41  63  90 126 166 212 257 301 375
#     4  10  19  37  64  88 119 158 205 251 313 375
#     4   9  21  40  61  87 123 162 207 252 313 366
#     4  11  21  39  63  93 117 162 209 254 305 368
#
# _framework density 22.396754000000001
#
# number of rings (size 3 to 8) (size 9 to 14) (size 15 to 20)
#    0.000    2.000    2.500    0.750    1.750    5.000 
#    2.250    0.625    0.000    0.000    0.000    0.000 
#    0.000    0.000    0.000    0.000    0.000    0.000 
#
# Total GULP energy -357425.546380 kJ/mol
# GULP energy per Si atom -5584.774162 kJ/mol
# Density = 2.234578 g / cm^3
# Si number density = 22.396754 Si / 1000 Ang^3
#
#
#
# Elastic Constant Matrix: (Units=GPa)
#
#
# Indices 1 2 3 4 5 6 
#
# 1 56.4051 16.7557 11.9363 0.0000 0.0000 0.0000
# 2 16.7557 100.6907 23.7024 0.0000 0.0000 0.0000
# 3 11.9363 23.7024 27.1427 0.0000 0.0000 0.0000
# 4 0.0000 0.0000 0.0000 26.8486 0.0000 0.0000
# 5 0.0000 0.0000 0.0000 0.0000 6.4867 0.0000
# 6 0.0000 0.0000 0.0000 0.0000 0.0000 30.1311
#
#
#
# Elastic Compliance Matrix: (Units=1/GPa)
#
#
# Indices 1 2 3 4 5 6 
#
# 1 0.019742 -0.001563 -0.007317 0.000000 0.000000 0.000000
# 2 -0.001563 0.012625 -0.010337 0.000000 0.000000 0.000000
# 3 -0.007317 -0.010337 0.049087 0.000000 0.000000 0.000000
# 4 0.000000 0.000000 0.000000 0.037246 0.000000 0.000000
# 5 0.000000 0.000000 0.000000 0.000000 0.154162 0.000000
# 6 0.000000 0.000000 0.000000 0.000000 0.000000 0.033188
#
#
# Mechanical properties :
#
#
# Convention : Reuss Voigt Hill
#
# Bulk Modulus (GPa) = 23.24535 32.11414 27.67974
# Shear Modulus (GPa) = 13.93441 21.48288 17.70864
#
# Velocity S-wave (km/s) = 2.49702 3.10045 2.81495
# Velocity P-wave (km/s) = 4.32607 5.21411 4.79071
#
# Compressibility (1/GPa) = 0.04301936
#
# Stress axis : x y z
#
# Youngs Moduli (GPa) = 50.65466 79.20870 20.37194
#
# Poissons Ratio (x) = 0.12378 0.14906
# Poissons Ratio (y) = 0.07916 0.21059
# Poissons Ratio (z) = 0.37063 0.81882
#
# Static dielectric constant tensor:
#      x y z
#    x 1.774280 0.000000 0.000000 
#    y 0.000000 1.831610 0.000000 
#    z 0.000000 0.000000 1.879480 
# 
# From -- ./inp_files/4379.got.cif
#   From: 2010.05.17/outbox.cif.g08.bks.cpg/sg61_3_cif.got.tgz:4379.got - 2010.06.03 15:17:17.
