data_PCOD9459208
_publ_section_title
;
Structure prediction by ZEFSAII (Michael W. Deem and Ramdas Pophale) SiO2 
 PCOD9459208
Probable space group: P B C A
;
_chemical_formula_sum "Si O2"
_cell_formula_units_Z 52
_cell_length_a 14.216207
_cell_length_b 16.604680
_cell_length_c 8.961487
_cell_angle_alpha 90.000000
_cell_angle_beta 90.000000
_cell_angle_gamma 90.000000
_cell_volume 2115.408904
_symmetry_space_group_name_H-M "P B C A"
_symmetry_group_IT_number 61
_symmetry_cell_setting 'orthorhombic'
loop_
_space_group_symop_operation_xyz
x,y,z
1/2-x,-y,1/2+z
1/2+x,1/2-y,-z
-x,1/2+y,1/2-z
-x,-y,-z
1/2+x,y,1/2-z
1/2-x,1/2+y,z
x,1/2-y,1/2+z
loop_
_atom_site_type_symbol
_atom_site_label
_atom_site_fract_x
_atom_site_fract_y
_atom_site_fract_z
Si Si1 0.521497 0.882857 0.271804
Si Si2 0.414355 0.402216 0.923622
Si Si3 0.654237 0.720078 0.568280
Si Si4 0.500000 0.500000 0.500000
Si Si5 0.885654 0.637942 0.307864
Si Si6 0.369342 0.763823 0.415036
Si Si7 0.316971 0.423411 0.635390
O O1 0.568109 0.930993 0.409544
O O2 0.591769 0.821332 0.193068
O O3 0.438011 0.829741 0.342854
O O4 0.492730 0.942718 0.143021
O O5 0.379225 0.310865 0.950150
O O6 0.513677 0.399499 0.838179
O O7 0.344423 0.442102 0.806617
O O8 0.761534 0.718980 0.621049
O O9 0.650629 0.667420 0.415939
O O10 0.382534 0.475085 0.525141
O O11 0.880448 0.719152 0.409269
O O12 0.887298 0.672896 0.140051
O O13 0.796503 0.585048 0.359319
#
# Coordination Sequence:
#
# PCOD9459208 Si02
#       7
#     8   8   8   4   8   8   8
#     4  10  22  38  60  90 126 174 221 264 331 406
#     4  11  20  34  61  94 127 159 216 280 335 396
#     4  10  19  34  59  93 130 159 204 274 350 400
#     4  10  24  46  62  78 130 184 226 270 324 402
#     4  10  21  34  56  93 130 156 208 266 333 394
#     4  10  20  33  56  90 129 159 202 268 337 394
#     4  10  22  39  59  87 126 172 217 265 329 400
#
# _framework density 24.581537000000001
#
# number of rings (size 3 to 8) (size 9 to 14) (size 15 to 20)
#    0.000    1.846    3.077    0.923    4.308    0.615 
#    0.000    6.154    0.000    0.000    0.000    0.000 
#    0.000    0.000    0.000    0.000    0.000    0.000 
#
# Total GULP energy -289693.222747 kJ/mol
# GULP energy per Si atom -5571.023514 kJ/mol
# Density = 2.452559 g / cm^3
# Si number density = 24.581537 Si / 1000 Ang^3
#
#
#
# Elastic Constant Matrix: (Units=GPa)
#
#
# Indices 1 2 3 4 5 6 
#
# 1 100.7564 7.1406 28.7586 0.0000 0.0000 0.0000
# 2 7.1406 35.6747 23.9359 0.0000 0.0000 0.0000
# 3 28.7586 23.9359 65.6694 0.0000 0.0000 0.0000
# 4 0.0000 0.0000 0.0000 23.9230 0.0000 0.0000
# 5 0.0000 0.0000 0.0000 0.0000 28.4194 0.0000
# 6 0.0000 0.0000 0.0000 0.0000 0.0000 13.4732
#
#
#
# Elastic Compliance Matrix: (Units=1/GPa)
#
#
# Indices 1 2 3 4 5 6 
#
# 1 0.011396 0.001413 -0.005506 0.000000 0.000000 0.000000
# 2 0.001413 0.037281 -0.014207 0.000000 0.000000 0.000000
# 3 -0.005506 -0.014207 0.022817 0.000000 0.000000 0.000000
# 4 0.000000 0.000000 0.000000 0.041801 0.000000 0.000000
# 5 0.000000 0.000000 0.000000 0.000000 0.035187 0.000000
# 6 0.000000 0.000000 0.000000 0.000000 0.000000 0.074221
#
#
# Mechanical properties :
#
#
# Convention : Reuss Voigt Hill
#
# Bulk Modulus (GPa) = 28.65807 35.75230 32.20519
# Shear Modulus (GPa) = 18.45464 22.64750 20.55107
#
# Velocity S-wave (km/s) = 2.74296 3.03862 2.89457
# Velocity P-wave (km/s) = 4.65998 5.18526 4.92962
#
# Compressibility (1/GPa) = 0.03489418
#
# Stress axis : x y z
#
# Youngs Moduli (GPa) = 87.74785 26.82367 43.82630
#
# Poissons Ratio (x) = -0.03790 0.24130
# Poissons Ratio (y) = -0.12399 0.62265
# Poissons Ratio (z) = 0.48312 0.38109
#
# Static dielectric constant tensor:
#      x y z
#    x 1.954220 0.000000 0.000000 
#    y 0.000000 1.231050 0.000000 
#    z 0.000000 0.000000 1.895460 
# 
# From -- ./inp_files/2981.got.cif
#   From: 2010.05.17/outbox.cif.g08.bks.cpg/sg61_2_cif.got.tgz:2981.got - 2010.06.03 15:17:17.
