data_PCOD9459008
_publ_section_title
;
Structure prediction by ZEFSAII (Michael W. Deem and Ramdas Pophale) SiO2 
 PCOD9459008
Probable space group: P B C A
;
_chemical_formula_sum "Si O2"
_cell_formula_units_Z 48
_cell_length_a 9.314300
_cell_length_b 12.897903
_cell_length_c 17.825440
_cell_angle_alpha 90.000000
_cell_angle_beta 90.000000
_cell_angle_gamma 90.000000
_cell_volume 2141.458128
_symmetry_space_group_name_H-M "P B C A"
_symmetry_group_IT_number 61
_symmetry_cell_setting 'orthorhombic'
loop_
_space_group_symop_operation_xyz
x,y,z
1/2-x,-y,1/2+z
1/2+x,1/2-y,-z
-x,1/2+y,1/2-z
-x,-y,-z
1/2+x,y,1/2-z
1/2-x,1/2+y,z
x,1/2-y,1/2+z
loop_
_atom_site_type_symbol
_atom_site_label
_atom_site_fract_x
_atom_site_fract_y
_atom_site_fract_z
Si Si1 0.161752 0.879059 0.460158
Si Si2 0.419987 0.830843 0.765234
Si Si3 0.315024 0.037202 0.703919
Si Si4 0.627642 0.046522 0.650870
Si Si5 0.140916 0.702565 0.351087
Si Si6 0.925277 0.030091 0.388711
O O1 0.318143 0.904509 0.426449
O O2 0.122032 0.767535 0.426423
O O3 0.141317 0.895879 0.547886
O O4 0.056696 0.965042 0.422810
O O5 0.337323 0.912934 0.712507
O O6 0.522854 0.766425 0.711154
O O7 0.299619 0.779677 0.816721
O O8 0.516529 0.902749 0.819389
O O9 0.194595 0.049422 0.640930
O O10 0.470010 0.078718 0.679515
O O11 0.245378 0.067241 0.783511
O O12 0.627203 0.921456 0.639736
#
# Coordination Sequence:
#
# PCOD9459008 Si02
#       6
#     8   8   8   8   8   8
#     4  11  24  39  63  92 131 165 208 252 330 385
#     4  10  18  40  65  84 121 162 207 259 301 365
#     4  10  17  35  67  80 115 164 205 246 317 351
#     4  10  19  38  63  87 123 162 203 267 295 368
#     4  10  21  39  61  92 118 163 209 251 308 376
#     4  11  21  41  63  91 126 170 198 266 323 367
#
# _framework density 22.414634
#
# number of rings (size 3 to 8) (size 9 to 14) (size 15 to 20)
#    0.000    1.667    8.333    0.000    0.000    3.333 
#    6.000    0.000    3.667    0.000    0.000    0.000 
#    0.000    0.000    0.000    0.000    0.000    0.000 
#
# Total GULP energy -268167.864316 kJ/mol
# GULP energy per Si atom -5586.830507 kJ/mol
# Density = 2.236362 g / cm^3
# Si number density = 22.414634 Si / 1000 Ang^3
#
#
#
# Elastic Constant Matrix: (Units=GPa)
#
#
# Indices 1 2 3 4 5 6 
#
# 1 87.9893 -16.5704 -2.1657 0.0000 0.0000 0.0000
# 2 -16.5704 48.4724 -10.9981 0.0000 0.0000 0.0000
# 3 -2.1657 -10.9981 36.3814 0.0000 0.0000 0.0000
# 4 0.0000 0.0000 0.0000 18.8296 0.0000 0.0000
# 5 0.0000 0.0000 0.0000 0.0000 25.3855 0.0000
# 6 0.0000 0.0000 0.0000 0.0000 0.0000 12.6020
#
#
#
# Elastic Compliance Matrix: (Units=1/GPa)
#
#
# Indices 1 2 3 4 5 6 
#
# 1 0.012302 0.004694 0.002151 0.000000 0.000000 0.000000
# 2 0.004694 0.023940 0.007517 0.000000 0.000000 0.000000
# 3 0.002151 0.007517 0.029887 0.000000 0.000000 0.000000
# 4 0.000000 0.000000 0.000000 0.053108 0.000000 0.000000
# 5 0.000000 0.000000 0.000000 0.000000 0.039393 0.000000
# 6 0.000000 0.000000 0.000000 0.000000 0.000000 0.079352
#
#
# Mechanical properties :
#
#
# Convention : Reuss Voigt Hill
#
# Bulk Modulus (GPa) = 10.54282 12.59718 11.57000
# Shear Modulus (GPa) = 20.75752 24.86858 22.81305
#
# Velocity S-wave (km/s) = 3.04644 3.33450 3.19372
# Velocity P-wave (km/s) = 4.13378 4.52299 4.33276
#
# Compressibility (1/GPa) = 0.09485130
#
# Stress axis : x y z
#
# Youngs Moduli (GPa) = 81.28850 41.77070 33.45955
#
# Poissons Ratio (x) = -0.19605 -0.07198
# Poissons Ratio (y) = -0.38153 -0.25150
# Poissons Ratio (z) = -0.17486 -0.31397
#
# Static dielectric constant tensor:
#      x y z
#    x 1.875540 0.000000 0.000000 
#    y 0.000000 1.880690 0.000000 
#    z 0.000000 0.000000 1.791120 
# 
# From -- ./inp_files/8902.got.cif
#   From: 2010.05.17/outbox.cif.g08.bks.cpg/sg61_5_cif.got.tgz:8902.got - 2010.06.03 15:17:17.
