data_PCOD9459636
_publ_section_title
;
Structure prediction by ZEFSAII (Michael W. Deem and Ramdas Pophale) SiO2 
 PCOD9459636
Probable space group: P B C A
;
_chemical_formula_sum "Si O2"
_cell_formula_units_Z 40
_cell_length_a 18.423112
_cell_length_b 10.075030
_cell_length_c 8.840353
_cell_angle_alpha 90.000000
_cell_angle_beta 90.000000
_cell_angle_gamma 90.000000
_cell_volume 1640.888031
_symmetry_space_group_name_H-M "P B C A"
_symmetry_group_IT_number 61
_symmetry_cell_setting 'orthorhombic'
loop_
_space_group_symop_operation_xyz
x,y,z
1/2-x,-y,1/2+z
1/2+x,1/2-y,-z
-x,1/2+y,1/2-z
-x,-y,-z
1/2+x,y,1/2-z
1/2-x,1/2+y,z
x,1/2-y,1/2+z
loop_
_atom_site_type_symbol
_atom_site_label
_atom_site_fract_x
_atom_site_fract_y
_atom_site_fract_z
Si Si1 0.922501 0.511505 0.579854
Si Si2 0.689704 0.004131 0.341773
Si Si3 0.150970 0.198206 0.407597
Si Si4 0.205031 0.666813 0.950261
Si Si5 0.577064 0.531231 0.424982
O O1 0.862996 0.447137 0.469440
O O2 0.891573 0.662781 0.596134
O O3 0.926583 0.449271 0.746060
O O4 0.000000 0.500000 0.500000
O O5 0.645229 0.116850 0.248553
O O6 0.756393 0.076123 0.421658
O O7 0.711495 0.899411 0.215395
O O8 0.237089 0.215290 0.437955
O O9 0.120409 0.103426 0.536775
O O10 0.120792 0.651265 0.994696
O O11 0.500000 0.500000 0.500000
#
# Coordination Sequence:
#
# PCOD9459636 Si02
#       5
#     8   8   8   8   8
#     4  11  21  38  65  95 132 172 213 266 324 385
#     4  10  21  37  62  92 123 163 212 265 318 377
#     4  10  22  42  66  93 125 168 216 265 321 382
#     4  10  20  39  64  91 122 164 210 258 312 377
#     4  11  24  44  67  95 133 171 214 268 325 383
#
# _framework density 24.377043
#
# number of rings (size 3 to 8) (size 9 to 14) (size 15 to 20)
#    0.000    1.600    0.000    7.200    0.000    3.200 
#    0.000   16.000    0.000    0.000    0.000    0.000 
#    0.000    0.000    0.000    0.000    0.000    0.000 
#
# Total GULP energy -223843.394477 kJ/mol
# GULP energy per Si atom -5596.084862 kJ/mol
# Density = 2.432156 g / cm^3
# Si number density = 24.377043 Si / 1000 Ang^3
#
#
#
# Elastic Constant Matrix: (Units=GPa)
#
#
# Indices 1 2 3 4 5 6 
#
# 1 145.2554 20.8394 49.7467 0.0000 0.0000 0.0000
# 2 20.8394 79.7389 6.3868 0.0000 0.0000 0.0000
# 3 49.7467 6.3868 174.7223 0.0000 0.0000 0.0000
# 4 0.0000 0.0000 0.0000 20.4852 0.0000 0.0000
# 5 0.0000 0.0000 0.0000 0.0000 52.7688 0.0000
# 6 0.0000 0.0000 0.0000 0.0000 0.0000 40.0977
#
#
#
# Elastic Compliance Matrix: (Units=1/GPa)
#
#
# Indices 1 2 3 4 5 6 
#
# 1 0.007903 -0.001891 -0.002181 0.000000 0.000000 0.000000
# 2 -0.001891 0.013030 0.000062 0.000000 0.000000 0.000000
# 3 -0.002181 0.000062 0.006342 0.000000 0.000000 0.000000
# 4 0.000000 0.000000 0.000000 0.048816 0.000000 0.000000
# 5 0.000000 0.000000 0.000000 0.000000 0.018951 0.000000
# 6 0.000000 0.000000 0.000000 0.000000 0.000000 0.024939
#
#
# Mechanical properties :
#
#
# Convention : Reuss Voigt Hill
#
# Bulk Modulus (GPa) = 51.93284 61.51805 56.72545
# Shear Modulus (GPa) = 37.19747 44.18658 40.69203
#
# Velocity S-wave (km/s) = 3.91054 4.26212 4.09011
# Velocity P-wave (km/s) = 6.46065 7.03646 6.75469
#
# Compressibility (1/GPa) = 0.01925564
#
# Stress axis : x y z
#
# Youngs Moduli (GPa) = 126.54095 76.74551 157.67787
#
# Poissons Ratio (x) = 0.14510 0.34388
# Poissons Ratio (y) = 0.23924 -0.00978
# Poissons Ratio (z) = 0.27597 -0.00476
#
# Static dielectric constant tensor:
#      x y z
#    x 1.968860 0.000000 0.000000 
#    y 0.000000 2.117490 0.000000 
#    z 0.000000 0.000000 1.953340 
# 
# From -- ./inp_files/3300.got.cif
#   From: 2010.05.17/outbox.cif.g08.bks.cpg/sg61_2_cif.got.tgz:3300.got - 2010.06.03 15:17:17.
