data_PCOD9459086
_publ_section_title
;
Structure prediction by ZEFSAII (Michael W. Deem and Ramdas Pophale) SiO2 
 PCOD9459086
Probable space group: P B C A
;
_chemical_formula_sum "Si O2"
_cell_formula_units_Z 48
_cell_length_a 11.441088
_cell_length_b 13.743878
_cell_length_c 12.387019
_cell_angle_alpha 90.000000
_cell_angle_beta 90.000000
_cell_angle_gamma 90.000000
_cell_volume 1947.795783
_symmetry_space_group_name_H-M "P B C A"
_symmetry_group_IT_number 61
_symmetry_cell_setting 'orthorhombic'
loop_
_space_group_symop_operation_xyz
x,y,z
1/2-x,-y,1/2+z
1/2+x,1/2-y,-z
-x,1/2+y,1/2-z
-x,-y,-z
1/2+x,y,1/2-z
1/2-x,1/2+y,z
x,1/2-y,1/2+z
loop_
_atom_site_type_symbol
_atom_site_label
_atom_site_fract_x
_atom_site_fract_y
_atom_site_fract_z
Si Si1 0.686111 0.883128 0.419374
Si Si2 0.126057 0.426764 0.488272
Si Si3 0.991524 0.738901 0.069307
Si Si4 0.256209 0.811478 0.845956
Si Si5 0.131149 0.879334 0.420112
Si Si6 0.727087 0.011116 0.727445
O O1 0.609469 0.789814 0.387784
O O2 0.742103 0.859887 0.534784
O O3 0.775870 0.921095 0.331003
O O4 0.603654 0.977747 0.441702
O O5 0.058628 0.327107 0.505389
O O6 0.263781 0.402316 0.503658
O O7 0.132746 0.454352 0.360856
O O8 0.892108 0.718375 0.157033
O O9 0.021509 0.648410 0.992207
O O10 0.174494 0.717477 0.856504
O O11 0.221957 0.895462 0.763024
O O12 0.147068 0.963852 0.331686
#
# Coordination Sequence:
#
# PCOD9459086 Si02
#       6
#     8   8   8   8   8   8
#     4  10  19  37  61  81 112 159 186 233 292 337
#     4   8  18  37  55  77 116 152 180 239 274 336
#     4  10  18  36  60  81 111 152 190 230 294 332
#     4   9  19  38  59  80 118 149 186 241 282 336
#     4   8  18  36  55  79 115 146 185 240 271 332
#     4   9  19  38  52  83 120 142 196 231 277 337
#
# _framework density 24.643241
#
# number of rings (size 3 to 8) (size 9 to 14) (size 15 to 20)
#    1.000    2.000    0.000    0.500    0.000    0.667 
#   15.000    0.000    0.000    0.000    0.000    0.000 
#    0.000    0.000    0.000    0.000    0.000    0.000 
#
# Total GULP energy -267500.443557 kJ/mol
# GULP energy per Si atom -5572.925907 kJ/mol
# Density = 2.458715 g / cm^3
# Si number density = 24.643241 Si / 1000 Ang^3
#
#
#
# Elastic Constant Matrix: (Units=GPa)
#
#
# Indices 1 2 3 4 5 6 
#
# 1 23.5661 0.5311 7.0918 0.0000 0.0000 0.0000
# 2 0.5311 63.1440 -0.8813 0.0000 0.0000 0.0000
# 3 7.0918 -0.8813 75.1999 0.0000 0.0000 0.0000
# 4 0.0000 0.0000 0.0000 22.6370 0.0000 0.0000
# 5 0.0000 0.0000 0.0000 0.0000 4.9967 0.0000
# 6 0.0000 0.0000 0.0000 0.0000 0.0000 27.4201
#
#
#
# Elastic Compliance Matrix: (Units=1/GPa)
#
#
# Indices 1 2 3 4 5 6 
#
# 1 0.043685 -0.000425 -0.004125 0.000000 0.000000 0.000000
# 2 -0.000425 0.015844 0.000226 0.000000 0.000000 0.000000
# 3 -0.004125 0.000226 0.013690 0.000000 0.000000 0.000000
# 4 0.000000 0.000000 0.000000 0.044176 0.000000 0.000000
# 5 0.000000 0.000000 0.000000 0.000000 0.200133 0.000000
# 6 0.000000 0.000000 0.000000 0.000000 0.000000 0.036470
#
#
# Mechanical properties :
#
#
# Convention : Reuss Voigt Hill
#
# Bulk Modulus (GPa) = 15.48713 19.48815 17.48764
# Shear Modulus (GPa) = 13.01516 21.35531 17.18523
#
# Velocity S-wave (km/s) = 2.30063 2.94696 2.64362
# Velocity P-wave (km/s) = 3.65450 4.41642 4.05340
#
# Compressibility (1/GPa) = 0.06456974
#
# Stress axis : x y z
#
# Youngs Moduli (GPa) = 22.89136 63.11724 73.04856
#
# Poissons Ratio (x) = 0.02683 0.30130
# Poissons Ratio (y) = 0.00973 -0.01649
# Poissons Ratio (z) = 0.09442 -0.01425
#
# Static dielectric constant tensor:
#      x y z
#    x 2.069850 0.000000 0.000000 
#    y 0.000000 2.002150 0.000000 
#    z 0.000000 0.000000 1.988930 
# 
# From -- ./inp_files/7892.got.cif
#   From: 2010.05.17/outbox.cif.g08.bks.cpg/sg61_4_cif.got.tgz:7892.got - 2010.06.03 15:17:17.
