data_PCOD9459216
_publ_section_title
;
Structure prediction by ZEFSAII (Michael W. Deem and Ramdas Pophale) SiO2 
 PCOD9459216
Probable space group: P B C A
;
_chemical_formula_sum "Si O2"
_cell_formula_units_Z 64
_cell_length_a 29.854919
_cell_length_b 8.619292
_cell_length_c 12.537979
_cell_angle_alpha 90.000000
_cell_angle_beta 90.000000
_cell_angle_gamma 90.000000
_cell_volume 3226.376376
_symmetry_space_group_name_H-M "P B C A"
_symmetry_group_IT_number 61
_symmetry_cell_setting 'orthorhombic'
loop_
_space_group_symop_operation_xyz
x,y,z
1/2-x,-y,1/2+z
1/2+x,1/2-y,-z
-x,1/2+y,1/2-z
-x,-y,-z
1/2+x,y,1/2-z
1/2-x,1/2+y,z
x,1/2-y,1/2+z
loop_
_atom_site_type_symbol
_atom_site_label
_atom_site_fract_x
_atom_site_fract_y
_atom_site_fract_z
Si Si1 0.959328 0.304607 0.011580
Si Si2 0.232370 0.220840 0.550211
Si Si3 0.695614 0.988664 0.572499
Si Si4 0.044912 0.549971 0.755011
Si Si5 0.034240 0.235895 0.854868
Si Si6 0.702475 0.930581 0.823198
Si Si7 0.894806 0.307992 0.825719
Si Si8 0.406652 0.471232 0.900543
O O1 0.923630 0.366955 0.925537
O O2 0.007081 0.306188 0.954630
O O3 0.957123 0.388733 0.123827
O O4 0.942736 0.129238 0.035226
O O5 0.206718 0.341649 0.474369
O O6 0.255785 0.325177 0.641448
O O7 0.271628 0.133760 0.484661
O O8 0.203360 0.085003 0.604189
O O9 0.703856 0.977913 0.699396
O O10 0.643266 0.950641 0.555006
O O11 0.044674 0.365857 0.766829
O O12 0.087360 0.634628 0.700775
O O13 0.000896 0.613254 0.695442
O O14 0.077864 0.147673 0.894490
O O15 0.657545 0.831448 0.842788
O O16 0.906521 0.405973 0.720088
#
# Coordination Sequence:
#
# PCOD9459216 Si02
#       8
#     8   8   8   8   8   8   8   8
#     4  10  19  35  56  78 108 148 185 227 278 330
#     4  10  21  37  62  87 112 153 197 235 296 362
#     4  10  21  39  59  86 119 151 191 244 292 347
#     4  10  21  36  55  79 109 147 189 228 277 332
#     4  11  21  36  54  79 111 146 186 229 273 332
#     4  10  20  38  59  85 119 151 190 243 293 349
#     4   9  20  37  56  80 111 146 183 232 281 333
#     4  10  21  36  55  82 114 144 185 232 282 335
#
# _framework density 19.836496
#
# number of rings (size 3 to 8) (size 9 to 14) (size 15 to 20)
#    0.000    2.000    0.000    4.500    0.000    2.000 
#    0.000   15.000    0.000    0.000    0.000    0.000 
#    0.000    0.000    0.000    0.000    0.000    0.000 
#
# Total GULP energy -357358.791802 kJ/mol
# GULP energy per Si atom -5583.731122 kJ/mol
# Density = 1.979135 g / cm^3
# Si number density = 19.836496 Si / 1000 Ang^3
#
#
#
# Elastic Constant Matrix: (Units=GPa)
#
#
# Indices 1 2 3 4 5 6 
#
# 1 54.7340 20.2748 18.8631 0.0000 0.0000 0.0000
# 2 20.2748 78.5539 5.6349 0.0000 0.0000 0.0000
# 3 18.8631 5.6349 77.1429 0.0000 0.0000 0.0000
# 4 0.0000 0.0000 0.0000 23.7769 0.0000 0.0000
# 5 0.0000 0.0000 0.0000 0.0000 25.2749 0.0000
# 6 0.0000 0.0000 0.0000 0.0000 0.0000 24.7320
#
#
#
# Elastic Compliance Matrix: (Units=1/GPa)
#
#
# Indices 1 2 3 4 5 6 
#
# 1 0.021953 -0.005309 -0.004980 0.000000 0.000000 0.000000
# 2 -0.005309 0.014081 0.000270 0.000000 0.000000 0.000000
# 3 -0.004980 0.000270 0.014161 0.000000 0.000000 0.000000
# 4 0.000000 0.000000 0.000000 0.042058 0.000000 0.000000
# 5 0.000000 0.000000 0.000000 0.000000 0.039565 0.000000
# 6 0.000000 0.000000 0.000000 0.000000 0.000000 0.040434
#
#
# Mechanical properties :
#
#
# Convention : Reuss Voigt Hill
#
# Bulk Modulus (GPa) = 33.16076 33.33071 33.24573
# Shear Modulus (GPa) = 24.71061 25.80061 25.25561
#
# Velocity S-wave (km/s) = 3.53330 3.61038 3.57205
# Velocity P-wave (km/s) = 5.77918 5.84970 5.81455
#
# Compressibility (1/GPa) = 0.03015612
#
# Stress axis : x y z
#
# Youngs Moduli (GPa) = 45.55173 71.01765 70.61635
#
# Poissons Ratio (x) = 0.37702 0.35168
# Poissons Ratio (y) = 0.24183 -0.01904
# Poissons Ratio (z) = 0.22686 -0.01915
#
# Static dielectric constant tensor:
#      x y z
#    x 1.680360 0.000000 0.000000 
#    y 0.000000 1.718740 0.000000 
#    z 0.000000 0.000000 1.694770 
# 
# From -- ./inp_files/6772.got.cif
#   From: 2010.05.17/outbox.cif.g08.bks.cpg/sg61_4_cif.got.tgz:6772.got - 2010.06.03 15:17:17.
