data_PCOD9459620
_publ_section_title
;
Structure prediction by ZEFSAII (Michael W. Deem and Ramdas Pophale) SiO2 
 PCOD9459620
Probable space group: P B C A
;
_chemical_formula_sum "Si O2"
_cell_formula_units_Z 40
_cell_length_a 16.935366
_cell_length_b 8.515372
_cell_length_c 9.696708
_cell_angle_alpha 90.000000
_cell_angle_beta 90.000000
_cell_angle_gamma 90.000000
_cell_volume 1398.371390
_symmetry_space_group_name_H-M "P B C A"
_symmetry_group_IT_number 61
_symmetry_cell_setting 'orthorhombic'
loop_
_space_group_symop_operation_xyz
x,y,z
1/2-x,-y,1/2+z
1/2+x,1/2-y,-z
-x,1/2+y,1/2-z
-x,-y,-z
1/2+x,y,1/2-z
1/2-x,1/2+y,z
x,1/2-y,1/2+z
loop_
_atom_site_type_symbol
_atom_site_label
_atom_site_fract_x
_atom_site_fract_y
_atom_site_fract_z
Si Si1 0.656722 0.730954 0.242767
Si Si2 0.638965 0.349825 0.411413
Si Si3 0.991667 0.176493 0.403613
Si Si4 0.053234 0.001690 0.842714
Si Si5 0.709339 0.459777 0.850802
O O1 0.603437 0.676276 0.375222
O O2 0.610644 0.643618 0.120714
O O3 0.742143 0.657776 0.253026
O O4 0.663927 0.914967 0.257528
O O5 0.558732 0.391847 0.495195
O O6 0.610678 0.389016 0.255228
O O7 0.722114 0.442250 0.431118
O O8 0.658191 0.164962 0.436057
O O9 0.007439 0.363407 0.421062
O O10 0.008891 0.091505 0.256136
#
# Coordination Sequence:
#
# PCOD9459620 Si02
#       5
#     8   8   8   8   8
#     4   8  19  34  57  83 114 154 187 239 287 342
#     4  10  20  39  62  83 119 156 189 249 294 346
#     4  10  21  39  60  89 113 152 206 240 291 340
#     4   9  21  36  57  85 115 148 200 246 285 350
#     4   9  18  36  59  86 117 153 195 229 304 361
#
# _framework density 28.604703000000001
#
# number of rings (size 3 to 8) (size 9 to 14) (size 15 to 20)
#    1.200    1.600    0.000    0.600    2.800    0.800 
#    0.000    8.000    0.000    0.000    0.000    0.000 
#    0.000    0.000    0.000    0.000    0.000    0.000 
#
# Total GULP energy -222778.761966 kJ/mol
# GULP energy per Si atom -5569.469049 kJ/mol
# Density = 2.853960 g / cm^3
# Si number density = 28.604703 Si / 1000 Ang^3
#
#
#
# Elastic Constant Matrix: (Units=GPa)
#
#
# Indices 1 2 3 4 5 6 
#
# 1 137.1449 59.0514 15.3753 0.0000 0.0000 0.0000
# 2 59.0514 135.2386 -2.2803 0.0000 0.0000 0.0000
# 3 15.3753 -2.2803 37.3753 0.0000 0.0000 0.0000
# 4 0.0000 0.0000 0.0000 32.2201 0.0000 0.0000
# 5 0.0000 0.0000 0.0000 0.0000 40.4822 0.0000
# 6 0.0000 0.0000 0.0000 0.0000 0.0000 51.4702
#
#
#
# Elastic Compliance Matrix: (Units=1/GPa)
#
#
# Indices 1 2 3 4 5 6 
#
# 1 0.009599 -0.004262 -0.004209 0.000000 0.000000 0.000000
# 2 -0.004262 0.009295 0.002320 0.000000 0.000000 0.000000
# 3 -0.004209 0.002320 0.028629 0.000000 0.000000 0.000000
# 4 0.000000 0.000000 0.000000 0.031037 0.000000 0.000000
# 5 0.000000 0.000000 0.000000 0.000000 0.024702 0.000000
# 6 0.000000 0.000000 0.000000 0.000000 0.000000 0.019429
#
#
# Mechanical properties :
#
#
# Convention : Reuss Voigt Hill
#
# Bulk Modulus (GPa) = 28.39225 50.45016 39.42120
# Shear Modulus (GPa) = 34.07615 40.67533 37.37574
#
# Velocity S-wave (km/s) = 3.45523 3.77501 3.61865
# Velocity P-wave (km/s) = 5.08581 6.05609 5.59203
#
# Compressibility (1/GPa) = 0.03522088
#
# Stress axis : x y z
#
# Youngs Moduli (GPa) = 104.18214 107.59034 34.93013
#
# Poissons Ratio (x) = 0.45857 0.14701
# Poissons Ratio (y) = 0.44404 -0.08105
# Poissons Ratio (z) = 0.43847 -0.24966
#
# Static dielectric constant tensor:
#      x y z
#    x 2.249680 0.000000 0.000000 
#    y 0.000000 2.383530 0.000000 
#    z 0.000000 0.000000 2.414340 
# 
# From -- ./inp_files/2740.got.cif
#   From: 2010.05.17/outbox.cif.g08.bks.cpg/sg61_2_cif.got.tgz:2740.got - 2010.06.03 15:17:17.
