data_PCOD9459292
_publ_section_title
;
Structure prediction by ZEFSAII (Michael W. Deem and Ramdas Pophale) SiO2 
 PCOD9459292
Probable space group: P B C A
;
_chemical_formula_sum "Si O2"
_cell_formula_units_Z 64
_cell_length_a 7.866665
_cell_length_b 16.670495
_cell_length_c 22.671351
_cell_angle_alpha 90.000000
_cell_angle_beta 90.000000
_cell_angle_gamma 90.000000
_cell_volume 2973.148166
_symmetry_space_group_name_H-M "P B C A"
_symmetry_group_IT_number 61
_symmetry_cell_setting 'orthorhombic'
loop_
_space_group_symop_operation_xyz
x,y,z
1/2-x,-y,1/2+z
1/2+x,1/2-y,-z
-x,1/2+y,1/2-z
-x,-y,-z
1/2+x,y,1/2-z
1/2-x,1/2+y,z
x,1/2-y,1/2+z
loop_
_atom_site_type_symbol
_atom_site_label
_atom_site_fract_x
_atom_site_fract_y
_atom_site_fract_z
Si Si1 0.835745 0.046051 0.671417
Si Si2 0.535328 0.532067 0.241562
Si Si3 0.554978 0.339740 0.042119
Si Si4 0.631413 0.800412 0.112575
Si Si5 0.271977 0.063960 0.154067
Si Si6 0.803932 0.594198 0.927155
Si Si7 0.527829 0.152168 0.412884
Si Si8 0.729418 0.986009 0.551345
O O1 0.792490 0.137878 0.659983
O O2 0.693033 0.992864 0.702345
O O3 0.853120 0.005510 0.606322
O O4 0.981092 0.045697 0.720539
O O5 0.581182 0.585640 0.299055
O O6 0.391271 0.559298 0.197298
O O7 0.704383 0.288474 0.071214
O O8 0.373251 0.354951 0.073135
O O9 0.638795 0.429396 0.036314
O O10 0.524585 0.307037 0.976864
O O11 0.467847 0.850604 0.087032
O O12 0.559694 0.714685 0.130910
O O13 0.287637 0.978820 0.120063
O O14 0.216959 0.128811 0.106082
O O15 0.808495 0.554016 0.992881
O O16 0.414859 0.073211 0.423411
#
# Coordination Sequence:
#
# PCOD9459292 Si02
#       8
#     8   8   8   8   8   8   8   8
#     4  10  20  39  60  93 115 159 212 255 302 372
#     4  10  21  35  66  86 113 159 216 259 291 366
#     4  10  21  38  61  89 125 171 197 253 309 382
#     4  11  25  37  59  95 129 160 211 248 317 384
#     4  11  19  39  63  86 118 158 210 256 303 362
#     4  11  20  39  65  90 123 166 204 253 311 381
#     4  11  21  38  59  91 131 163 195 266 318 365
#     4  10  19  37  65  89 123 160 204 256 312 367
#
# _framework density 21.526004
#
# number of rings (size 3 to 8) (size 9 to 14) (size 15 to 20)
#    0.000    1.500    5.000    1.500    3.500    3.000 
#    0.000    2.500    0.000    0.000    0.000    0.000 
#    0.000    0.000    0.000    0.000    0.000    0.000 
#
# Total GULP energy -356342.027663 kJ/mol
# GULP energy per Si atom -5567.844182 kJ/mol
# Density = 2.147701 g / cm^3
# Si number density = 21.526004 Si / 1000 Ang^3
#
#
#
# Elastic Constant Matrix: (Units=GPa)
#
#
# Indices 1 2 3 4 5 6 
#
# 1 82.8965 -7.4428 24.5860 0.0000 0.0000 0.0000
# 2 -7.4428 31.5644 -5.8429 0.0000 0.0000 0.0000
# 3 24.5860 -5.8429 73.6219 0.0000 0.0000 0.0000
# 4 0.0000 0.0000 0.0000 3.0762 0.0000 0.0000
# 5 0.0000 0.0000 0.0000 0.0000 22.0739 0.0000
# 6 0.0000 0.0000 0.0000 0.0000 0.0000 16.3463
#
#
#
# Elastic Compliance Matrix: (Units=1/GPa)
#
#
# Indices 1 2 3 4 5 6 
#
# 1 0.013566 0.002395 -0.004340 0.000000 0.000000 0.000000
# 2 0.002395 0.032577 0.001786 0.000000 0.000000 0.000000
# 3 -0.004340 0.001786 0.015174 0.000000 0.000000 0.000000
# 4 0.000000 0.000000 0.000000 0.325077 0.000000 0.000000
# 5 0.000000 0.000000 0.000000 0.000000 0.045302 0.000000
# 6 0.000000 0.000000 0.000000 0.000000 0.000000 0.061176
#
#
# Mechanical properties :
#
#
# Convention : Reuss Voigt Hill
#
# Bulk Modulus (GPa) = 16.39410 23.40927 19.90168
# Shear Modulus (GPa) = 9.73666 20.08477 14.91072
#
# Velocity S-wave (km/s) = 2.12909 3.05790 2.63474
# Velocity P-wave (km/s) = 3.69818 4.83385 4.30364
#
# Compressibility (1/GPa) = 0.06099756
#
# Stress axis : x y z
#
# Youngs Moduli (GPa) = 73.71633 30.69685 65.90226
#
# Poissons Ratio (x) = -0.07353 0.28602
# Poissons Ratio (y) = -0.17657 -0.11767
# Poissons Ratio (z) = 0.31994 -0.05481
#
# Static dielectric constant tensor:
#      x y z
#    x 1.917410 0.000000 0.000000 
#    y 0.000000 1.793920 0.000000 
#    z 0.000000 0.000000 1.859570 
# 
# From -- ./inp_files/10905.got.cif
#   From: 2010.05.17/outbox.cif.g08.bks.cpg/sg61_6_cif.got.tgz:10905.got - 2010.06.03 15:17:17.
