data_PCOD9459436
_publ_section_title
;
Structure prediction by ZEFSAII (Michael W. Deem and Ramdas Pophale) SiO2 
 PCOD9459436
Probable space group: P B C A
;
_chemical_formula_sum "Si O2"
_cell_formula_units_Z 64
_cell_length_a 26.919136
_cell_length_b 12.456220
_cell_length_c 8.177028
_cell_angle_alpha 90.000000
_cell_angle_beta 90.000000
_cell_angle_gamma 90.000000
_cell_volume 2741.844821
_symmetry_space_group_name_H-M "P B C A"
_symmetry_group_IT_number 61
_symmetry_cell_setting 'orthorhombic'
loop_
_space_group_symop_operation_xyz
x,y,z
1/2-x,-y,1/2+z
1/2+x,1/2-y,-z
-x,1/2+y,1/2-z
-x,-y,-z
1/2+x,y,1/2-z
1/2-x,1/2+y,z
x,1/2-y,1/2+z
loop_
_atom_site_type_symbol
_atom_site_label
_atom_site_fract_x
_atom_site_fract_y
_atom_site_fract_z
Si Si1 0.278247 0.088420 0.734802
Si Si2 0.888784 0.815329 0.690475
Si Si3 0.330191 0.189909 0.245453
Si Si4 0.260195 0.889117 0.590085
Si Si5 0.679321 0.326447 0.410775
Si Si6 0.958699 0.823106 0.958887
Si Si7 0.401008 0.308001 0.485913
Si Si8 0.527530 0.823641 0.274388
O O1 0.311349 0.190990 0.693446
O O2 0.222255 0.101780 0.665167
O O3 0.296684 0.983213 0.643387
O O4 0.271186 0.085319 0.928645
O O5 0.860501 0.715372 0.778219
O O6 0.848489 0.869251 0.571230
O O7 0.918681 0.875674 0.835129
O O8 0.928165 0.763684 0.565212
O O9 0.276956 0.131339 0.245029
O O10 0.367091 0.219569 0.391815
O O11 0.363496 0.132979 0.107604
O O12 0.290807 0.783044 0.547125
O O13 0.995043 0.756482 0.838710
O O14 0.990728 0.884178 0.099170
O O15 0.433438 0.374222 0.354695
O O16 0.438275 0.247074 0.606594
#
# Coordination Sequence:
#
# PCOD9459436 Si02
#       8
#     8   8   8   8   8   8   8   8
#     4  11  24  36  53  75 107 147 183 223 264 310
#     4   9  16  28  50  72 106 144 166 219 263 308
#     4  10  20  36  52  75 110 143 182 217 264 308
#     4  11  24  36  53  75 107 147 183 221 266 310
#     4  10  20  36  52  75 110 143 182 217 264 308
#     4   8  14  25  44  76 110 132 164 216 265 314
#     4   9  16  28  50  72 106 144 166 219 263 308
#     4   8  14  25  44  76 110 132 164 216 265 314
#
# _framework density 23.341949
#
# number of rings (size 3 to 8) (size 9 to 14) (size 15 to 20)
#    0.000    2.500    2.500    0.000    3.500    0.000 
#    0.000    0.000    0.000    0.000    0.000    0.000 
#    0.000  504.000    0.000    0.000    0.000    0.000 
#
# Total GULP energy -356350.654505 kJ/mol
# GULP energy per Si atom -5567.978977 kJ/mol
# Density = 2.328882 g / cm^3
# Si number density = 23.341949 Si / 1000 Ang^3
#
#
#
# Elastic Constant Matrix: (Units=GPa)
#
#
# Indices 1 2 3 4 5 6 
#
# 1 99.1348 -8.2661 52.6579 0.0000 0.0000 0.0000
# 2 -8.2661 28.1134 -0.8176 0.0000 0.0000 0.0000
# 3 52.6579 -0.8176 97.2550 0.0000 0.0000 0.0000
# 4 0.0000 0.0000 0.0000 25.7960 0.0000 0.0000
# 5 0.0000 0.0000 0.0000 0.0000 78.6624 0.0000
# 6 0.0000 0.0000 0.0000 0.0000 0.0000 1.1554
#
#
#
# Elastic Compliance Matrix: (Units=1/GPa)
#
#
# Indices 1 2 3 4 5 6 
#
# 1 0.014610 0.004067 -0.007876 0.000000 0.000000 0.000000
# 2 0.004067 0.036711 -0.001893 0.000000 0.000000 0.000000
# 3 -0.007876 -0.001893 0.014531 0.000000 0.000000 0.000000
# 4 0.000000 0.000000 0.000000 0.038766 0.000000 0.000000
# 5 0.000000 0.000000 0.000000 0.000000 0.012713 0.000000
# 6 0.000000 0.000000 0.000000 0.000000 0.000000 0.865519
#
#
# Mechanical properties :
#
#
# Convention : Reuss Voigt Hill
#
# Bulk Modulus (GPa) = 18.36676 34.62795 26.49735
# Shear Modulus (GPa) = 4.93874 33.18469 19.06172
#
# Velocity S-wave (km/s) = 1.45616 3.77460 2.86077
# Velocity P-wave (km/s) = 3.27305 5.81929 4.72107
#
# Compressibility (1/GPa) = 0.05444619
#
# Stress axis : x y z
#
# Youngs Moduli (GPa) = 68.44596 27.23984 68.81892
#
# Poissons Ratio (x) = -0.11078 0.54204
# Poissons Ratio (y) = -0.27835 0.13029
# Poissons Ratio (z) = 0.53910 0.05157
#
# Static dielectric constant tensor:
#      x y z
#    x 1.960810 0.000000 0.000000 
#    y 0.000000 1.797530 0.000000 
#    z 0.000000 0.000000 1.929340 
# 
# From -- ./inp_files/4654.got.cif
#   From: 2010.05.17/outbox.cif.g08.bks.cpg/sg61_3_cif.got.tgz:4654.got - 2010.06.03 15:17:17.
