data_PCOD9459165
_publ_section_title
;
Structure prediction by ZEFSAII (Michael W. Deem and Ramdas Pophale) SiO2 
 PCOD9459165
Probable space group: P B C A
;
_chemical_formula_sum "Si O2"
_cell_formula_units_Z 48
_cell_length_a 22.003630
_cell_length_b 19.548338
_cell_length_c 4.981987
_cell_angle_alpha 90.000000
_cell_angle_beta 90.000000
_cell_angle_gamma 90.000000
_cell_volume 2142.923971
_symmetry_space_group_name_H-M "P B C A"
_symmetry_group_IT_number 61
_symmetry_cell_setting 'orthorhombic'
loop_
_space_group_symop_operation_xyz
x,y,z
1/2-x,-y,1/2+z
1/2+x,1/2-y,-z
-x,1/2+y,1/2-z
-x,-y,-z
1/2+x,y,1/2-z
1/2-x,1/2+y,z
x,1/2-y,1/2+z
loop_
_atom_site_type_symbol
_atom_site_label
_atom_site_fract_x
_atom_site_fract_y
_atom_site_fract_z
Si Si1 0.143614 0.792794 0.199315
Si Si2 0.931731 0.057602 0.214149
Si Si3 0.478120 0.131844 0.785027
Si Si4 0.806024 0.084722 0.469833
Si Si5 0.103045 0.405861 0.303969
Si Si6 0.317486 0.929971 0.821067
O O1 0.157352 0.730414 0.400326
O O2 0.071889 0.809658 0.237534
O O3 0.179745 0.857798 0.311182
O O4 0.971811 0.102777 0.415359
O O5 0.862994 0.081698 0.267602
O O6 0.929091 0.977692 0.278755
O O7 0.953324 0.072866 0.915981
O O8 0.547737 0.147191 0.713147
O O9 0.744580 0.096492 0.307734
O O10 0.805635 0.010021 0.611312
O O11 0.131114 0.419127 0.595171
O O12 0.157447 0.395770 0.092723
#
# Coordination Sequence:
#
# PCOD9459165 Si02
#       6
#     8   8   8   8   8   8
#     4  11  24  40  62  86 114 159 207 257 303 354
#     4  10  19  32  56  84 115 152 185 239 299 351
#     4  11  21  36  56  81 116 150 194 245 293 352
#     4  10  22  40  60  91 126 157 208 255 311 376
#     4  11  21  34  54  87 119 151 188 229 302 378
#     4  11  23  36  61  89 122 161 190 249 317 369
#
# _framework density 22.399303
#
# number of rings (size 3 to 8) (size 9 to 14) (size 15 to 20)
#    0.000    1.333    0.000    9.000    0.000    6.667 
#    0.000    0.000    0.000    6.000    0.000    0.000 
#    0.000    0.000    0.000    0.000    0.000    0.000 
#
# Total GULP energy -268603.586203 kJ/mol
# GULP energy per Si atom -5595.908046 kJ/mol
# Density = 2.234832 g / cm^3
# Si number density = 22.399303 Si / 1000 Ang^3
#
#
#
# Elastic Constant Matrix: (Units=GPa)
#
#
# Indices 1 2 3 4 5 6 
#
# 1 106.0213 21.1911 18.0336 0.0000 0.0000 0.0000
# 2 21.1911 19.7579 4.6469 0.0000 0.0000 0.0000
# 3 18.0336 4.6469 80.3108 0.0000 0.0000 0.0000
# 4 0.0000 0.0000 0.0000 28.7525 0.0000 0.0000
# 5 0.0000 0.0000 0.0000 0.0000 30.7070 0.0000
# 6 0.0000 0.0000 0.0000 0.0000 0.0000 20.8351
#
#
#
# Elastic Compliance Matrix: (Units=1/GPa)
#
#
# Indices 1 2 3 4 5 6 
#
# 1 0.012324 -0.012740 -0.002030 0.000000 0.000000 0.000000
# 2 -0.012740 0.064482 -0.000870 0.000000 0.000000 0.000000
# 3 -0.002030 -0.000870 0.012958 0.000000 0.000000 0.000000
# 4 0.000000 0.000000 0.000000 0.034780 0.000000 0.000000
# 5 0.000000 0.000000 0.000000 0.000000 0.032566 0.000000
# 6 0.000000 0.000000 0.000000 0.000000 0.000000 0.047996
#
#
# Mechanical properties :
#
#
# Convention : Reuss Voigt Hill
#
# Bulk Modulus (GPa) = 17.09918 32.64812 24.87365
# Shear Modulus (GPa) = 19.54039 26.87349 23.20694
#
# Velocity S-wave (km/s) = 2.95679 3.46749 3.22227
# Velocity P-wave (km/s) = 4.39399 5.53521 4.99728
#
# Compressibility (1/GPa) = 0.05848232
#
# Stress axis : x y z
#
# Youngs Moduli (GPa) = 81.14336 15.50822 77.17342
#
# Poissons Ratio (x) = 0.19758 0.15667
# Poissons Ratio (y) = 1.03379 0.06715
# Poissons Ratio (z) = 0.16473 0.01349
#
# Static dielectric constant tensor:
#      x y z
#    x 1.867170 0.000000 0.000000 
#    y 0.000000 1.862360 0.000000 
#    z 0.000000 0.000000 1.811780 
# 
# From -- ./inp_files/971.got.cif
#   From: 2010.05.17/outbox.cif.g08.bks.cpg/sg61_1_cif.got.tgz:971.got - 2010.06.03 15:17:17.
