data_PCOD9459170
_publ_section_title
;
Structure prediction by ZEFSAII (Michael W. Deem and Ramdas Pophale) SiO2 
 PCOD9459170
Probable space group: P B C A
;
_chemical_formula_sum "Si O2"
_cell_formula_units_Z 52
_cell_length_a 6.804495
_cell_length_b 7.325493
_cell_length_c 36.628989
_cell_angle_alpha 90.000000
_cell_angle_beta 90.000000
_cell_angle_gamma 90.000000
_cell_volume 1825.818860
_symmetry_space_group_name_H-M "P B C A"
_symmetry_group_IT_number 61
_symmetry_cell_setting 'orthorhombic'
loop_
_space_group_symop_operation_xyz
x,y,z
1/2-x,-y,1/2+z
1/2+x,1/2-y,-z
-x,1/2+y,1/2-z
-x,-y,-z
1/2+x,y,1/2-z
1/2-x,1/2+y,z
x,1/2-y,1/2+z
loop_
_atom_site_type_symbol
_atom_site_label
_atom_site_fract_x
_atom_site_fract_y
_atom_site_fract_z
Si Si1 0.000000 0.500000 0.000000
Si Si2 0.435610 0.160688 0.794674
Si Si3 0.419474 0.151149 0.641501
Si Si4 0.344627 0.457347 0.216691
Si Si5 0.533744 0.734391 0.628882
Si Si6 0.529109 0.749340 0.935568
Si Si7 0.000791 0.319524 0.552162
O O1 0.064941 0.402188 0.961157
O O2 0.051176 0.705744 0.983582
O O3 0.619714 0.025085 0.795110
O O4 0.533669 0.357339 0.786464
O O5 0.322294 0.110448 0.758182
O O6 0.348878 0.165749 0.835509
O O7 0.435398 0.171054 0.685107
O O8 0.184661 0.150916 0.633264
O O9 0.500901 0.273935 0.608387
O O10 0.497847 0.949349 0.634087
O O11 0.600480 0.726834 0.587397
O O12 0.764153 0.781893 0.942338
O O13 0.487055 0.539347 0.947235
#
# Coordination Sequence:
#
# PCOD9459170 Si02
#       7
#     4   8   8   8   8   8   8
#     4  12  22  32  56  84 104 144 178 212 296 332
#     4  10  19  33  52  82 111 145 183 227 274 325
#     4   8  16  29  50  75 104 131 172 224 276 321
#     4  10  19  33  52  82 111 145 183 227 274 325
#     4   8  16  29  50  75 104 131 172 224 276 321
#     4  10  19  35  54  81 110 139 179 233 276 327
#     4  10  19  35  54  81 110 139 179 233 276 327
#
# _framework density 28.480371000000002
#
# number of rings (size 3 to 8) (size 9 to 14) (size 15 to 20)
#    0.000    2.462    1.538    1.385    2.154    1.231 
#    0.000    0.000    0.000    1.846    8.000    0.000 
#    0.000    0.000    0.000    0.000    0.000    0.000 
#
# Total GULP energy -289990.441237 kJ/mol
# GULP energy per Si atom -5576.739255 kJ/mol
# Density = 2.841555 g / cm^3
# Si number density = 28.480371 Si / 1000 Ang^3
#
#
#
# Elastic Constant Matrix: (Units=GPa)
#
#
# Indices 1 2 3 4 5 6 
#
# 1 70.5581 24.9526 -25.1064 0.0000 0.0000 0.0000
# 2 24.9526 176.5241 101.9832 0.0000 0.0000 0.0000
# 3 -25.1064 101.9832 196.6493 0.0000 0.0000 0.0000
# 4 0.0000 0.0000 0.0000 33.0945 0.0000 0.0000
# 5 0.0000 0.0000 0.0000 0.0000 47.7677 0.0000
# 6 0.0000 0.0000 0.0000 0.0000 0.0000 39.7741
#
#
#
# Elastic Compliance Matrix: (Units=1/GPa)
#
#
# Indices 1 2 3 4 5 6 
#
# 1 0.017957 -0.005515 0.005153 0.000000 0.000000 0.000000
# 2 -0.005515 0.009782 -0.005777 0.000000 0.000000 0.000000
# 3 0.005153 -0.005777 0.008739 0.000000 0.000000 0.000000
# 4 0.000000 0.000000 0.000000 0.030217 0.000000 0.000000
# 5 0.000000 0.000000 0.000000 0.000000 0.020935 0.000000
# 6 0.000000 0.000000 0.000000 0.000000 0.000000 0.025142
#
#
# Mechanical properties :
#
#
# Convention : Reuss Voigt Hill
#
# Bulk Modulus (GPa) = 41.32461 71.93223 56.62842
# Shear Modulus (GPa) = 37.56107 46.92074 42.24090
#
# Velocity S-wave (km/s) = 3.63552 4.06332 3.85536
# Velocity P-wave (km/s) = 5.67134 6.87936 6.30435
#
# Compressibility (1/GPa) = 0.02419866
#
# Stress axis : x y z
#
# Youngs Moduli (GPa) = 55.68987 102.22643 114.42782
#
# Poissons Ratio (x) = 0.56379 -0.58961
# Poissons Ratio (y) = 0.30714 0.66107
# Poissons Ratio (z) = -0.28695 0.59058
#
# Static dielectric constant tensor:
#      x y z
#    x 2.361710 0.000000 0.000000 
#    y 0.000000 2.113820 0.000000 
#    z 0.000000 0.000000 2.314530 
# 
# From -- ./inp_files/4591.got.cif
#   From: 2010.05.17/outbox.cif.g08.bks.cpg/sg61_3_cif.got.tgz:4591.got - 2010.06.03 15:17:17.
