data_PCOD9459112
_publ_section_title
;
Structure prediction by ZEFSAII (Michael W. Deem and Ramdas Pophale) SiO2 
 PCOD9459112
Probable space group: P B C A
;
_chemical_formula_sum "Si O2"
_cell_formula_units_Z 48
_cell_length_a 12.488647
_cell_length_b 8.700363
_cell_length_c 17.401420
_cell_angle_alpha 90.000000
_cell_angle_beta 90.000000
_cell_angle_gamma 90.000000
_cell_volume 1890.764555
_symmetry_space_group_name_H-M "P B C A"
_symmetry_group_IT_number 61
_symmetry_cell_setting 'orthorhombic'
loop_
_space_group_symop_operation_xyz
x,y,z
1/2-x,-y,1/2+z
1/2+x,1/2-y,-z
-x,1/2+y,1/2-z
-x,-y,-z
1/2+x,y,1/2-z
1/2-x,1/2+y,z
x,1/2-y,1/2+z
loop_
_atom_site_type_symbol
_atom_site_label
_atom_site_fract_x
_atom_site_fract_y
_atom_site_fract_z
Si Si1 0.385724 0.568214 0.965507
Si Si2 0.936250 0.904538 0.565891
Si Si3 0.728499 0.937870 0.403254
Si Si4 0.363322 0.169360 0.165337
Si Si5 0.504588 0.056073 0.334813
Si Si6 0.925867 0.129292 0.693703
O O1 0.381083 0.752923 0.969112
O O2 0.402057 0.513066 0.878188
O O3 0.500000 0.500000 0.000000
O O4 0.286030 0.490819 0.009104
O O5 0.023696 0.822503 0.622180
O O6 0.879878 0.026256 0.624249
O O7 0.000000 0.000000 0.500000
O O8 0.820819 0.999174 0.348258
O O9 0.617111 0.000560 0.367961
O O10 0.718560 0.757875 0.391332
O O11 0.359647 0.259451 0.246535
O O12 0.499274 0.238543 0.342140
O O13 0.511485 0.989191 0.248980
#
# Coordination Sequence:
#
# PCOD9459112 Si02
#       6
#     8   8   8   8   8   8
#     4  10  18  39  61  98 129 171 225 284 338 416
#     4  12  23  38  70  98 131 177 240 286 339 420
#     4  10  23  38  64  92 133 169 216 281 352 410
#     4  11  24  42  64  99 132 179 228 278 359 413
#     4  10  19  37  65  92 125 173 225 276 331 413
#     4  11  21  39  66  97 129 176 234 276 335 417
#
# _framework density 25.386555000000001
#
# number of rings (size 3 to 8) (size 9 to 14) (size 15 to 20)
#    0.000    1.333    6.667    2.000    4.667    0.000 
#    0.000    0.000   18.333    0.000    0.000    0.000 
#    0.000    0.000    0.000    0.000    0.000    0.000 
#
# Total GULP energy -267675.810684 kJ/mol
# GULP energy per Si atom -5576.579389 kJ/mol
# Density = 2.532877 g / cm^3
# Si number density = 25.386555 Si / 1000 Ang^3
#
#
#
# Elastic Constant Matrix: (Units=GPa)
#
#
# Indices 1 2 3 4 5 6 
#
# 1 41.9198 8.2198 18.3146 0.0000 0.0000 0.0000
# 2 8.2198 136.3104 22.3110 0.0000 0.0000 0.0000
# 3 18.3146 22.3110 133.5800 0.0000 0.0000 0.0000
# 4 0.0000 0.0000 0.0000 41.3811 0.0000 0.0000
# 5 0.0000 0.0000 0.0000 0.0000 38.2389 0.0000
# 6 0.0000 0.0000 0.0000 0.0000 0.0000 38.1517
#
#
#
# Elastic Compliance Matrix: (Units=1/GPa)
#
#
# Indices 1 2 3 4 5 6 
#
# 1 0.025505 -0.000993 -0.003331 0.000000 0.000000 0.000000
# 2 -0.000993 0.007581 -0.001130 0.000000 0.000000 0.000000
# 3 -0.003331 -0.001130 0.008132 0.000000 0.000000 0.000000
# 4 0.000000 0.000000 0.000000 0.024166 0.000000 0.000000
# 5 0.000000 0.000000 0.000000 0.000000 0.026151 0.000000
# 6 0.000000 0.000000 0.000000 0.000000 0.000000 0.026211
#
#
# Mechanical properties :
#
#
# Convention : Reuss Voigt Hill
#
# Bulk Modulus (GPa) = 32.99259 45.50009 39.24634
# Shear Modulus (GPa) = 36.03420 41.08533 38.55977
#
# Velocity S-wave (km/s) = 3.77161 4.02729 3.90154
# Velocity P-wave (km/s) = 5.65606 6.29183 5.98240
#
# Compressibility (1/GPa) = 0.03030983
#
# Stress axis : x y z
#
# Youngs Moduli (GPa) = 39.20786 131.90807 122.97685
#
# Poissons Ratio (x) = 0.13096 0.40965
# Poissons Ratio (y) = 0.03892 0.13898
# Poissons Ratio (z) = 0.13060 0.14907
#
# Static dielectric constant tensor:
#      x y z
#    x 2.026560 0.000000 0.000000 
#    y 0.000000 2.089300 0.000000 
#    z 0.000000 0.000000 2.296640 
# 
# From -- ./inp_files/9447.got.cif
#   From: 2010.05.17/outbox.cif.g08.bks.cpg/sg61_5_cif.got.tgz:9447.got - 2010.06.03 15:17:17.
