data_PCOD9459467
_publ_section_title
;
Structure prediction by ZEFSAII (Michael W. Deem and Ramdas Pophale) SiO2 
 PCOD9459467
Probable space group: P B C A
;
_chemical_formula_sum "Si O2"
_cell_formula_units_Z 48
_cell_length_a 10.247122
_cell_length_b 16.740064
_cell_length_c 13.326779
_cell_angle_alpha 90.000000
_cell_angle_beta 90.000000
_cell_angle_gamma 90.000000
_cell_volume 2286.042061
_symmetry_space_group_name_H-M "P B C A"
_symmetry_group_IT_number 61
_symmetry_cell_setting 'orthorhombic'
loop_
_space_group_symop_operation_xyz
x,y,z
1/2-x,-y,1/2+z
1/2+x,1/2-y,-z
-x,1/2+y,1/2-z
-x,-y,-z
1/2+x,y,1/2-z
1/2-x,1/2+y,z
x,1/2-y,1/2+z
loop_
_atom_site_type_symbol
_atom_site_label
_atom_site_fract_x
_atom_site_fract_y
_atom_site_fract_z
Si Si1 0.317607 0.005231 0.543741
Si Si2 0.691696 0.349544 0.542832
Si Si3 0.325654 0.225695 0.628883
Si Si4 0.721079 0.687059 0.651206
Si Si5 0.470952 0.889727 0.403696
Si Si6 0.606239 0.613621 0.450698
O O1 0.399273 0.932610 0.496457
O O2 0.177691 0.969589 0.572523
O O3 0.287002 0.073537 0.460656
O O4 0.411897 0.049191 0.623251
O O5 0.705002 0.314155 0.429239
O O6 0.737610 0.274921 0.610118
O O7 0.547374 0.380105 0.566334
O O8 0.344224 0.199071 0.742216
O O9 0.453057 0.191878 0.570387
O O10 0.323863 0.319773 0.617641
O O11 0.639488 0.641884 0.564869
O O12 0.853273 0.635506 0.667290
#
# Coordination Sequence:
#
# PCOD9459467 Si02
#       6
#     8   8   8   8   8   8
#     4   9  19  36  62  84 119 153 188 238 300 351
#     4  10  20  36  60  88 116 154 198 244 294 348
#     4  10  21  36  60  87 113 155 201 246 291 344
#     4  10  21  36  60  87 113 155 201 246 291 344
#     4   9  18  38  58  81 112 152 190 232 288 355
#     4  10  20  36  60  88 116 154 198 244 294 348
#
# _framework density 20.996988999999999
#
# number of rings (size 3 to 8) (size 9 to 14) (size 15 to 20)
#    0.000    2.333    1.667    0.500    2.333    0.000 
#    0.000    6.667   14.667    0.000    0.000    0.000 
#    0.000    0.000    0.000    0.000    0.000    0.000 
#
# Total GULP energy -267215.153236 kJ/mol
# GULP energy per Si atom -5566.982359 kJ/mol
# Density = 2.094920 g / cm^3
# Si number density = 20.996989 Si / 1000 Ang^3
#
#
#
# Elastic Constant Matrix: (Units=GPa)
#
#
# Indices 1 2 3 4 5 6 
#
# 1 74.4920 14.5046 -0.6015 0.0000 0.0000 0.0000
# 2 14.5046 79.0871 7.9354 0.0000 0.0000 0.0000
# 3 -0.6015 7.9354 52.9095 0.0000 0.0000 0.0000
# 4 0.0000 0.0000 0.0000 8.0675 0.0000 0.0000
# 5 0.0000 0.0000 0.0000 0.0000 9.7581 0.0000
# 6 0.0000 0.0000 0.0000 0.0000 0.0000 34.4688
#
#
#
# Elastic Compliance Matrix: (Units=1/GPa)
#
#
# Indices 1 2 3 4 5 6 
#
# 1 0.013937 -0.002611 0.000550 0.000000 0.000000 0.000000
# 2 -0.002611 0.013327 -0.002028 0.000000 0.000000 0.000000
# 3 0.000550 -0.002028 0.019211 0.000000 0.000000 0.000000
# 4 0.000000 0.000000 0.000000 0.123954 0.000000 0.000000
# 5 0.000000 0.000000 0.000000 0.000000 0.102479 0.000000
# 6 0.000000 0.000000 0.000000 0.000000 0.000000 0.029012
#
#
# Mechanical properties :
#
#
# Convention : Reuss Voigt Hill
#
# Bulk Modulus (GPa) = 26.11286 27.79618 26.95452
# Shear Modulus (GPa) = 15.48641 22.76888 19.12764
#
# Velocity S-wave (km/s) = 2.71874 3.29658 3.02150
# Velocity P-wave (km/s) = 4.72429 5.26847 5.00378
#
# Compressibility (1/GPa) = 0.03829531
#
# Stress axis : x y z
#
# Youngs Moduli (GPa) = 71.75070 75.03722 52.05438
#
# Poissons Ratio (x) = 0.19594 -0.02863
# Poissons Ratio (y) = 0.18736 0.10559
# Poissons Ratio (z) = -0.03947 0.15221
#
# Static dielectric constant tensor:
#      x y z
#    x 1.838130 0.000000 0.000000 
#    y 0.000000 1.793050 0.000000 
#    z 0.000000 0.000000 1.724210 
# 
# From -- ./inp_files/7556.got.cif
#   From: 2010.05.17/outbox.cif.g08.bks.cpg/sg61_4_cif.got.tgz:7556.got - 2010.06.03 15:17:17.
