data_PCOD9459308
_publ_section_title
;
Structure prediction by ZEFSAII (Michael W. Deem and Ramdas Pophale) SiO2 
 PCOD9459308
Probable space group: P B C A
;
_chemical_formula_sum "Si O2"
_cell_formula_units_Z 64
_cell_length_a 24.025811
_cell_length_b 14.156368
_cell_length_c 7.921064
_cell_angle_alpha 90.000000
_cell_angle_beta 90.000000
_cell_angle_gamma 90.000000
_cell_volume 2694.098204
_symmetry_space_group_name_H-M "P B C A"
_symmetry_group_IT_number 61
_symmetry_cell_setting 'orthorhombic'
loop_
_space_group_symop_operation_xyz
x,y,z
1/2-x,-y,1/2+z
1/2+x,1/2-y,-z
-x,1/2+y,1/2-z
-x,-y,-z
1/2+x,y,1/2-z
1/2-x,1/2+y,z
x,1/2-y,1/2+z
loop_
_atom_site_type_symbol
_atom_site_label
_atom_site_fract_x
_atom_site_fract_y
_atom_site_fract_z
Si Si1 0.370604 0.600032 0.218026
Si Si2 0.998690 0.850088 0.405317
Si Si3 0.380379 0.717540 0.563873
Si Si4 0.606402 0.605425 0.083961
Si Si5 0.699176 0.945244 0.093594
Si Si6 0.618537 0.794039 0.227710
Si Si7 0.996107 0.950941 0.764718
Si Si8 0.179824 0.052736 0.760681
O O1 0.376224 0.667503 0.383297
O O2 0.357232 0.676799 0.075568
O O3 0.327319 0.520737 0.273482
O O4 0.431220 0.553816 0.189272
O O5 0.946160 0.781251 0.390614
O O6 0.057112 0.808958 0.349009
O O7 0.003036 0.886817 0.597025
O O8 0.987928 0.943621 0.293878
O O9 0.349229 0.646736 0.690321
O O10 0.625807 0.682036 0.223701
O O11 0.540730 0.585094 0.101652
O O12 0.639746 0.510267 0.122055
O O13 0.619429 0.657279 0.909689
O O14 0.663563 0.850318 0.117553
O O15 0.762516 0.929368 0.145014
O O16 0.692200 0.991126 0.909394
#
# Coordination Sequence:
#
# PCOD9459308 Si02
#       8
#     8   8   8   8   8   8   8   8
#     4  10  22  39  63  91 125 163 201 247 309 369
#     4  10  19  38  64  92 128 166 199 251 315 372
#     4  10  22  39  63  91 125 163 201 247 309 369
#     4  12  25  41  64  95 127 166 210 259 314 375
#     4  11  24  45  66  90 123 165 211 263 316 370
#     4  12  25  41  64  95 127 166 210 259 314 375
#     4  10  19  38  64  92 128 166 199 251 315 372
#     4  11  24  45  66  90 123 165 211 263 316 370
#
# _framework density 23.75563
#
# number of rings (size 3 to 8) (size 9 to 14) (size 15 to 20)
#    0.000    1.250    2.500    3.750    0.000    6.500 
#    0.000    2.500    0.000    0.000    0.000    0.000 
#    0.000    0.000    0.000    0.000    0.000    0.000 
#
# Total GULP energy -358804.326256 kJ/mol
# GULP energy per Si atom -5606.317598 kJ/mol
# Density = 2.370156 g / cm^3
# Si number density = 23.755630 Si / 1000 Ang^3
#
#
#
# Elastic Constant Matrix: (Units=GPa)
#
#
# Indices 1 2 3 4 5 6 
#
# 1 137.0123 32.4355 23.2540 0.0000 0.0000 0.0000
# 2 32.4355 100.4267 4.8526 0.0000 0.0000 0.0000
# 3 23.2540 4.8526 92.1932 0.0000 0.0000 0.0000
# 4 0.0000 0.0000 0.0000 41.5430 0.0000 0.0000
# 5 0.0000 0.0000 0.0000 0.0000 27.5687 0.0000
# 6 0.0000 0.0000 0.0000 0.0000 0.0000 13.2586
#
#
#
# Elastic Compliance Matrix: (Units=1/GPa)
#
#
# Indices 1 2 3 4 5 6 
#
# 1 0.008236 -0.002566 -0.001942 0.000000 0.000000 0.000000
# 2 -0.002566 0.010782 0.000080 0.000000 0.000000 0.000000
# 3 -0.001942 0.000080 0.011332 0.000000 0.000000 0.000000
# 4 0.000000 0.000000 0.000000 0.024071 0.000000 0.000000
# 5 0.000000 0.000000 0.000000 0.000000 0.036273 0.000000
# 6 0.000000 0.000000 0.000000 0.000000 0.000000 0.075423
#
#
# Mechanical properties :
#
#
# Convention : Reuss Voigt Hill
#
# Bulk Modulus (GPa) = 46.52587 50.07960 48.30273
# Shear Modulus (GPa) = 27.45150 34.41342 30.93246
#
# Velocity S-wave (km/s) = 3.40307 3.81023 3.61239
# Velocity P-wave (km/s) = 5.92190 6.36271 6.14626
#
# Compressibility (1/GPa) = 0.02149342
#
# Stress axis : x y z
#
# Youngs Moduli (GPa) = 121.42202 92.74331 88.24189
#
# Poissons Ratio (x) = 0.23799 0.17139
# Poissons Ratio (y) = 0.31158 -0.00703
# Poissons Ratio (z) = 0.23583 -0.00739
#
# Static dielectric constant tensor:
#      x y z
#    x 1.816840 0.000000 0.000000 
#    y 0.000000 1.884390 0.000000 
#    z 0.000000 0.000000 1.960220 
# 
# From -- ./inp_files/4333.got.cif
#   From: 2010.05.17/outbox.cif.g08.bks.cpg/sg61_3_cif.got.tgz:4333.got - 2010.06.03 15:17:17.
