data_PCOD9459444
_publ_section_title
;
Structure prediction by ZEFSAII (Michael W. Deem and Ramdas Pophale) SiO2 
 PCOD9459444
Probable space group: P B C A
;
_chemical_formula_sum "Si O2"
_cell_formula_units_Z 40
_cell_length_a 11.566015
_cell_length_b 12.012298
_cell_length_c 12.954181
_cell_angle_alpha 90.000000
_cell_angle_beta 90.000000
_cell_angle_gamma 90.000000
_cell_volume 1799.781609
_symmetry_space_group_name_H-M "P B C A"
_symmetry_group_IT_number 61
_symmetry_cell_setting 'orthorhombic'
loop_
_space_group_symop_operation_xyz
x,y,z
1/2-x,-y,1/2+z
1/2+x,1/2-y,-z
-x,1/2+y,1/2-z
-x,-y,-z
1/2+x,y,1/2-z
1/2-x,1/2+y,z
x,1/2-y,1/2+z
loop_
_atom_site_type_symbol
_atom_site_label
_atom_site_fract_x
_atom_site_fract_y
_atom_site_fract_z
Si Si1 0.650746 0.596931 0.988375
Si Si2 0.722519 0.464549 0.804171
Si Si3 0.173197 0.403787 0.368380
Si Si4 0.884362 0.850430 0.605276
Si Si5 0.372014 0.349142 0.523580
O O1 0.648051 0.545807 0.875297
O O2 0.600499 0.719210 0.995699
O O3 0.611235 0.500021 0.065528
O O4 0.784347 0.620741 0.022735
O O5 0.811791 0.545051 0.744445
O O6 0.652158 0.403263 0.714571
O O7 0.784846 0.377455 0.881457
O O8 0.117900 0.282781 0.376145
O O9 0.300811 0.389118 0.422893
O O10 0.005011 0.893776 0.561351
#
# Coordination Sequence:
#
# PCOD9459444 Si02
#       5
#     8   8   8   8   8
#     4   9  20  38  57  82 117 147 186 237 280 331
#     4  10  20  36  56  84 116 146 186 236 280 334
#     4   9  20  38  57  82 117 147 186 237 280 331
#     4  10  21  38  60  84 113 152 192 231 282 339
#     4  10  21  38  60  84 113 152 192 231 282 339
#
# _framework density 22.224917999999999
#
# number of rings (size 3 to 8) (size 9 to 14) (size 15 to 20)
#    0.000    2.400    0.000    1.200    0.000    9.600 
#    0.000   28.000    0.000    0.000    0.000    0.000 
#    0.000    0.000    0.000    0.000    0.000    0.000 
#
# Total GULP energy -223224.279334 kJ/mol
# GULP energy per Si atom -5580.606983 kJ/mol
# Density = 2.217433 g / cm^3
# Si number density = 22.224918 Si / 1000 Ang^3
#
#
#
# Elastic Constant Matrix: (Units=GPa)
#
#
# Indices 1 2 3 4 5 6 
#
# 1 18.4505 -22.8658 -1.1580 0.0000 0.0000 0.0000
# 2 -22.8658 143.8840 17.3665 0.0000 0.0000 0.0000
# 3 -1.1580 17.3665 78.8517 0.0000 0.0000 0.0000
# 4 0.0000 0.0000 0.0000 23.6558 0.0000 0.0000
# 5 0.0000 0.0000 0.0000 0.0000 18.3367 0.0000
# 6 0.0000 0.0000 0.0000 0.0000 0.0000 -3.4730
#
#
#
# Elastic Compliance Matrix: (Units=1/GPa)
#
#
# Indices 1 2 3 4 5 6 
#
# 1 0.067644 0.010920 -0.001412 0.000000 0.000000 0.000000
# 2 0.010920 0.008903 -0.001800 0.000000 0.000000 0.000000
# 3 -0.001412 -0.001800 0.013058 0.000000 0.000000 0.000000
# 4 0.000000 0.000000 0.000000 0.042273 0.000000 0.000000
# 5 0.000000 0.000000 0.000000 0.000000 0.054536 0.000000
# 6 0.000000 0.000000 0.000000 0.000000 0.000000 -0.287936
#
#
# Mechanical properties :
#
#
# Convention : Reuss Voigt Hill
#
# Bulk Modulus (GPa) = 9.52192 25.31907 17.42050
# Shear Modulus (GPa) = -61.02561 24.22680 -18.39941
#
# Velocity S-wave (km/s) = -5.24574 3.30521 -2.88040
# Velocity P-wave (km/s) = 5.69182 5.09733 1.79080
#
# Compressibility (1/GPa) = 0.10502079
#
# Stress axis : x y z
#
# Youngs Moduli (GPa) = 14.78330 112.32452 76.58246
#
# Poissons Ratio (x) = -1.22661 0.10811
# Poissons Ratio (y) = -0.16144 0.13788
# Poissons Ratio (z) = 0.02087 0.20223
#
# Static dielectric constant tensor:
#      x y z
#    x 1.865400 0.000000 0.000000 
#    y 0.000000 1.847740 0.000000 
#    z 0.000000 0.000000 1.780830 
# 
# From -- ./inp_files/5111.got.cif
#   From: 2010.05.17/outbox.cif.g08.bks.cpg/sg61_3_cif.got.tgz:5111.got - 2010.06.03 15:17:17.
