data_PCOD9459925
_publ_section_title
;
Structure prediction by ZEFSAII (Michael W. Deem and Ramdas Pophale) SiO2 
 PCOD9459925
Probable space group: P B C A
;
_chemical_formula_sum "Si O2"
_cell_formula_units_Z 60
_cell_length_a 19.435003
_cell_length_b 10.395076
_cell_length_c 12.952732
_cell_angle_alpha 90.000000
_cell_angle_beta 90.000000
_cell_angle_gamma 90.000000
_cell_volume 2616.818857
_symmetry_space_group_name_H-M "P B C A"
_symmetry_group_IT_number 61
_symmetry_cell_setting 'orthorhombic'
loop_
_space_group_symop_operation_xyz
x,y,z
1/2-x,-y,1/2+z
1/2+x,1/2-y,-z
-x,1/2+y,1/2-z
-x,-y,-z
1/2+x,y,1/2-z
1/2-x,1/2+y,z
x,1/2-y,1/2+z
loop_
_atom_site_type_symbol
_atom_site_label
_atom_site_fract_x
_atom_site_fract_y
_atom_site_fract_z
Si Si1 0.295295 0.415512 0.217876
Si Si2 0.507623 0.191413 0.411431
Si Si3 0.345941 0.075209 0.951878
Si Si4 0.926198 0.415587 0.430445
Si Si5 0.022153 0.207434 0.329280
Si Si6 0.368609 0.793656 0.980527
Si Si7 0.256778 0.673716 0.114278
Si Si8 0.000000 0.500000 0.000000
O O1 0.320015 0.402569 0.335662
O O2 0.359504 0.407272 0.139080
O O3 0.262129 0.551895 0.189210
O O4 0.246729 0.298986 0.185111
O O5 0.433129 0.154127 0.458075
O O6 0.509900 0.202815 0.290755
O O7 0.555985 0.307820 0.459042
O O8 0.551196 0.063271 0.439591
O O9 0.328089 0.926710 0.981628
O O10 0.308162 0.159590 0.037792
O O11 0.428069 0.070716 0.959613
O O12 0.983980 0.332884 0.371526
O O13 0.101880 0.224355 0.365415
O O14 0.994435 0.079270 0.385186
O O15 0.321425 0.690731 0.036522
#
# Coordination Sequence:
#
# PCOD9459925 Si02
#       8
#     8   8   8   8   8   8   8   4
#     4  12  27  46  78 102 152 193 248 305 380 434
#     4  10  21  39  68  98 144 184 239 294 373 425
#     4  11  26  48  76 103 147 195 243 312 372 445
#     4  10  21  39  62 101 134 182 236 304 346 440
#     4  10  22  39  67 100 141 189 238 299 374 434
#     4  10  22  41  68 101 141 187 241 298 358 448
#     4  12  26  47  71 111 142 195 252 303 358 466
#     4  10  22  44  70 100 140 180 240 306 368 434
#
# _framework density 22.928602999999999
#
# number of rings (size 3 to 8) (size 9 to 14) (size 15 to 20)
#    0.000    1.333    2.667    2.400    1.867    7.467 
#    0.000    1.333    0.000    0.000    0.000    0.000 
#    0.000    0.000    0.000    0.000    0.000    0.000 
#
# Total GULP energy -334235.586294 kJ/mol
# GULP energy per Si atom -5570.593105 kJ/mol
# Density = 2.287642 g / cm^3
# Si number density = 22.928603 Si / 1000 Ang^3
#
#
#
# Elastic Constant Matrix: (Units=GPa)
#
#
# Indices 1 2 3 4 5 6 
#
# 1 58.3598 -1.5755 17.3355 0.0000 0.0000 0.0000
# 2 -1.5755 71.3275 11.0022 0.0000 0.0000 0.0000
# 3 17.3355 11.0022 144.5743 0.0000 0.0000 0.0000
# 4 0.0000 0.0000 0.0000 18.5440 0.0000 0.0000
# 5 0.0000 0.0000 0.0000 0.0000 29.0476 0.0000
# 6 0.0000 0.0000 0.0000 0.0000 0.0000 27.6225
#
#
#
# Elastic Compliance Matrix: (Units=1/GPa)
#
#
# Indices 1 2 3 4 5 6 
#
# 1 0.017806 0.000731 -0.002191 0.000000 0.000000 0.000000
# 2 0.000731 0.014216 -0.001170 0.000000 0.000000 0.000000
# 3 -0.002191 -0.001170 0.007269 0.000000 0.000000 0.000000
# 4 0.000000 0.000000 0.000000 0.053926 0.000000 0.000000
# 5 0.000000 0.000000 0.000000 0.000000 0.034426 0.000000
# 6 0.000000 0.000000 0.000000 0.000000 0.000000 0.036202
#
#
# Mechanical properties :
#
#
# Convention : Reuss Voigt Hill
#
# Bulk Modulus (GPa) = 29.38370 36.42064 32.90217
# Shear Modulus (GPa) = 27.70897 31.54279 29.62588
#
# Velocity S-wave (km/s) = 3.48010 3.71306 3.59847
# Velocity P-wave (km/s) = 5.38436 5.85673 5.62550
#
# Compressibility (1/GPa) = 0.03403248
#
# Stress axis : x y z
#
# Youngs Moduli (GPa) = 56.16230 70.34130 137.57925
#
# Poissons Ratio (x) = -0.05143 0.30139
# Poissons Ratio (y) = -0.04107 0.16091
# Poissons Ratio (z) = 0.12303 0.08227
#
# Static dielectric constant tensor:
#      x y z
#    x 1.764950 0.000000 0.000000 
#    y 0.000000 1.884880 0.000000 
#    z 0.000000 0.000000 1.380120 
# 
# From -- ./inp_files/8414.got.cif
#   From: 2010.05.17/outbox.cif.g08.bks.cpg/sg61_5_cif.got.tgz:8414.got - 2010.06.03 15:17:17.
