data_PCOD9459450
_publ_section_title
;
Structure prediction by ZEFSAII (Michael W. Deem and Ramdas Pophale) SiO2 
 PCOD9459450
Probable space group: P B C A
;
_chemical_formula_sum "Si O2"
_cell_formula_units_Z 40
_cell_length_a 21.660086
_cell_length_b 8.925066
_cell_length_c 10.998708
_cell_angle_alpha 90.000000
_cell_angle_beta 90.000000
_cell_angle_gamma 90.000000
_cell_volume 2126.244902
_symmetry_space_group_name_H-M "P B C A"
_symmetry_group_IT_number 61
_symmetry_cell_setting 'orthorhombic'
loop_
_space_group_symop_operation_xyz
x,y,z
1/2-x,-y,1/2+z
1/2+x,1/2-y,-z
-x,1/2+y,1/2-z
-x,-y,-z
1/2+x,y,1/2-z
1/2-x,1/2+y,z
x,1/2-y,1/2+z
loop_
_atom_site_type_symbol
_atom_site_label
_atom_site_fract_x
_atom_site_fract_y
_atom_site_fract_z
Si Si1 0.251332 0.311440 0.000593
Si Si2 0.971798 0.915092 0.118473
Si Si3 0.172333 0.439603 0.382952
Si Si4 0.471020 0.415574 0.618112
Si Si5 0.326227 0.063066 0.115645
O O1 0.307738 0.414156 0.957955
O O2 0.219448 0.194390 0.910007
O O3 0.198512 0.431243 0.029900
O O4 0.280757 0.204530 0.103071
O O5 0.000737 0.750126 0.128064
O O6 0.898535 0.898945 0.094654
O O7 0.979760 0.999920 0.250198
O O8 0.000000 0.000000 0.000000
O O9 0.178999 0.491116 0.246379
O O10 0.500000 0.500000 0.500000
O O11 0.397620 0.400638 0.594350
#
# Coordination Sequence:
#
# PCOD9459450 Si02
#       5
#     8   8   8   8   8
#     4  10  20  36  58  82 112 146 186 232 284 340
#     4  11  23  40  61  88 120 156 197 242 292 348
#     4  10  21  37  57  83 113 147 188 233 284 339
#     4  11  23  40  61  88 120 156 197 242 292 348
#     4  10  21  37  57  83 113 147 188 233 284 339
#
# _framework density 18.812508000000001
#
# number of rings (size 3 to 8) (size 9 to 14) (size 15 to 20)
#    0.000    1.600    0.000    4.800    0.000    3.200 
#    0.000   10.000    0.000    0.000    0.000    0.000 
#    0.000    0.000    0.000    0.000    0.000    0.000 
#
# Total GULP energy -222961.773169 kJ/mol
# GULP energy per Si atom -5574.044329 kJ/mol
# Density = 1.876969 g / cm^3
# Si number density = 18.812508 Si / 1000 Ang^3
#
#
#
# Elastic Constant Matrix: (Units=GPa)
#
#
# Indices 1 2 3 4 5 6 
#
# 1 137.2627 79.7390 48.9274 0.0000 0.0000 0.0000
# 2 79.7390 133.1783 38.5660 0.0000 0.0000 0.0000
# 3 48.9274 38.5660 69.8301 0.0000 0.0000 0.0000
# 4 0.0000 0.0000 0.0000 17.3201 0.0000 0.0000
# 5 0.0000 0.0000 0.0000 0.0000 30.1987 0.0000
# 6 0.0000 0.0000 0.0000 0.0000 0.0000 41.5815
#
#
#
# Elastic Compliance Matrix: (Units=1/GPa)
#
#
# Indices 1 2 3 4 5 6 
#
# 1 0.012797 -0.006030 -0.005636 0.000000 0.000000 0.000000
# 2 -0.006030 0.011780 -0.002281 0.000000 0.000000 0.000000
# 3 -0.005636 -0.002281 0.019529 0.000000 0.000000 0.000000
# 4 0.000000 0.000000 0.000000 0.057736 0.000000 0.000000
# 5 0.000000 0.000000 0.000000 0.000000 0.033114 0.000000
# 6 0.000000 0.000000 0.000000 0.000000 0.000000 0.024049
#
#
# Mechanical properties :
#
#
# Convention : Reuss Voigt Hill
#
# Bulk Modulus (GPa) = 61.68239 74.97067 68.32653
# Shear Modulus (GPa) = 26.00052 29.35599 27.67825
#
# Velocity S-wave (km/s) = 3.72168 3.95454 3.83987
# Velocity P-wave (km/s) = 7.16428 7.79674 7.48719
#
# Compressibility (1/GPa) = 0.01621208
#
# Stress axis : x y z
#
# Youngs Moduli (GPa) = 78.14075 84.89244 51.20539
#
# Poissons Ratio (x) = 0.51191 0.28861
# Poissons Ratio (y) = 0.47120 0.11678
# Poissons Ratio (z) = 0.44043 0.19361
#
# Static dielectric constant tensor:
#      x y z
#    x 1.652110 0.000000 0.000000 
#    y 0.000000 2.296600 0.000000 
#    z 0.000000 0.000000 1.672650 
# 
# From -- ./inp_files/1745.got.cif
#   From: 2010.05.17/outbox.cif.g08.bks.cpg/sg61_1_cif.got.tgz:1745.got - 2010.06.03 15:17:17.
