data_PCOD9459078
_publ_section_title
;
Structure prediction by ZEFSAII (Michael W. Deem and Ramdas Pophale) SiO2 
 PCOD9459078
Probable space group: P B C A
;
_chemical_formula_sum "Si O2"
_cell_formula_units_Z 40
_cell_length_a 7.753030
_cell_length_b 18.652348
_cell_length_c 11.096412
_cell_angle_alpha 90.000000
_cell_angle_beta 90.000000
_cell_angle_gamma 90.000000
_cell_volume 1604.676702
_symmetry_space_group_name_H-M "P B C A"
_symmetry_group_IT_number 61
_symmetry_cell_setting 'orthorhombic'
loop_
_space_group_symop_operation_xyz
x,y,z
1/2-x,-y,1/2+z
1/2+x,1/2-y,-z
-x,1/2+y,1/2-z
-x,-y,-z
1/2+x,y,1/2-z
1/2-x,1/2+y,z
x,1/2-y,1/2+z
loop_
_atom_site_type_symbol
_atom_site_label
_atom_site_fract_x
_atom_site_fract_y
_atom_site_fract_z
Si Si1 0.599576 0.102091 0.612629
Si Si2 0.535850 0.549226 0.648463
Si Si3 0.724831 0.287507 0.939364
Si Si4 0.027905 0.394597 0.887282
Si Si5 0.625826 0.657602 0.067399
O O1 0.503411 0.098894 0.738334
O O2 0.760860 0.049510 0.620768
O O3 0.683850 0.178146 0.572625
O O4 0.468748 0.092173 0.501291
O O5 0.451227 0.578909 0.526811
O O6 0.480131 0.468223 0.678547
O O7 0.537284 0.298377 0.878587
O O8 0.878035 0.336079 0.888226
O O9 0.791393 0.208510 0.963927
O O10 0.214473 0.364930 0.852201
#
# Coordination Sequence:
#
# PCOD9459078 Si02
#       5
#     8   8   8   8   8
#     4   9  20  34  56  88 120 162 201 255 313 360
#     4  10  20  36  54  90 125 158 202 253 304 369
#     4   9  19  34  61  90 111 161 208 257 311 365
#     4  10  19  35  59  87 124 155 204 249 300 375
#     4  10  18  35  62  86 115 154 216 252 310 372
#
# _framework density 24.927142
#
# number of rings (size 3 to 8) (size 9 to 14) (size 15 to 20)
#    1.200    1.200    2.000    1.200    0.000    0.800 
#    3.600    0.000    0.000   19.200    0.000    0.000 
#    0.000    0.000    0.000    0.000    0.000    0.000 
#
# Total GULP energy -223210.857593 kJ/mol
# GULP energy per Si atom -5580.271440 kJ/mol
# Density = 2.487041 g / cm^3
# Si number density = 24.927142 Si / 1000 Ang^3
#
#
#
# Elastic Constant Matrix: (Units=GPa)
#
#
# Indices 1 2 3 4 5 6 
#
# 1 162.1380 40.1694 25.4885 0.0000 0.0000 0.0000
# 2 40.1694 82.7875 11.2662 0.0000 0.0000 0.0000
# 3 25.4885 11.2662 73.3574 0.0000 0.0000 0.0000
# 4 0.0000 0.0000 0.0000 13.2637 0.0000 0.0000
# 5 0.0000 0.0000 0.0000 0.0000 26.0484 0.0000
# 6 0.0000 0.0000 0.0000 0.0000 0.0000 41.5720
#
#
#
# Elastic Compliance Matrix: (Units=1/GPa)
#
#
# Indices 1 2 3 4 5 6 
#
# 1 0.007296 -0.003263 -0.002034 0.000000 0.000000 0.000000
# 2 -0.003263 0.013797 -0.000985 0.000000 0.000000 0.000000
# 3 -0.002034 -0.000985 0.014490 0.000000 0.000000 0.000000
# 4 0.000000 0.000000 0.000000 0.075394 0.000000 0.000000
# 5 0.000000 0.000000 0.000000 0.000000 0.038390 0.000000
# 6 0.000000 0.000000 0.000000 0.000000 0.000000 0.024055
#
#
# Mechanical properties :
#
#
# Convention : Reuss Voigt Hill
#
# Bulk Modulus (GPa) = 43.44422 52.45900 47.95161
# Shear Modulus (GPa) = 25.81879 32.26740 29.04309
#
# Velocity S-wave (km/s) = 3.22183 3.60178 3.41709
# Velocity P-wave (km/s) = 5.59523 6.19578 5.90314
#
# Compressibility (1/GPa) = 0.02301802
#
# Stress axis : x y z
#
# Youngs Moduli (GPa) = 137.06589 72.48204 69.01389
#
# Poissons Ratio (x) = 0.23652 0.14036
# Poissons Ratio (y) = 0.44728 0.06798
# Poissons Ratio (z) = 0.27876 0.07140
#
# Static dielectric constant tensor:
#      x y z
#    x 1.991760 0.000000 0.000000 
#    y 0.000000 1.961040 0.000000 
#    z 0.000000 0.000000 1.976730 
# 
# From -- ./inp_files/3354.got.cif
#   From: 2010.05.17/outbox.cif.g08.bks.cpg/sg61_2_cif.got.tgz:3354.got - 2010.06.03 15:17:17.
