data_PCOD9459460
_publ_section_title
;
Structure prediction by ZEFSAII (Michael W. Deem and Ramdas Pophale) SiO2 
 PCOD9459460
Probable space group: P B C A
;
_chemical_formula_sum "Si O2"
_cell_formula_units_Z 48
_cell_length_a 23.418661
_cell_length_b 16.538352
_cell_length_c 5.422516
_cell_angle_alpha 90.000000
_cell_angle_beta 90.000000
_cell_angle_gamma 90.000000
_cell_volume 2100.173302
_symmetry_space_group_name_H-M "P B C A"
_symmetry_group_IT_number 61
_symmetry_cell_setting 'orthorhombic'
loop_
_space_group_symop_operation_xyz
x,y,z
1/2-x,-y,1/2+z
1/2+x,1/2-y,-z
-x,1/2+y,1/2-z
-x,-y,-z
1/2+x,y,1/2-z
1/2-x,1/2+y,z
x,1/2-y,1/2+z
loop_
_atom_site_type_symbol
_atom_site_label
_atom_site_fract_x
_atom_site_fract_y
_atom_site_fract_z
Si Si1 0.277815 0.229995 0.495512
Si Si2 0.955034 0.203590 0.786306
Si Si3 0.139610 0.628327 0.026031
Si Si4 0.589791 0.199191 0.748978
Si Si5 0.345968 0.969758 0.288324
Si Si6 0.719074 0.940535 0.359020
O O1 0.245415 0.237913 0.756492
O O2 0.335542 0.280085 0.578782
O O3 0.288663 0.135206 0.456025
O O4 0.946934 0.275499 0.577348
O O5 0.910660 0.139529 0.675000
O O6 0.021392 0.182512 0.755298
O O7 0.195768 0.596746 0.888986
O O8 0.123415 0.552960 0.200729
O O9 0.602451 0.251985 0.502408
O O10 0.620084 0.112345 0.740113
O O11 0.284983 0.960276 0.151589
O O12 0.322654 0.987811 0.562958
#
# Coordination Sequence:
#
# PCOD9459460 Si02
#       6
#     8   8   8   8   8   8
#     4  10  20  36  59  89 122 166 212 257 329 388
#     4  10  22  44  71 101 135 176 229 289 338 404
#     4  11  23  39  68  99 135 174 226 286 342 401
#     4  10  26  49  72  97 134 186 234 277 346 413
#     4  12  25  43  67  97 143 179 230 283 340 403
#     4  11  24  41  60  97 141 178 221 282 336 403
#
# _framework density 22.855259
#
# number of rings (size 3 to 8) (size 9 to 14) (size 15 to 20)
#    0.000    1.333    3.333    2.000    4.667    3.333 
#    0.000    0.833    0.000    0.000    0.000    0.000 
#    0.000    0.000    0.000    0.000    0.000    0.000 
#
# Total GULP energy -267272.941473 kJ/mol
# GULP energy per Si atom -5568.186281 kJ/mol
# Density = 2.280324 g / cm^3
# Si number density = 22.855259 Si / 1000 Ang^3
#
#
#
# Elastic Constant Matrix: (Units=GPa)
#
#
# Indices 1 2 3 4 5 6 
#
# 1 55.4453 34.3940 -2.2637 0.0000 0.0000 0.0000
# 2 34.3940 93.7176 24.7062 0.0000 0.0000 0.0000
# 3 -2.2637 24.7062 90.7788 0.0000 0.0000 0.0000
# 4 0.0000 0.0000 0.0000 39.3512 0.0000 0.0000
# 5 0.0000 0.0000 0.0000 0.0000 24.7419 0.0000
# 6 0.0000 0.0000 0.0000 0.0000 0.0000 28.6648
#
#
#
# Elastic Compliance Matrix: (Units=1/GPa)
#
#
# Indices 1 2 3 4 5 6 
#
# 1 0.024214 -0.009745 0.003256 0.000000 0.000000 0.000000
# 2 -0.009745 0.015417 -0.004439 0.000000 0.000000 0.000000
# 3 0.003256 -0.004439 0.012305 0.000000 0.000000 0.000000
# 4 0.000000 0.000000 0.000000 0.025412 0.000000 0.000000
# 5 0.000000 0.000000 0.000000 0.000000 0.040417 0.000000
# 6 0.000000 0.000000 0.000000 0.000000 0.000000 0.034886
#
#
# Mechanical properties :
#
#
# Convention : Reuss Voigt Hill
#
# Bulk Modulus (GPa) = 33.24435 39.29051 36.26743
# Shear Modulus (GPa) = 27.09550 30.75860 28.92705
#
# Velocity S-wave (km/s) = 3.44688 3.67249 3.56147
# Velocity P-wave (km/s) = 5.51530 5.93391 5.72843
#
# Compressibility (1/GPa) = 0.03008030
#
# Stress axis : x y z
#
# Youngs Moduli (GPa) = 41.29923 64.86446 81.26750
#
# Poissons Ratio (x) = 0.63208 -0.26460
# Poissons Ratio (y) = 0.40244 0.36073
# Poissons Ratio (z) = -0.13447 0.28792
#
# Static dielectric constant tensor:
#      x y z
#    x 1.852260 0.000000 0.000000 
#    y 0.000000 1.960840 0.000000 
#    z 0.000000 0.000000 2.048400 
# 
# From -- ./inp_files/1175.got.cif
#   From: 2010.05.17/outbox.cif.g08.bks.cpg/sg61_1_cif.got.tgz:1175.got - 2010.06.03 15:17:17.
