data_PCOD9459365
_publ_section_title
;
Structure prediction by ZEFSAII (Michael W. Deem and Ramdas Pophale) SiO2 
 PCOD9459365
Probable space group: P B C A
;
_chemical_formula_sum "Si O2"
_cell_formula_units_Z 64
_cell_length_a 29.592535
_cell_length_b 16.571073
_cell_length_c 5.540666
_cell_angle_alpha 90.000000
_cell_angle_beta 90.000000
_cell_angle_gamma 90.000000
_cell_volume 2717.032113
_symmetry_space_group_name_H-M "P B C A"
_symmetry_group_IT_number 61
_symmetry_cell_setting 'orthorhombic'
loop_
_space_group_symop_operation_xyz
x,y,z
1/2-x,-y,1/2+z
1/2+x,1/2-y,-z
-x,1/2+y,1/2-z
-x,-y,-z
1/2+x,y,1/2-z
1/2-x,1/2+y,z
x,1/2-y,1/2+z
loop_
_atom_site_type_symbol
_atom_site_label
_atom_site_fract_x
_atom_site_fract_y
_atom_site_fract_z
Si Si1 0.688468 0.460381 0.286692
Si Si2 0.643577 0.575962 0.687460
Si Si3 0.944841 0.075152 0.472044
Si Si4 0.901450 0.957684 0.081134
Si Si5 0.722037 0.894286 0.484170
Si Si6 0.536997 0.410521 0.714522
Si Si7 0.617587 0.198139 0.082398
Si Si8 0.288490 0.796755 0.771108
O O1 0.672060 0.523965 0.492032
O O2 0.731179 0.405504 0.342906
O O3 0.642725 0.417295 0.197743
O O4 0.707730 0.518157 0.077036
O O5 0.599117 0.619321 0.579109
O O6 0.620644 0.510347 0.865668
O O7 0.679314 0.631723 0.827538
O O8 0.987848 0.120253 0.360601
O O9 0.963508 0.007023 0.659160
O O10 0.922783 0.021215 0.262834
O O11 0.942676 0.904348 0.983278
O O12 0.740206 0.839860 0.700700
O O13 0.576276 0.364268 0.572682
O O14 0.614740 0.247368 0.830026
O O15 0.665623 0.154912 0.154439
O O16 0.290835 0.733776 0.996683
#
# Coordination Sequence:
#
# PCOD9459365 Si02
#       8
#     8   8   8   8   8   8   8   8
#     4  10  20  31  51  89 113 149 189 244 317 368
#     4   9  19  35  48  86 118 146 186 244 306 360
#     4   9  19  35  56  90 121 149 195 239 315 380
#     4   9  19  31  52  83 123 146 183 237 303 377
#     4  11  21  33  59  79 120 153 199 249 306 370
#     4  10  20  34  60  85 116 160 195 245 308 372
#     4  10  24  43  59  86 120 160 209 254 297 352
#     4  10  25  42  59  85 119 166 212 249 295 364
#
# _framework density 23.555112999999999
#
# number of rings (size 3 to 8) (size 9 to 14) (size 15 to 20)
#    0.000    2.250    1.250    0.375    8.750    2.000 
#    0.000    0.000    0.000    1.500    0.000    0.000 
#    0.000    0.000    0.000    0.000    0.000    0.000 
#
# Total GULP energy -356706.987609 kJ/mol
# GULP energy per Si atom -5573.546681 kJ/mol
# Density = 2.350150 g / cm^3
# Si number density = 23.555113 Si / 1000 Ang^3
#
#
#
# Elastic Constant Matrix: (Units=GPa)
#
#
# Indices 1 2 3 4 5 6 
#
# 1 139.9773 15.9581 11.0531 0.0000 0.0000 0.0000
# 2 15.9581 19.2058 2.4931 0.0000 0.0000 0.0000
# 3 11.0531 2.4931 70.7084 0.0000 0.0000 0.0000
# 4 0.0000 0.0000 0.0000 26.0476 0.0000 0.0000
# 5 0.0000 0.0000 0.0000 0.0000 30.4408 0.0000
# 6 0.0000 0.0000 0.0000 0.0000 0.0000 23.8148
#
#
#
# Elastic Compliance Matrix: (Units=1/GPa)
#
#
# Indices 1 2 3 4 5 6 
#
# 1 0.007964 -0.006485 -0.001016 0.000000 0.000000 0.000000
# 2 -0.006485 0.057588 -0.001017 0.000000 0.000000 0.000000
# 3 -0.001016 -0.001017 0.014337 0.000000 0.000000 0.000000
# 4 0.000000 0.000000 0.000000 0.038391 0.000000 0.000000
# 5 0.000000 0.000000 0.000000 0.000000 0.032851 0.000000
# 6 0.000000 0.000000 0.000000 0.000000 0.000000 0.041991
#
#
# Mechanical properties :
#
#
# Convention : Reuss Voigt Hill
#
# Bulk Modulus (GPa) = 15.91017 32.10000 24.00509
# Shear Modulus (GPa) = 21.63488 29.41979 25.52734
#
# Velocity S-wave (km/s) = 3.03393 3.53792 3.29557
# Velocity P-wave (km/s) = 4.36372 5.50875 4.96933
#
# Compressibility (1/GPa) = 0.06285288
#
# Stress axis : x y z
#
# Youngs Moduli (GPa) = 125.57163 17.36475 69.74815
#
# Poissons Ratio (x) = 0.11261 0.07088
# Poissons Ratio (y) = 0.81434 0.07092
# Poissons Ratio (z) = 0.12761 0.01766
#
# Static dielectric constant tensor:
#      x y z
#    x 1.959250 0.000000 0.000000 
#    y 0.000000 1.897510 0.000000 
#    z 0.000000 0.000000 2.073100 
# 
# From -- ./inp_files/1511.got.cif
#   From: 2010.05.17/outbox.cif.g08.bks.cpg/sg61_1_cif.got.tgz:1511.got - 2010.06.03 15:17:17.
