data_PCOD9459010
_publ_section_title
;
Structure prediction by ZEFSAII (Michael W. Deem and Ramdas Pophale) SiO2 
 PCOD9459010
Probable space group: P B C A
;
_chemical_formula_sum "Si O2"
_cell_formula_units_Z 56
_cell_length_a 13.099290
_cell_length_b 19.519613
_cell_length_c 8.793446
_cell_angle_alpha 90.000000
_cell_angle_beta 90.000000
_cell_angle_gamma 90.000000
_cell_volume 2248.423216
_symmetry_space_group_name_H-M "P B C A"
_symmetry_group_IT_number 61
_symmetry_cell_setting 'orthorhombic'
loop_
_space_group_symop_operation_xyz
x,y,z
1/2-x,-y,1/2+z
1/2+x,1/2-y,-z
-x,1/2+y,1/2-z
-x,-y,-z
1/2+x,y,1/2-z
1/2-x,1/2+y,z
x,1/2-y,1/2+z
loop_
_atom_site_type_symbol
_atom_site_label
_atom_site_fract_x
_atom_site_fract_y
_atom_site_fract_z
Si Si1 0.803313 0.665322 0.431546
Si Si2 0.483049 0.616479 0.553134
Si Si3 0.667675 0.203910 0.747141
Si Si4 0.183494 0.950827 0.751127
Si Si5 0.372425 0.500291 0.423547
Si Si6 0.957542 0.239451 0.358946
Si Si7 0.047839 0.849801 0.925142
O O1 0.784033 0.740279 0.358697
O O2 0.772558 0.669576 0.608848
O O3 0.744407 0.610968 0.330190
O O4 0.924533 0.646084 0.428586
O O5 0.395268 0.648419 0.656766
O O6 0.430133 0.573231 0.416711
O O7 0.558012 0.562169 0.632194
O O8 0.546846 0.678577 0.481207
O O9 0.579377 0.248150 0.661957
O O10 0.103066 0.918234 0.869582
O O11 0.139099 0.989795 0.605569
O O12 0.264815 0.995423 0.842713
O O13 0.918915 0.312778 0.418262
O O14 0.923522 0.207285 0.201387
#
# Coordination Sequence:
#
# PCOD9459010 Si02
#       7
#     8   8   8   8   8   8   8
#     4  10  23  40  69 101 133 163 214 278 335 387
#     4  11  21  44  72  87 130 180 220 256 334 388
#     4  10  19  38  72 101 124 163 215 273 338 391
#     4  12  27  45  61  98 133 173 229 266 321 395
#     4  11  28  44  64  89 134 187 220 265 311 403
#     4  10  17  37  68 100 118 160 208 269 338 376
#     4  10  21  40  66  94 131 158 209 272 334 380
#
# _framework density 24.906343
#
# number of rings (size 3 to 8) (size 9 to 14) (size 15 to 20)
#    0.000    1.429    5.714    1.714    4.000    3.429 
#    0.000    1.429    0.000    0.000    0.000    0.000 
#    0.000    0.000    0.000    0.000    0.000    0.000 
#
# Total GULP energy -313282.486466 kJ/mol
# GULP energy per Si atom -5594.330115 kJ/mol
# Density = 2.484965 g / cm^3
# Si number density = 24.906343 Si / 1000 Ang^3
#
#
#
# Elastic Constant Matrix: (Units=GPa)
#
#
# Indices 1 2 3 4 5 6 
#
# 1 64.5110 16.2523 -4.5759 0.0000 0.0000 0.0000
# 2 16.2523 95.2244 13.7829 0.0000 0.0000 0.0000
# 3 -4.5759 13.7829 62.3658 0.0000 0.0000 0.0000
# 4 0.0000 0.0000 0.0000 37.7315 0.0000 0.0000
# 5 0.0000 0.0000 0.0000 0.0000 31.9340 0.0000
# 6 0.0000 0.0000 0.0000 0.0000 0.0000 41.5347
#
#
#
# Elastic Compliance Matrix: (Units=1/GPa)
#
#
# Indices 1 2 3 4 5 6 
#
# 1 0.016409 -0.003073 0.001883 0.000000 0.000000 0.000000
# 2 -0.003073 0.011424 -0.002750 0.000000 0.000000 0.000000
# 3 0.001883 -0.002750 0.016780 0.000000 0.000000 0.000000
# 4 0.000000 0.000000 0.000000 0.026503 0.000000 0.000000
# 5 0.000000 0.000000 0.000000 0.000000 0.031315 0.000000
# 6 0.000000 0.000000 0.000000 0.000000 0.000000 0.024076
#
#
# Mechanical properties :
#
#
# Convention : Reuss Voigt Hill
#
# Bulk Modulus (GPa) = 27.22349 30.33556 28.77952
# Shear Modulus (GPa) = 34.09891 35.34949 34.72420
#
# Velocity S-wave (km/s) = 3.70413 3.77144 3.73794
# Velocity P-wave (km/s) = 5.40816 5.58313 5.49634
#
# Compressibility (1/GPa) = 0.03673299
#
# Stress axis : x y z
#
# Youngs Moduli (GPa) = 60.94208 87.53429 59.59337
#
# Poissons Ratio (x) = 0.26901 -0.11222
# Poissons Ratio (y) = 0.18729 0.16389
# Poissons Ratio (z) = -0.11476 0.24074
#
# Static dielectric constant tensor:
#      x y z
#    x 2.038300 0.000000 0.000000 
#    y 0.000000 1.979330 0.000000 
#    z 0.000000 0.000000 1.987010 
# 
# From -- ./inp_files/3046.got.cif
#   From: 2010.05.17/outbox.cif.g08.bks.cpg/sg61_2_cif.got.tgz:3046.got - 2010.06.03 15:17:17.
