data_PCOD9459063
_publ_section_title
;
Structure prediction by ZEFSAII (Michael W. Deem and Ramdas Pophale) SiO2 
 PCOD9459063
Probable space group: P B C A
;
_chemical_formula_sum "Si O2"
_cell_formula_units_Z 64
_cell_length_a 8.216900
_cell_length_b 23.059007
_cell_length_c 15.252686
_cell_angle_alpha 90.000000
_cell_angle_beta 90.000000
_cell_angle_gamma 90.000000
_cell_volume 2889.980634
_symmetry_space_group_name_H-M "P B C A"
_symmetry_group_IT_number 61
_symmetry_cell_setting 'orthorhombic'
loop_
_space_group_symop_operation_xyz
x,y,z
1/2-x,-y,1/2+z
1/2+x,1/2-y,-z
-x,1/2+y,1/2-z
-x,-y,-z
1/2+x,y,1/2-z
1/2-x,1/2+y,z
x,1/2-y,1/2+z
loop_
_atom_site_type_symbol
_atom_site_label
_atom_site_fract_x
_atom_site_fract_y
_atom_site_fract_z
Si Si1 0.223301 0.173043 0.604241
Si Si2 0.175965 0.590872 0.747052
Si Si3 0.106654 0.460528 0.369745
Si Si4 0.570481 0.589859 0.142293
Si Si5 0.868565 0.303760 0.115107
Si Si6 0.348508 0.222238 0.220160
Si Si7 0.608557 0.136794 0.200609
Si Si8 0.570353 0.351283 0.014234
O O1 0.212275 0.117259 0.669066
O O2 0.268352 0.227233 0.665390
O O3 0.388717 0.164805 0.548830
O O4 0.042790 0.186038 0.567917
O O5 0.236818 0.538214 0.806820
O O6 0.153866 0.643598 0.815188
O O7 0.019673 0.570960 0.694787
O O8 0.053655 0.524740 0.392877
O O9 0.123486 0.414135 0.446792
O O10 0.502733 0.593770 0.241806
O O11 0.762361 0.606487 0.136895
O O12 0.465150 0.635179 0.086359
O O13 0.880232 0.248787 0.181724
O O14 0.712234 0.308198 0.050001
O O15 0.499898 0.191893 0.171458
O O16 0.228511 0.169665 0.233747
#
# Coordination Sequence:
#
# PCOD9459063 Si02
#       8
#     8   8   8   8   8   8   8   8
#     4  10  18  34  60  95 122 151 186 257 320 360
#     4   9  17  29  56  95 118 144 206 252 297 370
#     4  10  18  34  60  81 124 163 197 252 303 357
#     4  11  23  42  56  83 116 168 214 246 303 356
#     4  10  18  34  62  95 124 149 184 257 322 361
#     4  10  18  36  62  90 113 154 200 242 302 364
#     4  10  22  38  61  78 114 159 209 254 278 363
#     4  10  23  37  59  93 125 154 198 256 316 366
#
# _framework density 22.145478000000001
#
# number of rings (size 3 to 8) (size 9 to 14) (size 15 to 20)
#    0.000    2.000    2.500    1.875    3.500    0.000 
#    4.500    3.750    0.000    3.000    0.000    0.000 
#    0.000    0.000    0.000    0.000    0.000    0.000 
#
# Total GULP energy -356344.161921 kJ/mol
# GULP energy per Si atom -5567.877530 kJ/mol
# Density = 2.209507 g / cm^3
# Si number density = 22.145478 Si / 1000 Ang^3
#
#
#
# Elastic Constant Matrix: (Units=GPa)
#
#
# Indices 1 2 3 4 5 6 
#
# 1 93.7079 10.1391 20.7563 0.0000 0.0000 0.0000
# 2 10.1391 61.4897 5.0422 0.0000 0.0000 0.0000
# 3 20.7563 5.0422 26.6970 0.0000 0.0000 0.0000
# 4 0.0000 0.0000 0.0000 10.9893 0.0000 0.0000
# 5 0.0000 0.0000 0.0000 0.0000 14.9197 0.0000
# 6 0.0000 0.0000 0.0000 0.0000 0.0000 23.8127
#
#
#
# Elastic Compliance Matrix: (Units=1/GPa)
#
#
# Indices 1 2 3 4 5 6 
#
# 1 0.012999 -0.001335 -0.009854 0.000000 0.000000 0.000000
# 2 -0.001335 0.016656 -0.002108 0.000000 0.000000 0.000000
# 3 -0.009854 -0.002108 0.045517 0.000000 0.000000 0.000000
# 4 0.000000 0.000000 0.000000 0.090998 0.000000 0.000000
# 5 0.000000 0.000000 0.000000 0.000000 0.067026 0.000000
# 6 0.000000 0.000000 0.000000 0.000000 0.000000 0.041994
#
#
# Mechanical properties :
#
#
# Convention : Reuss Voigt Hill
#
# Bulk Modulus (GPa) = 20.58565 28.19666 24.39115
# Shear Modulus (GPa) = 15.72449 19.67478 17.69963
#
# Velocity S-wave (km/s) = 2.66757 2.98389 2.83016
# Velocity P-wave (km/s) = 4.33633 4.96302 4.66022
#
# Compressibility (1/GPa) = 0.04857752
#
# Stress axis : x y z
#
# Youngs Moduli (GPa) = 76.93143 60.03879 21.96995
#
# Poissons Ratio (x) = 0.08017 0.21649
# Poissons Ratio (y) = 0.10273 0.04630
# Poissons Ratio (z) = 0.75808 0.12654
#
# Static dielectric constant tensor:
#      x y z
#    x 1.970850 0.000000 0.000000 
#    y 0.000000 1.819160 0.000000 
#    z 0.000000 0.000000 1.892420 
# 
# From -- ./inp_files/9071.got.cif
#   From: 2010.05.17/outbox.cif.g08.bks.cpg/sg61_5_cif.got.tgz:9071.got - 2010.06.03 15:17:17.
