data_PCOD9459249
_publ_section_title
;
Structure prediction by ZEFSAII (Michael W. Deem and Ramdas Pophale) SiO2 
 PCOD9459249
Probable space group: P B C A
;
_chemical_formula_sum "Si O2"
_cell_formula_units_Z 64
_cell_length_a 16.618952
_cell_length_b 9.369263
_cell_length_c 20.573894
_cell_angle_alpha 90.000000
_cell_angle_beta 90.000000
_cell_angle_gamma 90.000000
_cell_volume 3203.506145
_symmetry_space_group_name_H-M "P B C A"
_symmetry_group_IT_number 61
_symmetry_cell_setting 'orthorhombic'
loop_
_space_group_symop_operation_xyz
x,y,z
1/2-x,-y,1/2+z
1/2+x,1/2-y,-z
-x,1/2+y,1/2-z
-x,-y,-z
1/2+x,y,1/2-z
1/2-x,1/2+y,z
x,1/2-y,1/2+z
loop_
_atom_site_type_symbol
_atom_site_label
_atom_site_fract_x
_atom_site_fract_y
_atom_site_fract_z
Si Si1 0.618715 0.936107 0.030932
Si Si2 0.768553 0.899381 0.109281
Si Si3 0.726211 0.728731 0.818579
Si Si4 0.789692 0.481072 0.904167
Si Si5 0.817638 0.969609 0.734482
Si Si6 0.908720 0.675720 0.137241
Si Si7 0.865581 0.966874 0.987817
Si Si8 0.490997 0.215372 0.536095
O O1 0.809823 0.349022 0.068100
O O2 0.595570 0.054439 0.082471
O O3 0.545476 0.844100 0.005032
O O4 0.657381 0.006287 0.967273
O O5 0.736858 0.984389 0.172070
O O6 0.830016 0.776684 0.131418
O O7 0.817715 0.990030 0.055571
O O8 0.782978 0.619952 0.859126
O O9 0.675634 0.614796 0.776268
O O10 0.681764 0.837378 0.867605
O O11 0.774571 0.842476 0.774203
O O12 0.700362 0.446298 0.931935
O O13 0.899846 0.904431 0.705468
O O14 0.985841 0.760610 0.111683
O O15 0.922744 0.096250 0.969232
O O16 0.926624 0.838052 0.002384
#
# Coordination Sequence:
#
# PCOD9459249 Si02
#       8
#     8   8   8   8   8   8   8   8
#     4  10  21  31  57  85 119 143 186 229 299 349
#     4   9  19  32  58  84 115 142 185 248 287 323
#     4  10  21  34  56  86 107 150 194 244 280 318
#     4  10  21  36  59  86 117 146 191 247 277 339
#     4  10  19  36  55  84 110 143 199 243 283 324
#     4  10  20  34  54  85 118 145 178 246 285 344
#     4   9  20  35  57  85 119 149 184 226 303 353
#     4  10  20  34  52  88 119 155 177 218 301 369
#
# _framework density 19.978109
#
# number of rings (size 3 to 8) (size 9 to 14) (size 15 to 20)
#    0.000    2.250    1.250    1.125   10.500    0.000 
#    0.000    0.000    0.000    4.500   22.750    0.000 
#    0.000    0.000    0.000    0.000    0.000    0.000 
#
# Total GULP energy -356684.527850 kJ/mol
# GULP energy per Si atom -5573.195748 kJ/mol
# Density = 1.993264 g / cm^3
# Si number density = 19.978109 Si / 1000 Ang^3
#
#
#
# Elastic Constant Matrix: (Units=GPa)
#
#
# Indices 1 2 3 4 5 6 
#
# 1 52.4996 2.0855 1.6852 0.0000 0.0000 0.0000
# 2 2.0855 65.3703 -0.2623 0.0000 0.0000 0.0000
# 3 1.6852 -0.2623 52.8968 0.0000 0.0000 0.0000
# 4 0.0000 0.0000 0.0000 21.2895 0.0000 0.0000
# 5 0.0000 0.0000 0.0000 0.0000 9.8822 0.0000
# 6 0.0000 0.0000 0.0000 0.0000 0.0000 26.6738
#
#
#
# Elastic Compliance Matrix: (Units=1/GPa)
#
#
# Indices 1 2 3 4 5 6 
#
# 1 0.019092 -0.000612 -0.000611 0.000000 0.000000 0.000000
# 2 -0.000612 0.015317 0.000095 0.000000 0.000000 0.000000
# 3 -0.000611 0.000095 0.018925 0.000000 0.000000 0.000000
# 4 0.000000 0.000000 0.000000 0.046972 0.000000 0.000000
# 5 0.000000 0.000000 0.000000 0.000000 0.101192 0.000000
# 6 0.000000 0.000000 0.000000 0.000000 0.000000 0.037490
#
#
# Mechanical properties :
#
#
# Convention : Reuss Voigt Hill
#
# Bulk Modulus (GPa) = 19.57752 19.75372 19.66562
# Shear Modulus (GPa) = 19.35971 22.71965 21.03968
#
# Velocity S-wave (km/s) = 3.11633 3.37594 3.24873
# Velocity P-wave (km/s) = 4.77173 5.01050 4.89257
#
# Compressibility (1/GPa) = 0.05107901
#
# Stress axis : x y z
#
# Youngs Moduli (GPa) = 52.37887 65.28544 52.84103
#
# Poissons Ratio (x) = 0.03992 0.03230
# Poissons Ratio (y) = 0.03203 -0.00504
# Poissons Ratio (z) = 0.03202 -0.00623
#
# Static dielectric constant tensor:
#      x y z
#    x 1.747050 0.000000 0.000000 
#    y 0.000000 1.755000 0.000000 
#    z 0.000000 0.000000 1.738640 
# 
# From -- ./inp_files/10538.got.cif
#   From: 2010.05.17/outbox.cif.g08.bks.cpg/sg61_6_cif.got.tgz:10538.got - 2010.06.03 15:17:17.
