data_PCOD9459088
_publ_section_title
;
Structure prediction by ZEFSAII (Michael W. Deem and Ramdas Pophale) SiO2 
 PCOD9459088
Probable space group: P B C A
;
_chemical_formula_sum "Si O2"
_cell_formula_units_Z 56
_cell_length_a 9.379669
_cell_length_b 19.616233
_cell_length_c 16.475496
_cell_angle_alpha 90.000000
_cell_angle_beta 90.000000
_cell_angle_gamma 90.000000
_cell_volume 3031.388664
_symmetry_space_group_name_H-M "P B C A"
_symmetry_group_IT_number 61
_symmetry_cell_setting 'orthorhombic'
loop_
_space_group_symop_operation_xyz
x,y,z
1/2-x,-y,1/2+z
1/2+x,1/2-y,-z
-x,1/2+y,1/2-z
-x,-y,-z
1/2+x,y,1/2-z
1/2-x,1/2+y,z
x,1/2-y,1/2+z
loop_
_atom_site_type_symbol
_atom_site_label
_atom_site_fract_x
_atom_site_fract_y
_atom_site_fract_z
Si Si1 0.598749 0.125105 0.953422
Si Si2 0.161720 0.872499 0.909318
Si Si3 0.597741 0.276869 0.887950
Si Si4 0.597095 0.344770 0.717996
Si Si5 0.294815 0.512166 0.666054
Si Si6 0.365952 0.366236 0.586807
Si Si7 0.989071 0.020255 0.188623
O O1 0.599108 0.198382 0.910704
O O2 0.622014 0.065503 0.889317
O O3 0.729153 0.121810 0.017251
O O4 0.454946 0.118375 0.006051
O O5 0.254641 0.853552 0.829305
O O6 0.043700 0.814470 0.920425
O O7 0.082188 0.943302 0.888660
O O8 0.602906 0.291327 0.791098
O O9 0.733274 0.316517 0.924669
O O10 0.475858 0.332087 0.650916
O O11 0.556437 0.416763 0.759627
O O12 0.313789 0.437010 0.626702
O O13 0.368002 0.511618 0.754481
O O14 0.125464 0.526053 0.669476
#
# Coordination Sequence:
#
# PCOD9459088 Si02
#       7
#     8   8   8   8   8   8   8
#     4  11  25  36  54  90 127 144 179 252 305 325
#     4  10  19  37  61  83 109 155 203 226 276 356
#     4  11  19  37  58  85 114 152 198 239 281 340
#     4   9  17  34  63  83 100 151 207 233 259 341
#     4  11  21  40  59  87 115 149 196 241 283 340
#     4  10  20  38  62  80 112 159 199 228 281 352
#     4  10  18  36  63  82 108 150 196 231 273 348
#
# _framework density 18.473382999999998
#
# number of rings (size 3 to 8) (size 9 to 14) (size 15 to 20)
#    0.000    1.714    4.286    3.000    0.000    0.571 
#    5.143    0.000    0.000    0.000    0.000    0.000 
#    0.000    0.000    0.000    0.000    0.000    0.000 
#
# Total GULP energy -312672.536708 kJ/mol
# GULP energy per Si atom -5583.438155 kJ/mol
# Density = 1.843134 g / cm^3
# Si number density = 18.473383 Si / 1000 Ang^3
#
#
#
# Elastic Constant Matrix: (Units=GPa)
#
#
# Indices 1 2 3 4 5 6 
#
# 1 82.1563 5.2413 -4.9027 0.0000 0.0000 0.0000
# 2 5.2413 31.6419 6.5610 0.0000 0.0000 0.0000
# 3 -4.9027 6.5610 35.7451 0.0000 0.0000 0.0000
# 4 0.0000 0.0000 0.0000 64.5731 0.0000 0.0000
# 5 0.0000 0.0000 0.0000 0.0000 13.1412 0.0000
# 6 0.0000 0.0000 0.0000 0.0000 0.0000 7.9489
#
#
#
# Elastic Compliance Matrix: (Units=1/GPa)
#
#
# Indices 1 2 3 4 5 6 
#
# 1 0.012462 -0.002514 0.002171 0.000000 0.000000 0.000000
# 2 -0.002514 0.033361 -0.006468 0.000000 0.000000 0.000000
# 3 0.002171 -0.006468 0.029461 0.000000 0.000000 0.000000
# 4 0.000000 0.000000 0.000000 0.015486 0.000000 0.000000
# 5 0.000000 0.000000 0.000000 0.000000 0.076096 0.000000
# 6 0.000000 0.000000 0.000000 0.000000 0.000000 0.125803
#
#
# Mechanical properties :
#
#
# Convention : Reuss Voigt Hill
#
# Bulk Modulus (GPa) = 16.21791 18.14917 17.18354
# Shear Modulus (GPa) = 15.29768 26.64223 20.96995
#
# Velocity S-wave (km/s) = 2.88078 3.80174 3.37285
# Velocity P-wave (km/s) = 4.45683 5.39600 4.94875
#
# Compressibility (1/GPa) = 0.06166022
#
# Stress axis : x y z
#
# Youngs Moduli (GPa) = 80.24476 29.97478 33.94339
#
# Poissons Ratio (x) = 0.07537 -0.07368
# Poissons Ratio (y) = 0.20176 0.21956
# Poissons Ratio (z) = -0.17419 0.19389
#
# Static dielectric constant tensor:
#      x y z
#    x 1.665810 0.000000 0.000000 
#    y 0.000000 1.595790 0.000000 
#    z 0.000000 0.000000 1.642240 
# 
# From -- ./inp_files/7147.got.cif
#   From: 2010.05.17/outbox.cif.g08.bks.cpg/sg61_4_cif.got.tgz:7147.got - 2010.06.03 15:17:17.
