data_PCOD9459480
_publ_section_title
;
Structure prediction by ZEFSAII (Michael W. Deem and Ramdas Pophale) SiO2 
 PCOD9459480
Probable space group: P B C A
;
_chemical_formula_sum "Si O2"
_cell_formula_units_Z 40
_cell_length_a 17.126244
_cell_length_b 7.776249
_cell_length_c 13.751439
_cell_angle_alpha 90.000000
_cell_angle_beta 90.000000
_cell_angle_gamma 90.000000
_cell_volume 1831.388288
_symmetry_space_group_name_H-M "P B C A"
_symmetry_group_IT_number 61
_symmetry_cell_setting 'orthorhombic'
loop_
_space_group_symop_operation_xyz
x,y,z
1/2-x,-y,1/2+z
1/2+x,1/2-y,-z
-x,1/2+y,1/2-z
-x,-y,-z
1/2+x,y,1/2-z
1/2-x,1/2+y,z
x,1/2-y,1/2+z
loop_
_atom_site_type_symbol
_atom_site_label
_atom_site_fract_x
_atom_site_fract_y
_atom_site_fract_z
Si Si1 0.573714 0.662322 0.435594
Si Si2 0.653201 0.526795 0.014027
Si Si3 0.171339 0.137888 0.463777
Si Si4 0.060994 0.057845 0.293295
Si Si5 0.472584 0.296841 0.869612
O O1 0.622417 0.839966 0.431851
O O2 0.631358 0.513075 0.472685
O O3 0.520952 0.607065 0.346655
O O4 0.514820 0.705150 0.525937
O O5 0.737568 0.594958 0.045980
O O6 0.660941 0.327026 0.992060
O O7 0.589295 0.556587 0.100144
O O8 0.129795 0.134999 0.358165
O O9 0.046408 0.129572 0.186318
O O10 0.066124 0.853011 0.305169
#
# Coordination Sequence:
#
# PCOD9459480 Si02
#       5
#     8   8   8   8   8
#     4   9  22  38  61  85 122 152 204 242 297 359
#     4  10  20  36  62  82 118 158 196 238 308 354
#     4  11  18  36  63  83 114 163 190 246 303 347
#     4  11  20  39  61  89 124 155 203 254 288 369
#     4   9  20  36  58  87 118 156 196 246 301 345
#
# _framework density 21.841355
#
# number of rings (size 3 to 8) (size 9 to 14) (size 15 to 20)
#    1.200    0.800    2.000    3.600    0.000    0.800 
#    3.600    0.000   22.000    0.000    0.000    0.000 
#    0.000    0.000    0.000    0.000    0.000    0.000 
#
# Total GULP energy -223151.272440 kJ/mol
# GULP energy per Si atom -5578.781811 kJ/mol
# Density = 2.179164 g / cm^3
# Si number density = 21.841355 Si / 1000 Ang^3
#
#
#
# Elastic Constant Matrix: (Units=GPa)
#
#
# Indices 1 2 3 4 5 6 
#
# 1 85.7726 15.7812 20.3679 0.0000 0.0000 0.0000
# 2 15.7812 145.2381 24.4618 0.0000 0.0000 0.0000
# 3 20.3679 24.4618 46.9361 0.0000 0.0000 0.0000
# 4 0.0000 0.0000 0.0000 24.0645 0.0000 0.0000
# 5 0.0000 0.0000 0.0000 0.0000 18.4455 0.0000
# 6 0.0000 0.0000 0.0000 0.0000 0.0000 34.6033
#
#
#
# Elastic Compliance Matrix: (Units=1/GPa)
#
#
# Indices 1 2 3 4 5 6 
#
# 1 0.013032 -0.000508 -0.005391 0.000000 0.000000 0.000000
# 2 -0.000508 0.007568 -0.003724 0.000000 0.000000 0.000000
# 3 -0.005391 -0.003724 0.025585 0.000000 0.000000 0.000000
# 4 0.000000 0.000000 0.000000 0.041555 0.000000 0.000000
# 5 0.000000 0.000000 0.000000 0.000000 0.054214 0.000000
# 6 0.000000 0.000000 0.000000 0.000000 0.000000 0.028899
#
#
# Mechanical properties :
#
#
# Convention : Reuss Voigt Hill
#
# Bulk Modulus (GPa) = 37.11833 44.35208 40.73520
# Shear Modulus (GPa) = 25.11584 29.91172 27.51378
#
# Velocity S-wave (km/s) = 3.39473 3.70469 3.55309
# Velocity P-wave (km/s) = 5.69183 6.21693 5.96017
#
# Compressibility (1/GPa) = 0.02694087
#
# Stress axis : x y z
#
# Youngs Moduli (GPa) = 76.73257 132.14233 39.08488
#
# Poissons Ratio (x) = 0.06715 0.21069
# Poissons Ratio (y) = 0.03899 0.14553
# Poissons Ratio (z) = 0.41363 0.49203
#
# Static dielectric constant tensor:
#      x y z
#    x 1.769480 0.000000 0.000000 
#    y 0.000000 1.841590 0.000000 
#    z 0.000000 0.000000 1.840550 
# 
# From -- ./inp_files/3488.got.cif
#   From: 2010.05.17/outbox.cif.g08.bks.cpg/sg61_2_cif.got.tgz:3488.got - 2010.06.03 15:17:17.
