data_PCOD9459890
_publ_section_title
;
Structure prediction by ZEFSAII (Michael W. Deem and Ramdas Pophale) SiO2 
 PCOD9459890
Probable space group: P B C A
;
_chemical_formula_sum "Si O2"
_cell_formula_units_Z 48
_cell_length_a 24.348729
_cell_length_b 13.100583
_cell_length_c 7.621567
_cell_angle_alpha 90.000000
_cell_angle_beta 90.000000
_cell_angle_gamma 90.000000
_cell_volume 2431.146840
_symmetry_space_group_name_H-M "P B C A"
_symmetry_group_IT_number 61
_symmetry_cell_setting 'orthorhombic'
loop_
_space_group_symop_operation_xyz
x,y,z
1/2-x,-y,1/2+z
1/2+x,1/2-y,-z
-x,1/2+y,1/2-z
-x,-y,-z
1/2+x,y,1/2-z
1/2-x,1/2+y,z
x,1/2-y,1/2+z
loop_
_atom_site_type_symbol
_atom_site_label
_atom_site_fract_x
_atom_site_fract_y
_atom_site_fract_z
Si Si1 0.560085 0.485226 0.795530
Si Si2 0.582035 0.651937 0.526367
Si Si3 0.768568 0.741611 0.948823
Si Si4 0.945168 0.379252 0.628663
Si Si5 0.200365 0.627867 0.793456
Si Si6 0.174633 0.101631 0.309050
O O1 0.548810 0.570140 0.645093
O O2 0.507145 0.417138 0.834871
O O3 0.610927 0.419070 0.725487
O O4 0.576554 0.544847 0.975669
O O5 0.583459 0.622215 0.320651
O O6 0.558056 0.765172 0.550771
O O7 0.642178 0.649658 0.615651
O O8 0.711942 0.687041 0.886726
O O9 0.801179 0.813111 0.817170
O O10 0.748403 0.822544 0.092535
O O11 0.808498 0.649544 0.005241
O O12 0.203932 0.506679 0.778822
#
# Coordination Sequence:
#
# PCOD9459890 Si02
#       6
#     8   8   8   8   8   8
#     4  10  24  42  60  93 128 170 215 267 324 390
#     4  11  21  40  65  94 124 167 216 266 327 384
#     4  10  21  39  61  88 126 163 204 262 322 378
#     4  11  22  40  64  93 128 165 217 271 320 383
#     4  10  21  38  62  92 120 163 211 261 316 380
#     4  10  22  41  59  89 125 163 211 256 320 388
#
# _framework density 19.743769
#
# number of rings (size 3 to 8) (size 9 to 14) (size 15 to 20)
#    0.000    1.667    1.667    2.500    2.333    1.333 
#   15.000    0.000    0.000    0.000    0.000    0.000 
#    0.000    0.000    0.000    0.000    0.000    0.000 
#
# Total GULP energy -267573.505639 kJ/mol
# GULP energy per Si atom -5574.448034 kJ/mol
# Density = 1.969883 g / cm^3
# Si number density = 19.743769 Si / 1000 Ang^3
#
#
#
# Elastic Constant Matrix: (Units=GPa)
#
#
# Indices 1 2 3 4 5 6 
#
# 1 66.2372 39.0662 14.5302 0.0000 0.0000 0.0000
# 2 39.0662 112.8857 26.2705 0.0000 0.0000 0.0000
# 3 14.5302 26.2705 77.6517 0.0000 0.0000 0.0000
# 4 0.0000 0.0000 0.0000 24.0172 0.0000 0.0000
# 5 0.0000 0.0000 0.0000 0.0000 49.8702 0.0000
# 6 0.0000 0.0000 0.0000 0.0000 0.0000 31.6824
#
#
#
# Elastic Compliance Matrix: (Units=1/GPa)
#
#
# Indices 1 2 3 4 5 6 
#
# 1 0.019119 -0.006278 -0.001454 0.000000 0.000000 0.000000
# 2 -0.006278 0.011677 -0.002776 0.000000 0.000000 0.000000
# 3 -0.001454 -0.002776 0.014089 0.000000 0.000000 0.000000
# 4 0.000000 0.000000 0.000000 0.041637 0.000000 0.000000
# 5 0.000000 0.000000 0.000000 0.000000 0.020052 0.000000
# 6 0.000000 0.000000 0.000000 0.000000 0.000000 0.031563
#
#
# Mechanical properties :
#
#
# Convention : Reuss Voigt Hill
#
# Bulk Modulus (GPa) = 41.89323 46.27869 44.08596
# Shear Modulus (GPa) = 29.92059 32.90782 31.41420
#
# Velocity S-wave (km/s) = 3.89709 4.08701 3.99318
# Velocity P-wave (km/s) = 6.44316 6.76476 6.60592
#
# Compressibility (1/GPa) = 0.02387021
#
# Stress axis : x y z
#
# Youngs Moduli (GPa) = 52.30412 85.63716 70.97697
#
# Poissons Ratio (x) = 0.53765 0.10317
# Poissons Ratio (y) = 0.32838 0.19701
# Poissons Ratio (z) = 0.07603 0.23771
#
# Static dielectric constant tensor:
#      x y z
#    x 1.660810 0.000000 0.000000 
#    y 0.000000 1.668370 0.000000 
#    z 0.000000 0.000000 1.882690 
# 
# From -- ./inp_files/4228.got.cif
#   From: 2010.05.17/outbox.cif.g08.bks.cpg/sg61_3_cif.got.tgz:4228.got - 2010.06.03 15:17:17.
