data_PCOD9459272
_publ_section_title
;
Structure prediction by ZEFSAII (Michael W. Deem and Ramdas Pophale) SiO2 
 PCOD9459272
Probable space group: P B C A
;
_chemical_formula_sum "Si O2"
_cell_formula_units_Z 48
_cell_length_a 5.668232
_cell_length_b 13.593719
_cell_length_c 25.505685
_cell_angle_alpha 90.000000
_cell_angle_beta 90.000000
_cell_angle_gamma 90.000000
_cell_volume 1965.273045
_symmetry_space_group_name_H-M "P B C A"
_symmetry_group_IT_number 61
_symmetry_cell_setting 'orthorhombic'
loop_
_space_group_symop_operation_xyz
x,y,z
1/2-x,-y,1/2+z
1/2+x,1/2-y,-z
-x,1/2+y,1/2-z
-x,-y,-z
1/2+x,y,1/2-z
1/2-x,1/2+y,z
x,1/2-y,1/2+z
loop_
_atom_site_type_symbol
_atom_site_label
_atom_site_fract_x
_atom_site_fract_y
_atom_site_fract_z
Si Si1 0.676076 0.763011 0.236344
Si Si2 0.132222 0.692111 0.375847
Si Si3 0.478832 0.351630 0.537478
Si Si4 0.304592 0.978532 0.617587
Si Si5 0.604057 0.961246 0.774221
Si Si6 0.218127 0.165372 0.563682
O O1 0.412498 0.809456 0.239033
O O2 0.735147 0.741901 0.175701
O O3 0.628255 0.657439 0.264852
O O4 0.311186 0.662485 0.421175
O O5 0.009050 0.589838 0.359382
O O6 0.941501 0.768406 0.398550
O O7 0.290839 0.419212 0.567149
O O8 0.376829 0.241662 0.531701
O O9 0.558031 0.386311 0.480444
O O10 0.113783 0.983291 0.663833
O O11 0.362726 0.086616 0.597108
O O12 0.353511 0.995726 0.750935
#
# Coordination Sequence:
#
# PCOD9459272 Si02
#       6
#     8   8   8   8   8   8
#     4  10  19  36  66  95 130 179 226 276 348 417
#     4  11  23  41  68  95 132 180 222 282 349 416
#     4  11  23  45  66  92 139 176 223 294 350 411
#     4  11  24  40  71  98 128 182 236 277 353 422
#     4  10  19  38  65  98 137 175 226 287 345 416
#     4  11  25  44  63 101 135 175 233 289 346 418
#
# _framework density 24.424085999999999
#
# number of rings (size 3 to 8) (size 9 to 14) (size 15 to 20)
#    0.000    1.333    5.000    2.500    2.333    2.000 
#    0.000    1.667    0.000    0.000    0.000    0.000 
#    0.000    0.000    0.000    0.000    0.000    0.000 
#
# Total GULP energy -268445.272255 kJ/mol
# GULP energy per Si atom -5592.609839 kJ/mol
# Density = 2.436850 g / cm^3
# Si number density = 24.424086 Si / 1000 Ang^3
#
#
#
# Elastic Constant Matrix: (Units=GPa)
#
#
# Indices 1 2 3 4 5 6 
#
# 1 93.6721 17.5773 -8.5579 0.0000 0.0000 0.0000
# 2 17.5773 61.4157 1.1352 0.0000 0.0000 0.0000
# 3 -8.5579 1.1352 80.4746 0.0000 0.0000 0.0000
# 4 0.0000 0.0000 0.0000 15.0274 0.0000 0.0000
# 5 0.0000 0.0000 0.0000 0.0000 42.6288 0.0000
# 6 0.0000 0.0000 0.0000 0.0000 0.0000 27.5005
#
#
#
# Elastic Compliance Matrix: (Units=1/GPa)
#
#
# Indices 1 2 3 4 5 6 
#
# 1 0.011408 -0.003288 0.001260 0.000000 0.000000 0.000000
# 2 -0.003288 0.017235 -0.000593 0.000000 0.000000 0.000000
# 3 0.001260 -0.000593 0.012569 0.000000 0.000000 0.000000
# 4 0.000000 0.000000 0.000000 0.066545 0.000000 0.000000
# 5 0.000000 0.000000 0.000000 0.000000 0.023458 0.000000
# 6 0.000000 0.000000 0.000000 0.000000 0.000000 0.036363
#
#
# Mechanical properties :
#
#
# Convention : Reuss Voigt Hill
#
# Bulk Modulus (GPa) = 27.80262 28.43017 28.11640
# Shear Modulus (GPa) = 27.05494 32.05854 29.55674
#
# Velocity S-wave (km/s) = 3.33185 3.62688 3.48249
# Velocity P-wave (km/s) = 5.11953 5.40412 5.26375
#
# Compressibility (1/GPa) = 0.03596783
#
# Stress axis : x y z
#
# Youngs Moduli (GPa) = 87.66067 58.02312 79.56345
#
# Poissons Ratio (x) = 0.19079 -0.10021
# Poissons Ratio (y) = 0.28824 0.04716
# Poissons Ratio (z) = -0.11041 0.03440
#
# Static dielectric constant tensor:
#      x y z
#    x 2.009570 0.000000 0.000000 
#    y 0.000000 1.967970 0.000000 
#    z 0.000000 0.000000 1.974670 
# 
# From -- ./inp_files/510.got.cif
#   From: 2010.05.17/outbox.cif.g08.bks.cpg/sg61_1_cif.got.tgz:510.got - 2010.06.03 15:17:17.
