data_PCOD9459385
_publ_section_title
;
Structure prediction by ZEFSAII (Michael W. Deem and Ramdas Pophale) SiO2 
 PCOD9459385
Probable space group: P B C A
;
_chemical_formula_sum "Si O2"
_cell_formula_units_Z 64
_cell_length_a 5.294957
_cell_length_b 18.207456
_cell_length_c 28.526770
_cell_angle_alpha 90.000000
_cell_angle_beta 90.000000
_cell_angle_gamma 90.000000
_cell_volume 2750.200187
_symmetry_space_group_name_H-M "P B C A"
_symmetry_group_IT_number 61
_symmetry_cell_setting 'orthorhombic'
loop_
_space_group_symop_operation_xyz
x,y,z
1/2-x,-y,1/2+z
1/2+x,1/2-y,-z
-x,1/2+y,1/2-z
-x,-y,-z
1/2+x,y,1/2-z
1/2-x,1/2+y,z
x,1/2-y,1/2+z
loop_
_atom_site_type_symbol
_atom_site_label
_atom_site_fract_x
_atom_site_fract_y
_atom_site_fract_z
Si Si1 0.235751 0.328072 0.466298
Si Si2 0.448507 0.456300 0.932411
Si Si3 0.955792 0.620290 0.228903
Si Si4 0.265173 0.573634 0.529210
Si Si5 0.253680 0.308274 0.569643
Si Si6 0.617608 0.741413 0.630088
Si Si7 0.635098 0.109640 0.131520
Si Si8 0.149747 0.204011 0.773352
O O1 0.472264 0.384808 0.465111
O O2 0.275291 0.284349 0.515502
O O3 0.247269 0.282162 0.418419
O O4 0.971980 0.370884 0.466536
O O5 0.687112 0.509345 0.935048
O O6 0.542213 0.372241 0.933622
O O7 0.282313 0.461083 0.886047
O O8 0.272377 0.464086 0.978189
O O9 0.676600 0.590586 0.238420
O O10 0.039824 0.601675 0.176195
O O11 0.913656 0.708494 0.234677
O O12 0.167905 0.249510 0.609174
O O13 0.486532 0.354816 0.588371
O O14 0.678484 0.824284 0.646258
O O15 0.723140 0.696742 0.674727
O O16 0.367111 0.174883 0.737742
#
# Coordination Sequence:
#
# PCOD9459385 Si02
#       8
#     8   8   8   8   8   8   8   8
#     4  11  24  38  54  81 116 154 188 220 270 329
#     4   9  20  36  55  80 106 144 191 230 270 312
#     4   9  19  31  49  74 108 137 174 221 273 333
#     4  10  22  38  57  78 109 148 190 236 260 306
#     4  10  22  33  54  80 117 151 180 220 274 338
#     4  10  24  34  54  82 117 150 181 225 276 348
#     4  10  20  34  54  80 110 148 181 220 282 334
#     4   9  19  34  53  76 103 141 184 230 274 318
#
# _framework density 23.271032999999999
#
# number of rings (size 3 to 8) (size 9 to 14) (size 15 to 20)
#    0.000    2.250    1.250    0.000   15.750    1.500 
#    0.000    0.000    0.000    0.000    0.000    5.250 
#    0.000    0.000    0.000    0.000    0.000    0.000 
#
# Total GULP energy -356545.502146 kJ/mol
# GULP energy per Si atom -5571.023471 kJ/mol
# Density = 2.321807 g / cm^3
# Si number density = 23.271033 Si / 1000 Ang^3
#
#
#
# Elastic Constant Matrix: (Units=GPa)
#
#
# Indices 1 2 3 4 5 6 
#
# 1 103.6758 12.7721 12.5708 0.0000 0.0000 0.0000
# 2 12.7721 28.4653 6.4585 0.0000 0.0000 0.0000
# 3 12.5708 6.4585 71.5610 0.0000 0.0000 0.0000
# 4 0.0000 0.0000 0.0000 12.1300 0.0000 0.0000
# 5 0.0000 0.0000 0.0000 0.0000 26.6973 0.0000
# 6 0.0000 0.0000 0.0000 0.0000 0.0000 24.4176
#
#
#
# Elastic Compliance Matrix: (Units=1/GPa)
#
#
# Indices 1 2 3 4 5 6 
#
# 1 0.010351 -0.004320 -0.001428 0.000000 0.000000 0.000000
# 2 -0.004320 0.037668 -0.002641 0.000000 0.000000 0.000000
# 3 -0.001428 -0.002641 0.014463 0.000000 0.000000 0.000000
# 4 0.000000 0.000000 0.000000 0.082440 0.000000 0.000000
# 5 0.000000 0.000000 0.000000 0.000000 0.037457 0.000000
# 6 0.000000 0.000000 0.000000 0.000000 0.000000 0.040954
#
#
# Mechanical properties :
#
#
# Convention : Reuss Voigt Hill
#
# Bulk Modulus (GPa) = 21.88009 29.70053 25.79031
# Shear Modulus (GPa) = 19.58123 24.10903 21.84513
#
# Velocity S-wave (km/s) = 2.90391 3.22220 3.06719
# Velocity P-wave (km/s) = 4.54602 5.16082 4.86314
#
# Compressibility (1/GPa) = 0.04570364
#
# Stress axis : x y z
#
# Youngs Moduli (GPa) = 96.61033 26.54771 69.14037
#
# Poissons Ratio (x) = 0.11469 0.09876
# Poissons Ratio (y) = 0.41738 0.18258
# Poissons Ratio (z) = 0.13800 0.07010
#
# Static dielectric constant tensor:
#      x y z
#    x 2.292130 0.000000 0.000000 
#    y 0.000000 1.908820 0.000000 
#    z 0.000000 0.000000 1.947860 
# 
# From -- ./inp_files/11305.got.cif
#   From: 2010.05.17/outbox.cif.g08.bks.cpg/sg61_6_cif.got.tgz:11305.got - 2010.06.03 15:17:17.
