data_PCOD9459813
_publ_section_title
;
Structure prediction by ZEFSAII (Michael W. Deem and Ramdas Pophale) SiO2 
 PCOD9459813
Probable space group: P B C A
;
_chemical_formula_sum "Si O2"
_cell_formula_units_Z 56
_cell_length_a 9.558259
_cell_length_b 13.565913
_cell_length_c 20.669996
_cell_angle_alpha 90.000000
_cell_angle_beta 90.000000
_cell_angle_gamma 90.000000
_cell_volume 2680.206244
_symmetry_space_group_name_H-M "P B C A"
_symmetry_group_IT_number 61
_symmetry_cell_setting 'orthorhombic'
loop_
_space_group_symop_operation_xyz
x,y,z
1/2-x,-y,1/2+z
1/2+x,1/2-y,-z
-x,1/2+y,1/2-z
-x,-y,-z
1/2+x,y,1/2-z
1/2-x,1/2+y,z
x,1/2-y,1/2+z
loop_
_atom_site_type_symbol
_atom_site_label
_atom_site_fract_x
_atom_site_fract_y
_atom_site_fract_z
Si Si1 0.554940 0.831747 0.565749
Si Si2 0.870994 0.788693 0.818951
Si Si3 0.153892 0.223798 0.952597
Si Si4 0.577103 0.807074 0.853132
Si Si5 0.850282 0.522829 0.617439
Si Si6 0.993704 0.866761 0.236587
Si Si7 0.383651 0.949711 0.795108
O O1 0.510673 0.798912 0.638275
O O2 0.435246 0.795515 0.517021
O O3 0.705218 0.788346 0.543930
O O4 0.562362 0.950099 0.571806
O O5 0.740290 0.802905 0.867265
O O6 0.880631 0.682485 0.784363
O O7 0.855496 0.873524 0.763685
O O8 0.198307 0.118201 0.922225
O O9 0.037619 0.272914 0.905007
O O10 0.563075 0.728965 0.794809
O O11 0.527901 0.912083 0.826506
O O12 0.933139 0.567457 0.678484
O O13 0.732857 0.453542 0.649683
O O14 0.098328 0.938832 0.272636
#
# Coordination Sequence:
#
# PCOD9459813 Si02
#       7
#     8   8   8   8   8   8   8
#     4  12  24  46  69  96 132 184 223 284 331 399
#     4  11  23  37  66  99 135 175 222 269 349 400
#     4  11  25  45  70  93 134 176 234 276 332 396
#     4  10  22  38  60  94 129 173 215 274 333 396
#     4  11  22  41  67  99 130 177 218 274 335 399
#     4  10  21  36  61  98 135 171 214 273 334 409
#     4  11  20  37  64  95 136 167 217 273 339 404
#
# _framework density 20.893913000000001
#
# number of rings (size 3 to 8) (size 9 to 14) (size 15 to 20)
#    0.000    1.143    2.857    3.857    2.000    0.000 
#    0.000    0.714    0.000    0.000    0.000    0.000 
#    0.000    0.000    0.000    0.000    0.000    0.000 
#
# Total GULP energy -312470.399175 kJ/mol
# GULP energy per Si atom -5579.828557 kJ/mol
# Density = 2.084636 g / cm^3
# Si number density = 20.893913 Si / 1000 Ang^3
#
#
#
# Elastic Constant Matrix: (Units=GPa)
#
#
# Indices 1 2 3 4 5 6 
#
# 1 91.8105 6.0222 25.9086 0.0000 0.0000 0.0000
# 2 6.0222 63.0745 19.7099 0.0000 0.0000 0.0000
# 3 25.9086 19.7099 73.5695 0.0000 0.0000 0.0000
# 4 0.0000 0.0000 0.0000 22.6626 0.0000 0.0000
# 5 0.0000 0.0000 0.0000 0.0000 34.8771 0.0000
# 6 0.0000 0.0000 0.0000 0.0000 0.0000 10.1120
#
#
#
# Elastic Compliance Matrix: (Units=1/GPa)
#
#
# Indices 1 2 3 4 5 6 
#
# 1 0.012096 0.000192 -0.004311 0.000000 0.000000 0.000000
# 2 0.000192 0.017306 -0.004704 0.000000 0.000000 0.000000
# 3 -0.004311 -0.004704 0.016371 0.000000 0.000000 0.000000
# 4 0.000000 0.000000 0.000000 0.044126 0.000000 0.000000
# 5 0.000000 0.000000 0.000000 0.000000 0.028672 0.000000
# 6 0.000000 0.000000 0.000000 0.000000 0.000000 0.098893
#
#
# Mechanical properties :
#
#
# Convention : Reuss Voigt Hill
#
# Bulk Modulus (GPa) = 35.55327 36.85957 36.20642
# Shear Modulus (GPa) = 20.45114 25.31792 22.88453
#
# Velocity S-wave (km/s) = 3.13199 3.48478 3.31308
# Velocity P-wave (km/s) = 5.48928 5.81989 5.65700
#
# Compressibility (1/GPa) = 0.02812681
#
# Stress axis : x y z
#
# Youngs Moduli (GPa) = 82.67178 57.78384 61.08296
#
# Poissons Ratio (x) = -0.01111 0.26335
# Poissons Ratio (y) = -0.01590 0.28734
# Poissons Ratio (z) = 0.35643 0.27182
#
# Static dielectric constant tensor:
#      x y z
#    x 1.827390 0.000000 0.000000 
#    y 0.000000 1.724730 0.000000 
#    z 0.000000 0.000000 1.777280 
# 
# From -- ./inp_files/10138.got.cif
#   From: 2010.05.17/outbox.cif.g08.bks.cpg/sg61_6_cif.got.tgz:10138.got - 2010.06.03 15:17:17.
