data_PCOD9459679
_publ_section_title
;
Structure prediction by ZEFSAII (Michael W. Deem and Ramdas Pophale) SiO2 
 PCOD9459679
Probable space group: P B C A
;
_chemical_formula_sum "Si O2"
_cell_formula_units_Z 64
_cell_length_a 22.236285
_cell_length_b 10.609623
_cell_length_c 12.615637
_cell_angle_alpha 90.000000
_cell_angle_beta 90.000000
_cell_angle_gamma 90.000000
_cell_volume 2976.263429
_symmetry_space_group_name_H-M "P B C A"
_symmetry_group_IT_number 61
_symmetry_cell_setting 'orthorhombic'
loop_
_space_group_symop_operation_xyz
x,y,z
1/2-x,-y,1/2+z
1/2+x,1/2-y,-z
-x,1/2+y,1/2-z
-x,-y,-z
1/2+x,y,1/2-z
1/2-x,1/2+y,z
x,1/2-y,1/2+z
loop_
_atom_site_type_symbol
_atom_site_label
_atom_site_fract_x
_atom_site_fract_y
_atom_site_fract_z
Si Si1 0.194518 0.974339 0.773576
Si Si2 0.602641 0.064801 0.901127
Si Si3 0.082308 0.486850 0.419549
Si Si4 0.905836 0.802304 0.612521
Si Si5 0.157508 0.303793 0.683221
Si Si6 0.391771 0.076688 0.641517
Si Si7 0.006377 0.024559 0.271137
Si Si8 0.776059 0.295082 0.285361
O O1 0.214494 0.830120 0.784137
O O2 0.155210 0.991985 0.663925
O O3 0.148333 0.000700 0.867960
O O4 0.248393 0.077060 0.766345
O O5 0.608471 0.205929 0.856391
O O6 0.538559 0.014036 0.864341
O O7 0.606325 0.089432 0.025779
O O8 0.076196 0.334974 0.431912
O O9 0.078072 0.567411 0.526486
O O10 0.035333 0.536658 0.332460
O O11 0.848222 0.791914 0.689662
O O12 0.958617 0.853046 0.688679
O O13 0.142709 0.442878 0.649155
O O14 0.221069 0.253383 0.641176
O O15 0.339437 0.176669 0.659584
O O16 0.441849 0.073370 0.733696
#
# Coordination Sequence:
#
# PCOD9459679 Si02
#       8
#     8   8   8   8   8   8   8   8
#     4  10  23  43  68  92 139 177 221 286 339 400
#     4  10  20  41  65  97 131 175 230 273 340 407
#     4  11  22  44  64 102 131 182 227 282 348 407
#     4  11  20  38  71  95 129 180 227 270 350 407
#     4  10  20  40  66  93 130 176 215 281 340 403
#     4  11  23  41  67  99 132 179 229 272 353 401
#     4  10  23  39  62  99 136 179 223 291 332 413
#     4  11  21  44  65  95 135 177 222 285 331 404
#
# _framework density 21.503473
#
# number of rings (size 3 to 8) (size 9 to 14) (size 15 to 20)
#    0.000    1.500    6.250    0.750    0.000    2.000 
#    6.750    3.750    0.000    0.000    0.000    0.000 
#    0.000    0.000    0.000    0.000    0.000    0.000 
#
# Total GULP energy -356754.027113 kJ/mol
# GULP energy per Si atom -5574.281674 kJ/mol
# Density = 2.145453 g / cm^3
# Si number density = 21.503473 Si / 1000 Ang^3
#
#
#
# Elastic Constant Matrix: (Units=GPa)
#
#
# Indices 1 2 3 4 5 6 
#
# 1 82.8916 35.5257 21.7367 0.0000 0.0000 0.0000
# 2 35.5257 81.5536 8.6700 0.0000 0.0000 0.0000
# 3 21.7367 8.6700 67.3989 0.0000 0.0000 0.0000
# 4 0.0000 0.0000 0.0000 21.9983 0.0000 0.0000
# 5 0.0000 0.0000 0.0000 0.0000 10.0994 0.0000
# 6 0.0000 0.0000 0.0000 0.0000 0.0000 34.8961
#
#
#
# Elastic Compliance Matrix: (Units=1/GPa)
#
#
# Indices 1 2 3 4 5 6 
#
# 1 0.015984 -0.006504 -0.004318 0.000000 0.000000 0.000000
# 2 -0.006504 0.015078 0.000158 0.000000 0.000000 0.000000
# 3 -0.004318 0.000158 0.016209 0.000000 0.000000 0.000000
# 4 0.000000 0.000000 0.000000 0.045458 0.000000 0.000000
# 5 0.000000 0.000000 0.000000 0.000000 0.099016 0.000000
# 6 0.000000 0.000000 0.000000 0.000000 0.000000 0.028656
#
#
# Mechanical properties :
#
#
# Convention : Reuss Voigt Hill
#
# Bulk Modulus (GPa) = 38.54575 40.41210 39.47893
# Shear Modulus (GPa) = 19.96984 24.45953 22.21468
#
# Velocity S-wave (km/s) = 3.05073 3.37630 3.21763
# Velocity P-wave (km/s) = 5.51122 5.83380 5.67480
#
# Compressibility (1/GPa) = 0.02594319
#
# Stress axis : x y z
#
# Youngs Moduli (GPa) = 62.56401 66.32123 61.69257
#
# Poissons Ratio (x) = 0.43132 0.26640
# Poissons Ratio (y) = 0.40689 -0.00974
# Poissons Ratio (z) = 0.27017 -0.01047
#
# Static dielectric constant tensor:
#      x y z
#    x 1.876640 0.000000 0.000000 
#    y 0.000000 1.795450 0.000000 
#    z 0.000000 0.000000 1.835730 
# 
# From -- ./inp_files/6636.got.cif
#   From: 2010.05.17/outbox.cif.g08.bks.cpg/sg61_4_cif.got.tgz:6636.got - 2010.06.03 15:17:17.
