data_PCOD9459836
_publ_section_title
;
Structure prediction by ZEFSAII (Michael W. Deem and Ramdas Pophale) SiO2 
 PCOD9459836
Probable space group: P B C A
;
_chemical_formula_sum "Si O2"
_cell_formula_units_Z 56
_cell_length_a 5.339745
_cell_length_b 29.509988
_cell_length_c 14.341975
_cell_angle_alpha 90.000000
_cell_angle_beta 90.000000
_cell_angle_gamma 90.000000
_cell_volume 2259.948340
_symmetry_space_group_name_H-M "P B C A"
_symmetry_group_IT_number 61
_symmetry_cell_setting 'orthorhombic'
loop_
_space_group_symop_operation_xyz
x,y,z
1/2-x,-y,1/2+z
1/2+x,1/2-y,-z
-x,1/2+y,1/2-z
-x,-y,-z
1/2+x,y,1/2-z
1/2-x,1/2+y,z
x,1/2-y,1/2+z
loop_
_atom_site_type_symbol
_atom_site_label
_atom_site_fract_x
_atom_site_fract_y
_atom_site_fract_z
Si Si1 0.793133 0.620110 0.391523
Si Si2 0.269951 0.887977 0.382013
Si Si3 0.293135 0.640973 0.431063
Si Si4 0.730052 0.432154 0.412098
Si Si5 0.720204 0.709788 0.703843
Si Si6 0.667362 0.480533 0.811572
Si Si7 0.585101 0.231169 0.968262
O O1 0.778694 0.620857 0.505841
O O2 0.528606 0.639938 0.363750
O O3 0.819381 0.570065 0.351585
O O4 0.042239 0.647628 0.373830
O O5 0.544848 0.906319 0.359236
O O6 0.205189 0.842461 0.328637
O O7 0.042404 0.922689 0.369643
O O8 0.277135 0.591989 0.485616
O O9 0.326212 0.680090 0.507846
O O10 0.796384 0.484413 0.397438
O O11 0.516188 0.716766 0.785192
O O12 0.577502 0.737152 0.624453
O O13 0.402361 0.487037 0.758957
O O14 0.845590 0.258426 0.964713
#
# Coordination Sequence:
#
# PCOD9459836 Si02
#       7
#     8   8   8   8   8   8   8
#     4  10  21  40  68  86 138 170 245 277 319 413
#     4  10  21  38  64  96 125 176 221 258 341 405
#     4  10  21  41  67 100 120 172 238 267 345 394
#     4  10  21  37  60  89 137 164 229 270 338 405
#     4  12  25  41  68 105 143 168 209 282 353 406
#     4  12  26  41  58  95 138 186 236 290 350 380
#     4  12  25  44  73 105 137 184 228 273 337 433
#
# _framework density 24.779326000000001
#
# number of rings (size 3 to 8) (size 9 to 14) (size 15 to 20)
#    0.000    1.143    2.857    4.286    4.000    8.000 
#    0.000    0.000    0.000   17.143    0.000    0.000 
#    0.000    0.000    0.000    0.000    0.000    0.000 
#
# Total GULP energy -312704.134293 kJ/mol
# GULP energy per Si atom -5584.002398 kJ/mol
# Density = 2.472293 g / cm^3
# Si number density = 24.779326 Si / 1000 Ang^3
#
#
#
# Elastic Constant Matrix: (Units=GPa)
#
#
# Indices 1 2 3 4 5 6 
#
# 1 206.7830 17.2664 9.2512 0.0000 0.0000 0.0000
# 2 17.2664 42.8584 0.1413 0.0000 0.0000 0.0000
# 3 9.2512 0.1413 42.1452 0.0000 0.0000 0.0000
# 4 0.0000 0.0000 0.0000 30.7339 0.0000 0.0000
# 5 0.0000 0.0000 0.0000 0.0000 12.9576 0.0000
# 6 0.0000 0.0000 0.0000 0.0000 0.0000 29.2267
#
#
#
# Elastic Compliance Matrix: (Units=1/GPa)
#
#
# Indices 1 2 3 4 5 6 
#
# 1 0.005055 -0.002033 -0.001103 0.000000 0.000000 0.000000
# 2 -0.002033 0.024150 0.000365 0.000000 0.000000 0.000000
# 3 -0.001103 0.000365 0.023968 0.000000 0.000000 0.000000
# 4 0.000000 0.000000 0.000000 0.032537 0.000000 0.000000
# 5 0.000000 0.000000 0.000000 0.000000 0.077175 0.000000
# 6 0.000000 0.000000 0.000000 0.000000 0.000000 0.034215
#
#
# Mechanical properties :
#
#
# Convention : Reuss Voigt Hill
#
# Bulk Modulus (GPa) = 20.99386 38.34493 29.66940
# Shear Modulus (GPa) = 22.88120 32.25881 27.57000
#
# Velocity S-wave (km/s) = 3.04204 3.61202 3.33922
# Velocity P-wave (km/s) = 4.56393 5.73618 5.18330
#
# Compressibility (1/GPa) = 0.04763297
#
# Stress axis : x y z
#
# Youngs Moduli (GPa) = 197.82107 41.40709 41.72172
#
# Poissons Ratio (x) = 0.08418 0.04601
# Poissons Ratio (y) = 0.40215 -0.01524
# Poissons Ratio (z) = 0.21816 -0.01513
#
# Static dielectric constant tensor:
#      x y z
#    x 2.126880 0.000000 0.000000 
#    y 0.000000 1.939260 0.000000 
#    z 0.000000 0.000000 2.153520 
# 
# From -- ./inp_files/6873.got.cif
#   From: 2010.05.17/outbox.cif.g08.bks.cpg/sg61_4_cif.got.tgz:6873.got - 2010.06.03 15:17:17.
