data_PCOD9459217
_publ_section_title
;
Structure prediction by ZEFSAII (Michael W. Deem and Ramdas Pophale) SiO2 
 PCOD9459217
Probable space group: P B C A
;
_chemical_formula_sum "Si O2"
_cell_formula_units_Z 64
_cell_length_a 5.210569
_cell_length_b 18.357870
_cell_length_c 32.944414
_cell_angle_alpha 90.000000
_cell_angle_beta 90.000000
_cell_angle_gamma 90.000000
_cell_volume 3151.296219
_symmetry_space_group_name_H-M "P B C A"
_symmetry_group_IT_number 61
_symmetry_cell_setting 'orthorhombic'
loop_
_space_group_symop_operation_xyz
x,y,z
1/2-x,-y,1/2+z
1/2+x,1/2-y,-z
-x,1/2+y,1/2-z
-x,-y,-z
1/2+x,y,1/2-z
1/2-x,1/2+y,z
x,1/2-y,1/2+z
loop_
_atom_site_type_symbol
_atom_site_label
_atom_site_fract_x
_atom_site_fract_y
_atom_site_fract_z
Si Si1 0.487362 0.222949 0.521447
Si Si2 0.560358 0.850890 0.929645
Si Si3 0.246630 0.074993 0.499689
Si Si4 0.099956 0.999938 0.155481
Si Si5 0.608180 0.404264 0.655297
Si Si6 0.032566 0.710499 0.223728
Si Si7 0.504332 0.618190 0.776484
Si Si8 0.608514 0.016772 0.434475
O O1 0.778774 0.242159 0.509761
O O2 0.419360 0.264742 0.563307
O O3 0.435962 0.137207 0.517954
O O4 0.452946 0.880308 0.972651
O O5 0.395046 0.873146 0.890665
O O6 0.813195 0.899795 0.924662
O O7 0.378519 0.024213 0.465869
O O8 0.179410 0.026250 0.538723
O O9 0.881676 0.060030 0.165002
O O10 0.383516 0.034869 0.158347
O O11 0.058686 0.979510 0.108221
O O12 0.060364 0.933175 0.185569
O O13 0.531783 0.340573 0.686015
O O14 0.313281 0.696584 0.242394
O O15 0.017729 0.796116 0.212913
O O16 0.226255 0.603974 0.756868
#
# Coordination Sequence:
#
# PCOD9459217 Si02
#       8
#     8   8   8   8   8   8   8   8
#     4  10  20  34  54  78 105 143 189 234 277 333
#     4  10  20  36  55  80 118 149 195 241 292 332
#     4  10  19  35  56  78 110 155 195 234 287 335
#     4  11  23  39  58  91 122 150 197 240 293 346
#     4  11  23  37  61  87 120 155 189 246 294 345
#     4  10  22  41  62  88 117 152 193 234 289 357
#     4  10  22  41  65  87 121 157 191 239 295 354
#     4  10  20  35  55  81 113 152 191 238 283 338
#
# _framework density 20.309104000000001
#
# number of rings (size 3 to 8) (size 9 to 14) (size 15 to 20)
#    0.000    1.750    2.500    1.875    0.000    4.000 
#    0.000    0.000    0.000    6.000    0.000    0.000 
#    0.000    0.000    0.000    0.000    0.000    0.000 
#
# Total GULP energy -356910.307445 kJ/mol
# GULP energy per Si atom -5576.723554 kJ/mol
# Density = 2.026288 g / cm^3
# Si number density = 20.309104 Si / 1000 Ang^3
#
#
#
# Elastic Constant Matrix: (Units=GPa)
#
#
# Indices 1 2 3 4 5 6 
#
# 1 57.6765 4.9618 0.4642 0.0000 0.0000 0.0000
# 2 4.9618 64.8571 52.1415 0.0000 0.0000 0.0000
# 3 0.4642 52.1415 87.9202 0.0000 0.0000 0.0000
# 4 0.0000 0.0000 0.0000 36.7955 0.0000 0.0000
# 5 0.0000 0.0000 0.0000 0.0000 18.9146 0.0000
# 6 0.0000 0.0000 0.0000 0.0000 0.0000 23.9518
#
#
#
# Elastic Compliance Matrix: (Units=1/GPa)
#
#
# Indices 1 2 3 4 5 6 
#
# 1 0.017536 -0.002422 0.001344 0.000000 0.000000 0.000000
# 2 -0.002422 0.029803 -0.017662 0.000000 0.000000 0.000000
# 3 0.001344 -0.017662 0.021841 0.000000 0.000000 0.000000
# 4 0.000000 0.000000 0.000000 0.027177 0.000000 0.000000
# 5 0.000000 0.000000 0.000000 0.000000 0.052869 0.000000
# 6 0.000000 0.000000 0.000000 0.000000 0.000000 0.041750
#
#
# Mechanical properties :
#
#
# Convention : Reuss Voigt Hill
#
# Bulk Modulus (GPa) = 31.54599 36.17654 33.86127
# Shear Modulus (GPa) = 20.91839 26.12481 23.52160
#
# Velocity S-wave (km/s) = 3.21284 3.59048 3.40690
# Velocity P-wave (km/s) = 5.41570 5.91949 5.67319
#
# Compressibility (1/GPa) = 0.03169975
#
# Stress axis : x y z
#
# Youngs Moduli (GPa) = 57.02683 33.55352 45.78446
#
# Poissons Ratio (x) = 0.08126 -0.06152
# Poissons Ratio (y) = 0.13811 0.80865
# Poissons Ratio (z) = -0.07663 0.59263
#
# Static dielectric constant tensor:
#      x y z
#    x 1.781570 0.000000 0.000000 
#    y 0.000000 1.783170 0.000000 
#    z 0.000000 0.000000 1.720720 
# 
# From -- ./inp_files/11637.got.cif
#   From: 2010.05.17/outbox.cif.g08.bks.cpg/sg61_6_cif.got.tgz:11637.got - 2010.06.03 15:17:17.
