data_PCOD9459528
_publ_section_title
;
Structure prediction by ZEFSAII (Michael W. Deem and Ramdas Pophale) SiO2 
 PCOD9459528
Probable space group: P B C A
;
_chemical_formula_sum "Si O2"
_cell_formula_units_Z 40
_cell_length_a 25.146687
_cell_length_b 4.942291
_cell_length_c 13.114994
_cell_angle_alpha 90.000000
_cell_angle_beta 90.000000
_cell_angle_gamma 90.000000
_cell_volume 1629.960895
_symmetry_space_group_name_H-M "P B C A"
_symmetry_group_IT_number 61
_symmetry_cell_setting 'orthorhombic'
loop_
_space_group_symop_operation_xyz
x,y,z
1/2-x,-y,1/2+z
1/2+x,1/2-y,-z
-x,1/2+y,1/2-z
-x,-y,-z
1/2+x,y,1/2-z
1/2-x,1/2+y,z
x,1/2-y,1/2+z
loop_
_atom_site_type_symbol
_atom_site_label
_atom_site_fract_x
_atom_site_fract_y
_atom_site_fract_z
Si Si1 0.590598 0.919055 0.091587
Si Si2 0.645838 0.420681 0.011293
Si Si3 0.629389 0.721879 0.811023
Si Si4 0.511377 0.873929 0.818318
Si Si5 0.784653 0.574682 0.704522
O O1 0.626210 0.115221 0.022653
O O2 0.530212 0.014491 0.099982
O O3 0.599696 0.611941 0.058755
O O4 0.613553 0.937787 0.207375
O O5 0.694948 0.458619 0.088224
O O6 0.653297 0.532527 0.898473
O O7 0.572334 0.836137 0.848811
O O8 0.669236 0.958003 0.776615
O O9 0.490803 0.590260 0.773740
O O10 0.765764 0.879031 0.720373
#
# Coordination Sequence:
#
# PCOD9459528 Si02
#       5
#     8   8   8   8   8
#     4  10  22  41  62  95 135 164 202 256 307 373
#     4  11  24  41  65  94 125 166 213 256 313 380
#     4  10  24  42  67  94 127 169 211 257 314 377
#     4  10  20  37  63  92 129 170 204 247 309 375
#     4  11  24  43  63  87 122 159 206 267 315 359
#
# _framework density 24.540465000000001
#
# number of rings (size 3 to 8) (size 9 to 14) (size 15 to 20)
#    0.000    1.600    0.000    6.000    0.000   12.800 
#    0.000    0.000    0.000    0.000    0.000    0.000 
#    0.000    0.000    0.000    0.000    0.000    0.000 
#
# Total GULP energy -224104.289217 kJ/mol
# GULP energy per Si atom -5602.607230 kJ/mol
# Density = 2.448461 g / cm^3
# Si number density = 24.540465 Si / 1000 Ang^3
#
#
#
# Elastic Constant Matrix: (Units=GPa)
#
#
# Indices 1 2 3 4 5 6 
#
# 1 102.3346 11.3019 15.2302 0.0000 0.0000 0.0000
# 2 11.3019 75.5761 6.3679 0.0000 0.0000 0.0000
# 3 15.2302 6.3679 92.9583 0.0000 0.0000 0.0000
# 4 0.0000 0.0000 0.0000 32.2838 0.0000 0.0000
# 5 0.0000 0.0000 0.0000 0.0000 25.2893 0.0000
# 6 0.0000 0.0000 0.0000 0.0000 0.0000 15.5221
#
#
#
# Elastic Compliance Matrix: (Units=1/GPa)
#
#
# Indices 1 2 3 4 5 6 
#
# 1 0.010159 -0.001387 -0.001569 0.000000 0.000000 0.000000
# 2 -0.001387 0.013498 -0.000697 0.000000 0.000000 0.000000
# 3 -0.001569 -0.000697 0.011062 0.000000 0.000000 0.000000
# 4 0.000000 0.000000 0.000000 0.030975 0.000000 0.000000
# 5 0.000000 0.000000 0.000000 0.000000 0.039542 0.000000
# 6 0.000000 0.000000 0.000000 0.000000 0.000000 0.064424
#
#
# Mechanical properties :
#
#
# Convention : Reuss Voigt Hill
#
# Bulk Modulus (GPa) = 36.48106 37.40767 36.94436
# Shear Modulus (GPa) = 26.86647 30.48364 28.67506
#
# Velocity S-wave (km/s) = 3.31234 3.52828 3.42201
# Velocity P-wave (km/s) = 5.43385 5.64577 5.54082
#
# Compressibility (1/GPa) = 0.02741149
#
# Stress axis : x y z
#
# Youngs Moduli (GPa) = 98.43875 74.08575 90.39624
#
# Poissons Ratio (x) = 0.10275 0.14186
# Poissons Ratio (y) = 0.13653 0.06304
# Poissons Ratio (z) = 0.15449 0.05167
#
# Static dielectric constant tensor:
#      x y z
#    x 1.923030 0.000000 0.000000 
#    y 0.000000 1.882860 0.000000 
#    z 0.000000 0.000000 1.993320 
# 
# From -- ./inp_files/8443.got.cif
#   From: 2010.05.17/outbox.cif.g08.bks.cpg/sg61_5_cif.got.tgz:8443.got - 2010.06.03 15:17:17.
