data_PCOD9459593
_publ_section_title
;
Structure prediction by ZEFSAII (Michael W. Deem and Ramdas Pophale) SiO2 
 PCOD9459593
Probable space group: P B C A
;
_chemical_formula_sum "Si O2"
_cell_formula_units_Z 40
_cell_length_a 12.671918
_cell_length_b 16.783905
_cell_length_c 8.055006
_cell_angle_alpha 90.000000
_cell_angle_beta 90.000000
_cell_angle_gamma 90.000000
_cell_volume 1713.173054
_symmetry_space_group_name_H-M "P B C A"
_symmetry_group_IT_number 61
_symmetry_cell_setting 'orthorhombic'
loop_
_space_group_symop_operation_xyz
x,y,z
1/2-x,-y,1/2+z
1/2+x,1/2-y,-z
-x,1/2+y,1/2-z
-x,-y,-z
1/2+x,y,1/2-z
1/2-x,1/2+y,z
x,1/2-y,1/2+z
loop_
_atom_site_type_symbol
_atom_site_label
_atom_site_fract_x
_atom_site_fract_y
_atom_site_fract_z
Si Si1 0.905576 0.855650 0.031127
Si Si2 0.480294 0.273613 0.721586
Si Si3 0.722608 0.845240 0.784679
Si Si4 0.426715 0.001100 0.250600
Si Si5 0.408956 0.901085 0.932507
O O1 0.947611 0.801964 0.183497
O O2 0.922795 0.946498 0.086856
O O3 0.978291 0.822502 0.880931
O O4 0.787999 0.846206 0.956996
O O5 0.354347 0.269384 0.730893
O O6 0.501205 0.333227 0.564372
O O7 0.810311 0.854765 0.642906
O O8 0.650525 0.923321 0.754035
O O9 0.542411 0.031604 0.191378
O O10 0.387295 0.943879 0.102729
#
# Coordination Sequence:
#
# PCOD9459593 Si02
#       5
#     8   8   8   8   8
#     4  11  23  41  66  94 132 172 222 282 334 404
#     4  10  23  40  59  90 129 171 218 273 335 397
#     4  10  22  39  62  92 127 172 217 266 334 401
#     4  10  20  38  65  94 126 166 214 273 336 397
#     4   9  20  38  58  89 128 161 209 265 321 396
#
# _framework density 23.348486999999999
#
# number of rings (size 3 to 8) (size 9 to 14) (size 15 to 20)
#    0.000    2.000    0.000    2.400    0.000   12.000 
#    0.000    6.000    0.000    0.000    0.000    0.000 
#    0.000    0.000    0.000    0.000    0.000    0.000 
#
# Total GULP energy -223121.819978 kJ/mol
# GULP energy per Si atom -5578.045499 kJ/mol
# Density = 2.329534 g / cm^3
# Si number density = 23.348487 Si / 1000 Ang^3
#
#
#
# Elastic Constant Matrix: (Units=GPa)
#
#
# Indices 1 2 3 4 5 6 
#
# 1 123.4284 44.0706 28.2725 0.0000 0.0000 0.0000
# 2 44.0706 84.1076 24.5405 0.0000 0.0000 0.0000
# 3 28.2725 24.5405 90.5158 0.0000 0.0000 0.0000
# 4 0.0000 0.0000 0.0000 45.5082 0.0000 0.0000
# 5 0.0000 0.0000 0.0000 0.0000 24.7059 0.0000
# 6 0.0000 0.0000 0.0000 0.0000 0.0000 25.3127
#
#
#
# Elastic Compliance Matrix: (Units=1/GPa)
#
#
# Indices 1 2 3 4 5 6 
#
# 1 0.010258 -0.004821 -0.001897 0.000000 0.000000 0.000000
# 2 -0.004821 0.015177 -0.002609 0.000000 0.000000 0.000000
# 3 -0.001897 -0.002609 0.012348 0.000000 0.000000 0.000000
# 4 0.000000 0.000000 0.000000 0.021974 0.000000 0.000000
# 5 0.000000 0.000000 0.000000 0.000000 0.040476 0.000000
# 6 0.000000 0.000000 0.000000 0.000000 0.000000 0.039506
#
#
# Mechanical properties :
#
#
# Convention : Reuss Voigt Hill
#
# Bulk Modulus (GPa) = 52.27860 54.64655 53.46257
# Shear Modulus (GPa) = 30.34553 32.51658 31.43105
#
# Velocity S-wave (km/s) = 3.60902 3.73589 3.67300
# Velocity P-wave (km/s) = 6.30919 6.48573 6.39807
#
# Compressibility (1/GPa) = 0.01912829
#
# Stress axis : x y z
#
# Youngs Moduli (GPa) = 97.48606 65.88892 80.98767
#
# Poissons Ratio (x) = 0.31768 0.15362
# Poissons Ratio (y) = 0.47003 0.21128
# Poissons Ratio (z) = 0.18492 0.17189
#
# Static dielectric constant tensor:
#      x y z
#    x 1.926020 0.000000 0.000000 
#    y 0.000000 1.935030 0.000000 
#    z 0.000000 0.000000 1.974990 
# 
# From -- ./inp_files/2131.got.cif
#   From: 2010.05.17/outbox.cif.g08.bks.cpg/sg61_2_cif.got.tgz:2131.got - 2010.06.03 15:17:17.
