data_PCOD9459638
_publ_section_title
;
Structure prediction by ZEFSAII (Michael W. Deem and Ramdas Pophale) SiO2 
 PCOD9459638
Probable space group: P B C A
;
_chemical_formula_sum "Si O2"
_cell_formula_units_Z 48
_cell_length_a 11.419283
_cell_length_b 16.130513
_cell_length_c 14.044127
_cell_angle_alpha 90.000000
_cell_angle_beta 90.000000
_cell_angle_gamma 90.000000
_cell_volume 2586.912645
_symmetry_space_group_name_H-M "P B C A"
_symmetry_group_IT_number 61
_symmetry_cell_setting 'orthorhombic'
loop_
_space_group_symop_operation_xyz
x,y,z
1/2-x,-y,1/2+z
1/2+x,1/2-y,-z
-x,1/2+y,1/2-z
-x,-y,-z
1/2+x,y,1/2-z
1/2-x,1/2+y,z
x,1/2-y,1/2+z
loop_
_atom_site_type_symbol
_atom_site_label
_atom_site_fract_x
_atom_site_fract_y
_atom_site_fract_z
Si Si1 0.412984 0.475000 0.640733
Si Si2 0.658083 0.478132 0.150648
Si Si3 0.950572 0.147365 0.861396
Si Si4 0.240978 0.412074 0.011450
Si Si5 0.103619 0.619875 0.853003
Si Si6 0.009134 0.183318 0.459540
O O1 0.354845 0.484719 0.743655
O O2 0.325384 0.511415 0.562032
O O3 0.525021 0.536238 0.638484
O O4 0.452774 0.383975 0.611962
O O5 0.538268 0.430226 0.127406
O O6 0.762848 0.410705 0.147691
O O7 0.688910 0.550472 0.077104
O O8 0.828668 0.127059 0.912520
O O9 0.929311 0.159363 0.748669
O O10 0.003921 0.227404 0.912251
O O11 0.140423 0.347682 0.981464
O O12 0.064790 0.675950 0.942123
#
# Coordination Sequence:
#
# PCOD9459638 Si02
#       6
#     8   8   8   8   8   8
#     4  10  20  39  65  88 114 169 215 239 299 385
#     4  11  21  40  67  90 125 164 209 257 296 373
#     4  11  26  38  60 100 127 153 206 267 317 345
#     4  11  21  41  65  89 121 169 209 249 302 378
#     4  10  20  42  65  84 123 168 206 244 312 373
#     4  11  23  41  64  91 123 165 205 256 315 367
#
# _framework density 18.554936999999999
#
# number of rings (size 3 to 8) (size 9 to 14) (size 15 to 20)
#    0.000    1.333    5.000    1.500    2.333    1.333 
#    0.000    1.667    0.000    0.000    0.000    0.000 
#    0.000    0.000    0.000    0.000    0.000    0.000 
#
# Total GULP energy -268190.509795 kJ/mol
# GULP energy per Si atom -5587.302287 kJ/mol
# Density = 1.851271 g / cm^3
# Si number density = 18.554937 Si / 1000 Ang^3
#
#
#
# Elastic Constant Matrix: (Units=GPa)
#
#
# Indices 1 2 3 4 5 6 
#
# 1 65.4427 24.8901 31.6264 0.0000 0.0000 0.0000
# 2 24.8901 35.1907 41.6627 0.0000 0.0000 0.0000
# 3 31.6264 41.6627 124.8094 0.0000 0.0000 0.0000
# 4 0.0000 0.0000 0.0000 27.2541 0.0000 0.0000
# 5 0.0000 0.0000 0.0000 0.0000 32.2155 0.0000
# 6 0.0000 0.0000 0.0000 0.0000 0.0000 15.7645
#
#
#
# Elastic Compliance Matrix: (Units=1/GPa)
#
#
# Indices 1 2 3 4 5 6 
#
# 1 0.020931 -0.014096 -0.000599 0.000000 0.000000 0.000000
# 2 -0.014096 0.056478 -0.015281 0.000000 0.000000 0.000000
# 3 -0.000599 -0.015281 0.013265 0.000000 0.000000 0.000000
# 4 0.000000 0.000000 0.000000 0.036692 0.000000 0.000000
# 5 0.000000 0.000000 0.000000 0.000000 0.031041 0.000000
# 6 0.000000 0.000000 0.000000 0.000000 0.000000 0.063434
#
#
# Mechanical properties :
#
#
# Convention : Reuss Voigt Hill
#
# Bulk Modulus (GPa) = 32.54887 46.86681 39.70784
# Shear Modulus (GPa) = 17.12144 23.53106 20.32625
#
# Velocity S-wave (km/s) = 3.04096 3.56502 3.31337
# Velocity P-wave (km/s) = 5.46900 6.50070 6.00704
#
# Compressibility (1/GPa) = 0.03072303
#
# Stress axis : x y z
#
# Youngs Moduli (GPa) = 47.77634 17.70607 75.38701
#
# Poissons Ratio (x) = 0.24958 0.04513
# Poissons Ratio (y) = 0.67344 1.15200
# Poissons Ratio (z) = 0.02860 0.27057
#
# Static dielectric constant tensor:
#      x y z
#    x 1.643460 0.000000 0.000000 
#    y 0.000000 1.595690 0.000000 
#    z 0.000000 0.000000 1.643120 
# 
# From -- ./inp_files/5242.got.cif
#   From: 2010.05.17/outbox.cif.g08.bks.cpg/sg61_3_cif.got.tgz:5242.got - 2010.06.03 15:17:17.
