data_PCOD9459548
_publ_section_title
;
Structure prediction by ZEFSAII (Michael W. Deem and Ramdas Pophale) SiO2 
 PCOD9459548
Probable space group: P B C A
;
_chemical_formula_sum "Si O2"
_cell_formula_units_Z 60
_cell_length_a 9.509977
_cell_length_b 8.532876
_cell_length_c 34.925723
_cell_angle_alpha 90.000000
_cell_angle_beta 90.000000
_cell_angle_gamma 90.000000
_cell_volume 2834.133518
_symmetry_space_group_name_H-M "P B C A"
_symmetry_group_IT_number 61
_symmetry_cell_setting 'orthorhombic'
loop_
_space_group_symop_operation_xyz
x,y,z
1/2-x,-y,1/2+z
1/2+x,1/2-y,-z
-x,1/2+y,1/2-z
-x,-y,-z
1/2+x,y,1/2-z
1/2-x,1/2+y,z
x,1/2-y,1/2+z
loop_
_atom_site_type_symbol
_atom_site_label
_atom_site_fract_x
_atom_site_fract_y
_atom_site_fract_z
Si Si1 0.606627 0.659546 0.290336
Si Si2 0.589563 0.480230 0.449176
Si Si3 0.593586 0.680803 0.071388
Si Si4 0.460340 0.848070 0.649518
Si Si5 0.583035 0.028680 0.273577
Si Si6 0.821172 0.507950 0.864620
Si Si7 0.857169 0.807952 0.519990
Si Si8 0.500000 0.500000 0.000000
O O1 0.589633 0.843760 0.282331
O O2 0.490055 0.565984 0.266433
O O3 0.760380 0.600918 0.276250
O O4 0.603182 0.609679 0.334941
O O5 0.470248 0.352113 0.438205
O O6 0.655541 0.527597 0.409170
O O7 0.509842 0.622691 0.469441
O O8 0.687873 0.395501 0.480687
O O9 0.575090 0.648687 0.116125
O O10 0.748933 0.671194 0.054138
O O11 0.503337 0.566051 0.044804
O O12 0.378390 0.681793 0.644980
O O13 0.504492 0.881123 0.692943
O O14 0.343911 0.982305 0.642064
O O15 0.881686 0.629734 0.511013
#
# Coordination Sequence:
#
# PCOD9459548 Si02
#       8
#     8   8   8   8   8   8   8   4
#     4  11  22  40  68  96 132 170 221 271 330 399
#     4   9  21  38  57  84 117 161 198 256 320 366
#     4  10  21  37  57  87 119 156 202 260 310 375
#     4  10  21  37  60  90 125 163 210 258 322 379
#     4  11  22  41  66  99 132 174 216 271 330 399
#     4  10  20  38  59  88 122 161 209 259 306 390
#     4  10  20  39  58  82 118 156 206 259 312 381
#     4  10  22  34  58  84 106 158 202 242 316 370
#
# _framework density 21.170491999999999
#
# number of rings (size 3 to 8) (size 9 to 14) (size 15 to 20)
#    0.000    1.867    0.000    5.600    1.867    2.133 
#   12.000    0.000    2.933    0.000    0.000    0.000 
#    0.000    0.000    0.000    0.000    0.000    0.000 
#
# Total GULP energy -334094.005181 kJ/mol
# GULP energy per Si atom -5568.233420 kJ/mol
# Density = 2.112231 g / cm^3
# Si number density = 21.170492 Si / 1000 Ang^3
#
#
#
# Elastic Constant Matrix: (Units=GPa)
#
#
# Indices 1 2 3 4 5 6 
#
# 1 33.3404 30.8725 22.7463 0.0000 0.0000 0.0000
# 2 30.8725 87.3002 32.2352 0.0000 0.0000 0.0000
# 3 22.7463 32.2352 99.0670 0.0000 0.0000 0.0000
# 4 0.0000 0.0000 0.0000 30.0474 0.0000 0.0000
# 5 0.0000 0.0000 0.0000 0.0000 39.4019 0.0000
# 6 0.0000 0.0000 0.0000 0.0000 0.0000 21.3441
#
#
#
# Elastic Compliance Matrix: (Units=1/GPa)
#
#
# Indices 1 2 3 4 5 6 
#
# 1 0.047742 -0.014589 -0.006215 0.000000 0.000000 0.000000
# 2 -0.014589 0.017477 -0.002337 0.000000 0.000000 0.000000
# 3 -0.006215 -0.002337 0.012282 0.000000 0.000000 0.000000
# 4 0.000000 0.000000 0.000000 0.033281 0.000000 0.000000
# 5 0.000000 0.000000 0.000000 0.000000 0.025379 0.000000
# 6 0.000000 0.000000 0.000000 0.000000 0.000000 0.046851
#
#
# Mechanical properties :
#
#
# Convention : Reuss Voigt Hill
#
# Bulk Modulus (GPa) = 32.03127 43.49061 37.76094
# Shear Modulus (GPa) = 20.85938 27.08225 23.97081
#
# Velocity S-wave (km/s) = 3.14236 3.58053 3.36858
# Velocity P-wave (km/s) = 5.32249 6.13851 5.74500
#
# Compressibility (1/GPa) = 0.03121950
#
# Stress axis : x y z
#
# Youngs Moduli (GPa) = 20.94570 57.21886 81.42235
#
# Poissons Ratio (x) = 0.83474 0.50604
# Poissons Ratio (y) = 0.30557 0.19029
# Poissons Ratio (z) = 0.13018 0.13373
#
# Static dielectric constant tensor:
#      x y z
#    x 1.781710 0.000000 0.000000 
#    y 0.000000 1.786860 0.000000 
#    z 0.000000 0.000000 1.788420 
# 
# From -- ./inp_files/4943.got.cif
#   From: 2010.05.17/outbox.cif.g08.bks.cpg/sg61_3_cif.got.tgz:4943.got - 2010.06.03 15:17:17.
