data_PCOD9459313
_publ_section_title
;
Structure prediction by ZEFSAII (Michael W. Deem and Ramdas Pophale) SiO2 
 PCOD9459313
Probable space group: P B C A
;
_chemical_formula_sum "Si O2"
_cell_formula_units_Z 56
_cell_length_a 11.689874
_cell_length_b 8.385335
_cell_length_c 23.835243
_cell_angle_alpha 90.000000
_cell_angle_beta 90.000000
_cell_angle_gamma 90.000000
_cell_volume 2336.414171
_symmetry_space_group_name_H-M "P B C A"
_symmetry_group_IT_number 61
_symmetry_cell_setting 'orthorhombic'
loop_
_space_group_symop_operation_xyz
x,y,z
1/2-x,-y,1/2+z
1/2+x,1/2-y,-z
-x,1/2+y,1/2-z
-x,-y,-z
1/2+x,y,1/2-z
1/2-x,1/2+y,z
x,1/2-y,1/2+z
loop_
_atom_site_type_symbol
_atom_site_label
_atom_site_fract_x
_atom_site_fract_y
_atom_site_fract_z
Si Si1 0.212193 0.287582 0.532769
Si Si2 0.941269 0.121499 0.412044
Si Si3 0.007642 0.783229 0.791420
Si Si4 0.307617 0.872698 0.150791
Si Si5 0.119002 0.853700 0.397750
Si Si6 0.041524 0.634792 0.673505
Si Si7 0.690969 0.544406 0.045809
O O1 0.347406 0.332933 0.541539
O O2 0.174785 0.227255 0.593107
O O3 0.214061 0.147133 0.488109
O O4 0.145047 0.432182 0.504246
O O5 0.999321 0.275133 0.383099
O O6 0.862383 0.043278 0.362985
O O7 0.029544 0.980284 0.423267
O O8 0.879366 0.719213 0.802944
O O9 0.086958 0.676898 0.832877
O O10 0.031608 0.749990 0.726959
O O11 0.015282 0.967136 0.809920
O O12 0.175469 0.896014 0.162460
O O13 0.114335 0.678808 0.425738
O O14 0.242170 0.932691 0.410040
#
# Coordination Sequence:
#
# PCOD9459313 Si02
#       7
#     8   8   8   8   8   8   8
#     4  10  19  38  67  95 129 171 222 272 326 388
#     4  10  21  41  69  99 130 167 228 285 322 403
#     4  11  24  44  66 102 136 170 226 271 335 414
#     4  10  21  42  71 101 127 172 220 278 328 394
#     4  10  24  45  62  95 134 178 224 273 333 401
#     4  11  23  42  71 100 135 172 222 274 342 398
#     4  10  22  39  63  90 133 175 220 266 337 389
#
# _framework density 23.968353
#
# number of rings (size 3 to 8) (size 9 to 14) (size 15 to 20)
#    0.000    1.714    1.429    3.429    2.000    4.571 
#   10.286    2.857    0.000    0.000    0.000    0.000 
#    0.000    0.000    0.000    0.000    0.000    0.000 
#
# Total GULP energy -312956.673835 kJ/mol
# GULP energy per Si atom -5588.512033 kJ/mol
# Density = 2.391380 g / cm^3
# Si number density = 23.968353 Si / 1000 Ang^3
#
#
#
# Elastic Constant Matrix: (Units=GPa)
#
#
# Indices 1 2 3 4 5 6 
#
# 1 62.2884 20.1710 30.7164 0.0000 0.0000 0.0000
# 2 20.1710 118.4620 24.6550 0.0000 0.0000 0.0000
# 3 30.7164 24.6550 83.8172 0.0000 0.0000 0.0000
# 4 0.0000 0.0000 0.0000 45.4812 0.0000 0.0000
# 5 0.0000 0.0000 0.0000 0.0000 30.0199 0.0000
# 6 0.0000 0.0000 0.0000 0.0000 0.0000 41.4722
#
#
#
# Elastic Compliance Matrix: (Units=1/GPa)
#
#
# Indices 1 2 3 4 5 6 
#
# 1 0.020033 -0.002006 -0.006752 0.000000 0.000000 0.000000
# 2 -0.002006 0.009193 -0.001969 0.000000 0.000000 0.000000
# 3 -0.006752 -0.001969 0.014984 0.000000 0.000000 0.000000
# 4 0.000000 0.000000 0.000000 0.021987 0.000000 0.000000
# 5 0.000000 0.000000 0.000000 0.000000 0.033311 0.000000
# 6 0.000000 0.000000 0.000000 0.000000 0.000000 0.024113
#
#
# Mechanical properties :
#
#
# Convention : Reuss Voigt Hill
#
# Bulk Modulus (GPa) = 43.94180 46.18359 45.06269
# Shear Modulus (GPa) = 32.75252 35.99634 34.37443
#
# Velocity S-wave (km/s) = 3.70062 3.87955 3.79114
# Velocity P-wave (km/s) = 6.05248 6.27521 6.16485
#
# Compressibility (1/GPa) = 0.02275738
#
# Stress axis : x y z
#
# Youngs Moduli (GPa) = 49.91682 108.77973 66.73732
#
# Poissons Ratio (x) = 0.21821 0.45058
# Poissons Ratio (y) = 0.10013 0.13140
# Poissons Ratio (z) = 0.33701 0.21418
#
# Static dielectric constant tensor:
#      x y z
#    x 1.940200 0.000000 0.000000 
#    y 0.000000 1.976590 0.000000 
#    z 0.000000 0.000000 1.882440 
# 
# From -- ./inp_files/10450.got.cif
#   From: 2010.05.17/outbox.cif.g08.bks.cpg/sg61_6_cif.got.tgz:10450.got - 2010.06.03 15:17:17.
