data_PCOD9459843
_publ_section_title
;
Structure prediction by ZEFSAII (Michael W. Deem and Ramdas Pophale) SiO2 
 PCOD9459843
Probable space group: P B C A
;
_chemical_formula_sum "Si O2"
_cell_formula_units_Z 48
_cell_length_a 5.181492
_cell_length_b 30.964812
_cell_length_c 13.332059
_cell_angle_alpha 90.000000
_cell_angle_beta 90.000000
_cell_angle_gamma 90.000000
_cell_volume 2139.047883
_symmetry_space_group_name_H-M "P B C A"
_symmetry_group_IT_number 61
_symmetry_cell_setting 'orthorhombic'
loop_
_space_group_symop_operation_xyz
x,y,z
1/2-x,-y,1/2+z
1/2+x,1/2-y,-z
-x,1/2+y,1/2-z
-x,-y,-z
1/2+x,y,1/2-z
1/2-x,1/2+y,z
x,1/2-y,1/2+z
loop_
_atom_site_type_symbol
_atom_site_label
_atom_site_fract_x
_atom_site_fract_y
_atom_site_fract_z
Si Si1 0.753595 0.802276 0.777828
Si Si2 0.595676 0.222420 0.496448
Si Si3 0.766741 0.363847 0.015783
Si Si4 0.094500 0.470168 0.813204
Si Si5 0.739362 0.623090 0.114548
Si Si6 0.198966 0.936892 0.319749
O O1 0.478614 0.779557 0.784360
O O2 0.869763 0.799815 0.887589
O O3 0.714537 0.847707 0.716797
O O4 0.309435 0.240441 0.501376
O O5 0.673523 0.181613 0.564242
O O6 0.822665 0.399833 0.098332
O O7 0.528331 0.380030 0.946062
O O8 0.029993 0.356683 0.952138
O O9 0.295230 0.470848 0.718950
O O10 0.163070 0.425055 0.863518
O O11 0.163011 0.515165 0.867079
O O12 0.472438 0.933780 0.263081
#
# Coordination Sequence:
#
# PCOD9459843 Si02
#       6
#     8   8   8   8   8   8
#     4  12  21  41  67  97 132 171 207 267 348 393
#     4  12  26  45  65  97 138 171 222 285 338 402
#     4  12  25  42  69  97 132 177 224 286 340 397
#     4  10  21  37  62 100 139 178 222 265 325 404
#     4  12  22  38  69 106 134 169 217 278 346 398
#     4  10  23  45  66  89 137 188 226 271 325 404
#
# _framework density 22.439890999999999
#
# number of rings (size 3 to 8) (size 9 to 14) (size 15 to 20)
#    0.000    0.667    3.333    5.000    0.000    1.333 
#    0.000    5.000    0.000    0.000    0.000    0.000 
#    0.000    0.000    0.000    0.000    0.000    0.000 
#
# Total GULP energy -267815.069821 kJ/mol
# GULP energy per Si atom -5579.480621 kJ/mol
# Density = 2.238882 g / cm^3
# Si number density = 22.439891 Si / 1000 Ang^3
#
#
#
# Elastic Constant Matrix: (Units=GPa)
#
#
# Indices 1 2 3 4 5 6 
#
# 1 108.1545 6.4591 11.1313 0.0000 0.0000 0.0000
# 2 6.4591 120.2843 24.7076 0.0000 0.0000 0.0000
# 3 11.1313 24.7076 38.0640 0.0000 0.0000 0.0000
# 4 0.0000 0.0000 0.0000 34.8615 0.0000 0.0000
# 5 0.0000 0.0000 0.0000 0.0000 37.1115 0.0000
# 6 0.0000 0.0000 0.0000 0.0000 0.0000 33.3382
#
#
#
# Elastic Compliance Matrix: (Units=1/GPa)
#
#
# Indices 1 2 3 4 5 6 
#
# 1 0.009533 0.000070 -0.002833 0.000000 0.000000 0.000000
# 2 0.000070 0.009593 -0.006247 0.000000 0.000000 0.000000
# 3 -0.002833 -0.006247 0.031155 0.000000 0.000000 0.000000
# 4 0.000000 0.000000 0.000000 0.028685 0.000000 0.000000
# 5 0.000000 0.000000 0.000000 0.000000 0.026946 0.000000
# 6 0.000000 0.000000 0.000000 0.000000 0.000000 0.029996
#
#
# Mechanical properties :
#
#
# Convention : Reuss Voigt Hill
#
# Bulk Modulus (GPa) = 30.99778 39.01100 35.00439
# Shear Modulus (GPa) = 30.36125 36.00921 33.18523
#
# Velocity S-wave (km/s) = 3.68231 4.01021 3.84975
# Velocity P-wave (km/s) = 5.65004 6.23416 5.94927
#
# Compressibility (1/GPa) = 0.03226037
#
# Stress axis : x y z
#
# Youngs Moduli (GPa) = 104.89369 104.24081 32.09718
#
# Poissons Ratio (x) = -0.00730 0.09094
# Poissons Ratio (y) = -0.00735 0.20053
# Poissons Ratio (z) = 0.29721 0.65124
#
# Static dielectric constant tensor:
#      x y z
#    x 1.958420 0.000000 0.000000 
#    y 0.000000 1.903610 0.000000 
#    z 0.000000 0.000000 1.882350 
# 
# From -- ./inp_files/6858.got.cif
#   From: 2010.05.17/outbox.cif.g08.bks.cpg/sg61_4_cif.got.tgz:6858.got - 2010.06.03 15:17:17.
