data_PCOD9459579
_publ_section_title
;
Structure prediction by ZEFSAII (Michael W. Deem and Ramdas Pophale) SiO2 
 PCOD9459579
Probable space group: P B C A
;
_chemical_formula_sum "Si O2"
_cell_formula_units_Z 60
_cell_length_a 9.988571
_cell_length_b 14.889041
_cell_length_c 18.059071
_cell_angle_alpha 90.000000
_cell_angle_beta 90.000000
_cell_angle_gamma 90.000000
_cell_volume 2685.749430
_symmetry_space_group_name_H-M "P B C A"
_symmetry_group_IT_number 61
_symmetry_cell_setting 'orthorhombic'
loop_
_space_group_symop_operation_xyz
x,y,z
1/2-x,-y,1/2+z
1/2+x,1/2-y,-z
-x,1/2+y,1/2-z
-x,-y,-z
1/2+x,y,1/2-z
1/2-x,1/2+y,z
x,1/2-y,1/2+z
loop_
_atom_site_type_symbol
_atom_site_label
_atom_site_fract_x
_atom_site_fract_y
_atom_site_fract_z
Si Si1 0.025674 0.349267 0.458318
Si Si2 0.411466 0.249325 0.789007
Si Si3 0.434955 0.311244 0.630796
Si Si4 0.646739 0.305159 0.892581
Si Si5 0.204928 0.911981 0.381650
Si Si6 0.000000 0.500000 0.000000
Si Si7 0.216686 0.389897 0.860162
Si Si8 0.257683 0.618026 0.534604
O O1 0.065791 0.355183 0.543610
O O2 0.158585 0.368737 0.412431
O O3 0.977669 0.247452 0.440117
O O4 0.892796 0.406083 0.440823
O O5 0.429503 0.245546 0.701254
O O6 0.548418 0.285966 0.824950
O O7 0.367347 0.157036 0.826947
O O8 0.295580 0.321410 0.808711
O O9 0.288054 0.351940 0.624037
O O10 0.555388 0.380125 0.642039
O O11 0.693916 0.208814 0.925693
O O12 0.105768 0.938764 0.448551
O O13 0.246277 0.006605 0.344977
O O14 0.871949 0.545094 0.957813
O O15 0.252824 0.366516 0.945518
#
# Coordination Sequence:
#
# PCOD9459579 Si02
#       8
#     8   8   8   8   8   4   8   8
#     4  11  23  42  70  99 137 177 236 289 355 416
#     4  12  23  48  69 100 142 193 229 291 366 420
#     4  11  25  42  71  97 139 182 236 283 356 428
#     4  11  22  38  70 101 129 184 234 287 345 427
#     4  11  25  42  73 103 144 181 234 299 358 423
#     4  10  22  36  64 100 138 168 232 282 350 400
#     4  11  23  44  68 103 138 179 235 292 345 420
#     4  10  20  38  63 100 133 174 229 287 344 405
#
# _framework density 22.340135
#
# number of rings (size 3 to 8) (size 9 to 14) (size 15 to 20)
#    0.000    1.067    5.333    0.800    5.600    2.133 
#    2.400    0.000    0.000    0.000    0.000    0.000 
#    0.000    0.000    0.000    0.000    0.000    0.000 
#
# Total GULP energy -334435.086720 kJ/mol
# GULP energy per Si atom -5573.918112 kJ/mol
# Density = 2.228929 g / cm^3
# Si number density = 22.340135 Si / 1000 Ang^3
#
#
#
# Elastic Constant Matrix: (Units=GPa)
#
#
# Indices 1 2 3 4 5 6 
#
# 1 168.6050 3.1415 8.3005 0.0000 0.0000 0.0000
# 2 3.1415 46.4001 -12.6886 0.0000 0.0000 0.0000
# 3 8.3005 -12.6886 31.1835 0.0000 0.0000 0.0000
# 4 0.0000 0.0000 0.0000 4.8112 0.0000 0.0000
# 5 0.0000 0.0000 0.0000 0.0000 25.0613 0.0000
# 6 0.0000 0.0000 0.0000 0.0000 0.0000 16.1998
#
#
#
# Elastic Compliance Matrix: (Units=1/GPa)
#
#
# Indices 1 2 3 4 5 6 
#
# 1 0.006047 -0.000956 -0.001999 0.000000 0.000000 0.000000
# 2 -0.000956 0.024401 0.010183 0.000000 0.000000 0.000000
# 3 -0.001999 0.010183 0.036744 0.000000 0.000000 0.000000
# 4 0.000000 0.000000 0.000000 0.207849 0.000000 0.000000
# 5 0.000000 0.000000 0.000000 0.000000 0.039902 0.000000
# 6 0.000000 0.000000 0.000000 0.000000 0.000000 0.061729
#
#
# Mechanical properties :
#
#
# Convention : Reuss Voigt Hill
#
# Bulk Modulus (GPa) = 12.24746 27.07727 19.66236
# Shear Modulus (GPa) = 12.83921 25.71013 19.27467
#
# Velocity S-wave (km/s) = 2.39992 3.39610 2.94050
# Velocity P-wave (km/s) = 3.62955 5.24640 4.51101
#
# Compressibility (1/GPa) = 0.08164961
#
# Stress axis : x y z
#
# Youngs Moduli (GPa) = 165.36502 40.98165 27.21546
#
# Poissons Ratio (x) = 0.03918 0.05439
# Poissons Ratio (y) = 0.15809 -0.27714
# Poissons Ratio (z) = 0.33051 -0.41733
#
# Static dielectric constant tensor:
#      x y z
#    x 1.838130 0.000000 0.000000 
#    y 0.000000 1.838570 0.000000 
#    z 0.000000 0.000000 1.847050 
# 
# From -- ./inp_files/8993.got.cif
#   From: 2010.05.17/outbox.cif.g08.bks.cpg/sg61_5_cif.got.tgz:8993.got - 2010.06.03 15:17:17.
