data_PCOD9459415
_publ_section_title
;
Structure prediction by ZEFSAII (Michael W. Deem and Ramdas Pophale) SiO2 
 PCOD9459415
Probable space group: P B C A
;
_chemical_formula_sum "Si O2"
_cell_formula_units_Z 64
_cell_length_a 17.392758
_cell_length_b 18.249510
_cell_length_c 11.393576
_cell_angle_alpha 90.000000
_cell_angle_beta 90.000000
_cell_angle_gamma 90.000000
_cell_volume 3616.427109
_symmetry_space_group_name_H-M "P B C A"
_symmetry_group_IT_number 61
_symmetry_cell_setting 'orthorhombic'
loop_
_space_group_symop_operation_xyz
x,y,z
1/2-x,-y,1/2+z
1/2+x,1/2-y,-z
-x,1/2+y,1/2-z
-x,-y,-z
1/2+x,y,1/2-z
1/2-x,1/2+y,z
x,1/2-y,1/2+z
loop_
_atom_site_type_symbol
_atom_site_label
_atom_site_fract_x
_atom_site_fract_y
_atom_site_fract_z
Si Si1 0.428895 0.595265 0.763300
Si Si2 0.242113 0.133699 0.168111
Si Si3 0.907752 0.643851 0.472187
Si Si4 0.841883 0.609876 0.103468
Si Si5 0.590807 0.872988 0.890287
Si Si6 0.527593 0.050335 0.269250
Si Si7 0.183892 0.489824 0.099808
Si Si8 0.464611 0.697191 0.549653
O O1 0.410061 0.625088 0.891405
O O2 0.491565 0.530179 0.771160
O O3 0.354164 0.559124 0.701122
O O4 0.457941 0.658422 0.675622
O O5 0.211259 0.146779 0.298600
O O6 0.327978 0.162773 0.145411
O O7 0.252645 0.045403 0.149108
O O8 0.178160 0.158729 0.076159
O O9 0.941728 0.577931 0.393968
O O10 0.956677 0.716237 0.445426
O O11 0.902900 0.560867 0.176965
O O12 0.796070 0.560144 0.010605
O O13 0.893720 0.665897 0.028767
O O14 0.538488 0.894396 0.778933
O O15 0.616844 0.952804 0.940052
O O16 0.540940 0.828702 0.982451
#
# Coordination Sequence:
#
# PCOD9459415 Si02
#       8
#     8   8   8   8   8   8   8   8
#     4  10  20  35  57  87 113 148 199 240 277 352
#     4   9  20  33  56  81 114 146 179 243 288 334
#     4  11  23  34  58  87 123 146 192 244 302 335
#     4   9  17  33  56  82 111 147 193 230 281 347
#     4   8  17  35  58  79 109 150 195 228 281 346
#     4   9  18  35  58  83 108 150 191 243 275 335
#     4   8  17  31  56  82 108 148 190 232 281 333
#     4  10  21  36  60  82 113 162 197 230 288 360
#
# _framework density 17.697025
#
# number of rings (size 3 to 8) (size 9 to 14) (size 15 to 20)
#    0.750    2.000    0.000    1.125    7.000    3.000 
#    0.000    1.250    0.000    4.500    0.000    0.000 
#    0.000    0.000    0.000    0.000    0.000    0.000 
#
# Total GULP energy -356341.173507 kJ/mol
# GULP energy per Si atom -5567.830836 kJ/mol
# Density = 1.765675 g / cm^3
# Si number density = 17.697025 Si / 1000 Ang^3
#
#
#
# Elastic Constant Matrix: (Units=GPa)
#
#
# Indices 1 2 3 4 5 6 
#
# 1 56.3432 -0.0265 30.9606 0.0000 0.0000 0.0000
# 2 -0.0265 51.7243 30.7454 0.0000 0.0000 0.0000
# 3 30.9606 30.7454 115.8703 0.0000 0.0000 0.0000
# 4 0.0000 0.0000 0.0000 10.6842 0.0000 0.0000
# 5 0.0000 0.0000 0.0000 0.0000 12.7558 0.0000
# 6 0.0000 0.0000 0.0000 0.0000 0.0000 14.7460
#
#
#
# Elastic Compliance Matrix: (Units=1/GPa)
#
#
# Indices 1 2 3 4 5 6 
#
# 1 0.021500 0.004067 -0.006824 0.000000 0.000000 0.000000
# 2 0.004067 0.023723 -0.007382 0.000000 0.000000 0.000000
# 3 -0.006824 -0.007382 0.012412 0.000000 0.000000 0.000000
# 4 0.000000 0.000000 0.000000 0.093596 0.000000 0.000000
# 5 0.000000 0.000000 0.000000 0.000000 0.078396 0.000000
# 6 0.000000 0.000000 0.000000 0.000000 0.000000 0.067815
#
#
# Mechanical properties :
#
#
# Convention : Reuss Voigt Hill
#
# Bulk Modulus (GPa) = 26.76737 38.58852 32.67795
# Shear Modulus (GPa) = 15.14362 18.45442 16.79902
#
# Velocity S-wave (km/s) = 2.92843 3.23274 3.08434
# Velocity P-wave (km/s) = 5.15679 5.98219 5.58476
#
# Compressibility (1/GPa) = 0.03735891
#
# Stress axis : x y z
#
# Youngs Moduli (GPa) = 46.51135 42.15323 80.56485
#
# Poissons Ratio (x) = -0.17145 0.54978
# Poissons Ratio (y) = -0.18918 0.59469
# Poissons Ratio (z) = 0.31740 0.31115
#
# Static dielectric constant tensor:
#      x y z
#    x 1.611780 0.000000 0.000000 
#    y 0.000000 1.596020 0.000000 
#    z 0.000000 0.000000 1.587790 
# 
# From -- ./inp_files/6367.got.cif
#   From: 2010.05.17/outbox.cif.g08.bks.cpg/sg61_4_cif.got.tgz:6367.got - 2010.06.03 15:17:17.
