data_PCOD9459715
_publ_section_title
;
Structure prediction by ZEFSAII (Michael W. Deem and Ramdas Pophale) SiO2 
 PCOD9459715
Probable space group: P B C A
;
_chemical_formula_sum "Si O2"
_cell_formula_units_Z 48
_cell_length_a 14.896283
_cell_length_b 14.653804
_cell_length_c 10.185799
_cell_angle_alpha 90.000000
_cell_angle_beta 90.000000
_cell_angle_gamma 90.000000
_cell_volume 2223.429660
_symmetry_space_group_name_H-M "P B C A"
_symmetry_group_IT_number 61
_symmetry_cell_setting 'orthorhombic'
loop_
_space_group_symop_operation_xyz
x,y,z
1/2-x,-y,1/2+z
1/2+x,1/2-y,-z
-x,1/2+y,1/2-z
-x,-y,-z
1/2+x,y,1/2-z
1/2-x,1/2+y,z
x,1/2-y,1/2+z
loop_
_atom_site_type_symbol
_atom_site_label
_atom_site_fract_x
_atom_site_fract_y
_atom_site_fract_z
Si Si1 0.237894 0.441424 0.082336
Si Si2 0.983040 0.541187 0.205008
Si Si3 0.759178 0.736909 0.529655
Si Si4 0.187607 0.161695 0.234445
Si Si5 0.101407 0.906779 0.473317
Si Si6 0.331477 0.478460 0.834830
O O1 0.245648 0.336982 0.038597
O O2 0.221662 0.450448 0.238606
O O3 0.156312 0.502461 0.022455
O O4 0.315711 0.485099 0.990430
O O5 0.894924 0.595214 0.243853
O O6 0.950309 0.442296 0.154219
O O7 0.063948 0.526882 0.305348
O O8 0.027704 0.600787 0.087269
O O9 0.811157 0.683608 0.417322
O O10 0.811260 0.753497 0.665382
O O11 0.666174 0.679927 0.544688
O O12 0.281038 0.112028 0.277167
#
# Coordination Sequence:
#
# PCOD9459715 Si02
#       6
#     8   8   8   8   8   8
#     4  10  21  40  68  93 135 175 223 269 348 393
#     4  10  20  41  69  96 132 180 223 275 339 414
#     4  11  23  40  67  98 133 178 221 277 340 400
#     4  11  23  42  65  99 137 176 224 279 339 409
#     4  10  20  41  71  95 130 178 229 274 338 409
#     4  10  21  42  68  97 128 176 226 279 329 406
#
# _framework density 21.588269
#
# number of rings (size 3 to 8) (size 9 to 14) (size 15 to 20)
#    0.000    1.667    6.667    0.000    2.333    0.000 
#    6.000    0.833    7.333    0.000    0.000    0.000 
#    0.000    0.000    0.000    0.000    0.000    0.000 
#
# Total GULP energy -267278.816200 kJ/mol
# GULP energy per Si atom -5568.308671 kJ/mol
# Density = 2.153913 g / cm^3
# Si number density = 21.588269 Si / 1000 Ang^3
#
#
#
# Elastic Constant Matrix: (Units=GPa)
#
#
# Indices 1 2 3 4 5 6 
#
# 1 66.6594 15.2801 19.5756 0.0000 0.0000 0.0000
# 2 15.2801 89.1565 22.6267 0.0000 0.0000 0.0000
# 3 19.5756 22.6267 41.9649 0.0000 0.0000 0.0000
# 4 0.0000 0.0000 0.0000 34.1331 0.0000 0.0000
# 5 0.0000 0.0000 0.0000 0.0000 39.0663 0.0000
# 6 0.0000 0.0000 0.0000 0.0000 0.0000 16.9575
#
#
#
# Elastic Compliance Matrix: (Units=1/GPa)
#
#
# Indices 1 2 3 4 5 6 
#
# 1 0.017471 -0.001073 -0.007571 0.000000 0.000000 0.000000
# 2 -0.001073 0.013060 -0.006541 0.000000 0.000000 0.000000
# 3 -0.007571 -0.006541 0.030888 0.000000 0.000000 0.000000
# 4 0.000000 0.000000 0.000000 0.029297 0.000000 0.000000
# 5 0.000000 0.000000 0.000000 0.000000 0.025598 0.000000
# 6 0.000000 0.000000 0.000000 0.000000 0.000000 0.058971
#
#
# Mechanical properties :
#
#
# Convention : Reuss Voigt Hill
#
# Bulk Modulus (GPa) = 32.20773 34.74950 33.47861
# Shear Modulus (GPa) = 23.14753 27.38461 25.26607
#
# Velocity S-wave (km/s) = 3.27804 3.56546 3.42477
# Velocity P-wave (km/s) = 5.41100 5.75164 5.58392
#
# Compressibility (1/GPa) = 0.03104844
#
# Stress axis : x y z
#
# Youngs Moduli (GPa) = 57.23770 76.56848 32.37467
#
# Poissons Ratio (x) = 0.08214 0.24512
# Poissons Ratio (y) = 0.06140 0.21178
# Poissons Ratio (z) = 0.43337 0.50087
#
# Static dielectric constant tensor:
#      x y z
#    x 1.780220 0.000000 0.000000 
#    y 0.000000 1.904560 0.000000 
#    z 0.000000 0.000000 1.915780 
# 
# From -- ./inp_files/5765.got.cif
#   From: 2010.05.17/outbox.cif.g08.bks.cpg/sg61_3_cif.got.tgz:5765.got - 2010.06.03 15:17:17.
