data_PCOD9459195
_publ_section_title
;
Structure prediction by ZEFSAII (Michael W. Deem and Ramdas Pophale) SiO2 
 PCOD9459195
Probable space group: P B C A
;
_chemical_formula_sum "Si O2"
_cell_formula_units_Z 56
_cell_length_a 8.017261
_cell_length_b 12.939077
_cell_length_c 21.637493
_cell_angle_alpha 90.000000
_cell_angle_beta 90.000000
_cell_angle_gamma 90.000000
_cell_volume 2244.586052
_symmetry_space_group_name_H-M "P B C A"
_symmetry_group_IT_number 61
_symmetry_cell_setting 'orthorhombic'
loop_
_space_group_symop_operation_xyz
x,y,z
1/2-x,-y,1/2+z
1/2+x,1/2-y,-z
-x,1/2+y,1/2-z
-x,-y,-z
1/2+x,y,1/2-z
1/2-x,1/2+y,z
x,1/2-y,1/2+z
loop_
_atom_site_type_symbol
_atom_site_label
_atom_site_fract_x
_atom_site_fract_y
_atom_site_fract_z
Si Si1 0.527790 0.272336 0.832250
Si Si2 0.625281 0.632884 0.384574
Si Si3 0.778775 0.422798 0.393528
Si Si4 0.598531 0.934459 0.590244
Si Si5 0.486184 0.798900 0.307746
Si Si6 0.788245 0.376729 0.106404
Si Si7 0.313780 0.235890 0.501802
O O1 0.701047 0.322029 0.855413
O O2 0.406556 0.369967 0.845841
O O3 0.523772 0.230386 0.763182
O O4 0.459332 0.176422 0.872625
O O5 0.644034 0.511007 0.381467
O O6 0.488878 0.689878 0.343858
O O7 0.607866 0.676498 0.453953
O O8 0.852773 0.363617 0.333090
O O9 0.736785 0.342689 0.448086
O O10 0.941826 0.488834 0.415648
O O11 0.581939 0.844978 0.539378
O O12 0.762073 0.005646 0.585226
O O13 0.330178 0.862275 0.333957
O O14 0.721956 0.303696 0.050484
#
# Coordination Sequence:
#
# PCOD9459195 Si02
#       7
#     8   8   8   8   8   8   8
#     4  10  21  38  58  83 114 151 195 237 282 341
#     4  10  21  37  59  84 113 151 190 238 289 341
#     4   9  19  36  59  84 114 156 191 227 293 357
#     4   9  19  36  59  84 114 156 191 227 293 357
#     4  10  21  38  58  83 114 151 195 237 282 341
#     4  10  21  37  59  84 113 151 190 238 289 341
#     4  10  19  34  56  84 111 140 191 238 274 336
#
# _framework density 24.948920000000001
#
# number of rings (size 3 to 8) (size 9 to 14) (size 15 to 20)
#    0.000    2.286    0.000    2.143    0.000   10.286 
#    0.000   15.714    0.000    0.000    0.000    0.000 
#    0.000    0.000    0.000    0.000    0.000    0.000 
#
# Total GULP energy -312646.513117 kJ/mol
# GULP energy per Si atom -5582.973449 kJ/mol
# Density = 2.489214 g / cm^3
# Si number density = 24.948920 Si / 1000 Ang^3
#
#
#
# Elastic Constant Matrix: (Units=GPa)
#
#
# Indices 1 2 3 4 5 6 
#
# 1 37.6125 13.8648 23.3130 0.0000 0.0000 0.0000
# 2 13.8648 172.3608 59.0945 0.0000 0.0000 0.0000
# 3 23.3130 59.0945 166.1764 0.0000 0.0000 0.0000
# 4 0.0000 0.0000 0.0000 34.0007 0.0000 0.0000
# 5 0.0000 0.0000 0.0000 0.0000 24.3421 0.0000
# 6 0.0000 0.0000 0.0000 0.0000 0.0000 39.2543
#
#
#
# Elastic Compliance Matrix: (Units=1/GPa)
#
#
# Indices 1 2 3 4 5 6 
#
# 1 0.029294 -0.001079 -0.003726 0.000000 0.000000 0.000000
# 2 -0.001079 0.006647 -0.002212 0.000000 0.000000 0.000000
# 3 -0.003726 -0.002212 0.007327 0.000000 0.000000 0.000000
# 4 0.000000 0.000000 0.000000 0.029411 0.000000 0.000000
# 5 0.000000 0.000000 0.000000 0.000000 0.041081 0.000000
# 6 0.000000 0.000000 0.000000 0.000000 0.000000 0.025475
#
#
# Mechanical properties :
#
#
# Convention : Reuss Voigt Hill
#
# Bulk Modulus (GPa) = 34.20719 63.18826 48.69773
# Shear Modulus (GPa) = 30.67205 38.17791 34.42498
#
# Velocity S-wave (km/s) = 3.51007 3.91608 3.71862
# Velocity P-wave (km/s) = 5.49255 6.76975 6.16432
#
# Compressibility (1/GPa) = 0.02923362
#
# Stress axis : x y z
#
# Youngs Moduli (GPa) = 34.13656 150.44118 136.47787
#
# Poissons Ratio (x) = 0.16232 0.50852
# Poissons Ratio (y) = 0.03683 0.30195
# Poissons Ratio (z) = 0.12719 0.33284
#
# Static dielectric constant tensor:
#      x y z
#    x 2.189340 0.000000 0.000000 
#    y 0.000000 1.967310 0.000000 
#    z 0.000000 0.000000 1.923590 
# 
# From -- ./inp_files/10304.got.cif
#   From: 2010.05.17/outbox.cif.g08.bks.cpg/sg61_6_cif.got.tgz:10304.got - 2010.06.03 15:17:17.
