data_PCOD9459101
_publ_section_title
;
Structure prediction by ZEFSAII (Michael W. Deem and Ramdas Pophale) SiO2 
 PCOD9459101
Probable space group: P B C A
;
_chemical_formula_sum "Si O2"
_cell_formula_units_Z 56
_cell_length_a 15.326213
_cell_length_b 13.874518
_cell_length_c 11.300475
_cell_angle_alpha 90.000000
_cell_angle_beta 90.000000
_cell_angle_gamma 90.000000
_cell_volume 2402.976151
_symmetry_space_group_name_H-M "P B C A"
_symmetry_group_IT_number 61
_symmetry_cell_setting 'orthorhombic'
loop_
_space_group_symop_operation_xyz
x,y,z
1/2-x,-y,1/2+z
1/2+x,1/2-y,-z
-x,1/2+y,1/2-z
-x,-y,-z
1/2+x,y,1/2-z
1/2-x,1/2+y,z
x,1/2-y,1/2+z
loop_
_atom_site_type_symbol
_atom_site_label
_atom_site_fract_x
_atom_site_fract_y
_atom_site_fract_z
Si Si1 0.262216 0.779829 0.403257
Si Si2 0.737051 0.065197 0.164729
Si Si3 0.388540 0.095185 0.485509
Si Si4 0.947155 0.939491 0.332640
Si Si5 0.880564 0.086241 0.516368
Si Si6 0.936469 0.609196 0.554100
Si Si7 0.755570 0.602977 0.830964
O O1 0.290881 0.673683 0.359199
O O2 0.180691 0.818487 0.484137
O O3 0.350540 0.827701 0.449968
O O4 0.236669 0.831651 0.280966
O O5 0.735866 0.006510 0.286799
O O6 0.684993 0.996017 0.072441
O O7 0.840505 0.077683 0.137753
O O8 0.476375 0.154386 0.498686
O O9 0.415125 0.986685 0.520499
O O10 0.310004 0.128053 0.566806
O O11 0.956342 0.922076 0.190962
O O12 0.036253 0.906101 0.395588
O O13 0.922577 0.043099 0.394834
O O14 0.857043 0.883067 0.360622
#
# Coordination Sequence:
#
# PCOD9459101 Si02
#       7
#     8   8   8   8   8   8   8
#     4  10  21  40  58  89 122 155 200 247 295 361
#     4  11  21  40  62  87 118 159 201 240 304 358
#     4  11  20  39  65  84 117 161 196 248 301 351
#     4  10  18  37  65  86 118 160 192 246 302 348
#     4  10  20  38  62  88 121 156 198 249 297 350
#     4  10  20  37  63  87 117 157 201 245 297 353
#     4  10  20  41  60  86 122 156 194 247 296 355
#
# _framework density 23.304434000000001
#
# number of rings (size 3 to 8) (size 9 to 14) (size 15 to 20)
#    0.000    1.714    5.714    1.714    0.000    0.000 
#   10.286    2.857    0.000    0.000    0.000    0.000 
#    0.000    0.000    0.000    0.000    0.000    0.000 
#
# Total GULP energy -311747.878466 kJ/mol
# GULP energy per Si atom -5566.926401 kJ/mol
# Density = 2.325139 g / cm^3
# Si number density = 23.304434 Si / 1000 Ang^3
#
#
#
# Elastic Constant Matrix: (Units=GPa)
#
#
# Indices 1 2 3 4 5 6 
#
# 1 138.4159 31.9828 43.6876 0.0000 0.0000 0.0000
# 2 31.9828 120.1896 21.3577 0.0000 0.0000 0.0000
# 3 43.6876 21.3577 36.8973 0.0000 0.0000 0.0000
# 4 0.0000 0.0000 0.0000 3.1065 0.0000 0.0000
# 5 0.0000 0.0000 0.0000 0.0000 45.5190 0.0000
# 6 0.0000 0.0000 0.0000 0.0000 0.0000 14.3366
#
#
#
# Elastic Compliance Matrix: (Units=1/GPa)
#
#
# Indices 1 2 3 4 5 6 
#
# 1 0.011591 -0.000720 -0.013308 0.000000 0.000000 0.000000
# 2 -0.000720 0.009319 -0.004542 0.000000 0.000000 0.000000
# 3 -0.013308 -0.004542 0.045488 0.000000 0.000000 0.000000
# 4 0.000000 0.000000 0.000000 0.321909 0.000000 0.000000
# 5 0.000000 0.000000 0.000000 0.000000 0.021969 0.000000
# 6 0.000000 0.000000 0.000000 0.000000 0.000000 0.069751
#
#
# Mechanical properties :
#
#
# Convention : Reuss Voigt Hill
#
# Bulk Modulus (GPa) = 34.17716 54.39544 44.28630
# Shear Modulus (GPa) = 9.48911 25.82406 17.65659
#
# Velocity S-wave (km/s) = 2.02006 3.33245 2.75553
# Velocity P-wave (km/s) = 4.48756 6.18053 5.40079
#
# Compressibility (1/GPa) = 0.02925931
#
# Stress axis : x y z
#
# Youngs Moduli (GPa) = 86.27275 107.30987 21.98372
#
# Poissons Ratio (x) = 0.07722 0.29255
# Poissons Ratio (y) = 0.06209 0.09985
# Poissons Ratio (z) = 1.14809 0.48741
#
# Static dielectric constant tensor:
#      x y z
#    x 2.023900 0.000000 0.000000 
#    y 0.000000 2.028650 0.000000 
#    z 0.000000 0.000000 1.993070 
# 
# From -- ./inp_files/7906.got.cif
#   From: 2010.05.17/outbox.cif.g08.bks.cpg/sg61_4_cif.got.tgz:7906.got - 2010.06.03 15:17:17.
