data_PCOD9459906
_publ_section_title
;
Structure prediction by ZEFSAII (Michael W. Deem and Ramdas Pophale) SiO2 
 PCOD9459906
Probable space group: P B C A
;
_chemical_formula_sum "Si O2"
_cell_formula_units_Z 64
_cell_length_a 12.038849
_cell_length_b 15.637564
_cell_length_c 12.732509
_cell_angle_alpha 90.000000
_cell_angle_beta 90.000000
_cell_angle_gamma 90.000000
_cell_volume 2397.000139
_symmetry_space_group_name_H-M "P B C A"
_symmetry_group_IT_number 61
_symmetry_cell_setting 'orthorhombic'
loop_
_space_group_symop_operation_xyz
x,y,z
1/2-x,-y,1/2+z
1/2+x,1/2-y,-z
-x,1/2+y,1/2-z
-x,-y,-z
1/2+x,y,1/2-z
1/2-x,1/2+y,z
x,1/2-y,1/2+z
loop_
_atom_site_type_symbol
_atom_site_label
_atom_site_fract_x
_atom_site_fract_y
_atom_site_fract_z
Si Si1 0.556227 0.109436 0.707319
Si Si2 0.660799 0.887980 0.039719
Si Si3 0.680151 0.528908 0.063024
Si Si4 0.792208 0.364641 0.803276
Si Si5 0.077746 0.329155 0.072193
Si Si6 0.478559 0.345105 0.834574
Si Si7 0.685519 0.254683 0.626584
Si Si8 0.144106 0.504970 0.679909
O O1 0.603688 0.042019 0.622563
O O2 0.615683 0.122728 0.820774
O O3 0.575130 0.198650 0.648322
O O4 0.430844 0.078429 0.732256
O O5 0.717154 0.864471 0.927870
O O6 0.699093 0.983761 0.069813
O O7 0.529759 0.879670 0.031425
O O8 0.717108 0.815529 0.112110
O O9 0.628964 0.618024 0.102622
O O10 0.661769 0.533487 0.938737
O O11 0.917920 0.338224 0.777153
O O12 0.714595 0.304942 0.732651
O O13 0.756691 0.462598 0.774471
O O14 0.029284 0.238118 0.113184
O O15 0.162022 0.310935 0.977270
O O16 0.566649 0.420720 0.827347
#
# Coordination Sequence:
#
# PCOD9459906 Si02
#       8
#     8   8   8   8   8   8   8   8
#     4  10  21  38  66  91 121 167 209 267 320 377
#     4  10  23  41  61  93 129 163 215 264 322 383
#     4   9  20  43  68  87 125 173 220 260 307 395
#     4  11  24  40  63  93 128 166 212 274 320 382
#     4  12  24  37  65  99 127 166 212 271 336 382
#     4  11  21  40  66  93 120 172 215 251 330 387
#     4  11  22  43  62  89 131 167 214 266 316 395
#     4  10  21  42  66  91 121 173 221 262 307 393
#
# _framework density 26.700040999999999
#
# number of rings (size 3 to 8) (size 9 to 14) (size 15 to 20)
#    0.000    1.500    1.250    6.000    5.250    0.000 
#    0.000    5.625    0.000    0.000    0.000    0.000 
#    0.000    0.000    0.000    0.000    0.000    0.000 
#
# Total GULP energy -358017.675843 kJ/mol
# GULP energy per Si atom -5594.026185 kJ/mol
# Density = 2.663927 g / cm^3
# Si number density = 26.700041 Si / 1000 Ang^3
#
#
#
# Elastic Constant Matrix: (Units=GPa)
#
#
# Indices 1 2 3 4 5 6 
#
# 1 63.7858 17.7229 -0.2863 0.0000 0.0000 0.0000
# 2 17.7229 93.0990 25.8682 0.0000 0.0000 0.0000
# 3 -0.2863 25.8682 109.8896 0.0000 0.0000 0.0000
# 4 0.0000 0.0000 0.0000 45.8800 0.0000 0.0000
# 5 0.0000 0.0000 0.0000 0.0000 32.7981 0.0000
# 6 0.0000 0.0000 0.0000 0.0000 0.0000 49.9836
#
#
#
# Elastic Compliance Matrix: (Units=1/GPa)
#
#
# Indices 1 2 3 4 5 6 
#
# 1 0.016626 -0.003399 0.000844 0.000000 0.000000 0.000000
# 2 -0.003399 0.012188 -0.002878 0.000000 0.000000 0.000000
# 3 0.000844 -0.002878 0.009780 0.000000 0.000000 0.000000
# 4 0.000000 0.000000 0.000000 0.021796 0.000000 0.000000
# 5 0.000000 0.000000 0.000000 0.000000 0.030490 0.000000
# 6 0.000000 0.000000 0.000000 0.000000 0.000000 0.020007
#
#
# Mechanical properties :
#
#
# Convention : Reuss Voigt Hill
#
# Bulk Modulus (GPa) = 36.06728 39.26490 37.66609
# Shear Modulus (GPa) = 38.16931 40.63028 39.39980
#
# Velocity S-wave (km/s) = 3.78505 3.90517 3.84558
# Velocity P-wave (km/s) = 5.71313 5.92213 5.81857
#
# Compressibility (1/GPa) = 0.02772596
#
# Stress axis : x y z
#
# Youngs Moduli (GPa) = 60.14754 82.04764 102.25246
#
# Poissons Ratio (x) = 0.27891 -0.08625
# Poissons Ratio (y) = 0.20446 0.29428
# Poissons Ratio (z) = -0.05074 0.23613
#
# Static dielectric constant tensor:
#      x y z
#    x 2.190340 0.000000 0.000000 
#    y 0.000000 2.090500 0.000000 
#    z 0.000000 0.000000 2.118680 
# 
# From -- ./inp_files/5987.got.cif
#   From: 2010.05.17/outbox.cif.g08.bks.cpg/sg61_3_cif.got.tgz:5987.got - 2010.06.03 15:17:17.
