data_PCOD9459509
_publ_section_title
;
Structure prediction by ZEFSAII (Michael W. Deem and Ramdas Pophale) SiO2 
 PCOD9459509
Probable space group: P B C A
;
_chemical_formula_sum "Si O2"
_cell_formula_units_Z 64
_cell_length_a 5.371238
_cell_length_b 19.145074
_cell_length_c 24.625863
_cell_angle_alpha 90.000000
_cell_angle_beta 90.000000
_cell_angle_gamma 90.000000
_cell_volume 2532.345188
_symmetry_space_group_name_H-M "P B C A"
_symmetry_group_IT_number 61
_symmetry_cell_setting 'orthorhombic'
loop_
_space_group_symop_operation_xyz
x,y,z
1/2-x,-y,1/2+z
1/2+x,1/2-y,-z
-x,1/2+y,1/2-z
-x,-y,-z
1/2+x,y,1/2-z
1/2-x,1/2+y,z
x,1/2-y,1/2+z
loop_
_atom_site_type_symbol
_atom_site_label
_atom_site_fract_x
_atom_site_fract_y
_atom_site_fract_z
Si Si1 0.250854 0.237897 0.216498
Si Si2 0.608115 0.443707 0.942248
Si Si3 0.772589 0.483759 0.138946
Si Si4 0.668113 0.265896 0.589786
Si Si5 0.693173 0.819062 0.988571
Si Si6 0.159163 0.417279 0.054194
Si Si7 0.986946 0.385432 0.852156
Si Si8 0.481225 0.355375 0.147792
O O1 0.473265 0.236336 0.260811
O O2 0.321612 0.168833 0.181798
O O3 0.294636 0.310680 0.184329
O O4 0.392320 0.474259 0.905019
O O5 0.726461 0.511938 0.971122
O O6 0.819308 0.417789 0.899825
O O7 0.582860 0.374004 0.978508
O O8 0.899230 0.544739 0.174503
O O9 0.604533 0.426253 0.169373
O O10 0.964543 0.440890 0.101262
O O11 0.795415 0.238540 0.535557
O O12 0.387901 0.279935 0.566208
O O13 0.707523 0.337235 0.621938
O O14 0.684003 0.202968 0.631753
O O15 0.477563 0.871078 0.009751
O O16 0.362048 0.377217 0.090253
#
# Coordination Sequence:
#
# PCOD9459509 Si02
#       8
#     8   8   8   8   8   8   8   8
#     4  11  27  47  75 107 135 169 219 283 347 425
#     4   9  21  36  57  88 126 177 219 275 327 392
#     4  10  20  39  67  89 126 182 216 269 334 403
#     4  10  21  35  53  87 123 174 215 272 324 381
#     4  11  20  33  53  87 128 170 233 279 319 380
#     4  10  20  37  59  86 126 171 219 275 326 394
#     4   9  22  42  63  91 130 172 218 266 344 402
#     4  10  22  43  64  93 129 171 220 271 354 404
#
# _framework density 25.273016999999999
#
# number of rings (size 3 to 8) (size 9 to 14) (size 15 to 20)
#    0.000    2.000    1.250    1.125    5.250    0.500 
#    2.250    1.250    0.000    0.000    0.000    0.000 
#    0.000    0.000    0.000    0.000    0.000    0.000 
#
# Total GULP energy -357623.108665 kJ/mol
# GULP energy per Si atom -5587.861073 kJ/mol
# Density = 2.521549 g / cm^3
# Si number density = 25.273017 Si / 1000 Ang^3
#
#
#
# Elastic Constant Matrix: (Units=GPa)
#
#
# Indices 1 2 3 4 5 6 
#
# 1 43.5704 34.7064 8.8786 0.0000 0.0000 0.0000
# 2 34.7064 180.3194 23.2644 0.0000 0.0000 0.0000
# 3 8.8786 23.2644 49.8160 0.0000 0.0000 0.0000
# 4 0.0000 0.0000 0.0000 29.5934 0.0000 0.0000
# 5 0.0000 0.0000 0.0000 0.0000 38.8205 0.0000
# 6 0.0000 0.0000 0.0000 0.0000 0.0000 32.8743
#
#
#
# Elastic Compliance Matrix: (Units=1/GPa)
#
#
# Indices 1 2 3 4 5 6 
#
# 1 0.027415 -0.004944 -0.002577 0.000000 0.000000 0.000000
# 2 -0.004944 0.006793 -0.002291 0.000000 0.000000 0.000000
# 3 -0.002577 -0.002291 0.021603 0.000000 0.000000 0.000000
# 4 0.000000 0.000000 0.000000 0.033791 0.000000 0.000000
# 5 0.000000 0.000000 0.000000 0.000000 0.025760 0.000000
# 6 0.000000 0.000000 0.000000 0.000000 0.000000 0.030419
#
#
# Mechanical properties :
#
#
# Convention : Reuss Voigt Hill
#
# Bulk Modulus (GPa) = 27.63493 45.26718 36.45106
# Shear Modulus (GPa) = 28.17417 34.04805 31.11111
#
# Velocity S-wave (km/s) = 3.34247 3.67442 3.51237
# Velocity P-wave (km/s) = 5.08473 5.99599 5.55907
#
# Compressibility (1/GPa) = 0.03618609
#
# Stress axis : x y z
#
# Youngs Moduli (GPa) = 36.47667 147.21218 46.28949
#
# Poissons Ratio (x) = 0.72783 0.11929
# Poissons Ratio (y) = 0.18034 0.10606
# Poissons Ratio (z) = 0.09401 0.33729
#
# Static dielectric constant tensor:
#      x y z
#    x 2.077090 0.000000 0.000000 
#    y 0.000000 2.049390 0.000000 
#    z 0.000000 0.000000 1.975930 
# 
# From -- ./inp_files/11631.got.cif
#   From: 2010.05.17/outbox.cif.g08.bks.cpg/sg61_6_cif.got.tgz:11631.got - 2010.06.03 15:17:17.
