data_PCOD9459143
_publ_section_title
;
Structure prediction by ZEFSAII (Michael W. Deem and Ramdas Pophale) SiO2 
 PCOD9459143
Probable space group: P B C A
;
_chemical_formula_sum "Si O2"
_cell_formula_units_Z 64
_cell_length_a 19.728172
_cell_length_b 7.842922
_cell_length_c 20.371098
_cell_angle_alpha 90.000000
_cell_angle_beta 90.000000
_cell_angle_gamma 90.000000
_cell_volume 3151.948984
_symmetry_space_group_name_H-M "P B C A"
_symmetry_group_IT_number 61
_symmetry_cell_setting 'orthorhombic'
loop_
_space_group_symop_operation_xyz
x,y,z
1/2-x,-y,1/2+z
1/2+x,1/2-y,-z
-x,1/2+y,1/2-z
-x,-y,-z
1/2+x,y,1/2-z
1/2-x,1/2+y,z
x,1/2-y,1/2+z
loop_
_atom_site_type_symbol
_atom_site_label
_atom_site_fract_x
_atom_site_fract_y
_atom_site_fract_z
Si Si1 0.028586 0.574277 0.319767
Si Si2 0.197622 0.415854 0.587602
Si Si3 0.557666 0.795147 0.543539
Si Si4 0.060991 0.552774 0.176765
Si Si5 0.118914 0.321965 0.707271
Si Si6 0.345483 0.197027 0.063105
Si Si7 0.411252 0.805070 0.489820
Si Si8 0.919517 0.691322 0.151029
O O1 0.054399 0.693225 0.378257
O O2 0.056333 0.634947 0.249484
O O3 0.051273 0.381295 0.333939
O O4 0.946926 0.570980 0.316089
O O5 0.183122 0.366104 0.662951
O O6 0.173796 0.607509 0.576258
O O7 0.274915 0.400908 0.566431
O O8 0.147971 0.299118 0.543251
O O9 0.614037 0.687326 0.505460
O O10 0.483388 0.742199 0.517571
O O11 0.573423 0.993652 0.524154
O O12 0.092929 0.368232 0.190440
O O13 0.105609 0.641083 0.121786
O O14 0.983374 0.564043 0.152669
O O15 0.126814 0.345732 0.785499
O O16 0.391841 0.710714 0.422407
#
# Coordination Sequence:
#
# PCOD9459143 Si02
#       8
#     8   8   8   8   8   8   8   8
#     4   9  17  32  54  79 106 137 176 218 262 308
#     4  11  22  37  56  76 106 142 180 220 268 326
#     4   9  16  31  56  80 102 138 180 218 263 314
#     4  10  19  31  51  80 110 138 173 216 263 314
#     4  10  19  31  51  80 110 138 173 216 263 314
#     4  11  22  37  56  76 106 142 180 220 268 326
#     4   9  16  31  56  80 102 138 180 218 263 314
#     4   9  17  32  54  79 106 137 176 218 262 308
#
# _framework density 20.304895999999999
#
# number of rings (size 3 to 8) (size 9 to 14) (size 15 to 20)
#    0.000    2.250    2.500    1.500    0.000    1.000 
#    0.000    5.000    0.000    3.000    0.000    0.000 
#    0.000    0.000    0.000    0.000    0.000    0.000 
#
# Total GULP energy -357262.128413 kJ/mol
# GULP energy per Si atom -5582.220756 kJ/mol
# Density = 2.025868 g / cm^3
# Si number density = 20.304896 Si / 1000 Ang^3
#
#
#
# Elastic Constant Matrix: (Units=GPa)
#
#
# Indices 1 2 3 4 5 6 
#
# 1 40.0162 9.1151 2.0185 0.0000 0.0000 0.0000
# 2 9.1151 42.3914 17.7455 0.0000 0.0000 0.0000
# 3 2.0185 17.7455 64.6652 0.0000 0.0000 0.0000
# 4 0.0000 0.0000 0.0000 18.4000 0.0000 0.0000
# 5 0.0000 0.0000 0.0000 0.0000 24.5783 0.0000
# 6 0.0000 0.0000 0.0000 0.0000 0.0000 11.5505
#
#
#
# Elastic Compliance Matrix: (Units=1/GPa)
#
#
# Indices 1 2 3 4 5 6 
#
# 1 0.026316 -0.006004 0.000826 0.000000 0.000000 0.000000
# 2 -0.006004 0.028021 -0.007502 0.000000 0.000000 0.000000
# 3 0.000826 -0.007502 0.017497 0.000000 0.000000 0.000000
# 4 0.000000 0.000000 0.000000 0.054348 0.000000 0.000000
# 5 0.000000 0.000000 0.000000 0.000000 0.040686 0.000000
# 6 0.000000 0.000000 0.000000 0.000000 0.000000 0.086577
#
#
# Mechanical properties :
#
#
# Convention : Reuss Voigt Hill
#
# Bulk Modulus (GPa) = 21.51751 22.75900 22.13825
# Shear Modulus (GPa) = 16.98963 18.78533 17.88748
#
# Velocity S-wave (km/s) = 2.89576 3.04495 2.97129
# Velocity P-wave (km/s) = 4.66913 4.85749 4.76424
#
# Compressibility (1/GPa) = 0.04647378
#
# Stress axis : x y z
#
# Youngs Moduli (GPa) = 37.99980 35.68712 57.15185
#
# Poissons Ratio (x) = 0.21428 -0.04722
# Poissons Ratio (y) = 0.22817 0.42877
# Poissons Ratio (z) = -0.03140 0.26773
#
# Static dielectric constant tensor:
#      x y z
#    x 1.678640 0.000000 0.000000 
#    y 0.000000 1.778440 0.000000 
#    z 0.000000 0.000000 1.750790 
# 
# From -- ./inp_files/10537.got.cif
#   From: 2010.05.17/outbox.cif.g08.bks.cpg/sg61_6_cif.got.tgz:10537.got - 2010.06.03 15:17:17.
