data_PCOD9459557
_publ_section_title
;
Structure prediction by ZEFSAII (Michael W. Deem and Ramdas Pophale) SiO2 
 PCOD9459557
Probable space group: P B C A
;
_chemical_formula_sum "Si O2"
_cell_formula_units_Z 60
_cell_length_a 22.764997
_cell_length_b 8.170133
_cell_length_c 12.265505
_cell_angle_alpha 90.000000
_cell_angle_beta 90.000000
_cell_angle_gamma 90.000000
_cell_volume 2281.298724
_symmetry_space_group_name_H-M "P B C A"
_symmetry_group_IT_number 61
_symmetry_cell_setting 'orthorhombic'
loop_
_space_group_symop_operation_xyz
x,y,z
1/2-x,-y,1/2+z
1/2+x,1/2-y,-z
-x,1/2+y,1/2-z
-x,-y,-z
1/2+x,y,1/2-z
1/2-x,1/2+y,z
x,1/2-y,1/2+z
loop_
_atom_site_type_symbol
_atom_site_label
_atom_site_fract_x
_atom_site_fract_y
_atom_site_fract_z
Si Si1 0.303392 0.796841 0.963507
Si Si2 0.831965 0.902621 0.769156
Si Si3 0.816144 0.415480 0.581768
Si Si4 0.211870 0.743495 0.180524
Si Si5 0.462951 0.821285 0.785458
Si Si6 0.621126 0.503556 0.398990
Si Si7 0.000000 0.500000 0.000000
Si Si8 0.935655 0.467050 0.662200
O O1 0.305873 0.610555 0.923525
O O2 0.317242 0.909284 0.858877
O O3 0.236474 0.844113 0.993944
O O4 0.357539 0.839123 0.042028
O O5 0.817397 0.078340 0.818814
O O6 0.782380 0.780941 0.819163
O O7 0.900042 0.854908 0.770274
O O8 0.802269 0.327926 0.696631
O O9 0.887473 0.408385 0.574279
O O10 0.177250 0.619361 0.102518
O O11 0.463004 0.648576 0.851631
O O12 0.513330 0.839189 0.693074
O O13 0.475641 0.956401 0.876178
O O14 0.565124 0.563872 0.463582
O O15 0.600707 0.498279 0.273889
#
# Coordination Sequence:
#
# PCOD9459557 Si02
#       8
#     8   8   8   8   8   8   4   8
#     4  11  20  39  65  88 128 172 207 265 340 386
#     4  11  21  39  65  93 127 170 217 264 338 396
#     4  10  20  38  60  91 125 166 212 262 323 398
#     4  10  23  37  63  94 130 164 218 268 322 398
#     4  11  23  41  72  93 127 177 222 274 331 396
#     4  10  22  39  64  93 130 169 217 271 328 388
#     4  10  20  42  62  92 124 170 220 264 324 394
#     4  10  23  41  64  95 129 168 224 270 322 392
#
# _framework density 26.300809000000001
#
# number of rings (size 3 to 8) (size 9 to 14) (size 15 to 20)
#    0.000    1.600    2.667    3.200    7.467    1.067 
#    0.000    0.000    2.933    2.400    0.000    0.000 
#    0.000    0.000    0.000    0.000    0.000    0.000 
#
# Total GULP energy -334504.357531 kJ/mol
# GULP energy per Si atom -5575.072626 kJ/mol
# Density = 2.624095 g / cm^3
# Si number density = 26.300809 Si / 1000 Ang^3
#
#
#
# Elastic Constant Matrix: (Units=GPa)
#
#
# Indices 1 2 3 4 5 6 
#
# 1 204.8781 40.3472 35.5759 0.0000 0.0000 0.0000
# 2 40.3472 71.0115 -1.3031 0.0000 0.0000 0.0000
# 3 35.5759 -1.3031 33.8789 0.0000 0.0000 0.0000
# 4 0.0000 0.0000 0.0000 19.6792 0.0000 0.0000
# 5 0.0000 0.0000 0.0000 0.0000 58.6946 0.0000
# 6 0.0000 0.0000 0.0000 0.0000 0.0000 24.3748
#
#
#
# Elastic Compliance Matrix: (Units=1/GPa)
#
#
# Indices 1 2 3 4 5 6 
#
# 1 0.006993 -0.004111 -0.007502 0.000000 0.000000 0.000000
# 2 -0.004111 0.016509 0.004952 0.000000 0.000000 0.000000
# 3 -0.007502 0.004952 0.037585 0.000000 0.000000 0.000000
# 4 0.000000 0.000000 0.000000 0.050815 0.000000 0.000000
# 5 0.000000 0.000000 0.000000 0.000000 0.017037 0.000000
# 6 0.000000 0.000000 0.000000 0.000000 0.000000 0.041026
#
#
# Mechanical properties :
#
#
# Convention : Reuss Voigt Hill
#
# Bulk Modulus (GPa) = 20.93566 51.00097 35.96832
# Shear Modulus (GPa) = 25.09935 36.22628 30.66282
#
# Velocity S-wave (km/s) = 3.09256 3.71534 3.41816
# Velocity P-wave (km/s) = 4.55294 6.15130 5.41146
#
# Compressibility (1/GPa) = 0.04776539
#
# Stress axis : x y z
#
# Youngs Moduli (GPa) = 142.99713 60.57347 26.60658
#
# Poissons Ratio (x) = 0.24902 0.19959
# Poissons Ratio (y) = 0.58786 -0.13175
# Poissons Ratio (z) = 1.07270 -0.29995
#
# Static dielectric constant tensor:
#      x y z
#    x 2.008070 0.000000 0.000000 
#    y 0.000000 2.159430 0.000000 
#    z 0.000000 0.000000 2.198800 
# 
# From -- ./inp_files/8493.got.cif
#   From: 2010.05.17/outbox.cif.g08.bks.cpg/sg61_5_cif.got.tgz:8493.got - 2010.06.03 15:17:17.
