data_PCOD9459274
_publ_section_title
;
Structure prediction by ZEFSAII (Michael W. Deem and Ramdas Pophale) SiO2 
 PCOD9459274
Probable space group: P B C A
;
_chemical_formula_sum "Si O2"
_cell_formula_units_Z 32
_cell_length_a 16.753811
_cell_length_b 5.306799
_cell_length_c 16.550417
_cell_angle_alpha 90.000000
_cell_angle_beta 90.000000
_cell_angle_gamma 90.000000
_cell_volume 1471.482804
_symmetry_space_group_name_H-M "P B C A"
_symmetry_group_IT_number 61
_symmetry_cell_setting 'orthorhombic'
loop_
_space_group_symop_operation_xyz
x,y,z
1/2-x,-y,1/2+z
1/2+x,1/2-y,-z
-x,1/2+y,1/2-z
-x,-y,-z
1/2+x,y,1/2-z
1/2-x,1/2+y,z
x,1/2-y,1/2+z
loop_
_atom_site_type_symbol
_atom_site_label
_atom_site_fract_x
_atom_site_fract_y
_atom_site_fract_z
Si Si1 0.712860 0.110385 0.297169
Si Si2 0.032436 0.920716 0.216982
Si Si3 0.276992 0.173971 0.018920
Si Si4 0.535170 0.750416 0.960445
O O1 0.728440 0.391322 0.265311
O O2 0.624477 0.008448 0.283324
O O3 0.732484 0.138002 0.393719
O O4 0.985469 0.187962 0.222334
O O5 0.014771 0.778950 0.133222
O O6 0.235413 0.408067 0.976143
O O7 0.369377 0.231067 0.031579
O O8 0.500000 0.500000 0.000000
O O9 0.500000 0.000000 0.000000
#
# Coordination Sequence:
#
# PCOD9459274 Si02
#       4
#     8   8   8   8
#     4  10  19  36  67  93 117 171 244 259 297 405
#     4  12  25  41  67 103 139 172 224 288 345 400
#     4  10  19  36  67  93 117 171 244 260 297 406
#     4  12  25  41  67 103 139 173 224 290 346 397
#
# _framework density 21.746770000000001
#
# number of rings (size 3 to 8) (size 9 to 14) (size 15 to 20)
#    0.000    1.000    5.000    4.500    7.000    0.000 
#    0.000    0.000    0.000   30.000    0.000    0.000 
#    0.000    0.000    0.000    0.000    0.000    0.000 
#
# Total GULP energy -178605.766076 kJ/mol
# GULP energy per Si atom -5581.430190 kJ/mol
# Density = 2.169727 g / cm^3
# Si number density = 21.746770 Si / 1000 Ang^3
#
#
#
# Elastic Constant Matrix: (Units=GPa)
#
#
# Indices 1 2 3 4 5 6 
#
# 1 101.2997 29.1976 11.2203 0.0000 0.0000 0.0000
# 2 29.1976 190.1326 5.7350 0.0000 0.0000 0.0000
# 3 11.2203 5.7350 9.0933 0.0000 0.0000 0.0000
# 4 0.0000 0.0000 0.0000 20.4761 0.0000 0.0000
# 5 0.0000 0.0000 0.0000 0.0000 16.3278 0.0000
# 6 0.0000 0.0000 0.0000 0.0000 0.0000 42.7548
#
#
#
# Elastic Compliance Matrix: (Units=1/GPa)
#
#
# Indices 1 2 3 4 5 6 
#
# 1 0.011788 -0.001398 -0.013664 0.000000 0.000000 0.000000
# 2 -0.001398 0.005527 -0.001761 0.000000 0.000000 0.000000
# 3 -0.013664 -0.001761 0.127942 0.000000 0.000000 0.000000
# 4 0.000000 0.000000 0.000000 0.048837 0.000000 0.000000
# 5 0.000000 0.000000 0.000000 0.000000 0.061245 0.000000
# 6 0.000000 0.000000 0.000000 0.000000 0.000000 0.023389
#
#
# Mechanical properties :
#
#
# Convention : Reuss Voigt Hill
#
# Bulk Modulus (GPa) = 8.95961 43.64795 26.30378
# Shear Modulus (GPa) = 14.30292 32.86992 23.58642
#
# Velocity S-wave (km/s) = 2.56735 3.89200 3.29689
# Velocity P-wave (km/s) = 3.59407 6.34913 5.15891
#
# Compressibility (1/GPa) = 0.11161198
#
# Stress axis : x y z
#
# Youngs Moduli (GPa) = 84.83115 180.92025 7.81604
#
# Poissons Ratio (x) = 0.25294 0.10680
# Poissons Ratio (y) = 0.11860 0.01376
# Poissons Ratio (z) = 1.15912 0.31858
#
# Static dielectric constant tensor:
#      x y z
#    x 1.771840 0.000000 0.000000 
#    y 0.000000 1.932540 0.000000 
#    z 0.000000 0.000000 -0.651280 
# 
# From -- ./inp_files/331.got.cif
#   From: 2010.05.17/outbox.cif.g08.bks.cpg/sg61_1_cif.got.tgz:331.got - 2010.06.03 15:17:17.
