data_PCOD9459760
_publ_section_title
;
Structure prediction by ZEFSAII (Michael W. Deem and Ramdas Pophale) SiO2 
 PCOD9459760
Probable space group: P B C A
;
_chemical_formula_sum "Si O2"
_cell_formula_units_Z 56
_cell_length_a 14.187839
_cell_length_b 30.749788
_cell_length_c 5.230298
_cell_angle_alpha 90.000000
_cell_angle_beta 90.000000
_cell_angle_gamma 90.000000
_cell_volume 2281.838016
_symmetry_space_group_name_H-M "P B C A"
_symmetry_group_IT_number 61
_symmetry_cell_setting 'orthorhombic'
loop_
_space_group_symop_operation_xyz
x,y,z
1/2-x,-y,1/2+z
1/2+x,1/2-y,-z
-x,1/2+y,1/2-z
-x,-y,-z
1/2+x,y,1/2-z
1/2-x,1/2+y,z
x,1/2-y,1/2+z
loop_
_atom_site_type_symbol
_atom_site_label
_atom_site_fract_x
_atom_site_fract_y
_atom_site_fract_z
Si Si1 0.937773 0.490701 0.249406
Si Si2 0.173248 0.722803 0.281741
Si Si3 0.139922 0.421568 0.849370
Si Si4 0.551360 0.275288 0.702938
Si Si5 0.610400 0.351911 0.015179
Si Si6 0.451990 0.107747 0.836335
Si Si7 0.769656 0.355817 0.366703
O O1 0.857635 0.527080 0.205490
O O2 0.917758 0.439628 0.258214
O O3 0.000000 0.500000 0.500000
O O4 0.000000 0.500000 0.000000
O O5 0.201745 0.742989 0.007058
O O6 0.060502 0.719936 0.240150
O O7 0.200205 0.676062 0.402775
O O8 0.146774 0.398356 0.577652
O O9 0.221695 0.399788 0.018085
O O10 0.035209 0.405750 0.958224
O O11 0.576134 0.241563 0.926032
O O12 0.598093 0.320373 0.777808
O O13 0.511401 0.361979 0.144933
O O14 0.685397 0.334156 0.210760
O O15 0.353855 0.134310 0.836033
#
# Coordination Sequence:
#
# PCOD9459760 Si02
#       7
#     8   8   8   8   8   8   8
#     4  10  20  43  71  97 132 180 226 273 342 404
#     4  10  23  42  65  94 132 178 227 279 344 415
#     4  10  24  42  67 102 134 178 235 281 338 423
#     4  10  23  41  67  94 127 177 227 276 337 409
#     4  11  23  41  67  96 134 172 230 277 338 415
#     4  10  22  44  69  93 136 185 218 280 351 400
#     4  11  25  42  64 104 135 177 229 287 344 416
#
# _framework density 24.541619000000001
#
# number of rings (size 3 to 8) (size 9 to 14) (size 15 to 20)
#    0.000    1.714    2.857    0.000    6.000    3.429 
#    2.571    0.000    0.000    0.000    0.000    0.000 
#    0.000    0.000    0.000    0.000    0.000    0.000 
#
# Total GULP energy -312652.974265 kJ/mol
# GULP energy per Si atom -5583.088826 kJ/mol
# Density = 2.448576 g / cm^3
# Si number density = 24.541619 Si / 1000 Ang^3
#
#
#
# Elastic Constant Matrix: (Units=GPa)
#
#
# Indices 1 2 3 4 5 6 
#
# 1 98.8498 38.8803 31.8941 0.0000 0.0000 0.0000
# 2 38.8803 107.4944 6.9396 0.0000 0.0000 0.0000
# 3 31.8941 6.9396 78.2807 0.0000 0.0000 0.0000
# 4 0.0000 0.0000 0.0000 33.5965 0.0000 0.0000
# 5 0.0000 0.0000 0.0000 0.0000 17.2906 0.0000
# 6 0.0000 0.0000 0.0000 0.0000 0.0000 32.9918
#
#
#
# Elastic Compliance Matrix: (Units=1/GPa)
#
#
# Indices 1 2 3 4 5 6 
#
# 1 0.013570 -0.004577 -0.005123 0.000000 0.000000 0.000000
# 2 -0.004577 0.010900 0.000899 0.000000 0.000000 0.000000
# 3 -0.005123 0.000899 0.014782 0.000000 0.000000 0.000000
# 4 0.000000 0.000000 0.000000 0.029765 0.000000 0.000000
# 5 0.000000 0.000000 0.000000 0.000000 0.057835 0.000000
# 6 0.000000 0.000000 0.000000 0.000000 0.000000 0.030311
#
#
# Mechanical properties :
#
#
# Convention : Reuss Voigt Hill
#
# Bulk Modulus (GPa) = 46.19176 48.89476 47.54326
# Shear Modulus (GPa) = 27.47522 30.56986 29.02254
#
# Velocity S-wave (km/s) = 3.34958 3.53318 3.44260
# Velocity P-wave (km/s) = 5.81569 6.05070 5.93436
#
# Compressibility (1/GPa) = 0.02164889
#
# Stress axis : x y z
#
# Youngs Moduli (GPa) = 73.69370 91.73968 67.64925
#
# Poissons Ratio (x) = 0.41993 0.34656
# Poissons Ratio (y) = 0.33732 -0.06079
# Poissons Ratio (z) = 0.37753 -0.08244
#
# Static dielectric constant tensor:
#      x y z
#    x 1.969570 0.000000 0.000000 
#    y 0.000000 1.976600 0.000000 
#    z 0.000000 0.000000 1.961300 
# 
# From -- ./inp_files/601.got.cif
#   From: 2010.05.17/outbox.cif.g08.bks.cpg/sg61_1_cif.got.tgz:601.got - 2010.06.03 15:17:17.
