data_PCOD9459234
_publ_section_title
;
Structure prediction by ZEFSAII (Michael W. Deem and Ramdas Pophale) SiO2 
 PCOD9459234
Probable space group: P B C A
;
_chemical_formula_sum "Si O2"
_cell_formula_units_Z 64
_cell_length_a 18.548686
_cell_length_b 8.974038
_cell_length_c 17.909578
_cell_angle_alpha 90.000000
_cell_angle_beta 90.000000
_cell_angle_gamma 90.000000
_cell_volume 2981.167694
_symmetry_space_group_name_H-M "P B C A"
_symmetry_group_IT_number 61
_symmetry_cell_setting 'orthorhombic'
loop_
_space_group_symop_operation_xyz
x,y,z
1/2-x,-y,1/2+z
1/2+x,1/2-y,-z
-x,1/2+y,1/2-z
-x,-y,-z
1/2+x,y,1/2-z
1/2-x,1/2+y,z
x,1/2-y,1/2+z
loop_
_atom_site_type_symbol
_atom_site_label
_atom_site_fract_x
_atom_site_fract_y
_atom_site_fract_z
Si Si1 0.520981 0.955637 0.200701
Si Si2 0.625840 0.035173 0.998341
Si Si3 0.902274 0.256572 0.089049
Si Si4 0.121010 0.198110 0.650996
Si Si5 0.029325 0.263325 0.897851
Si Si6 0.257169 0.068655 0.392475
Si Si7 0.965924 0.964042 0.874992
Si Si8 0.672431 0.201800 0.690640
O O1 0.500364 0.101376 0.152529
O O2 0.532119 0.000359 0.285983
O O3 0.586912 0.869726 0.159921
O O4 0.455032 0.844249 0.189105
O O5 0.570360 0.156771 0.033598
O O6 0.703154 0.048118 0.038590
O O7 0.595186 0.872137 0.019619
O O8 0.635155 0.079666 0.913226
O O9 0.826734 0.170309 0.090226
O O10 0.966557 0.136448 0.096810
O O11 0.173970 0.186015 0.720704
O O12 0.105513 0.361810 0.615932
O O13 0.093009 0.197314 0.845391
O O14 0.975700 0.126238 0.912835
O O15 0.207638 0.142540 0.329628
O O16 0.284869 0.917338 0.357495
#
# Coordination Sequence:
#
# PCOD9459234 Si02
#       8
#     8   8   8   8   8   8   8   8
#     4  10  19  35  62  92 124 154 193 254 316 377
#     4  10  24  40  57  86 128 167 205 252 305 372
#     4  10  20  36  63  85 117 165 201 241 311 374
#     4  11  23  40  60  93 130 156 202 264 321 355
#     4  10  19  35  60  92 119 159 198 241 311 378
#     4  11  21  40  65  85 114 170 223 241 300 374
#     4  11  19  34  66  95 123 152 203 257 312 375
#     4  11  21  38  63  88 118 161 212 259 297 369
#
# _framework density 21.468098000000001
#
# number of rings (size 3 to 8) (size 9 to 14) (size 15 to 20)
#    0.000    1.500    5.000    0.750    0.000    5.000 
#    2.250    0.000    0.000    0.000    0.000    0.000 
#    0.000    0.000    0.000    0.000    0.000    0.000 
#
# Total GULP energy -357329.215541 kJ/mol
# GULP energy per Si atom -5583.268993 kJ/mol
# Density = 2.141924 g / cm^3
# Si number density = 21.468098 Si / 1000 Ang^3
#
#
#
# Elastic Constant Matrix: (Units=GPa)
#
#
# Indices 1 2 3 4 5 6 
#
# 1 47.8650 9.3081 10.6113 0.0000 0.0000 0.0000
# 2 9.3081 86.7286 1.8933 0.0000 0.0000 0.0000
# 3 10.6113 1.8933 77.9577 0.0000 0.0000 0.0000
# 4 0.0000 0.0000 0.0000 20.8822 0.0000 0.0000
# 5 0.0000 0.0000 0.0000 0.0000 17.8188 0.0000
# 6 0.0000 0.0000 0.0000 0.0000 0.0000 -19.1101
#
#
#
# Elastic Compliance Matrix: (Units=1/GPa)
#
#
# Indices 1 2 3 4 5 6 
#
# 1 0.021990 -0.002296 -0.002937 0.000000 0.000000 0.000000
# 2 -0.002296 0.011776 0.000027 0.000000 0.000000 0.000000
# 3 -0.002937 0.000027 0.013227 0.000000 0.000000 0.000000
# 4 0.000000 0.000000 0.000000 0.047888 0.000000 0.000000
# 5 0.000000 0.000000 0.000000 0.000000 0.056120 0.000000
# 6 0.000000 0.000000 0.000000 0.000000 0.000000 -0.052328
#
#
# Mechanical properties :
#
#
# Convention : Reuss Voigt Hill
#
# Bulk Modulus (GPa) = 27.33818 28.46407 27.90113
# Shear Modulus (GPa) = 41.22732 16.63410 28.93071
#
# Velocity S-wave (km/s) = 4.38699 2.78659 3.67497
# Velocity P-wave (km/s) = 6.19862 4.86220 5.57063
#
# Compressibility (1/GPa) = 0.03657887
#
# Stress axis : x y z
#
# Youngs Moduli (GPa) = 45.47569 84.91816 75.60489
#
# Poissons Ratio (x) = 0.19496 0.22208
# Poissons Ratio (y) = 0.10441 -0.00201
# Poissons Ratio (z) = 0.13358 -0.00225
#
# Static dielectric constant tensor:
#      x y z
#    x 1.803330 0.000000 0.000000 
#    y 0.000000 1.843750 0.000000 
#    z 0.000000 0.000000 1.796310 
# 
# From -- ./inp_files/9793.got.cif
#   From: 2010.05.17/outbox.cif.g08.bks.cpg/sg61_5_cif.got.tgz:9793.got - 2010.06.03 15:17:17.
