data_PCOD9459960
_publ_section_title
;
Structure prediction by ZEFSAII (Michael W. Deem and Ramdas Pophale) SiO2 
 PCOD9459960
Probable space group: P B C A
;
_chemical_formula_sum "Si O2"
_cell_formula_units_Z 40
_cell_length_a 8.030617
_cell_length_b 10.721221
_cell_length_c 18.812000
_cell_angle_alpha 90.000000
_cell_angle_beta 90.000000
_cell_angle_gamma 90.000000
_cell_volume 1619.675945
_symmetry_space_group_name_H-M "P B C A"
_symmetry_group_IT_number 61
_symmetry_cell_setting 'orthorhombic'
loop_
_space_group_symop_operation_xyz
x,y,z
1/2-x,-y,1/2+z
1/2+x,1/2-y,-z
-x,1/2+y,1/2-z
-x,-y,-z
1/2+x,y,1/2-z
1/2-x,1/2+y,z
x,1/2-y,1/2+z
loop_
_atom_site_type_symbol
_atom_site_label
_atom_site_fract_x
_atom_site_fract_y
_atom_site_fract_z
Si Si1 0.346231 0.608591 0.668572
Si Si2 0.454734 0.551205 0.145068
Si Si3 0.395005 0.785539 0.398975
Si Si4 0.980075 0.272756 0.046420
Si Si5 0.941489 0.262820 0.763671
O O1 0.229650 0.488853 0.670468
O O2 0.408170 0.626999 0.588198
O O3 0.502247 0.637527 0.719487
O O4 0.224161 0.720297 0.695366
O O5 0.546364 0.424844 0.121045
O O6 0.452472 0.641554 0.077139
O O7 0.550326 0.627534 0.206433
O O8 0.503849 0.728539 0.462415
O O9 0.426027 0.711227 0.326264
O O10 0.207833 0.785378 0.426730
#
# Coordination Sequence:
#
# PCOD9459960 Si02
#       5
#     8   8   8   8   8
#     4  10  22  41  65  96 130 171 221 271 326 391
#     4  10  23  44  68  95 132 176 217 270 337 395
#     4  11  23  43  69  99 134 174 221 275 330 393
#     4  11  24  45  69  99 135 173 221 279 331 393
#     4  10  21  39  64  97 133 172 217 271 324 392
#
# _framework density 24.696299
#
# number of rings (size 3 to 8) (size 9 to 14) (size 15 to 20)
#    0.000    1.600    0.000    5.400    0.000    9.600 
#    0.000   18.000    0.000    0.000    0.000    0.000 
#    0.000    0.000    0.000    0.000    0.000    0.000 
#
# Total GULP energy -223897.312621 kJ/mol
# GULP energy per Si atom -5597.432816 kJ/mol
# Density = 2.464009 g / cm^3
# Si number density = 24.696299 Si / 1000 Ang^3
#
#
#
# Elastic Constant Matrix: (Units=GPa)
#
#
# Indices 1 2 3 4 5 6 
#
# 1 58.3970 -7.5529 -6.9117 0.0000 0.0000 0.0000
# 2 -7.5529 38.8431 7.3725 0.0000 0.0000 0.0000
# 3 -6.9117 7.3725 139.2947 0.0000 0.0000 0.0000
# 4 0.0000 0.0000 0.0000 26.6972 0.0000 0.0000
# 5 0.0000 0.0000 0.0000 0.0000 49.7453 0.0000
# 6 0.0000 0.0000 0.0000 0.0000 0.0000 35.7821
#
#
#
# Elastic Compliance Matrix: (Units=1/GPa)
#
#
# Indices 1 2 3 4 5 6 
#
# 1 0.017633 0.003296 0.000701 0.000000 0.000000 0.000000
# 2 0.003296 0.026622 -0.001245 0.000000 0.000000 0.000000
# 3 0.000701 -0.001245 0.007280 0.000000 0.000000 0.000000
# 4 0.000000 0.000000 0.000000 0.037457 0.000000 0.000000
# 5 0.000000 0.000000 0.000000 0.000000 0.020102 0.000000
# 6 0.000000 0.000000 0.000000 0.000000 0.000000 0.027947
#
#
# Mechanical properties :
#
#
# Convention : Reuss Voigt Hill
#
# Bulk Modulus (GPa) = 17.53265 24.70563 21.11914
# Shear Modulus (GPa) = 33.21113 38.68670 35.94892
#
# Velocity S-wave (km/s) = 3.67110 3.96219 3.81942
# Velocity P-wave (km/s) = 5.00840 5.56394 5.29346
#
# Compressibility (1/GPa) = 0.05703646
#
# Stress axis : x y z
#
# Youngs Moduli (GPa) = 56.71075 37.56317 137.36825
#
# Poissons Ratio (x) = -0.12380 -0.09623
# Poissons Ratio (y) = -0.18691 0.17109
# Poissons Ratio (z) = -0.03973 0.04678
#
# Static dielectric constant tensor:
#      x y z
#    x 2.036200 0.000000 0.000000 
#    y 0.000000 1.999010 0.000000 
#    z 0.000000 0.000000 1.925280 
# 
# From -- ./inp_files/2153.got.cif
#   From: 2010.05.17/outbox.cif.g08.bks.cpg/sg61_2_cif.got.tgz:2153.got - 2010.06.03 15:17:17.
