data_PCOD9459021
_publ_section_title
;
Structure prediction by ZEFSAII (Michael W. Deem and Ramdas Pophale) SiO2 
 PCOD9459021
Probable space group: P B C A
;
_chemical_formula_sum "Si O2"
_cell_formula_units_Z 56
_cell_length_a 21.250911
_cell_length_b 4.998077
_cell_length_c 31.133767
_cell_angle_alpha 90.000000
_cell_angle_beta 90.000000
_cell_angle_gamma 90.000000
_cell_volume 3306.832261
_symmetry_space_group_name_H-M "P B C A"
_symmetry_group_IT_number 61
_symmetry_cell_setting 'orthorhombic'
loop_
_space_group_symop_operation_xyz
x,y,z
1/2-x,-y,1/2+z
1/2+x,1/2-y,-z
-x,1/2+y,1/2-z
-x,-y,-z
1/2+x,y,1/2-z
1/2-x,1/2+y,z
x,1/2-y,1/2+z
loop_
_atom_site_type_symbol
_atom_site_label
_atom_site_fract_x
_atom_site_fract_y
_atom_site_fract_z
Si Si1 0.789964 0.972359 0.475801
Si Si2 0.289670 0.538529 0.626808
Si Si3 0.504987 0.320852 0.848028
Si Si4 0.587884 0.820725 0.826019
Si Si5 0.917664 0.763868 0.012133
Si Si6 0.539698 0.935683 0.739642
Si Si7 0.470650 0.258593 0.445100
O O1 0.732050 0.772174 0.485681
O O2 0.850839 0.855428 0.499027
O O3 0.801702 0.968209 0.424410
O O4 0.268546 0.839686 0.636746
O O5 0.349499 0.423022 0.651339
O O6 0.561976 0.532483 0.840540
O O7 0.453956 0.388744 0.811049
O O8 0.479506 0.322502 0.896027
O O9 0.533161 0.028443 0.839320
O O10 0.591575 0.846685 0.774154
O O11 0.948790 0.560762 0.046401
O O12 0.921663 0.058993 0.031794
O O13 0.963137 0.769300 0.970409
O O14 0.480911 0.740684 0.752151
#
# Coordination Sequence:
#
# PCOD9459021 Si02
#       7
#     8   8   8   8   8   8   8
#     4  10  20  33  49  67  91 124 160 197 231 274
#     4  10  20  31  45  68  92 120 158 188 222 274
#     4  10  18  30  48  71  95 123 154 184 233 285
#     4  10  18  30  48  68  97 126 148 188 232 273
#     4  10  20  33  46  69  96 123 159 192 239 286
#     4   8  16  28  44  68  93 117 148 178 216 274
#     4  10  20  31  48  70  98 126 151 194 239 288
#
# _framework density 16.934635
#
# number of rings (size 3 to 8) (size 9 to 14) (size 15 to 20)
#    0.000    2.286    0.000    3.429    0.000    4.571 
#    0.000    0.000    0.000    0.000    0.000    6.000 
#    0.000    0.000    0.000    0.000    0.000    0.000 
#
# Total GULP energy -312118.341599 kJ/mol
# GULP energy per Si atom -5573.541814 kJ/mol
# Density = 1.689609 g / cm^3
# Si number density = 16.934635 Si / 1000 Ang^3
#
#
#
# Elastic Constant Matrix: (Units=GPa)
#
#
# Indices 1 2 3 4 5 6 
#
# 1 38.1921 -6.8753 35.4358 0.0000 0.0000 0.0000
# 2 -6.8753 67.7075 10.7568 0.0000 0.0000 0.0000
# 3 35.4358 10.7568 96.6531 0.0000 0.0000 0.0000
# 4 0.0000 0.0000 0.0000 18.7921 0.0000 0.0000
# 5 0.0000 0.0000 0.0000 0.0000 16.0814 0.0000
# 6 0.0000 0.0000 0.0000 0.0000 0.0000 15.9444
#
#
#
# Elastic Compliance Matrix: (Units=1/GPa)
#
#
# Indices 1 2 3 4 5 6 
#
# 1 0.042661 0.006940 -0.016413 0.000000 0.000000 0.000000
# 2 0.006940 0.016164 -0.004343 0.000000 0.000000 0.000000
# 3 -0.016413 -0.004343 0.016847 0.000000 0.000000 0.000000
# 4 0.000000 0.000000 0.000000 0.053214 0.000000 0.000000
# 5 0.000000 0.000000 0.000000 0.000000 0.062184 0.000000
# 6 0.000000 0.000000 0.000000 0.000000 0.000000 0.062718
#
#
# Mechanical properties :
#
#
# Convention : Reuss Voigt Hill
#
# Bulk Modulus (GPa) = 20.81638 31.24302 26.02970
# Shear Modulus (GPa) = 16.81040 21.04593 18.92816
#
# Velocity S-wave (km/s) = 3.15407 3.52912 3.34686
# Velocity P-wave (km/s) = 5.05798 5.92415 5.50811
#
# Compressibility (1/GPa) = 0.04803910
#
# Stress axis : x y z
#
# Youngs Moduli (GPa) = 23.44041 61.86542 59.35707
#
# Poissons Ratio (x) = -0.42932 0.97424
# Poissons Ratio (y) = -0.16267 0.25780
# Poissons Ratio (z) = 0.38473 0.26869
#
# Static dielectric constant tensor:
#      x y z
#    x 1.552560 0.000000 0.000000 
#    y 0.000000 1.578030 0.000000 
#    z 0.000000 0.000000 1.592040 
# 
# From -- ./inp_files/11538.got.cif
#   From: 2010.05.17/outbox.cif.g08.bks.cpg/sg61_6_cif.got.tgz:11538.got - 2010.06.03 15:17:17.
