data_PCOD9459331
_publ_section_title
;
Structure prediction by ZEFSAII (Michael W. Deem and Ramdas Pophale) SiO2 
 PCOD9459331
Probable space group: P B C A
;
_chemical_formula_sum "Si O2"
_cell_formula_units_Z 56
_cell_length_a 12.667973
_cell_length_b 15.696063
_cell_length_c 12.398235
_cell_angle_alpha 90.000000
_cell_angle_beta 90.000000
_cell_angle_gamma 90.000000
_cell_volume 2465.231601
_symmetry_space_group_name_H-M "P B C A"
_symmetry_group_IT_number 61
_symmetry_cell_setting 'orthorhombic'
loop_
_space_group_symop_operation_xyz
x,y,z
1/2-x,-y,1/2+z
1/2+x,1/2-y,-z
-x,1/2+y,1/2-z
-x,-y,-z
1/2+x,y,1/2-z
1/2-x,1/2+y,z
x,1/2-y,1/2+z
loop_
_atom_site_type_symbol
_atom_site_label
_atom_site_fract_x
_atom_site_fract_y
_atom_site_fract_z
Si Si1 0.944793 0.007158 0.676992
Si Si2 0.696036 0.622740 0.810694
Si Si3 0.025859 0.270102 0.013127
Si Si4 0.889895 0.848606 0.816750
Si Si5 0.353805 0.556844 0.542050
Si Si6 0.669852 0.209726 0.647911
Si Si7 0.806601 0.296416 0.943267
O O1 0.938333 0.932675 0.765807
O O2 0.867553 0.984851 0.575552
O O3 0.901002 0.089468 0.740115
O O4 0.058778 0.017668 0.622620
O O5 0.739241 0.559139 0.902727
O O6 0.793398 0.635697 0.726988
O O7 0.680732 0.713983 0.867027
O O8 0.064312 0.203461 0.922240
O O9 0.925625 0.322010 0.970386
O O10 0.026485 0.211317 0.119211
O O11 0.112320 0.343522 0.031746
O O12 0.848760 0.793130 0.717506
O O13 0.783741 0.855702 0.890704
O O14 0.761626 0.223927 0.561314
#
# Coordination Sequence:
#
# PCOD9459331 Si02
#       7
#     8   8   8   8   8   8   8
#     4  11  25  42  67  96 136 178 214 272 347 396
#     4  11  23  42  66  95 133 177 213 272 342 392
#     4  11  21  39  69  95 130 169 226 273 327 391
#     4  10  21  42  62  95 128 169 225 268 319 401
#     4  11  23  45  64  99 134 171 219 276 328 403
#     4  10  19  40  63  92 127 165 219 273 307 397
#     4  10  22  38  67  97 125 170 226 270 321 386
#
# _framework density 22.715917999999999
#
# number of rings (size 3 to 8) (size 9 to 14) (size 15 to 20)
#    0.000    1.429    5.714    0.857    2.000    6.857 
#    5.143    0.714    0.000    0.000    0.000    0.000 
#    0.000    0.000    0.000    0.000    0.000    0.000 
#
# Total GULP energy -312474.244978 kJ/mol
# GULP energy per Si atom -5579.897232 kJ/mol
# Density = 2.266422 g / cm^3
# Si number density = 22.715918 Si / 1000 Ang^3
#
#
#
# Elastic Constant Matrix: (Units=GPa)
#
#
# Indices 1 2 3 4 5 6 
#
# 1 49.6341 -7.3366 8.8432 0.0000 0.0000 0.0000
# 2 -7.3366 74.4853 26.7726 0.0000 0.0000 0.0000
# 3 8.8432 26.7726 105.0736 0.0000 0.0000 0.0000
# 4 0.0000 0.0000 0.0000 35.5854 0.0000 0.0000
# 5 0.0000 0.0000 0.0000 0.0000 26.3005 0.0000
# 6 0.0000 0.0000 0.0000 0.0000 0.0000 20.4185
#
#
#
# Elastic Compliance Matrix: (Units=1/GPa)
#
#
# Indices 1 2 3 4 5 6 
#
# 1 0.021039 0.002982 -0.002530 0.000000 0.000000 0.000000
# 2 0.002982 0.015202 -0.004124 0.000000 0.000000 0.000000
# 3 -0.002530 -0.004124 0.010781 0.000000 0.000000 0.000000
# 4 0.000000 0.000000 0.000000 0.028101 0.000000 0.000000
# 5 0.000000 0.000000 0.000000 0.000000 0.038022 0.000000
# 6 0.000000 0.000000 0.000000 0.000000 0.000000 0.048975
#
#
# Mechanical properties :
#
#
# Convention : Reuss Voigt Hill
#
# Bulk Modulus (GPa) = 25.20434 31.75018 28.47726
# Shear Modulus (GPa) = 27.36855 29.85512 28.61184
#
# Velocity S-wave (km/s) = 3.47481 3.62924 3.55286
# Velocity P-wave (km/s) = 5.21715 5.61865 5.42162
#
# Compressibility (1/GPa) = 0.03967570
#
# Stress axis : x y z
#
# Youngs Moduli (GPa) = 47.53071 65.78261 92.75602
#
# Poissons Ratio (x) = -0.19615 0.23471
# Poissons Ratio (y) = -0.14173 0.38255
# Poissons Ratio (z) = 0.12027 0.27131
#
# Static dielectric constant tensor:
#      x y z
#    x 1.908340 0.000000 0.000000 
#    y 0.000000 1.860020 0.000000 
#    z 0.000000 0.000000 1.883460 
# 
# From -- ./inp_files/5803.got.cif
#   From: 2010.05.17/outbox.cif.g08.bks.cpg/sg61_3_cif.got.tgz:5803.got - 2010.06.03 15:17:17.
