data_PCOD9459519
_publ_section_title
;
Structure prediction by ZEFSAII (Michael W. Deem and Ramdas Pophale) SiO2 
 PCOD9459519
Probable space group: P B C A
;
_chemical_formula_sum "Si O2"
_cell_formula_units_Z 64
_cell_length_a 11.735699
_cell_length_b 9.384839
_cell_length_c 22.147129
_cell_angle_alpha 90.000000
_cell_angle_beta 90.000000
_cell_angle_gamma 90.000000
_cell_volume 2439.232646
_symmetry_space_group_name_H-M "P B C A"
_symmetry_group_IT_number 61
_symmetry_cell_setting 'orthorhombic'
loop_
_space_group_symop_operation_xyz
x,y,z
1/2-x,-y,1/2+z
1/2+x,1/2-y,-z
-x,1/2+y,1/2-z
-x,-y,-z
1/2+x,y,1/2-z
1/2-x,1/2+y,z
x,1/2-y,1/2+z
loop_
_atom_site_type_symbol
_atom_site_label
_atom_site_fract_x
_atom_site_fract_y
_atom_site_fract_z
Si Si1 0.137093 0.855163 0.259674
Si Si2 0.238771 0.109307 0.183053
Si Si3 0.276479 0.243654 0.868291
Si Si4 0.827596 0.511906 0.061571
Si Si5 0.357276 0.156422 0.508755
Si Si6 0.933619 0.392113 0.902220
Si Si7 0.442922 0.644812 0.823855
Si Si8 0.462588 0.590510 0.093337
O O1 0.198084 0.737285 0.217128
O O2 0.117419 0.797087 0.327987
O O3 0.006353 0.866161 0.237939
O O4 0.188918 0.004250 0.234346
O O5 0.338532 0.039895 0.140912
O O6 0.138796 0.152674 0.135223
O O7 0.227178 0.395847 0.883356
O O8 0.188460 0.176480 0.819877
O O9 0.274864 0.143521 0.927302
O O10 0.769328 0.598892 0.007406
O O11 0.963224 0.518413 0.068402
O O12 0.369044 0.301374 0.546172
O O13 0.444682 0.165586 0.450861
O O14 0.404887 0.027797 0.549934
O O15 0.000858 0.271651 0.863250
O O16 0.462427 0.501633 0.860574
#
# Coordination Sequence:
#
# PCOD9459519 Si02
#       8
#     8   8   8   8   8   8   8   8
#     4  10  21  39  64  87 118 162 205 248 309 356
#     4  10  21  41  61  90 120 155 208 252 300 360
#     4  11  22  41  61  88 123 160 204 253 305 360
#     4  11  24  41  60  91 126 159 205 252 304 364
#     4  10  20  37  62  85 118 169 199 230 308 376
#     4   9  21  37  58  87 127 153 190 262 305 343
#     4   8  17  38  58  81 114 163 198 233 293 378
#     4   9  18  36  64  82 111 163 209 230 280 388
#
# _framework density 26.237760000000002
#
# number of rings (size 3 to 8) (size 9 to 14) (size 15 to 20)
#    0.000    2.250    1.250    1.500    3.500    1.000 
#    4.500    5.000    0.000    0.000    0.000    0.000 
#    0.000    0.000    0.000    0.000    0.000    0.000 
#
# Total GULP energy -357485.288500 kJ/mol
# GULP energy per Si atom -5585.707633 kJ/mol
# Density = 2.617804 g / cm^3
# Si number density = 26.237760 Si / 1000 Ang^3
#
#
#
# Elastic Constant Matrix: (Units=GPa)
#
#
# Indices 1 2 3 4 5 6 
#
# 1 71.7891 6.6835 -12.2819 0.0000 0.0000 0.0000
# 2 6.6835 73.3431 -2.7658 0.0000 0.0000 0.0000
# 3 -12.2819 -2.7658 88.8339 0.0000 0.0000 0.0000
# 4 0.0000 0.0000 0.0000 29.4865 0.0000 0.0000
# 5 0.0000 0.0000 0.0000 0.0000 -12.4268 0.0000
# 6 0.0000 0.0000 0.0000 0.0000 0.0000 32.8526
#
#
#
# Elastic Compliance Matrix: (Units=1/GPa)
#
#
# Indices 1 2 3 4 5 6 
#
# 1 0.014378 -0.001237 0.001949 0.000000 0.000000 0.000000
# 2 -0.001237 0.013757 0.000257 0.000000 0.000000 0.000000
# 3 0.001949 0.000257 0.011534 0.000000 0.000000 0.000000
# 4 0.000000 0.000000 0.000000 0.033914 0.000000 0.000000
# 5 0.000000 0.000000 0.000000 0.000000 -0.080471 0.000000
# 6 0.000000 0.000000 0.000000 0.000000 0.000000 0.030439
#
#
# Mechanical properties :
#
#
# Convention : Reuss Voigt Hill
#
# Bulk Modulus (GPa) = 24.03283 24.13753 24.08518
# Shear Modulus (GPa) = 140.91998 26.13782 83.52890
#
# Velocity S-wave (km/s) = 7.33658 3.15967 5.64841
# Velocity P-wave (km/s) = 8.99704 4.74667 7.19297
#
# Compressibility (1/GPa) = 0.04160975
#
# Stress axis : x y z
#
# Youngs Moduli (GPa) = 69.54910 72.69050 86.69649
#
# Poissons Ratio (x) = 0.08990 -0.16901
# Poissons Ratio (y) = 0.08601 -0.02231
# Poissons Ratio (z) = -0.13558 -0.01870
#
# Static dielectric constant tensor:
#      x y z
#    x 2.146850 0.000000 0.000000 
#    y 0.000000 2.049250 0.000000 
#    z 0.000000 0.000000 2.308510 
# 
# From -- ./inp_files/11012.got.cif
#   From: 2010.05.17/outbox.cif.g08.bks.cpg/sg61_6_cif.got.tgz:11012.got - 2010.06.03 15:17:17.
