data_PCOD9459110
_publ_section_title
;
Structure prediction by ZEFSAII (Michael W. Deem and Ramdas Pophale) SiO2 
 PCOD9459110
Probable space group: P B C A
;
_chemical_formula_sum "Si O2"
_cell_formula_units_Z 32
_cell_length_a 12.702996
_cell_length_b 21.037722
_cell_length_c 4.862380
_cell_angle_alpha 90.000000
_cell_angle_beta 90.000000
_cell_angle_gamma 90.000000
_cell_volume 1299.432634
_symmetry_space_group_name_H-M "P B C A"
_symmetry_group_IT_number 61
_symmetry_cell_setting 'orthorhombic'
loop_
_space_group_symop_operation_xyz
x,y,z
1/2-x,-y,1/2+z
1/2+x,1/2-y,-z
-x,1/2+y,1/2-z
-x,-y,-z
1/2+x,y,1/2-z
1/2-x,1/2+y,z
x,1/2-y,1/2+z
loop_
_atom_site_type_symbol
_atom_site_label
_atom_site_fract_x
_atom_site_fract_y
_atom_site_fract_z
Si Si1 0.027223 0.590174 0.140155
Si Si2 0.103629 0.124043 0.894217
Si Si3 0.785015 0.463550 0.162763
Si Si4 0.060023 0.710083 0.431630
O O1 0.951472 0.573656 0.394559
O O2 0.097483 0.645002 0.291538
O O3 0.102154 0.542485 0.980057
O O4 0.952960 0.618842 0.900490
O O5 0.222780 0.102982 0.866277
O O6 0.064690 0.190392 0.029730
O O7 0.776113 0.484630 0.476734
O O8 0.089196 0.732694 0.732222
#
# Coordination Sequence:
#
# PCOD9459110 Si02
#       4
#     8   8   8   8
#     4  10  22  40  62  89 125 155 205 247 297 364
#     4  10  22  40  62  89 125 155 205 247 297 364
#     4  12  26  40  62  90 124 162 206 248 298 360
#     4  10  18  38  66  86 118 158 194 250 310 350
#
# _framework density 24.626135000000001
#
# number of rings (size 3 to 8) (size 9 to 14) (size 15 to 20)
#    1.500    0.000    2.500    3.000    0.000    6.000 
#    0.000    2.500    0.000    0.000    0.000    0.000 
#    0.000    0.000    0.000    0.000    0.000    0.000 
#
# Total GULP energy -178183.744561 kJ/mol
# GULP energy per Si atom -5568.242018 kJ/mol
# Density = 2.457008 g / cm^3
# Si number density = 24.626135 Si / 1000 Ang^3
#
#
#
# Elastic Constant Matrix: (Units=GPa)
#
#
# Indices 1 2 3 4 5 6 
#
# 1 38.8967 -0.1671 9.3133 0.0000 0.0000 0.0000
# 2 -0.1671 32.8369 5.7880 0.0000 0.0000 0.0000
# 3 9.3133 5.7880 144.8281 0.0000 0.0000 0.0000
# 4 0.0000 0.0000 0.0000 35.0100 0.0000 0.0000
# 5 0.0000 0.0000 0.0000 0.0000 17.2199 0.0000
# 6 0.0000 0.0000 0.0000 0.0000 0.0000 31.1023
#
#
#
# Elastic Compliance Matrix: (Units=1/GPa)
#
#
# Indices 1 2 3 4 5 6 
#
# 1 0.026117 0.000432 -0.001697 0.000000 0.000000 0.000000
# 2 0.000432 0.030677 -0.001254 0.000000 0.000000 0.000000
# 3 -0.001697 -0.001254 0.007064 0.000000 0.000000 0.000000
# 4 0.000000 0.000000 0.000000 0.028563 0.000000 0.000000
# 5 0.000000 0.000000 0.000000 0.000000 0.058072 0.000000
# 6 0.000000 0.000000 0.000000 0.000000 0.000000 0.032152
#
#
# Mechanical properties :
#
#
# Convention : Reuss Voigt Hill
#
# Bulk Modulus (GPa) = 17.00079 27.38114 22.19096
# Shear Modulus (GPa) = 24.12085 30.10828 27.11457
#
# Velocity S-wave (km/s) = 3.13306 3.50038 3.32180
# Velocity P-wave (km/s) = 4.47288 5.24212 4.87270
#
# Compressibility (1/GPa) = 0.05882080
#
# Stress axis : x y z
#
# Youngs Moduli (GPa) = 38.28886 32.59803 141.56376
#
# Poissons Ratio (x) = -0.01408 0.24020
# Poissons Ratio (y) = -0.01654 0.17749
# Poissons Ratio (z) = 0.06497 0.04087
#
# Static dielectric constant tensor:
#      x y z
#    x 1.989450 0.000000 0.000000 
#    y 0.000000 2.084640 0.000000 
#    z 0.000000 0.000000 1.902410 
# 
# From -- ./inp_files/173.got.cif
#   From: 2010.05.17/outbox.cif.g08.bks.cpg/sg61_1_cif.got.tgz:173.got - 2010.06.03 15:17:17.
