data_PCOD9459182
_publ_section_title
;
Structure prediction by ZEFSAII (Michael W. Deem and Ramdas Pophale) SiO2 
 PCOD9459182
Probable space group: P B C A
;
_chemical_formula_sum "Si O2"
_cell_formula_units_Z 64
_cell_length_a 16.858781
_cell_length_b 22.605795
_cell_length_c 8.962172
_cell_angle_alpha 90.000000
_cell_angle_beta 90.000000
_cell_angle_gamma 90.000000
_cell_volume 3415.538842
_symmetry_space_group_name_H-M "P B C A"
_symmetry_group_IT_number 61
_symmetry_cell_setting 'orthorhombic'
loop_
_space_group_symop_operation_xyz
x,y,z
1/2-x,-y,1/2+z
1/2+x,1/2-y,-z
-x,1/2+y,1/2-z
-x,-y,-z
1/2+x,y,1/2-z
1/2-x,1/2+y,z
x,1/2-y,1/2+z
loop_
_atom_site_type_symbol
_atom_site_label
_atom_site_fract_x
_atom_site_fract_y
_atom_site_fract_z
Si Si1 0.569930 0.182199 0.442553
Si Si2 0.961556 0.641829 0.954064
Si Si3 0.484041 0.434793 0.937481
Si Si4 0.425630 0.256563 0.539564
Si Si5 0.174915 0.801741 0.290441
Si Si6 0.459724 0.966534 0.862840
Si Si7 0.093495 0.915700 0.235731
Si Si8 0.854905 0.774971 0.253148
O O1 0.556350 0.112106 0.445603
O O2 0.482066 0.211052 0.450656
O O3 0.613762 0.205293 0.591243
O O4 0.615428 0.210093 0.302263
O O5 0.897053 0.681472 0.871391
O O6 0.020037 0.684804 0.047746
O O7 0.016811 0.611423 0.824909
O O8 0.925360 0.592181 0.061361
O O9 0.475587 0.445482 0.760598
O O10 0.500000 0.500000 0.000000
O O11 0.419946 0.411678 0.057385
O O12 0.395272 0.224962 0.687349
O O13 0.347604 0.276546 0.451285
O O14 0.164423 0.872552 0.282793
O O15 0.261030 0.781476 0.242255
O O16 0.403598 0.015640 0.785559
O O17 0.500000 0.000000 0.000000
#
# Coordination Sequence:
#
# PCOD9459182 Si02
#       8
#     8   8   8   8   8   8   8   8
#     4  11  21  38  58  87 113 152 202 238 294 354
#     4   9  18  33  55  81 108 143 188 242 283 342
#     4  10  19  33  59  85 109 146 199 253 284 334
#     4  10  20  33  57  80 111 146 191 234 288 346
#     4  11  21  36  54  83 120 153 184 235 301 350
#     4   9  19  32  57  87 109 136 197 249 289 333
#     4   9  17  36  55  78 109 149 189 239 282 345
#     4  11  23  35  56  84 124 152 183 242 303 355
#
# _framework density 18.737891999999999
#
# number of rings (size 3 to 8) (size 9 to 14) (size 15 to 20)
#    0.000    2.000    2.500    2.250    5.250    0.000 
#    0.000    0.000    5.500    0.000    0.000    0.000 
#    0.000    0.000    0.000    0.000    0.000    0.000 
#
# Total GULP energy -356484.811484 kJ/mol
# GULP energy per Si atom -5570.075179 kJ/mol
# Density = 1.869524 g / cm^3
# Si number density = 18.737892 Si / 1000 Ang^3
#
#
#
# Elastic Constant Matrix: (Units=GPa)
#
#
# Indices 1 2 3 4 5 6 
#
# 1 68.5320 24.7801 8.4494 0.0000 0.0000 0.0000
# 2 24.7801 111.3914 23.4243 0.0000 0.0000 0.0000
# 3 8.4494 23.4243 85.7465 0.0000 0.0000 0.0000
# 4 0.0000 0.0000 0.0000 41.0890 0.0000 0.0000
# 5 0.0000 0.0000 0.0000 0.0000 16.1701 0.0000
# 6 0.0000 0.0000 0.0000 0.0000 0.0000 15.0999
#
#
#
# Elastic Compliance Matrix: (Units=1/GPa)
#
#
# Indices 1 2 3 4 5 6 
#
# 1 0.015901 -0.003403 -0.000637 0.000000 0.000000 0.000000
# 2 -0.003403 0.010253 -0.002466 0.000000 0.000000 0.000000
# 3 -0.000637 -0.002466 0.012399 0.000000 0.000000 0.000000
# 4 0.000000 0.000000 0.000000 0.024337 0.000000 0.000000
# 5 0.000000 0.000000 0.000000 0.000000 0.061843 0.000000
# 6 0.000000 0.000000 0.000000 0.000000 0.000000 0.066226
#
#
# Mechanical properties :
#
#
# Convention : Reuss Voigt Hill
#
# Bulk Modulus (GPa) = 39.15368 42.10864 40.63116
# Shear Modulus (GPa) = 23.53126 28.40621 25.96873
#
# Velocity S-wave (km/s) = 3.54759 3.89778 3.72680
# Velocity P-wave (km/s) = 6.14177 6.54050 6.34427
#
# Compressibility (1/GPa) = 0.02554038
#
# Stress axis : x y z
#
# Youngs Moduli (GPa) = 62.88963 97.53311 80.65423
#
# Poissons Ratio (x) = 0.33194 0.05139
# Poissons Ratio (y) = 0.21403 0.19886
# Poissons Ratio (z) = 0.04007 0.24047
#
# Static dielectric constant tensor:
#      x y z
#    x 1.604370 0.000000 0.000000 
#    y 0.000000 1.705540 0.000000 
#    z 0.000000 0.000000 1.709480 
# 
# From -- ./inp_files/3193.got.cif
#   From: 2010.05.17/outbox.cif.g08.bks.cpg/sg61_2_cif.got.tgz:3193.got - 2010.06.03 15:17:17.
