data_PCOD9459771
_publ_section_title
;
Structure prediction by ZEFSAII (Michael W. Deem and Ramdas Pophale) SiO2 
 PCOD9459771
Probable space group: P B C A
;
_chemical_formula_sum "Si O2"
_cell_formula_units_Z 36
_cell_length_a 12.624047
_cell_length_b 11.554499
_cell_length_c 8.615745
_cell_angle_alpha 90.000000
_cell_angle_beta 90.000000
_cell_angle_gamma 90.000000
_cell_volume 1256.731668
_symmetry_space_group_name_H-M "P B C A"
_symmetry_group_IT_number 61
_symmetry_cell_setting 'orthorhombic'
loop_
_space_group_symop_operation_xyz
x,y,z
1/2-x,-y,1/2+z
1/2+x,1/2-y,-z
-x,1/2+y,1/2-z
-x,-y,-z
1/2+x,y,1/2-z
1/2-x,1/2+y,z
x,1/2-y,1/2+z
loop_
_atom_site_type_symbol
_atom_site_label
_atom_site_fract_x
_atom_site_fract_y
_atom_site_fract_z
Si Si1 0.478436 0.187650 0.052957
Si Si2 0.614213 0.040206 0.809987
Si Si3 0.000000 0.500000 0.500000
Si Si4 0.844000 0.643844 0.285662
Si Si5 0.720673 0.831154 0.476877
O O1 0.565737 0.211315 0.183192
O O2 0.405385 0.300974 0.019070
O O3 0.404973 0.085527 0.116286
O O4 0.537864 0.126050 0.910371
O O5 0.733160 0.080633 0.850039
O O6 0.585368 0.037931 0.632533
O O7 0.917848 0.547190 0.361122
O O8 0.783390 0.716813 0.417619
O O9 0.760488 0.627546 0.144537
#
# Coordination Sequence:
#
# PCOD9459771 Si02
#       5
#     8   8   4   8   8
#     4   9  21  44  72 106 155 200 250 329 384 454
#     4   9  20  43  73 105 148 203 257 309 397 463
#     4  10  20  46  74 100 150 196 246 316 368 462
#     4  10  23  42  70 107 147 199 254 311 391 460
#     4  11  22  43  72 110 149 196 266 320 376 465
#
# _framework density 28.645731999999999
#
# number of rings (size 3 to 8) (size 9 to 14) (size 15 to 20)
#    0.000    2.222    0.000    2.667    0.000    3.556 
#    0.000   44.444    0.000    0.000    0.000    0.000 
#    0.000    0.000    0.000    0.000    0.000    0.000 
#
# Total GULP energy -200972.574652 kJ/mol
# GULP energy per Si atom -5582.571518 kJ/mol
# Density = 2.858053 g / cm^3
# Si number density = 28.645732 Si / 1000 Ang^3
#
#
#
# Elastic Constant Matrix: (Units=GPa)
#
#
# Indices 1 2 3 4 5 6 
#
# 1 227.3532 60.1603 82.2134 0.0000 0.0000 0.0000
# 2 60.1603 68.1169 76.2311 0.0000 0.0000 0.0000
# 3 82.2134 76.2311 220.8541 0.0000 0.0000 0.0000
# 4 0.0000 0.0000 0.0000 52.2542 0.0000 0.0000
# 5 0.0000 0.0000 0.0000 0.0000 35.5359 0.0000
# 6 0.0000 0.0000 0.0000 0.0000 0.0000 80.3770
#
#
#
# Elastic Compliance Matrix: (Units=1/GPa)
#
#
# Indices 1 2 3 4 5 6 
#
# 1 0.005794 -0.004405 -0.000636 0.000000 0.000000 0.000000
# 2 -0.004405 0.027270 -0.007773 0.000000 0.000000 0.000000
# 3 -0.000636 -0.007773 0.007448 0.000000 0.000000 0.000000
# 4 0.000000 0.000000 0.000000 0.019137 0.000000 0.000000
# 5 0.000000 0.000000 0.000000 0.000000 0.028141 0.000000
# 6 0.000000 0.000000 0.000000 0.000000 0.000000 0.012441
#
#
# Mechanical properties :
#
#
# Convention : Reuss Voigt Hill
#
# Bulk Modulus (GPa) = 67.19030 105.94819 86.56924
# Shear Modulus (GPa) = 38.22019 53.48138 45.85078
#
# Velocity S-wave (km/s) = 3.65668 4.32556 4.00511
# Velocity P-wave (km/s) = 6.42923 7.87485 7.18847
#
# Compressibility (1/GPa) = 0.01488310
#
# Stress axis : x y z
#
# Youngs Moduli (GPa) = 172.58511 36.67032 134.27022
#
# Poissons Ratio (x) = 0.16154 0.08545
# Poissons Ratio (y) = 0.76028 1.04365
# Poissons Ratio (z) = 0.10983 0.28503
#
# Static dielectric constant tensor:
#      x y z
#    x -0.215050 0.000000 0.000000 
#    y 0.000000 3.407060 0.000000 
#    z 0.000000 0.000000 2.044140 
# 
# From -- ./inp_files/2583.got.cif
#   From: 2010.05.17/outbox.cif.g08.bks.cpg/sg61_2_cif.got.tgz:2583.got - 2010.06.03 15:17:17.
