data_PCOD9459709
_publ_section_title
;
Structure prediction by ZEFSAII (Michael W. Deem and Ramdas Pophale) SiO2 
 PCOD9459709
Probable space group: P B C A
;
_chemical_formula_sum "Si O2"
_cell_formula_units_Z 64
_cell_length_a 12.502441
_cell_length_b 17.209872
_cell_length_c 14.011544
_cell_angle_alpha 90.000000
_cell_angle_beta 90.000000
_cell_angle_gamma 90.000000
_cell_volume 3014.799600
_symmetry_space_group_name_H-M "P B C A"
_symmetry_group_IT_number 61
_symmetry_cell_setting 'orthorhombic'
loop_
_space_group_symop_operation_xyz
x,y,z
1/2-x,-y,1/2+z
1/2+x,1/2-y,-z
-x,1/2+y,1/2-z
-x,-y,-z
1/2+x,y,1/2-z
1/2-x,1/2+y,z
x,1/2-y,1/2+z
loop_
_atom_site_type_symbol
_atom_site_label
_atom_site_fract_x
_atom_site_fract_y
_atom_site_fract_z
Si Si1 0.800254 0.297173 0.338967
Si Si2 0.895700 0.603961 0.842771
Si Si3 0.026550 0.273640 0.621060
Si Si4 0.195738 0.348266 0.752159
Si Si5 0.973601 0.414276 0.329569
Si Si6 0.227931 0.484310 0.612278
Si Si7 0.783958 0.286010 0.568222
Si Si8 0.338284 0.862886 0.461079
O O1 0.708722 0.353465 0.295245
O O2 0.777630 0.212703 0.297993
O O3 0.784519 0.299634 0.454145
O O4 0.916122 0.330750 0.316910
O O5 0.953699 0.680727 0.883712
O O6 0.979711 0.562843 0.772783
O O7 0.831863 0.538040 0.899391
O O8 0.082241 0.314675 0.712966
O O9 0.090649 0.311497 0.533495
O O10 0.903817 0.293548 0.606467
O O11 0.224179 0.431603 0.708050
O O12 0.210631 0.340630 0.865398
O O13 0.077908 0.404742 0.393277
O O14 0.881942 0.466031 0.378169
O O15 0.221135 0.426081 0.524439
O O16 0.742029 0.198614 0.584724
#
# Coordination Sequence:
#
# PCOD9459709 Si02
#       8
#     8   8   8   8   8   8   8   8
#     4  10  20  41  67  95 126 167 221 273 319 385
#     4  10  21  41  59  90 134 162 209 273 321 384
#     4  10  21  40  64  95 125 162 226 266 325 386
#     4  10  22  41  64  98 131 164 224 271 322 398
#     4  11  22  39  68  91 127 179 213 264 333 399
#     4  10  23  41  60  89 136 167 213 267 327 404
#     4  12  21  39  73  96 129 170 215 288 331 365
#     4  11  21  40  66  97 123 169 223 273 319 392
#
# _framework density 21.228608999999999
#
# number of rings (size 3 to 8) (size 9 to 14) (size 15 to 20)
#    0.000    1.500    5.000    2.625    0.000    3.000 
#    4.500    1.875    0.000    0.000    0.000    0.000 
#    0.000    0.000    0.000    0.000    0.000    0.000 
#
# Total GULP energy -357033.371919 kJ/mol
# GULP energy per Si atom -5578.646436 kJ/mol
# Density = 2.118029 g / cm^3
# Si number density = 21.228609 Si / 1000 Ang^3
#
#
#
# Elastic Constant Matrix: (Units=GPa)
#
#
# Indices 1 2 3 4 5 6 
#
# 1 46.5181 -11.5287 18.4196 0.0000 0.0000 0.0000
# 2 -11.5287 46.2920 -6.2651 0.0000 0.0000 0.0000
# 3 18.4196 -6.2651 54.2701 0.0000 0.0000 0.0000
# 4 0.0000 0.0000 0.0000 21.9802 0.0000 0.0000
# 5 0.0000 0.0000 0.0000 0.0000 25.1147 0.0000
# 6 0.0000 0.0000 0.0000 0.0000 0.0000 25.3234
#
#
#
# Elastic Compliance Matrix: (Units=1/GPa)
#
#
# Indices 1 2 3 4 5 6 
#
# 1 0.026092 0.005384 -0.008234 0.000000 0.000000 0.000000
# 2 0.005384 0.023056 0.000834 0.000000 0.000000 0.000000
# 3 -0.008234 0.000834 0.021317 0.000000 0.000000 0.000000
# 4 0.000000 0.000000 0.000000 0.045495 0.000000 0.000000
# 5 0.000000 0.000000 0.000000 0.000000 0.039817 0.000000
# 6 0.000000 0.000000 0.000000 0.000000 0.000000 0.039489
#
#
# Mechanical properties :
#
#
# Convention : Reuss Voigt Hill
#
# Bulk Modulus (GPa) = 15.05293 16.48132 15.76712
# Shear Modulus (GPa) = 22.57915 24.24729 23.41322
#
# Velocity S-wave (km/s) = 3.26486 3.38331 3.32461
# Velocity P-wave (km/s) = 4.61721 4.80031 4.70965
#
# Compressibility (1/GPa) = 0.06643226
#
# Stress axis : x y z
#
# Youngs Moduli (GPa) = 38.32639 43.37334 46.91005
#
# Poissons Ratio (x) = -0.23350 0.38627
# Poissons Ratio (y) = -0.20633 -0.03914
# Poissons Ratio (z) = 0.31559 -0.03619
#
# Static dielectric constant tensor:
#      x y z
#    x 1.769510 0.000000 0.000000 
#    y 0.000000 1.787520 0.000000 
#    z 0.000000 0.000000 1.818390 
# 
# From -- ./inp_files/7641.got.cif
#   From: 2010.05.17/outbox.cif.g08.bks.cpg/sg61_4_cif.got.tgz:7641.got - 2010.06.03 15:17:17.
