data_PCOD9459598
_publ_section_title
;
Structure prediction by ZEFSAII (Michael W. Deem and Ramdas Pophale) SiO2 
 PCOD9459598
Probable space group: P B C A
;
_chemical_formula_sum "Si O2"
_cell_formula_units_Z 52
_cell_length_a 25.920819
_cell_length_b 11.297721
_cell_length_c 6.822104
_cell_angle_alpha 90.000000
_cell_angle_beta 90.000000
_cell_angle_gamma 90.000000
_cell_volume 1997.827104
_symmetry_space_group_name_H-M "P B C A"
_symmetry_group_IT_number 61
_symmetry_cell_setting 'orthorhombic'
loop_
_space_group_symop_operation_xyz
x,y,z
1/2-x,-y,1/2+z
1/2+x,1/2-y,-z
-x,1/2+y,1/2-z
-x,-y,-z
1/2+x,y,1/2-z
1/2-x,1/2+y,z
x,1/2-y,1/2+z
loop_
_atom_site_type_symbol
_atom_site_label
_atom_site_fract_x
_atom_site_fract_y
_atom_site_fract_z
Si Si1 0.155167 0.120977 0.630174
Si Si2 0.550413 0.865657 0.896690
Si Si3 0.404616 0.383009 0.221057
Si Si4 0.309609 0.443737 0.958936
Si Si5 0.785610 0.643401 0.243899
Si Si6 0.000000 0.000000 0.000000
Si Si7 0.539272 0.118859 0.787703
O O1 0.172076 0.095231 0.409626
O O2 0.095772 0.157587 0.657934
O O3 0.164348 0.014656 0.780928
O O4 0.192077 0.231681 0.686863
O O5 0.594852 0.907302 0.046702
O O6 0.500411 0.865684 0.036798
O O7 0.571792 0.750295 0.793229
O O8 0.537615 0.971286 0.743615
O O9 0.352165 0.386901 0.099683
O O10 0.444417 0.474964 0.127350
O O11 0.268625 0.353042 0.869165
O O12 0.281196 0.546551 0.084422
O O13 0.980137 0.860531 0.069784
#
# Coordination Sequence:
#
# PCOD9459598 Si02
#       7
#     8   8   8   8   8   4   8
#     4  12  25  47  76 108 142 196 239 305 373 436
#     4  10  23  42  66 105 140 188 235 288 358 435
#     4  11  23  40  67 100 138 184 230 288 362 425
#     4  12  26  48  72 104 143 186 240 307 359 441
#     4  12  27  48  75 105 143 187 250 302 375 428
#     4  10  20  38  66  96 138 178 224 288 342 426
#     4  10  22  43  69 101 145 184 238 297 352 439
#
# _framework density 26.028279999999999
#
# number of rings (size 3 to 8) (size 9 to 14) (size 15 to 20)
#    0.000    0.923    4.615    1.846    0.000    4.923 
#    2.769    0.000    0.000    0.000    0.000    0.000 
#    0.000    0.000    0.000    0.000    0.000    0.000 
#
# Total GULP energy -290461.288171 kJ/mol
# GULP energy per Si atom -5585.794003 kJ/mol
# Density = 2.596904 g / cm^3
# Si number density = 26.028280 Si / 1000 Ang^3
#
#
#
# Elastic Constant Matrix: (Units=GPa)
#
#
# Indices 1 2 3 4 5 6 
#
# 1 127.2606 24.8206 6.2280 0.0000 0.0000 0.0000
# 2 24.8206 100.7307 17.4348 0.0000 0.0000 0.0000
# 3 6.2280 17.4348 112.0030 0.0000 0.0000 0.0000
# 4 0.0000 0.0000 0.0000 29.9000 0.0000 0.0000
# 5 0.0000 0.0000 0.0000 0.0000 43.7948 0.0000
# 6 0.0000 0.0000 0.0000 0.0000 0.0000 32.3439
#
#
#
# Elastic Compliance Matrix: (Units=1/GPa)
#
#
# Indices 1 2 3 4 5 6 
#
# 1 0.008257 -0.002009 -0.000146 0.000000 0.000000 0.000000
# 2 -0.002009 0.010691 -0.001553 0.000000 0.000000 0.000000
# 3 -0.000146 -0.001553 0.009178 0.000000 0.000000 0.000000
# 4 0.000000 0.000000 0.000000 0.033445 0.000000 0.000000
# 5 0.000000 0.000000 0.000000 0.000000 0.022834 0.000000
# 6 0.000000 0.000000 0.000000 0.000000 0.000000 0.030918
#
#
# Mechanical properties :
#
#
# Convention : Reuss Voigt Hill
#
# Bulk Modulus (GPa) = 48.28558 48.55124 48.41841
# Shear Modulus (GPa) = 38.56766 40.64178 39.60472
#
# Velocity S-wave (km/s) = 3.85354 3.95580 3.90501
# Velocity P-wave (km/s) = 6.19606 6.28953 6.24297
#
# Compressibility (1/GPa) = 0.02071012
#
# Stress axis : x y z
#
# Youngs Moduli (GPa) = 121.11040 93.53439 108.95454
#
# Poissons Ratio (x) = 0.18793 0.01595
# Poissons Ratio (y) = 0.24334 0.16915
# Poissons Ratio (z) = 0.01773 0.14521
#
# Static dielectric constant tensor:
#      x y z
#    x 2.125620 0.000000 0.000000 
#    y 0.000000 2.223620 0.000000 
#    z 0.000000 0.000000 2.214700 
# 
# From -- ./inp_files/4459.got.cif
#   From: 2010.05.17/outbox.cif.g08.bks.cpg/sg61_3_cif.got.tgz:4459.got - 2010.06.03 15:17:17.
