data_PCOD9459298
_publ_section_title
;
Structure prediction by ZEFSAII (Michael W. Deem and Ramdas Pophale) SiO2 
 PCOD9459298
Probable space group: P B C A
;
_chemical_formula_sum "Si O2"
_cell_formula_units_Z 64
_cell_length_a 24.077404
_cell_length_b 13.951806
_cell_length_c 7.258234
_cell_angle_alpha 90.000000
_cell_angle_beta 90.000000
_cell_angle_gamma 90.000000
_cell_volume 2438.209697
_symmetry_space_group_name_H-M "P B C A"
_symmetry_group_IT_number 61
_symmetry_cell_setting 'orthorhombic'
loop_
_space_group_symop_operation_xyz
x,y,z
1/2-x,-y,1/2+z
1/2+x,1/2-y,-z
-x,1/2+y,1/2-z
-x,-y,-z
1/2+x,y,1/2-z
1/2-x,1/2+y,z
x,1/2-y,1/2+z
loop_
_atom_site_type_symbol
_atom_site_label
_atom_site_fract_x
_atom_site_fract_y
_atom_site_fract_z
Si Si1 0.299834 0.845554 0.217837
Si Si2 0.472415 0.365166 0.882037
Si Si3 0.815968 0.622125 0.215822
Si Si4 0.182482 0.665520 0.623021
Si Si5 0.608869 0.474751 0.261545
Si Si6 0.432991 0.943838 0.873080
Si Si7 0.557985 0.651409 0.730237
Si Si8 0.301608 0.115607 0.195808
O O1 0.315029 0.734187 0.230691
O O2 0.234538 0.863426 0.253290
O O3 0.345542 0.905355 0.331070
O O4 0.305038 0.873449 0.003504
O O5 0.430321 0.454318 0.850651
O O6 0.522359 0.385834 0.743858
O O7 0.448985 0.258241 0.846935
O O8 0.483895 0.363478 0.098703
O O9 0.874821 0.571375 0.234158
O O10 0.761711 0.580459 0.317398
O O11 0.121437 0.647222 0.698180
O O12 0.190452 0.780148 0.610986
O O13 0.187617 0.625925 0.416401
O O14 0.576409 0.413198 0.415350
O O15 0.650088 0.547212 0.372100
O O16 0.449181 0.056005 0.889389
#
# Coordination Sequence:
#
# PCOD9459298 Si02
#       8
#     8   8   8   8   8   8   8   8
#     4   9  21  37  62  90 130 170 208 261 328 387
#     4  12  26  45  66  97 129 173 218 274 321 381
#     4   9  21  42  59  93 130 170 212 263 319 382
#     4  10  19  38  60  92 124 164 210 261 320 379
#     4  11  22  41  63  96 129 168 215 263 333 382
#     4  11  27  43  66  95 132 173 224 264 322 392
#     4  12  24  43  68  93 124 167 220 270 322 382
#     4  10  20  37  63  93 130 161 211 260 323 380
#
# _framework density 26.24877
#
# number of rings (size 3 to 8) (size 9 to 14) (size 15 to 20)
#    0.000    1.500    2.500    1.500    3.500    4.000 
#    0.000    0.000    0.000    0.000    0.000    0.000 
#    0.000    0.000    0.000    0.000    0.000    0.000 
#
# Total GULP energy -358335.469482 kJ/mol
# GULP energy per Si atom -5598.991711 kJ/mol
# Density = 2.618903 g / cm^3
# Si number density = 26.248770 Si / 1000 Ang^3
#
#
#
# Elastic Constant Matrix: (Units=GPa)
#
#
# Indices 1 2 3 4 5 6 
#
# 1 109.8928 13.6299 12.0260 0.0000 0.0000 0.0000
# 2 13.6299 105.7949 1.0137 0.0000 0.0000 0.0000
# 3 12.0260 1.0137 79.7439 0.0000 0.0000 0.0000
# 4 0.0000 0.0000 0.0000 22.2397 0.0000 0.0000
# 5 0.0000 0.0000 0.0000 0.0000 21.9884 0.0000
# 6 0.0000 0.0000 0.0000 0.0000 0.0000 39.3599
#
#
#
# Elastic Compliance Matrix: (Units=1/GPa)
#
#
# Indices 1 2 3 4 5 6 
#
# 1 0.009402 -0.001198 -0.001403 0.000000 0.000000 0.000000
# 2 -0.001198 0.009606 0.000059 0.000000 0.000000 0.000000
# 3 -0.001403 0.000059 0.012751 0.000000 0.000000 0.000000
# 4 0.000000 0.000000 0.000000 0.044965 0.000000 0.000000
# 5 0.000000 0.000000 0.000000 0.000000 0.045479 0.000000
# 6 0.000000 0.000000 0.000000 0.000000 0.000000 0.025407
#
#
# Mechanical properties :
#
#
# Convention : Reuss Voigt Hill
#
# Bulk Modulus (GPa) = 37.48845 38.75233 38.12039
# Shear Modulus (GPa) = 30.94366 34.63508 32.78937
#
# Velocity S-wave (km/s) = 3.43718 3.63642 3.53820
# Velocity P-wave (km/s) = 5.48318 5.69447 5.58982
#
# Compressibility (1/GPa) = 0.02667488
#
# Stress axis : x y z
#
# Youngs Moduli (GPa) = 106.36220 104.10150 78.42569
#
# Poissons Ratio (x) = 0.12470 0.11000
# Poissons Ratio (y) = 0.12740 -0.00459
# Poissons Ratio (z) = 0.14919 -0.00609
#
# Static dielectric constant tensor:
#      x y z
#    x 2.148940 0.000000 0.000000 
#    y 0.000000 2.051510 0.000000 
#    z 0.000000 0.000000 2.069170 
# 
# From -- ./inp_files/4336.got.cif
#   From: 2010.05.17/outbox.cif.g08.bks.cpg/sg61_3_cif.got.tgz:4336.got - 2010.06.03 15:17:17.
