data_PCOD9459657
_publ_section_title
;
Structure prediction by ZEFSAII (Michael W. Deem and Ramdas Pophale) SiO2 
 PCOD9459657
Probable space group: P B C A
;
_chemical_formula_sum "Si O2"
_cell_formula_units_Z 48
_cell_length_a 7.133815
_cell_length_b 17.095188
_cell_length_c 16.829934
_cell_angle_alpha 90.000000
_cell_angle_beta 90.000000
_cell_angle_gamma 90.000000
_cell_volume 2052.476232
_symmetry_space_group_name_H-M "P B C A"
_symmetry_group_IT_number 61
_symmetry_cell_setting 'orthorhombic'
loop_
_space_group_symop_operation_xyz
x,y,z
1/2-x,-y,1/2+z
1/2+x,1/2-y,-z
-x,1/2+y,1/2-z
-x,-y,-z
1/2+x,y,1/2-z
1/2-x,1/2+y,z
x,1/2-y,1/2+z
loop_
_atom_site_type_symbol
_atom_site_label
_atom_site_fract_x
_atom_site_fract_y
_atom_site_fract_z
Si Si1 0.888371 0.761619 0.082241
Si Si2 0.547619 0.188234 0.914278
Si Si3 0.595277 0.419427 0.025007
Si Si4 0.170003 0.124630 0.317881
Si Si5 0.041652 0.978397 0.408637
Si Si6 0.604384 0.148325 0.358084
O O1 0.674995 0.791894 0.088888
O O2 0.001953 0.841353 0.061596
O O3 0.926205 0.707013 0.157513
O O4 0.902112 0.704511 0.006203
O O5 0.578898 0.098774 0.888732
O O6 0.635567 0.258465 0.863974
O O7 0.746091 0.447235 0.088557
O O8 0.500000 0.500000 0.000000
O O9 0.676171 0.387043 0.941052
O O10 0.380060 0.129182 0.354644
O O11 0.184597 0.117115 0.223745
O O12 0.051094 0.053658 0.353884
O O13 0.000000 0.000000 0.500000
#
# Coordination Sequence:
#
# PCOD9459657 Si02
#       6
#     8   8   8   8   8   8
#     4   9  19  34  60  79 113 146 194 234 290 351
#     4   9  19  37  56  86 110 152 191 237 286 355
#     4  10  20  40  61  85 114 157 201 245 292 354
#     4  11  22  39  56  88 120 158 193 248 300 349
#     4  11  21  35  63  90 118 150 205 245 288 353
#     4  10  23  39  59  81 123 156 195 242 304 348
#
# _framework density 23.386385000000001
#
# number of rings (size 3 to 8) (size 9 to 14) (size 15 to 20)
#    0.000    2.000    3.333    0.000    2.333    1.333 
#    3.000    0.000    0.000    0.000    0.000    0.000 
#    0.000    0.000    0.000    0.000    0.000    0.000 
#
# Total GULP energy -267916.815576 kJ/mol
# GULP energy per Si atom -5581.600324 kJ/mol
# Density = 2.333316 g / cm^3
# Si number density = 23.386385 Si / 1000 Ang^3
#
#
#
# Elastic Constant Matrix: (Units=GPa)
#
#
# Indices 1 2 3 4 5 6 
#
# 1 48.8621 18.4261 -3.3144 0.0000 0.0000 0.0000
# 2 18.4261 167.0965 51.5218 0.0000 0.0000 0.0000
# 3 -3.3144 51.5218 89.0539 0.0000 0.0000 0.0000
# 4 0.0000 0.0000 0.0000 28.9169 0.0000 0.0000
# 5 0.0000 0.0000 0.0000 0.0000 26.4186 0.0000
# 6 0.0000 0.0000 0.0000 0.0000 0.0000 24.1311
#
#
#
# Elastic Compliance Matrix: (Units=1/GPa)
#
#
# Indices 1 2 3 4 5 6 
#
# 1 0.021870 -0.003241 0.002689 0.000000 0.000000 0.000000
# 2 -0.003241 0.007764 -0.004613 0.000000 0.000000 0.000000
# 3 0.002689 -0.004613 0.013998 0.000000 0.000000 0.000000
# 4 0.000000 0.000000 0.000000 0.034582 0.000000 0.000000
# 5 0.000000 0.000000 0.000000 0.000000 0.037852 0.000000
# 6 0.000000 0.000000 0.000000 0.000000 0.000000 0.041440
#
#
# Mechanical properties :
#
#
# Convention : Reuss Voigt Hill
#
# Bulk Modulus (GPa) = 30.02696 48.69773 39.36235
# Shear Modulus (GPa) = 27.94292 31.78528 29.86410
#
# Velocity S-wave (km/s) = 3.46039 3.69065 3.57737
# Velocity P-wave (km/s) = 5.36965 6.24736 5.82506
#
# Compressibility (1/GPa) = 0.03330340
#
# Stress axis : x y z
#
# Youngs Moduli (GPa) = 45.72418 128.79731 71.43988
#
# Poissons Ratio (x) = 0.41740 -0.19209
# Poissons Ratio (y) = 0.14818 0.32952
# Poissons Ratio (z) = -0.12295 0.59408
#
# Static dielectric constant tensor:
#      x y z
#    x 2.075640 0.000000 0.000000 
#    y 0.000000 1.981770 0.000000 
#    z 0.000000 0.000000 1.799700 
# 
# From -- ./inp_files/7051.got.cif
#   From: 2010.05.17/outbox.cif.g08.bks.cpg/sg61_4_cif.got.tgz:7051.got - 2010.06.03 15:17:17.
