data_PCOD9459105
_publ_section_title
;
Structure prediction by ZEFSAII (Michael W. Deem and Ramdas Pophale) SiO2 
 PCOD9459105
Probable space group: P B C A
;
_chemical_formula_sum "Si O2"
_cell_formula_units_Z 48
_cell_length_a 10.274383
_cell_length_b 9.509415
_cell_length_c 18.793484
_cell_angle_alpha 90.000000
_cell_angle_beta 90.000000
_cell_angle_gamma 90.000000
_cell_volume 1836.186755
_symmetry_space_group_name_H-M "P B C A"
_symmetry_group_IT_number 61
_symmetry_cell_setting 'orthorhombic'
loop_
_space_group_symop_operation_xyz
x,y,z
1/2-x,-y,1/2+z
1/2+x,1/2-y,-z
-x,1/2+y,1/2-z
-x,-y,-z
1/2+x,y,1/2-z
1/2-x,1/2+y,z
x,1/2-y,1/2+z
loop_
_atom_site_type_symbol
_atom_site_label
_atom_site_fract_x
_atom_site_fract_y
_atom_site_fract_z
Si Si1 0.886747 0.558706 0.859233
Si Si2 0.496304 0.510494 0.790591
Si Si3 0.157284 0.869690 0.425561
Si Si4 0.688286 0.153975 0.992547
Si Si5 0.506682 0.231161 0.110879
Si Si6 0.270709 0.935600 0.805231
O O1 0.920470 0.584128 0.776901
O O2 0.010850 0.619602 0.900909
O O3 0.899091 0.389978 0.872299
O O4 0.784282 0.641274 0.908110
O O5 0.514725 0.617772 0.854739
O O6 0.641218 0.464777 0.765215
O O7 0.381878 0.393507 0.802813
O O8 0.197718 0.729656 0.464652
O O9 0.230887 0.924315 0.354437
O O10 0.180119 0.993518 0.482301
O O11 0.562451 0.228838 0.030447
O O12 0.631142 0.165196 0.153254
#
# Coordination Sequence:
#
# PCOD9459105 Si02
#       6
#     8   8   8   8   8   8
#     4   9  21  37  54  88 116 154 206 248 300 364
#     4  10  19  37  55  85 117 150 201 243 299 358
#     4   9  18  36  61  79 111 161 193 245 301 370
#     4  10  18  38  59  82 115 156 208 238 304 364
#     4   9  18  35  61  79 112 163 192 246 300 368
#     4   9  20  35  54  86 113 152 202 241 306 357
#
# _framework density 26.141133
#
# number of rings (size 3 to 8) (size 9 to 14) (size 15 to 20)
#    0.000    3.333    1.667    2.000    0.000    2.667 
#   15.000    0.833    0.000    0.000    0.000    0.000 
#    0.000    0.000    0.000    0.000    0.000    0.000 
#
# Total GULP energy -267408.828583 kJ/mol
# GULP energy per Si atom -5571.017262 kJ/mol
# Density = 2.608163 g / cm^3
# Si number density = 26.141133 Si / 1000 Ang^3
#
#
#
# Elastic Constant Matrix: (Units=GPa)
#
#
# Indices 1 2 3 4 5 6 
#
# 1 100.9288 24.7731 11.4277 0.0000 0.0000 0.0000
# 2 24.7731 24.3320 1.4516 0.0000 0.0000 0.0000
# 3 11.4277 1.4516 52.7625 0.0000 0.0000 0.0000
# 4 0.0000 0.0000 0.0000 9.8861 0.0000 0.0000
# 5 0.0000 0.0000 0.0000 0.0000 30.3839 0.0000
# 6 0.0000 0.0000 0.0000 0.0000 0.0000 22.8397
#
#
#
# Elastic Compliance Matrix: (Units=1/GPa)
#
#
# Indices 1 2 3 4 5 6 
#
# 1 0.013545 -0.013638 -0.002559 0.000000 0.000000 0.000000
# 2 -0.013638 0.054897 0.001444 0.000000 0.000000 0.000000
# 3 -0.002559 0.001444 0.019467 0.000000 0.000000 0.000000
# 4 0.000000 0.000000 0.000000 0.101152 0.000000 0.000000
# 5 0.000000 0.000000 0.000000 0.000000 0.032912 0.000000
# 6 0.000000 0.000000 0.000000 0.000000 0.000000 0.043783
#
#
# Mechanical properties :
#
#
# Convention : Reuss Voigt Hill
#
# Bulk Modulus (GPa) = 17.12219 28.14755 22.63487
# Shear Modulus (GPa) = 15.88654 21.97999 18.93327
#
# Velocity S-wave (km/s) = 2.46788 2.90284 2.69415
# Velocity P-wave (km/s) = 3.83206 4.69321 4.28432
#
# Compressibility (1/GPa) = 0.05840373
#
# Stress axis : x y z
#
# Youngs Moduli (GPa) = 73.82719 18.21579 51.36823
#
# Poissons Ratio (x) = 0.24843 0.13143
# Poissons Ratio (y) = 1.00686 -0.07415
# Poissons Ratio (z) = 0.18889 -0.02629
#
# Static dielectric constant tensor:
#      x y z
#    x 2.244830 0.000000 0.000000 
#    y 0.000000 2.126280 0.000000 
#    z 0.000000 0.000000 2.351440 
# 
# From -- ./inp_files/10272.got.cif
#   From: 2010.05.17/outbox.cif.g08.bks.cpg/sg61_6_cif.got.tgz:10272.got - 2010.06.03 15:17:17.
