data_PCOD9459121
_publ_section_title
;
Structure prediction by ZEFSAII (Michael W. Deem and Ramdas Pophale) SiO2 
 PCOD9459121
Probable space group: P B C A
;
_chemical_formula_sum "Si O2"
_cell_formula_units_Z 64
_cell_length_a 15.379129
_cell_length_b 10.613581
_cell_length_c 17.599355
_cell_angle_alpha 90.000000
_cell_angle_beta 90.000000
_cell_angle_gamma 90.000000
_cell_volume 2872.701030
_symmetry_space_group_name_H-M "P B C A"
_symmetry_group_IT_number 61
_symmetry_cell_setting 'orthorhombic'
loop_
_space_group_symop_operation_xyz
x,y,z
1/2-x,-y,1/2+z
1/2+x,1/2-y,-z
-x,1/2+y,1/2-z
-x,-y,-z
1/2+x,y,1/2-z
1/2-x,1/2+y,z
x,1/2-y,1/2+z
loop_
_atom_site_type_symbol
_atom_site_label
_atom_site_fract_x
_atom_site_fract_y
_atom_site_fract_z
Si Si1 0.553758 0.830504 0.068131
Si Si2 0.972321 0.951850 0.304126
Si Si3 0.115250 0.860634 0.810166
Si Si4 0.290415 0.592785 0.627495
Si Si5 0.129467 0.662376 0.705822
Si Si6 0.966263 0.326895 0.441866
Si Si7 0.628301 0.483517 0.057951
Si Si8 0.728187 0.659850 0.468839
O O1 0.520539 0.952416 0.113178
O O2 0.555040 0.720736 0.132309
O O3 0.497153 0.779913 0.997918
O O4 0.648101 0.828857 0.028375
O O5 0.880456 0.884756 0.326976
O O6 0.047053 0.893169 0.250159
O O7 0.940495 0.069381 0.254010
O O8 0.171641 0.763938 0.761967
O O9 0.166871 0.948281 0.868314
O O10 0.206780 0.571735 0.681582
O O11 0.262221 0.714374 0.575695
O O12 0.298233 0.461001 0.582661
O O13 0.089896 0.720427 0.628367
O O14 0.906658 0.419907 0.493547
O O15 0.043679 0.411918 0.411758
O O16 0.691604 0.388190 0.018348
#
# Coordination Sequence:
#
# PCOD9459121 Si02
#       8
#     8   8   8   8   8   8   8   8
#     4  10  23  42  68  95 139 181 234 304 352 412
#     4  11  25  43  67 104 140 187 237 285 369 445
#     4  10  22  42  64  98 145 181 224 294 367 419
#     4  12  26  45  73 105 144 191 238 304 368 423
#     4  11  22  44  68  97 142 186 231 297 362 424
#     4  10  18  40  68  96 128 183 234 292 347 410
#     4  10  20  37  72  98 129 180 242 278 346 440
#     4  12  24  47  73 108 141 185 251 302 350 418
#
# _framework density 22.278683999999998
#
# number of rings (size 3 to 8) (size 9 to 14) (size 15 to 20)
#    0.000    1.250    3.750    2.250    0.000    5.500 
#    2.250    2.500    0.000    0.000    0.000    0.000 
#    0.000    0.000    0.000    0.000    0.000    0.000 
#
# Total GULP energy -356431.942261 kJ/mol
# GULP energy per Si atom -5569.249098 kJ/mol
# Density = 2.222798 g / cm^3
# Si number density = 22.278684 Si / 1000 Ang^3
#
#
#
# Elastic Constant Matrix: (Units=GPa)
#
#
# Indices 1 2 3 4 5 6 
#
# 1 103.8512 32.5785 48.8985 0.0000 0.0000 0.0000
# 2 32.5785 80.3872 35.1983 0.0000 0.0000 0.0000
# 3 48.8985 35.1983 89.7597 0.0000 0.0000 0.0000
# 4 0.0000 0.0000 0.0000 48.5203 0.0000 0.0000
# 5 0.0000 0.0000 0.0000 0.0000 33.7019 0.0000
# 6 0.0000 0.0000 0.0000 0.0000 0.0000 17.5180
#
#
#
# Elastic Compliance Matrix: (Units=1/GPa)
#
#
# Indices 1 2 3 4 5 6 
#
# 1 0.013420 -0.002701 -0.006252 0.000000 0.000000 0.000000
# 2 -0.002701 0.015562 -0.004631 0.000000 0.000000 0.000000
# 3 -0.006252 -0.004631 0.016362 0.000000 0.000000 0.000000
# 4 0.000000 0.000000 0.000000 0.020610 0.000000 0.000000
# 5 0.000000 0.000000 0.000000 0.000000 0.029672 0.000000
# 6 0.000000 0.000000 0.000000 0.000000 0.000000 0.057084
#
#
# Mechanical properties :
#
#
# Convention : Reuss Voigt Hill
#
# Bulk Modulus (GPa) = 55.01436 56.37207 55.69321
# Shear Modulus (GPa) = 26.89069 30.43623 28.66346
#
# Velocity S-wave (km/s) = 3.47798 3.70017 3.59079
# Velocity P-wave (km/s) = 6.39342 6.60402 6.49957
#
# Compressibility (1/GPa) = 0.01817707
#
# Stress axis : x y z
#
# Youngs Moduli (GPa) = 74.51459 64.25787 61.11537
#
# Poissons Ratio (x) = 0.17359 0.38207
# Poissons Ratio (y) = 0.20130 0.28302
# Poissons Ratio (z) = 0.46583 0.29757
#
# Static dielectric constant tensor:
#      x y z
#    x 1.828610 0.000000 0.000000 
#    y 0.000000 1.938250 0.000000 
#    z 0.000000 0.000000 1.851660 
# 
# From -- ./inp_files/9537.got.cif
#   From: 2010.05.17/outbox.cif.g08.bks.cpg/sg61_5_cif.got.tgz:9537.got - 2010.06.03 15:17:17.
