data_PCOD9459693
_publ_section_title
;
Structure prediction by ZEFSAII (Michael W. Deem and Ramdas Pophale) SiO2 
 PCOD9459693
Probable space group: P B C A
;
_chemical_formula_sum "Si O2"
_cell_formula_units_Z 48
_cell_length_a 16.835655
_cell_length_b 11.317053
_cell_length_c 10.726160
_cell_angle_alpha 90.000000
_cell_angle_beta 90.000000
_cell_angle_gamma 90.000000
_cell_volume 2043.655264
_symmetry_space_group_name_H-M "P B C A"
_symmetry_group_IT_number 61
_symmetry_cell_setting 'orthorhombic'
loop_
_space_group_symop_operation_xyz
x,y,z
1/2-x,-y,1/2+z
1/2+x,1/2-y,-z
-x,1/2+y,1/2-z
-x,-y,-z
1/2+x,y,1/2-z
1/2-x,1/2+y,z
x,1/2-y,1/2+z
loop_
_atom_site_type_symbol
_atom_site_label
_atom_site_fract_x
_atom_site_fract_y
_atom_site_fract_z
Si Si1 0.355702 0.015703 0.552552
Si Si2 0.025155 0.835396 0.671177
Si Si3 0.353453 0.265866 0.503524
Si Si4 0.300176 0.630354 0.504462
Si Si5 0.596881 0.520120 0.667976
Si Si6 0.439605 0.769995 0.572233
O O1 0.383210 0.130799 0.474431
O O2 0.260057 0.026419 0.545826
O O3 0.381736 0.046450 0.691785
O O4 0.397124 0.892017 0.529935
O O5 0.992500 0.969551 0.660234
O O6 0.986885 0.772325 0.549582
O O7 0.988153 0.788548 0.799975
O O8 0.117141 0.810036 0.640520
O O9 0.259735 0.240818 0.491206
O O10 0.384239 0.367077 0.413938
O O11 0.345133 0.584208 0.381802
O O12 0.369933 0.673711 0.594431
#
# Coordination Sequence:
#
# PCOD9459693 Si02
#       6
#     8   8   8   8   8   8
#     4   9  22  36  62  88 123 156 213 261 301 379
#     4  10  23  39  66  88 128 166 208 264 313 379
#     4  10  22  39  61  92 119 163 214 253 309 378
#     4   9  21  38  63  87 120 165 203 257 313 382
#     4  10  20  41  60  90 128 164 205 264 321 367
#     4  10  21  43  59  91 126 162 209 259 325 363
#
# _framework density 23.487328000000002
#
# number of rings (size 3 to 8) (size 9 to 14) (size 15 to 20)
#    1.000    1.333    0.000    1.500    2.333    6.000 
#    3.000    1.667    0.000    0.000    0.000    0.000 
#    0.000    0.000    0.000    0.000    0.000    0.000 
#
# Total GULP energy -267609.900218 kJ/mol
# GULP energy per Si atom -5575.206255 kJ/mol
# Density = 2.343387 g / cm^3
# Si number density = 23.487328 Si / 1000 Ang^3
#
#
#
# Elastic Constant Matrix: (Units=GPa)
#
#
# Indices 1 2 3 4 5 6 
#
# 1 86.1497 48.5667 21.6791 0.0000 0.0000 0.0000
# 2 48.5667 65.1286 36.0981 0.0000 0.0000 0.0000
# 3 21.6791 36.0981 72.5715 0.0000 0.0000 0.0000
# 4 0.0000 0.0000 0.0000 27.2838 0.0000 0.0000
# 5 0.0000 0.0000 0.0000 0.0000 21.2395 0.0000
# 6 0.0000 0.0000 0.0000 0.0000 0.0000 45.2812
#
#
#
# Elastic Compliance Matrix: (Units=1/GPa)
#
#
# Indices 1 2 3 4 5 6 
#
# 1 0.020238 -0.016210 0.002017 0.000000 0.000000 0.000000
# 2 -0.016210 0.034182 -0.012160 0.000000 0.000000 0.000000
# 3 0.002017 -0.012160 0.019226 0.000000 0.000000 0.000000
# 4 0.000000 0.000000 0.000000 0.036652 0.000000 0.000000
# 5 0.000000 0.000000 0.000000 0.000000 0.047082 0.000000
# 6 0.000000 0.000000 0.000000 0.000000 0.000000 0.022084
#
#
# Mechanical properties :
#
#
# Convention : Reuss Voigt Hill
#
# Bulk Modulus (GPa) = 47.75518 48.50419 48.12969
# Shear Modulus (GPa) = 20.90736 26.59462 23.75099
#
# Velocity S-wave (km/s) = 2.98678 3.36861 3.18343
# Velocity P-wave (km/s) = 5.68075 5.98549 5.83511
#
# Compressibility (1/GPa) = 0.02094013
#
# Stress axis : x y z
#
# Youngs Moduli (GPa) = 49.41095 29.25509 52.01399
#
# Poissons Ratio (x) = 0.47423 -0.10493
# Poissons Ratio (y) = 0.80095 0.63251
# Poissons Ratio (z) = -0.09968 0.35575
#
# Static dielectric constant tensor:
#      x y z
#    x 2.053150 0.000000 0.000000 
#    y 0.000000 1.998690 0.000000 
#    z 0.000000 0.000000 1.838570 
# 
# From -- ./inp_files/6140.got.cif
#   From: 2010.05.17/outbox.cif.g08.bks.cpg/sg61_4_cif.got.tgz:6140.got - 2010.06.03 15:17:17.
