data_PCOD9459532
_publ_section_title
;
Structure prediction by ZEFSAII (Michael W. Deem and Ramdas Pophale) SiO2 
 PCOD9459532
Probable space group: P B C A
;
_chemical_formula_sum "Si O2"
_cell_formula_units_Z 56
_cell_length_a 8.633567
_cell_length_b 14.250551
_cell_length_c 21.594587
_cell_angle_alpha 90.000000
_cell_angle_beta 90.000000
_cell_angle_gamma 90.000000
_cell_volume 2656.848698
_symmetry_space_group_name_H-M "P B C A"
_symmetry_group_IT_number 61
_symmetry_cell_setting 'orthorhombic'
loop_
_space_group_symop_operation_xyz
x,y,z
1/2-x,-y,1/2+z
1/2+x,1/2-y,-z
-x,1/2+y,1/2-z
-x,-y,-z
1/2+x,y,1/2-z
1/2-x,1/2+y,z
x,1/2-y,1/2+z
loop_
_atom_site_type_symbol
_atom_site_label
_atom_site_fract_x
_atom_site_fract_y
_atom_site_fract_z
Si Si1 0.647087 0.688389 0.835458
Si Si2 0.880474 0.616039 0.750721
Si Si3 0.848454 0.478132 0.429119
Si Si4 0.312266 0.432099 0.931426
Si Si5 0.883010 0.447059 0.157884
Si Si6 0.779778 0.183371 0.439359
Si Si7 0.563022 0.769702 0.069471
O O1 0.794003 0.695360 0.790876
O O2 0.503085 0.666956 0.792573
O O3 0.679646 0.595379 0.875636
O O4 0.624656 0.771270 0.883601
O O5 0.758038 0.565764 0.706177
O O6 0.968536 0.544816 0.797217
O O7 0.795897 0.432423 0.494142
O O8 0.759378 0.575877 0.425758
O O9 0.032183 0.503264 0.425623
O O10 0.172470 0.476500 0.892373
O O11 0.350644 0.326491 0.911398
O O12 0.911933 0.351448 0.119131
O O13 0.865509 0.195856 0.504405
O O14 0.615331 0.238879 0.440144
#
# Coordination Sequence:
#
# PCOD9459532 Si02
#       7
#     8   8   8   8   8   8   8
#     4  11  21  44  61  92 124 167 210 255 309 377
#     4  10  24  40  66  82 128 176 204 252 308 368
#     4  10  20  37  64  94 125 160 200 257 321 371
#     4  10  20  37  64  94 125 160 200 257 321 371
#     4  11  21  44  61  92 124 167 210 255 309 377
#     4  11  23  39  64  97 127 161 207 262 322 375
#     4  11  23  39  64  97 127 161 207 262 322 375
#
# _framework density 21.077603
#
# number of rings (size 3 to 8) (size 9 to 14) (size 15 to 20)
#    0.000    1.429    5.714    0.000    2.000    0.000 
#    2.571   10.714    0.000    0.000    0.000    0.000 
#    0.000    0.000    0.000    0.000    0.000    0.000 
#
# Total GULP energy -312963.016562 kJ/mol
# GULP energy per Si atom -5588.625296 kJ/mol
# Density = 2.102963 g / cm^3
# Si number density = 21.077603 Si / 1000 Ang^3
#
#
#
# Elastic Constant Matrix: (Units=GPa)
#
#
# Indices 1 2 3 4 5 6 
#
# 1 31.3598 -9.6048 29.7647 0.0000 0.0000 0.0000
# 2 -9.6048 54.7608 15.0282 0.0000 0.0000 0.0000
# 3 29.7647 15.0282 114.4606 0.0000 0.0000 0.0000
# 4 0.0000 0.0000 0.0000 -26.7764 0.0000 0.0000
# 5 0.0000 0.0000 0.0000 0.0000 13.2419 0.0000
# 6 0.0000 0.0000 0.0000 0.0000 0.0000 19.4967
#
#
#
# Elastic Compliance Matrix: (Units=1/GPa)
#
#
# Indices 1 2 3 4 5 6 
#
# 1 0.049602 0.012697 -0.014566 0.000000 0.000000 0.000000
# 2 0.012697 0.022194 -0.006216 0.000000 0.000000 0.000000
# 3 -0.014566 -0.006216 0.013340 0.000000 0.000000 0.000000
# 4 0.000000 0.000000 0.000000 -0.037346 0.000000 0.000000
# 5 0.000000 0.000000 0.000000 0.000000 0.075518 0.000000
# 6 0.000000 0.000000 0.000000 0.000000 0.000000 0.051291
#
#
# Mechanical properties :
#
#
# Convention : Reuss Voigt Hill
#
# Bulk Modulus (GPa) = 14.49955 30.10637 22.30296
# Shear Modulus (GPa) = 23.39113 12.21865 17.80489
#
# Velocity S-wave (km/s) = 3.33492 2.41030 2.90958
# Velocity P-wave (km/s) = 4.66080 4.69688 4.67887
#
# Compressibility (1/GPa) = 0.06896765
#
# Stress axis : x y z
#
# Youngs Moduli (GPa) = 20.16066 45.05698 74.96012
#
# Poissons Ratio (x) = -0.57210 1.09184
# Poissons Ratio (y) = -0.25598 0.46594
# Poissons Ratio (z) = 0.29365 0.28007
#
# Static dielectric constant tensor:
#      x y z
#    x 1.807590 0.000000 0.000000 
#    y 0.000000 1.726500 0.000000 
#    z 0.000000 0.000000 1.742680 
# 
# From -- ./inp_files/3050.got.cif
#   From: 2010.05.17/outbox.cif.g08.bks.cpg/sg61_2_cif.got.tgz:3050.got - 2010.06.03 15:17:17.
