data_PCOD9459913
_publ_section_title
;
Structure prediction by ZEFSAII (Michael W. Deem and Ramdas Pophale) SiO2 
 PCOD9459913
Probable space group: P B C A
;
_chemical_formula_sum "Si O2"
_cell_formula_units_Z 56
_cell_length_a 22.536717
_cell_length_b 8.910207
_cell_length_c 12.517211
_cell_angle_alpha 90.000000
_cell_angle_beta 90.000000
_cell_angle_gamma 90.000000
_cell_volume 2513.541256
_symmetry_space_group_name_H-M "P B C A"
_symmetry_group_IT_number 61
_symmetry_cell_setting 'orthorhombic'
loop_
_space_group_symop_operation_xyz
x,y,z
1/2-x,-y,1/2+z
1/2+x,1/2-y,-z
-x,1/2+y,1/2-z
-x,-y,-z
1/2+x,y,1/2-z
1/2-x,1/2+y,z
x,1/2-y,1/2+z
loop_
_atom_site_type_symbol
_atom_site_label
_atom_site_fract_x
_atom_site_fract_y
_atom_site_fract_z
Si Si1 0.175756 0.130452 0.719294
Si Si2 0.953389 0.712680 0.502747
Si Si3 0.669616 0.068419 0.536740
Si Si4 0.873089 0.300557 0.391442
Si Si5 0.442488 0.998429 0.111946
Si Si6 0.019913 0.978115 0.179185
Si Si7 0.245911 0.635006 0.139886
O O1 0.112483 0.094035 0.667732
O O2 0.199898 0.300081 0.710278
O O3 0.225720 0.034113 0.659258
O O4 0.176100 0.066759 0.837866
O O5 0.883976 0.680390 0.511549
O O6 0.962466 0.886740 0.481826
O O7 0.977319 0.622615 0.398831
O O8 0.981774 0.640261 0.608557
O O9 0.727924 0.131929 0.479373
O O10 0.648133 0.909887 0.486854
O O11 0.914674 0.403896 0.316297
O O12 0.813977 0.229146 0.342444
O O13 0.913652 0.156956 0.422672
O O14 0.490041 0.012757 0.207999
#
# Coordination Sequence:
#
# PCOD9459913 Si02
#       7
#     8   8   8   8   8   8   8
#     4  11  24  39  67  93 128 172 223 270 341 396
#     4  10  21  38  67  91 130 173 216 269 326 400
#     4  11  22  43  64  90 134 177 217 277 339 392
#     4  10  24  41  64  96 136 172 218 288 329 399
#     4  11  21  41  67  97 127 174 223 270 331 399
#     4  10  21  41  64  97 131 173 217 268 341 397
#     4  11  23  43  62  97 128 171 227 275 330 409
#
# _framework density 22.279323999999999
#
# number of rings (size 3 to 8) (size 9 to 14) (size 15 to 20)
#    0.000    1.429    4.286    0.857    2.000    0.571 
#    0.000    0.000    6.286    0.000    0.000    0.000 
#    0.000    0.000    0.000    0.000    0.000    0.000 
#
# Total GULP energy -312844.660112 kJ/mol
# GULP energy per Si atom -5586.511788 kJ/mol
# Density = 2.222862 g / cm^3
# Si number density = 22.279324 Si / 1000 Ang^3
#
#
#
# Elastic Constant Matrix: (Units=GPa)
#
#
# Indices 1 2 3 4 5 6 
#
# 1 71.9235 25.3127 0.3068 0.0000 0.0000 0.0000
# 2 25.3127 79.8735 -2.7782 0.0000 0.0000 0.0000
# 3 0.3068 -2.7782 49.1292 0.0000 0.0000 0.0000
# 4 0.0000 0.0000 0.0000 6.6116 0.0000 0.0000
# 5 0.0000 0.0000 0.0000 0.0000 28.7788 0.0000
# 6 0.0000 0.0000 0.0000 0.0000 0.0000 47.4581
#
#
#
# Elastic Compliance Matrix: (Units=1/GPa)
#
#
# Indices 1 2 3 4 5 6 
#
# 1 0.015656 -0.004975 -0.000379 0.000000 0.000000 0.000000
# 2 -0.004975 0.014125 0.000830 0.000000 0.000000 0.000000
# 3 -0.000379 0.000830 0.020404 0.000000 0.000000 0.000000
# 4 0.000000 0.000000 0.000000 0.151250 0.000000 0.000000
# 5 0.000000 0.000000 0.000000 0.000000 0.034748 0.000000
# 6 0.000000 0.000000 0.000000 0.000000 0.000000 0.021071
#
#
# Mechanical properties :
#
#
# Convention : Reuss Voigt Hill
#
# Bulk Modulus (GPa) = 24.30898 27.40099 25.85498
# Shear Modulus (GPa) = 17.85620 28.44200 23.14910
#
# Velocity S-wave (km/s) = 2.83410 3.57684 3.22691
# Velocity P-wave (km/s) = 4.65233 5.42070 5.05114
#
# Compressibility (1/GPa) = 0.04113706
#
# Stress axis : x y z
#
# Youngs Moduli (GPa) = 63.87286 70.79540 49.01053
#
# Poissons Ratio (x) = 0.35219 0.01858
# Poissons Ratio (y) = 0.31775 -0.04067
# Poissons Ratio (z) = 0.02421 -0.05875
#
# Static dielectric constant tensor:
#      x y z
#    x 1.854150 0.000000 0.000000 
#    y 0.000000 1.881210 0.000000 
#    z 0.000000 0.000000 1.777940 
# 
# From -- ./inp_files/8384.got.cif
#   From: 2010.05.17/outbox.cif.g08.bks.cpg/sg61_5_cif.got.tgz:8384.got - 2010.06.03 15:17:17.
