data_PCOD9459605
_publ_section_title
;
Structure prediction by ZEFSAII (Michael W. Deem and Ramdas Pophale) SiO2 
 PCOD9459605
Probable space group: P B C A
;
_chemical_formula_sum "Si O2"
_cell_formula_units_Z 48
_cell_length_a 10.463872
_cell_length_b 13.455478
_cell_length_c 11.931813
_cell_angle_alpha 90.000000
_cell_angle_beta 90.000000
_cell_angle_gamma 90.000000
_cell_volume 1679.956310
_symmetry_space_group_name_H-M "P B C A"
_symmetry_group_IT_number 61
_symmetry_cell_setting 'orthorhombic'
loop_
_space_group_symop_operation_xyz
x,y,z
1/2-x,-y,1/2+z
1/2+x,1/2-y,-z
-x,1/2+y,1/2-z
-x,-y,-z
1/2+x,y,1/2-z
1/2-x,1/2+y,z
x,1/2-y,1/2+z
loop_
_atom_site_type_symbol
_atom_site_label
_atom_site_fract_x
_atom_site_fract_y
_atom_site_fract_z
Si Si1 0.416191 0.117058 0.179945
Si Si2 0.114640 0.730491 0.946679
Si Si3 0.379517 0.609665 0.601782
Si Si4 0.828785 0.584583 0.588086
Si Si5 0.889037 0.417374 0.416905
Si Si6 0.688647 0.102723 0.162139
O O1 0.398877 0.184060 0.071362
O O2 0.558852 0.124930 0.227537
O O3 0.306648 0.145944 0.267417
O O4 0.410428 0.003522 0.134085
O O5 0.095362 0.845935 0.974249
O O6 0.255600 0.688734 0.915787
O O7 0.998590 0.681778 0.877334
O O8 0.235053 0.625283 0.646223
O O9 0.352289 0.619051 0.467655
O O10 0.852968 0.525853 0.469058
O O11 0.733742 0.511575 0.652992
O O12 0.971610 0.586312 0.638246
#
# Coordination Sequence:
#
# PCOD9459605 Si02
#       6
#     8   8   8   8   8   8
#     4  11  21  37  66  86 120 165 204 257 316 369
#     4  11  19  39  64  88 123 167 208 257 317 377
#     4  10  20  41  61  88 119 164 210 249 318 369
#     4  10  20  39  58  93 127 158 213 258 311 377
#     4  10  21  32  66  94 118 165 209 261 312 371
#     4  10  21  36  63  88 118 165 200 253 314 369
#
# _framework density 28.572171000000001
#
# number of rings (size 3 to 8) (size 9 to 14) (size 15 to 20)
#    0.000    1.667    5.000    2.000    2.333    1.333 
#    0.000    0.000   22.000    0.000    0.000    0.000 
#    0.000    0.000    0.000    0.000    0.000    0.000 
#
# Total GULP energy -268475.668863 kJ/mol
# GULP energy per Si atom -5593.243101 kJ/mol
# Density = 2.850714 g / cm^3
# Si number density = 28.572171 Si / 1000 Ang^3
#
#
#
# Elastic Constant Matrix: (Units=GPa)
#
#
# Indices 1 2 3 4 5 6 
#
# 1 258.2656 25.3653 20.1263 0.0000 0.0000 0.0000
# 2 25.3653 106.1357 12.5562 0.0000 0.0000 0.0000
# 3 20.1263 12.5562 106.0672 0.0000 0.0000 0.0000
# 4 0.0000 0.0000 0.0000 36.2518 0.0000 0.0000
# 5 0.0000 0.0000 0.0000 0.0000 21.2056 0.0000
# 6 0.0000 0.0000 0.0000 0.0000 0.0000 34.7350
#
#
#
# Elastic Compliance Matrix: (Units=1/GPa)
#
#
# Indices 1 2 3 4 5 6 
#
# 1 0.004010 -0.000881 -0.000657 0.000000 0.000000 0.000000
# 2 -0.000881 0.009749 -0.000987 0.000000 0.000000 0.000000
# 3 -0.000657 -0.000987 0.009669 0.000000 0.000000 0.000000
# 4 0.000000 0.000000 0.000000 0.027585 0.000000 0.000000
# 5 0.000000 0.000000 0.000000 0.000000 0.047157 0.000000
# 6 0.000000 0.000000 0.000000 0.000000 0.000000 0.028789
#
#
# Mechanical properties :
#
#
# Convention : Reuss Voigt Hill
#
# Bulk Modulus (GPa) = 54.40750 65.17379 59.79064
# Shear Modulus (GPa) = 36.19653 45.93318 41.06485
#
# Velocity S-wave (km/s) = 3.56314 4.01386 3.79520
# Velocity P-wave (km/s) = 6.00095 6.65892 6.33848
#
# Compressibility (1/GPa) = 0.01837982
#
# Stress axis : x y z
#
# Youngs Moduli (GPa) = 249.39923 102.57337 103.41889
#
# Poissons Ratio (x) = 0.09032 0.06790
# Poissons Ratio (y) = 0.21962 0.10207
# Poissons Ratio (z) = 0.16375 0.10124
#
# Static dielectric constant tensor:
#      x y z
#    x 2.397030 0.000000 0.000000 
#    y 0.000000 2.269980 0.000000 
#    z 0.000000 0.000000 2.257550 
# 
# From -- ./inp_files/7455.got.cif
#   From: 2010.05.17/outbox.cif.g08.bks.cpg/sg61_4_cif.got.tgz:7455.got - 2010.06.03 15:17:17.
