data_PCOD9459539
_publ_section_title
;
Structure prediction by ZEFSAII (Michael W. Deem and Ramdas Pophale) SiO2 
 PCOD9459539
Probable space group: P B C A
;
_chemical_formula_sum "Si O2"
_cell_formula_units_Z 64
_cell_length_a 11.244195
_cell_length_b 15.226527
_cell_length_c 18.108225
_cell_angle_alpha 90.000000
_cell_angle_beta 90.000000
_cell_angle_gamma 90.000000
_cell_volume 3100.309904
_symmetry_space_group_name_H-M "P B C A"
_symmetry_group_IT_number 61
_symmetry_cell_setting 'orthorhombic'
loop_
_space_group_symop_operation_xyz
x,y,z
1/2-x,-y,1/2+z
1/2+x,1/2-y,-z
-x,1/2+y,1/2-z
-x,-y,-z
1/2+x,y,1/2-z
1/2-x,1/2+y,z
x,1/2-y,1/2+z
loop_
_atom_site_type_symbol
_atom_site_label
_atom_site_fract_x
_atom_site_fract_y
_atom_site_fract_z
Si Si1 0.367468 0.678025 0.592943
Si Si2 0.336283 0.735651 0.950149
Si Si3 0.484880 0.106572 0.578389
Si Si4 0.893650 0.242897 0.149131
Si Si5 0.409207 0.073042 0.420821
Si Si6 0.843354 0.984392 0.520787
Si Si7 0.048973 0.875998 0.576457
Si Si8 0.159220 0.764797 0.180986
O O1 0.312381 0.749383 0.535743
O O2 0.504214 0.697905 0.611815
O O3 0.346343 0.585566 0.549434
O O4 0.292904 0.701273 0.665818
O O5 0.381912 0.641890 0.925984
O O6 0.226252 0.757810 0.899247
O O7 0.453156 0.798763 0.941464
O O8 0.432764 0.124300 0.497393
O O9 0.416072 0.159817 0.639516
O O10 0.493451 0.003022 0.586756
O O11 0.929156 0.140780 0.144404
O O12 0.869502 0.265991 0.233135
O O13 0.277422 0.034619 0.434637
O O14 0.952476 0.957160 0.575554
O O15 0.863011 0.080987 0.485161
O O16 0.121875 0.829483 0.643163
#
# Coordination Sequence:
#
# PCOD9459539 Si02
#       8
#     8   8   8   8   8   8   8   8
#     4  11  23  40  67  91 130 169 227 274 327 397
#     4  10  21  40  67  94 123 169 235 265 333 392
#     4  10  22  40  69  93 131 168 215 289 320 393
#     4  12  25  42  66  97 132 183 215 276 339 416
#     4  11  21  40  68 104 126 166 232 276 327 387
#     4  10  20  37  68 100 126 161 230 280 326 377
#     4   9  21  38  64  92 129 169 209 280 325 387
#     4  11  25  43  62  93 140 175 219 262 355 407
#
# _framework density 20.643097999999998
#
# number of rings (size 3 to 8) (size 9 to 14) (size 15 to 20)
#    0.000    1.500    5.000    0.000    8.750    1.000 
#    2.250    0.000    0.000    0.000    0.000    0.000 
#    0.000    0.000    0.000    0.000    0.000    0.000 
#
# Total GULP energy -356284.225786 kJ/mol
# GULP energy per Si atom -5566.941028 kJ/mol
# Density = 2.059611 g / cm^3
# Si number density = 20.643098 Si / 1000 Ang^3
#
#
#
# Elastic Constant Matrix: (Units=GPa)
#
#
# Indices 1 2 3 4 5 6 
#
# 1 57.5006 26.5106 19.0354 0.0000 0.0000 0.0000
# 2 26.5106 77.9287 37.4369 0.0000 0.0000 0.0000
# 3 19.0354 37.4369 94.2806 0.0000 0.0000 0.0000
# 4 0.0000 0.0000 0.0000 22.2963 0.0000 0.0000
# 5 0.0000 0.0000 0.0000 0.0000 12.9491 0.0000
# 6 0.0000 0.0000 0.0000 0.0000 0.0000 26.5744
#
#
#
# Elastic Compliance Matrix: (Units=1/GPa)
#
#
# Indices 1 2 3 4 5 6 
#
# 1 0.020850 -0.006266 -0.001722 0.000000 0.000000 0.000000
# 2 -0.006266 0.017740 -0.005779 0.000000 0.000000 0.000000
# 3 -0.001722 -0.005779 0.013249 0.000000 0.000000 0.000000
# 4 0.000000 0.000000 0.000000 0.044851 0.000000 0.000000
# 5 0.000000 0.000000 0.000000 0.000000 0.077225 0.000000
# 6 0.000000 0.000000 0.000000 0.000000 0.000000 0.037630
#
#
# Mechanical properties :
#
#
# Convention : Reuss Voigt Hill
#
# Bulk Modulus (GPa) = 41.14239 43.96396 42.55317
# Shear Modulus (GPa) = 20.22814 22.14575 21.18695
#
# Velocity S-wave (km/s) = 3.13373 3.27890 3.20714
# Velocity P-wave (km/s) = 5.75042 5.97314 5.86283
#
# Compressibility (1/GPa) = 0.02430583
#
# Stress axis : x y z
#
# Youngs Moduli (GPa) = 47.96174 56.36924 75.47731
#
# Poissons Ratio (x) = 0.35321 0.12994
# Poissons Ratio (y) = 0.30052 0.43620
# Poissons Ratio (z) = 0.08257 0.32577
#
# Static dielectric constant tensor:
#      x y z
#    x 1.891010 0.000000 0.000000 
#    y 0.000000 1.842040 0.000000 
#    z 0.000000 0.000000 1.728630 
# 
# From -- ./inp_files/9307.got.cif
#   From: 2010.05.17/outbox.cif.g08.bks.cpg/sg61_5_cif.got.tgz:9307.got - 2010.06.03 15:17:17.
