data_PCOD9459087
_publ_section_title
;
Structure prediction by ZEFSAII (Michael W. Deem and Ramdas Pophale) SiO2 
 PCOD9459087
Probable space group: P B C A
;
_chemical_formula_sum "Si O2"
_cell_formula_units_Z 56
_cell_length_a 14.974039
_cell_length_b 8.784934
_cell_length_c 14.573306
_cell_angle_alpha 90.000000
_cell_angle_beta 90.000000
_cell_angle_gamma 90.000000
_cell_volume 1917.059300
_symmetry_space_group_name_H-M "P B C A"
_symmetry_group_IT_number 61
_symmetry_cell_setting 'orthorhombic'
loop_
_space_group_symop_operation_xyz
x,y,z
1/2-x,-y,1/2+z
1/2+x,1/2-y,-z
-x,1/2+y,1/2-z
-x,-y,-z
1/2+x,y,1/2-z
1/2-x,1/2+y,z
x,1/2-y,1/2+z
loop_
_atom_site_type_symbol
_atom_site_label
_atom_site_fract_x
_atom_site_fract_y
_atom_site_fract_z
Si Si1 0.310318 0.878946 0.577804
Si Si2 0.740505 0.217509 0.104476
Si Si3 0.500000 0.000000 0.000000
Si Si4 0.635988 0.944332 0.163711
Si Si5 0.147261 0.061844 0.643721
Si Si6 0.953663 0.661906 0.638333
Si Si7 0.000000 0.500000 0.500000
Si Si8 0.006727 0.908604 0.773687
O O1 0.257397 0.777948 0.499785
O O2 0.348887 0.743888 0.641549
O O3 0.243007 0.983736 0.634961
O O4 0.388388 0.973710 0.527854
O O5 0.824764 0.275868 0.162121
O O6 0.647053 0.288455 0.139477
O O7 0.719095 0.042449 0.125039
O O8 0.552906 0.961361 0.096299
O O9 0.404338 0.983106 0.052444
O O10 0.589256 0.013234 0.253325
O O11 0.089286 0.000781 0.728704
O O12 0.998005 0.696572 0.540040
O O13 0.973862 0.475470 0.622803
O O14 0.002655 0.752504 0.719345
#
# Coordination Sequence:
#
# PCOD9459087 Si02
#       8
#     8   8   4   8   8   8   4   8
#     4  11  22  41  65 104 142 189 238 301 358 430
#     4  10  19  40  61  98 131 179 234 285 339 426
#     4  10  18  36  60  94 136 174 226 286 350 414
#     4  10  20  38  63  95 135 180 232 289 354 425
#     4  11  24  39  67 102 145 185 238 299 363 439
#     4  10  24  48  70 101 142 188 242 297 369 437
#     4  10  26  44  76 102 144 192 250 306 358 440
#     4  10  25  46  70 101 144 192 237 304 374 441
#
# _framework density 29.211404999999999
#
# number of rings (size 3 to 8) (size 9 to 14) (size 15 to 20)
#    0.000    1.714    2.857    0.000    6.000    1.143 
#   10.286    0.000    0.000    0.000    0.000    0.000 
#    0.000    0.000    0.000    0.000    0.000    0.000 
#
# Total GULP energy -312082.291122 kJ/mol
# GULP energy per Si atom -5572.898056 kJ/mol
# Density = 2.914492 g / cm^3
# Si number density = 29.211405 Si / 1000 Ang^3
#
#
#
# Elastic Constant Matrix: (Units=GPa)
#
#
# Indices 1 2 3 4 5 6 
#
# 1 156.7161 62.1711 55.0297 0.0000 0.0000 0.0000
# 2 62.1711 117.3773 39.6629 0.0000 0.0000 0.0000
# 3 55.0297 39.6629 142.1976 0.0000 0.0000 0.0000
# 4 0.0000 0.0000 0.0000 55.0014 0.0000 0.0000
# 5 0.0000 0.0000 0.0000 0.0000 21.7501 0.0000
# 6 0.0000 0.0000 0.0000 0.0000 0.0000 62.4485
#
#
#
# Elastic Compliance Matrix: (Units=1/GPa)
#
#
# Indices 1 2 3 4 5 6 
#
# 1 0.008711 -0.003836 -0.002301 0.000000 0.000000 0.000000
# 2 -0.003836 0.011096 -0.001610 0.000000 0.000000 0.000000
# 3 -0.002301 -0.001610 0.008372 0.000000 0.000000 0.000000
# 4 0.000000 0.000000 0.000000 0.018181 0.000000 0.000000
# 5 0.000000 0.000000 0.000000 0.000000 0.045977 0.000000
# 6 0.000000 0.000000 0.000000 0.000000 0.000000 0.016013
#
#
# Mechanical properties :
#
#
# Convention : Reuss Voigt Hill
#
# Bulk Modulus (GPa) = 78.84306 81.11318 79.97812
# Shear Modulus (GPa) = 39.04027 45.13516 42.08772
#
# Velocity S-wave (km/s) = 3.65975 3.93507 3.79990
# Velocity P-wave (km/s) = 6.70130 6.96235 6.83307
#
# Compressibility (1/GPa) = 0.01268343
#
# Stress axis : x y z
#
# Youngs Moduli (GPa) = 114.79917 90.12548 119.44465
#
# Poissons Ratio (x) = 0.34575 0.27484
# Poissons Ratio (y) = 0.44041 0.19233
# Poissons Ratio (z) = 0.26415 0.14512
#
# Static dielectric constant tensor:
#      x y z
#    x 2.131000 0.000000 0.000000 
#    y 0.000000 2.216110 0.000000 
#    z 0.000000 0.000000 2.472500 
# 
# From -- ./inp_files/3924.got.cif
#   From: 2010.05.17/outbox.cif.g08.bks.cpg/sg61_2_cif.got.tgz:3924.got - 2010.06.03 15:17:17.
