data_PCOD9459984
_publ_section_title
;
Structure prediction by ZEFSAII (Michael W. Deem and Ramdas Pophale) SiO2 
 PCOD9459984
Probable space group: P B C A
;
_chemical_formula_sum "Si O2"
_cell_formula_units_Z 48
_cell_length_a 9.516408
_cell_length_b 25.113021
_cell_length_c 7.683180
_cell_angle_alpha 90.000000
_cell_angle_beta 90.000000
_cell_angle_gamma 90.000000
_cell_volume 1836.170565
_symmetry_space_group_name_H-M "P B C A"
_symmetry_group_IT_number 61
_symmetry_cell_setting 'orthorhombic'
loop_
_space_group_symop_operation_xyz
x,y,z
1/2-x,-y,1/2+z
1/2+x,1/2-y,-z
-x,1/2+y,1/2-z
-x,-y,-z
1/2+x,y,1/2-z
1/2-x,1/2+y,z
x,1/2-y,1/2+z
loop_
_atom_site_type_symbol
_atom_site_label
_atom_site_fract_x
_atom_site_fract_y
_atom_site_fract_z
Si Si1 0.242334 0.384013 0.050341
Si Si2 0.496740 0.167262 0.757408
Si Si3 0.670011 0.822670 0.795042
Si Si4 0.664087 0.933640 0.956467
Si Si5 0.429383 0.771468 0.589412
Si Si6 0.366285 0.526956 0.320507
O O1 0.103006 0.374742 0.161704
O O2 0.366362 0.362412 0.171680
O O3 0.254045 0.347786 0.876089
O O4 0.227003 0.442280 0.966956
O O5 0.493454 0.214788 0.899906
O O6 0.562434 0.200621 0.596433
O O7 0.665781 0.870034 0.936935
O O8 0.519092 0.807448 0.721528
O O9 0.766449 0.773345 0.855135
O O10 0.804792 0.953355 0.860564
O O11 0.526719 0.954586 0.850259
O O12 0.651615 0.964733 0.137932
#
# Coordination Sequence:
#
# PCOD9459984 Si02
#       6
#     8   8   8   8   8   8
#     4  10  23  41  61  88 122 160 208 259 315 378
#     4  11  24  40  60  89 121 159 206 257 313 381
#     4  10  21  40  62  88 122 163 207 257 315 375
#     4  10  22  41  65  94 130 169 218 272 325 384
#     4  11  23  38  61  88 120 161 205 255 314 377
#     4  10  23  42  65  95 129 171 218 268 326 387
#
# _framework density 26.141361
#
# number of rings (size 3 to 8) (size 9 to 14) (size 15 to 20)
#    0.000    1.667    0.000    4.000    0.000   11.333 
#    0.000    0.000    0.000    0.000    0.000    0.000 
#    0.000    0.000    0.000    0.000    0.000    0.000 
#
# Total GULP energy -268901.421089 kJ/mol
# GULP energy per Si atom -5602.112939 kJ/mol
# Density = 2.608186 g / cm^3
# Si number density = 26.141361 Si / 1000 Ang^3
#
#
#
# Elastic Constant Matrix: (Units=GPa)
#
#
# Indices 1 2 3 4 5 6 
#
# 1 93.9997 1.5035 1.9477 0.0000 0.0000 0.0000
# 2 1.5035 121.3022 12.4758 0.0000 0.0000 0.0000
# 3 1.9477 12.4758 68.5324 0.0000 0.0000 0.0000
# 4 0.0000 0.0000 0.0000 45.0882 0.0000 0.0000
# 5 0.0000 0.0000 0.0000 0.0000 42.0377 0.0000
# 6 0.0000 0.0000 0.0000 0.0000 0.0000 28.6198
#
#
#
# Elastic Compliance Matrix: (Units=1/GPa)
#
#
# Indices 1 2 3 4 5 6 
#
# 1 0.010646 -0.000103 -0.000284 0.000000 0.000000 0.000000
# 2 -0.000103 0.008402 -0.001527 0.000000 0.000000 0.000000
# 3 -0.000284 -0.001527 0.014878 0.000000 0.000000 0.000000
# 4 0.000000 0.000000 0.000000 0.022179 0.000000 0.000000
# 5 0.000000 0.000000 0.000000 0.000000 0.023788 0.000000
# 6 0.000000 0.000000 0.000000 0.000000 0.000000 0.034941
#
#
# Mechanical properties :
#
#
# Convention : Reuss Voigt Hill
#
# Bulk Modulus (GPa) = 33.22351 35.07647 34.14999
# Shear Modulus (GPa) = 38.85219 41.00964 39.93091
#
# Velocity S-wave (km/s) = 3.85935 3.96506 3.91256
# Velocity P-wave (km/s) = 5.70931 5.86595 5.78816
#
# Compressibility (1/GPa) = 0.03009917
#
# Stress axis : x y z
#
# Youngs Moduli (GPa) = 93.93323 119.01708 67.21502
#
# Poissons Ratio (x) = 0.01223 0.01908
# Poissons Ratio (y) = 0.00965 0.10261
# Poissons Ratio (z) = 0.02666 0.18169
#
# Static dielectric constant tensor:
#      x y z
#    x 1.981110 0.000000 0.000000 
#    y 0.000000 2.044250 0.000000 
#    z 0.000000 0.000000 2.062520 
# 
# From -- ./inp_files/1871.got.cif
#   From: 2010.05.17/outbox.cif.g08.bks.cpg/sg61_1_cif.got.tgz:1871.got - 2010.06.03 15:17:17.
