data_PCOD9459648
_publ_section_title
;
Structure prediction by ZEFSAII (Michael W. Deem and Ramdas Pophale) SiO2 
 PCOD9459648
Probable space group: P B C A
;
_chemical_formula_sum "Si O2"
_cell_formula_units_Z 48
_cell_length_a 15.284914
_cell_length_b 9.302451
_cell_length_c 12.361534
_cell_angle_alpha 90.000000
_cell_angle_beta 90.000000
_cell_angle_gamma 90.000000
_cell_volume 1757.651456
_symmetry_space_group_name_H-M "P B C A"
_symmetry_group_IT_number 61
_symmetry_cell_setting 'orthorhombic'
loop_
_space_group_symop_operation_xyz
x,y,z
1/2-x,-y,1/2+z
1/2+x,1/2-y,-z
-x,1/2+y,1/2-z
-x,-y,-z
1/2+x,y,1/2-z
1/2-x,1/2+y,z
x,1/2-y,1/2+z
loop_
_atom_site_type_symbol
_atom_site_label
_atom_site_fract_x
_atom_site_fract_y
_atom_site_fract_z
Si Si1 0.087183 0.282959 0.667483
Si Si2 0.705615 0.544121 0.531048
Si Si3 0.107251 0.046097 0.942119
Si Si4 0.054157 0.703316 0.592863
Si Si5 0.523852 0.009273 0.148513
Si Si6 0.764779 0.199304 0.870634
O O1 0.107395 0.355848 0.550781
O O2 0.030604 0.138578 0.651030
O O3 0.187931 0.255859 0.705488
O O4 0.223215 0.063574 0.569158
O O5 0.794980 0.533542 0.601002
O O6 0.619859 0.510206 0.597726
O O7 0.709026 0.696075 0.470461
O O8 0.075395 0.891261 0.985465
O O9 0.037317 0.130076 0.871056
O O10 0.136717 0.676093 0.672877
O O11 0.038562 0.398729 0.741396
O O12 0.467721 0.129382 0.082608
#
# Coordination Sequence:
#
# PCOD9459648 Si02
#       6
#     8   8   8   8   8   8
#     4  11  24  41  63  93 135 170 218 272 337 400
#     4  10  21  39  67  97 128 166 221 267 329 392
#     4   9  20  41  66  97 130 170 218 279 328 396
#     4  10  20  39  68  95 129 167 219 269 328 390
#     4  12  24  42  66  98 133 180 222 274 341 411
#     4  10  21  41  66  98 129 171 218 275 325 393
#
# _framework density 27.309169000000001
#
# number of rings (size 3 to 8) (size 9 to 14) (size 15 to 20)
#    0.000    1.667    0.000    5.000    0.000    2.000 
#    0.000   23.333    0.000    0.000    0.000    0.000 
#    0.000    0.000    0.000    0.000    0.000    0.000 
#
# Total GULP energy -268647.716459 kJ/mol
# GULP energy per Si atom -5596.827426 kJ/mol
# Density = 2.724701 g / cm^3
# Si number density = 27.309169 Si / 1000 Ang^3
#
#
#
# Elastic Constant Matrix: (Units=GPa)
#
#
# Indices 1 2 3 4 5 6 
#
# 1 260.9310 68.5350 30.3275 0.0000 0.0000 0.0000
# 2 68.5350 204.9404 34.1893 0.0000 0.0000 0.0000
# 3 30.3275 34.1893 71.8551 0.0000 0.0000 0.0000
# 4 0.0000 0.0000 0.0000 32.6655 0.0000 0.0000
# 5 0.0000 0.0000 0.0000 0.0000 25.2794 0.0000
# 6 0.0000 0.0000 0.0000 0.0000 0.0000 54.8421
#
#
#
# Elastic Compliance Matrix: (Units=1/GPa)
#
#
# Indices 1 2 3 4 5 6 
#
# 1 0.004299 -0.001233 -0.001228 0.000000 0.000000 0.000000
# 2 -0.001233 0.005654 -0.002170 0.000000 0.000000 0.000000
# 3 -0.001228 -0.002170 0.015468 0.000000 0.000000 0.000000
# 4 0.000000 0.000000 0.000000 0.030613 0.000000 0.000000
# 5 0.000000 0.000000 0.000000 0.000000 0.039558 0.000000
# 6 0.000000 0.000000 0.000000 0.000000 0.000000 0.018234
#
#
# Mechanical properties :
#
#
# Convention : Reuss Voigt Hill
#
# Bulk Modulus (GPa) = 61.88371 89.31445 75.59908
# Shear Modulus (GPa) = 38.91872 49.53571 44.22721
#
# Velocity S-wave (km/s) = 3.77917 4.26359 4.02867
# Velocity P-wave (km/s) = 6.46161 7.55073 7.02730
#
# Compressibility (1/GPa) = 0.01615934
#
# Stress axis : x y z
#
# Youngs Moduli (GPa) = 232.61541 176.87524 64.65157
#
# Poissons Ratio (x) = 0.21805 0.07938
# Poissons Ratio (y) = 0.28677 0.14028
# Poissons Ratio (z) = 0.28562 0.38378
#
# Static dielectric constant tensor:
#      x y z
#    x 2.412320 0.000000 0.000000 
#    y 0.000000 2.137580 0.000000 
#    z 0.000000 0.000000 2.213680 
# 
# From -- ./inp_files/5223.got.cif
#   From: 2010.05.17/outbox.cif.g08.bks.cpg/sg61_3_cif.got.tgz:5223.got - 2010.06.03 15:17:17.
