data_PCOD9459591
_publ_section_title
;
Structure prediction by ZEFSAII (Michael W. Deem and Ramdas Pophale) SiO2 
 PCOD9459591
Probable space group: P B C A
;
_chemical_formula_sum "Si O2"
_cell_formula_units_Z 48
_cell_length_a 8.862621
_cell_length_b 22.841743
_cell_length_c 9.959343
_cell_angle_alpha 90.000000
_cell_angle_beta 90.000000
_cell_angle_gamma 90.000000
_cell_volume 2016.146602
_symmetry_space_group_name_H-M "P B C A"
_symmetry_group_IT_number 61
_symmetry_cell_setting 'orthorhombic'
loop_
_space_group_symop_operation_xyz
x,y,z
1/2-x,-y,1/2+z
1/2+x,1/2-y,-z
-x,1/2+y,1/2-z
-x,-y,-z
1/2+x,y,1/2-z
1/2-x,1/2+y,z
x,1/2-y,1/2+z
loop_
_atom_site_type_symbol
_atom_site_label
_atom_site_fract_x
_atom_site_fract_y
_atom_site_fract_z
Si Si1 0.436543 0.870559 0.947907
Si Si2 0.922485 0.969532 0.374338
Si Si3 0.540309 0.268765 0.064001
Si Si4 0.339250 0.251403 0.814933
Si Si5 0.593477 0.478924 0.876060
Si Si6 0.254533 0.127786 0.210038
O O1 0.436551 0.801017 0.960140
O O2 0.291257 0.892079 0.861519
O O3 0.584078 0.884009 0.856834
O O4 0.441055 0.901385 0.091057
O O5 0.751165 0.988004 0.370944
O O6 0.000000 0.000000 0.500000
O O7 0.001957 0.996608 0.248175
O O8 0.712645 0.286621 0.105037
O O9 0.439220 0.278461 0.198199
O O10 0.445354 0.283133 0.928313
O O11 0.251384 0.302116 0.729511
O O12 0.634393 0.409719 0.875102
O O13 0.500000 0.500000 0.000000
#
# Coordination Sequence:
#
# PCOD9459591 Si02
#       6
#     8   8   8   8   8   8
#     4  10  22  39  65  95 136 171 226 275 331 409
#     4  12  23  41  65  93 138 178 224 272 333 408
#     4  10  21  41  68  97 134 171 229 278 348 400
#     4  10  21  39  69  96 134 175 223 286 342 417
#     4  12  25  40  67  98 138 180 226 278 340 411
#     4  10  20  38  64  96 130 176 223 266 345 407
#
# _framework density 23.807793
#
# number of rings (size 3 to 8) (size 9 to 14) (size 15 to 20)
#    0.000    1.333    3.333    2.000    2.333    1.333 
#    0.000    5.000    0.000    0.000    0.000    0.000 
#    0.000    0.000    0.000    0.000    0.000    0.000 
#
# Total GULP energy -267905.468301 kJ/mol
# GULP energy per Si atom -5581.363923 kJ/mol
# Density = 2.375361 g / cm^3
# Si number density = 23.807793 Si / 1000 Ang^3
#
#
#
# Elastic Constant Matrix: (Units=GPa)
#
#
# Indices 1 2 3 4 5 6 
#
# 1 149.3834 14.6798 54.5105 0.0000 0.0000 0.0000
# 2 14.6798 52.1073 5.1431 0.0000 0.0000 0.0000
# 3 54.5105 5.1431 122.7339 0.0000 0.0000 0.0000
# 4 0.0000 0.0000 0.0000 26.3830 0.0000 0.0000
# 5 0.0000 0.0000 0.0000 0.0000 46.0984 0.0000
# 6 0.0000 0.0000 0.0000 0.0000 0.0000 28.5120
#
#
#
# Elastic Compliance Matrix: (Units=1/GPa)
#
#
# Indices 1 2 3 4 5 6 
#
# 1 0.008182 -0.001955 -0.003552 0.000000 0.000000 0.000000
# 2 -0.001955 0.019738 0.000041 0.000000 0.000000 0.000000
# 3 -0.003552 0.000041 0.009724 0.000000 0.000000 0.000000
# 4 0.000000 0.000000 0.000000 0.037903 0.000000 0.000000
# 5 0.000000 0.000000 0.000000 0.000000 0.021693 0.000000
# 6 0.000000 0.000000 0.000000 0.000000 0.000000 0.035073
#
#
# Mechanical properties :
#
#
# Convention : Reuss Voigt Hill
#
# Bulk Modulus (GPa) = 37.43596 52.54349 44.98973
# Shear Modulus (GPa) = 32.86264 36.85809 34.86037
#
# Velocity S-wave (km/s) = 3.71931 3.93893 3.83069
# Velocity P-wave (km/s) = 5.84831 6.54252 6.20513
#
# Compressibility (1/GPa) = 0.02671229
#
# Stress axis : x y z
#
# Youngs Moduli (GPa) = 122.21230 50.66431 102.84186
#
# Poissons Ratio (x) = 0.09903 0.36532
# Poissons Ratio (y) = 0.23887 -0.00422
# Poissons Ratio (z) = 0.43413 -0.00208
#
# Static dielectric constant tensor:
#      x y z
#    x 2.016030 0.000000 0.000000 
#    y 0.000000 2.013620 0.000000 
#    z 0.000000 0.000000 1.941690 
# 
# From -- ./inp_files/1841.got.cif
#   From: 2010.05.17/outbox.cif.g08.bks.cpg/sg61_1_cif.got.tgz:1841.got - 2010.06.03 15:17:17.
