data_PCOD9459434
_publ_section_title
;
Structure prediction by ZEFSAII (Michael W. Deem and Ramdas Pophale) SiO2 
 PCOD9459434
Probable space group: P B C A
;
_chemical_formula_sum "Si O2"
_cell_formula_units_Z 64
_cell_length_a 15.657414
_cell_length_b 5.219809
_cell_length_c 33.111747
_cell_angle_alpha 90.000000
_cell_angle_beta 90.000000
_cell_angle_gamma 90.000000
_cell_volume 2706.180385
_symmetry_space_group_name_H-M "P B C A"
_symmetry_group_IT_number 61
_symmetry_cell_setting 'orthorhombic'
loop_
_space_group_symop_operation_xyz
x,y,z
1/2-x,-y,1/2+z
1/2+x,1/2-y,-z
-x,1/2+y,1/2-z
-x,-y,-z
1/2+x,y,1/2-z
1/2-x,1/2+y,z
x,1/2-y,1/2+z
loop_
_atom_site_type_symbol
_atom_site_label
_atom_site_fract_x
_atom_site_fract_y
_atom_site_fract_z
Si Si1 0.689927 0.920809 0.315413
Si Si2 0.975802 0.796169 0.452344
Si Si3 0.404424 0.662744 0.419142
Si Si4 0.800309 0.264778 0.441611
Si Si5 0.306565 0.335610 0.359956
Si Si6 0.366242 0.530168 0.985536
Si Si7 0.694780 0.966945 0.224350
Si Si8 0.554003 0.945181 0.385101
O O1 0.746185 0.663032 0.321495
O O2 0.658030 0.924816 0.268828
O O3 0.608953 0.938955 0.344825
O O4 0.893418 0.733564 0.479373
O O5 0.953833 0.722070 0.406264
O O6 0.048802 0.603983 0.468231
O O7 0.026093 0.060590 0.451708
O O8 0.363630 0.420356 0.397321
O O9 0.336034 0.819870 0.445733
O O10 0.459483 0.823962 0.386807
O O11 0.741988 0.502367 0.429298
O O12 0.814810 0.315831 0.489541
O O13 0.887909 0.294889 0.417815
O O14 0.269456 0.050135 0.360688
O O15 0.352968 0.393185 0.317008
O O16 0.773068 0.760218 0.222633
#
# Coordination Sequence:
#
# PCOD9459434 Si02
#       8
#     8   8   8   8   8   8   8   8
#     4  10  20  35  63  91 122 161 206 245 289 356
#     4   9  20  38  57  78 112 159 200 242 299 364
#     4  11  23  37  66  82 122 158 205 245 313 357
#     4  11  25  39  58  86 121 157 198 258 306 342
#     4  10  23  41  64  90 121 153 203 255 303 356
#     4   9  21  38  56  80 108 158 206 242 294 367
#     4   8  16  35  60  86 115 157 194 236 296 358
#     4  10  23  37  57  89 122 160 203 243 305 370
#
# _framework density 23.649567999999999
#
# number of rings (size 3 to 8) (size 9 to 14) (size 15 to 20)
#    0.000    2.250    0.000    1.875   10.500    1.000 
#    0.000    0.000    2.750    0.000    0.000    0.000 
#    0.000    0.000    0.000    0.000    0.000    0.000 
#
# Total GULP energy -357375.668959 kJ/mol
# GULP energy per Si atom -5583.994827 kJ/mol
# Density = 2.359574 g / cm^3
# Si number density = 23.649568 Si / 1000 Ang^3
#
#
#
# Elastic Constant Matrix: (Units=GPa)
#
#
# Indices 1 2 3 4 5 6 
#
# 1 41.8094 18.0264 16.2688 0.0000 0.0000 0.0000
# 2 18.0264 105.3997 8.6527 0.0000 0.0000 0.0000
# 3 16.2688 8.6527 104.9216 0.0000 0.0000 0.0000
# 4 0.0000 0.0000 0.0000 24.3191 0.0000 0.0000
# 5 0.0000 0.0000 0.0000 0.0000 16.7511 0.0000
# 6 0.0000 0.0000 0.0000 0.0000 0.0000 36.7690
#
#
#
# Elastic Compliance Matrix: (Units=1/GPa)
#
#
# Indices 1 2 3 4 5 6 
#
# 1 0.027302 -0.004351 -0.003874 0.000000 0.000000 0.000000
# 2 -0.004351 0.010246 -0.000170 0.000000 0.000000 0.000000
# 3 -0.003874 -0.000170 0.010146 0.000000 0.000000 0.000000
# 4 0.000000 0.000000 0.000000 0.041120 0.000000 0.000000
# 5 0.000000 0.000000 0.000000 0.000000 0.059698 0.000000
# 6 0.000000 0.000000 0.000000 0.000000 0.000000 0.027197
#
#
# Mechanical properties :
#
#
# Convention : Reuss Voigt Hill
#
# Bulk Modulus (GPa) = 32.36113 37.55850 34.95982
# Shear Modulus (GPa) = 24.65480 29.51337 27.08408
#
# Velocity S-wave (km/s) = 3.23229 3.53646 3.38779
# Velocity P-wave (km/s) = 5.25771 5.70886 5.48793
#
# Compressibility (1/GPa) = 0.03090127
#
# Stress axis : x y z
#
# Youngs Moduli (GPa) = 36.62764 97.60027 98.56363
#
# Poissons Ratio (x) = 0.42469 0.38188
# Poissons Ratio (y) = 0.15938 0.01678
# Poissons Ratio (z) = 0.14191 0.01662
#
# Static dielectric constant tensor:
#      x y z
#    x 1.898550 0.000000 0.000000 
#    y 0.000000 1.938750 0.000000 
#    z 0.000000 0.000000 1.950310 
# 
# From -- ./inp_files/11848.got.cif
#   From: 2010.05.17/outbox.cif.g08.bks.cpg/sg61_6_cif.got.tgz:11848.got - 2010.06.03 15:17:17.
