data_PCOD9459789
_publ_section_title
;
Structure prediction by ZEFSAII (Michael W. Deem and Ramdas Pophale) SiO2 
 PCOD9459789
Probable space group: P B C A
;
_chemical_formula_sum "Si O2"
_cell_formula_units_Z 64
_cell_length_a 14.405293
_cell_length_b 19.487942
_cell_length_c 9.644796
_cell_angle_alpha 90.000000
_cell_angle_beta 90.000000
_cell_angle_gamma 90.000000
_cell_volume 2707.578898
_symmetry_space_group_name_H-M "P B C A"
_symmetry_group_IT_number 61
_symmetry_cell_setting 'orthorhombic'
loop_
_space_group_symop_operation_xyz
x,y,z
1/2-x,-y,1/2+z
1/2+x,1/2-y,-z
-x,1/2+y,1/2-z
-x,-y,-z
1/2+x,y,1/2-z
1/2-x,1/2+y,z
x,1/2-y,1/2+z
loop_
_atom_site_type_symbol
_atom_site_label
_atom_site_fract_x
_atom_site_fract_y
_atom_site_fract_z
Si Si1 0.040498 0.436464 0.413267
Si Si2 0.804279 0.832417 0.595488
Si Si3 0.304031 0.975180 0.791086
Si Si4 0.750849 0.078264 0.490180
Si Si5 0.487890 0.021940 0.157532
Si Si6 0.287939 0.776566 0.608634
Si Si7 0.972361 0.172656 0.355882
Si Si8 0.491645 0.297297 0.958278
O O1 0.144166 0.424018 0.462247
O O2 0.984751 0.367289 0.451916
O O3 0.000000 0.500000 0.500000
O O4 0.048170 0.460711 0.253674
O O5 0.769785 0.909663 0.619781
O O6 0.766463 0.796409 0.458526
O O7 0.916979 0.835076 0.605515
O O8 0.778315 0.784930 0.727100
O O9 0.249803 0.969873 0.647101
O O10 0.413264 0.962012 0.768913
O O11 0.302118 0.043552 0.881595
O O12 0.765530 0.157820 0.453893
O O13 0.435631 0.094602 0.144054
O O14 0.500000 0.000000 0.000000
O O15 0.397267 0.786014 0.568328
O O16 0.947169 0.233816 0.459937
O O17 0.955672 0.195624 0.197971
#
# Coordination Sequence:
#
# PCOD9459789 Si02
#       8
#     8   8   8   8   8   8   8   8
#     4  11  19  38  58  78 109 152 179 221 280 333
#     4   8  15  29  49  71 104 132 172 218 262 306
#     4  10  21  37  53  83 112 141 177 228 270 324
#     4  10  21  35  56  81 111 141 181 220 276 325
#     4  11  23  36  56  84 115 142 189 234 272 323
#     4   8  15  29  47  74 100 134 173 219 256 313
#     4   9  17  31  48  77 107 139 177 229 269 320
#     4   9  17  29  51  75 106 139 182 221 273 322
#
# _framework density 23.637353000000001
#
# number of rings (size 3 to 8) (size 9 to 14) (size 15 to 20)
#    0.000    2.500    2.500    1.500    3.500    1.000 
#    4.500    0.000    0.000    3.000    0.000    0.000 
#    0.000    0.000    0.000    0.000    0.000    0.000 
#
# Total GULP energy -357285.902421 kJ/mol
# GULP energy per Si atom -5582.592225 kJ/mol
# Density = 2.358355 g / cm^3
# Si number density = 23.637353 Si / 1000 Ang^3
#
#
#
# Elastic Constant Matrix: (Units=GPa)
#
#
# Indices 1 2 3 4 5 6 
#
# 1 51.6557 3.2334 -8.5812 0.0000 0.0000 0.0000
# 2 3.2334 30.5927 13.1442 0.0000 0.0000 0.0000
# 3 -8.5812 13.1442 72.9762 0.0000 0.0000 0.0000
# 4 0.0000 0.0000 0.0000 43.6724 0.0000 0.0000
# 5 0.0000 0.0000 0.0000 0.0000 11.8847 0.0000
# 6 0.0000 0.0000 0.0000 0.0000 0.0000 25.6494
#
#
#
# Elastic Compliance Matrix: (Units=1/GPa)
#
#
# Indices 1 2 3 4 5 6 
#
# 1 0.020065 -0.003397 0.002971 0.000000 0.000000 0.000000
# 2 -0.003397 0.036005 -0.006884 0.000000 0.000000 0.000000
# 3 0.002971 -0.006884 0.015293 0.000000 0.000000 0.000000
# 4 0.000000 0.000000 0.000000 0.022898 0.000000 0.000000
# 5 0.000000 0.000000 0.000000 0.000000 0.084142 0.000000
# 6 0.000000 0.000000 0.000000 0.000000 0.000000 0.038987
#
#
# Mechanical properties :
#
#
# Convention : Reuss Voigt Hill
#
# Bulk Modulus (GPa) = 17.62387 18.97971 18.30179
# Shear Modulus (GPa) = 19.92635 26.06986 22.99810
#
# Velocity S-wave (km/s) = 2.90660 3.32461 3.12261
# Velocity P-wave (km/s) = 4.32857 4.77330 4.55636
#
# Compressibility (1/GPa) = 0.05674124
#
# Stress axis : x y z
#
# Youngs Moduli (GPa) = 49.83750 27.77428 65.39150
#
# Poissons Ratio (x) = 0.09436 -0.19430
# Poissons Ratio (y) = 0.16932 0.45019
# Poissons Ratio (z) = -0.14809 0.19121
#
# Static dielectric constant tensor:
#      x y z
#    x 2.020930 0.000000 0.000000 
#    y 0.000000 1.925000 0.000000 
#    z 0.000000 0.000000 1.891890 
# 
# From -- ./inp_files/4090.got.cif
#   From: 2010.05.17/outbox.cif.g08.bks.cpg/sg61_3_cif.got.tgz:4090.got - 2010.06.03 15:17:17.
