data_PCOD9459179
_publ_section_title
;
Structure prediction by ZEFSAII (Michael W. Deem and Ramdas Pophale) SiO2 
 PCOD9459179
Probable space group: P B C A
;
_chemical_formula_sum "Si O2"
_cell_formula_units_Z 56
_cell_length_a 7.789980
_cell_length_b 16.034594
_cell_length_c 22.240501
_cell_angle_alpha 90.000000
_cell_angle_beta 90.000000
_cell_angle_gamma 90.000000
_cell_volume 2778.042444
_symmetry_space_group_name_H-M "P B C A"
_symmetry_group_IT_number 61
_symmetry_cell_setting 'orthorhombic'
loop_
_space_group_symop_operation_xyz
x,y,z
1/2-x,-y,1/2+z
1/2+x,1/2-y,-z
-x,1/2+y,1/2-z
-x,-y,-z
1/2+x,y,1/2-z
1/2-x,1/2+y,z
x,1/2-y,1/2+z
loop_
_atom_site_type_symbol
_atom_site_label
_atom_site_fract_x
_atom_site_fract_y
_atom_site_fract_z
Si Si1 0.863776 0.044440 0.073538
Si Si2 0.918554 0.605945 0.760713
Si Si3 0.143215 0.623061 0.180428
Si Si4 0.966798 0.469533 0.120427
Si Si5 0.612828 0.810924 0.333907
Si Si6 0.321388 0.078069 0.557399
Si Si7 0.025710 0.928612 0.801979
O O1 0.710464 0.977789 0.084431
O O2 0.879095 0.092296 0.136480
O O3 0.823139 0.095465 0.013595
O O4 0.049024 0.000165 0.065542
O O5 0.042962 0.585152 0.818101
O O6 0.749684 0.633401 0.796499
O O7 0.919050 0.520010 0.722385
O O8 0.955147 0.677366 0.711736
O O9 0.020002 0.562412 0.142946
O O10 0.165777 0.715881 0.156920
O O11 0.323867 0.575660 0.186086
O O12 0.069821 0.631530 0.247542
O O13 0.128026 0.439363 0.080344
O O14 0.598764 0.852965 0.398725
#
# Coordination Sequence:
#
# PCOD9459179 Si02
#       7
#     8   8   8   8   8   8   8
#     4  11  20  36  65  83 112 157 205 247 286 345
#     4  10  19  33  58  82 111 150 195 250 292 344
#     4  11  22  35  58  86 123 154 186 253 311 357
#     4  10  20  38  60  87 113 153 203 247 296 350
#     4  11  21  37  55  88 123 150 190 252 307 346
#     4  10  22  38  59  88 117 153 205 249 283 354
#     4  11  19  37  57  88 114 154 203 238 297 365
#
# _framework density 20.158078
#
# number of rings (size 3 to 8) (size 9 to 14) (size 15 to 20)
#    0.000    1.429    2.857    5.571    0.000    0.000 
#    0.000    1.429    0.000    0.000    0.000    0.000 
#    0.000    0.000    0.000    0.000    0.000    0.000 
#
# Total GULP energy -312304.644011 kJ/mol
# GULP energy per Si atom -5576.868643 kJ/mol
# Density = 2.011220 g / cm^3
# Si number density = 20.158078 Si / 1000 Ang^3
#
#
#
# Elastic Constant Matrix: (Units=GPa)
#
#
# Indices 1 2 3 4 5 6 
#
# 1 62.1336 -22.7729 0.6425 0.0000 0.0000 0.0000
# 2 -22.7729 53.5546 4.2061 0.0000 0.0000 0.0000
# 3 0.6425 4.2061 74.2494 0.0000 0.0000 0.0000
# 4 0.0000 0.0000 0.0000 14.8657 0.0000 0.0000
# 5 0.0000 0.0000 0.0000 0.0000 25.2882 0.0000
# 6 0.0000 0.0000 0.0000 0.0000 0.0000 10.4550
#
#
#
# Elastic Compliance Matrix: (Units=1/GPa)
#
#
# Indices 1 2 3 4 5 6 
#
# 1 0.019095 0.008169 -0.000628 0.000000 0.000000 0.000000
# 2 0.008169 0.022251 -0.001331 0.000000 0.000000 0.000000
# 3 -0.000628 -0.001331 0.013549 0.000000 0.000000 0.000000
# 4 0.000000 0.000000 0.000000 0.067269 0.000000 0.000000
# 5 0.000000 0.000000 0.000000 0.000000 0.039544 0.000000
# 6 0.000000 0.000000 0.000000 0.000000 0.000000 0.095648
#
#
# Mechanical properties :
#
#
# Convention : Reuss Voigt Hill
#
# Bulk Modulus (GPa) = 14.85567 17.12100 15.98833
# Shear Modulus (GPa) = 18.70039 23.97925 21.33982
#
# Velocity S-wave (km/s) = 3.04910 3.45274 3.25718
# Velocity P-wave (km/s) = 4.44765 4.94035 4.70046
#
# Compressibility (1/GPa) = 0.06731436
#
# Stress axis : x y z
#
# Youngs Moduli (GPa) = 52.36998 44.94230 73.80640
#
# Poissons Ratio (x) = -0.36713 0.04635
# Poissons Ratio (y) = -0.42781 0.09825
# Poissons Ratio (z) = 0.03289 0.05982
#
# Static dielectric constant tensor:
#      x y z
#    x 1.799430 0.000000 0.000000 
#    y 0.000000 1.710830 0.000000 
#    z 0.000000 0.000000 1.751280 
# 
# From -- ./inp_files/3664.got.cif
#   From: 2010.05.17/outbox.cif.g08.bks.cpg/sg61_2_cif.got.tgz:3664.got - 2010.06.03 15:17:17.
