data_PCOD9459982
_publ_section_title
;
Structure prediction by ZEFSAII (Michael W. Deem and Ramdas Pophale) SiO2 
 PCOD9459982
Probable space group: P B C A
;
_chemical_formula_sum "Si O2"
_cell_formula_units_Z 64
_cell_length_a 8.568674
_cell_length_b 16.971175
_cell_length_c 20.455988
_cell_angle_alpha 90.000000
_cell_angle_beta 90.000000
_cell_angle_gamma 90.000000
_cell_volume 2974.719307
_symmetry_space_group_name_H-M "P B C A"
_symmetry_group_IT_number 61
_symmetry_cell_setting 'orthorhombic'
loop_
_space_group_symop_operation_xyz
x,y,z
1/2-x,-y,1/2+z
1/2+x,1/2-y,-z
-x,1/2+y,1/2-z
-x,-y,-z
1/2+x,y,1/2-z
1/2-x,1/2+y,z
x,1/2-y,1/2+z
loop_
_atom_site_type_symbol
_atom_site_label
_atom_site_fract_x
_atom_site_fract_y
_atom_site_fract_z
Si Si1 0.970421 0.249143 0.907325
Si Si2 0.432144 0.953184 0.725545
Si Si3 0.374923 0.771870 0.038104
Si Si4 0.909723 0.172220 0.135016
Si Si5 0.171151 0.066251 0.716361
Si Si6 0.039661 0.585991 0.906699
Si Si7 0.897470 0.587148 0.121279
Si Si8 0.217273 0.322719 0.328282
O O1 0.981828 0.341025 0.887312
O O2 0.039445 0.197279 0.848205
O O3 0.801945 0.227117 0.935923
O O4 0.099910 0.241275 0.964894
O O5 0.491628 0.878984 0.685820
O O6 0.391684 0.932374 0.800850
O O7 0.290143 0.999461 0.692716
O O8 0.565141 0.018825 0.732197
O O9 0.476444 0.715074 0.084543
O O10 0.458759 0.857675 0.040637
O O11 0.775827 0.117304 0.102945
O O12 0.810884 0.240849 0.169957
O O13 0.070665 0.096784 0.656773
O O14 0.239777 0.136587 0.758622
O O15 0.055720 0.492689 0.915808
O O16 0.204438 0.620832 0.882655
#
# Coordination Sequence:
#
# PCOD9459982 Si02
#       8
#     8   8   8   8   8   8   8   8
#     4  11  25  43  67  87 123 161 212 262 314 365
#     4  11  21  37  60  92 132 165 196 251 308 372
#     4  11  25  44  64  91 119 163 211 266 308 370
#     4  10  22  38  64  88 128 164 211 249 310 370
#     4  11  21  37  61  91 134 163 197 251 310 369
#     4  10  22  39  63  92 129 163 207 252 312 368
#     4  10  21  40  62  92 125 170 200 257 310 367
#     4  10  21  40  61  89 126 167 204 254 305 366
#
# _framework density 21.514634000000001
#
# number of rings (size 3 to 8) (size 9 to 14) (size 15 to 20)
#    0.000    1.500    3.750    2.250    5.250    5.500 
#    0.000    0.000    0.000    3.750    0.000    0.000 
#    0.000    0.000    0.000    0.000    0.000    0.000 
#
# Total GULP energy -357602.889242 kJ/mol
# GULP energy per Si atom -5587.545144 kJ/mol
# Density = 2.146567 g / cm^3
# Si number density = 21.514634 Si / 1000 Ang^3
#
#
#
# Elastic Constant Matrix: (Units=GPa)
#
#
# Indices 1 2 3 4 5 6 
#
# 1 85.8853 19.0927 9.3654 0.0000 0.0000 0.0000
# 2 19.0927 84.5185 18.4282 0.0000 0.0000 0.0000
# 3 9.3654 18.4282 46.9104 0.0000 0.0000 0.0000
# 4 0.0000 0.0000 0.0000 28.6795 0.0000 0.0000
# 5 0.0000 0.0000 0.0000 0.0000 26.8512 0.0000
# 6 0.0000 0.0000 0.0000 0.0000 0.0000 34.2889
#
#
#
# Elastic Compliance Matrix: (Units=1/GPa)
#
#
# Indices 1 2 3 4 5 6 
#
# 1 0.012355 -0.002464 -0.001499 0.000000 0.000000 0.000000
# 2 -0.002464 0.013432 -0.004784 0.000000 0.000000 0.000000
# 3 -0.001499 -0.004784 0.023496 0.000000 0.000000 0.000000
# 4 0.000000 0.000000 0.000000 0.034868 0.000000 0.000000
# 5 0.000000 0.000000 0.000000 0.000000 0.037242 0.000000
# 6 0.000000 0.000000 0.000000 0.000000 0.000000 0.029164
#
#
# Mechanical properties :
#
#
# Convention : Reuss Voigt Hill
#
# Bulk Modulus (GPa) = 31.45860 34.56519 33.01190
# Shear Modulus (GPa) = 27.98820 29.32578 28.65699
#
# Velocity S-wave (km/s) = 3.61070 3.69597 3.65358
# Velocity P-wave (km/s) = 5.66009 5.85785 5.75982
#
# Compressibility (1/GPa) = 0.03178781
#
# Stress axis : x y z
#
# Youngs Moduli (GPa) = 80.94121 74.45140 42.56060
#
# Poissons Ratio (x) = 0.18346 0.06378
# Poissons Ratio (y) = 0.19945 0.20363
# Poissons Ratio (z) = 0.12129 0.35621
#
# Static dielectric constant tensor:
#      x y z
#    x 1.833970 0.000000 0.000000 
#    y 0.000000 1.788120 0.000000 
#    z 0.000000 0.000000 1.791000 
# 
# From -- ./inp_files/10923.got.cif
#   From: 2010.05.17/outbox.cif.g08.bks.cpg/sg61_6_cif.got.tgz:10923.got - 2010.06.03 15:17:17.
