data_PCOD9459353
_publ_section_title
;
Structure prediction by ZEFSAII (Michael W. Deem and Ramdas Pophale) SiO2 
 PCOD9459353
Probable space group: P B C A
;
_chemical_formula_sum "Si O2"
_cell_formula_units_Z 48
_cell_length_a 13.157184
_cell_length_b 13.464385
_cell_length_c 11.521350
_cell_angle_alpha 90.000000
_cell_angle_beta 90.000000
_cell_angle_gamma 90.000000
_cell_volume 2041.046220
_symmetry_space_group_name_H-M "P B C A"
_symmetry_group_IT_number 61
_symmetry_cell_setting 'orthorhombic'
loop_
_space_group_symop_operation_xyz
x,y,z
1/2-x,-y,1/2+z
1/2+x,1/2-y,-z
-x,1/2+y,1/2-z
-x,-y,-z
1/2+x,y,1/2-z
1/2-x,1/2+y,z
x,1/2-y,1/2+z
loop_
_atom_site_type_symbol
_atom_site_label
_atom_site_fract_x
_atom_site_fract_y
_atom_site_fract_z
Si Si1 0.630145 0.588847 0.425704
Si Si2 0.846598 0.527449 0.527038
Si Si3 0.226152 0.636743 0.315545
Si Si4 0.181094 0.338450 0.266661
Si Si5 0.367999 0.476252 0.217748
Si Si6 0.021449 0.122273 0.606579
O O1 0.738368 0.576489 0.488785
O O2 0.653681 0.627610 0.297282
O O3 0.584023 0.477848 0.422698
O O4 0.547686 0.652295 0.497692
O O5 0.826488 0.417873 0.577961
O O6 0.876160 0.595642 0.636101
O O7 0.906049 0.513676 0.407056
O O8 0.262794 0.747947 0.327536
O O9 0.326490 0.571226 0.287745
O O10 0.266634 0.408321 0.207865
O O11 0.102495 0.305373 0.166582
O O12 0.443694 0.413973 0.295123
#
# Coordination Sequence:
#
# PCOD9459353 Si02
#       6
#     8   8   8   8   8   8
#     4  10  20  40  70  85 125 174 215 265 329 384
#     4  10  19  42  63  91 129 174 204 275 328 377
#     4  10  21  41  66  94 127 169 214 269 329 380
#     4  11  22  40  65  99 128 169 223 265 329 392
#     4  10  22  42  64  91 133 167 215 272 324 385
#     4  11  20  41  68  95 123 175 224 262 326 396
#
# _framework density 23.517351999999999
#
# number of rings (size 3 to 8) (size 9 to 14) (size 15 to 20)
#    0.000    1.667    8.333    0.000    0.000    3.333 
#    3.000    0.000    0.000    0.000    0.000    0.000 
#    0.000    0.000    0.000    0.000    0.000    0.000 
#
# Total GULP energy -268200.709049 kJ/mol
# GULP energy per Si atom -5587.514772 kJ/mol
# Density = 2.346383 g / cm^3
# Si number density = 23.517352 Si / 1000 Ang^3
#
#
#
# Elastic Constant Matrix: (Units=GPa)
#
#
# Indices 1 2 3 4 5 6 
#
# 1 41.1302 -11.7370 1.1765 0.0000 0.0000 0.0000
# 2 -11.7370 67.5321 -9.4940 0.0000 0.0000 0.0000
# 3 1.1765 -9.4940 77.4745 0.0000 0.0000 0.0000
# 4 0.0000 0.0000 0.0000 3.7539 0.0000 0.0000
# 5 0.0000 0.0000 0.0000 0.0000 30.0987 0.0000
# 6 0.0000 0.0000 0.0000 0.0000 0.0000 3.1358
#
#
#
# Elastic Compliance Matrix: (Units=1/GPa)
#
#
# Indices 1 2 3 4 5 6 
#
# 1 0.025584 0.004469 0.000159 0.000000 0.000000 0.000000
# 2 0.004469 0.015848 0.001874 0.000000 0.000000 0.000000
# 3 0.000159 0.001874 0.013135 0.000000 0.000000 0.000000
# 4 0.000000 0.000000 0.000000 0.266391 0.000000 0.000000
# 5 0.000000 0.000000 0.000000 0.000000 0.033224 0.000000
# 6 0.000000 0.000000 0.000000 0.000000 0.000000 0.318898
#
#
# Mechanical properties :
#
#
# Convention : Reuss Voigt Hill
#
# Bulk Modulus (GPa) = 14.79936 16.22533 15.51235
# Shear Modulus (GPa) = 7.32494 21.14377 14.23436
#
# Velocity S-wave (km/s) = 1.76677 3.00170 2.46289
# Velocity P-wave (km/s) = 3.23552 4.35062 3.83383
#
# Compressibility (1/GPa) = 0.06757048
#
# Stress axis : x y z
#
# Youngs Moduli (GPa) = 39.08741 63.09978 76.13407
#
# Poissons Ratio (x) = -0.28198 -0.01211
# Poissons Ratio (y) = -0.17467 -0.14269
# Poissons Ratio (z) = -0.00622 -0.11826
#
# Static dielectric constant tensor:
#      x y z
#    x 1.921730 0.000000 0.000000 
#    y 0.000000 1.885120 0.000000 
#    z 0.000000 0.000000 1.937690 
# 
# From -- ./inp_files/5719.got.cif
#   From: 2010.05.17/outbox.cif.g08.bks.cpg/sg61_3_cif.got.tgz:5719.got - 2010.06.03 15:17:17.
