data_PCOD9459542
_publ_section_title
;
Structure prediction by ZEFSAII (Michael W. Deem and Ramdas Pophale) SiO2 
 PCOD9459542
Probable space group: P B C A
;
_chemical_formula_sum "Si O2"
_cell_formula_units_Z 56
_cell_length_a 14.887615
_cell_length_b 16.618257
_cell_length_c 9.819388
_cell_angle_alpha 90.000000
_cell_angle_beta 90.000000
_cell_angle_gamma 90.000000
_cell_volume 2429.377591
_symmetry_space_group_name_H-M "P B C A"
_symmetry_group_IT_number 61
_symmetry_cell_setting 'orthorhombic'
loop_
_space_group_symop_operation_xyz
x,y,z
1/2-x,-y,1/2+z
1/2+x,1/2-y,-z
-x,1/2+y,1/2-z
-x,-y,-z
1/2+x,y,1/2-z
1/2-x,1/2+y,z
x,1/2-y,1/2+z
loop_
_atom_site_type_symbol
_atom_site_label
_atom_site_fract_x
_atom_site_fract_y
_atom_site_fract_z
Si Si1 0.109304 0.915164 0.249750
Si Si2 0.627744 0.473824 0.114357
Si Si3 0.109069 0.726758 0.949508
Si Si4 0.309779 0.937406 0.863311
Si Si5 0.269111 0.205243 0.213316
Si Si6 0.189279 0.365524 0.149576
Si Si7 0.492341 0.114829 0.471218
O O1 0.085771 0.854478 0.371076
O O2 0.207859 0.891837 0.188134
O O3 0.046036 0.903283 0.122108
O O4 0.113882 0.004364 0.308404
O O5 0.728318 0.504630 0.089069
O O6 0.630798 0.419412 0.249009
O O7 0.592132 0.418401 0.990714
O O8 0.566467 0.554341 0.121609
O O9 0.154975 0.710335 0.095568
O O10 0.029122 0.792073 0.948803
O O11 0.185301 0.767686 0.855083
O O12 0.270445 0.881607 0.744533
O O13 0.333970 0.884975 0.994527
O O14 0.192438 0.270471 0.178091
#
# Coordination Sequence:
#
# PCOD9459542 Si02
#       7
#     8   8   8   8   8   8   8
#     4  10  22  34  63  89 125 161 210 271 310 381
#     4  10  22  36  67  85 128 165 205 271 319 384
#     4  11  20  36  62  90 121 166 213 258 315 387
#     4  11  21  38  64  98 121 164 219 271 323 375
#     4  11  19  36  64  90 123 162 214 266 321 377
#     4  10  20  38  56  94 125 155 213 267 314 378
#     4  11  20  42  59  94 123 172 221 251 326 407
#
# _framework density 23.051172000000001
#
# number of rings (size 3 to 8) (size 9 to 14) (size 15 to 20)
#    0.000    1.429    7.143    0.000    4.000    1.143 
#    0.000    2.143    6.286    0.000    0.000    0.000 
#    0.000    0.000    0.000    0.000    0.000    0.000 
#
# Total GULP energy -313073.131708 kJ/mol
# GULP energy per Si atom -5590.591638 kJ/mol
# Density = 2.299871 g / cm^3
# Si number density = 23.051172 Si / 1000 Ang^3
#
#
#
# Elastic Constant Matrix: (Units=GPa)
#
#
# Indices 1 2 3 4 5 6 
#
# 1 42.2933 19.0868 27.8876 0.0000 0.0000 0.0000
# 2 19.0868 119.6915 28.3193 0.0000 0.0000 0.0000
# 3 27.8876 28.3193 74.4021 0.0000 0.0000 0.0000
# 4 0.0000 0.0000 0.0000 37.8010 0.0000 0.0000
# 5 0.0000 0.0000 0.0000 0.0000 22.4308 0.0000
# 6 0.0000 0.0000 0.0000 0.0000 0.0000 27.6909
#
#
#
# Elastic Compliance Matrix: (Units=1/GPa)
#
#
# Indices 1 2 3 4 5 6 
#
# 1 0.032070 -0.002495 -0.011071 0.000000 0.000000 0.000000
# 2 -0.002495 0.009376 -0.002634 0.000000 0.000000 0.000000
# 3 -0.011071 -0.002634 0.018593 0.000000 0.000000 0.000000
# 4 0.000000 0.000000 0.000000 0.026454 0.000000 0.000000
# 5 0.000000 0.000000 0.000000 0.000000 0.044581 0.000000
# 6 0.000000 0.000000 0.000000 0.000000 0.000000 0.036113
#
#
# Mechanical properties :
#
#
# Convention : Reuss Voigt Hill
#
# Bulk Modulus (GPa) = 36.17962 42.99716 39.58839
# Shear Modulus (GPa) = 23.94640 28.32409 26.13524
#
# Velocity S-wave (km/s) = 3.22660 3.50915 3.37084
# Velocity P-wave (km/s) = 5.44157 5.92556 5.68871
#
# Compressibility (1/GPa) = 0.02763987
#
# Stress axis : x y z
#
# Youngs Moduli (GPa) = 31.18141 106.65823 53.78483
#
# Poissons Ratio (x) = 0.26608 0.59546
# Poissons Ratio (y) = 0.07779 0.14165
# Poissons Ratio (z) = 0.34521 0.28089
#
# Static dielectric constant tensor:
#      x y z
#    x 1.944290 0.000000 0.000000 
#    y 0.000000 1.897390 0.000000 
#    z 0.000000 0.000000 1.827390 
# 
# From -- ./inp_files/4033.got.cif
#   From: 2010.05.17/outbox.cif.g08.bks.cpg/sg61_3_cif.got.tgz:4033.got - 2010.06.03 15:17:17.
