data_PCOD9459383
_publ_section_title
;
Structure prediction by ZEFSAII (Michael W. Deem and Ramdas Pophale) SiO2 
 PCOD9459383
Probable space group: P B C A
;
_chemical_formula_sum "Si O2"
_cell_formula_units_Z 56
_cell_length_a 21.184285
_cell_length_b 5.288651
_cell_length_c 21.683202
_cell_angle_alpha 90.000000
_cell_angle_beta 90.000000
_cell_angle_gamma 90.000000
_cell_volume 2429.305508
_symmetry_space_group_name_H-M "P B C A"
_symmetry_group_IT_number 61
_symmetry_cell_setting 'orthorhombic'
loop_
_space_group_symop_operation_xyz
x,y,z
1/2-x,-y,1/2+z
1/2+x,1/2-y,-z
-x,1/2+y,1/2-z
-x,-y,-z
1/2+x,y,1/2-z
1/2-x,1/2+y,z
x,1/2-y,1/2+z
loop_
_atom_site_type_symbol
_atom_site_label
_atom_site_fract_x
_atom_site_fract_y
_atom_site_fract_z
Si Si1 0.548389 0.767669 0.560736
Si Si2 0.415955 0.477545 0.064844
Si Si3 0.107523 0.186144 0.742317
Si Si4 0.225949 0.003545 0.675358
Si Si5 0.945583 0.308135 0.308875
Si Si6 0.274569 0.931591 0.535634
Si Si7 0.917829 0.739593 0.130308
O O1 0.558907 0.786526 0.487644
O O2 0.473533 0.821512 0.573403
O O3 0.575672 0.515513 0.591164
O O4 0.584167 0.013396 0.587907
O O5 0.405780 0.322624 0.127617
O O6 0.349241 0.593587 0.045193
O O7 0.162591 0.150199 0.692292
O O8 0.065470 0.420064 0.720812
O O9 0.129818 0.243734 0.812015
O O10 0.073560 0.915423 0.736605
O O11 0.274746 0.217062 0.700849
O O12 0.240831 0.965577 0.603011
O O13 0.015511 0.264127 0.333728
O O14 0.257103 0.193682 0.503438
#
# Coordination Sequence:
#
# PCOD9459383 Si02
#       7
#     8   8   8   8   8   8   8
#     4  10  24  40  62  89 122 172 211 252 313 374
#     4  10  22  40  64  92 128 160 210 269 317 375
#     4  12  22  37  59  86 124 158 192 249 307 365
#     4  10  20  34  53  82 112 146 191 239 303 362
#     4  11  21  34  59  90 118 153 194 248 311 357
#     4  10  20  34  56  88 121 152 193 254 322 370
#     4  11  23  39  57  86 123 162 205 238 293 381
#
# _framework density 23.051855
#
# number of rings (size 3 to 8) (size 9 to 14) (size 15 to 20)
#    0.000    1.429    0.000    7.714    0.000    9.714 
#    0.000    0.000    0.000    5.143    0.000    0.000 
#    0.000    0.000    0.000    0.000    0.000    0.000 
#
# Total GULP energy -312752.496740 kJ/mol
# GULP energy per Si atom -5584.866013 kJ/mol
# Density = 2.299939 g / cm^3
# Si number density = 23.051855 Si / 1000 Ang^3
#
#
#
# Elastic Constant Matrix: (Units=GPa)
#
#
# Indices 1 2 3 4 5 6 
#
# 1 47.7070 -5.1810 0.3490 0.0000 0.0000 0.0000
# 2 -5.1810 158.9930 27.0057 0.0000 0.0000 0.0000
# 3 0.3490 27.0057 71.4927 0.0000 0.0000 0.0000
# 4 0.0000 0.0000 0.0000 32.2542 0.0000 0.0000
# 5 0.0000 0.0000 0.0000 0.0000 20.0984 0.0000
# 6 0.0000 0.0000 0.0000 0.0000 0.0000 1.0783
#
#
#
# Elastic Compliance Matrix: (Units=1/GPa)
#
#
# Indices 1 2 3 4 5 6 
#
# 1 0.021046 0.000751 -0.000387 0.000000 0.000000 0.000000
# 2 0.000751 0.006748 -0.002553 0.000000 0.000000 0.000000
# 3 -0.000387 -0.002553 0.014954 0.000000 0.000000 0.000000
# 4 0.000000 0.000000 0.000000 0.031004 0.000000 0.000000
# 5 0.000000 0.000000 0.000000 0.000000 0.049755 0.000000
# 6 0.000000 0.000000 0.000000 0.000000 0.000000 0.927414
#
#
# Mechanical properties :
#
#
# Convention : Reuss Voigt Hill
#
# Bulk Modulus (GPa) = 26.06097 35.83778 30.94937
# Shear Modulus (GPa) = 4.68127 27.75410 16.21769
#
# Velocity S-wave (km/s) = 1.42659 3.47361 2.65529
# Velocity P-wave (km/s) = 3.74746 5.62746 4.78078
#
# Compressibility (1/GPa) = 0.03837156
#
# Stress axis : x y z
#
# Youngs Moduli (GPa) = 47.51561 148.20021 66.87386
#
# Poissons Ratio (x) = -0.11137 0.02585
# Poissons Ratio (y) = -0.03571 0.17070
# Poissons Ratio (z) = 0.01837 0.37828
#
# Static dielectric constant tensor:
#      x y z
#    x 1.987130 0.000000 0.000000 
#    y 0.000000 1.947430 0.000000 
#    z 0.000000 0.000000 1.859080 
# 
# From -- ./inp_files/11171.got.cif
#   From: 2010.05.17/outbox.cif.g08.bks.cpg/sg61_6_cif.got.tgz:11171.got - 2010.06.03 15:17:17.
