data_PCOD9459299
_publ_section_title
;
Structure prediction by ZEFSAII (Michael W. Deem and Ramdas Pophale) SiO2 
 PCOD9459299
Probable space group: P B C A
;
_chemical_formula_sum "Si O2"
_cell_formula_units_Z 64
_cell_length_a 22.897530
_cell_length_b 8.681485
_cell_length_c 13.636432
_cell_angle_alpha 90.000000
_cell_angle_beta 90.000000
_cell_angle_gamma 90.000000
_cell_volume 2710.712179
_symmetry_space_group_name_H-M "P B C A"
_symmetry_group_IT_number 61
_symmetry_cell_setting 'orthorhombic'
loop_
_space_group_symop_operation_xyz
x,y,z
1/2-x,-y,1/2+z
1/2+x,1/2-y,-z
-x,1/2+y,1/2-z
-x,-y,-z
1/2+x,y,1/2-z
1/2-x,1/2+y,z
x,1/2-y,1/2+z
loop_
_atom_site_type_symbol
_atom_site_label
_atom_site_fract_x
_atom_site_fract_y
_atom_site_fract_z
Si Si1 0.592259 0.883250 0.034367
Si Si2 0.883192 0.194312 0.843895
Si Si3 0.856278 0.687318 0.928888
Si Si4 0.488159 0.917408 0.344644
Si Si5 0.701442 0.299262 0.114831
Si Si6 0.626840 0.024195 0.746891
Si Si7 0.317336 0.457907 0.304997
Si Si8 0.978509 0.777660 0.951377
O O1 0.628462 0.890827 0.133391
O O2 0.523979 0.862195 0.057868
O O3 0.611259 0.747983 0.957695
O O4 0.611337 0.040965 0.980698
O O5 0.871741 0.351164 0.783399
O O6 0.832514 0.079210 0.807943
O O7 0.946550 0.127055 0.816180
O O8 0.836069 0.621932 0.825584
O O9 0.912947 0.791443 0.911351
O O10 0.808507 0.757358 0.000816
O O11 0.440473 0.921673 0.259481
O O12 0.471446 0.800760 0.431671
O O13 0.487952 0.082555 0.398139
O O14 0.654262 0.429907 0.143596
O O15 0.762229 0.369002 0.149727
O O16 0.689325 0.138141 0.170800
#
# Coordination Sequence:
#
# PCOD9459299 Si02
#       8
#     8   8   8   8   8   8   8   8
#     4   9  21  40  63  93 128 171 213 266 326 389
#     4  10  23  41  61  96 131 168 217 265 323 389
#     4  10  22  39  64  93 131 171 215 270 327 390
#     4  10  22  35  61  97 133 168 214 261 322 389
#     4  11  25  46  64  95 122 167 225 268 333 392
#     4  11  23  40  64  94 135 171 213 272 322 393
#     4  11  24  43  68  87 125 170 215 274 328 387
#     4  10  19  38  60  95 134 170 212 263 320 391
#
# _framework density 23.610032
#
# number of rings (size 3 to 8) (size 9 to 14) (size 15 to 20)
#    0.000    1.750    1.250    1.875    5.250    1.000 
#    2.250    2.500    0.000    0.000    0.000    0.000 
#    0.000    0.000    0.000    0.000    0.000    0.000 
#
# Total GULP energy -357489.441312 kJ/mol
# GULP energy per Si atom -5585.772520 kJ/mol
# Density = 2.355629 g / cm^3
# Si number density = 23.610032 Si / 1000 Ang^3
#
#
#
# Elastic Constant Matrix: (Units=GPa)
#
#
# Indices 1 2 3 4 5 6 
#
# 1 52.4651 14.9812 -4.0181 0.0000 0.0000 0.0000
# 2 14.9812 60.7477 25.4296 0.0000 0.0000 0.0000
# 3 -4.0181 25.4296 61.8567 0.0000 0.0000 0.0000
# 4 0.0000 0.0000 0.0000 12.6682 0.0000 0.0000
# 5 0.0000 0.0000 0.0000 0.0000 33.5742 0.0000
# 6 0.0000 0.0000 0.0000 0.0000 0.0000 33.4486
#
#
#
# Elastic Compliance Matrix: (Units=1/GPa)
#
#
# Indices 1 2 3 4 5 6 
#
# 1 0.021412 -0.007081 0.004302 0.000000 0.000000 0.000000
# 2 -0.007081 0.022225 -0.009597 0.000000 0.000000 0.000000
# 3 0.004302 -0.009597 0.020391 0.000000 0.000000 0.000000
# 4 0.000000 0.000000 0.000000 0.078938 0.000000 0.000000
# 5 0.000000 0.000000 0.000000 0.000000 0.029785 0.000000
# 6 0.000000 0.000000 0.000000 0.000000 0.000000 0.029897
#
#
# Mechanical properties :
#
#
# Convention : Reuss Voigt Hill
#
# Bulk Modulus (GPa) = 25.46090 27.53942 26.50016
# Shear Modulus (GPa) = 20.79073 25.18332 22.98703
#
# Velocity S-wave (km/s) = 2.97069 3.26948 3.12366
# Velocity P-wave (km/s) = 4.75121 5.09336 4.92526
#
# Compressibility (1/GPa) = 0.03927590
#
# Stress axis : x y z
#
# Youngs Moduli (GPa) = 46.70316 44.99397 49.04086
#
# Poissons Ratio (x) = 0.31862 -0.21098
# Poissons Ratio (y) = 0.33072 0.47064
# Poissons Ratio (z) = -0.20092 0.43180
#
# Static dielectric constant tensor:
#      x y z
#    x 1.930890 0.000000 0.000000 
#    y 0.000000 1.933720 0.000000 
#    z 0.000000 0.000000 1.927910 
# 
# From -- ./inp_files/8527.got.cif
#   From: 2010.05.17/outbox.cif.g08.bks.cpg/sg61_5_cif.got.tgz:8527.got - 2010.06.03 15:17:17.
