data_PCOD9459526
_publ_section_title
;
Structure prediction by ZEFSAII (Michael W. Deem and Ramdas Pophale) SiO2 
 PCOD9459526
Probable space group: P B C A
;
_chemical_formula_sum "Si O2"
_cell_formula_units_Z 56
_cell_length_a 15.435206
_cell_length_b 20.066292
_cell_length_c 9.053482
_cell_angle_alpha 90.000000
_cell_angle_beta 90.000000
_cell_angle_gamma 90.000000
_cell_volume 2804.110994
_symmetry_space_group_name_H-M "P B C A"
_symmetry_group_IT_number 61
_symmetry_cell_setting 'orthorhombic'
loop_
_space_group_symop_operation_xyz
x,y,z
1/2-x,-y,1/2+z
1/2+x,1/2-y,-z
-x,1/2+y,1/2-z
-x,-y,-z
1/2+x,y,1/2-z
1/2-x,1/2+y,z
x,1/2-y,1/2+z
loop_
_atom_site_type_symbol
_atom_site_label
_atom_site_fract_x
_atom_site_fract_y
_atom_site_fract_z
Si Si1 0.616046 0.063527 0.919322
Si Si2 0.389169 0.335481 0.768611
Si Si3 0.319333 0.267717 0.486695
Si Si4 0.347843 0.471610 0.148202
Si Si5 0.751476 0.659408 0.791103
Si Si6 0.499568 0.050296 0.190674
Si Si7 0.224301 0.545852 0.357498
O O1 0.656874 0.121371 0.816781
O O2 0.583775 0.996741 0.837353
O O3 0.535602 0.075240 0.031644
O O4 0.693603 0.052955 0.034454
O O5 0.374109 0.310564 0.602714
O O6 0.471106 0.384139 0.778580
O O7 0.307664 0.382654 0.806084
O O8 0.383072 0.275409 0.882899
O O9 0.262068 0.217951 0.588584
O O10 0.262586 0.311207 0.372402
O O11 0.327259 0.393698 0.178967
O O12 0.430541 0.504261 0.225892
O O13 0.264054 0.505299 0.223729
O O14 0.346058 0.483394 0.972459
#
# Coordination Sequence:
#
# PCOD9459526 Si02
#       7
#     8   8   8   8   8   8   8
#     4   9  19  39  61  95 122 156 191 264 318 361
#     4  11  21  41  60  91 121 162 210 253 305 377
#     4  10  23  37  66  83 119 170 214 249 291 365
#     4  10  21  37  65  95 119 160 200 264 315 364
#     4  10  20  41  62  89 116 162 219 246 292 374
#     4  10  22  36  65  96 132 156 192 266 336 358
#     4  10  20  37  63  90 119 152 211 253 302 364
#
# _framework density 19.970679000000001
#
# number of rings (size 3 to 8) (size 9 to 14) (size 15 to 20)
#    0.000    2.000    2.857    1.714    8.000    0.571 
#    0.000    1.429    0.000    0.000    0.000    0.000 
#    0.000    0.000    0.000    0.000    0.000    0.000 
#
# Total GULP energy -311999.495119 kJ/mol
# GULP energy per Si atom -5571.419556 kJ/mol
# Density = 1.992523 g / cm^3
# Si number density = 19.970679 Si / 1000 Ang^3
#
#
#
# Elastic Constant Matrix: (Units=GPa)
#
#
# Indices 1 2 3 4 5 6 
#
# 1 74.8016 44.8246 22.9650 0.0000 0.0000 0.0000
# 2 44.8246 84.5727 54.3704 0.0000 0.0000 0.0000
# 3 22.9650 54.3704 126.3515 0.0000 0.0000 0.0000
# 4 0.0000 0.0000 0.0000 44.0364 0.0000 0.0000
# 5 0.0000 0.0000 0.0000 0.0000 28.1869 0.0000
# 6 0.0000 0.0000 0.0000 0.0000 0.0000 22.2027
#
#
#
# Elastic Compliance Matrix: (Units=1/GPa)
#
#
# Indices 1 2 3 4 5 6 
#
# 1 0.019736 -0.011273 0.001264 0.000000 0.000000 0.000000
# 2 -0.011273 0.022785 -0.007756 0.000000 0.000000 0.000000
# 3 0.001264 -0.007756 0.011022 0.000000 0.000000 0.000000
# 4 0.000000 0.000000 0.000000 0.022708 0.000000 0.000000
# 5 0.000000 0.000000 0.000000 0.000000 0.035477 0.000000
# 6 0.000000 0.000000 0.000000 0.000000 0.000000 0.045040
#
#
# Mechanical properties :
#
#
# Convention : Reuss Voigt Hill
#
# Bulk Modulus (GPa) = 55.51425 58.89401 57.20413
# Shear Modulus (GPa) = 25.21406 29.78958 27.50182
#
# Velocity S-wave (km/s) = 3.55710 3.86640 3.71497
# Velocity P-wave (km/s) = 6.68796 7.03465 6.86350
#
# Compressibility (1/GPa) = 0.01801339
#
# Stress axis : x y z
#
# Youngs Moduli (GPa) = 50.66930 43.88890 90.72673
#
# Poissons Ratio (x) = 0.49474 -0.11465
# Poissons Ratio (y) = 0.57118 0.70365
# Poissons Ratio (z) = -0.06403 0.34039
#
# Static dielectric constant tensor:
#      x y z
#    x 1.739110 0.000000 0.000000 
#    y 0.000000 1.734440 0.000000 
#    z 0.000000 0.000000 1.766030 
# 
# From -- ./inp_files/3034.got.cif
#   From: 2010.05.17/outbox.cif.g08.bks.cpg/sg61_2_cif.got.tgz:3034.got - 2010.06.03 15:17:17.
