data_PCOD9459205
_publ_section_title
;
Structure prediction by ZEFSAII (Michael W. Deem and Ramdas Pophale) SiO2 
 PCOD9459205
Probable space group: P B C A
;
_chemical_formula_sum "Si O2"
_cell_formula_units_Z 48
_cell_length_a 8.222179
_cell_length_b 26.966846
_cell_length_c 7.951355
_cell_angle_alpha 90.000000
_cell_angle_beta 90.000000
_cell_angle_gamma 90.000000
_cell_volume 1763.024006
_symmetry_space_group_name_H-M "P B C A"
_symmetry_group_IT_number 61
_symmetry_cell_setting 'orthorhombic'
loop_
_space_group_symop_operation_xyz
x,y,z
1/2-x,-y,1/2+z
1/2+x,1/2-y,-z
-x,1/2+y,1/2-z
-x,-y,-z
1/2+x,y,1/2-z
1/2-x,1/2+y,z
x,1/2-y,1/2+z
loop_
_atom_site_type_symbol
_atom_site_label
_atom_site_fract_x
_atom_site_fract_y
_atom_site_fract_z
Si Si1 0.235393 0.858868 0.283323
Si Si2 0.597192 0.061919 0.561047
Si Si3 0.299804 0.254849 0.420515
Si Si4 0.941849 0.896597 0.509554
Si Si5 0.737715 0.019398 0.911091
Si Si6 0.991694 0.195172 0.302229
O O1 0.378624 0.879937 0.405632
O O2 0.206605 0.800792 0.289342
O O3 0.289901 0.873594 0.096239
O O4 0.085786 0.886775 0.374651
O O5 0.670517 0.035320 0.729603
O O6 0.412883 0.044261 0.546560
O O7 0.717801 0.038330 0.423172
O O8 0.140226 0.222576 0.393805
O O9 0.336411 0.286399 0.587662
O O10 0.448452 0.217895 0.376618
O O11 0.894134 0.953782 0.532452
O O12 0.981422 0.863156 0.670483
#
# Coordination Sequence:
#
# PCOD9459205 Si02
#       6
#     8   8   8   8   8   8
#     4  10  19  34  59  84 111 153 200 236 291 362
#     4  10  21  37  61  87 117 156 200 250 297 357
#     4  11  22  39  59  87 117 155 200 247 300 360
#     4  10  20  35  58  85 115 154 197 246 297 358
#     4  10  21  38  58  87 118 152 199 246 300 357
#     4  11  23  39  61  86 120 156 198 248 303 362
#
# _framework density 27.225949
#
# number of rings (size 3 to 8) (size 9 to 14) (size 15 to 20)
#    0.000    1.667    0.000    8.000    0.000    4.000 
#    0.000    8.333    0.000    0.000    0.000    0.000 
#    0.000    0.000    0.000    0.000    0.000    0.000 
#
# Total GULP energy -268228.041753 kJ/mol
# GULP energy per Si atom -5588.084203 kJ/mol
# Density = 2.716398 g / cm^3
# Si number density = 27.225949 Si / 1000 Ang^3
#
#
#
# Elastic Constant Matrix: (Units=GPa)
#
#
# Indices 1 2 3 4 5 6 
#
# 1 108.0705 11.7176 -15.6112 0.0000 0.0000 0.0000
# 2 11.7176 121.2228 1.9496 0.0000 0.0000 0.0000
# 3 -15.6112 1.9496 46.4925 0.0000 0.0000 0.0000
# 4 0.0000 0.0000 0.0000 41.9191 0.0000 0.0000
# 5 0.0000 0.0000 0.0000 0.0000 27.7127 0.0000
# 6 0.0000 0.0000 0.0000 0.0000 0.0000 34.4520
#
#
#
# Elastic Compliance Matrix: (Units=1/GPa)
#
#
# Indices 1 2 3 4 5 6 
#
# 1 0.009846 -0.001006 0.003348 0.000000 0.000000 0.000000
# 2 -0.001006 0.008358 -0.000688 0.000000 0.000000 0.000000
# 3 0.003348 -0.000688 0.022662 0.000000 0.000000 0.000000
# 4 0.000000 0.000000 0.000000 0.023855 0.000000 0.000000
# 5 0.000000 0.000000 0.000000 0.000000 0.036085 0.000000
# 6 0.000000 0.000000 0.000000 0.000000 0.000000 0.029026
#
#
# Mechanical properties :
#
#
# Convention : Reuss Voigt Hill
#
# Bulk Modulus (GPa) = 22.63750 30.21085 26.42417
# Shear Modulus (GPa) = 35.39897 39.33208 37.36553
#
# Velocity S-wave (km/s) = 3.60973 3.80498 3.70864
# Velocity P-wave (km/s) = 5.07013 5.51582 5.29767
#
# Compressibility (1/GPa) = 0.04417449
#
# Stress axis : x y z
#
# Youngs Moduli (GPa) = 101.56502 119.65242 44.12683
#
# Poissons Ratio (x) = 0.12032 -0.14775
# Poissons Ratio (y) = 0.10213 0.03036
# Poissons Ratio (z) = -0.34006 0.08233
#
# Static dielectric constant tensor:
#      x y z
#    x 2.184090 0.000000 0.000000 
#    y 0.000000 2.200660 0.000000 
#    z 0.000000 0.000000 2.256650 
# 
# From -- ./inp_files/1887.got.cif
#   From: 2010.05.17/outbox.cif.g08.bks.cpg/sg61_1_cif.got.tgz:1887.got - 2010.06.03 15:17:17.
