data_PCOD9459541
_publ_section_title
;
Structure prediction by ZEFSAII (Michael W. Deem and Ramdas Pophale) SiO2 
 PCOD9459541
Probable space group: P B C A
;
_chemical_formula_sum "Si O2"
_cell_formula_units_Z 64
_cell_length_a 28.911622
_cell_length_b 12.478502
_cell_length_c 8.988080
_cell_angle_alpha 90.000000
_cell_angle_beta 90.000000
_cell_angle_gamma 90.000000
_cell_volume 3242.663174
_symmetry_space_group_name_H-M "P B C A"
_symmetry_group_IT_number 61
_symmetry_cell_setting 'orthorhombic'
loop_
_space_group_symop_operation_xyz
x,y,z
1/2-x,-y,1/2+z
1/2+x,1/2-y,-z
-x,1/2+y,1/2-z
-x,-y,-z
1/2+x,y,1/2-z
1/2-x,1/2+y,z
x,1/2-y,1/2+z
loop_
_atom_site_type_symbol
_atom_site_label
_atom_site_fract_x
_atom_site_fract_y
_atom_site_fract_z
Si Si1 0.413463 0.909422 0.189457
Si Si2 0.990220 0.028320 0.831176
Si Si3 0.393101 0.153554 0.235585
Si Si4 0.523446 0.110432 0.063163
Si Si5 0.292954 0.371128 0.826119
Si Si6 0.555346 0.788230 0.473311
Si Si7 0.764134 0.745803 0.423347
Si Si8 0.182660 0.376624 0.326603
O O1 0.463030 0.915509 0.271662
O O2 0.371416 0.859560 0.282559
O O3 0.397236 0.032191 0.180714
O O4 0.428827 0.870404 0.025273
O O5 0.951696 0.118826 0.850909
O O6 0.974040 0.926359 0.734764
O O7 0.000000 0.000000 0.000000
O O8 0.344016 0.176652 0.306327
O O9 0.402174 0.222435 0.090882
O O10 0.432228 0.170838 0.362588
O O11 0.488688 0.208477 0.033350
O O12 0.500000 0.000000 0.000000
O O13 0.264508 0.338589 0.677648
O O14 0.302285 0.498557 0.841554
O O15 0.267624 0.315668 0.965194
O O16 0.788832 0.825457 0.308912
O O17 0.801519 0.684223 0.524818
#
# Coordination Sequence:
#
# PCOD9459541 Si02
#       8
#     8   8   8   8   8   8   8   8
#     4  10  21  39  54  82 118 154 196 244 289 338
#     4  11  21  37  57  85 119 158 201 244 291 346
#     4  11  21  34  57  86 113 149 198 251 294 342
#     4  10  20  38  56  78 120 160 195 238 295 348
#     4  10  21  39  63  91 121 151 197 256 305 361
#     4  12  21  35  59  82 115 162 194 243 298 346
#     4  10  21  41  63  91 118 160 200 232 317 376
#     4  10  22  39  66  85 125 158 194 257 290 363
#
# _framework density 19.736861999999999
#
# number of rings (size 3 to 8) (size 9 to 14) (size 15 to 20)
#    0.000    1.500    3.750    3.000    0.000    1.000 
#    0.000    2.500    2.750    0.000    0.000    0.000 
#    0.000    0.000    0.000    0.000    0.000    0.000 
#
# Total GULP energy -356793.067425 kJ/mol
# GULP energy per Si atom -5574.891679 kJ/mol
# Density = 1.969194 g / cm^3
# Si number density = 19.736862 Si / 1000 Ang^3
#
#
#
# Elastic Constant Matrix: (Units=GPa)
#
#
# Indices 1 2 3 4 5 6 
#
# 1 41.1678 -2.8181 9.9487 0.0000 0.0000 0.0000
# 2 -2.8181 24.7333 -6.1117 0.0000 0.0000 0.0000
# 3 9.9487 -6.1117 79.1614 0.0000 0.0000 0.0000
# 4 0.0000 0.0000 0.0000 23.2452 0.0000 0.0000
# 5 0.0000 0.0000 0.0000 0.0000 22.1712 0.0000
# 6 0.0000 0.0000 0.0000 0.0000 0.0000 24.6041
#
#
#
# Elastic Compliance Matrix: (Units=1/GPa)
#
#
# Indices 1 2 3 4 5 6 
#
# 1 0.025161 0.002126 -0.002998 0.000000 0.000000 0.000000
# 2 0.002126 0.041397 0.002929 0.000000 0.000000 0.000000
# 3 -0.002998 0.002929 0.013235 0.000000 0.000000 0.000000
# 4 0.000000 0.000000 0.000000 0.043020 0.000000 0.000000
# 5 0.000000 0.000000 0.000000 0.000000 0.045104 0.000000
# 6 0.000000 0.000000 0.000000 0.000000 0.000000 0.040644
#
#
# Mechanical properties :
#
#
# Convention : Reuss Voigt Hill
#
# Bulk Modulus (GPa) = 11.91790 16.34448 14.13119
# Shear Modulus (GPa) = 21.51318 23.60700 22.56009
#
# Velocity S-wave (km/s) = 3.30510 3.46220 3.38456
# Velocity P-wave (km/s) = 4.54053 4.92764 4.73804
#
# Compressibility (1/GPa) = 0.08390743
#
# Stress axis : x y z
#
# Youngs Moduli (GPa) = 39.74428 24.15614 75.55537
#
# Poissons Ratio (x) = -0.05136 0.22651
# Poissons Ratio (y) = -0.08450 -0.22130
# Poissons Ratio (z) = 0.11915 -0.07075
#
# Static dielectric constant tensor:
#      x y z
#    x 1.723330 0.000000 0.000000 
#    y 0.000000 1.759670 0.000000 
#    z 0.000000 0.000000 1.761570 
# 
# From -- ./inp_files/4624.got.cif
#   From: 2010.05.17/outbox.cif.g08.bks.cpg/sg61_3_cif.got.tgz:4624.got - 2010.06.03 15:17:17.
