data_PCOD9459115
_publ_section_title
;
Structure prediction by ZEFSAII (Michael W. Deem and Ramdas Pophale) SiO2 
 PCOD9459115
Probable space group: P B C A
;
_chemical_formula_sum "Si O2"
_cell_formula_units_Z 48
_cell_length_a 16.664071
_cell_length_b 15.793437
_cell_length_c 9.587770
_cell_angle_alpha 90.000000
_cell_angle_beta 90.000000
_cell_angle_gamma 90.000000
_cell_volume 2523.337645
_symmetry_space_group_name_H-M "P B C A"
_symmetry_group_IT_number 61
_symmetry_cell_setting 'orthorhombic'
loop_
_space_group_symop_operation_xyz
x,y,z
1/2-x,-y,1/2+z
1/2+x,1/2-y,-z
-x,1/2+y,1/2-z
-x,-y,-z
1/2+x,y,1/2-z
1/2-x,1/2+y,z
x,1/2-y,1/2+z
loop_
_atom_site_type_symbol
_atom_site_label
_atom_site_fract_x
_atom_site_fract_y
_atom_site_fract_z
Si Si1 0.340537 0.533779 0.836679
Si Si2 0.422384 0.850024 0.816424
Si Si3 0.433319 0.451131 0.589918
Si Si4 0.574756 0.187276 0.502888
Si Si5 0.346311 0.031846 0.827053
Si Si6 0.067193 0.571430 0.540822
O O1 0.391308 0.513272 0.698827
O O2 0.372815 0.617140 0.914948
O O3 0.247519 0.541844 0.801609
O O4 0.359758 0.454389 0.939758
O O5 0.515023 0.881453 0.828530
O O6 0.410327 0.777784 0.929819
O O7 0.407234 0.816945 0.660806
O O8 0.367213 0.932101 0.841272
O O9 0.500000 0.500000 0.500000
O O10 0.370714 0.422804 0.471830
O O11 0.481830 0.157694 0.521765
O O12 0.401114 0.061942 0.697931
O O13 0.000000 0.500000 0.500000
#
# Coordination Sequence:
#
# PCOD9459115 Si02
#       6
#     8   8   8   8   8   8
#     4  11  21  40  65  88 122 166 203 256 309 364
#     4  11  23  40  59  91 123 158 206 255 301 362
#     4  10  21  37  62  90 116 157 213 249 288 370
#     4  11  23  39  62  87 122 162 204 254 307 356
#     4  11  22  38  66  93 121 160 208 253 309 370
#     4  10  18  40  63  83 116 164 206 246 294 364
#
# _framework density 19.022424999999998
#
# number of rings (size 3 to 8) (size 9 to 14) (size 15 to 20)
#    0.000    1.333    5.000    4.000    7.000    0.000 
#    0.000    3.333    0.000    0.000    0.000    0.000 
#    0.000    0.000    0.000    0.000    0.000    0.000 
#
# Total GULP energy -267801.843089 kJ/mol
# GULP energy per Si atom -5579.205064 kJ/mol
# Density = 1.897913 g / cm^3
# Si number density = 19.022425 Si / 1000 Ang^3
#
#
#
# Elastic Constant Matrix: (Units=GPa)
#
#
# Indices 1 2 3 4 5 6 
#
# 1 82.7183 7.2080 23.6395 0.0000 0.0000 0.0000
# 2 7.2080 30.7532 5.1018 0.0000 0.0000 0.0000
# 3 23.6395 5.1018 121.3252 0.0000 0.0000 0.0000
# 4 0.0000 0.0000 0.0000 32.3552 0.0000 0.0000
# 5 0.0000 0.0000 0.0000 0.0000 24.7959 0.0000
# 6 0.0000 0.0000 0.0000 0.0000 0.0000 11.5366
#
#
#
# Elastic Compliance Matrix: (Units=1/GPa)
#
#
# Indices 1 2 3 4 5 6 
#
# 1 0.013013 -0.002648 -0.002424 0.000000 0.000000 0.000000
# 2 -0.002648 0.033284 -0.000884 0.000000 0.000000 0.000000
# 3 -0.002424 -0.000884 0.008752 0.000000 0.000000 0.000000
# 4 0.000000 0.000000 0.000000 0.030907 0.000000 0.000000
# 5 0.000000 0.000000 0.000000 0.000000 0.040329 0.000000
# 6 0.000000 0.000000 0.000000 0.000000 0.000000 0.086681
#
#
# Mechanical properties :
#
#
# Convention : Reuss Voigt Hill
#
# Bulk Modulus (GPa) = 23.18173 34.07727 28.62950
# Shear Modulus (GPa) = 20.89808 26.99401 23.94605
#
# Velocity S-wave (km/s) = 3.31811 3.77113 3.55185
# Velocity P-wave (km/s) = 5.18583 6.07578 5.64836
#
# Compressibility (1/GPa) = 0.04313742
#
# Stress axis : x y z
#
# Youngs Moduli (GPa) = 76.84791 30.04429 114.26226
#
# Poissons Ratio (x) = 0.07955 0.27698
# Poissons Ratio (y) = 0.20348 0.10098
# Poissons Ratio (z) = 0.18629 0.02655
#
# Static dielectric constant tensor:
#      x y z
#    x 1.691480 0.000000 0.000000 
#    y 0.000000 1.665640 0.000000 
#    z 0.000000 0.000000 1.754560 
# 
# From -- ./inp_files/2853.got.cif
#   From: 2010.05.17/outbox.cif.g08.bks.cpg/sg61_2_cif.got.tgz:2853.got - 2010.06.03 15:17:17.
