data_PCOD9459282
_publ_section_title
;
Structure prediction by ZEFSAII (Michael W. Deem and Ramdas Pophale) SiO2 
 PCOD9459282
Probable space group: P B C A
;
_chemical_formula_sum "Si O2"
_cell_formula_units_Z 56
_cell_length_a 20.038328
_cell_length_b 10.819912
_cell_length_c 12.443845
_cell_angle_alpha 90.000000
_cell_angle_beta 90.000000
_cell_angle_gamma 90.000000
_cell_volume 2697.986689
_symmetry_space_group_name_H-M "P B C A"
_symmetry_group_IT_number 61
_symmetry_cell_setting 'orthorhombic'
loop_
_space_group_symop_operation_xyz
x,y,z
1/2-x,-y,1/2+z
1/2+x,1/2-y,-z
-x,1/2+y,1/2-z
-x,-y,-z
1/2+x,y,1/2-z
1/2-x,1/2+y,z
x,1/2-y,1/2+z
loop_
_atom_site_type_symbol
_atom_site_label
_atom_site_fract_x
_atom_site_fract_y
_atom_site_fract_z
Si Si1 0.991742 0.178709 0.824654
Si Si2 0.674775 0.466547 0.317497
Si Si3 0.267761 0.790925 0.024238
Si Si4 0.809654 0.920719 0.819749
Si Si5 0.876440 0.393088 0.483348
Si Si6 0.367568 0.750088 0.339537
Si Si7 0.556579 0.580798 0.215297
O O1 0.931510 0.169640 0.908001
O O2 0.977005 0.286164 0.737228
O O3 0.058986 0.226405 0.883663
O O4 0.008385 0.040312 0.779971
O O5 0.694513 0.415485 0.434737
O O6 0.747260 0.503709 0.272302
O O7 0.644356 0.355217 0.248897
O O8 0.617186 0.567044 0.301629
O O9 0.274037 0.695025 0.122019
O O10 0.191134 0.815749 0.997761
O O11 0.309867 0.740540 0.926038
O O12 0.857784 0.876343 0.725557
O O13 0.849786 0.992344 0.911774
O O14 0.909893 0.424254 0.597083
#
# Coordination Sequence:
#
# PCOD9459282 Si02
#       7
#     8   8   8   8   8   8   8
#     4  11  24  41  62  92 125 166 214 258 312 383
#     4   9  20  36  59  87 119 156 208 260 309 378
#     4  10  21  37  60  90 121 159 208 266 320 371
#     4  10  19  37  59  88 121 160 213 264 311 376
#     4  11  23  39  65  91 123 169 212 258 316 383
#     4  10  21  37  59  85 122 164 205 260 322 374
#     4  11  23  43  64  89 127 170 209 260 319 375
#
# _framework density 20.756218000000001
#
# number of rings (size 3 to 8) (size 9 to 14) (size 15 to 20)
#    0.000    1.714    0.000    4.714    0.000    6.857 
#    0.000    7.143    0.000    0.000    0.000    0.000 
#    0.000    0.000    0.000    0.000    0.000    0.000 
#
# Total GULP energy -312324.221000 kJ/mol
# GULP energy per Si atom -5577.218232 kJ/mol
# Density = 2.070898 g / cm^3
# Si number density = 20.756218 Si / 1000 Ang^3
#
#
#
# Elastic Constant Matrix: (Units=GPa)
#
#
# Indices 1 2 3 4 5 6 
#
# 1 98.3977 -2.3963 -20.1108 0.0000 0.0000 0.0000
# 2 -2.3963 -46.4665 -109.2935 0.0000 0.0000 0.0000
# 3 -20.1108 -109.2935 -98.0005 0.0000 0.0000 0.0000
# 4 0.0000 0.0000 0.0000 17.5894 0.0000 0.0000
# 5 0.0000 0.0000 0.0000 0.0000 30.5597 0.0000
# 6 0.0000 0.0000 0.0000 0.0000 0.0000 34.3568
#
#
#
# Elastic Compliance Matrix: (Units=1/GPa)
#
#
# Indices 1 2 3 4 5 6 
#
# 1 0.010288 -0.002732 0.000936 0.000000 0.000000 0.000000
# 2 -0.002732 0.013985 -0.015035 0.000000 0.000000 0.000000
# 3 0.000936 -0.015035 0.006372 0.000000 0.000000 0.000000
# 4 0.000000 0.000000 0.000000 0.056852 0.000000 0.000000
# 5 0.000000 0.000000 0.000000 0.000000 0.032723 0.000000
# 6 0.000000 0.000000 0.000000 0.000000 0.000000 0.029106
#
#
# Mechanical properties :
#
#
# Convention : Reuss Voigt Hill
#
# Bulk Modulus (GPa) = -331.20835 -34.40783 -182.80809
# Shear Modulus (GPa) = 27.47520 22.21661 24.84591
#
# Velocity S-wave (km/s) = 3.64223 3.27518 3.46357
# Velocity P-wave (km/s) = 11.92599 1.52009 8.50118
#
# Compressibility (1/GPa) = -0.00301925
#
# Stress axis : x y z
#
# Youngs Moduli (GPa) = 97.20422 71.50737 156.94114
#
# Poissons Ratio (x) = 0.19539 -0.14692
# Poissons Ratio (y) = 0.26560 2.35967
# Poissons Ratio (z) = -0.09100 1.07514
#
# Static dielectric constant tensor:
#      x y z
#    x 1.765460 0.000000 0.000000 
#    y 0.000000 1.848330 0.000000 
#    z 0.000000 0.000000 1.721610 
# 
# From -- ./inp_files/6434.got.cif
#   From: 2010.05.17/outbox.cif.g08.bks.cpg/sg61_4_cif.got.tgz:6434.got - 2010.06.03 15:17:17.
