data_PCOD9459109
_publ_section_title
;
Structure prediction by ZEFSAII (Michael W. Deem and Ramdas Pophale) SiO2 
 PCOD9459109
Probable space group: P B C A
;
_chemical_formula_sum "Si O2"
_cell_formula_units_Z 60
_cell_length_a 14.363281
_cell_length_b 18.138822
_cell_length_c 10.303227
_cell_angle_alpha 90.000000
_cell_angle_beta 90.000000
_cell_angle_gamma 90.000000
_cell_volume 2684.330613
_symmetry_space_group_name_H-M "P B C A"
_symmetry_group_IT_number 61
_symmetry_cell_setting 'orthorhombic'
loop_
_space_group_symop_operation_xyz
x,y,z
1/2-x,-y,1/2+z
1/2+x,1/2-y,-z
-x,1/2+y,1/2-z
-x,-y,-z
1/2+x,y,1/2-z
1/2-x,1/2+y,z
x,1/2-y,1/2+z
loop_
_atom_site_type_symbol
_atom_site_label
_atom_site_fract_x
_atom_site_fract_y
_atom_site_fract_z
Si Si1 0.399516 0.356990 0.936138
Si Si2 0.365009 0.034004 0.205601
Si Si3 0.536371 0.400557 0.579812
Si Si4 0.302778 0.340006 0.187139
Si Si5 0.532828 0.740745 0.259867
Si Si6 0.906914 0.875706 0.281293
Si Si7 0.500000 0.500000 0.000000
Si Si8 0.651541 0.497367 0.778580
O O1 0.367646 0.399931 0.807491
O O2 0.458159 0.287400 0.888298
O O3 0.313660 0.346069 0.031582
O O4 0.466521 0.414335 0.003584
O O5 0.437926 0.055247 0.094031
O O6 0.257962 0.018159 0.176894
O O7 0.405377 0.959570 0.275828
O O8 0.512704 0.323652 0.653811
O O9 0.567617 0.388058 0.432907
O O10 0.613431 0.447857 0.659671
O O11 0.361310 0.266602 0.213830
O O12 0.196441 0.342661 0.228087
O O13 0.347865 0.414403 0.249658
O O14 0.474868 0.814952 0.273828
O O15 0.416057 0.520520 0.103754
#
# Coordination Sequence:
#
# PCOD9459109 Si02
#       8
#     8   8   8   8   8   8   4   8
#     4  10  21  40  65  90 124 167 213 268 313 382
#     4  10  21  38  63  95 121 163 220 267 324 374
#     4  11  22  42  64  92 128 168 215 273 321 384
#     4  10  23  40  62  90 128 165 211 264 322 393
#     4  11  23  40  61  91 128 169 207 262 323 395
#     4  11  24  40  62  92 128 169 208 265 334 385
#     4  10  18  38  64  92 118 166 218 258 318 376
#     4  10  20  38  66  92 123 167 215 268 318 382
#
# _framework density 22.351941
#
# number of rings (size 3 to 8) (size 9 to 14) (size 15 to 20)
#    0.000    1.600    2.667    2.800    1.867    3.200 
#    0.000    2.667    0.000    0.000    0.000    0.000 
#    0.000    0.000    0.000    0.000    0.000    0.000 
#
# Total GULP energy -334163.462780 kJ/mol
# GULP energy per Si atom -5569.391046 kJ/mol
# Density = 2.230107 g / cm^3
# Si number density = 22.351941 Si / 1000 Ang^3
#
#
#
# Elastic Constant Matrix: (Units=GPa)
#
#
# Indices 1 2 3 4 5 6 
#
# 1 87.3590 8.1272 -15.2340 0.0000 0.0000 0.0000
# 2 8.1272 75.8943 -4.2857 0.0000 0.0000 0.0000
# 3 -15.2340 -4.2857 15.8878 0.0000 0.0000 0.0000
# 4 0.0000 0.0000 0.0000 26.9087 0.0000 0.0000
# 5 0.0000 0.0000 0.0000 0.0000 19.9990 0.0000
# 6 0.0000 0.0000 0.0000 0.0000 0.0000 18.3758
#
#
#
# Elastic Compliance Matrix: (Units=1/GPa)
#
#
# Indices 1 2 3 4 5 6 
#
# 1 0.013786 -0.000741 0.013019 0.000000 0.000000 0.000000
# 2 -0.000741 0.013420 0.002909 0.000000 0.000000 0.000000
# 3 0.013019 0.002909 0.076209 0.000000 0.000000 0.000000
# 4 0.000000 0.000000 0.000000 0.037163 0.000000 0.000000
# 5 0.000000 0.000000 0.000000 0.000000 0.050003 0.000000
# 6 0.000000 0.000000 0.000000 0.000000 0.000000 0.054419
#
#
# Mechanical properties :
#
#
# Convention : Reuss Voigt Hill
#
# Bulk Modulus (GPa) = 7.47440 17.37291 12.42366
# Shear Modulus (GPa) = 19.28845 25.75893 22.52369
#
# Velocity S-wave (km/s) = 2.94078 3.39842 3.17785
# Velocity P-wave (km/s) = 3.85773 4.81543 4.36294
#
# Compressibility (1/GPa) = 0.13379001
#
# Stress axis : x y z
#
# Youngs Moduli (GPa) = 72.53588 74.51633 13.12173
#
# Poissons Ratio (x) = 0.05523 -0.17083
# Poissons Ratio (y) = 0.05376 -0.03818
# Poissons Ratio (z) = -0.94435 -0.21679
#
# Static dielectric constant tensor:
#      x y z
#    x 1.558880 0.000000 0.000000 
#    y 0.000000 1.822900 0.000000 
#    z 0.000000 0.000000 1.540470 
# 
# From -- ./inp_files/5971.got.cif
#   From: 2010.05.17/outbox.cif.g08.bks.cpg/sg61_3_cif.got.tgz:5971.got - 2010.06.03 15:17:17.
