data_PCOD9459366
_publ_section_title
;
Structure prediction by ZEFSAII (Michael W. Deem and Ramdas Pophale) SiO2 
 PCOD9459366
Probable space group: P B C A
;
_chemical_formula_sum "Si O2"
_cell_formula_units_Z 64
_cell_length_a 8.822790
_cell_length_b 14.701347
_cell_length_c 22.200738
_cell_angle_alpha 90.000000
_cell_angle_beta 90.000000
_cell_angle_gamma 90.000000
_cell_volume 2879.588844
_symmetry_space_group_name_H-M "P B C A"
_symmetry_group_IT_number 61
_symmetry_cell_setting 'orthorhombic'
loop_
_space_group_symop_operation_xyz
x,y,z
1/2-x,-y,1/2+z
1/2+x,1/2-y,-z
-x,1/2+y,1/2-z
-x,-y,-z
1/2+x,y,1/2-z
1/2-x,1/2+y,z
x,1/2-y,1/2+z
loop_
_atom_site_type_symbol
_atom_site_label
_atom_site_fract_x
_atom_site_fract_y
_atom_site_fract_z
Si Si1 0.902184 0.877203 0.100937
Si Si2 0.260330 0.704402 0.439952
Si Si3 0.387889 0.158542 0.320547
Si Si4 0.529201 0.461396 0.576153
Si Si5 0.363174 0.739858 0.741545
Si Si6 0.878620 0.382131 0.304665
Si Si7 0.696923 0.512984 0.688031
Si Si8 0.189191 0.886692 0.495635
O O1 0.887901 0.769173 0.091288
O O2 0.847761 0.915004 0.036041
O O3 0.058128 0.908344 0.130172
O O4 0.768014 0.905968 0.147585
O O5 0.132879 0.681584 0.390678
O O6 0.347961 0.610632 0.451788
O O7 0.191639 0.776763 0.487902
O O8 0.263212 0.218373 0.284818
O O9 0.549642 0.182779 0.294585
O O10 0.334991 0.056801 0.308923
O O11 0.567066 0.468447 0.646674
O O12 0.566136 0.559433 0.546421
O O13 0.364299 0.422804 0.559827
O O14 0.489247 0.683862 0.778394
O O15 0.277962 0.672583 0.695713
O O16 0.856549 0.456613 0.252955
#
# Coordination Sequence:
#
# PCOD9459366 Si02
#       8
#     8   8   8   8   8   8   8   8
#     4   9  17  33  54  84 117 153 202 257 310 370
#     4   9  17  34  57  82 120 154 199 265 321 360
#     4  10  20  33  49  86 115 166 205 261 302 372
#     4   9  17  33  60  91 113 161 212 258 309 387
#     4  10  20  31  52  73 123 157 217 245 297 381
#     4  11  18  34  52  83 116 172 202 250 313 378
#     4  10  20  31  57  87 125 163 212 260 317 368
#     4   8  17  33  59  91 112 153 212 257 315 383
#
# _framework density 22.225394000000001
#
# number of rings (size 3 to 8) (size 9 to 14) (size 15 to 20)
#    0.750    1.750    2.500    0.750    1.750    0.000 
#    0.000    0.000    2.750    0.750    6.500    0.000 
#    0.000    0.000    0.000    0.000    0.000    0.000 
#
# Total GULP energy -356354.298999 kJ/mol
# GULP energy per Si atom -5568.035922 kJ/mol
# Density = 2.217481 g / cm^3
# Si number density = 22.225394 Si / 1000 Ang^3
#
#
#
# Elastic Constant Matrix: (Units=GPa)
#
#
# Indices 1 2 3 4 5 6 
#
# 1 47.1120 7.0782 25.3254 0.0000 0.0000 0.0000
# 2 7.0782 66.8019 9.5257 0.0000 0.0000 0.0000
# 3 25.3254 9.5257 35.8060 0.0000 0.0000 0.0000
# 4 0.0000 0.0000 0.0000 10.4172 0.0000 0.0000
# 5 0.0000 0.0000 0.0000 0.0000 33.5176 0.0000
# 6 0.0000 0.0000 0.0000 0.0000 0.0000 26.0406
#
#
#
# Elastic Compliance Matrix: (Units=1/GPa)
#
#
# Indices 1 2 3 4 5 6 
#
# 1 0.034249 -0.000182 -0.024176 0.000000 0.000000 0.000000
# 2 -0.000182 0.015561 -0.004011 0.000000 0.000000 0.000000
# 3 -0.024176 -0.004011 0.046095 0.000000 0.000000 0.000000
# 4 0.000000 0.000000 0.000000 0.095995 0.000000 0.000000
# 5 0.000000 0.000000 0.000000 0.000000 0.029835 0.000000
# 6 0.000000 0.000000 0.000000 0.000000 0.000000 0.038402
#
#
# Mechanical properties :
#
#
# Convention : Reuss Voigt Hill
#
# Bulk Modulus (GPa) = 25.53152 25.95318 25.74235
# Shear Modulus (GPa) = 15.15469 21.18111 18.16790
#
# Velocity S-wave (km/s) = 2.61408 3.09044 2.86219
# Velocity P-wave (km/s) = 4.54134 4.94338 4.74662
#
# Compressibility (1/GPa) = 0.03916727
#
# Stress axis : x y z
#
# Youngs Moduli (GPa) = 29.19770 64.26368 21.69432
#
# Poissons Ratio (x) = 0.01167 0.52448
# Poissons Ratio (y) = 0.00530 0.08702
# Poissons Ratio (z) = 0.70588 0.25779
#
# Static dielectric constant tensor:
#      x y z
#    x 1.826630 0.000000 0.000000 
#    y 0.000000 1.891250 0.000000 
#    z 0.000000 0.000000 1.905790 
# 
# From -- ./inp_files/11409.got.cif
#   From: 2010.05.17/outbox.cif.g08.bks.cpg/sg61_6_cif.got.tgz:11409.got - 2010.06.03 15:17:17.
