data_PCOD9459439
_publ_section_title
;
Structure prediction by ZEFSAII (Michael W. Deem and Ramdas Pophale) SiO2 
 PCOD9459439
Probable space group: P B C A
;
_chemical_formula_sum "Si O2"
_cell_formula_units_Z 60
_cell_length_a 8.992258
_cell_length_b 8.995807
_cell_length_c 33.797625
_cell_angle_alpha 90.000000
_cell_angle_beta 90.000000
_cell_angle_gamma 90.000000
_cell_volume 2733.978350
_symmetry_space_group_name_H-M "P B C A"
_symmetry_group_IT_number 61
_symmetry_cell_setting 'orthorhombic'
loop_
_space_group_symop_operation_xyz
x,y,z
1/2-x,-y,1/2+z
1/2+x,1/2-y,-z
-x,1/2+y,1/2-z
-x,-y,-z
1/2+x,y,1/2-z
1/2-x,1/2+y,z
x,1/2-y,1/2+z
loop_
_atom_site_type_symbol
_atom_site_label
_atom_site_fract_x
_atom_site_fract_y
_atom_site_fract_z
Si Si1 0.588103 0.588127 0.288929
Si Si2 0.615138 0.460276 0.448590
Si Si3 0.589699 0.679603 0.074660
Si Si4 0.457300 0.854639 0.655651
Si Si5 0.611675 0.252735 0.264402
Si Si6 0.789776 0.554882 0.862826
Si Si7 0.871126 0.813229 0.524341
Si Si8 0.500000 0.500000 0.000000
O O1 0.603388 0.430226 0.266064
O O2 0.443347 0.676564 0.275481
O O3 0.727370 0.691726 0.277072
O O4 0.598866 0.539282 0.334770
O O5 0.497476 0.331630 0.436582
O O6 0.703726 0.489688 0.408688
O O7 0.519207 0.598499 0.463652
O O8 0.706184 0.400824 0.486891
O O9 0.577156 0.650160 0.121165
O O10 0.757259 0.694121 0.059773
O O11 0.520798 0.550874 0.047651
O O12 0.495562 0.808998 0.700148
O O13 0.338964 0.725295 0.642149
O O14 0.370421 0.010638 0.654297
O O15 0.916204 0.655531 0.508753
#
# Coordination Sequence:
#
# PCOD9459439 Si02
#       8
#     8   8   8   8   8   8   8   4
#     4  10  20  37  63  88 124 158 208 250 311 370
#     4   9  20  37  55  79 113 151 188 239 302 341
#     4  10  20  36  55  83 113 147 189 245 291 350
#     4   9  20  36  58  85 118 152 195 242 298 353
#     4  10  20  38  61  91 122 163 202 257 309 378
#     4   9  19  37  57  83 115 154 193 241 285 364
#     4  10  20  37  56  78 112 149 195 244 289 355
#     4  10  22  34  54  82 102 150 192 228 296 346
#
# _framework density 21.94604
#
# number of rings (size 3 to 8) (size 9 to 14) (size 15 to 20)
#    0.000    2.400    0.000    1.600    1.867    2.133 
#   12.000    0.000    0.000    0.000    0.000    0.000 
#    0.000    0.000    0.000    0.000    0.000    0.000 
#
# Total GULP energy -334206.034495 kJ/mol
# GULP energy per Si atom -5570.100575 kJ/mol
# Density = 2.189609 g / cm^3
# Si number density = 21.946040 Si / 1000 Ang^3
#
#
#
# Elastic Constant Matrix: (Units=GPa)
#
#
# Indices 1 2 3 4 5 6 
#
# 1 21.5422 1.7961 12.6674 0.0000 0.0000 0.0000
# 2 1.7961 69.1914 14.9163 0.0000 0.0000 0.0000
# 3 12.6674 14.9163 70.9897 0.0000 0.0000 0.0000
# 4 0.0000 0.0000 0.0000 22.3949 0.0000 0.0000
# 5 0.0000 0.0000 0.0000 0.0000 40.3186 0.0000
# 6 0.0000 0.0000 0.0000 0.0000 0.0000 25.4686
#
#
#
# Elastic Compliance Matrix: (Units=1/GPa)
#
#
# Indices 1 2 3 4 5 6 
#
# 1 0.051893 0.000680 -0.009403 0.000000 0.000000 0.000000
# 2 0.000680 0.015147 -0.003304 0.000000 0.000000 0.000000
# 3 -0.009403 -0.003304 0.016459 0.000000 0.000000 0.000000
# 4 0.000000 0.000000 0.000000 0.044653 0.000000 0.000000
# 5 0.000000 0.000000 0.000000 0.000000 0.024802 0.000000
# 6 0.000000 0.000000 0.000000 0.000000 0.000000 0.039264
#
#
# Mechanical properties :
#
#
# Convention : Reuss Voigt Hill
#
# Bulk Modulus (GPa) = 16.82221 24.49811 20.66016
# Shear Modulus (GPa) = 21.17866 26.45931 23.81898
#
# Velocity S-wave (km/s) = 3.10987 3.47602 3.29803
# Velocity P-wave (km/s) = 4.53618 5.22469 4.89256
#
# Compressibility (1/GPa) = 0.05944521
#
# Stress axis : x y z
#
# Youngs Moduli (GPa) = 19.27052 66.01837 60.75842
#
# Poissons Ratio (x) = -0.04489 0.57129
# Poissons Ratio (y) = -0.01310 0.20075
# Poissons Ratio (z) = 0.18119 0.21813
#
# Static dielectric constant tensor:
#      x y z
#    x 1.881070 0.000000 0.000000 
#    y 0.000000 1.888530 0.000000 
#    z 0.000000 0.000000 1.824840 
# 
# From -- ./inp_files/4944.got.cif
#   From: 2010.05.17/outbox.cif.g08.bks.cpg/sg61_3_cif.got.tgz:4944.got - 2010.06.03 15:17:17.
