data_PCOD9459687
_publ_section_title
;
Structure prediction by ZEFSAII (Michael W. Deem and Ramdas Pophale) SiO2 
 PCOD9459687
Probable space group: P B C A
;
_chemical_formula_sum "Si O2"
_cell_formula_units_Z 64
_cell_length_a 18.108208
_cell_length_b 13.807317
_cell_length_c 12.297474
_cell_angle_alpha 90.000000
_cell_angle_beta 90.000000
_cell_angle_gamma 90.000000
_cell_volume 3074.685383
_symmetry_space_group_name_H-M "P B C A"
_symmetry_group_IT_number 61
_symmetry_cell_setting 'orthorhombic'
loop_
_space_group_symop_operation_xyz
x,y,z
1/2-x,-y,1/2+z
1/2+x,1/2-y,-z
-x,1/2+y,1/2-z
-x,-y,-z
1/2+x,y,1/2-z
1/2-x,1/2+y,z
x,1/2-y,1/2+z
loop_
_atom_site_type_symbol
_atom_site_label
_atom_site_fract_x
_atom_site_fract_y
_atom_site_fract_z
Si Si1 0.561783 0.437119 0.065515
Si Si2 0.768488 0.325948 0.802087
Si Si3 0.575644 0.901629 0.719824
Si Si4 0.164739 0.039253 0.334324
Si Si5 0.516352 0.097587 0.063623
Si Si6 0.825637 0.121002 0.837042
Si Si7 0.452905 0.208654 0.505418
Si Si8 0.772390 0.957369 0.986376
O O1 0.570886 0.487873 0.180550
O O2 0.526651 0.332595 0.062866
O O3 0.641233 0.441458 0.010469
O O4 0.500000 0.500000 0.000000
O O5 0.843329 0.373823 0.758173
O O6 0.701869 0.375762 0.736935
O O7 0.779245 0.211134 0.790300
O O8 0.759140 0.363084 0.925890
O O9 0.519579 0.889760 0.817469
O O10 0.558346 0.836857 0.613692
O O11 0.103190 0.088492 0.409980
O O12 0.138761 0.952391 0.252193
O O13 0.226506 0.987853 0.408740
O O14 0.472330 0.179504 0.996740
O O15 0.500000 0.000000 0.000000
O O16 0.885868 0.171714 0.917402
O O17 0.772859 0.049623 0.905435
#
# Coordination Sequence:
#
# PCOD9459687 Si02
#       8
#     8   8   8   8   8   8   8   8
#     4  10  20  40  70  97 133 183 238 281 341 425
#     4  11  24  41  70 104 133 183 235 283 357 432
#     4  11  22  44  72  97 137 191 232 281 355 424
#     4  11  26  45  67 105 147 181 228 306 360 410
#     4  12  28  45  68 107 145 182 241 301 343 424
#     4  11  23  44  73  98 138 192 234 285 361 429
#     4  11  24  42  73 102 132 191 241 285 343 436
#     4  11  23  44  68 102 139 178 235 293 352 422
#
# _framework density 20.815137
#
# number of rings (size 3 to 8) (size 9 to 14) (size 15 to 20)
#    0.000    1.000    5.000    1.500    7.000    4.000 
#    0.000    0.000    0.000    0.000    0.000    0.000 
#    0.000    0.000    0.000    0.000    0.000    0.000 
#
# Total GULP energy -357172.396434 kJ/mol
# GULP energy per Si atom -5580.818694 kJ/mol
# Density = 2.076776 g / cm^3
# Si number density = 20.815137 Si / 1000 Ang^3
#
#
#
# Elastic Constant Matrix: (Units=GPa)
#
#
# Indices 1 2 3 4 5 6 
#
# 1 80.1650 22.5483 20.0720 0.0000 0.0000 0.0000
# 2 22.5483 44.0488 -4.4920 0.0000 0.0000 0.0000
# 3 20.0720 -4.4920 56.5224 0.0000 0.0000 0.0000
# 4 0.0000 0.0000 0.0000 20.3469 0.0000 0.0000
# 5 0.0000 0.0000 0.0000 0.0000 11.6656 0.0000
# 6 0.0000 0.0000 0.0000 0.0000 0.0000 27.0100
#
#
#
# Elastic Compliance Matrix: (Units=1/GPa)
#
#
# Indices 1 2 3 4 5 6 
#
# 1 0.016752 -0.009257 -0.006684 0.000000 0.000000 0.000000
# 2 -0.009257 0.028003 0.005513 0.000000 0.000000 0.000000
# 3 -0.006684 0.005513 0.020504 0.000000 0.000000 0.000000
# 4 0.000000 0.000000 0.000000 0.049148 0.000000 0.000000
# 5 0.000000 0.000000 0.000000 0.000000 0.085722 0.000000
# 6 0.000000 0.000000 0.000000 0.000000 0.000000 0.037023
#
#
# Mechanical properties :
#
#
# Convention : Reuss Voigt Hill
#
# Bulk Modulus (GPa) = 22.52186 28.55476 25.53831
# Shear Modulus (GPa) = 18.32789 21.31171 19.81980
#
# Velocity S-wave (km/s) = 2.97055 3.20325 3.08909
# Velocity P-wave (km/s) = 4.75489 5.23728 5.00191
#
# Compressibility (1/GPa) = 0.04440130
#
# Stress axis : x y z
#
# Youngs Moduli (GPa) = 59.69585 35.71085 48.77117
#
# Poissons Ratio (x) = 0.33056 0.32601
# Poissons Ratio (y) = 0.55259 -0.26886
# Poissons Ratio (z) = 0.39903 -0.19686
#
# Static dielectric constant tensor:
#      x y z
#    x 1.748240 0.000000 0.000000 
#    y 0.000000 1.830140 0.000000 
#    z 0.000000 0.000000 1.789490 
# 
# From -- ./inp_files/6295.got.cif
#   From: 2010.05.17/outbox.cif.g08.bks.cpg/sg61_4_cif.got.tgz:6295.got - 2010.06.03 15:17:17.
