data_PCOD9459944
_publ_section_title
;
Structure prediction by ZEFSAII (Michael W. Deem and Ramdas Pophale) SiO2 
 PCOD9459944
Probable space group: P B C A
;
_chemical_formula_sum "Si O2"
_cell_formula_units_Z 56
_cell_length_a 21.866908
_cell_length_b 9.083932
_cell_length_c 14.911891
_cell_angle_alpha 90.000000
_cell_angle_beta 90.000000
_cell_angle_gamma 90.000000
_cell_volume 2962.060828
_symmetry_space_group_name_H-M "P B C A"
_symmetry_group_IT_number 61
_symmetry_cell_setting 'orthorhombic'
loop_
_space_group_symop_operation_xyz
x,y,z
1/2-x,-y,1/2+z
1/2+x,1/2-y,-z
-x,1/2+y,1/2-z
-x,-y,-z
1/2+x,y,1/2-z
1/2-x,1/2+y,z
x,1/2-y,1/2+z
loop_
_atom_site_type_symbol
_atom_site_label
_atom_site_fract_x
_atom_site_fract_y
_atom_site_fract_z
Si Si1 0.254293 0.631841 0.790561
Si Si2 0.395385 0.496341 0.040338
Si Si3 0.459464 0.244289 0.337543
Si Si4 0.044029 0.411292 0.807006
Si Si5 0.167728 0.116619 0.213271
Si Si6 0.172393 0.869977 0.881464
Si Si7 0.005966 0.200558 0.960104
O O1 0.289318 0.741553 0.723292
O O2 0.205885 0.528839 0.739262
O O3 0.219933 0.738369 0.861617
O O4 0.299937 0.518166 0.838923
O O5 0.363437 0.590782 0.117194
O O6 0.448328 0.389915 0.079931
O O7 0.346012 0.403694 0.984026
O O8 0.434444 0.597206 0.971274
O O9 0.459132 0.413817 0.310036
O O10 0.502030 0.152458 0.271689
O O11 0.391319 0.178867 0.336393
O O12 0.485040 0.236483 0.438899
O O13 0.113324 0.366198 0.784990
O O14 0.021797 0.338533 0.899317
#
# Coordination Sequence:
#
# PCOD9459944 Si02
#       7
#     8   8   8   8   8   8   8
#     4  10  23  41  63  88 121 169 215 251 308 368
#     4  10  21  39  63  93 129 161 204 262 312 373
#     4  11  24  39  63  97 126 160 210 257 323 375
#     4  12  23  39  67  93 128 164 203 264 322 375
#     4  11  22  41  63  92 124 164 214 254 308 376
#     4  10  22  41  63  87 125 163 208 262 306 370
#     4  10  22  38  60  97 132 160 204 254 326 382
#
# _framework density 18.905754999999999
#
# number of rings (size 3 to 8) (size 9 to 14) (size 15 to 20)
#    0.000    1.429    2.857    2.143    6.000    1.143 
#    0.000    0.000    3.143    0.000    0.000    0.000 
#    0.000    0.000    0.000    0.000    0.000    0.000 
#
# Total GULP energy -312831.336699 kJ/mol
# GULP energy per Si atom -5586.273870 kJ/mol
# Density = 1.886272 g / cm^3
# Si number density = 18.905755 Si / 1000 Ang^3
#
#
#
# Elastic Constant Matrix: (Units=GPa)
#
#
# Indices 1 2 3 4 5 6 
#
# 1 116.5397 66.6222 51.0549 0.0000 0.0000 0.0000
# 2 66.6222 118.6138 41.2568 0.0000 0.0000 0.0000
# 3 51.0549 41.2568 76.3103 0.0000 0.0000 0.0000
# 4 0.0000 0.0000 0.0000 26.8775 0.0000 0.0000
# 5 0.0000 0.0000 0.0000 0.0000 25.5545 0.0000
# 6 0.0000 0.0000 0.0000 0.0000 0.0000 36.1424
#
#
#
# Elastic Compliance Matrix: (Units=1/GPa)
#
#
# Indices 1 2 3 4 5 6 
#
# 1 0.015021 -0.006086 -0.006760 0.000000 0.000000 0.000000
# 2 -0.006086 0.012849 -0.002875 0.000000 0.000000 0.000000
# 3 -0.006760 -0.002875 0.019181 0.000000 0.000000 0.000000
# 4 0.000000 0.000000 0.000000 0.037206 0.000000 0.000000
# 5 0.000000 0.000000 0.000000 0.000000 0.039132 0.000000
# 6 0.000000 0.000000 0.000000 0.000000 0.000000 0.027668
#
#
# Mechanical properties :
#
#
# Convention : Reuss Voigt Hill
#
# Bulk Modulus (GPa) = 64.05950 69.92576 66.99263
# Shear Modulus (GPa) = 26.63799 27.88354 27.26076
#
# Velocity S-wave (km/s) = 3.75772 3.84457 3.80139
# Velocity P-wave (km/s) = 7.26529 7.53488 7.40131
#
# Compressibility (1/GPa) = 0.01561049
#
# Stress axis : x y z
#
# Youngs Moduli (GPa) = 66.57289 77.82713 52.13446
#
# Poissons Ratio (x) = 0.47364 0.35240
# Poissons Ratio (y) = 0.40515 0.14989
# Poissons Ratio (z) = 0.45000 0.22376
#
# Static dielectric constant tensor:
#      x y z
#    x 1.656780 0.000000 0.000000 
#    y 0.000000 1.651630 0.000000 
#    z 0.000000 0.000000 1.649040 
# 
# From -- ./inp_files/3038.got.cif
#   From: 2010.05.17/outbox.cif.g08.bks.cpg/sg61_2_cif.got.tgz:3038.got - 2010.06.03 15:17:17.
