data_PCOD9459540
_publ_section_title
;
Structure prediction by ZEFSAII (Michael W. Deem and Ramdas Pophale) SiO2 
 PCOD9459540
Probable space group: P B C A
;
_chemical_formula_sum "Si O2"
_cell_formula_units_Z 56
_cell_length_a 14.931087
_cell_length_b 19.251514
_cell_length_c 9.687607
_cell_angle_alpha 90.000000
_cell_angle_beta 90.000000
_cell_angle_gamma 90.000000
_cell_volume 2784.664176
_symmetry_space_group_name_H-M "P B C A"
_symmetry_group_IT_number 61
_symmetry_cell_setting 'orthorhombic'
loop_
_space_group_symop_operation_xyz
x,y,z
1/2-x,-y,1/2+z
1/2+x,1/2-y,-z
-x,1/2+y,1/2-z
-x,-y,-z
1/2+x,y,1/2-z
1/2-x,1/2+y,z
x,1/2-y,1/2+z
loop_
_atom_site_type_symbol
_atom_site_label
_atom_site_fract_x
_atom_site_fract_y
_atom_site_fract_z
Si Si1 0.648248 0.095265 0.924485
Si Si2 0.288817 0.104147 0.355068
Si Si3 0.826424 0.949587 0.127199
Si Si4 0.614409 0.964898 0.108319
Si Si5 0.609390 0.081442 0.322712
Si Si6 0.515083 0.677444 0.541279
Si Si7 0.952136 0.193061 0.231207
O O1 0.645171 0.093395 0.760574
O O2 0.588749 0.158233 0.978723
O O3 0.746212 0.102602 0.991685
O O4 0.610399 0.022572 0.986494
O O5 0.202925 0.104136 0.252217
O O6 0.358465 0.163900 0.325342
O O7 0.339720 0.030898 0.338281
O O8 0.718807 0.943901 0.114377
O O9 0.872209 0.929585 0.984121
O O10 0.559122 0.895830 0.083619
O O11 0.588397 0.008508 0.245029
O O12 0.530733 0.136710 0.298242
O O13 0.526331 0.735457 0.655854
O O14 0.554149 0.701202 0.395502
#
# Coordination Sequence:
#
# PCOD9459540 Si02
#       7
#     8   8   8   8   8   8   8
#     4  10  21  42  69  95 134 171 220 279 338 388
#     4  10  21  45  67  95 134 172 218 284 329 401
#     4  10  20  37  70 105 128 167 225 278 333 386
#     4  10  20  43  72  96 128 175 228 272 332 396
#     4  10  22  43  69 100 136 173 222 280 335 394
#     4  12  26  45  64  98 132 182 225 275 338 411
#     4  12  27  45  65  97 137 180 226 270 346 409
#
# _framework density 20.110143999999998
#
# number of rings (size 3 to 8) (size 9 to 14) (size 15 to 20)
#    0.000    1.714    2.857    5.571    4.000    2.857 
#    7.714    0.000    0.000    0.000    0.000    0.000 
#    0.000    0.000    0.000    0.000    0.000    0.000 
#
# Total GULP energy -312890.459169 kJ/mol
# GULP energy per Si atom -5587.329628 kJ/mol
# Density = 2.006437 g / cm^3
# Si number density = 20.110144 Si / 1000 Ang^3
#
#
#
# Elastic Constant Matrix: (Units=GPa)
#
#
# Indices 1 2 3 4 5 6 
#
# 1 44.9057 43.2318 24.8376 0.0000 0.0000 0.0000
# 2 43.2318 87.3146 46.6484 0.0000 0.0000 0.0000
# 3 24.8376 46.6484 164.2429 0.0000 0.0000 0.0000
# 4 0.0000 0.0000 0.0000 13.3136 0.0000 0.0000
# 5 0.0000 0.0000 0.0000 0.0000 9.8158 0.0000
# 6 0.0000 0.0000 0.0000 0.0000 0.0000 17.0946
#
#
#
# Elastic Compliance Matrix: (Units=1/GPa)
#
#
# Indices 1 2 3 4 5 6 
#
# 1 0.042592 -0.020804 -0.000532 0.000000 0.000000 0.000000
# 2 -0.020804 0.023663 -0.003575 0.000000 0.000000 0.000000
# 3 -0.000532 -0.003575 0.007184 0.000000 0.000000 0.000000
# 4 0.000000 0.000000 0.000000 0.075111 0.000000 0.000000
# 5 0.000000 0.000000 0.000000 0.000000 0.101876 0.000000
# 6 0.000000 0.000000 0.000000 0.000000 0.000000 0.058498
#
#
# Mechanical properties :
#
#
# Convention : Reuss Voigt Hill
#
# Bulk Modulus (GPa) = 42.34155 58.43321 50.38738
# Shear Modulus (GPa) = 13.63812 20.16116 16.89964
#
# Velocity S-wave (km/s) = 2.60700 3.16972 2.90203
# Velocity P-wave (km/s) = 5.49203 6.52042 6.02820
#
# Compressibility (1/GPa) = 0.02361746
#
# Stress axis : x y z
#
# Youngs Moduli (GPa) = 23.47873 42.25946 139.19178
#
# Poissons Ratio (x) = 0.87917 0.07407
# Poissons Ratio (y) = 0.48845 0.49758
# Poissons Ratio (z) = 0.01249 0.15107
#
# Static dielectric constant tensor:
#      x y z
#    x 1.739500 0.000000 0.000000 
#    y 0.000000 1.679130 0.000000 
#    z 0.000000 0.000000 1.716380 
# 
# From -- ./inp_files/3065.got.cif
#   From: 2010.05.17/outbox.cif.g08.bks.cpg/sg61_2_cif.got.tgz:3065.got - 2010.06.03 15:17:17.
