data_PCOD9459000
_publ_section_title
;
Structure prediction by ZEFSAII (Michael W. Deem and Ramdas Pophale) SiO2 
 PCOD9459000
Probable space group: P B C A
;
_chemical_formula_sum "Si O2"
_cell_formula_units_Z 56
_cell_length_a 9.628487
_cell_length_b 22.799805
_cell_length_c 11.997319
_cell_angle_alpha 90.000000
_cell_angle_beta 90.000000
_cell_angle_gamma 90.000000
_cell_volume 2633.742959
_symmetry_space_group_name_H-M "P B C A"
_symmetry_group_IT_number 61
_symmetry_cell_setting 'orthorhombic'
loop_
_space_group_symop_operation_xyz
x,y,z
1/2-x,-y,1/2+z
1/2+x,1/2-y,-z
-x,1/2+y,1/2-z
-x,-y,-z
1/2+x,y,1/2-z
1/2-x,1/2+y,z
x,1/2-y,1/2+z
loop_
_atom_site_type_symbol
_atom_site_label
_atom_site_fract_x
_atom_site_fract_y
_atom_site_fract_z
Si Si1 0.857020 0.870425 0.284540
Si Si2 0.933693 0.038938 0.644358
Si Si3 0.589268 0.083060 0.081575
Si Si4 0.477065 0.701982 0.509146
Si Si5 0.706923 0.311804 0.047748
Si Si6 0.158484 0.560059 0.559831
Si Si7 0.666457 0.435790 0.008895
O O1 0.725667 0.902399 0.341590
O O2 0.990582 0.941497 0.471351
O O3 0.911205 0.824963 0.378117
O O4 0.822510 0.836416 0.171827
O O5 0.022107 0.080184 0.725757
O O6 0.773201 0.051901 0.612123
O O7 0.944126 0.969321 0.667548
O O8 0.544821 0.150799 0.084733
O O9 0.751720 0.079923 0.048449
O O10 0.638330 0.711579 0.533150
O O11 0.401918 0.761686 0.478650
O O12 0.698726 0.370055 0.970764
O O13 0.191474 0.490658 0.572574
O O14 0.996024 0.564827 0.537919
#
# Coordination Sequence:
#
# PCOD9459000 Si02
#       7
#     8   8   8   8   8   8   8
#     4  10  22  40  63  91 123 170 229 276 331 407
#     4   8  14  31  59  89 112 151 206 264 318 389
#     4   8  14  32  57  84 120 157 202 258 329 386
#     4  10  24  40  57  94 127 181 227 274 326 398
#     4  12  25  38  63  92 133 183 230 273 331 406
#     4   8  18  31  58  93 126 154 198 275 336 387
#     4  10  17  32  58  93 125 161 204 266 335 383
#
# _framework density 21.262516000000002
#
# number of rings (size 3 to 8) (size 9 to 14) (size 15 to 20)
#    0.000    2.857    2.857    0.857    6.000    0.000 
#    0.000    0.000    0.000    8.571    0.000    0.000 
#    0.000    0.000    0.000    0.000    0.000    0.000 
#
# Total GULP energy -312069.089248 kJ/mol
# GULP energy per Si atom -5572.662308 kJ/mol
# Density = 2.121412 g / cm^3
# Si number density = 21.262516 Si / 1000 Ang^3
#
#
#
# Elastic Constant Matrix: (Units=GPa)
#
#
# Indices 1 2 3 4 5 6 
#
# 1 176.3706 39.1661 22.0594 0.0000 0.0000 0.0000
# 2 39.1661 114.6140 14.7487 0.0000 0.0000 0.0000
# 3 22.0594 14.7487 31.4195 0.0000 0.0000 0.0000
# 4 0.0000 0.0000 0.0000 3.2030 0.0000 0.0000
# 5 0.0000 0.0000 0.0000 0.0000 15.2707 0.0000
# 6 0.0000 0.0000 0.0000 0.0000 0.0000 43.9533
#
#
#
# Elastic Compliance Matrix: (Units=1/GPa)
#
#
# Indices 1 2 3 4 5 6 
#
# 1 0.006528 -0.001747 -0.003764 0.000000 0.000000 0.000000
# 2 -0.001747 0.009753 -0.003352 0.000000 0.000000 0.000000
# 3 -0.003764 -0.003352 0.036043 0.000000 0.000000 0.000000
# 4 0.000000 0.000000 0.000000 0.312212 0.000000 0.000000
# 5 0.000000 0.000000 0.000000 0.000000 0.065485 0.000000
# 6 0.000000 0.000000 0.000000 0.000000 0.000000 0.022751
#
#
# Mechanical properties :
#
#
# Convention : Reuss Voigt Hill
#
# Bulk Modulus (GPa) = 28.90148 52.70584 40.80366
# Shear Modulus (GPa) = 10.37278 28.91406 19.64342
#
# Velocity S-wave (km/s) = 2.21111 3.69163 3.04279
# Velocity P-wave (km/s) = 4.48786 6.55841 5.61933
#
# Compressibility (1/GPa) = 0.03460030
#
# Stress axis : x y z
#
# Youngs Moduli (GPa) = 153.17483 102.53130 27.74445
#
# Poissons Ratio (x) = 0.17908 0.10442
# Poissons Ratio (y) = 0.26754 0.09300
# Poissons Ratio (z) = 0.57651 0.34368
#
# Static dielectric constant tensor:
#      x y z
#    x 1.806120 0.000000 0.000000 
#    y 0.000000 1.805260 0.000000 
#    z 0.000000 0.000000 1.886710 
# 
# From -- ./inp_files/5444.got.cif
#   From: 2010.05.17/outbox.cif.g08.bks.cpg/sg61_3_cif.got.tgz:5444.got - 2010.06.03 15:17:17.
