data_PCOD9459854
_publ_section_title
;
Structure prediction by ZEFSAII (Michael W. Deem and Ramdas Pophale) SiO2 
 PCOD9459854
Probable space group: P B C A
;
_chemical_formula_sum "Si O2"
_cell_formula_units_Z 64
_cell_length_a 15.817772
_cell_length_b 5.218617
_cell_length_c 33.297118
_cell_angle_alpha 90.000000
_cell_angle_beta 90.000000
_cell_angle_gamma 90.000000
_cell_volume 2748.573665
_symmetry_space_group_name_H-M "P B C A"
_symmetry_group_IT_number 61
_symmetry_cell_setting 'orthorhombic'
loop_
_space_group_symop_operation_xyz
x,y,z
1/2-x,-y,1/2+z
1/2+x,1/2-y,-z
-x,1/2+y,1/2-z
-x,-y,-z
1/2+x,y,1/2-z
1/2-x,1/2+y,z
x,1/2-y,1/2+z
loop_
_atom_site_type_symbol
_atom_site_label
_atom_site_fract_x
_atom_site_fract_y
_atom_site_fract_z
Si Si1 0.441795 0.729840 0.137949
Si Si2 0.301540 0.600319 0.696708
Si Si3 0.690546 0.227387 0.432663
Si Si4 0.694819 0.177898 0.606840
Si Si5 0.805074 0.795608 0.522078
Si Si6 0.631680 0.659823 0.232482
Si Si7 0.974180 0.355399 0.298634
Si Si8 0.901207 0.009893 0.666903
O O1 0.386387 0.738108 0.098294
O O2 0.448862 0.447287 0.157042
O O3 0.388128 0.883610 0.171924
O O4 0.537378 0.836631 0.136634
O O5 0.252500 0.854959 0.684978
O O6 0.317441 0.565066 0.744868
O O7 0.754289 0.468541 0.427434
O O8 0.656264 0.243912 0.478524
O O9 0.771741 0.387881 0.607541
O O10 0.649448 0.232280 0.564052
O O11 0.640676 0.272971 0.644205
O O12 0.727646 0.588255 0.523196
O O13 0.539867 0.562094 0.218415
O O14 0.607614 0.835268 0.270791
O O15 0.661631 0.813753 0.193327
O O16 0.034220 0.110905 0.301182
#
# Coordination Sequence:
#
# PCOD9459854 Si02
#       8
#     8   8   8   8   8   8   8   8
#     4  11  24  39  59  93 127 165 212 253 311 386
#     4  12  26  40  60  88 124 163 203 265 317 352
#     4  10  21  37  65  95 127 167 208 250 299 370
#     4  10  23  43  66  94 126 155 205 265 316 369
#     4   8  16  36  63  90 121 164 201 241 308 378
#     4  11  22  40  60  82 114 166 215 259 300 382
#     4  11  21  40  63  81 117 166 214 256 312 374
#     4  11  25  39  67  87 122 169 213 259 323 375
#
# _framework density 23.284804999999999
#
# number of rings (size 3 to 8) (size 9 to 14) (size 15 to 20)
#    0.000    1.500    2.500    2.250    7.000    1.000 
#    0.000    0.625    0.000    0.750    0.000    0.000 
#    0.000    0.000    0.000    0.000    0.000    0.000 
#
# Total GULP energy -357427.856163 kJ/mol
# GULP energy per Si atom -5584.810253 kJ/mol
# Density = 2.323181 g / cm^3
# Si number density = 23.284805 Si / 1000 Ang^3
#
#
#
# Elastic Constant Matrix: (Units=GPa)
#
#
# Indices 1 2 3 4 5 6 
#
# 1 37.4047 10.7661 11.0767 0.0000 0.0000 0.0000
# 2 10.7661 101.1693 -0.8351 0.0000 0.0000 0.0000
# 3 11.0767 -0.8351 102.9021 0.0000 0.0000 0.0000
# 4 0.0000 0.0000 0.0000 30.5995 0.0000 0.0000
# 5 0.0000 0.0000 0.0000 0.0000 16.9137 0.0000
# 6 0.0000 0.0000 0.0000 0.0000 0.0000 25.5380
#
#
#
# Elastic Compliance Matrix: (Units=1/GPa)
#
#
# Indices 1 2 3 4 5 6 
#
# 1 0.028533 -0.003062 -0.003096 0.000000 0.000000 0.000000
# 2 -0.003062 0.010214 0.000412 0.000000 0.000000 0.000000
# 3 -0.003096 0.000412 0.010055 0.000000 0.000000 0.000000
# 4 0.000000 0.000000 0.000000 0.032680 0.000000 0.000000
# 5 0.000000 0.000000 0.000000 0.000000 0.059124 0.000000
# 6 0.000000 0.000000 0.000000 0.000000 0.000000 0.039157
#
#
# Mechanical properties :
#
#
# Convention : Reuss Voigt Hill
#
# Bulk Modulus (GPa) = 26.80263 31.49908 29.15086
# Shear Modulus (GPa) = 24.54707 29.30814 26.92760
#
# Velocity S-wave (km/s) = 3.25038 3.55164 3.40434
# Velocity P-wave (km/s) = 5.06186 5.51144 5.29143
#
# Compressibility (1/GPa) = 0.03730977
#
# Stress axis : x y z
#
# Youngs Moduli (GPa) = 35.04735 97.90807 99.45690
#
# Poissons Ratio (x) = 0.29979 0.30794
# Poissons Ratio (y) = 0.10731 -0.04102
# Poissons Ratio (z) = 0.10851 -0.04039
#
# Static dielectric constant tensor:
#      x y z
#    x 1.871510 0.000000 0.000000 
#    y 0.000000 1.946850 0.000000 
#    z 0.000000 0.000000 1.931410 
# 
# From -- ./inp_files/11853.got.cif
#   From: 2010.05.17/outbox.cif.g08.bks.cpg/sg61_6_cif.got.tgz:11853.got - 2010.06.03 15:17:17.
