data_PCOD9460731
_publ_section_title
;
Structure prediction by ZEFSAII (Michael W. Deem and Ramdas Pophale) SiO2 
 PCOD9460731
Probable space group: P B C A
;
_chemical_formula_sum "Si O2"
_cell_formula_units_Z 40
_cell_length_a 10.918281
_cell_length_b 19.614970
_cell_length_c 7.188644
_cell_angle_alpha 90.000000
_cell_angle_beta 90.000000
_cell_angle_gamma 90.000000
_cell_volume 1539.532610
_symmetry_space_group_name_H-M "P B C A"
_symmetry_group_IT_number 61
_symmetry_cell_setting 'orthorhombic'
loop_
_space_group_symop_operation_xyz
x,y,z
1/2-x,-y,1/2+z
1/2+x,1/2-y,-z
-x,1/2+y,1/2-z
-x,-y,-z
1/2+x,y,1/2-z
1/2-x,1/2+y,z
x,1/2-y,1/2+z
loop_
_atom_site_type_symbol
_atom_site_label
_atom_site_fract_x
_atom_site_fract_y
_atom_site_fract_z
Si Si1 0.006751 0.820980 0.749020
Si Si2 0.242826 0.255973 0.873411
Si Si3 0.933577 0.930064 0.472749
Si Si4 0.748380 0.373738 0.310003
Si Si5 0.499444 0.575355 0.914029
O O1 0.130186 0.780161 0.778301
O O2 0.889153 0.774401 0.716653
O O3 0.005162 0.871508 0.573822
O O4 0.989530 0.870197 0.925745
O O5 0.246692 0.174097 0.884156
O O6 0.243182 0.304809 0.057315
O O7 0.791412 0.924788 0.513280
O O8 0.895427 0.913583 0.250864
O O9 0.000000 0.000000 0.500000
O O10 0.880603 0.410653 0.291840
O O11 0.500000 0.500000 0.000000
#
# Coordination Sequence:
#
# PCOD9460731 Si02
#       5
#     8   8   8   8   8
#     4  10  24  44  66 100 136 176 222 286 328 406
#     4  10  24  43  67  96 142 167 228 273 343 396
#     4  11  24  43  67  96 134 177 229 273 338 395
#     4  10  26  41  67 102 130 179 222 281 337 400
#     4  11  24  43  67  96 134 177 229 273 338 395
#
# _framework density 25.981909999999999
#
# number of rings (size 3 to 8) (size 9 to 14) (size 15 to 20)
#    0.000    1.600    2.000    0.000    8.400    6.400 
#    0.000    0.000    0.000    0.000    0.000    0.000 
#    0.000    0.000    0.000    0.000    0.000    0.000 
#
# Total GULP energy -222758.335908 kJ/mol
# GULP energy per Si atom -5568.958398 kJ/mol
# Density = 2.592277 g / cm^3
# Si number density = 25.981910 Si / 1000 Ang^3
#
#
#
# Elastic Constant Matrix: (Units=GPa)
#
#
# Indices 1 2 3 4 5 6 
#
# 1 174.8680 92.5834 47.6057 0.0000 0.0000 0.0000
# 2 92.5834 168.3257 44.3777 0.0000 0.0000 0.0000
# 3 47.6057 44.3777 104.0023 0.0000 0.0000 0.0000
# 4 0.0000 0.0000 0.0000 51.3128 0.0000 0.0000
# 5 0.0000 0.0000 0.0000 0.0000 49.7075 0.0000
# 6 0.0000 0.0000 0.0000 0.0000 0.0000 47.3530
#
#
#
# Elastic Compliance Matrix: (Units=1/GPa)
#
#
# Indices 1 2 3 4 5 6 
#
# 1 0.008466 -0.004096 -0.002128 0.000000 0.000000 0.000000
# 2 -0.004096 0.008675 -0.001827 0.000000 0.000000 0.000000
# 3 -0.002128 -0.001827 0.011369 0.000000 0.000000 0.000000
# 4 0.000000 0.000000 0.000000 0.019488 0.000000 0.000000
# 5 0.000000 0.000000 0.000000 0.000000 0.020118 0.000000
# 6 0.000000 0.000000 0.000000 0.000000 0.000000 0.021118
#
#
# Mechanical properties :
#
#
# Convention : Reuss Voigt Hill
#
# Bulk Modulus (GPa) = 80.58367 90.70329 85.64348
# Shear Modulus (GPa) = 45.67399 47.18330 46.42864
#
# Velocity S-wave (km/s) = 4.19730 4.26609 4.23183
# Velocity P-wave (km/s) = 7.38731 7.69753 7.54401
#
# Compressibility (1/GPa) = 0.01240946
#
# Stress axis : x y z
#
# Youngs Moduli (GPa) = 118.11513 115.26996 87.96108
#
# Poissons Ratio (x) = 0.47212 0.18715
# Poissons Ratio (y) = 0.48377 0.16070
# Poissons Ratio (z) = 0.25131 0.21059
#
# Static dielectric constant tensor:
#      x y z
#    x 2.087340 0.000000 0.000000 
#    y 0.000000 2.043510 0.000000 
#    z 0.000000 0.000000 2.661280 
# 
# From -- ./inp_files/2126.got.cif
#   From: 2010.05.17/outbox.cif.g08.bks.cpg/sg61_2_cif.got.tgz:2126.got - 2010.06.03 15:17:17.
