data_PCOD9460121
_publ_section_title
;
Structure prediction by ZEFSAII (Michael W. Deem and Ramdas Pophale) SiO2 
 PCOD9460121
Probable space group: P B C A
;
_chemical_formula_sum "Si O2"
_cell_formula_units_Z 64
_cell_length_a 27.707250
_cell_length_b 11.793840
_cell_length_c 8.088415
_cell_angle_alpha 90.000000
_cell_angle_beta 90.000000
_cell_angle_gamma 90.000000
_cell_volume 2643.090787
_symmetry_space_group_name_H-M "P B C A"
_symmetry_group_IT_number 61
_symmetry_cell_setting 'orthorhombic'
loop_
_space_group_symop_operation_xyz
x,y,z
1/2-x,-y,1/2+z
1/2+x,1/2-y,-z
-x,1/2+y,1/2-z
-x,-y,-z
1/2+x,y,1/2-z
1/2-x,1/2+y,z
x,1/2-y,1/2+z
loop_
_atom_site_type_symbol
_atom_site_label
_atom_site_fract_x
_atom_site_fract_y
_atom_site_fract_z
Si Si1 0.622113 0.708164 0.015212
Si Si2 0.057171 0.525078 0.312169
Si Si3 0.824251 0.685544 0.545324
Si Si4 0.882411 0.423301 0.168521
Si Si5 0.392524 0.664361 0.655945
Si Si6 0.768795 0.333157 0.559959
Si Si7 0.049824 0.396291 0.664794
Si Si8 0.211983 0.493595 0.718030
O O1 0.593729 0.621694 0.131056
O O2 0.602273 0.835119 0.028729
O O3 0.677488 0.712076 0.073381
O O4 0.619931 0.655203 0.833759
O O5 0.075713 0.448273 0.161365
O O6 0.054074 0.439585 0.473303
O O7 0.005514 0.583334 0.287719
O O8 0.858824 0.788793 0.489396
O O9 0.852176 0.640898 0.703449
O O10 0.771528 0.736977 0.571073
O O11 0.817792 0.588876 0.407196
O O12 0.917948 0.522931 0.220012
O O13 0.827997 0.469781 0.148156
O O14 0.429224 0.769934 0.682973
O O15 0.768173 0.401772 0.387382
O O16 0.754651 0.423642 0.699552
#
# Coordination Sequence:
#
# PCOD9460121 Si02
#       8
#     8   8   8   8   8   8   8   8
#     4  10  24  41  62  92 129 167 209 265 324 379
#     4  10  23  43  69  95 133 171 214 269 335 402
#     4  12  24  42  65  94 132 172 226 273 331 390
#     4  10  21  43  61  92 127 166 208 263 316 387
#     4  12  22  44  68  97 130 174 223 278 328 401
#     4  11  26  38  65  93 128 177 217 272 324 396
#     4  10  21  43  70  95 129 176 209 264 343 392
#     4  11  25  42  62  94 130 174 220 269 331 392
#
# _framework density 24.214075000000001
#
# number of rings (size 3 to 8) (size 9 to 14) (size 15 to 20)
#    0.000    1.250    3.750    1.500   10.500    0.000 
#    2.250    0.625    0.000    0.000    0.000    0.000 
#    0.000    0.000    0.000    0.000    0.000    0.000 
#
# Total GULP energy -358477.463545 kJ/mol
# GULP energy per Si atom -5601.210368 kJ/mol
# Density = 2.415896 g / cm^3
# Si number density = 24.214075 Si / 1000 Ang^3
#
#
#
# Elastic Constant Matrix: (Units=GPa)
#
#
# Indices 1 2 3 4 5 6 
#
# 1 140.1810 49.9184 6.3182 0.0000 0.0000 0.0000
# 2 49.9184 134.3930 10.2076 0.0000 0.0000 0.0000
# 3 6.3182 10.2076 33.0199 0.0000 0.0000 0.0000
# 4 0.0000 0.0000 0.0000 47.2778 0.0000 0.0000
# 5 0.0000 0.0000 0.0000 0.0000 -4.4834 0.0000
# 6 0.0000 0.0000 0.0000 0.0000 0.0000 19.8929
#
#
#
# Elastic Compliance Matrix: (Units=1/GPa)
#
#
# Indices 1 2 3 4 5 6 
#
# 1 0.008234 -0.003010 -0.000645 0.000000 0.000000 0.000000
# 2 -0.003010 0.008720 -0.002120 0.000000 0.000000 0.000000
# 3 -0.000645 -0.002120 0.031063 0.000000 0.000000 0.000000
# 4 0.000000 0.000000 0.000000 0.021152 0.000000 0.000000
# 5 0.000000 0.000000 0.000000 0.000000 -0.223047 0.000000
# 6 0.000000 0.000000 0.000000 0.000000 0.000000 0.050269
#
#
# Mechanical properties :
#
#
# Convention : Reuss Voigt Hill
#
# Bulk Modulus (GPa) = 27.42085 48.94247 38.18166
# Shear Modulus (GPa) = -62.57524 28.61411 -16.98056
#
# Velocity S-wave (km/s) = -5.08907 3.44134 -2.65102
# Velocity P-wave (km/s) = 4.81483 6.00389 2.53615
#
# Compressibility (1/GPa) = 0.03646860
#
# Stress axis : x y z
#
# Youngs Moduli (GPa) = 121.44153 114.68264 32.19214
#
# Poissons Ratio (x) = 0.34514 0.02077
# Poissons Ratio (y) = 0.36548 0.06824
# Poissons Ratio (z) = 0.07836 0.24309
#
# Static dielectric constant tensor:
#      x y z
#    x 1.866950 0.000000 0.000000 
#    y 0.000000 1.915630 0.000000 
#    z 0.000000 0.000000 2.005880 
# 
# From -- ./inp_files/4638.got.cif
#   From: 2010.05.17/outbox.cif.g08.bks.cpg/sg61_3_cif.got.tgz:4638.got - 2010.06.03 15:17:17.
