data_PCOD9460801
_publ_section_title
;
Structure prediction by ZEFSAII (Michael W. Deem and Ramdas Pophale) SiO2 
 PCOD9460801
Probable space group: P B C A
;
_chemical_formula_sum "Si O2"
_cell_formula_units_Z 64
_cell_length_a 8.496642
_cell_length_b 30.140423
_cell_length_c 9.772469
_cell_angle_alpha 90.000000
_cell_angle_beta 90.000000
_cell_angle_gamma 90.000000
_cell_volume 2502.654883
_symmetry_space_group_name_H-M "P B C A"
_symmetry_group_IT_number 61
_symmetry_cell_setting 'orthorhombic'
loop_
_space_group_symop_operation_xyz
x,y,z
1/2-x,-y,1/2+z
1/2+x,1/2-y,-z
-x,1/2+y,1/2-z
-x,-y,-z
1/2+x,y,1/2-z
1/2-x,1/2+y,z
x,1/2-y,1/2+z
loop_
_atom_site_type_symbol
_atom_site_label
_atom_site_fract_x
_atom_site_fract_y
_atom_site_fract_z
Si Si1 0.064047 0.292896 0.117366
Si Si2 0.388795 0.459157 0.840390
Si Si3 0.268260 0.872297 0.779777
Si Si4 0.690795 0.911308 0.217336
Si Si5 0.637617 0.792447 0.572635
Si Si6 0.067237 0.621356 0.038556
Si Si7 0.722475 0.500301 0.895863
Si Si8 0.532057 0.148482 0.628409
O O1 0.089177 0.313489 0.266599
O O2 0.950932 0.250750 0.123208
O O3 0.227924 0.282536 0.040668
O O4 0.974696 0.331838 0.032612
O O5 0.342309 0.408262 0.856115
O O6 0.565366 0.470942 0.878908
O O7 0.357796 0.474229 0.684360
O O8 0.275674 0.486430 0.945144
O O9 0.224377 0.821874 0.813752
O O10 0.435205 0.883702 0.845633
O O11 0.229945 0.878460 0.621118
O O12 0.702205 0.954798 0.307570
O O13 0.850378 0.892875 0.149514
O O14 0.630889 0.872353 0.316735
O O15 0.572184 0.913059 0.087353
O O16 0.508043 0.825576 0.508403
#
# Coordination Sequence:
#
# PCOD9460801 Si02
#       8
#     8   8   8   8   8   8   8   8
#     4  10  25  43  64 105 132 186 236 288 355 418
#     4  11  26  45  72 107 143 185 241 294 363 430
#     4  11  25  47  67 102 145 190 229 294 361 426
#     4  11  24  45  74 101 136 187 239 291 364 422
#     4  11  25  43  71  95 146 183 233 294 350 427
#     4  10  26  44  70 101 140 187 239 287 359 433
#     4  11  26  45  73 107 140 184 240 297 356 433
#     4  11  23  44  69 100 137 180 237 293 348 427
#
# _framework density 25.572841
#
# number of rings (size 3 to 8) (size 9 to 14) (size 15 to 20)
#    0.000    1.250    1.250    2.250   14.000    1.500 
#    0.000    0.000    0.000    0.000    0.000    0.000 
#    0.000    0.000    0.000    0.000    0.000    0.000 
#
# Total GULP energy -358491.257216 kJ/mol
# GULP energy per Si atom -5601.425894 kJ/mol
# Density = 2.551464 g / cm^3
# Si number density = 25.572841 Si / 1000 Ang^3
#
#
#
# Elastic Constant Matrix: (Units=GPa)
#
#
# Indices 1 2 3 4 5 6 
#
# 1 58.9213 41.0075 1.9090 0.0000 0.0000 0.0000
# 2 41.0075 76.1896 -3.6280 0.0000 0.0000 0.0000
# 3 1.9090 -3.6280 78.4517 0.0000 0.0000 0.0000
# 4 0.0000 0.0000 0.0000 23.3203 0.0000 0.0000
# 5 0.0000 0.0000 0.0000 0.0000 28.1882 0.0000
# 6 0.0000 0.0000 0.0000 0.0000 0.0000 23.1605
#
#
#
# Elastic Compliance Matrix: (Units=1/GPa)
#
#
# Indices 1 2 3 4 5 6 
#
# 1 0.027278 -0.014746 -0.001346 0.000000 0.000000 0.000000
# 2 -0.014746 0.021125 0.001336 0.000000 0.000000 0.000000
# 3 -0.001346 0.001336 0.012841 0.000000 0.000000 0.000000
# 4 0.000000 0.000000 0.000000 0.042881 0.000000 0.000000
# 5 0.000000 0.000000 0.000000 0.000000 0.035476 0.000000
# 6 0.000000 0.000000 0.000000 0.000000 0.000000 0.043177
#
#
# Mechanical properties :
#
#
# Convention : Reuss Voigt Hill
#
# Bulk Modulus (GPa) = 31.51294 32.45997 31.98645
# Shear Modulus (GPa) = 22.43478 26.55207 24.49343
#
# Velocity S-wave (km/s) = 2.96512 3.22575 3.09818
# Velocity P-wave (km/s) = 4.90634 5.15700 5.03323
#
# Compressibility (1/GPa) = 0.03173300
#
# Stress axis : x y z
#
# Youngs Moduli (GPa) = 36.65937 47.33624 77.87424
#
# Poissons Ratio (x) = 0.69802 0.10480
# Poissons Ratio (y) = 0.54058 -0.10402
# Poissons Ratio (z) = 0.04933 -0.06323
#
# Static dielectric constant tensor:
#      x y z
#    x 2.081350 0.000000 0.000000 
#    y 0.000000 1.973650 0.000000 
#    z 0.000000 0.000000 2.003820 
# 
# From -- ./inp_files/4959.got.cif
#   From: 2010.05.17/outbox.cif.g08.bks.cpg/sg61_3_cif.got.tgz:4959.got - 2010.06.03 15:17:17.
