data_PCOD9460796
_publ_section_title
;
Structure prediction by ZEFSAII (Michael W. Deem and Ramdas Pophale) SiO2 
 PCOD9460796
Probable space group: P B C A
;
_chemical_formula_sum "Si O2"
_cell_formula_units_Z 60
_cell_length_a 14.822844
_cell_length_b 7.376884
_cell_length_c 24.504808
_cell_angle_alpha 90.000000
_cell_angle_beta 90.000000
_cell_angle_gamma 90.000000
_cell_volume 2679.512556
_symmetry_space_group_name_H-M "P B C A"
_symmetry_group_IT_number 61
_symmetry_cell_setting 'orthorhombic'
loop_
_space_group_symop_operation_xyz
x,y,z
1/2-x,-y,1/2+z
1/2+x,1/2-y,-z
-x,1/2+y,1/2-z
-x,-y,-z
1/2+x,y,1/2-z
1/2-x,1/2+y,z
x,1/2-y,1/2+z
loop_
_atom_site_type_symbol
_atom_site_label
_atom_site_fract_x
_atom_site_fract_y
_atom_site_fract_z
Si Si1 0.848363 0.420402 0.918050
Si Si2 0.135540 0.513962 0.913651
Si Si3 0.500000 0.500000 0.500000
Si Si4 0.426829 0.174551 0.195777
Si Si5 0.337630 0.427574 0.936031
Si Si6 0.142159 0.998987 0.054813
Si Si7 0.569380 0.628861 0.701326
Si Si8 0.491092 0.025627 0.361392
O O1 0.872968 0.422316 0.853588
O O2 0.741711 0.452600 0.924586
O O3 0.865566 0.216505 0.937984
O O4 0.908201 0.536318 0.960577
O O5 0.052560 0.424026 0.944880
O O6 0.231349 0.429827 0.927182
O O7 0.131649 0.717977 0.939154
O O8 0.125284 0.542890 0.848850
O O9 0.380222 0.275149 0.247648
O O10 0.476150 0.345195 0.167810
O O11 0.498518 0.027081 0.217202
O O12 0.392021 0.508425 0.885712
O O13 0.363076 0.531982 0.990697
O O14 0.060074 0.073649 0.089889
O O15 0.515183 0.795498 0.674717
#
# Coordination Sequence:
#
# PCOD9460796 Si02
#       8
#     8   8   4   8   8   8   8   8
#     4  11  25  40  67 100 138 176 230 280 350 408
#     4  11  25  40  67 100 138 176 230 280 350 408
#     4  12  20  42  64 104 138 180 222 284 344 418
#     4  11  23  45  70  97 133 183 231 288 338 401
#     4  11  22  42  62 101 136 178 218 280 343 424
#     4  11  22  42  62 101 136 178 218 280 343 424
#     4  11  23  45  70  97 133 183 231 288 338 401
#     4  10  25  41  66 100 129 175 238 272 348 404
#
# _framework density 22.392133999999999
#
# number of rings (size 3 to 8) (size 9 to 14) (size 15 to 20)
#    0.000    1.067    5.333    0.400    3.733    0.000 
#    9.600    6.667    0.000    0.000    0.000    0.000 
#    0.000    0.000    0.000    0.000    0.000    0.000 
#
# Total GULP energy -334163.489598 kJ/mol
# GULP energy per Si atom -5569.391493 kJ/mol
# Density = 2.234117 g / cm^3
# Si number density = 22.392134 Si / 1000 Ang^3
#
#
#
# Elastic Constant Matrix: (Units=GPa)
#
#
# Indices 1 2 3 4 5 6 
#
# 1 68.8131 -4.8736 2.6874 0.0000 0.0000 0.0000
# 2 -4.8736 58.8199 8.0081 0.0000 0.0000 0.0000
# 3 2.6874 8.0081 111.4851 0.0000 0.0000 0.0000
# 4 0.0000 0.0000 0.0000 7.5850 0.0000 0.0000
# 5 0.0000 0.0000 0.0000 0.0000 39.1642 0.0000
# 6 0.0000 0.0000 0.0000 0.0000 0.0000 -302.3589
#
#
#
# Elastic Compliance Matrix: (Units=1/GPa)
#
#
# Indices 1 2 3 4 5 6 
#
# 1 0.014640 0.001273 -0.000444 0.000000 0.000000 0.000000
# 2 0.001273 0.017280 -0.001272 0.000000 0.000000 0.000000
# 3 -0.000444 -0.001272 0.009072 0.000000 0.000000 0.000000
# 4 0.000000 0.000000 0.000000 0.131839 0.000000 0.000000
# 5 0.000000 0.000000 0.000000 0.000000 0.025534 0.000000
# 6 0.000000 0.000000 0.000000 0.000000 0.000000 -0.003307
#
#
# Mechanical properties :
#
#
# Convention : Reuss Voigt Hill
#
# Bulk Modulus (GPa) = 24.93416 27.86246 26.39831
# Shear Modulus (GPa) = 23.88796 -35.56886 -5.84045
#
# Velocity S-wave (km/s) = 3.26974 -3.98986 -1.61676
# Velocity P-wave (km/s) = 5.04126 2.95895 2.88608
#
# Compressibility (1/GPa) = 0.04010562
#
# Stress axis : x y z
#
# Youngs Moduli (GPa) = 68.30760 57.87130 110.23072
#
# Poissons Ratio (x) = -0.07370 0.04898
# Poissons Ratio (y) = -0.08699 0.14021
# Poissons Ratio (z) = 0.03035 0.07361
#
# Static dielectric constant tensor:
#      x y z
#    x 1.833890 0.000000 0.000000 
#    y 0.000000 1.852140 0.000000 
#    z 0.000000 0.000000 1.916370 
# 
# From -- ./inp_files/11056.got.cif
#   From: 2010.05.17/outbox.cif.g08.bks.cpg/sg61_6_cif.got.tgz:11056.got - 2010.06.03 15:17:17.
