data_PCOD9460566
_publ_section_title
;
Structure prediction by ZEFSAII (Michael W. Deem and Ramdas Pophale) SiO2 
 PCOD9460566
Probable space group: P B C A
;
_chemical_formula_sum "Si O2"
_cell_formula_units_Z 56
_cell_length_a 30.497253
_cell_length_b 5.461802
_cell_length_c 13.510932
_cell_angle_alpha 90.000000
_cell_angle_beta 90.000000
_cell_angle_gamma 90.000000
_cell_volume 2250.515368
_symmetry_space_group_name_H-M "P B C A"
_symmetry_group_IT_number 61
_symmetry_cell_setting 'orthorhombic'
loop_
_space_group_symop_operation_xyz
x,y,z
1/2-x,-y,1/2+z
1/2+x,1/2-y,-z
-x,1/2+y,1/2-z
-x,-y,-z
1/2+x,y,1/2-z
1/2-x,1/2+y,z
x,1/2-y,1/2+z
loop_
_atom_site_type_symbol
_atom_site_label
_atom_site_fract_x
_atom_site_fract_y
_atom_site_fract_z
Si Si1 0.358239 0.419970 0.067828
Si Si2 0.073842 0.240412 0.946747
Si Si3 0.129100 0.279802 0.765566
Si Si4 0.770330 0.865973 0.213772
Si Si5 0.918843 0.064394 0.378158
Si Si6 0.263777 0.596878 0.017233
Si Si7 0.995186 0.117418 0.811507
O O1 0.362291 0.525075 0.179099
O O2 0.372589 0.140617 0.074064
O O3 0.392549 0.550900 0.995662
O O4 0.310520 0.469883 0.029539
O O5 0.103382 0.374375 0.862325
O O6 0.032094 0.119107 0.895454
O O7 0.057855 0.407886 0.037384
O O8 0.176948 0.163796 0.786522
O O9 0.095234 0.083482 0.718444
O O10 0.747659 0.621354 0.256903
O O11 0.754511 0.870474 0.099299
O O12 0.948204 0.298938 0.353627
O O13 0.233055 0.375801 0.056073
O O14 0.005830 0.353788 0.741059
#
# Coordination Sequence:
#
# PCOD9460566 Si02
#       7
#     8   8   8   8   8   8   8
#     4  11  26  43  72 107 144 193 248 300 372 438
#     4  11  25  47  74 104 147 195 240 306 367 440
#     4  11  24  46  68 106 144 189 247 305 365 444
#     4  10  23  42  69 102 140 191 241 297 364 433
#     4  11  27  45  74 109 143 197 247 302 372 445
#     4  10  23  43  69 102 144 190 241 298 361 435
#     4  12  27  50  78 112 151 192 244 304 370 439
#
# _framework density 24.883187
#
# number of rings (size 3 to 8) (size 9 to 14) (size 15 to 20)
#    0.000    1.143    2.857    1.286   10.000    4.000 
#    0.000    0.000    0.000    0.000    0.000    0.000 
#    0.000    0.000    0.000    0.000    0.000    0.000 
#
# Total GULP energy -313315.525145 kJ/mol
# GULP energy per Si atom -5594.920092 kJ/mol
# Density = 2.482655 g / cm^3
# Si number density = 24.883187 Si / 1000 Ang^3
#
#
#
# Elastic Constant Matrix: (Units=GPa)
#
#
# Indices 1 2 3 4 5 6 
#
# 1 93.2309 16.9672 -2.3377 0.0000 0.0000 0.0000
# 2 16.9672 74.6527 27.9378 0.0000 0.0000 0.0000
# 3 -2.3377 27.9378 64.0530 0.0000 0.0000 0.0000
# 4 0.0000 0.0000 0.0000 12.5103 0.0000 0.0000
# 5 0.0000 0.0000 0.0000 0.0000 37.2107 0.0000
# 6 0.0000 0.0000 0.0000 0.0000 0.0000 44.1342
#
#
#
# Elastic Compliance Matrix: (Units=1/GPa)
#
#
# Indices 1 2 3 4 5 6 
#
# 1 0.011368 -0.003273 0.001843 0.000000 0.000000 0.000000
# 2 -0.003273 0.016951 -0.007513 0.000000 0.000000 0.000000
# 3 0.001843 -0.007513 0.018956 0.000000 0.000000 0.000000
# 4 0.000000 0.000000 0.000000 0.079934 0.000000 0.000000
# 5 0.000000 0.000000 0.000000 0.000000 0.026874 0.000000
# 6 0.000000 0.000000 0.000000 0.000000 0.000000 0.022658
#
#
# Mechanical properties :
#
#
# Convention : Reuss Voigt Hill
#
# Bulk Modulus (GPa) = 34.02765 35.23016 34.62890
# Shear Modulus (GPa) = 24.45893 31.39567 27.92730
#
# Velocity S-wave (km/s) = 3.13860 3.55593 3.35376
# Velocity P-wave (km/s) = 5.18065 5.57211 5.37994
#
# Compressibility (1/GPa) = 0.02938787
#
# Stress axis : x y z
#
# Youngs Moduli (GPa) = 87.96648 58.99382 52.75322
#
# Poissons Ratio (x) = 0.19310 -0.09720
# Poissons Ratio (y) = 0.28794 0.39633
# Poissons Ratio (z) = -0.16209 0.44321
#
# Static dielectric constant tensor:
#      x y z
#    x 1.961560 0.000000 0.000000 
#    y 0.000000 1.996610 0.000000 
#    z 0.000000 0.000000 2.008740 
# 
# From -- ./inp_files/611.got.cif
#   From: 2010.05.17/outbox.cif.g08.bks.cpg/sg61_1_cif.got.tgz:611.got - 2010.06.03 15:17:17.
