data_PCOD9460498
_publ_section_title
;
Structure prediction by ZEFSAII (Michael W. Deem and Ramdas Pophale) SiO2 
 PCOD9460498
Probable space group: P B C A
;
_chemical_formula_sum "Si O2"
_cell_formula_units_Z 40
_cell_length_a 4.955927
_cell_length_b 18.551333
_cell_length_c 16.073177
_cell_angle_alpha 90.000000
_cell_angle_beta 90.000000
_cell_angle_gamma 90.000000
_cell_volume 1477.752658
_symmetry_space_group_name_H-M "P B C A"
_symmetry_group_IT_number 61
_symmetry_cell_setting 'orthorhombic'
loop_
_space_group_symop_operation_xyz
x,y,z
1/2-x,-y,1/2+z
1/2+x,1/2-y,-z
-x,1/2+y,1/2-z
-x,-y,-z
1/2+x,y,1/2-z
1/2-x,1/2+y,z
x,1/2-y,1/2+z
loop_
_atom_site_type_symbol
_atom_site_label
_atom_site_fract_x
_atom_site_fract_y
_atom_site_fract_z
Si Si1 0.586875 0.794045 0.471936
Si Si2 0.031180 0.395406 0.956544
Si Si3 0.781786 0.354021 0.793304
Si Si4 0.854715 0.986828 0.336399
Si Si5 0.679792 0.101017 0.624382
O O1 0.371687 0.746572 0.521162
O O2 0.672649 0.868042 0.520560
O O3 0.470457 0.821119 0.383261
O O4 0.912656 0.344778 0.883171
O O5 0.009762 0.472099 0.912057
O O6 0.850664 0.393974 0.038570
O O7 0.485717 0.326324 0.776623
O O8 0.775501 0.442106 0.783713
O O9 0.574113 0.952683 0.366997
O O10 0.082333 0.926521 0.312344
#
# Coordination Sequence:
#
# PCOD9460498 Si02
#       5
#     8   8   8   8   8
#     4  12  24  37  54  86 124 154 193 237 293 356
#     4  10  24  34  64  82 131 149 192 243 300 371
#     4  10  23  37  54  88 122 156 194 237 291 353
#     4  10  23  32  62  87 122 148 191 229 313 358
#     4  12  20  37  56  93 118 158 177 243 304 372
#
# _framework density 27.068131999999999
#
# number of rings (size 3 to 8) (size 9 to 14) (size 15 to 20)
#    1.200    0.000    4.000    2.400    5.600    0.000 
#    0.000    0.000    0.000    0.000    0.000   28.000 
#    0.000    0.000    0.000    0.000    0.000    0.000 
#
# Total GULP energy -223091.568535 kJ/mol
# GULP energy per Si atom -5577.289213 kJ/mol
# Density = 2.700652 g / cm^3
# Si number density = 27.068132 Si / 1000 Ang^3
#
#
#
# Elastic Constant Matrix: (Units=GPa)
#
#
# Indices 1 2 3 4 5 6 
#
# 1 178.6921 49.3441 -8.6407 0.0000 0.0000 0.0000
# 2 49.3441 47.7425 -0.0672 0.0000 0.0000 0.0000
# 3 -8.6407 -0.0672 56.6460 0.0000 0.0000 0.0000
# 4 0.0000 0.0000 0.0000 23.7414 0.0000 0.0000
# 5 0.0000 0.0000 0.0000 0.0000 32.1080 0.0000
# 6 0.0000 0.0000 0.0000 0.0000 0.0000 56.5732
#
#
#
# Elastic Compliance Matrix: (Units=1/GPa)
#
#
# Indices 1 2 3 4 5 6 
#
# 1 0.007912 -0.008175 0.001197 0.000000 0.000000 0.000000
# 2 -0.008175 0.029394 -0.001212 0.000000 0.000000 0.000000
# 3 0.001197 -0.001212 0.017835 0.000000 0.000000 0.000000
# 4 0.000000 0.000000 0.000000 0.042120 0.000000 0.000000
# 5 0.000000 0.000000 0.000000 0.000000 0.031145 0.000000
# 6 0.000000 0.000000 0.000000 0.000000 0.000000 0.017676
#
#
# Mechanical properties :
#
#
# Convention : Reuss Voigt Hill
#
# Bulk Modulus (GPa) = 25.80042 40.48367 33.14204
# Shear Modulus (GPa) = 28.50919 38.64748 33.57833
#
# Velocity S-wave (km/s) = 3.24888 3.78270 3.52591
# Velocity P-wave (km/s) = 4.86066 5.83671 5.37090
#
# Compressibility (1/GPa) = 0.03875907
#
# Stress axis : x y z
#
# Youngs Moduli (GPa) = 126.39582 34.02102 56.07057
#
# Poissons Ratio (x) = 0.27813 -0.06712
# Poissons Ratio (y) = 1.03333 0.06797
# Poissons Ratio (z) = -0.15131 0.04124
#
# Static dielectric constant tensor:
#      x y z
#    x 2.062690 0.000000 0.000000 
#    y 0.000000 2.337330 0.000000 
#    z 0.000000 0.000000 2.231810 
# 
# From -- ./inp_files/8733.got.cif
#   From: 2010.05.17/outbox.cif.g08.bks.cpg/sg61_5_cif.got.tgz:8733.got - 2010.06.03 15:17:17.
