data_PCOD9460148
_publ_section_title
;
Structure prediction by ZEFSAII (Michael W. Deem and Ramdas Pophale) SiO2 
 PCOD9460148
Probable space group: P B C A
;
_chemical_formula_sum "Si O2"
_cell_formula_units_Z 32
_cell_length_a 15.239015
_cell_length_b 5.278193
_cell_length_c 15.885751
_cell_angle_alpha 90.000000
_cell_angle_beta 90.000000
_cell_angle_gamma 90.000000
_cell_volume 1277.761840
_symmetry_space_group_name_H-M "P B C A"
_symmetry_group_IT_number 61
_symmetry_cell_setting 'orthorhombic'
loop_
_space_group_symop_operation_xyz
x,y,z
1/2-x,-y,1/2+z
1/2+x,1/2-y,-z
-x,1/2+y,1/2-z
-x,-y,-z
1/2+x,y,1/2-z
1/2-x,1/2+y,z
x,1/2-y,1/2+z
loop_
_atom_site_type_symbol
_atom_site_label
_atom_site_fract_x
_atom_site_fract_y
_atom_site_fract_z
Si Si1 0.777542 0.933204 0.807679
Si Si2 0.379530 0.615172 0.584540
Si Si3 0.977060 0.906604 0.698525
Si Si4 0.308533 0.776867 0.903945
O O1 0.733907 0.695694 0.761129
O O2 0.866791 0.858414 0.853484
O O3 0.706702 0.961272 0.884798
O O4 0.464053 0.465564 0.615652
O O5 0.366211 0.689325 0.489236
O O6 0.016951 0.670301 0.749992
O O7 0.879073 0.830244 0.670300
O O8 0.264621 0.499386 0.906208
#
# Coordination Sequence:
#
# PCOD9460148 Si02
#       4
#     8   8   8   8
#     4   8  16  32  60 102 120 156 226 278 342 378
#     4  10  21  43  75  99 137 178 247 292 344 418
#     4  12  30  49  67 107 154 195 234 288 371 444
#     4  12  24  50  74 111 136 188 245 314 350 421
#
# _framework density 25.043790999999999
#
# number of rings (size 3 to 8) (size 9 to 14) (size 15 to 20)
#    1.500    0.000    2.500    2.250    3.500    0.000 
#   13.500    5.000    0.000    0.000    0.000    0.000 
#    0.000    0.000    0.000    0.000    0.000    0.000 
#
# Total GULP energy -178783.153222 kJ/mol
# GULP energy per Si atom -5586.973538 kJ/mol
# Density = 2.498679 g / cm^3
# Si number density = 25.043791 Si / 1000 Ang^3
#
#
#
# Elastic Constant Matrix: (Units=GPa)
#
#
# Indices 1 2 3 4 5 6 
#
# 1 136.5794 36.7393 16.9571 0.0000 0.0000 0.0000
# 2 36.7393 173.4440 23.2071 0.0000 0.0000 0.0000
# 3 16.9571 23.2071 111.4855 0.0000 0.0000 0.0000
# 4 0.0000 0.0000 0.0000 31.0190 0.0000 0.0000
# 5 0.0000 0.0000 0.0000 0.0000 49.9356 0.0000
# 6 0.0000 0.0000 0.0000 0.0000 0.0000 42.1692
#
#
#
# Elastic Compliance Matrix: (Units=1/GPa)
#
#
# Indices 1 2 3 4 5 6 
#
# 1 0.007846 -0.001545 -0.000872 0.000000 0.000000 0.000000
# 2 -0.001545 0.006235 -0.001063 0.000000 0.000000 0.000000
# 3 -0.000872 -0.001063 0.009324 0.000000 0.000000 0.000000
# 4 0.000000 0.000000 0.000000 0.032238 0.000000 0.000000
# 5 0.000000 0.000000 0.000000 0.000000 0.020026 0.000000
# 6 0.000000 0.000000 0.000000 0.000000 0.000000 0.023714
#
#
# Mechanical properties :
#
#
# Convention : Reuss Voigt Hill
#
# Bulk Modulus (GPa) = 60.80975 63.92402 62.36688
# Shear Modulus (GPa) = 44.71326 47.59844 46.15585
#
# Velocity S-wave (km/s) = 4.22999 4.36433 4.29768
# Velocity P-wave (km/s) = 6.94198 7.13980 7.04159
#
# Compressibility (1/GPa) = 0.01644473
#
# Stress axis : x y z
#
# Youngs Moduli (GPa) = 127.45940 160.38281 107.25462
#
# Poissons Ratio (x) = 0.24783 0.09349
# Poissons Ratio (y) = 0.19696 0.11400
# Poissons Ratio (z) = 0.11110 0.17047
#
# Static dielectric constant tensor:
#      x y z
#    x 1.988860 0.000000 0.000000 
#    y 0.000000 2.044900 0.000000 
#    z 0.000000 0.000000 2.077860 
# 
# From -- ./inp_files/9382.got.cif
#   From: 2010.05.17/outbox.cif.g08.bks.cpg/sg61_5_cif.got.tgz:9382.got - 2010.06.03 15:17:17.
