data_PCOD9460159
_publ_section_title
;
Structure prediction by ZEFSAII (Michael W. Deem and Ramdas Pophale) SiO2 
 PCOD9460159
Probable space group: P B C A
;
_chemical_formula_sum "Si O2"
_cell_formula_units_Z 56
_cell_length_a 26.813302
_cell_length_b 15.321111
_cell_length_c 5.575900
_cell_angle_alpha 90.000000
_cell_angle_beta 90.000000
_cell_angle_gamma 90.000000
_cell_volume 2290.633116
_symmetry_space_group_name_H-M "P B C A"
_symmetry_group_IT_number 61
_symmetry_cell_setting 'orthorhombic'
loop_
_space_group_symop_operation_xyz
x,y,z
1/2-x,-y,1/2+z
1/2+x,1/2-y,-z
-x,1/2+y,1/2-z
-x,-y,-z
1/2+x,y,1/2-z
1/2-x,1/2+y,z
x,1/2-y,1/2+z
loop_
_atom_site_type_symbol
_atom_site_label
_atom_site_fract_x
_atom_site_fract_y
_atom_site_fract_z
Si Si1 0.141856 0.705767 0.350325
Si Si2 0.293254 0.614301 0.876104
Si Si3 0.028900 0.771247 0.314875
Si Si4 0.134555 0.270320 0.887517
Si Si5 0.137076 0.459232 0.764119
Si Si6 0.527115 0.975881 0.249935
Si Si7 0.801181 0.058666 0.379641
O O1 0.158226 0.742699 0.608152
O O2 0.081428 0.717624 0.340238
O O3 0.164498 0.610022 0.309942
O O4 0.316004 0.710601 0.837516
O O5 0.279549 0.537391 0.688520
O O6 0.338064 0.566541 0.016210
O O7 0.245594 0.617817 0.048963
O O8 0.003311 0.763345 0.573812
O O9 0.037681 0.872923 0.267779
O O10 0.108468 0.262651 0.628415
O O11 0.145202 0.372052 0.922534
O O12 0.079384 0.475636 0.743473
O O13 0.163418 0.539420 0.894411
O O14 0.500000 0.000000 0.500000
O O15 0.500000 0.000000 0.000000
#
# Coordination Sequence:
#
# PCOD9460159 Si02
#       7
#     8   8   8   8   8   8   8
#     4  10  24  40  67 107 140 189 238 297 372 434
#     4  11  25  42  70 111 153 199 254 302 370 462
#     4  10  21  44  72 107 147 186 237 315 381 445
#     4  10  22  43  66 100 145 197 242 299 358 440
#     4  11  25  46  74 102 153 196 246 315 379 448
#     4  12  29  50  79 115 146 198 259 322 390 459
#     4  12  24  43  74 108 154 197 254 304 378 450
#
# _framework density 24.447389999999999
#
# number of rings (size 3 to 8) (size 9 to 14) (size 15 to 20)
#    0.000    1.143    2.857    2.571    8.000    2.286 
#    0.000    8.571    0.000    0.000    0.000    0.000 
#    0.000    0.000    0.000    0.000    0.000    0.000 
#
# Total GULP energy -312803.186128 kJ/mol
# GULP energy per Si atom -5585.771181 kJ/mol
# Density = 2.439175 g / cm^3
# Si number density = 24.447390 Si / 1000 Ang^3
#
#
#
# Elastic Constant Matrix: (Units=GPa)
#
#
# Indices 1 2 3 4 5 6 
#
# 1 121.8717 38.5252 27.5244 0.0000 0.0000 0.0000
# 2 38.5252 100.4079 39.0941 0.0000 0.0000 0.0000
# 3 27.5244 39.0941 148.7409 0.0000 0.0000 0.0000
# 4 0.0000 0.0000 0.0000 57.4999 0.0000 0.0000
# 5 0.0000 0.0000 0.0000 0.0000 60.8755 0.0000
# 6 0.0000 0.0000 0.0000 0.0000 0.0000 -7.2907
#
#
#
# Elastic Compliance Matrix: (Units=1/GPa)
#
#
# Indices 1 2 3 4 5 6 
#
# 1 0.009442 -0.003278 -0.000886 0.000000 0.000000 0.000000
# 2 -0.003278 0.012233 -0.002609 0.000000 0.000000 0.000000
# 3 -0.000886 -0.002609 0.007573 0.000000 0.000000 0.000000
# 4 0.000000 0.000000 0.000000 0.017391 0.000000 0.000000
# 5 0.000000 0.000000 0.000000 0.000000 0.016427 0.000000
# 6 0.000000 0.000000 0.000000 0.000000 0.000000 -0.137161
#
#
# Mechanical properties :
#
#
# Convention : Reuss Voigt Hill
#
# Bulk Modulus (GPa) = 63.68295 64.58976 64.13636
# Shear Modulus (GPa) = -90.38647 39.94207 -25.22220
#
# Velocity S-wave (km/s) = -6.08704 4.04641 -3.21548
# Velocity P-wave (km/s) = 4.82672 6.95043 3.53633
#
# Compressibility (1/GPa) = 0.01570279
#
# Stress axis : x y z
#
# Youngs Moduli (GPa) = 105.91526 81.74826 132.05476
#
# Poissons Ratio (x) = 0.26795 0.11695
# Poissons Ratio (y) = 0.34716 0.34448
# Poissons Ratio (z) = 0.09380 0.21325
#
# Static dielectric constant tensor:
#      x y z
#    x 1.854720 0.000000 0.000000 
#    y 0.000000 1.965980 0.000000 
#    z 0.000000 0.000000 2.156540 
# 
# From -- ./inp_files/1465.got.cif
#   From: 2010.05.17/outbox.cif.g08.bks.cpg/sg61_1_cif.got.tgz:1465.got - 2010.06.03 15:17:17.
