data_PCOD9460697
_publ_section_title
;
Structure prediction by ZEFSAII (Michael W. Deem and Ramdas Pophale) SiO2 
 PCOD9460697
Probable space group: P B C A
;
_chemical_formula_sum "Si O2"
_cell_formula_units_Z 40
_cell_length_a 15.847282
_cell_length_b 10.309772
_cell_length_c 8.765624
_cell_angle_alpha 90.000000
_cell_angle_beta 90.000000
_cell_angle_gamma 90.000000
_cell_volume 1432.143990
_symmetry_space_group_name_H-M "P B C A"
_symmetry_group_IT_number 61
_symmetry_cell_setting 'orthorhombic'
loop_
_space_group_symop_operation_xyz
x,y,z
1/2-x,-y,1/2+z
1/2+x,1/2-y,-z
-x,1/2+y,1/2-z
-x,-y,-z
1/2+x,y,1/2-z
1/2-x,1/2+y,z
x,1/2-y,1/2+z
loop_
_atom_site_type_symbol
_atom_site_label
_atom_site_fract_x
_atom_site_fract_y
_atom_site_fract_z
Si Si1 0.101411 0.904492 0.326328
Si Si2 0.782626 0.257250 0.869676
Si Si3 0.731443 0.995680 0.571750
Si Si4 0.613813 0.354714 0.269587
Si Si5 0.518825 0.351892 0.588152
O O1 0.135153 0.780886 0.231561
O O2 0.185856 0.991232 0.324611
O O3 0.067163 0.853523 0.490100
O O4 0.031833 0.021203 0.303572
O O5 0.758566 0.391901 0.951170
O O6 0.699376 0.229307 0.768714
O O7 0.780431 0.140651 0.992107
O O8 0.647576 0.026087 0.669180
O O9 0.586235 0.364751 0.446479
O O10 0.541664 0.275616 0.181375
#
# Coordination Sequence:
#
# PCOD9460697 Si02
#       5
#     8   8   8   8   8
#     4  10  24  40  68  96 144 170 233 281 342 404
#     4  11  23  43  71 100 135 178 234 279 337 405
#     4  11  22  43  68 103 131 183 229 286 333 411
#     4  11  22  41  70  91 136 176 227 265 352 399
#     4  11  23  45  65 102 137 185 214 290 350 408
#
# _framework density 27.930152
#
# number of rings (size 3 to 8) (size 9 to 14) (size 15 to 20)
#    0.000    1.200    4.000    1.200    2.800    4.800 
#    0.000    1.000    0.000    0.000    0.000    0.000 
#    0.000    0.000    0.000    0.000    0.000    0.000 
#
# Total GULP energy -223460.339709 kJ/mol
# GULP energy per Si atom -5586.508493 kJ/mol
# Density = 2.786658 g / cm^3
# Si number density = 27.930152 Si / 1000 Ang^3
#
#
#
# Elastic Constant Matrix: (Units=GPa)
#
#
# Indices 1 2 3 4 5 6 
#
# 1 135.3658 4.1859 41.5976 0.0000 0.0000 0.0000
# 2 4.1859 164.2537 79.2774 0.0000 0.0000 0.0000
# 3 41.5976 79.2774 116.2612 0.0000 0.0000 0.0000
# 4 0.0000 0.0000 0.0000 85.9093 0.0000 0.0000
# 5 0.0000 0.0000 0.0000 0.0000 55.3585 0.0000
# 6 0.0000 0.0000 0.0000 0.0000 0.0000 21.0481
#
#
#
# Elastic Compliance Matrix: (Units=1/GPa)
#
#
# Indices 1 2 3 4 5 6 
#
# 1 0.008682 0.001905 -0.004406 0.000000 0.000000 0.000000
# 2 0.001905 0.009493 -0.007155 0.000000 0.000000 0.000000
# 3 -0.004406 -0.007155 0.015056 0.000000 0.000000 0.000000
# 4 0.000000 0.000000 0.000000 0.011640 0.000000 0.000000
# 5 0.000000 0.000000 0.000000 0.000000 0.018064 0.000000
# 6 0.000000 0.000000 0.000000 0.000000 0.000000 0.047510
#
#
# Mechanical properties :
#
#
# Convention : Reuss Voigt Hill
#
# Bulk Modulus (GPa) = 71.83321 74.00028 72.91674
# Shear Modulus (GPa) = 37.20330 51.85115 44.52722
#
# Velocity S-wave (km/s) = 3.65363 4.31334 3.99712
# Velocity P-wave (km/s) = 6.60102 7.16650 6.88957
#
# Compressibility (1/GPa) = 0.01392114
#
# Stress axis : x y z
#
# Youngs Moduli (GPa) = 115.17696 105.34275 66.41732
#
# Poissons Ratio (x) = -0.20069 0.29260
# Poissons Ratio (y) = -0.21942 0.47520
# Poissons Ratio (z) = 0.50742 0.75370
#
# Static dielectric constant tensor:
#      x y z
#    x 2.282480 0.000000 0.000000 
#    y 0.000000 2.257210 0.000000 
#    z 0.000000 0.000000 2.282460 
# 
# From -- ./inp_files/3312.got.cif
#   From: 2010.05.17/outbox.cif.g08.bks.cpg/sg61_2_cif.got.tgz:3312.got - 2010.06.03 15:17:17.
