data_PCOD9460031
_publ_section_title
;
Structure prediction by ZEFSAII (Michael W. Deem and Ramdas Pophale) SiO2 
 PCOD9460031
Probable space group: P B C A
;
_chemical_formula_sum "Si O2"
_cell_formula_units_Z 32
_cell_length_a 13.333042
_cell_length_b 8.350570
_cell_length_c 11.949318
_cell_angle_alpha 90.000000
_cell_angle_beta 90.000000
_cell_angle_gamma 90.000000
_cell_volume 1330.419149
_symmetry_space_group_name_H-M "P B C A"
_symmetry_group_IT_number 61
_symmetry_cell_setting 'orthorhombic'
loop_
_space_group_symop_operation_xyz
x,y,z
1/2-x,-y,1/2+z
1/2+x,1/2-y,-z
-x,1/2+y,1/2-z
-x,-y,-z
1/2+x,y,1/2-z
1/2-x,1/2+y,z
x,1/2-y,1/2+z
loop_
_atom_site_type_symbol
_atom_site_label
_atom_site_fract_x
_atom_site_fract_y
_atom_site_fract_z
Si Si1 0.116414 0.474008 0.024052
Si Si2 0.433273 0.053770 0.605968
Si Si3 0.074280 0.618439 0.240740
Si Si4 0.214489 0.803058 0.948565
O O1 0.116821 0.481595 0.158383
O O2 0.173459 0.627615 0.973792
O O3 0.166707 0.322685 0.963277
O O4 0.000000 0.500000 0.000000
O O5 0.446862 0.225422 0.666045
O O6 0.325845 0.080434 0.548457
O O7 0.500000 0.000000 0.500000
O O8 0.470383 0.931060 0.699982
O O9 0.160221 0.648687 0.333612
#
# Coordination Sequence:
#
# PCOD9460031 Si02
#       4
#     8   8   8   8
#     4  11  25  43  66 101 137 177 235 292 352 431
#     4   9  20  40  65 100 137 183 241 294 361 445
#     4  10  21  40  68  97 139 187 230 296 362 421
#     4  10  24  43  64  98 138 181 235 290 356 435
#
# _framework density 24.052572000000001
#
# number of rings (size 3 to 8) (size 9 to 14) (size 15 to 20)
#    0.000    2.000    0.000    1.500    0.000   18.000 
#    0.000    2.500    0.000    0.000    0.000    0.000 
#    0.000    0.000    0.000    0.000    0.000    0.000 
#
# Total GULP energy -178590.316567 kJ/mol
# GULP energy per Si atom -5580.947393 kJ/mol
# Density = 2.399783 g / cm^3
# Si number density = 24.052572 Si / 1000 Ang^3
#
#
#
# Elastic Constant Matrix: (Units=GPa)
#
#
# Indices 1 2 3 4 5 6 
#
# 1 104.7012 51.5201 20.3820 0.0000 0.0000 0.0000
# 2 51.5201 72.2264 37.9877 0.0000 0.0000 0.0000
# 3 20.3820 37.9877 116.9068 0.0000 0.0000 0.0000
# 4 0.0000 0.0000 0.0000 48.6433 0.0000 0.0000
# 5 0.0000 0.0000 0.0000 0.0000 16.2085 0.0000
# 6 0.0000 0.0000 0.0000 0.0000 0.0000 40.8118
#
#
#
# Elastic Compliance Matrix: (Units=1/GPa)
#
#
# Indices 1 2 3 4 5 6 
#
# 1 0.014818 -0.011110 0.001027 0.000000 0.000000 0.000000
# 2 -0.011110 0.025029 -0.006196 0.000000 0.000000 0.000000
# 3 0.001027 -0.006196 0.010388 0.000000 0.000000 0.000000
# 4 0.000000 0.000000 0.000000 0.020558 0.000000 0.000000
# 5 0.000000 0.000000 0.000000 0.000000 0.061696 0.000000
# 6 0.000000 0.000000 0.000000 0.000000 0.000000 0.024503
#
#
# Mechanical properties :
#
#
# Convention : Reuss Voigt Hill
#
# Bulk Modulus (GPa) = 56.57169 57.06822 56.81995
# Shear Modulus (GPa) = 25.58302 33.39570 29.48936
#
# Velocity S-wave (km/s) = 3.26487 3.73023 3.50528
# Velocity P-wave (km/s) = 6.14684 6.50621 6.32907
#
# Compressibility (1/GPa) = 0.01767669
#
# Stress axis : x y z
#
# Youngs Moduli (GPa) = 67.48602 39.95381 96.26343
#
# Poissons Ratio (x) = 0.44388 -0.09882
# Poissons Ratio (y) = 0.74975 0.59645
# Poissons Ratio (z) = -0.06928 0.24755
#
# Static dielectric constant tensor:
#      x y z
#    x 1.985590 0.000000 0.000000 
#    y 0.000000 2.190100 0.000000 
#    z 0.000000 0.000000 2.026510 
# 
# From -- ./inp_files/1978.got.cif
#   From: 2010.05.17/outbox.cif.g08.bks.cpg/sg61_1_cif.got.tgz:1978.got - 2010.06.03 15:17:17.
