data_PCOD9460887
_publ_section_title
;
Structure prediction by ZEFSAII (Michael W. Deem and Ramdas Pophale) SiO2 
 PCOD9460887
Probable space group: P B C A
;
_chemical_formula_sum "Si O2"
_cell_formula_units_Z 64
_cell_length_a 8.073119
_cell_length_b 20.409220
_cell_length_c 19.088813
_cell_angle_alpha 90.000000
_cell_angle_beta 90.000000
_cell_angle_gamma 90.000000
_cell_volume 3145.188542
_symmetry_space_group_name_H-M "P B C A"
_symmetry_group_IT_number 61
_symmetry_cell_setting 'orthorhombic'
loop_
_space_group_symop_operation_xyz
x,y,z
1/2-x,-y,1/2+z
1/2+x,1/2-y,-z
-x,1/2+y,1/2-z
-x,-y,-z
1/2+x,y,1/2-z
1/2-x,1/2+y,z
x,1/2-y,1/2+z
loop_
_atom_site_type_symbol
_atom_site_label
_atom_site_fract_x
_atom_site_fract_y
_atom_site_fract_z
Si Si1 0.161650 0.459912 0.934888
Si Si2 0.287303 0.441826 0.618022
Si Si3 0.813241 0.597658 0.531978
Si Si4 0.189262 0.579953 0.582310
Si Si5 0.199490 0.845148 0.854456
Si Si6 0.367343 0.234454 0.961698
Si Si7 0.837165 0.831749 0.789065
Si Si8 0.733384 0.223251 0.896289
O O1 0.208540 0.536187 0.938631
O O2 0.276033 0.417905 0.883444
O O3 0.975807 0.447870 0.908725
O O4 0.198317 0.431894 0.012742
O O5 0.190880 0.408936 0.552441
O O6 0.215389 0.514560 0.627212
O O7 0.262125 0.395539 0.684063
O O8 0.731469 0.666961 0.550413
O O9 0.000440 0.587888 0.557076
O O10 0.237742 0.647242 0.618928
O O11 0.211020 0.794707 0.918709
O O12 0.329942 0.828183 0.794094
O O13 0.022455 0.837865 0.817800
O O14 0.553811 0.228965 0.933505
O O15 0.359538 0.251743 0.043867
O O16 0.762190 0.768730 0.828433
#
# Coordination Sequence:
#
# PCOD9460887 Si02
#       8
#     8   8   8   8   8   8   8   8
#     4  11  21  36  59  86 118 154 197 245 298 355
#     4  11  21  36  59  86 118 154 197 245 298 355
#     4  11  21  35  58  88 121 152 195 248 300 351
#     4  11  21  35  58  88 121 152 195 248 300 351
#     4  11  24  41  61  87 121 160 201 246 301 364
#     4  11  22  37  60  89 121 157 201 249 302 357
#     4  11  24  41  61  87 121 160 201 246 301 364
#     4  11  22  37  60  89 121 157 201 249 302 357
#
# _framework density 20.348541999999998
#
# number of rings (size 3 to 8) (size 9 to 14) (size 15 to 20)
#    0.000    1.000    2.500    7.500    0.000    3.000 
#    0.000    1.250    0.000    3.000    0.000    0.000 
#    0.000    0.000    0.000    0.000    0.000    0.000 
#
# Total GULP energy -358095.527546 kJ/mol
# GULP energy per Si atom -5595.242618 kJ/mol
# Density = 2.030223 g / cm^3
# Si number density = 20.348542 Si / 1000 Ang^3
#
#
#
# Elastic Constant Matrix: (Units=GPa)
#
#
# Indices 1 2 3 4 5 6 
#
# 1 49.0346 5.0525 -15.9975 0.0000 0.0000 0.0000
# 2 5.0525 98.9171 2.7505 0.0000 0.0000 0.0000
# 3 -15.9975 2.7505 33.2504 0.0000 0.0000 0.0000
# 4 0.0000 0.0000 0.0000 20.5571 0.0000 0.0000
# 5 0.0000 0.0000 0.0000 0.0000 26.4557 0.0000
# 6 0.0000 0.0000 0.0000 0.0000 0.0000 23.7914
#
#
#
# Elastic Compliance Matrix: (Units=1/GPa)
#
#
# Indices 1 2 3 4 5 6 
#
# 1 0.024434 -0.001579 0.011886 0.000000 0.000000 0.000000
# 2 -0.001579 0.010235 -0.001606 0.000000 0.000000 0.000000
# 3 0.011886 -0.001606 0.035927 0.000000 0.000000 0.000000
# 4 0.000000 0.000000 0.000000 0.048645 0.000000 0.000000
# 5 0.000000 0.000000 0.000000 0.000000 0.037799 0.000000
# 6 0.000000 0.000000 0.000000 0.000000 0.000000 0.042032
#
#
# Mechanical properties :
#
#
# Convention : Reuss Voigt Hill
#
# Bulk Modulus (GPa) = 11.36374 18.31258 14.83816
# Shear Modulus (GPa) = 23.69655 26.78728 25.24191
#
# Velocity S-wave (km/s) = 3.41623 3.63219 3.52586
# Velocity P-wave (km/s) = 4.59973 5.15843 4.88707
#
# Compressibility (1/GPa) = 0.08799919
#
# Stress axis : x y z
#
# Youngs Moduli (GPa) = 40.92598 97.70617 27.83458
#
# Poissons Ratio (x) = 0.15424 -0.33086
# Poissons Ratio (y) = 0.06461 0.04471
# Poissons Ratio (z) = -0.48647 0.15693
#
# Static dielectric constant tensor:
#      x y z
#    x 1.761510 0.000000 0.000000 
#    y 0.000000 1.717790 0.000000 
#    z 0.000000 0.000000 1.694820 
# 
# From -- ./inp_files/9061.got.cif
#   From: 2010.05.17/outbox.cif.g08.bks.cpg/sg61_5_cif.got.tgz:9061.got - 2010.06.03 15:17:17.
