data_PCOD9460655
_publ_section_title
;
Structure prediction by ZEFSAII (Michael W. Deem and Ramdas Pophale) SiO2 
 PCOD9460655
Probable space group: P B C A
;
_chemical_formula_sum "Si O2"
_cell_formula_units_Z 48
_cell_length_a 9.659752
_cell_length_b 21.753352
_cell_length_c 9.344614
_cell_angle_alpha 90.000000
_cell_angle_beta 90.000000
_cell_angle_gamma 90.000000
_cell_volume 1963.602293
_symmetry_space_group_name_H-M "P B C A"
_symmetry_group_IT_number 61
_symmetry_cell_setting 'orthorhombic'
loop_
_space_group_symop_operation_xyz
x,y,z
1/2-x,-y,1/2+z
1/2+x,1/2-y,-z
-x,1/2+y,1/2-z
-x,-y,-z
1/2+x,y,1/2-z
1/2-x,1/2+y,z
x,1/2-y,1/2+z
loop_
_atom_site_type_symbol
_atom_site_label
_atom_site_fract_x
_atom_site_fract_y
_atom_site_fract_z
Si Si1 0.206262 0.818072 0.776739
Si Si2 0.182739 0.459572 0.084825
Si Si3 0.953015 0.381987 0.469218
Si Si4 0.020395 0.350845 0.929668
Si Si5 0.098771 0.814320 0.304943
Si Si6 0.276126 0.567742 0.903178
O O1 0.365137 0.831769 0.812976
O O2 0.181964 0.745667 0.759973
O O3 0.127825 0.853090 0.648719
O O4 0.119885 0.840381 0.913952
O O5 0.338230 0.432851 0.068026
O O6 0.163343 0.463501 0.256348
O O7 0.082049 0.409894 0.011080
O O8 0.181164 0.520435 0.989450
O O9 0.096202 0.414190 0.504653
O O10 0.982406 0.340341 0.330499
O O11 0.999731 0.302460 0.059140
O O12 0.197040 0.870912 0.352357
#
# Coordination Sequence:
#
# PCOD9460655 Si02
#       6
#     8   8   8   8   8   8
#     4  11  27  42  75 103 143 189 240 295 357 435
#     4  10  24  45  69 104 139 188 241 291 359 429
#     4  10  23  46  68 101 141 185 239 292 360 426
#     4  11  26  48  66 106 143 184 244 295 353 432
#     4  11  25  44  69 101 140 189 236 294 358 423
#     4  11  24  43  72 102 145 190 233 303 358 428
#
# _framework density 24.444869000000001
#
# number of rings (size 3 to 8) (size 9 to 14) (size 15 to 20)
#    0.000    1.333    1.667    1.500    9.333    2.000 
#    3.000    0.000    0.000    0.000    0.000    0.000 
#    0.000    0.000    0.000    0.000    0.000    0.000 
#
# Total GULP energy -268624.329930 kJ/mol
# GULP energy per Si atom -5596.340207 kJ/mol
# Density = 2.438923 g / cm^3
# Si number density = 24.444869 Si / 1000 Ang^3
#
#
#
# Elastic Constant Matrix: (Units=GPa)
#
#
# Indices 1 2 3 4 5 6 
#
# 1 88.2962 18.1082 17.4573 0.0000 0.0000 0.0000
# 2 18.1082 83.4776 9.8033 0.0000 0.0000 0.0000
# 3 17.4573 9.8033 90.7656 0.0000 0.0000 0.0000
# 4 0.0000 0.0000 0.0000 26.1355 0.0000 0.0000
# 5 0.0000 0.0000 0.0000 0.0000 44.0808 0.0000
# 6 0.0000 0.0000 0.0000 0.0000 0.0000 22.4389
#
#
#
# Elastic Compliance Matrix: (Units=1/GPa)
#
#
# Indices 1 2 3 4 5 6 
#
# 1 0.012233 -0.002408 -0.002093 0.000000 0.000000 0.000000
# 2 -0.002408 0.012607 -0.000899 0.000000 0.000000 0.000000
# 3 -0.002093 -0.000899 0.011517 0.000000 0.000000 0.000000
# 4 0.000000 0.000000 0.000000 0.038262 0.000000 0.000000
# 5 0.000000 0.000000 0.000000 0.000000 0.022686 0.000000
# 6 0.000000 0.000000 0.000000 0.000000 0.000000 0.044565
#
#
# Mechanical properties :
#
#
# Convention : Reuss Voigt Hill
#
# Bulk Modulus (GPa) = 39.12549 39.25301 39.18925
# Shear Modulus (GPa) = 31.01961 33.00908 32.01435
#
# Velocity S-wave (km/s) = 3.56611 3.67869 3.62284
# Velocity P-wave (km/s) = 5.74426 5.84263 5.79366
#
# Compressibility (1/GPa) = 0.02555878
#
# Stress axis : x y z
#
# Youngs Moduli (GPa) = 81.74545 79.32032 86.82854
#
# Poissons Ratio (x) = 0.19099 0.18171
# Poissons Ratio (y) = 0.19683 0.07802
# Poissons Ratio (z) = 0.17108 0.07127
#
# Static dielectric constant tensor:
#      x y z
#    x 1.932830 0.000000 0.000000 
#    y 0.000000 1.949980 0.000000 
#    z 0.000000 0.000000 1.973200 
# 
# From -- ./inp_files/2289.got.cif
#   From: 2010.05.17/outbox.cif.g08.bks.cpg/sg61_2_cif.got.tgz:2289.got - 2010.06.03 15:17:17.
