data_PCOD9460598
_publ_section_title
;
Structure prediction by ZEFSAII (Michael W. Deem and Ramdas Pophale) SiO2 
 PCOD9460598
Probable space group: P B C A
;
_chemical_formula_sum "Si O2"
_cell_formula_units_Z 56
_cell_length_a 18.622408
_cell_length_b 15.315137
_cell_length_c 8.472667
_cell_angle_alpha 90.000000
_cell_angle_beta 90.000000
_cell_angle_gamma 90.000000
_cell_volume 2416.444702
_symmetry_space_group_name_H-M "P B C A"
_symmetry_group_IT_number 61
_symmetry_cell_setting 'orthorhombic'
loop_
_space_group_symop_operation_xyz
x,y,z
1/2-x,-y,1/2+z
1/2+x,1/2-y,-z
-x,1/2+y,1/2-z
-x,-y,-z
1/2+x,y,1/2-z
1/2-x,1/2+y,z
x,1/2-y,1/2+z
loop_
_atom_site_type_symbol
_atom_site_label
_atom_site_fract_x
_atom_site_fract_y
_atom_site_fract_z
Si Si1 0.884366 0.661708 0.970304
Si Si2 0.715917 0.268274 0.734914
Si Si3 0.748670 0.876853 0.007130
Si Si4 0.543792 0.809730 0.936028
Si Si5 0.099324 0.040344 0.059142
Si Si6 0.116316 0.979863 0.421523
Si Si7 0.948375 0.367355 0.574162
O O1 0.843570 0.713286 0.833338
O O2 0.829292 0.672566 0.115500
O O3 0.900234 0.558582 0.957388
O O4 0.960879 0.701896 0.012454
O O5 0.759292 0.196266 0.639748
O O6 0.766445 0.327654 0.842983
O O7 0.699528 0.957104 0.051998
O O8 0.831124 0.904310 0.985517
O O9 0.548480 0.836687 0.754390
O O10 0.576108 0.890162 0.035543
O O11 0.576661 0.715181 0.971657
O O12 0.027868 0.096723 0.028748
O O13 0.099568 0.011360 0.243851
O O14 0.099585 0.952133 0.957091
#
# Coordination Sequence:
#
# PCOD9460598 Si02
#       7
#     8   8   8   8   8   8   8
#     4  11  22  42  70  99 133 174 232 279 338 408
#     4  10  23  43  71  98 127 184 228 277 337 408
#     4  11  25  45  68  97 140 178 227 278 339 410
#     4  12  24  44  67 102 134 180 220 293 337 406
#     4  11  25  46  69 104 134 185 227 288 340 411
#     4  12  27  42  67 102 143 176 229 276 350 417
#     4  11  25  44  73  99 138 174 237 284 350 399
#
# _framework density 23.174541000000001
#
# number of rings (size 3 to 8) (size 9 to 14) (size 15 to 20)
#    0.000    0.857    2.857    3.857    4.000    3.429 
#    2.571    0.000    0.000    0.000    0.000    0.000 
#    0.000    0.000    0.000    0.000    0.000    0.000 
#
# Total GULP energy -313503.529296 kJ/mol
# GULP energy per Si atom -5598.277309 kJ/mol
# Density = 2.312180 g / cm^3
# Si number density = 23.174541 Si / 1000 Ang^3
#
#
#
# Elastic Constant Matrix: (Units=GPa)
#
#
# Indices 1 2 3 4 5 6 
#
# 1 27.6693 -4.6159 -8.7078 0.0000 0.0000 0.0000
# 2 -4.6159 138.0874 22.3915 0.0000 0.0000 0.0000
# 3 -8.7078 22.3915 30.6400 0.0000 0.0000 0.0000
# 4 0.0000 0.0000 0.0000 37.1733 0.0000 0.0000
# 5 0.0000 0.0000 0.0000 0.0000 13.5724 0.0000
# 6 0.0000 0.0000 0.0000 0.0000 0.0000 38.7155
#
#
#
# Elastic Compliance Matrix: (Units=1/GPa)
#
#
# Indices 1 2 3 4 5 6 
#
# 1 0.039731 -0.000570 0.011708 0.000000 0.000000 0.000000
# 2 -0.000570 0.008224 -0.006172 0.000000 0.000000 0.000000
# 3 0.011708 -0.006172 0.040475 0.000000 0.000000 0.000000
# 4 0.000000 0.000000 0.000000 0.026901 0.000000 0.000000
# 5 0.000000 0.000000 0.000000 0.000000 0.073679 0.000000
# 6 0.000000 0.000000 0.000000 0.000000 0.000000 0.025829
#
#
# Mechanical properties :
#
#
# Convention : Reuss Voigt Hill
#
# Bulk Modulus (GPa) = 10.16666 23.83694 17.00180
# Shear Modulus (GPa) = 21.03551 30.38084 25.70817
#
# Velocity S-wave (km/s) = 3.01607 3.62464 3.33427
# Velocity P-wave (km/s) = 4.06515 5.27499 4.70909
#
# Compressibility (1/GPa) = 0.09836075
#
# Stress axis : x y z
#
# Youngs Moduli (GPa) = 25.16951 121.60266 24.70674
#
# Poissons Ratio (x) = 0.06937 -0.28927
# Poissons Ratio (y) = 0.01436 0.15248
# Poissons Ratio (z) = -0.29469 0.75051
#
# Static dielectric constant tensor:
#      x y z
#    x 1.862830 0.000000 0.000000 
#    y 0.000000 1.871840 0.000000 
#    z 0.000000 0.000000 1.867990 
# 
# From -- ./inp_files/3957.got.cif
#   From: 2010.05.17/outbox.cif.g08.bks.cpg/sg61_2_cif.got.tgz:3957.got - 2010.06.03 15:17:17.
