data_PCOD9460001
_publ_section_title
;
Structure prediction by ZEFSAII (Michael W. Deem and Ramdas Pophale) SiO2 
 PCOD9460001
Probable space group: P B C A
;
_chemical_formula_sum "Si O2"
_cell_formula_units_Z 64
_cell_length_a 12.780123
_cell_length_b 27.909455
_cell_length_c 7.994730
_cell_angle_alpha 90.000000
_cell_angle_beta 90.000000
_cell_angle_gamma 90.000000
_cell_volume 2851.610405
_symmetry_space_group_name_H-M "P B C A"
_symmetry_group_IT_number 61
_symmetry_cell_setting 'orthorhombic'
loop_
_space_group_symop_operation_xyz
x,y,z
1/2-x,-y,1/2+z
1/2+x,1/2-y,-z
-x,1/2+y,1/2-z
-x,-y,-z
1/2+x,y,1/2-z
1/2-x,1/2+y,z
x,1/2-y,1/2+z
loop_
_atom_site_type_symbol
_atom_site_label
_atom_site_fract_x
_atom_site_fract_y
_atom_site_fract_z
Si Si1 0.541725 0.809697 0.755721
Si Si2 0.042966 0.023914 0.230353
Si Si3 0.234393 0.080898 0.123560
Si Si4 0.048948 0.846205 0.208208
Si Si5 0.544505 0.931581 0.060003
Si Si6 0.615075 0.905305 0.603470
Si Si7 0.138880 0.316178 0.525973
Si Si8 0.848491 0.270333 0.076023
O O1 0.560227 0.865934 0.727233
O O2 0.426112 0.799502 0.688417
O O3 0.622423 0.782730 0.631309
O O4 0.571884 0.789318 0.934298
O O5 0.146730 0.040321 0.134127
O O6 0.030484 0.051136 0.410366
O O7 0.947669 0.045297 0.122057
O O8 0.036650 0.969391 0.288019
O O9 0.272998 0.088189 0.314134
O O10 0.336797 0.067916 0.014314
O O11 0.188172 0.131252 0.059305
O O12 0.947430 0.823787 0.118779
O O13 0.020090 0.879700 0.364965
O O14 0.126329 0.804749 0.267639
O O15 0.104954 0.881267 0.075546
O O16 0.231683 0.280263 0.483238
#
# Coordination Sequence:
#
# PCOD9460001 Si02
#       8
#     8   8   8   8   8   8   8   8
#     4  11  23  43  69  97 133 178 229 280 339 412
#     4  10  21  42  66  91 136 178 223 277 343 407
#     4  11  20  43  67  93 137 177 227 275 339 419
#     4  11  23  42  64  98 137 170 229 280 335 411
#     4  10  23  41  64 101 133 177 226 287 338 404
#     4  10  21  40  64  95 128 176 217 278 341 389
#     4  11  24  45  69  98 132 187 222 279 364 395
#     4  12  25  46  67  99 143 170 232 295 327 422
#
# _framework density 22.443459000000001
#
# number of rings (size 3 to 8) (size 9 to 14) (size 15 to 20)
#    0.000    1.250    5.000    2.250    0.000    4.500 
#    6.750    0.000    0.000    0.000    0.000    0.000 
#    0.000    0.000    0.000    0.000    0.000    0.000 
#
# Total GULP energy -357873.941641 kJ/mol
# GULP energy per Si atom -5591.780338 kJ/mol
# Density = 2.239238 g / cm^3
# Si number density = 22.443459 Si / 1000 Ang^3
#
#
#
# Elastic Constant Matrix: (Units=GPa)
#
#
# Indices 1 2 3 4 5 6 
#
# 1 97.8049 21.5061 11.2370 0.0000 0.0000 0.0000
# 2 21.5061 85.6871 7.0811 0.0000 0.0000 0.0000
# 3 11.2370 7.0811 72.5687 0.0000 0.0000 0.0000
# 4 0.0000 0.0000 0.0000 45.8901 0.0000 0.0000
# 5 0.0000 0.0000 0.0000 0.0000 27.4374 0.0000
# 6 0.0000 0.0000 0.0000 0.0000 0.0000 27.9959
#
#
#
# Elastic Compliance Matrix: (Units=1/GPa)
#
#
# Indices 1 2 3 4 5 6 
#
# 1 0.010969 -0.002634 -0.001442 0.000000 0.000000 0.000000
# 2 -0.002634 0.012398 -0.000802 0.000000 0.000000 0.000000
# 3 -0.001442 -0.000802 0.014082 0.000000 0.000000 0.000000
# 4 0.000000 0.000000 0.000000 0.021791 0.000000 0.000000
# 5 0.000000 0.000000 0.000000 0.000000 0.036447 0.000000
# 6 0.000000 0.000000 0.000000 0.000000 0.000000 0.035719
#
#
# Mechanical properties :
#
#
# Convention : Reuss Voigt Hill
#
# Bulk Modulus (GPa) = 36.10930 37.30100 36.70515
# Shear Modulus (GPa) = 33.24651 34.68046 33.96348
#
# Velocity S-wave (km/s) = 3.85300 3.93521 3.89432
# Velocity P-wave (km/s) = 5.99317 6.10770 6.05070
#
# Compressibility (1/GPa) = 0.02769369
#
# Stress axis : x y z
#
# Youngs Moduli (GPa) = 91.16403 80.66000 71.01515
#
# Poissons Ratio (x) = 0.21246 0.10237
# Poissons Ratio (y) = 0.24012 0.05695
# Poissons Ratio (z) = 0.13142 0.06468
#
# Static dielectric constant tensor:
#      x y z
#    x 1.797350 0.000000 0.000000 
#    y 0.000000 1.816080 0.000000 
#    z 0.000000 0.000000 1.893940 
# 
# From -- ./inp_files/2433.got.cif
#   From: 2010.05.17/outbox.cif.g08.bks.cpg/sg61_2_cif.got.tgz:2433.got - 2010.06.03 15:17:17.
