data_PCOD9460186
_publ_section_title
;
Structure prediction by ZEFSAII (Michael W. Deem and Ramdas Pophale) SiO2 
 PCOD9460186
Probable space group: P B C A
;
_chemical_formula_sum "Si O2"
_cell_formula_units_Z 48
_cell_length_a 21.227514
_cell_length_b 8.624598
_cell_length_c 8.621375
_cell_angle_alpha 90.000000
_cell_angle_beta 90.000000
_cell_angle_gamma 90.000000
_cell_volume 1578.390772
_symmetry_space_group_name_H-M "P B C A"
_symmetry_group_IT_number 61
_symmetry_cell_setting 'orthorhombic'
loop_
_space_group_symop_operation_xyz
x,y,z
1/2-x,-y,1/2+z
1/2+x,1/2-y,-z
-x,1/2+y,1/2-z
-x,-y,-z
1/2+x,y,1/2-z
1/2-x,1/2+y,z
x,1/2-y,1/2+z
loop_
_atom_site_type_symbol
_atom_site_label
_atom_site_fract_x
_atom_site_fract_y
_atom_site_fract_z
Si Si1 0.752317 0.589187 0.298606
Si Si2 0.074875 0.492157 0.880294
Si Si3 0.161092 0.669243 0.650295
Si Si4 0.000908 0.234748 0.743473
Si Si5 0.587040 0.513659 0.136042
Si Si6 0.831042 0.741393 0.050053
O O1 0.684048 0.653355 0.342943
O O2 0.770280 0.412443 0.325945
O O3 0.774380 0.647587 0.130849
O O4 0.804428 0.664542 0.408987
O O5 0.126562 0.599200 0.799379
O O6 0.054091 0.365659 0.749135
O O7 0.113153 0.379080 0.992609
O O8 0.018066 0.618021 0.897979
O O9 0.117067 0.613372 0.507443
O O10 0.941155 0.354074 0.752307
O O11 0.026136 0.108274 0.870357
O O12 0.640614 0.382000 0.155688
#
# Coordination Sequence:
#
# PCOD9460186 Si02
#       6
#     8   8   8   8   8   8
#     4  10  22  38  59  85 122 160 197 243 294 348
#     4   9  19  36  56  82 115 151 197 246 297 352
#     4  10  22  37  57  84 118 157 199 246 294 350
#     4   9  18  33  56  80 112 153 194 245 302 350
#     4   9  19  36  56  82 115 151 197 246 297 352
#     4   9  20  39  58  86 122 155 198 249 292 350
#
# _framework density 30.410720000000001
#
# number of rings (size 3 to 8) (size 9 to 14) (size 15 to 20)
#    0.000    2.667    0.000    0.000    0.000   12.000 
#    0.000    3.333    0.000   12.000    0.000    0.000 
#    0.000    0.000    0.000    0.000    0.000    0.000 
#
# Total GULP energy -267677.625090 kJ/mol
# GULP energy per Si atom -5576.617189 kJ/mol
# Density = 3.034150 g / cm^3
# Si number density = 30.410720 Si / 1000 Ang^3
#
#
#
# Elastic Constant Matrix: (Units=GPa)
#
#
# Indices 1 2 3 4 5 6 
#
# 1 139.8049 49.8932 -6.0928 0.0000 0.0000 0.0000
# 2 49.8932 185.1812 -3.2112 0.0000 0.0000 0.0000
# 3 -6.0928 -3.2112 40.0502 0.0000 0.0000 0.0000
# 4 0.0000 0.0000 0.0000 49.3284 0.0000 0.0000
# 5 0.0000 0.0000 0.0000 0.0000 32.6786 0.0000
# 6 0.0000 0.0000 0.0000 0.0000 0.0000 97.9853
#
#
#
# Elastic Compliance Matrix: (Units=1/GPa)
#
#
# Indices 1 2 3 4 5 6 
#
# 1 0.007957 -0.002126 0.001040 0.000000 0.000000 0.000000
# 2 -0.002126 0.005976 0.000156 0.000000 0.000000 0.000000
# 3 0.001040 0.000156 0.025139 0.000000 0.000000 0.000000
# 4 0.000000 0.000000 0.000000 0.020272 0.000000 0.000000
# 5 0.000000 0.000000 0.000000 0.000000 0.030601 0.000000
# 6 0.000000 0.000000 0.000000 0.000000 0.000000 0.010206
#
#
# Mechanical properties :
#
#
# Convention : Reuss Voigt Hill
#
# Bulk Modulus (GPa) = 26.87327 49.57942 38.22635
# Shear Modulus (GPa) = 43.70069 57.62825 50.66447
#
# Velocity S-wave (km/s) = 3.79491 4.35788 4.08610
# Velocity P-wave (km/s) = 5.29696 6.45447 5.90415
#
# Compressibility (1/GPa) = 0.03721170
#
# Stress axis : x y z
#
# Youngs Moduli (GPa) = 125.67891 167.34844 39.77821
#
# Poissons Ratio (x) = 0.35574 -0.04137
# Poissons Ratio (y) = 0.26716 -0.00619
# Poissons Ratio (z) = -0.13071 -0.02606
#
# Static dielectric constant tensor:
#      x y z
#    x 2.455570 0.000000 0.000000 
#    y 0.000000 2.378760 0.000000 
#    z 0.000000 0.000000 2.393530 
# 
# From -- ./inp_files/6581.got.cif
#   From: 2010.05.17/outbox.cif.g08.bks.cpg/sg61_4_cif.got.tgz:6581.got - 2010.06.03 15:17:17.
