data_PCOD9460473
_publ_section_title
;
Structure prediction by ZEFSAII (Michael W. Deem and Ramdas Pophale) SiO2 
 PCOD9460473
Probable space group: P B C A
;
_chemical_formula_sum "Si O2"
_cell_formula_units_Z 64
_cell_length_a 24.759032
_cell_length_b 14.113804
_cell_length_c 8.256006
_cell_angle_alpha 90.000000
_cell_angle_beta 90.000000
_cell_angle_gamma 90.000000
_cell_volume 2885.012792
_symmetry_space_group_name_H-M "P B C A"
_symmetry_group_IT_number 61
_symmetry_cell_setting 'orthorhombic'
loop_
_space_group_symop_operation_xyz
x,y,z
1/2-x,-y,1/2+z
1/2+x,1/2-y,-z
-x,1/2+y,1/2-z
-x,-y,-z
1/2+x,y,1/2-z
1/2-x,1/2+y,z
x,1/2-y,1/2+z
loop_
_atom_site_type_symbol
_atom_site_label
_atom_site_fract_x
_atom_site_fract_y
_atom_site_fract_z
Si Si1 0.285356 0.520213 0.004708
Si Si2 0.134157 0.787850 0.204754
Si Si3 0.366817 0.701699 0.582557
Si Si4 0.934279 0.060395 0.639647
Si Si5 0.054002 0.044430 0.703444
Si Si6 0.884632 0.102257 0.116921
Si Si7 0.629074 0.113017 0.273215
Si Si8 0.744334 0.143181 0.792426
O O1 0.316532 0.567695 0.155137
O O2 0.244636 0.444512 0.080785
O O3 0.330360 0.459792 0.906910
O O4 0.261565 0.598219 0.885409
O O5 0.107751 0.854245 0.342943
O O6 0.121785 0.679324 0.241406
O O7 0.198564 0.804133 0.196398
O O8 0.109654 0.834408 0.043345
O O9 0.402470 0.627673 0.684160
O O10 0.364663 0.664235 0.399830
O O11 0.389931 0.807099 0.600806
O O12 0.307048 0.704683 0.659104
O O13 0.939850 0.019619 0.458912
O O14 0.911486 0.973297 0.745583
O O15 0.993901 0.085526 0.701968
O O16 0.068745 0.973059 0.847257
#
# Coordination Sequence:
#
# PCOD9460473 Si02
#       8
#     8   8   8   8   8   8   8   8
#     4  11  23  40  65  96 133 182 217 267 330 397
#     4  11  25  41  63  98 131 175 214 270 324 395
#     4  11  24  40  67  99 131 175 220 267 330 395
#     4  10  22  46  67  95 131 169 220 268 335 378
#     4  10  23  43  70  95 129 172 215 276 321 392
#     4  11  23  43  65  97 133 171 224 264 329 388
#     4  11  23  44  65  95 136 171 223 274 326 397
#     4  11  23  39  64  98 134 175 217 267 327 397
#
# _framework density 22.183610999999999
#
# number of rings (size 3 to 8) (size 9 to 14) (size 15 to 20)
#    0.000    1.250    3.750    2.250    1.750    7.500 
#    0.000    2.500    0.000    0.000    0.000    0.000 
#    0.000    0.000    0.000    0.000    0.000    0.000 
#
# Total GULP energy -358002.214482 kJ/mol
# GULP energy per Si atom -5593.784601 kJ/mol
# Density = 2.213312 g / cm^3
# Si number density = 22.183611 Si / 1000 Ang^3
#
#
#
# Elastic Constant Matrix: (Units=GPa)
#
#
# Indices 1 2 3 4 5 6 
#
# 1 63.6539 11.1231 3.8527 0.0000 0.0000 0.0000
# 2 11.1231 91.0515 10.6717 0.0000 0.0000 0.0000
# 3 3.8527 10.6717 53.9968 0.0000 0.0000 0.0000
# 4 0.0000 0.0000 0.0000 46.7600 0.0000 0.0000
# 5 0.0000 0.0000 0.0000 0.0000 22.2040 0.0000
# 6 0.0000 0.0000 0.0000 0.0000 0.0000 5.0808
#
#
#
# Elastic Compliance Matrix: (Units=1/GPa)
#
#
# Indices 1 2 3 4 5 6 
#
# 1 0.016084 -0.001874 -0.000777 0.000000 0.000000 0.000000
# 2 -0.001874 0.011462 -0.002132 0.000000 0.000000 0.000000
# 3 -0.000777 -0.002132 0.018996 0.000000 0.000000 0.000000
# 4 0.000000 0.000000 0.000000 0.021386 0.000000 0.000000
# 5 0.000000 0.000000 0.000000 0.000000 0.045037 0.000000
# 6 0.000000 0.000000 0.000000 0.000000 0.000000 0.196820
#
#
# Mechanical properties :
#
#
# Convention : Reuss Voigt Hill
#
# Bulk Modulus (GPa) = 27.04380 28.88857 27.96619
# Shear Modulus (GPa) = 15.07496 27.01260 21.04378
#
# Velocity S-wave (km/s) = 2.60965 3.49332 3.08331
# Velocity P-wave (km/s) = 4.61495 5.41496 5.03088
#
# Compressibility (1/GPa) = 0.03697705
#
# Stress axis : x y z
#
# Youngs Moduli (GPa) = 62.17189 87.24839 52.64170
#
# Poissons Ratio (x) = 0.16349 0.04092
# Poissons Ratio (y) = 0.11650 0.11221
# Poissons Ratio (z) = 0.04833 0.18597
#
# Static dielectric constant tensor:
#      x y z
#    x 1.778810 0.000000 0.000000 
#    y 0.000000 1.784060 0.000000 
#    z 0.000000 0.000000 1.867470 
# 
# From -- ./inp_files/4347.got.cif
#   From: 2010.05.17/outbox.cif.g08.bks.cpg/sg61_3_cif.got.tgz:4347.got - 2010.06.03 15:17:17.
