data_PCOD9460154
_publ_section_title
;
Structure prediction by ZEFSAII (Michael W. Deem and Ramdas Pophale) SiO2 
 PCOD9460154
Probable space group: P B C A
;
_chemical_formula_sum "Si O2"
_cell_formula_units_Z 40
_cell_length_a 17.253142
_cell_length_b 8.129187
_cell_length_c 11.324680
_cell_angle_alpha 90.000000
_cell_angle_beta 90.000000
_cell_angle_gamma 90.000000
_cell_volume 1588.331869
_symmetry_space_group_name_H-M "P B C A"
_symmetry_group_IT_number 61
_symmetry_cell_setting 'orthorhombic'
loop_
_space_group_symop_operation_xyz
x,y,z
1/2-x,-y,1/2+z
1/2+x,1/2-y,-z
-x,1/2+y,1/2-z
-x,-y,-z
1/2+x,y,1/2-z
1/2-x,1/2+y,z
x,1/2-y,1/2+z
loop_
_atom_site_type_symbol
_atom_site_label
_atom_site_fract_x
_atom_site_fract_y
_atom_site_fract_z
Si Si1 0.096472 0.659382 0.142973
Si Si2 0.506723 0.517504 0.790649
Si Si3 0.161694 0.454623 0.337854
Si Si4 0.220612 0.857197 0.047071
Si Si5 0.660172 0.343230 0.822606
O O1 0.160947 0.585493 0.230720
O O2 0.029964 0.520349 0.160218
O O3 0.052535 0.813992 0.198968
O O4 0.148791 0.726949 0.036637
O O5 0.430005 0.530730 0.872612
O O6 0.568544 0.378874 0.826974
O O7 0.217509 0.524106 0.436030
O O8 0.174313 0.270147 0.291973
O O9 0.196359 0.976288 0.156649
O O10 0.301151 0.770248 0.076120
#
# Coordination Sequence:
#
# PCOD9460154 Si02
#       5
#     8   8   8   8   8
#     4   9  19  38  67  96 134 171 219 276 329 400
#     4   9  18  41  70  94 136 178 215 291 326 393
#     4  10  21  44  67  96 137 175 224 273 342 396
#     4  11  25  40  68  96 137 181 219 281 341 404
#     4  11  23  42  66  98 134 177 229 278 331 401
#
# _framework density 25.183651999999999
#
# number of rings (size 3 to 8) (size 9 to 14) (size 15 to 20)
#    1.200    0.800    2.000    1.200    0.000    6.400 
#    0.000    7.000    0.000    0.000    0.000    0.000 
#    0.000    0.000    0.000    0.000    0.000    0.000 
#
# Total GULP energy -222718.411600 kJ/mol
# GULP energy per Si atom -5567.960290 kJ/mol
# Density = 2.512633 g / cm^3
# Si number density = 25.183652 Si / 1000 Ang^3
#
#
#
# Elastic Constant Matrix: (Units=GPa)
#
#
# Indices 1 2 3 4 5 6 
#
# 1 97.6172 33.7760 -3.3380 0.0000 0.0000 0.0000
# 2 33.7760 82.2743 -2.0113 0.0000 0.0000 0.0000
# 3 -3.3380 -2.0113 9.4630 0.0000 0.0000 0.0000
# 4 0.0000 0.0000 0.0000 34.9345 0.0000 0.0000
# 5 0.0000 0.0000 0.0000 0.0000 16.6063 0.0000
# 6 0.0000 0.0000 0.0000 0.0000 0.0000 58.5027
#
#
#
# Elastic Compliance Matrix: (Units=1/GPa)
#
#
# Indices 1 2 3 4 5 6 
#
# 1 0.012036 -0.004863 0.003212 0.000000 0.000000 0.000000
# 2 -0.004863 0.014183 0.001299 0.000000 0.000000 0.000000
# 3 0.003212 0.001299 0.107084 0.000000 0.000000 0.000000
# 4 0.000000 0.000000 0.000000 0.028625 0.000000 0.000000
# 5 0.000000 0.000000 0.000000 0.000000 0.060218 0.000000
# 6 0.000000 0.000000 0.000000 0.000000 0.000000 0.017093
#
#
# Mechanical properties :
#
#
# Convention : Reuss Voigt Hill
#
# Bulk Modulus (GPa) = 7.54148 27.35643 17.44896
# Shear Modulus (GPa) = 17.59682 32.73721 25.16701
#
# Velocity S-wave (km/s) = 2.64624 3.60938 3.16466
# Velocity P-wave (km/s) = 3.51253 5.31568 4.50524
#
# Compressibility (1/GPa) = 0.13259989
#
# Stress axis : x y z
#
# Youngs Moduli (GPa) = 83.08073 70.50923 9.33848
#
# Poissons Ratio (x) = 0.34287 -0.03000
# Poissons Ratio (y) = 0.40400 -0.01213
# Poissons Ratio (z) = -0.26687 -0.09160
#
# Static dielectric constant tensor:
#      x y z
#    x 2.092800 0.000000 0.000000 
#    y 0.000000 2.043260 0.000000 
#    z 0.000000 0.000000 2.064010 
# 
# From -- ./inp_files/6095.got.cif
#   From: 2010.05.17/outbox.cif.g08.bks.cpg/sg61_4_cif.got.tgz:6095.got - 2010.06.03 15:17:17.
