data_PCOD9460969
_publ_section_title
;
Structure prediction by ZEFSAII (Michael W. Deem and Ramdas Pophale) SiO2 
 PCOD9460969
Probable space group: P B C A
;
_chemical_formula_sum "Si O2"
_cell_formula_units_Z 60
_cell_length_a 11.783849
_cell_length_b 13.884828
_cell_length_c 17.193393
_cell_angle_alpha 90.000000
_cell_angle_beta 90.000000
_cell_angle_gamma 90.000000
_cell_volume 2813.126509
_symmetry_space_group_name_H-M "P B C A"
_symmetry_group_IT_number 61
_symmetry_cell_setting 'orthorhombic'
loop_
_space_group_symop_operation_xyz
x,y,z
1/2-x,-y,1/2+z
1/2+x,1/2-y,-z
-x,1/2+y,1/2-z
-x,-y,-z
1/2+x,y,1/2-z
1/2-x,1/2+y,z
x,1/2-y,1/2+z
loop_
_atom_site_type_symbol
_atom_site_label
_atom_site_fract_x
_atom_site_fract_y
_atom_site_fract_z
Si Si1 0.869810 0.535075 0.124381
Si Si2 0.016588 0.332165 0.611904
Si Si3 0.500000 0.000000 0.500000
Si Si4 0.775700 0.793873 0.991346
Si Si5 0.784219 0.669610 0.259747
Si Si6 0.182759 0.817361 0.344076
Si Si7 0.741970 0.924293 0.464091
Si Si8 0.365841 0.431710 0.620307
O O1 0.814432 0.609962 0.183392
O O2 0.858651 0.427143 0.158227
O O3 0.808732 0.544443 0.041692
O O4 0.000574 0.563474 0.113772
O O5 0.965731 0.431994 0.579373
O O6 0.095133 0.302128 0.537874
O O7 0.108370 0.335662 0.681915
O O8 0.920528 0.254967 0.633629
O O9 0.379347 0.025930 0.538895
O O10 0.694707 0.869367 0.947538
O O11 0.768263 0.811149 0.082725
O O12 0.731424 0.689593 0.967669
O O13 0.744503 0.775015 0.231851
O O14 0.678927 0.617973 0.301964
O O15 0.815318 0.961860 0.391612
#
# Coordination Sequence:
#
# PCOD9460969 Si02
#       8
#     8   8   4   8   8   8   8   8
#     4  12  25  43  73 100 140 188 231 291 362 425
#     4  11  24  44  67 102 142 179 236 297 340 437
#     4  12  20  42  68  94 138 180 224 286 342 412
#     4  11  23  40  69 101 136 176 234 291 355 419
#     4  11  25  47  65  98 149 180 230 291 360 424
#     4  12  24  42  68 100 136 185 231 285 357 424
#     4  12  23  41  70 103 134 184 237 287 355 423
#     4  11  25  46  69 105 139 180 235 300 347 426
#
# _framework density 21.328582000000001
#
# number of rings (size 3 to 8) (size 9 to 14) (size 15 to 20)
#    0.000    0.533    6.667    2.000    1.867    3.200 
#    2.400    1.333    0.000    0.000    0.000    0.000 
#    0.000    0.000    0.000    0.000    0.000    0.000 
#
# Total GULP energy -334522.376283 kJ/mol
# GULP energy per Si atom -5575.372938 kJ/mol
# Density = 2.128004 g / cm^3
# Si number density = 21.328582 Si / 1000 Ang^3
#
#
#
# Elastic Constant Matrix: (Units=GPa)
#
#
# Indices 1 2 3 4 5 6 
#
# 1 51.0378 8.3482 7.7365 0.0000 0.0000 0.0000
# 2 8.3482 76.0570 2.0210 0.0000 0.0000 0.0000
# 3 7.7365 2.0210 50.7051 0.0000 0.0000 0.0000
# 4 0.0000 0.0000 0.0000 34.6145 0.0000 0.0000
# 5 0.0000 0.0000 0.0000 0.0000 29.6996 0.0000
# 6 0.0000 0.0000 0.0000 0.0000 0.0000 26.1096
#
#
#
# Elastic Compliance Matrix: (Units=1/GPa)
#
#
# Indices 1 2 3 4 5 6 
#
# 1 0.020405 -0.002159 -0.003027 0.000000 0.000000 0.000000
# 2 -0.002159 0.013390 -0.000204 0.000000 0.000000 0.000000
# 3 -0.003027 -0.000204 0.020192 0.000000 0.000000 0.000000
# 4 0.000000 0.000000 0.000000 0.028890 0.000000 0.000000
# 5 0.000000 0.000000 0.000000 0.000000 0.033671 0.000000
# 6 0.000000 0.000000 0.000000 0.000000 0.000000 0.038300
#
#
# Mechanical properties :
#
#
# Convention : Reuss Voigt Hill
#
# Bulk Modulus (GPa) = 23.14494 23.77903 23.46198
# Shear Modulus (GPa) = 27.77286 28.73101 28.25193
#
# Velocity S-wave (km/s) = 3.61244 3.67422 3.64346
# Velocity P-wave (km/s) = 5.31740 5.40120 5.35947
#
# Compressibility (1/GPa) = 0.04320599
#
# Stress axis : x y z
#
# Youngs Moduli (GPa) = 49.00658 74.67996 49.52472
#
# Poissons Ratio (x) = 0.16126 0.14993
# Poissons Ratio (y) = 0.10582 0.01012
# Poissons Ratio (z) = 0.14836 0.01525
#
# Static dielectric constant tensor:
#      x y z
#    x 1.743430 0.000000 0.000000 
#    y 0.000000 1.943260 0.000000 
#    z 0.000000 0.000000 1.801650 
# 
# From -- ./inp_files/9244.got.cif
#   From: 2010.05.17/outbox.cif.g08.bks.cpg/sg61_5_cif.got.tgz:9244.got - 2010.06.03 15:17:17.
