data_PCOD9460596
_publ_section_title
;
Structure prediction by ZEFSAII (Michael W. Deem and Ramdas Pophale) SiO2 
 PCOD9460596
Probable space group: P B C A
;
_chemical_formula_sum "Si O2"
_cell_formula_units_Z 40
_cell_length_a 12.392530
_cell_length_b 7.970536
_cell_length_c 15.868576
_cell_angle_alpha 90.000000
_cell_angle_beta 90.000000
_cell_angle_gamma 90.000000
_cell_volume 1567.420284
_symmetry_space_group_name_H-M "P B C A"
_symmetry_group_IT_number 61
_symmetry_cell_setting 'orthorhombic'
loop_
_space_group_symop_operation_xyz
x,y,z
1/2-x,-y,1/2+z
1/2+x,1/2-y,-z
-x,1/2+y,1/2-z
-x,-y,-z
1/2+x,y,1/2-z
1/2-x,1/2+y,z
x,1/2-y,1/2+z
loop_
_atom_site_type_symbol
_atom_site_label
_atom_site_fract_x
_atom_site_fract_y
_atom_site_fract_z
Si Si1 0.351105 0.568347 0.181608
Si Si2 0.123572 0.053828 0.994730
Si Si3 0.072886 0.078360 0.427648
Si Si4 0.483066 0.709042 0.778060
Si Si5 0.220892 0.987779 0.837590
O O1 0.319091 0.546044 0.085287
O O2 0.411675 0.400794 0.212064
O O3 0.445114 0.708768 0.190792
O O4 0.260774 0.603437 0.252532
O O5 0.124248 0.247980 0.964393
O O6 0.167608 0.926277 0.924377
O O7 0.000000 0.000000 0.000000
O O8 0.005207 0.142988 0.346923
O O9 0.165258 0.964271 0.383719
O O10 0.000000 0.000000 0.500000
O O11 0.376551 0.604186 0.805187
#
# Coordination Sequence:
#
# PCOD9460596 Si02
#       5
#     8   8   8   8   8
#     4  11  24  44  75 105 147 190 238 307 361 435
#     4  11  23  46  75 105 143 194 241 300 366 433
#     4  10  23  43  71 104 143 188 240 296 360 435
#     4  10  24  46  68 105 141 191 238 300 367 425
#     4  10  24  46  66 103 147 186 239 289 364 436
#
# _framework density 25.519638
#
# number of rings (size 3 to 8) (size 9 to 14) (size 15 to 20)
#    0.000    1.600    4.000    0.000    5.600   11.200 
#    3.600    0.000    0.000    0.000    0.000    0.000 
#    0.000    0.000    0.000    0.000    0.000    0.000 
#
# Total GULP energy -222810.011640 kJ/mol
# GULP energy per Si atom -5570.250291 kJ/mol
# Density = 2.546155 g / cm^3
# Si number density = 25.519638 Si / 1000 Ang^3
#
#
#
# Elastic Constant Matrix: (Units=GPa)
#
#
# Indices 1 2 3 4 5 6 
#
# 1 75.6107 27.3351 36.2393 0.0000 0.0000 0.0000
# 2 27.3351 68.1959 10.7525 0.0000 0.0000 0.0000
# 3 36.2393 10.7525 180.3841 0.0000 0.0000 0.0000
# 4 0.0000 0.0000 0.0000 33.1982 0.0000 0.0000
# 5 0.0000 0.0000 0.0000 0.0000 44.9032 0.0000
# 6 0.0000 0.0000 0.0000 0.0000 0.0000 32.9709
#
#
#
# Elastic Compliance Matrix: (Units=1/GPa)
#
#
# Indices 1 2 3 4 5 6 
#
# 1 0.016964 -0.006322 -0.003031 0.000000 0.000000 0.000000
# 2 -0.006322 0.017159 0.000247 0.000000 0.000000 0.000000
# 3 -0.003031 0.000247 0.006138 0.000000 0.000000 0.000000
# 4 0.000000 0.000000 0.000000 0.030122 0.000000 0.000000
# 5 0.000000 0.000000 0.000000 0.000000 0.022270 0.000000
# 6 0.000000 0.000000 0.000000 0.000000 0.000000 0.030330
#
#
# Mechanical properties :
#
#
# Convention : Reuss Voigt Hill
#
# Bulk Modulus (GPa) = 45.35348 52.53828 48.94588
# Shear Modulus (GPa) = 33.66010 38.87203 36.26606
#
# Velocity S-wave (km/s) = 3.63573 3.90708 3.77384
# Velocity P-wave (km/s) = 5.95275 6.40201 6.18147
#
# Compressibility (1/GPa) = 0.02204902
#
# Stress axis : x y z
#
# Youngs Moduli (GPa) = 58.94849 58.27973 162.92034
#
# Poissons Ratio (x) = 0.36843 0.49385
# Poissons Ratio (y) = 0.37266 -0.04028
# Poissons Ratio (z) = 0.17869 -0.01441
#
# Static dielectric constant tensor:
#      x y z
#    x 2.156980 0.000000 0.000000 
#    y 0.000000 2.140000 0.000000 
#    z 0.000000 0.000000 2.087200 
# 
# From -- ./inp_files/7711.got.cif
#   From: 2010.05.17/outbox.cif.g08.bks.cpg/sg61_4_cif.got.tgz:7711.got - 2010.06.03 15:17:17.
