data_PCOD9460246
_publ_section_title
;
Structure prediction by ZEFSAII (Michael W. Deem and Ramdas Pophale) SiO2 
 PCOD9460246
Probable space group: P B C A
;
_chemical_formula_sum "Si O2"
_cell_formula_units_Z 56
_cell_length_a 13.727391
_cell_length_b 15.319051
_cell_length_c 10.608040
_cell_angle_alpha 90.000000
_cell_angle_beta 90.000000
_cell_angle_gamma 90.000000
_cell_volume 2230.771126
_symmetry_space_group_name_H-M "P B C A"
_symmetry_group_IT_number 61
_symmetry_cell_setting 'orthorhombic'
loop_
_space_group_symop_operation_xyz
x,y,z
1/2-x,-y,1/2+z
1/2+x,1/2-y,-z
-x,1/2+y,1/2-z
-x,-y,-z
1/2+x,y,1/2-z
1/2-x,1/2+y,z
x,1/2-y,1/2+z
loop_
_atom_site_type_symbol
_atom_site_label
_atom_site_fract_x
_atom_site_fract_y
_atom_site_fract_z
Si Si1 0.977166 0.447407 0.182043
Si Si2 0.341829 0.585845 0.357249
Si Si3 0.311830 0.223950 0.003422
Si Si4 0.349059 0.993606 0.333320
Si Si5 0.964939 0.707569 0.990291
Si Si6 0.201533 0.653528 0.730076
Si Si7 0.633412 0.386863 0.929758
O O1 0.059365 0.508267 0.243581
O O2 0.905829 0.503980 0.091440
O O3 0.902189 0.395844 0.273358
O O4 0.031883 0.367805 0.114152
O O5 0.227239 0.569244 0.367572
O O6 0.386504 0.674674 0.408544
O O7 0.366922 0.580032 0.210463
O O8 0.424681 0.211721 0.038355
O O9 0.276873 0.300551 0.097627
O O10 0.244161 0.143210 0.042595
O O11 0.305420 0.220960 0.849786
O O12 0.282207 0.918325 0.267933
O O13 0.391026 0.955343 0.462768
O O14 0.933277 0.801666 0.942210
#
# Coordination Sequence:
#
# PCOD9460246 Si02
#       7
#     8   8   8   8   8   8   8
#     4  10  22  44  69  93 135 182 221 282 358 412
#     4  11  27  43  69 103 134 183 235 278 353 428
#     4  10  22  39  67  95 139 171 225 288 349 399
#     4  10  23  44  67  93 143 175 225 284 347 420
#     4  11  25  43  73  98 141 178 237 289 353 418
#     4   9  20  39  63  99 127 181 222 276 344 415
#     4  11  26  44  67 109 135 180 241 284 343 424
#
# _framework density 25.103425999999999
#
# number of rings (size 3 to 8) (size 9 to 14) (size 15 to 20)
#    0.000    1.714    0.000    3.000   14.000    0.571 
#    2.571    0.000    0.000    0.000    0.000    0.000 
#    0.000    0.000    0.000    0.000    0.000    0.000 
#
# Total GULP energy -313370.400565 kJ/mol
# GULP energy per Si atom -5595.900010 kJ/mol
# Density = 2.504629 g / cm^3
# Si number density = 25.103426 Si / 1000 Ang^3
#
#
#
# Elastic Constant Matrix: (Units=GPa)
#
#
# Indices 1 2 3 4 5 6 
#
# 1 133.1143 15.0524 26.6395 0.0000 0.0000 0.0000
# 2 15.0524 52.5177 20.2453 0.0000 0.0000 0.0000
# 3 26.6395 20.2453 76.8682 0.0000 0.0000 0.0000
# 4 0.0000 0.0000 0.0000 37.0238 0.0000 0.0000
# 5 0.0000 0.0000 0.0000 0.0000 31.3553 0.0000
# 6 0.0000 0.0000 0.0000 0.0000 0.0000 39.4188
#
#
#
# Elastic Compliance Matrix: (Units=1/GPa)
#
#
# Indices 1 2 3 4 5 6 
#
# 1 0.008162 -0.001390 -0.002463 0.000000 0.000000 0.000000
# 2 -0.001390 0.021430 -0.005162 0.000000 0.000000 0.000000
# 3 -0.002463 -0.005162 0.015222 0.000000 0.000000 0.000000
# 4 0.000000 0.000000 0.000000 0.027010 0.000000 0.000000
# 5 0.000000 0.000000 0.000000 0.000000 0.031893 0.000000
# 6 0.000000 0.000000 0.000000 0.000000 0.000000 0.025369
#
#
# Mechanical properties :
#
#
# Convention : Reuss Voigt Hill
#
# Bulk Modulus (GPa) = 37.33536 42.93051 40.13293
# Shear Modulus (GPa) = 32.04234 34.93043 33.48638
#
# Velocity S-wave (km/s) = 3.57657 3.73428 3.65627
# Velocity P-wave (km/s) = 5.65338 5.97760 5.81775
#
# Compressibility (1/GPa) = 0.02678426
#
# Stress axis : x y z
#
# Youngs Moduli (GPa) = 122.51350 46.66424 65.69279
#
# Poissons Ratio (x) = 0.06487 0.16178
# Poissons Ratio (y) = 0.17031 0.33913
# Poissons Ratio (z) = 0.30170 0.24090
#
# Static dielectric constant tensor:
#      x y z
#    x 1.988930 0.000000 0.000000 
#    y 0.000000 2.023040 0.000000 
#    z 0.000000 0.000000 2.016100 
# 
# From -- ./inp_files/5831.got.cif
#   From: 2010.05.17/outbox.cif.g08.bks.cpg/sg61_3_cif.got.tgz:5831.got - 2010.06.03 15:17:17.
