data_PCOD9460245
_publ_section_title
;
Structure prediction by ZEFSAII (Michael W. Deem and Ramdas Pophale) SiO2 
 PCOD9460245
Probable space group: P B C A
;
_chemical_formula_sum "Si O2"
_cell_formula_units_Z 64
_cell_length_a 8.356932
_cell_length_b 23.452291
_cell_length_c 13.548668
_cell_angle_alpha 90.000000
_cell_angle_beta 90.000000
_cell_angle_gamma 90.000000
_cell_volume 2655.392618
_symmetry_space_group_name_H-M "P B C A"
_symmetry_group_IT_number 61
_symmetry_cell_setting 'orthorhombic'
loop_
_space_group_symop_operation_xyz
x,y,z
1/2-x,-y,1/2+z
1/2+x,1/2-y,-z
-x,1/2+y,1/2-z
-x,-y,-z
1/2+x,y,1/2-z
1/2-x,1/2+y,z
x,1/2-y,1/2+z
loop_
_atom_site_type_symbol
_atom_site_label
_atom_site_fract_x
_atom_site_fract_y
_atom_site_fract_z
Si Si1 0.385034 0.028778 0.919143
Si Si2 0.173875 0.658759 0.171442
Si Si3 0.277435 0.416008 0.860363
Si Si4 0.952010 0.566364 0.503417
Si Si5 0.979840 0.869760 0.488635
Si Si6 0.537663 0.235433 0.279196
Si Si7 0.477281 0.816728 0.394379
Si Si8 0.853337 0.240114 0.544820
O O1 0.312697 0.978035 0.851616
O O2 0.229371 0.054953 0.968529
O O3 0.488219 0.086155 0.898367
O O4 0.500000 0.000000 0.000000
O O5 0.219211 0.613824 0.255043
O O6 0.123208 0.629324 0.070468
O O7 0.309208 0.707684 0.168629
O O8 0.008252 0.690766 0.194690
O O9 0.460530 0.414563 0.901865
O O10 0.176213 0.386412 0.948895
O O11 0.999321 0.616294 0.582128
O O12 0.000000 0.500000 0.500000
O O13 0.999134 0.805343 0.452838
O O14 0.536641 0.295096 0.219216
O O15 0.386394 0.228706 0.352219
O O16 0.310970 0.794187 0.443313
O O17 0.613732 0.782435 0.454847
#
# Coordination Sequence:
#
# PCOD9460245 Si02
#       8
#     8   8   8   8   8   8   8   8
#     4   9  20  40  67  95 129 181 234 288 350 421
#     4  12  22  41  62 102 140 179 238 290 356 432
#     4  10  22  39  66  98 138 176 245 296 351 420
#     4  10  22  41  70  96 134 187 234 293 352 428
#     4  11  22  40  68  96 136 188 233 291 367 429
#     4  12  26  40  63 101 142 183 229 289 360 440
#     4  12  25  43  68 104 138 183 238 285 367 432
#     4  12  25  42  69  99 146 183 228 299 366 423
#
# _framework density 24.101899
#
# number of rings (size 3 to 8) (size 9 to 14) (size 15 to 20)
#    0.000    1.000    5.000    1.500    3.500    0.000 
#    0.000    0.000   22.000    0.000    0.000    0.000 
#    0.000    0.000    0.000    0.000    0.000    0.000 
#
# Total GULP energy -356310.086601 kJ/mol
# GULP energy per Si atom -5567.345103 kJ/mol
# Density = 2.404704 g / cm^3
# Si number density = 24.101899 Si / 1000 Ang^3
#
#
#
# Elastic Constant Matrix: (Units=GPa)
#
#
# Indices 1 2 3 4 5 6 
#
# 1 48.0455 15.0364 15.1843 0.0000 0.0000 0.0000
# 2 15.0364 122.2298 23.7530 0.0000 0.0000 0.0000
# 3 15.1843 23.7530 78.8464 0.0000 0.0000 0.0000
# 4 0.0000 0.0000 0.0000 37.7449 0.0000 0.0000
# 5 0.0000 0.0000 0.0000 0.0000 24.2696 0.0000
# 6 0.0000 0.0000 0.0000 0.0000 0.0000 39.9464
#
#
#
# Elastic Compliance Matrix: (Units=1/GPa)
#
#
# Indices 1 2 3 4 5 6 
#
# 1 0.022640 -0.002058 -0.003740 0.000000 0.000000 0.000000
# 2 -0.002058 0.008877 -0.002278 0.000000 0.000000 0.000000
# 3 -0.003740 -0.002278 0.014089 0.000000 0.000000 0.000000
# 4 0.000000 0.000000 0.000000 0.026494 0.000000 0.000000
# 5 0.000000 0.000000 0.000000 0.000000 0.041204 0.000000
# 6 0.000000 0.000000 0.000000 0.000000 0.000000 0.025034
#
#
# Mechanical properties :
#
#
# Convention : Reuss Voigt Hill
#
# Bulk Modulus (GPa) = 33.95121 39.67434 36.81278
# Shear Modulus (GPa) = 30.43073 33.40203 31.91638
#
# Velocity S-wave (km/s) = 3.55714 3.72676 3.64294
# Velocity P-wave (km/s) = 5.56670 5.91736 5.74471
#
# Compressibility (1/GPa) = 0.02945403
#
# Stress axis : x y z
#
# Youngs Moduli (GPa) = 44.17016 112.64828 70.97555
#
# Poissons Ratio (x) = 0.23186 0.26544
# Poissons Ratio (y) = 0.09092 0.16168
# Poissons Ratio (z) = 0.16519 0.25660
#
# Static dielectric constant tensor:
#      x y z
#    x 2.120540 0.000000 0.000000 
#    y 0.000000 2.013450 0.000000 
#    z 0.000000 0.000000 1.982580 
# 
# From -- ./inp_files/7255.got.cif
#   From: 2010.05.17/outbox.cif.g08.bks.cpg/sg61_4_cif.got.tgz:7255.got - 2010.06.03 15:17:17.
