data_PCOD9460771
_publ_section_title
;
Structure prediction by ZEFSAII (Michael W. Deem and Ramdas Pophale) SiO2 
 PCOD9460771
Probable space group: P B C A
;
_chemical_formula_sum "Si O2"
_cell_formula_units_Z 48
_cell_length_a 22.594256
_cell_length_b 8.718947
_cell_length_c 10.038157
_cell_angle_alpha 90.000000
_cell_angle_beta 90.000000
_cell_angle_gamma 90.000000
_cell_volume 1977.498063
_symmetry_space_group_name_H-M "P B C A"
_symmetry_group_IT_number 61
_symmetry_cell_setting 'orthorhombic'
loop_
_space_group_symop_operation_xyz
x,y,z
1/2-x,-y,1/2+z
1/2+x,1/2-y,-z
-x,1/2+y,1/2-z
-x,-y,-z
1/2+x,y,1/2-z
1/2-x,1/2+y,z
x,1/2-y,1/2+z
loop_
_atom_site_type_symbol
_atom_site_label
_atom_site_fract_x
_atom_site_fract_y
_atom_site_fract_z
Si Si1 0.046448 0.761851 0.301609
Si Si2 0.428364 0.908859 0.678590
Si Si3 0.223169 0.644123 0.671921
Si Si4 0.170436 0.411176 0.887165
Si Si5 0.191250 0.357516 0.546765
Si Si6 0.384390 0.146237 0.070892
O O1 0.085532 0.785143 0.435754
O O2 0.070686 0.637677 0.194590
O O3 0.981917 0.705760 0.344328
O O4 0.048941 0.919895 0.215347
O O5 0.388837 0.867351 0.806194
O O6 0.377644 0.899627 0.565445
O O7 0.203896 0.541572 0.799236
O O8 0.225892 0.515890 0.555188
O O9 0.279668 0.752775 0.662945
O O10 0.167700 0.749157 0.631094
O O11 0.201449 0.253313 0.925026
O O12 0.144620 0.489492 0.021059
#
# Coordination Sequence:
#
# PCOD9460771 Si02
#       6
#     8   8   8   8   8   8
#     4  11  25  44  74 101 151 186 242 293 360 423
#     4  10  25  45  65 109 142 186 240 296 354 433
#     4  11  24  48  68 108 139 184 245 302 350 438
#     4  10  24  46  68 106 141 182 243 291 362 427
#     4  11  24  45  71  97 145 185 235 295 369 423
#     4  11  22  47  71 103 140 190 234 296 356 425
#
# _framework density 24.273095999999999
#
# number of rings (size 3 to 8) (size 9 to 14) (size 15 to 20)
#    0.000    1.333    5.000    1.000    4.667    8.667 
#    6.000    0.000    0.000    0.000    0.000    0.000 
#    0.000    0.000    0.000    0.000    0.000    0.000 
#
# Total GULP energy -268014.863446 kJ/mol
# GULP energy per Si atom -5583.642988 kJ/mol
# Density = 2.421785 g / cm^3
# Si number density = 24.273096 Si / 1000 Ang^3
#
#
#
# Elastic Constant Matrix: (Units=GPa)
#
#
# Indices 1 2 3 4 5 6 
#
# 1 101.6905 12.4441 -8.2306 0.0000 0.0000 0.0000
# 2 12.4441 39.8453 -26.7484 0.0000 0.0000 0.0000
# 3 -8.2306 -26.7484 43.5544 0.0000 0.0000 0.0000
# 4 0.0000 0.0000 0.0000 36.0317 0.0000 0.0000
# 5 0.0000 0.0000 0.0000 0.0000 22.0234 0.0000
# 6 0.0000 0.0000 0.0000 0.0000 0.0000 26.0903
#
#
#
# Elastic Compliance Matrix: (Units=1/GPa)
#
#
# Indices 1 2 3 4 5 6 
#
# 1 0.010225 -0.003226 -0.000049 0.000000 0.000000 0.000000
# 2 -0.003226 0.043720 0.026240 0.000000 0.000000 0.000000
# 3 -0.000049 0.026240 0.039066 0.000000 0.000000 0.000000
# 4 0.000000 0.000000 0.000000 0.027753 0.000000 0.000000
# 5 0.000000 0.000000 0.000000 0.000000 0.045406 0.000000
# 6 0.000000 0.000000 0.000000 0.000000 0.000000 0.038328
#
#
# Mechanical properties :
#
#
# Convention : Reuss Voigt Hill
#
# Bulk Modulus (GPa) = 7.19733 15.55782 11.37758
# Shear Modulus (GPa) = 24.40430 30.67075 27.53753
#
# Velocity S-wave (km/s) = 3.17425 3.55853 3.37187
# Velocity P-wave (km/s) = 4.05044 4.82779 4.45610
#
# Compressibility (1/GPa) = 0.13894033
#
# Stress axis : x y z
#
# Youngs Moduli (GPa) = 97.80352 22.87280 25.59787
#
# Poissons Ratio (x) = 0.07379 0.00126
# Poissons Ratio (y) = 0.31554 -0.67170
# Poissons Ratio (z) = 0.00481 -0.60019
#
# Static dielectric constant tensor:
#      x y z
#    x 1.926230 0.000000 0.000000 
#    y 0.000000 1.900940 0.000000 
#    z 0.000000 0.000000 2.019670 
# 
# From -- ./inp_files/6588.got.cif
#   From: 2010.05.17/outbox.cif.g08.bks.cpg/sg61_4_cif.got.tgz:6588.got - 2010.06.03 15:17:17.
