data_PCOD9460063
_publ_section_title
;
Structure prediction by ZEFSAII (Michael W. Deem and Ramdas Pophale) SiO2 
 PCOD9460063
Probable space group: P B C A
;
_chemical_formula_sum "Si O2"
_cell_formula_units_Z 60
_cell_length_a 10.223746
_cell_length_b 16.490291
_cell_length_c 16.037731
_cell_angle_alpha 90.000000
_cell_angle_beta 90.000000
_cell_angle_gamma 90.000000
_cell_volume 2703.841912
_symmetry_space_group_name_H-M "P B C A"
_symmetry_group_IT_number 61
_symmetry_cell_setting 'orthorhombic'
loop_
_space_group_symop_operation_xyz
x,y,z
1/2-x,-y,1/2+z
1/2+x,1/2-y,-z
-x,1/2+y,1/2-z
-x,-y,-z
1/2+x,y,1/2-z
1/2-x,1/2+y,z
x,1/2-y,1/2+z
loop_
_atom_site_type_symbol
_atom_site_label
_atom_site_fract_x
_atom_site_fract_y
_atom_site_fract_z
Si Si1 0.412673 0.816584 0.969364
Si Si2 0.866394 0.285534 0.545503
Si Si3 0.273905 0.450337 0.607064
Si Si4 0.384285 0.928047 0.246569
Si Si5 0.959341 0.174193 0.306566
Si Si6 0.364411 0.173965 0.790785
Si Si7 0.977184 0.432404 0.641278
Si Si8 0.000000 0.000000 0.500000
O O1 0.271777 0.789048 0.999888
O O2 0.417823 0.824976 0.868812
O O3 0.453092 0.904095 0.002703
O O4 0.516794 0.747550 0.990143
O O5 0.860878 0.222428 0.622527
O O6 0.894272 0.375123 0.580996
O O7 0.319060 0.517494 0.674607
O O8 0.340520 0.369136 0.644421
O O9 0.350325 0.470508 0.523145
O O10 0.119364 0.446916 0.602720
O O11 0.278109 0.860505 0.269707
O O12 0.523224 0.895220 0.212070
O O13 0.411999 0.984906 0.326629
O O14 0.913543 0.261366 0.277045
O O15 0.994269 0.120203 0.226307
#
# Coordination Sequence:
#
# PCOD9460063 Si02
#       8
#     8   8   8   8   8   8   8   4
#     4  11  25  47  67 102 137 192 233 295 350 443
#     4  11  27  43  69  96 142 182 238 280 362 427
#     4  10  21  41  66  96 131 181 223 279 349 418
#     4  11  22  39  67 102 139 165 227 291 348 404
#     4   9  23  38  70  92 133 173 228 283 349 409
#     4  11  23  41  68 107 130 173 225 299 345 418
#     4  10  23  42  67  99 133 181 228 291 346 418
#     4  10  24  44  70  92 138 188 230 278 362 418
#
# _framework density 22.190646999999998
#
# number of rings (size 3 to 8) (size 9 to 14) (size 15 to 20)
#    0.000    1.600    1.333    1.600   13.067    3.200 
#    2.400    0.667    0.000    0.000    0.000    0.000 
#    0.000    0.000    0.000    0.000    0.000    0.000 
#
# Total GULP energy -334537.445818 kJ/mol
# GULP energy per Si atom -5575.624097 kJ/mol
# Density = 2.214014 g / cm^3
# Si number density = 22.190647 Si / 1000 Ang^3
#
#
#
# Elastic Constant Matrix: (Units=GPa)
#
#
# Indices 1 2 3 4 5 6 
#
# 1 132.6073 26.5608 4.1697 0.0000 0.0000 0.0000
# 2 26.5608 87.2567 1.5157 0.0000 0.0000 0.0000
# 3 4.1697 1.5157 14.0167 0.0000 0.0000 0.0000
# 4 0.0000 0.0000 0.0000 6.2712 0.0000 0.0000
# 5 0.0000 0.0000 0.0000 0.0000 22.4513 0.0000
# 6 0.0000 0.0000 0.0000 0.0000 0.0000 34.6647
#
#
#
# Elastic Compliance Matrix: (Units=1/GPa)
#
#
# Indices 1 2 3 4 5 6 
#
# 1 0.008095 -0.002427 -0.002146 0.000000 0.000000 0.000000
# 2 -0.002427 0.012210 -0.000598 0.000000 0.000000 0.000000
# 3 -0.002146 -0.000598 0.072046 0.000000 0.000000 0.000000
# 4 0.000000 0.000000 0.000000 0.159460 0.000000 0.000000
# 5 0.000000 0.000000 0.000000 0.000000 0.044541 0.000000
# 6 0.000000 0.000000 0.000000 0.000000 0.000000 0.028848
#
#
# Mechanical properties :
#
#
# Convention : Reuss Voigt Hill
#
# Bulk Modulus (GPa) = 12.19375 33.15256 22.67315
# Shear Modulus (GPa) = 13.77879 26.11974 19.94926
#
# Velocity S-wave (km/s) = 2.49455 3.43455 3.00158
# Velocity P-wave (km/s) = 3.71536 5.54081 4.71723
#
# Compressibility (1/GPa) = 0.08200926
#
# Stress axis : x y z
#
# Youngs Moduli (GPa) = 123.53925 81.90327 13.87995
#
# Poissons Ratio (x) = 0.19876 0.02978
# Poissons Ratio (y) = 0.29979 0.00830
# Poissons Ratio (z) = 0.26506 0.04901
#
# Static dielectric constant tensor:
#      x y z
#    x 1.782200 0.000000 0.000000 
#    y 0.000000 1.800920 0.000000 
#    z 0.000000 0.000000 1.859100 
# 
# From -- ./inp_files/8989.got.cif
#   From: 2010.05.17/outbox.cif.g08.bks.cpg/sg61_5_cif.got.tgz:8989.got - 2010.06.03 15:17:17.
