data_PCOD9460020
_publ_section_title
;
Structure prediction by ZEFSAII (Michael W. Deem and Ramdas Pophale) SiO2 
 PCOD9460020
Probable space group: P B C A
;
_chemical_formula_sum "Si O2"
_cell_formula_units_Z 64
_cell_length_a 12.219972
_cell_length_b 17.312632
_cell_length_c 14.178683
_cell_angle_alpha 90.000000
_cell_angle_beta 90.000000
_cell_angle_gamma 90.000000
_cell_volume 2999.640450
_symmetry_space_group_name_H-M "P B C A"
_symmetry_group_IT_number 61
_symmetry_cell_setting 'orthorhombic'
loop_
_space_group_symop_operation_xyz
x,y,z
1/2-x,-y,1/2+z
1/2+x,1/2-y,-z
-x,1/2+y,1/2-z
-x,-y,-z
1/2+x,y,1/2-z
1/2-x,1/2+y,z
x,1/2-y,1/2+z
loop_
_atom_site_type_symbol
_atom_site_label
_atom_site_fract_x
_atom_site_fract_y
_atom_site_fract_z
Si Si1 0.909845 0.511562 0.623053
Si Si2 0.880925 0.814938 0.169262
Si Si3 0.713854 0.814204 0.441194
Si Si4 0.879817 0.472432 0.838942
Si Si5 0.844240 0.019369 0.920463
Si Si6 0.059327 0.140523 0.615795
Si Si7 0.140159 0.748380 0.870531
Si Si8 0.073322 0.698728 0.167000
O O1 0.902140 0.604595 0.616527
O O2 0.872340 0.485803 0.726210
O O3 0.843509 0.480673 0.533872
O O4 0.037543 0.489854 0.611335
O O5 0.902815 0.834486 0.278882
O O6 0.757717 0.787544 0.154133
O O7 0.967968 0.749701 0.141034
O O8 0.671024 0.891445 0.389171
O O9 0.843652 0.826533 0.449104
O O10 0.657739 0.804656 0.541963
O O11 0.677066 0.739354 0.382928
O O12 0.757184 0.472701 0.879740
O O13 0.939757 0.547505 0.882748
O O14 0.935792 0.390751 0.858096
O O15 0.943771 0.180766 0.599948
O O16 0.092865 0.791237 0.779002
#
# Coordination Sequence:
#
# PCOD9460020 Si02
#       8
#     8   8   8   8   8   8   8   8
#     4  10  21  40  68  93 126 174 220 265 328 394
#     4  10  21  40  67  92 128 169 219 271 324 379
#     4  11  22  41  66  91 130 166 217 272 312 389
#     4  10  23  40  66  96 135 167 213 281 335 379
#     4  10  22  42  65  97 128 173 225 266 322 401
#     4   9  22  43  64  94 129 171 217 265 329 388
#     4  11  24  40  68  93 130 173 215 268 327 389
#     4  11  23  42  62 101 127 168 218 270 325 387
#
# _framework density 21.335889999999999
#
# number of rings (size 3 to 8) (size 9 to 14) (size 15 to 20)
#    0.000    1.750    2.500    0.750    3.500    1.000 
#    2.250    1.875    0.000    0.000    0.000    0.000 
#    0.000    0.000    0.000    0.000    0.000    0.000 
#
# Total GULP energy -357785.843792 kJ/mol
# GULP energy per Si atom -5590.403809 kJ/mol
# Density = 2.128733 g / cm^3
# Si number density = 21.335890 Si / 1000 Ang^3
#
#
#
# Elastic Constant Matrix: (Units=GPa)
#
#
# Indices 1 2 3 4 5 6 
#
# 1 94.2848 62.6972 1.2536 0.0000 0.0000 0.0000
# 2 62.6972 132.7338 29.7152 0.0000 0.0000 0.0000
# 3 1.2536 29.7152 53.8330 0.0000 0.0000 0.0000
# 4 0.0000 0.0000 0.0000 21.4944 0.0000 0.0000
# 5 0.0000 0.0000 0.0000 0.0000 31.0361 0.0000
# 6 0.0000 0.0000 0.0000 0.0000 0.0000 19.7235
#
#
#
# Elastic Compliance Matrix: (Units=1/GPa)
#
#
# Indices 1 2 3 4 5 6 
#
# 1 0.016338 -0.008708 0.004426 0.000000 0.000000 0.000000
# 2 -0.008708 0.013238 -0.007104 0.000000 0.000000 0.000000
# 3 0.004426 -0.007104 0.022394 0.000000 0.000000 0.000000
# 4 0.000000 0.000000 0.000000 0.046524 0.000000 0.000000
# 5 0.000000 0.000000 0.000000 0.000000 0.032221 0.000000
# 6 0.000000 0.000000 0.000000 0.000000 0.000000 0.050701
#
#
# Mechanical properties :
#
#
# Convention : Reuss Voigt Hill
#
# Bulk Modulus (GPa) = 34.24906 52.02040 43.13473
# Shear Modulus (GPa) = 23.37317 26.92984 25.15150
#
# Velocity S-wave (km/s) = 3.31340 3.55658 3.43714
# Velocity P-wave (km/s) = 5.54305 6.42653 6.00107
#
# Compressibility (1/GPa) = 0.02919788
#
# Stress axis : x y z
#
# Youngs Moduli (GPa) = 61.20649 75.54174 44.65411
#
# Poissons Ratio (x) = 0.65784 -0.19766
# Poissons Ratio (y) = 0.53301 0.31724
# Poissons Ratio (z) = -0.27093 0.53667
#
# Static dielectric constant tensor:
#      x y z
#    x 1.748030 0.000000 0.000000 
#    y 0.000000 1.766330 0.000000 
#    z 0.000000 0.000000 1.777480 
# 
# From -- ./inp_files/7624.got.cif
#   From: 2010.05.17/outbox.cif.g08.bks.cpg/sg61_4_cif.got.tgz:7624.got - 2010.06.03 15:17:17.
