data_PCOD9460868
_publ_section_title
;
Structure prediction by ZEFSAII (Michael W. Deem and Ramdas Pophale) SiO2 
 PCOD9460868
Probable space group: P B C A
;
_chemical_formula_sum "Si O2"
_cell_formula_units_Z 64
_cell_length_a 15.432594
_cell_length_b 12.759455
_cell_length_c 16.801431
_cell_angle_alpha 90.000000
_cell_angle_beta 90.000000
_cell_angle_gamma 90.000000
_cell_volume 3308.394790
_symmetry_space_group_name_H-M "P B C A"
_symmetry_group_IT_number 61
_symmetry_cell_setting 'orthorhombic'
loop_
_space_group_symop_operation_xyz
x,y,z
1/2-x,-y,1/2+z
1/2+x,1/2-y,-z
-x,1/2+y,1/2-z
-x,-y,-z
1/2+x,y,1/2-z
1/2-x,1/2+y,z
x,1/2-y,1/2+z
loop_
_atom_site_type_symbol
_atom_site_label
_atom_site_fract_x
_atom_site_fract_y
_atom_site_fract_z
Si Si1 0.612320 0.217028 0.421038
Si Si2 0.400393 0.819147 0.903743
Si Si3 0.335736 0.018341 0.539017
Si Si4 0.580034 0.664289 0.072497
Si Si5 0.726021 0.717970 0.655317
Si Si6 0.775848 0.308901 0.339092
Si Si7 0.163325 0.528180 0.956279
Si Si8 0.090703 0.678253 0.076654
O O1 0.605107 0.277287 0.505235
O O2 0.514131 0.192411 0.392953
O O3 0.677412 0.284870 0.367066
O O4 0.651507 0.101640 0.436731
O O5 0.323090 0.760249 0.859138
O O6 0.499940 0.804290 0.879403
O O7 0.385265 0.943442 0.903576
O O8 0.407028 0.053924 0.473132
O O9 0.322195 0.094726 0.614631
O O10 0.245512 0.029918 0.493030
O O11 0.656636 0.690829 0.133810
O O12 0.593264 0.741035 0.997088
O O13 0.718350 0.679872 0.745206
O O14 0.700898 0.624022 0.595364
O O15 0.830063 0.206845 0.366955
O O16 0.105286 0.569641 0.029904
#
# Coordination Sequence:
#
# PCOD9460868 Si02
#       8
#     8   8   8   8   8   8   8   8
#     4  11  20  37  64  86 111 151 199 244 291 346
#     4  11  20  37  64  86 111 151 199 244 291 346
#     4  11  19  38  63  87 116 150 201 245 288 341
#     4   9  20  37  61  87 112 150 196 241 284 347
#     4  11  23  38  55  84 124 156 188 241 300 352
#     4  11  23  38  55  84 124 156 188 241 300 352
#     4  11  19  38  63  87 116 150 201 245 288 341
#     4   9  20  37  61  87 112 150 196 241 284 347
#
# _framework density 19.344729000000001
#
# number of rings (size 3 to 8) (size 9 to 14) (size 15 to 20)
#    0.000    1.500    5.000    1.500    0.000    2.000 
#    0.000    0.000    0.000    0.000    0.000    0.000 
#    0.000    0.000    0.000    0.000    0.000    0.000 
#
# Total GULP energy -356662.860168 kJ/mol
# GULP energy per Si atom -5572.857190 kJ/mol
# Density = 1.930070 g / cm^3
# Si number density = 19.344729 Si / 1000 Ang^3
#
#
#
# Elastic Constant Matrix: (Units=GPa)
#
#
# Indices 1 2 3 4 5 6 
#
# 1 108.9712 -4.3644 28.6524 0.0000 0.0000 0.0000
# 2 -4.3644 49.3072 -6.4625 0.0000 0.0000 0.0000
# 3 28.6524 -6.4625 46.8182 0.0000 0.0000 0.0000
# 4 0.0000 0.0000 0.0000 9.2805 0.0000 0.0000
# 5 0.0000 0.0000 0.0000 0.0000 4.5552 0.0000
# 6 0.0000 0.0000 0.0000 0.0000 0.0000 22.7042
#
#
#
# Elastic Compliance Matrix: (Units=1/GPa)
#
#
# Indices 1 2 3 4 5 6 
#
# 1 0.010937 0.000092 -0.006681 0.000000 0.000000 0.000000
# 2 0.000092 0.020655 0.002795 0.000000 0.000000 0.000000
# 3 -0.006681 0.002795 0.025833 0.000000 0.000000 0.000000
# 4 0.000000 0.000000 0.000000 0.107753 0.000000 0.000000
# 5 0.000000 0.000000 0.000000 0.000000 0.219530 0.000000
# 6 0.000000 0.000000 0.000000 0.000000 0.000000 0.044045
#
#
# Mechanical properties :
#
#
# Convention : Reuss Voigt Hill
#
# Bulk Modulus (GPa) = 20.06471 26.74973 23.40722
# Shear Modulus (GPa) = 11.03866 19.79271 15.41569
#
# Velocity S-wave (km/s) = 2.39138 3.20215 2.82599
# Velocity P-wave (km/s) = 4.24495 5.24687 4.77228
#
# Compressibility (1/GPa) = 0.04983875
#
# Stress axis : x y z
#
# Youngs Moduli (GPa) = 91.43260 48.41338 38.70947
#
# Poissons Ratio (x) = -0.00448 0.25860
# Poissons Ratio (y) = -0.00846 -0.10817
# Poissons Ratio (z) = 0.61083 -0.13529
#
# Static dielectric constant tensor:
#      x y z
#    x 1.722380 0.000000 0.000000 
#    y 0.000000 1.731140 0.000000 
#    z 0.000000 0.000000 1.647620 
# 
# From -- ./inp_files/9531.got.cif
#   From: 2010.05.17/outbox.cif.g08.bks.cpg/sg61_5_cif.got.tgz:9531.got - 2010.06.03 15:17:17.
