data_PCOD9460395
_publ_section_title
;
Structure prediction by ZEFSAII (Michael W. Deem and Ramdas Pophale) SiO2 
 PCOD9460395
Probable space group: P B C A
;
_chemical_formula_sum "Si O2"
_cell_formula_units_Z 36
_cell_length_a 17.881393
_cell_length_b 5.078987
_cell_length_c 13.417696
_cell_angle_alpha 90.000000
_cell_angle_beta 90.000000
_cell_angle_gamma 90.000000
_cell_volume 1218.586598
_symmetry_space_group_name_H-M "P B C A"
_symmetry_group_IT_number 61
_symmetry_cell_setting 'orthorhombic'
loop_
_space_group_symop_operation_xyz
x,y,z
1/2-x,-y,1/2+z
1/2+x,1/2-y,-z
-x,1/2+y,1/2-z
-x,-y,-z
1/2+x,y,1/2-z
1/2-x,1/2+y,z
x,1/2-y,1/2+z
loop_
_atom_site_type_symbol
_atom_site_label
_atom_site_fract_x
_atom_site_fract_y
_atom_site_fract_z
Si Si1 0.790093 0.623795 0.848174
Si Si2 0.080517 0.744881 0.665357
Si Si3 0.072062 0.528918 0.872763
Si Si4 0.000000 0.500000 0.500000
Si Si5 0.794794 0.657500 0.608306
O O1 0.723722 0.422552 0.879319
O O2 0.861966 0.457003 0.876353
O O3 0.793175 0.645310 0.728340
O O4 0.108038 0.663585 0.775689
O O5 0.057437 0.503660 0.596017
O O6 0.000289 0.886709 0.672292
O O7 0.124640 0.291820 0.914415
O O8 0.045507 0.741621 0.952490
O O9 0.768256 0.369123 0.576035
#
# Coordination Sequence:
#
# PCOD9460395 Si02
#       5
#     8   8   8   4   8
#     4  10  22  42  76 115 153 204 265 328 405 486
#     4  12  25  47  79 110 157 209 271 334 415 492
#     4  12  25  47  79 110 157 209 271 334 415 492
#     4  12  30  48  72 116 156 208 272 342 402 490
#     4  10  22  42  76 115 153 204 265 328 405 486
#
# _framework density 29.542425999999999
#
# number of rings (size 3 to 8) (size 9 to 14) (size 15 to 20)
#    0.000    0.889    2.222    6.000    6.222    0.000 
#    0.000    2.222    0.000    0.000    0.000    0.000 
#    0.000    0.000    0.000    0.000    0.000    0.000 
#
# Total GULP energy -201180.008574 kJ/mol
# GULP energy per Si atom -5588.333571 kJ/mol
# Density = 2.947519 g / cm^3
# Si number density = 29.542426 Si / 1000 Ang^3
#
#
#
# Elastic Constant Matrix: (Units=GPa)
#
#
# Indices 1 2 3 4 5 6 
#
# 1 106.1100 63.2457 11.3893 0.0000 0.0000 0.0000
# 2 63.2457 198.1707 49.9057 0.0000 0.0000 0.0000
# 3 11.3893 49.9057 123.8952 0.0000 0.0000 0.0000
# 4 0.0000 0.0000 0.0000 59.8808 0.0000 0.0000
# 5 0.0000 0.0000 0.0000 0.0000 -25.0517 0.0000
# 6 0.0000 0.0000 0.0000 0.0000 0.0000 93.6599
#
#
#
# Elastic Compliance Matrix: (Units=1/GPa)
#
#
# Indices 1 2 3 4 5 6 
#
# 1 0.011663 -0.003842 0.000475 0.000000 0.000000 0.000000
# 2 -0.003842 0.006881 -0.002419 0.000000 0.000000 0.000000
# 3 0.000475 -0.002419 0.009002 0.000000 0.000000 0.000000
# 4 0.000000 0.000000 0.000000 0.016700 0.000000 0.000000
# 5 0.000000 0.000000 0.000000 0.000000 -0.039917 0.000000
# 6 0.000000 0.000000 0.000000 0.000000 0.000000 0.010677
#
#
# Mechanical properties :
#
#
# Convention : Reuss Voigt Hill
#
# Bulk Modulus (GPa) = 62.59420 75.25081 68.92250
# Shear Modulus (GPa) = 156.73207 45.94014 101.33611
#
# Velocity S-wave (km/s) = 7.29167 3.94770 5.86314
# Velocity P-wave (km/s) = 9.59818 6.80489 8.31960
#
# Compressibility (1/GPa) = 0.01597592
#
# Stress axis : x y z
#
# Youngs Moduli (GPa) = 85.74034 145.31897 111.08773
#
# Poissons Ratio (x) = 0.55831 -0.05281
# Poissons Ratio (y) = 0.32941 0.26869
# Poissons Ratio (z) = -0.04076 0.35148
#
# Static dielectric constant tensor:
#      x y z
#    x 2.804760 0.000000 0.000000 
#    y 0.000000 2.141170 0.000000 
#    z 0.000000 0.000000 1.936790 
# 
# From -- ./inp_files/8294.got.cif
#   From: 2010.05.17/outbox.cif.g08.bks.cpg/sg61_5_cif.got.tgz:8294.got - 2010.06.03 15:17:17.
