data_PCOD9460176
_publ_section_title
;
Structure prediction by ZEFSAII (Michael W. Deem and Ramdas Pophale) SiO2 
 PCOD9460176
Probable space group: P B C A
;
_chemical_formula_sum "Si O2"
_cell_formula_units_Z 64
_cell_length_a 8.283352
_cell_length_b 12.004571
_cell_length_c 26.821684
_cell_angle_alpha 90.000000
_cell_angle_beta 90.000000
_cell_angle_gamma 90.000000
_cell_volume 2667.096952
_symmetry_space_group_name_H-M "P B C A"
_symmetry_group_IT_number 61
_symmetry_cell_setting 'orthorhombic'
loop_
_space_group_symop_operation_xyz
x,y,z
1/2-x,-y,1/2+z
1/2+x,1/2-y,-z
-x,1/2+y,1/2-z
-x,-y,-z
1/2+x,y,1/2-z
1/2-x,1/2+y,z
x,1/2-y,1/2+z
loop_
_atom_site_type_symbol
_atom_site_label
_atom_site_fract_x
_atom_site_fract_y
_atom_site_fract_z
Si Si1 0.628746 0.372944 0.478579
Si Si2 0.989053 0.155799 0.825389
Si Si3 0.948149 0.044899 0.929496
Si Si4 0.235468 0.847589 0.698455
Si Si5 0.919298 0.804803 0.898490
Si Si6 0.167104 0.859603 0.343418
Si Si7 0.463950 0.984502 0.758689
Si Si8 0.710499 0.975635 0.054572
O O1 0.773182 0.448480 0.454820
O O2 0.643358 0.259576 0.447356
O O3 0.443554 0.409911 0.469002
O O4 0.672550 0.397855 0.536150
O O5 0.166497 0.205921 0.833787
O O6 0.930850 0.118521 0.879854
O O7 0.009646 0.046348 0.792112
O O8 0.861883 0.233459 0.797635
O O9 0.997553 0.919167 0.915895
O O10 0.112841 0.076849 0.958955
O O11 0.289156 0.846775 0.641373
O O12 0.373731 0.873503 0.738709
O O13 0.116053 0.948431 0.709249
O O14 0.032088 0.722438 0.865841
O O15 0.123865 0.927050 0.293931
O O16 0.197486 0.951194 0.386680
#
# Coordination Sequence:
#
# PCOD9460176 Si02
#       8
#     8   8   8   8   8   8   8   8
#     4  10  21  47  71 103 140 187 224 296 356 413
#     4  11  25  44  68  96 133 183 225 284 344 408
#     4  11  22  44  70 103 141 182 230 292 348 415
#     4  12  28  43  68  99 132 180 233 278 344 423
#     4  11  25  44  71 101 139 180 235 286 349 422
#     4  10  25  47  69  96 138 181 227 290 341 417
#     4  12  27  44  68  98 136 183 227 282 347 411
#     4   9  22  43  73  98 140 182 234 286 355 416
#
# _framework density 23.996127999999999
#
# number of rings (size 3 to 8) (size 9 to 14) (size 15 to 20)
#    0.000    1.250    3.750    0.375    8.750    2.000 
#    6.750    0.000    0.000    0.000    0.000    0.000 
#    0.000    0.000    0.000    0.000    0.000    0.000 
#
# Total GULP energy -357197.483736 kJ/mol
# GULP energy per Si atom -5581.210683 kJ/mol
# Density = 2.394151 g / cm^3
# Si number density = 23.996128 Si / 1000 Ang^3
#
#
#
# Elastic Constant Matrix: (Units=GPa)
#
#
# Indices 1 2 3 4 5 6 
#
# 1 111.5298 15.3861 29.3562 0.0000 0.0000 0.0000
# 2 15.3861 36.6064 21.9232 0.0000 0.0000 0.0000
# 3 29.3562 21.9232 70.5850 0.0000 0.0000 0.0000
# 4 0.0000 0.0000 0.0000 39.1877 0.0000 0.0000
# 5 0.0000 0.0000 0.0000 0.0000 16.2892 0.0000
# 6 0.0000 0.0000 0.0000 0.0000 0.0000 24.0847
#
#
#
# Elastic Compliance Matrix: (Units=1/GPa)
#
#
# Indices 1 2 3 4 5 6 
#
# 1 0.010204 -0.002147 -0.003577 0.000000 0.000000 0.000000
# 2 -0.002147 0.034012 -0.009671 0.000000 0.000000 0.000000
# 3 -0.003577 -0.009671 0.018659 0.000000 0.000000 0.000000
# 4 0.000000 0.000000 0.000000 0.025518 0.000000 0.000000
# 5 0.000000 0.000000 0.000000 0.000000 0.061390 0.000000
# 6 0.000000 0.000000 0.000000 0.000000 0.000000 0.041520
#
#
# Mechanical properties :
#
#
# Convention : Reuss Voigt Hill
#
# Bulk Modulus (GPa) = 31.16717 39.11691 35.14204
# Shear Modulus (GPa) = 21.47882 26.04937 23.76409
#
# Velocity S-wave (km/s) = 2.99506 3.29837 3.15037
# Velocity P-wave (km/s) = 4.99771 5.55359 5.28297
#
# Compressibility (1/GPa) = 0.03208504
#
# Stress axis : x y z
#
# Youngs Moduli (GPa) = 98.00198 29.40157 53.59404
#
# Poissons Ratio (x) = 0.06311 0.19171
# Poissons Ratio (y) = 0.21036 0.51831
# Poissons Ratio (z) = 0.35056 0.28435
#
# Static dielectric constant tensor:
#      x y z
#    x 2.065810 0.000000 0.000000 
#    y 0.000000 1.940800 0.000000 
#    z 0.000000 0.000000 1.921750 
# 
# From -- ./inp_files/11726.got.cif
#   From: 2010.05.17/outbox.cif.g08.bks.cpg/sg61_6_cif.got.tgz:11726.got - 2010.06.03 15:17:17.
