data_PCOD9460821
_publ_section_title
;
Structure prediction by ZEFSAII (Michael W. Deem and Ramdas Pophale) SiO2 
 PCOD9460821
Probable space group: P B C A
;
_chemical_formula_sum "Si O2"
_cell_formula_units_Z 40
_cell_length_a 5.548790
_cell_length_b 10.153540
_cell_length_c 25.891286
_cell_angle_alpha 90.000000
_cell_angle_beta 90.000000
_cell_angle_gamma 90.000000
_cell_volume 1458.711460
_symmetry_space_group_name_H-M "P B C A"
_symmetry_group_IT_number 61
_symmetry_cell_setting 'orthorhombic'
loop_
_space_group_symop_operation_xyz
x,y,z
1/2-x,-y,1/2+z
1/2+x,1/2-y,-z
-x,1/2+y,1/2-z
-x,-y,-z
1/2+x,y,1/2-z
1/2-x,1/2+y,z
x,1/2-y,1/2+z
loop_
_atom_site_type_symbol
_atom_site_label
_atom_site_fract_x
_atom_site_fract_y
_atom_site_fract_z
Si Si1 0.783356 0.425820 0.306750
Si Si2 0.553708 0.657482 0.440731
Si Si3 0.720386 0.028297 0.189116
Si Si4 0.727212 0.899160 0.056875
Si Si5 0.452980 0.718074 0.136311
O O1 0.547298 0.498630 0.327959
O O2 0.797828 0.482584 0.248829
O O3 0.714078 0.276064 0.317487
O O4 0.044581 0.449195 0.331013
O O5 0.325298 0.555652 0.433576
O O6 0.470010 0.810863 0.437646
O O7 0.648593 0.627656 0.498014
O O8 0.776080 0.636922 0.401559
O O9 0.817298 0.167999 0.169818
O O10 0.550780 0.824742 0.096069
#
# Coordination Sequence:
#
# PCOD9460821 Si02
#       5
#     8   8   8   8   8
#     4  10  25  46  71 106 153 201 264 335 398 489
#     4  11  26  49  73 118 159 227 267 360 405 516
#     4  10  25  46  70 107 150 201 264 333 401 478
#     4  11  26  47  75 110 166 211 289 338 424 494
#     4  12  26  44  77 109 156 214 273 332 426 492
#
# _framework density 27.421462999999999
#
# number of rings (size 3 to 8) (size 9 to 14) (size 15 to 20)
#    0.000    1.200    2.000    1.200    8.400    8.800 
#    0.000    0.000    0.000    0.000    0.000    0.000 
#    0.000    0.000    0.000    0.000    0.000    0.000 
#
# Total GULP energy -223167.202858 kJ/mol
# GULP energy per Si atom -5579.180071 kJ/mol
# Density = 2.735905 g / cm^3
# Si number density = 27.421463 Si / 1000 Ang^3
#
#
#
# Elastic Constant Matrix: (Units=GPa)
#
#
# Indices 1 2 3 4 5 6 
#
# 1 94.5161 46.1878 2.0311 0.0000 0.0000 0.0000
# 2 46.1878 84.5023 46.2713 0.0000 0.0000 0.0000
# 3 2.0311 46.2713 169.5281 0.0000 0.0000 0.0000
# 4 0.0000 0.0000 0.0000 -0.1639 0.0000 0.0000
# 5 0.0000 0.0000 0.0000 0.0000 36.5650 0.0000
# 6 0.0000 0.0000 0.0000 0.0000 0.0000 56.4268
#
#
#
# Elastic Compliance Matrix: (Units=1/GPa)
#
#
# Indices 1 2 3 4 5 6 
#
# 1 0.015263 -0.009691 0.002462 0.000000 0.000000 0.000000
# 2 -0.009691 0.020066 -0.005361 0.000000 0.000000 0.000000
# 3 0.002462 -0.005361 0.007332 0.000000 0.000000 0.000000
# 4 0.000000 0.000000 0.000000 -6.099733 0.000000 0.000000
# 5 0.000000 0.000000 0.000000 0.000000 0.027349 0.000000
# 6 0.000000 0.000000 0.000000 0.000000 0.000000 0.017722
#
#
# Mechanical properties :
#
#
# Convention : Reuss Voigt Hill
#
# Bulk Modulus (GPa) = 57.19902 59.72521 58.46212
# Shear Modulus (GPa) = -0.83598 35.50265 17.33333
#
# Velocity S-wave (km/s) = -0.55274 3.60210 2.51690
# Velocity P-wave (km/s) = 4.52738 6.25523 5.46009
#
# Compressibility (1/GPa) = 0.01748282
#
# Stress axis : x y z
#
# Youngs Moduli (GPa) = 65.51830 49.83491 136.38062
#
# Poissons Ratio (x) = 0.48294 -0.33579
# Poissons Ratio (y) = 0.63492 0.73111
# Poissons Ratio (z) = -0.16132 0.26716
#
# Static dielectric constant tensor:
#      x y z
#    x 2.133590 0.000000 0.000000 
#    y 0.000000 2.430940 0.000000 
#    z 0.000000 0.000000 3.577900 
# 
# From -- ./inp_files/11200.got.cif
#   From: 2010.05.17/outbox.cif.g08.bks.cpg/sg61_6_cif.got.tgz:11200.got - 2010.06.03 15:17:17.
