data_PCOD9460349
_publ_section_title
;
Structure prediction by ZEFSAII (Michael W. Deem and Ramdas Pophale) SiO2 
 PCOD9460349
Probable space group: P B C A
;
_chemical_formula_sum "Si O2"
_cell_formula_units_Z 40
_cell_length_a 11.103241
_cell_length_b 14.223519
_cell_length_c 10.017333
_cell_angle_alpha 90.000000
_cell_angle_beta 90.000000
_cell_angle_gamma 90.000000
_cell_volume 1582.008945
_symmetry_space_group_name_H-M "P B C A"
_symmetry_group_IT_number 61
_symmetry_cell_setting 'orthorhombic'
loop_
_space_group_symop_operation_xyz
x,y,z
1/2-x,-y,1/2+z
1/2+x,1/2-y,-z
-x,1/2+y,1/2-z
-x,-y,-z
1/2+x,y,1/2-z
1/2-x,1/2+y,z
x,1/2-y,1/2+z
loop_
_atom_site_type_symbol
_atom_site_label
_atom_site_fract_x
_atom_site_fract_y
_atom_site_fract_z
Si Si1 0.474566 0.362688 0.658792
Si Si2 0.406138 0.431585 0.918305
Si Si3 0.111212 0.850052 0.188146
Si Si4 0.778255 0.400981 0.044611
Si Si5 0.703633 0.193434 0.011748
O O1 0.497158 0.414964 0.797931
O O2 0.450090 0.251566 0.681199
O O3 0.358816 0.409474 0.588421
O O4 0.587421 0.360859 0.559995
O O5 0.311595 0.515811 0.921522
O O6 0.316778 0.340819 0.899586
O O7 0.447644 0.415060 0.071744
O O8 0.125913 0.888949 0.335114
O O9 0.249097 0.834783 0.134679
O O10 0.702428 0.304935 0.025960
#
# Coordination Sequence:
#
# PCOD9460349 Si02
#       5
#     8   8   8   8   8
#     4  11  20  42  67  87 128 174 203 262 319 376
#     4  10  22  42  62  94 127 159 212 265 312 371
#     4   9  20  41  58  88 125 163 205 261 310 372
#     4  11  21  41  66  90 128 163 211 265 306 378
#     4   9  23  40  63  89 127 168 208 248 328 377
#
# _framework density 25.284307999999999
#
# number of rings (size 3 to 8) (size 9 to 14) (size 15 to 20)
#    1.200    0.800    2.000    1.200    0.000    4.000 
#    3.600    1.000    0.000    0.000    0.000    0.000 
#    0.000    0.000    0.000    0.000    0.000    0.000 
#
# Total GULP energy -223587.665087 kJ/mol
# GULP energy per Si atom -5589.691627 kJ/mol
# Density = 2.522676 g / cm^3
# Si number density = 25.284308 Si / 1000 Ang^3
#
#
#
# Elastic Constant Matrix: (Units=GPa)
#
#
# Indices 1 2 3 4 5 6 
#
# 1 60.8501 -7.6247 5.2889 0.0000 0.0000 0.0000
# 2 -7.6247 28.2742 23.6641 0.0000 0.0000 0.0000
# 3 5.2889 23.6641 125.1855 0.0000 0.0000 0.0000
# 4 0.0000 0.0000 0.0000 30.8851 0.0000 0.0000
# 5 0.0000 0.0000 0.0000 0.0000 20.9684 0.0000
# 6 0.0000 0.0000 0.0000 0.0000 0.0000 13.4655
#
#
#
# Elastic Compliance Matrix: (Units=1/GPa)
#
#
# Indices 1 2 3 4 5 6 
#
# 1 0.017391 0.006302 -0.001926 0.000000 0.000000 0.000000
# 2 0.006302 0.044299 -0.008640 0.000000 0.000000 0.000000
# 3 -0.001926 -0.008640 0.009703 0.000000 0.000000 0.000000
# 4 0.000000 0.000000 0.000000 0.032378 0.000000 0.000000
# 5 0.000000 0.000000 0.000000 0.000000 0.047691 0.000000
# 6 0.000000 0.000000 0.000000 0.000000 0.000000 0.074264
#
#
# Mechanical properties :
#
#
# Convention : Reuss Voigt Hill
#
# Bulk Modulus (GPa) = 15.90744 28.55180 22.22962
# Shear Modulus (GPa) = 19.59182 25.92923 22.76052
#
# Velocity S-wave (km/s) = 2.78665 3.20583 3.00356
# Velocity P-wave (km/s) = 4.08154 5.00199 4.56503
#
# Compressibility (1/GPa) = 0.06286366
#
# Stress axis : x y z
#
# Youngs Moduli (GPa) = 57.50154 22.57401 103.06331
#
# Poissons Ratio (x) = -0.14226 0.19850
# Poissons Ratio (y) = -0.36236 0.89048
# Poissons Ratio (z) = 0.11075 0.19504
#
# Static dielectric constant tensor:
#      x y z
#    x 1.984790 0.000000 0.000000 
#    y 0.000000 2.027720 0.000000 
#    z 0.000000 0.000000 2.064170 
# 
# From -- ./inp_files/5096.got.cif
#   From: 2010.05.17/outbox.cif.g08.bks.cpg/sg61_3_cif.got.tgz:5096.got - 2010.06.03 15:17:17.
