data_PCOD9460814
_publ_section_title
;
Structure prediction by ZEFSAII (Michael W. Deem and Ramdas Pophale) SiO2 
 PCOD9460814
Probable space group: P B C A
;
_chemical_formula_sum "Si O2"
_cell_formula_units_Z 40
_cell_length_a 7.538465
_cell_length_b 11.364556
_cell_length_c 19.021299
_cell_angle_alpha 90.000000
_cell_angle_beta 90.000000
_cell_angle_gamma 90.000000
_cell_volume 1629.579558
_symmetry_space_group_name_H-M "P B C A"
_symmetry_group_IT_number 61
_symmetry_cell_setting 'orthorhombic'
loop_
_space_group_symop_operation_xyz
x,y,z
1/2-x,-y,1/2+z
1/2+x,1/2-y,-z
-x,1/2+y,1/2-z
-x,-y,-z
1/2+x,y,1/2-z
1/2-x,1/2+y,z
x,1/2-y,1/2+z
loop_
_atom_site_type_symbol
_atom_site_label
_atom_site_fract_x
_atom_site_fract_y
_atom_site_fract_z
Si Si1 0.431404 0.328987 0.851130
Si Si2 0.809773 0.350236 0.039038
Si Si3 0.822344 0.210093 0.299706
Si Si4 0.094389 0.972166 0.595048
Si Si5 0.963521 0.412638 0.391314
O O1 0.315198 0.294921 0.783857
O O2 0.626583 0.280197 0.832334
O O3 0.456034 0.467453 0.859908
O O4 0.358301 0.268826 0.921068
O O5 0.601849 0.372345 0.049537
O O6 0.920694 0.453855 0.078214
O O7 0.874929 0.364648 0.959481
O O8 0.599679 0.586495 0.328744
O O9 0.937653 0.315874 0.330931
O O10 0.266712 0.053617 0.582679
#
# Coordination Sequence:
#
# PCOD9460814 Si02
#       5
#     8   8   8   8   8
#     4  11  26  44  68 105 134 185 229 282 342 411
#     4  11  24  44  70  97 139 176 230 282 347 396
#     4  11  25  44  69  98 143 176 233 285 335 409
#     4  10  25  45  66 102 134 181 228 286 335 412
#     4  11  25  45  70 100 137 185 228 282 344 403
#
# _framework density 24.546209000000001
#
# number of rings (size 3 to 8) (size 9 to 14) (size 15 to 20)
#    0.000    1.200    2.000    1.800    8.400    6.400 
#    0.000    0.000    0.000    0.000    0.000    0.000 
#    0.000    0.000    0.000    0.000    0.000    0.000 
#
# Total GULP energy -224232.984527 kJ/mol
# GULP energy per Si atom -5605.824613 kJ/mol
# Density = 2.449034 g / cm^3
# Si number density = 24.546209 Si / 1000 Ang^3
#
#
#
# Elastic Constant Matrix: (Units=GPa)
#
#
# Indices 1 2 3 4 5 6 
#
# 1 111.7197 51.9015 21.8187 0.0000 0.0000 0.0000
# 2 51.9015 72.2014 13.4084 0.0000 0.0000 0.0000
# 3 21.8187 13.4084 59.6462 0.0000 0.0000 0.0000
# 4 0.0000 0.0000 0.0000 14.9601 0.0000 0.0000
# 5 0.0000 0.0000 0.0000 0.0000 26.3530 0.0000
# 6 0.0000 0.0000 0.0000 0.0000 0.0000 30.8925
#
#
#
# Elastic Compliance Matrix: (Units=1/GPa)
#
#
# Indices 1 2 3 4 5 6 
#
# 1 0.013925 -0.009459 -0.002967 0.000000 0.000000 0.000000
# 2 -0.009459 0.020878 -0.001233 0.000000 0.000000 0.000000
# 3 -0.002967 -0.001233 0.018128 0.000000 0.000000 0.000000
# 4 0.000000 0.000000 0.000000 0.066844 0.000000 0.000000
# 5 0.000000 0.000000 0.000000 0.000000 0.037946 0.000000
# 6 0.000000 0.000000 0.000000 0.000000 0.000000 0.032370
#
#
# Mechanical properties :
#
#
# Convention : Reuss Voigt Hill
#
# Bulk Modulus (GPa) = 39.04348 46.42496 42.73422
# Shear Modulus (GPa) = 22.12890 24.87037 23.49963
#
# Velocity S-wave (km/s) = 3.00579 3.18654 3.09749
# Velocity P-wave (km/s) = 5.29027 5.70027 5.49910
#
# Compressibility (1/GPa) = 0.02561247
#
# Stress axis : x y z
#
# Youngs Moduli (GPa) = 71.81496 47.89625 55.16245
#
# Poissons Ratio (x) = 0.45303 0.16369
# Poissons Ratio (y) = 0.67927 0.06804
# Poissons Ratio (z) = 0.21310 0.05908
#
# Static dielectric constant tensor:
#      x y z
#    x 1.946130 0.000000 0.000000 
#    y 0.000000 1.937700 0.000000 
#    z 0.000000 0.000000 1.937950 
# 
# From -- ./inp_files/10048.got.cif
#   From: 2010.05.17/outbox.cif.g08.bks.cpg/sg61_6_cif.got.tgz:10048.got - 2010.06.03 15:17:17.
