data_PCOD9460727
_publ_section_title
;
Structure prediction by ZEFSAII (Michael W. Deem and Ramdas Pophale) SiO2 
 PCOD9460727
Probable space group: P B C A
;
_chemical_formula_sum "Si O2"
_cell_formula_units_Z 64
_cell_length_a 11.670151
_cell_length_b 15.005952
_cell_length_c 15.623681
_cell_angle_alpha 90.000000
_cell_angle_beta 90.000000
_cell_angle_gamma 90.000000
_cell_volume 2736.045979
_symmetry_space_group_name_H-M "P B C A"
_symmetry_group_IT_number 61
_symmetry_cell_setting 'orthorhombic'
loop_
_space_group_symop_operation_xyz
x,y,z
1/2-x,-y,1/2+z
1/2+x,1/2-y,-z
-x,1/2+y,1/2-z
-x,-y,-z
1/2+x,y,1/2-z
1/2-x,1/2+y,z
x,1/2-y,1/2+z
loop_
_atom_site_type_symbol
_atom_site_label
_atom_site_fract_x
_atom_site_fract_y
_atom_site_fract_z
Si Si1 0.568406 0.037563 0.671298
Si Si2 0.841947 0.396145 0.403212
Si Si3 0.473434 0.933761 0.812855
Si Si4 0.848860 0.179711 0.423759
Si Si5 0.740134 0.159176 0.742093
Si Si6 0.116585 0.731652 0.895521
Si Si7 0.754559 0.090338 0.085963
Si Si8 0.115775 0.316890 0.656779
O O1 0.527177 0.021185 0.769187
O O2 0.644874 0.955694 0.639958
O O3 0.463251 0.057005 0.609116
O O4 0.655276 0.119629 0.672512
O O5 0.859677 0.287915 0.410109
O O6 0.772562 0.410419 0.315835
O O7 0.774130 0.428099 0.486089
O O8 0.568270 0.873261 0.859876
O O9 0.366223 0.940711 0.876651
O O10 0.425763 0.886379 0.727111
O O11 0.879273 0.167055 0.523211
O O12 0.718067 0.152114 0.404581
O O13 0.856364 0.187960 0.695376
O O14 0.675387 0.238989 0.788417
O O15 0.219221 0.804241 0.904765
O O16 0.994110 0.779902 0.893107
#
# Coordination Sequence:
#
# PCOD9460727 Si02
#       8
#     8   8   8   8   8   8   8   8
#     4  12  24  43  67  98 138 185 227 277 356 420
#     4  10  24  43  64  98 137 178 225 282 349 411
#     4  12  23  43  68 101 138 180 233 282 343 416
#     4  10  25  40  70 107 134 178 233 292 341 411
#     4  11  23  43  68  96 134 181 222 282 350 410
#     4  11  23  41  69 105 133 177 232 285 343 409
#     4  11  24  42  67  99 134 177 227 285 337 414
#     4  11  21  41  70  95 138 176 229 281 343 414
#
# _framework density 23.39142
#
# number of rings (size 3 to 8) (size 9 to 14) (size 15 to 20)
#    0.000    1.000    2.500    4.875    5.250    1.000 
#    4.500    0.625    0.000    0.000    0.000    0.000 
#    0.000    0.000    0.000    0.000    0.000    0.000 
#
# Total GULP energy -358134.575615 kJ/mol
# GULP energy per Si atom -5595.852744 kJ/mol
# Density = 2.333818 g / cm^3
# Si number density = 23.391420 Si / 1000 Ang^3
#
#
#
# Elastic Constant Matrix: (Units=GPa)
#
#
# Indices 1 2 3 4 5 6 
#
# 1 132.9806 4.6832 35.3415 0.0000 0.0000 0.0000
# 2 4.6832 25.9562 -6.2401 0.0000 0.0000 0.0000
# 3 35.3415 -6.2401 97.7058 0.0000 0.0000 0.0000
# 4 0.0000 0.0000 0.0000 -5.8195 0.0000 0.0000
# 5 0.0000 0.0000 0.0000 0.0000 44.2839 0.0000
# 6 0.0000 0.0000 0.0000 0.0000 0.0000 24.3984
#
#
#
# Elastic Compliance Matrix: (Units=1/GPa)
#
#
# Indices 1 2 3 4 5 6 
#
# 1 0.008452 -0.002295 -0.003204 0.000000 0.000000 0.000000
# 2 -0.002295 0.039750 0.003369 0.000000 0.000000 0.000000
# 3 -0.003204 0.003369 0.011609 0.000000 0.000000 0.000000
# 4 0.000000 0.000000 0.000000 -0.171835 0.000000 0.000000
# 5 0.000000 0.000000 0.000000 0.000000 0.022582 0.000000
# 6 0.000000 0.000000 0.000000 0.000000 0.000000 0.040986
#
#
# Mechanical properties :
#
#
# Convention : Reuss Voigt Hill
#
# Bulk Modulus (GPa) = 18.00142 36.02352 27.01247
# Shear Modulus (GPa) = -194.71672 27.42976 -83.64348
#
# Velocity S-wave (km/s) = -9.13365 3.42810 -5.98630
# Velocity P-wave (km/s) = 10.17442 5.57700 6.01731
#
# Compressibility (1/GPa) = 0.05555119
#
# Stress axis : x y z
#
# Youngs Moduli (GPa) = 118.31243 25.15694 86.14116
#
# Poissons Ratio (x) = 0.05774 0.27598
# Poissons Ratio (y) = 0.27155 -0.29020
# Poissons Ratio (z) = 0.37906 -0.08475
#
# Static dielectric constant tensor:
#      x y z
#    x 1.877100 0.000000 0.000000 
#    y 0.000000 1.910780 0.000000 
#    z 0.000000 0.000000 1.897940 
# 
# From -- ./inp_files/7644.got.cif
#   From: 2010.05.17/outbox.cif.g08.bks.cpg/sg61_4_cif.got.tgz:7644.got - 2010.06.03 15:17:17.
