data_PCOD9460996
_publ_section_title
;
Structure prediction by ZEFSAII (Michael W. Deem and Ramdas Pophale) SiO2 
 PCOD9460996
Probable space group: P B C A
;
_chemical_formula_sum "Si O2"
_cell_formula_units_Z 48
_cell_length_a 10.326352
_cell_length_b 16.472875
_cell_length_c 11.805455
_cell_angle_alpha 90.000000
_cell_angle_beta 90.000000
_cell_angle_gamma 90.000000
_cell_volume 2008.163448
_symmetry_space_group_name_H-M "P B C A"
_symmetry_group_IT_number 61
_symmetry_cell_setting 'orthorhombic'
loop_
_space_group_symop_operation_xyz
x,y,z
1/2-x,-y,1/2+z
1/2+x,1/2-y,-z
-x,1/2+y,1/2-z
-x,-y,-z
1/2+x,y,1/2-z
1/2-x,1/2+y,z
x,1/2-y,1/2+z
loop_
_atom_site_type_symbol
_atom_site_label
_atom_site_fract_x
_atom_site_fract_y
_atom_site_fract_z
Si Si1 0.991823 0.628274 0.018971
Si Si2 0.429989 0.824140 0.738090
Si Si3 0.829019 0.828077 0.159485
Si Si4 0.254724 0.410846 0.119531
Si Si5 0.214298 0.411401 0.556456
Si Si6 0.385004 0.209607 0.445690
O O1 0.135940 0.592434 0.018550
O O2 0.937929 0.625532 0.146727
O O3 0.012247 0.723305 0.988040
O O4 0.890568 0.589987 0.932955
O O5 0.428758 0.728957 0.772217
O O6 0.309498 0.848165 0.658667
O O7 0.550992 0.840363 0.656041
O O8 0.756954 0.883487 0.251273
O O9 0.732006 0.761516 0.106752
O O10 0.868038 0.883296 0.052874
O O11 0.314567 0.499196 0.100875
O O12 0.331202 0.344470 0.046405
#
# Coordination Sequence:
#
# PCOD9460996 Si02
#       6
#     8   8   8   8   8   8
#     4  11  24  43  71  97 138 187 236 281 354 430
#     4  12  22  44  72 101 139 182 241 292 344 429
#     4  11  23  44  70  98 138 187 235 283 348 430
#     4  12  25  46  70 105 145 178 234 304 353 420
#     4  11  28  44  70 109 142 187 234 295 373 410
#     4  11  23  43  71 104 129 187 244 281 348 421
#
# _framework density 23.902435000000001
#
# number of rings (size 3 to 8) (size 9 to 14) (size 15 to 20)
#    0.000    0.667    3.333    5.500    2.333    0.667 
#    0.000    0.000    0.000    0.000    0.000    0.000 
#    0.000    0.000    0.000    0.000    0.000    0.000 
#
# Total GULP energy -268795.082682 kJ/mol
# GULP energy per Si atom -5599.897556 kJ/mol
# Density = 2.384803 g / cm^3
# Si number density = 23.902435 Si / 1000 Ang^3
#
#
#
# Elastic Constant Matrix: (Units=GPa)
#
#
# Indices 1 2 3 4 5 6 
#
# 1 58.6722 -11.7610 5.2335 0.0000 0.0000 0.0000
# 2 -11.7610 94.3751 35.5154 0.0000 0.0000 0.0000
# 3 5.2335 35.5154 154.4704 0.0000 0.0000 0.0000
# 4 0.0000 0.0000 0.0000 19.1777 0.0000 0.0000
# 5 0.0000 0.0000 0.0000 0.0000 21.3412 0.0000
# 6 0.0000 0.0000 0.0000 0.0000 0.0000 19.6881
#
#
#
# Elastic Compliance Matrix: (Units=1/GPa)
#
#
# Indices 1 2 3 4 5 6 
#
# 1 0.017685 0.002659 -0.001211 0.000000 0.000000 0.000000
# 2 0.002659 0.012000 -0.002849 0.000000 0.000000 0.000000
# 3 -0.001211 -0.002849 0.007170 0.000000 0.000000 0.000000
# 4 0.000000 0.000000 0.000000 0.052144 0.000000 0.000000
# 5 0.000000 0.000000 0.000000 0.000000 0.046858 0.000000
# 6 0.000000 0.000000 0.000000 0.000000 0.000000 0.050792
#
#
# Mechanical properties :
#
#
# Convention : Reuss Voigt Hill
#
# Bulk Modulus (GPa) = 29.36517 40.61039 34.98778
# Shear Modulus (GPa) = 24.90045 30.61006 27.75526
#
# Velocity S-wave (km/s) = 3.23112 3.58246 3.41132
# Velocity P-wave (km/s) = 5.12175 5.84286 5.49415
#
# Compressibility (1/GPa) = 0.03405395
#
# Stress axis : x y z
#
# Youngs Moduli (GPa) = 56.54535 83.33625 139.47416
#
# Poissons Ratio (x) = -0.22163 0.16885
# Poissons Ratio (y) = -0.15038 0.39736
# Poissons Ratio (z) = 0.06846 0.23743
#
# Static dielectric constant tensor:
#      x y z
#    x 1.972880 0.000000 0.000000 
#    y 0.000000 1.915560 0.000000 
#    z 0.000000 0.000000 1.900850 
# 
# From -- ./inp_files/5244.got.cif
#   From: 2010.05.17/outbox.cif.g08.bks.cpg/sg61_3_cif.got.tgz:5244.got - 2010.06.03 15:17:17.
