data_PCOD9460692
_publ_section_title
;
Structure prediction by ZEFSAII (Michael W. Deem and Ramdas Pophale) SiO2 
 PCOD9460692
Probable space group: P B C A
;
_chemical_formula_sum "Si O2"
_cell_formula_units_Z 64
_cell_length_a 32.954460
_cell_length_b 7.885313
_cell_length_c 11.274792
_cell_angle_alpha 90.000000
_cell_angle_beta 90.000000
_cell_angle_gamma 90.000000
_cell_volume 2929.824964
_symmetry_space_group_name_H-M "P B C A"
_symmetry_group_IT_number 61
_symmetry_cell_setting 'orthorhombic'
loop_
_space_group_symop_operation_xyz
x,y,z
1/2-x,-y,1/2+z
1/2+x,1/2-y,-z
-x,1/2+y,1/2-z
-x,-y,-z
1/2+x,y,1/2-z
1/2-x,1/2+y,z
x,1/2-y,1/2+z
loop_
_atom_site_type_symbol
_atom_site_label
_atom_site_fract_x
_atom_site_fract_y
_atom_site_fract_z
Si Si1 0.935777 0.457262 0.509902
Si Si2 0.807029 0.944554 0.109763
Si Si3 0.887386 0.546899 0.742861
Si Si4 0.112179 0.652532 0.708005
Si Si5 0.046784 0.316538 0.086401
Si Si6 0.538613 0.895097 0.111157
Si Si7 0.739844 0.729959 0.224319
Si Si8 0.692323 0.996676 0.339526
O O1 0.917715 0.527417 0.631957
O O2 0.899793 0.397826 0.424399
O O3 0.956450 0.618370 0.446717
O O4 0.958262 0.279346 0.534882
O O5 0.844777 0.885694 0.191279
O O6 0.765112 0.847801 0.135290
O O7 0.794766 0.131893 0.152968
O O8 0.817129 0.943039 0.971661
O O9 0.880417 0.353829 0.786722
O O10 0.911458 0.651325 0.842671
O O11 0.073926 0.612470 0.791930
O O12 0.151887 0.542492 0.735094
O O13 0.007418 0.383311 0.159771
O O14 0.045032 0.439902 0.971093
O O15 0.717558 0.821626 0.333480
O O16 0.775784 0.619299 0.278579
#
# Coordination Sequence:
#
# PCOD9460692 Si02
#       8
#     8   8   8   8   8   8   8   8
#     4  11  24  44  69  97 135 183 219 279 344 396
#     4  11  22  41  65  93 133 166 221 268 330 404
#     4  11  24  43  68 100 132 176 225 275 336 413
#     4  11  23  43  68  95 137 177 218 277 342 403
#     4  11  25  44  68  97 136 176 232 282 332 398
#     4  10  25  46  66  99 133 180 229 279 338 401
#     4  10  24  40  65  98 126 170 220 273 326 405
#     4  11  22  43  66  95 131 175 214 273 342 392
#
# _framework density 21.84431
#
# number of rings (size 3 to 8) (size 9 to 14) (size 15 to 20)
#    0.000    1.250    3.750    1.125    3.500    3.000 
#    0.000    1.250    0.000    0.000    0.000    0.000 
#    0.000    0.000    0.000    0.000    0.000    0.000 
#
# Total GULP energy -357169.678108 kJ/mol
# GULP energy per Si atom -5580.776220 kJ/mol
# Density = 2.179459 g / cm^3
# Si number density = 21.844310 Si / 1000 Ang^3
#
#
#
# Elastic Constant Matrix: (Units=GPa)
#
#
# Indices 1 2 3 4 5 6 
#
# 1 94.3437 5.3271 8.6817 0.0000 0.0000 0.0000
# 2 5.3271 56.6606 14.5912 0.0000 0.0000 0.0000
# 3 8.6817 14.5912 50.6592 0.0000 0.0000 0.0000
# 4 0.0000 0.0000 0.0000 7.8687 0.0000 0.0000
# 5 0.0000 0.0000 0.0000 0.0000 24.0265 0.0000
# 6 0.0000 0.0000 0.0000 0.0000 0.0000 24.3930
#
#
#
# Elastic Compliance Matrix: (Units=1/GPa)
#
#
# Indices 1 2 3 4 5 6 
#
# 1 0.010787 -0.000581 -0.001681 0.000000 0.000000 0.000000
# 2 -0.000581 0.019094 -0.005400 0.000000 0.000000 0.000000
# 3 -0.001681 -0.005400 0.021583 0.000000 0.000000 0.000000
# 4 0.000000 0.000000 0.000000 0.127086 0.000000 0.000000
# 5 0.000000 0.000000 0.000000 0.000000 0.041621 0.000000
# 6 0.000000 0.000000 0.000000 0.000000 0.000000 0.040995
#
#
# Mechanical properties :
#
#
# Convention : Reuss Voigt Hill
#
# Bulk Modulus (GPa) = 27.67053 28.76261 28.21657
# Shear Modulus (GPa) = 17.32876 22.79521 20.06199
#
# Velocity S-wave (km/s) = 2.81959 3.23388 3.03381
# Velocity P-wave (km/s) = 4.82646 5.20957 5.02167
#
# Compressibility (1/GPa) = 0.03613953
#
# Stress axis : x y z
#
# Youngs Moduli (GPa) = 92.70362 52.37184 46.33229
#
# Poissons Ratio (x) = 0.03044 0.07789
# Poissons Ratio (y) = 0.05388 0.25020
# Poissons Ratio (z) = 0.15585 0.28281
#
# Static dielectric constant tensor:
#      x y z
#    x 1.824350 0.000000 0.000000 
#    y 0.000000 1.855950 0.000000 
#    z 0.000000 0.000000 1.755660 
# 
# From -- ./inp_files/6780.got.cif
#   From: 2010.05.17/outbox.cif.g08.bks.cpg/sg61_4_cif.got.tgz:6780.got - 2010.06.03 15:17:17.
