data_PCOD9460317
_publ_section_title
;
Structure prediction by ZEFSAII (Michael W. Deem and Ramdas Pophale) SiO2 
 PCOD9460317
Probable space group: P B C A
;
_chemical_formula_sum "Si O2"
_cell_formula_units_Z 60
_cell_length_a 25.011577
_cell_length_b 12.651457
_cell_length_c 8.696557
_cell_angle_alpha 90.000000
_cell_angle_beta 90.000000
_cell_angle_gamma 90.000000
_cell_volume 2751.876673
_symmetry_space_group_name_H-M "P B C A"
_symmetry_group_IT_number 61
_symmetry_cell_setting 'orthorhombic'
loop_
_space_group_symop_operation_xyz
x,y,z
1/2-x,-y,1/2+z
1/2+x,1/2-y,-z
-x,1/2+y,1/2-z
-x,-y,-z
1/2+x,y,1/2-z
1/2-x,1/2+y,z
x,1/2-y,1/2+z
loop_
_atom_site_type_symbol
_atom_site_label
_atom_site_fract_x
_atom_site_fract_y
_atom_site_fract_z
Si Si1 0.059807 0.916014 0.694838
Si Si2 0.572093 0.368268 0.431847
Si Si3 0.288303 0.894566 0.754580
Si Si4 0.197088 0.629949 0.691724
Si Si5 0.500000 0.000000 0.500000
Si Si6 0.016145 0.228867 0.851396
Si Si7 0.312101 0.800985 0.085047
Si Si8 0.829570 0.346104 0.663678
O O1 0.118246 0.896513 0.764143
O O2 0.035205 0.804859 0.643574
O O3 0.062777 0.006460 0.564394
O O4 0.023881 0.963859 0.831002
O O5 0.530156 0.313158 0.317409
O O6 0.563783 0.305766 0.589913
O O7 0.631093 0.346515 0.365947
O O8 0.308667 0.824552 0.612666
O O9 0.223807 0.894948 0.759058
O O10 0.310356 0.012360 0.753175
O O11 0.304658 0.833366 0.908584
O O12 0.260629 0.652744 0.673847
O O13 0.173112 0.721400 0.797589
O O14 0.173805 0.637921 0.519272
O O15 0.509633 0.125480 0.545487
#
# Coordination Sequence:
#
# PCOD9460317 Si02
#       8
#     8   8   8   8   4   8   8   8
#     4  11  24  44  68  93 133 173 225 282 330 396
#     4  11  23  41  67  95 128 174 219 271 332 395
#     4  10  22  42  66  96 137 174 212 276 327 398
#     4  10  23  42  65  97 135 173 215 275 332 396
#     4  10  24  44  64  94 130 170 208 284 326 386
#     4  11  23  44  65  96 130 168 225 272 333 386
#     4  10  22  41  63  98 131 168 224 266 323 406
#     4  10  24  41  66  98 130 174 226 268 340 402
#
# _framework density 21.803303
#
# number of rings (size 3 to 8) (size 9 to 14) (size 15 to 20)
#    0.000    1.600    1.333    2.000    1.867   12.800 
#    2.400    0.000    0.000    0.000    0.000    0.000 
#    0.000    0.000    0.000    0.000    0.000    0.000 
#
# Total GULP energy -334414.758467 kJ/mol
# GULP energy per Si atom -5573.579308 kJ/mol
# Density = 2.175368 g / cm^3
# Si number density = 21.803303 Si / 1000 Ang^3
#
#
#
# Elastic Constant Matrix: (Units=GPa)
#
#
# Indices 1 2 3 4 5 6 
#
# 1 27.1903 -3.4931 6.4442 0.0000 0.0000 0.0000
# 2 -3.4931 131.7452 40.9328 0.0000 0.0000 0.0000
# 3 6.4442 40.9328 46.3658 0.0000 0.0000 0.0000
# 4 0.0000 0.0000 0.0000 13.9527 0.0000 0.0000
# 5 0.0000 0.0000 0.0000 0.0000 8.1240 0.0000
# 6 0.0000 0.0000 0.0000 0.0000 0.0000 5.9256
#
#
#
# Elastic Compliance Matrix: (Units=1/GPa)
#
#
# Indices 1 2 3 4 5 6 
#
# 1 0.039350 0.003779 -0.008805 0.000000 0.000000 0.000000
# 2 0.003779 0.010822 -0.010079 0.000000 0.000000 0.000000
# 3 -0.008805 -0.010079 0.031690 0.000000 0.000000 0.000000
# 4 0.000000 0.000000 0.000000 0.071671 0.000000 0.000000
# 5 0.000000 0.000000 0.000000 0.000000 0.123092 0.000000
# 6 0.000000 0.000000 0.000000 0.000000 0.000000 0.168759
#
#
# Mechanical properties :
#
#
# Convention : Reuss Voigt Hill
#
# Bulk Modulus (GPa) = 19.36076 32.56323 25.96200
# Shear Modulus (GPa) = 10.14584 16.36163 13.25373
#
# Velocity S-wave (km/s) = 2.15950 2.74235 2.46819
# Velocity P-wave (km/s) = 3.88805 4.99947 4.47838
#
# Compressibility (1/GPa) = 0.05165086
#
# Stress axis : x y z
#
# Youngs Moduli (GPa) = 25.41281 92.40242 31.55599
#
# Poissons Ratio (x) = -0.34920 0.27787
# Poissons Ratio (y) = -0.09604 0.31806
# Poissons Ratio (z) = 0.22377 0.93136
#
# Static dielectric constant tensor:
#      x y z
#    x 1.812680 0.000000 0.000000 
#    y 0.000000 1.775220 0.000000 
#    z 0.000000 0.000000 1.784680 
# 
# From -- ./inp_files/4472.got.cif
#   From: 2010.05.17/outbox.cif.g08.bks.cpg/sg61_3_cif.got.tgz:4472.got - 2010.06.03 15:17:17.
