data_PCOD9460400
_publ_section_title
;
Structure prediction by ZEFSAII (Michael W. Deem and Ramdas Pophale) SiO2 
 PCOD9460400
Probable space group: P B C A
;
_chemical_formula_sum "Si O2"
_cell_formula_units_Z 64
_cell_length_a 21.016845
_cell_length_b 9.312055
_cell_length_c 15.680145
_cell_angle_alpha 90.000000
_cell_angle_beta 90.000000
_cell_angle_gamma 90.000000
_cell_volume 3068.761438
_symmetry_space_group_name_H-M "P B C A"
_symmetry_group_IT_number 61
_symmetry_cell_setting 'orthorhombic'
loop_
_space_group_symop_operation_xyz
x,y,z
1/2-x,-y,1/2+z
1/2+x,1/2-y,-z
-x,1/2+y,1/2-z
-x,-y,-z
1/2+x,y,1/2-z
1/2-x,1/2+y,z
x,1/2-y,1/2+z
loop_
_atom_site_type_symbol
_atom_site_label
_atom_site_fract_x
_atom_site_fract_y
_atom_site_fract_z
Si Si1 0.370322 0.200280 0.115729
Si Si2 0.066669 0.010132 0.284450
Si Si3 0.108243 0.482656 0.433545
Si Si4 0.241677 0.650486 0.220252
Si Si5 0.263923 0.600479 0.838983
Si Si6 0.155093 0.014397 0.117157
Si Si7 0.363506 0.322917 0.427761
Si Si8 0.491513 0.813188 0.328936
O O1 0.332354 0.132051 0.194453
O O2 0.329827 0.346821 0.101764
O O3 0.440794 0.251740 0.138824
O O4 0.371561 0.123580 0.024905
O O5 0.112844 0.020026 0.202476
O O6 0.048689 0.171347 0.309045
O O7 0.099117 0.921394 0.360446
O O8 0.007057 0.914887 0.251728
O O9 0.168111 0.415509 0.382804
O O10 0.117634 0.442324 0.532612
O O11 0.112658 0.656636 0.423763
O O12 0.044406 0.413757 0.396413
O O13 0.256106 0.554065 0.302920
O O14 0.261680 0.805648 0.253109
O O15 0.282413 0.602767 0.139131
O O16 0.210169 0.664101 0.900785
#
# Coordination Sequence:
#
# PCOD9460400 Si02
#       8
#     8   8   8   8   8   8   8   8
#     4  10  24  42  65  94 136 173 217 278 339 398
#     4  11  23  43  67  91 133 174 227 282 330 409
#     4  11  25  41  68  96 132 177 224 274 344 403
#     4  12  21  43  67  97 131 171 217 274 337 403
#     4  12  23  39  70  96 131 169 221 272 341 400
#     4  10  22  43  64  94 129 171 220 278 335 400
#     4  11  23  44  65  95 134 172 223 286 337 396
#     4  11  25  43  66  99 128 182 229 271 338 413
#
# _framework density 20.855319000000001
#
# number of rings (size 3 to 8) (size 9 to 14) (size 15 to 20)
#    0.000    1.000    3.750    3.000    1.750    6.000 
#    2.250    0.000    0.000    0.000    0.000    0.000 
#    0.000    0.000    0.000    0.000    0.000    0.000 
#
# Total GULP energy -357396.705290 kJ/mol
# GULP energy per Si atom -5584.323520 kJ/mol
# Density = 2.080785 g / cm^3
# Si number density = 20.855319 Si / 1000 Ang^3
#
#
#
# Elastic Constant Matrix: (Units=GPa)
#
#
# Indices 1 2 3 4 5 6 
#
# 1 51.4048 20.0420 7.6855 0.0000 0.0000 0.0000
# 2 20.0420 55.4821 13.9784 0.0000 0.0000 0.0000
# 3 7.6855 13.9784 85.9276 0.0000 0.0000 0.0000
# 4 0.0000 0.0000 0.0000 19.1778 0.0000 0.0000
# 5 0.0000 0.0000 0.0000 0.0000 27.1786 0.0000
# 6 0.0000 0.0000 0.0000 0.0000 0.0000 35.2612
#
#
#
# Elastic Compliance Matrix: (Units=1/GPa)
#
#
# Indices 1 2 3 4 5 6 
#
# 1 0.022686 -0.008012 -0.000726 0.000000 0.000000 0.000000
# 2 -0.008012 0.021624 -0.002801 0.000000 0.000000 0.000000
# 3 -0.000726 -0.002801 0.012158 0.000000 0.000000 0.000000
# 4 0.000000 0.000000 0.000000 0.052144 0.000000 0.000000
# 5 0.000000 0.000000 0.000000 0.000000 0.036794 0.000000
# 6 0.000000 0.000000 0.000000 0.000000 0.000000 0.028360
#
#
# Mechanical properties :
#
#
# Convention : Reuss Voigt Hill
#
# Bulk Modulus (GPa) = 29.94888 30.69180 30.32034
# Shear Modulus (GPa) = 24.04166 26.39743 25.21954
#
# Velocity S-wave (km/s) = 3.39895 3.56158 3.48122
# Velocity P-wave (km/s) = 5.45851 5.62687 5.54333
#
# Compressibility (1/GPa) = 0.03339023
#
# Stress axis : x y z
#
# Youngs Moduli (GPa) = 44.08060 46.24543 82.24849
#
# Poissons Ratio (x) = 0.37052 0.05969
# Poissons Ratio (y) = 0.35317 0.23038
# Poissons Ratio (z) = 0.03199 0.12954
#
# Static dielectric constant tensor:
#      x y z
#    x 1.789100 0.000000 0.000000 
#    y 0.000000 1.753230 0.000000 
#    z 0.000000 0.000000 1.756770 
# 
# From -- ./inp_files/8523.got.cif
#   From: 2010.05.17/outbox.cif.g08.bks.cpg/sg61_5_cif.got.tgz:8523.got - 2010.06.03 15:17:17.
