data_PCOD9460060
_publ_section_title
;
Structure prediction by ZEFSAII (Michael W. Deem and Ramdas Pophale) SiO2 
 PCOD9460060
Probable space group: P B C A
;
_chemical_formula_sum "Si O2"
_cell_formula_units_Z 64
_cell_length_a 10.166945
_cell_length_b 13.808734
_cell_length_c 19.108028
_cell_angle_alpha 90.000000
_cell_angle_beta 90.000000
_cell_angle_gamma 90.000000
_cell_volume 2682.626479
_symmetry_space_group_name_H-M "P B C A"
_symmetry_group_IT_number 61
_symmetry_cell_setting 'orthorhombic'
loop_
_space_group_symop_operation_xyz
x,y,z
1/2-x,-y,1/2+z
1/2+x,1/2-y,-z
-x,1/2+y,1/2-z
-x,-y,-z
1/2+x,y,1/2-z
1/2-x,1/2+y,z
x,1/2-y,1/2+z
loop_
_atom_site_type_symbol
_atom_site_label
_atom_site_fract_x
_atom_site_fract_y
_atom_site_fract_z
Si Si1 0.401079 0.340343 0.397567
Si Si2 0.398892 0.396423 0.036796
Si Si3 0.842816 0.528166 0.588478
Si Si4 0.563290 0.274125 0.794263
Si Si5 0.233460 0.059963 0.129588
Si Si6 0.147050 0.940557 0.774062
Si Si7 0.324207 0.797005 0.846010
Si Si8 0.065700 0.684537 0.050817
O O1 0.304844 0.432503 0.403433
O O2 0.501662 0.316088 0.335566
O O3 0.292313 0.256411 0.385933
O O4 0.475183 0.330072 0.470789
O O5 0.558187 0.400483 0.046244
O O6 0.343804 0.474941 0.091110
O O7 0.359640 0.287601 0.053107
O O8 0.356873 0.432738 0.959796
O O9 0.901793 0.513162 0.666341
O O10 0.648512 0.346775 0.843589
O O11 0.449206 0.348123 0.767083
O O12 0.639099 0.239714 0.725127
O O13 0.309279 0.023376 0.198865
O O14 0.337532 0.100480 0.074454
O O15 0.274669 0.897259 0.813360
O O16 0.446084 0.811187 0.896031
#
# Coordination Sequence:
#
# PCOD9460060 Si02
#       8
#     8   8   8   8   8   8   8   8
#     4  11  24  40  68  96 132 175 225 276 328 400
#     4  11  23  40  67  97 130 171 220 273 324 406
#     4  11  22  42  64  97 132 170 224 272 330 393
#     4  10  21  41  66  93 128 177 220 268 340 393
#     4  11  23  42  68  97 135 175 219 269 336 398
#     4  10  21  41  66  92 134 172 215 274 328 394
#     4  10  22  41  63  93 132 174 217 275 331 397
#     4  12  24  41  67  98 133 176 223 272 331 396
#
# _framework density 23.857216000000001
#
# number of rings (size 3 to 8) (size 9 to 14) (size 15 to 20)
#    0.000    1.250    5.000    1.500    3.500    1.000 
#    0.000    1.875    0.000    0.000    0.000    0.000 
#    0.000    0.000    0.000    0.000    0.000    0.000 
#
# Total GULP energy -357785.250716 kJ/mol
# GULP energy per Si atom -5590.394542 kJ/mol
# Density = 2.380292 g / cm^3
# Si number density = 23.857216 Si / 1000 Ang^3
#
#
#
# Elastic Constant Matrix: (Units=GPa)
#
#
# Indices 1 2 3 4 5 6 
#
# 1 26.8053 -5.1750 17.0806 0.0000 0.0000 0.0000
# 2 -5.1750 43.4989 10.2156 0.0000 0.0000 0.0000
# 3 17.0806 10.2156 111.3849 0.0000 0.0000 0.0000
# 4 0.0000 0.0000 0.0000 26.5648 0.0000 0.0000
# 5 0.0000 0.0000 0.0000 0.0000 18.9672 0.0000
# 6 0.0000 0.0000 0.0000 0.0000 0.0000 18.5412
#
#
#
# Elastic Compliance Matrix: (Units=1/GPa)
#
#
# Indices 1 2 3 4 5 6 
#
# 1 0.043256 0.006851 -0.007262 0.000000 0.000000 0.000000
# 2 0.006851 0.024580 -0.003305 0.000000 0.000000 0.000000
# 3 -0.007262 -0.003305 0.010395 0.000000 0.000000 0.000000
# 4 0.000000 0.000000 0.000000 0.037644 0.000000 0.000000
# 5 0.000000 0.000000 0.000000 0.000000 0.052723 0.000000
# 6 0.000000 0.000000 0.000000 0.000000 0.000000 0.053934
#
#
# Mechanical properties :
#
#
# Convention : Reuss Voigt Hill
#
# Bulk Modulus (GPa) = 14.12420 25.10352 19.61386
# Shear Modulus (GPa) = 19.71906 23.45249 21.58578
#
# Velocity S-wave (km/s) = 2.87809 3.13874 3.01124
# Velocity P-wave (km/s) = 4.12040 4.86630 4.50880
#
# Compressibility (1/GPa) = 0.07080047
#
# Stress axis : x y z
#
# Youngs Moduli (GPa) = 23.11821 40.68291 96.20432
#
# Poissons Ratio (x) = -0.27874 0.69860
# Poissons Ratio (y) = -0.15839 0.31796
# Poissons Ratio (z) = 0.16787 0.13446
#
# Static dielectric constant tensor:
#      x y z
#    x 1.933870 0.000000 0.000000 
#    y 0.000000 1.966570 0.000000 
#    z 0.000000 0.000000 1.944190 
# 
# From -- ./inp_files/5989.got.cif
#   From: 2010.05.17/outbox.cif.g08.bks.cpg/sg61_3_cif.got.tgz:5989.got - 2010.06.03 15:17:17.
