data_PCOD9460744
_publ_section_title
;
Structure prediction by ZEFSAII (Michael W. Deem and Ramdas Pophale) SiO2 
 PCOD9460744
Probable space group: P B C A
;
_chemical_formula_sum "Si O2"
_cell_formula_units_Z 40
_cell_length_a 8.385978
_cell_length_b 19.443373
_cell_length_c 9.748871
_cell_angle_alpha 90.000000
_cell_angle_beta 90.000000
_cell_angle_gamma 90.000000
_cell_volume 1589.569972
_symmetry_space_group_name_H-M "P B C A"
_symmetry_group_IT_number 61
_symmetry_cell_setting 'orthorhombic'
loop_
_space_group_symop_operation_xyz
x,y,z
1/2-x,-y,1/2+z
1/2+x,1/2-y,-z
-x,1/2+y,1/2-z
-x,-y,-z
1/2+x,y,1/2-z
1/2-x,1/2+y,z
x,1/2-y,1/2+z
loop_
_atom_site_type_symbol
_atom_site_label
_atom_site_fract_x
_atom_site_fract_y
_atom_site_fract_z
Si Si1 0.619371 0.296734 0.171757
Si Si2 0.311594 0.286832 0.602807
Si Si3 0.882745 0.988351 0.621031
Si Si4 0.078247 0.070912 0.935845
Si Si5 0.907555 0.094681 0.188175
O O1 0.688995 0.259922 0.306846
O O2 0.477968 0.252639 0.108816
O O3 0.756419 0.297371 0.053818
O O4 0.544469 0.374085 0.185093
O O5 0.357865 0.355162 0.689820
O O6 0.761593 0.923916 0.618921
O O7 0.003467 0.971664 0.744220
O O8 0.755855 0.049140 0.606113
O O9 0.000000 0.000000 0.500000
O O10 0.030403 0.117549 0.070492
O O11 0.000000 0.000000 0.000000
#
# Coordination Sequence:
#
# PCOD9460744 Si02
#       5
#     8   8   8   8   8
#     4  12  25  46  73 106 145 191 246 305 366 443
#     4  12  26  46  75 107 145 196 247 305 372 437
#     4  11  22  39  68  99 133 185 238 287 354 441
#     4  10  24  44  67 100 140 184 237 298 364 437
#     4  11  23  45  69  98 146 192 236 303 380 434
#
# _framework density 25.164038999999999
#
# number of rings (size 3 to 8) (size 9 to 14) (size 15 to 20)
#    0.000    0.800    0.000    8.400    0.000    4.800 
#    0.000   16.000    0.000    0.000    0.000    0.000 
#    0.000    0.000    0.000    0.000    0.000    0.000 
#
# Total GULP energy -222787.024050 kJ/mol
# GULP energy per Si atom -5569.675601 kJ/mol
# Density = 2.510676 g / cm^3
# Si number density = 25.164039 Si / 1000 Ang^3
#
#
#
# Elastic Constant Matrix: (Units=GPa)
#
#
# Indices 1 2 3 4 5 6 
#
# 1 117.7744 23.3381 15.7419 0.0000 0.0000 0.0000
# 2 23.3381 103.3202 28.3211 0.0000 0.0000 0.0000
# 3 15.7419 28.3211 94.7060 0.0000 0.0000 0.0000
# 4 0.0000 0.0000 0.0000 49.1444 0.0000 0.0000
# 5 0.0000 0.0000 0.0000 0.0000 65.2781 0.0000
# 6 0.0000 0.0000 0.0000 0.0000 0.0000 39.3337
#
#
#
# Elastic Compliance Matrix: (Units=1/GPa)
#
#
# Indices 1 2 3 4 5 6 
#
# 1 0.008969 -0.001762 -0.000964 0.000000 0.000000 0.000000
# 2 -0.001762 0.010889 -0.002963 0.000000 0.000000 0.000000
# 3 -0.000964 -0.002963 0.011605 0.000000 0.000000 0.000000
# 4 0.000000 0.000000 0.000000 0.020348 0.000000 0.000000
# 5 0.000000 0.000000 0.000000 0.000000 0.015319 0.000000
# 6 0.000000 0.000000 0.000000 0.000000 0.000000 0.025423
#
#
# Mechanical properties :
#
#
# Convention : Reuss Voigt Hill
#
# Bulk Modulus (GPa) = 49.78842 50.06695 49.92769
# Shear Modulus (GPa) = 45.19699 47.31119 46.25409
#
# Velocity S-wave (km/s) = 4.24263 4.34073 4.29196
# Velocity P-wave (km/s) = 6.62030 6.71282 6.66672
#
# Compressibility (1/GPa) = 0.02008499
#
# Stress axis : x y z
#
# Youngs Moduli (GPa) = 111.49837 91.83685 86.16668
#
# Poissons Ratio (x) = 0.16178 0.08306
# Poissons Ratio (y) = 0.19642 0.25535
# Poissons Ratio (z) = 0.10748 0.27215
#
# Static dielectric constant tensor:
#      x y z
#    x 1.938060 0.000000 0.000000 
#    y 0.000000 2.267010 0.000000 
#    z 0.000000 0.000000 2.166280 
# 
# From -- ./inp_files/4790.got.cif
#   From: 2010.05.17/outbox.cif.g08.bks.cpg/sg61_3_cif.got.tgz:4790.got - 2010.06.03 15:17:17.
