data_PCOD9460166
_publ_section_title
;
Structure prediction by ZEFSAII (Michael W. Deem and Ramdas Pophale) SiO2 
 PCOD9460166
Probable space group: P B C A
;
_chemical_formula_sum "Si O2"
_cell_formula_units_Z 56
_cell_length_a 15.123447
_cell_length_b 14.198434
_cell_length_c 11.881917
_cell_angle_alpha 90.000000
_cell_angle_beta 90.000000
_cell_angle_gamma 90.000000
_cell_volume 2551.395293
_symmetry_space_group_name_H-M "P B C A"
_symmetry_group_IT_number 61
_symmetry_cell_setting 'orthorhombic'
loop_
_space_group_symop_operation_xyz
x,y,z
1/2-x,-y,1/2+z
1/2+x,1/2-y,-z
-x,1/2+y,1/2-z
-x,-y,-z
1/2+x,y,1/2-z
1/2-x,1/2+y,z
x,1/2-y,1/2+z
loop_
_atom_site_type_symbol
_atom_site_label
_atom_site_fract_x
_atom_site_fract_y
_atom_site_fract_z
Si Si1 0.077057 0.303167 0.074564
Si Si2 0.919303 0.910484 0.932542
Si Si3 0.824682 0.063587 0.784382
Si Si4 0.769495 0.308421 0.490636
Si Si5 0.881505 0.127901 0.536683
Si Si6 0.609701 0.550307 0.103096
Si Si7 0.628366 0.009703 0.829181
O O1 0.093417 0.195420 0.109384
O O2 0.164121 0.318327 0.997872
O O3 0.090312 0.385176 0.165998
O O4 0.978538 0.322819 0.029248
O O5 0.023180 0.912832 0.961100
O O6 0.888792 0.987898 0.842682
O O7 0.871275 0.948370 0.046629
O O8 0.804776 0.149889 0.870968
O O9 0.860865 0.094880 0.663818
O O10 0.728416 0.014899 0.783832
O O11 0.807321 0.204290 0.504190
O O12 0.813109 0.377170 0.581367
O O13 0.878376 0.041432 0.448796
O O14 0.580865 0.547306 0.231720
#
# Coordination Sequence:
#
# PCOD9460166 Si02
#       7
#     8   8   8   8   8   8   8
#     4  11  24  45  68 108 139 184 237 297 354 425
#     4  10  21  45  70  98 133 192 235 281 358 425
#     4  10  25  44  71 101 143 187 234 293 352 433
#     4  10  24  44  71 105 140 186 240 282 364 421
#     4  12  25  47  72 106 149 186 236 303 359 432
#     4  10  22  45  69  95 139 183 234 291 348 432
#     4  11  26  44  67 104 140 182 234 296 361 422
#
# _framework density 21.948772999999999
#
# number of rings (size 3 to 8) (size 9 to 14) (size 15 to 20)
#    0.000    1.429    1.429    2.143   10.000    0.000 
#    5.143    0.000    0.000    0.000    0.000    0.000 
#    0.000    0.000    0.000    0.000    0.000    0.000 
#
# Total GULP energy -312389.078139 kJ/mol
# GULP energy per Si atom -5578.376395 kJ/mol
# Density = 2.189882 g / cm^3
# Si number density = 21.948773 Si / 1000 Ang^3
#
#
#
# Elastic Constant Matrix: (Units=GPa)
#
#
# Indices 1 2 3 4 5 6 
#
# 1 103.9182 12.1977 -9.6700 0.0000 0.0000 0.0000
# 2 12.1977 113.9395 45.5590 0.0000 0.0000 0.0000
# 3 -9.6700 45.5590 93.6021 0.0000 0.0000 0.0000
# 4 0.0000 0.0000 0.0000 17.3686 0.0000 0.0000
# 5 0.0000 0.0000 0.0000 0.0000 15.3908 0.0000
# 6 0.0000 0.0000 0.0000 0.0000 0.0000 31.3344
#
#
#
# Elastic Compliance Matrix: (Units=1/GPa)
#
#
# Indices 1 2 3 4 5 6 
#
# 1 0.010020 -0.001846 0.001933 0.000000 0.000000 0.000000
# 2 -0.001846 0.011237 -0.005660 0.000000 0.000000 0.000000
# 3 0.001933 -0.005660 0.013638 0.000000 0.000000 0.000000
# 4 0.000000 0.000000 0.000000 0.057575 0.000000 0.000000
# 5 0.000000 0.000000 0.000000 0.000000 0.064974 0.000000
# 6 0.000000 0.000000 0.000000 0.000000 0.000000 0.031914
#
#
# Mechanical properties :
#
#
# Convention : Reuss Voigt Hill
#
# Bulk Modulus (GPa) = 42.10493 45.29259 43.69876
# Shear Modulus (GPa) = 23.98999 30.37694 27.18347
#
# Velocity S-wave (km/s) = 3.30964 3.72424 3.52304
# Velocity P-wave (km/s) = 5.81635 6.25889 6.04167
#
# Compressibility (1/GPa) = 0.02375019
#
# Stress axis : x y z
#
# Youngs Moduli (GPa) = 99.80516 88.98800 73.32290
#
# Poissons Ratio (x) = 0.16425 -0.14177
# Poissons Ratio (y) = 0.18421 0.41503
# Poissons Ratio (z) = -0.19297 0.50370
#
# Static dielectric constant tensor:
#      x y z
#    x 1.875710 0.000000 0.000000 
#    y 0.000000 1.853640 0.000000 
#    z 0.000000 0.000000 1.846130 
# 
# From -- ./inp_files/5829.got.cif
#   From: 2010.05.17/outbox.cif.g08.bks.cpg/sg61_3_cif.got.tgz:5829.got - 2010.06.03 15:17:17.
