data_PCOD9460097
_publ_section_title
;
Structure prediction by ZEFSAII (Michael W. Deem and Ramdas Pophale) SiO2 
 PCOD9460097
Probable space group: P B C A
;
_chemical_formula_sum "Si O2"
_cell_formula_units_Z 56
_cell_length_a 17.199151
_cell_length_b 8.694422
_cell_length_c 14.635116
_cell_angle_alpha 90.000000
_cell_angle_beta 90.000000
_cell_angle_gamma 90.000000
_cell_volume 2188.486612
_symmetry_space_group_name_H-M "P B C A"
_symmetry_group_IT_number 61
_symmetry_cell_setting 'orthorhombic'
loop_
_space_group_symop_operation_xyz
x,y,z
1/2-x,-y,1/2+z
1/2+x,1/2-y,-z
-x,1/2+y,1/2-z
-x,-y,-z
1/2+x,y,1/2-z
1/2-x,1/2+y,z
x,1/2-y,1/2+z
loop_
_atom_site_type_symbol
_atom_site_label
_atom_site_fract_x
_atom_site_fract_y
_atom_site_fract_z
Si Si1 0.737753 0.485409 0.610091
Si Si2 0.473732 0.177526 0.787589
Si Si3 0.196062 0.704493 0.738334
Si Si4 0.651377 0.889119 0.932287
Si Si5 0.836454 0.803538 0.040988
Si Si6 0.146485 0.224189 0.655271
Si Si7 0.986631 0.653542 0.114105
O O1 0.707414 0.545766 0.706523
O O2 0.694075 0.570694 0.525692
O O3 0.727536 0.310095 0.584902
O O4 0.826253 0.539608 0.595152
O O5 0.386415 0.253080 0.788611
O O6 0.554453 0.247126 0.828347
O O7 0.493679 0.204020 0.681039
O O8 0.471859 0.002830 0.826973
O O9 0.175410 0.745031 0.632108
O O10 0.287978 0.753498 0.731351
O O11 0.560010 0.872251 0.950565
O O12 0.658508 0.043401 0.870203
O O13 0.913101 0.706484 0.058386
O O14 0.831105 0.823713 0.933141
#
# Coordination Sequence:
#
# PCOD9460097 Si02
#       7
#     8   8   8   8   8   8   8
#     4  11  23  39  64  94 129 173 220 268 335 397
#     4  10  22  40  64  96 124 174 219 274 331 395
#     4  11  21  38  63  91 130 170 216 274 325 392
#     4   9  22  39  61  95 127 168 219 270 333 394
#     4  11  23  42  63  94 131 175 223 277 331 407
#     4  10  22  38  63  91 128 171 224 273 327 396
#     4  10  21  42  65  93 132 169 222 276 333 403
#
# _framework density 25.588459
#
# number of rings (size 3 to 8) (size 9 to 14) (size 15 to 20)
#    0.000    1.714    2.857    0.857    4.000    2.857 
#    2.571    0.000    0.000    1.714    0.000    0.000 
#    0.000    0.000    0.000    0.000    0.000    0.000 
#
# Total GULP energy -311767.105394 kJ/mol
# GULP energy per Si atom -5567.269739 kJ/mol
# Density = 2.553022 g / cm^3
# Si number density = 25.588459 Si / 1000 Ang^3
#
#
#
# Elastic Constant Matrix: (Units=GPa)
#
#
# Indices 1 2 3 4 5 6 
#
# 1 148.9227 49.4854 28.2562 0.0000 0.0000 0.0000
# 2 49.4854 56.7162 49.5449 0.0000 0.0000 0.0000
# 3 28.2562 49.5449 75.9865 0.0000 0.0000 0.0000
# 4 0.0000 0.0000 0.0000 31.7863 0.0000 0.0000
# 5 0.0000 0.0000 0.0000 0.0000 27.4567 0.0000
# 6 0.0000 0.0000 0.0000 0.0000 0.0000 13.7002
#
#
#
# Elastic Compliance Matrix: (Units=1/GPa)
#
#
# Indices 1 2 3 4 5 6 
#
# 1 0.010112 -0.012867 0.004629 0.000000 0.000000 0.000000
# 2 -0.012867 0.057335 -0.032599 0.000000 0.000000 0.000000
# 3 0.004629 -0.032599 0.032694 0.000000 0.000000 0.000000
# 4 0.000000 0.000000 0.000000 0.031460 0.000000 0.000000
# 5 0.000000 0.000000 0.000000 0.000000 0.036421 0.000000
# 6 0.000000 0.000000 0.000000 0.000000 0.000000 0.072992
#
#
# Mechanical properties :
#
#
# Convention : Reuss Voigt Hill
#
# Bulk Modulus (GPa) = 54.14786 59.57759 56.86273
# Shear Modulus (GPa) = 15.20477 24.87790 20.04134
#
# Velocity S-wave (km/s) = 2.44028 3.12144 2.80164
# Velocity P-wave (km/s) = 5.39879 6.02700 5.72152
#
# Compressibility (1/GPa) = 0.01846795
#
# Stress axis : x y z
#
# Youngs Moduli (GPa) = 98.89231 17.44129 30.58630
#
# Poissons Ratio (x) = 0.22441 -0.14159
# Poissons Ratio (y) = 1.27240 0.99709
# Poissons Ratio (z) = -0.45778 0.56857
#
# Static dielectric constant tensor:
#      x y z
#    x 2.172840 0.000000 0.000000 
#    y 0.000000 2.023460 0.000000 
#    z 0.000000 0.000000 2.040060 
# 
# From -- ./inp_files/7506.got.cif
#   From: 2010.05.17/outbox.cif.g08.bks.cpg/sg61_4_cif.got.tgz:7506.got - 2010.06.03 15:17:17.
