data_PCOD9460410
_publ_section_title
;
Structure prediction by ZEFSAII (Michael W. Deem and Ramdas Pophale) SiO2 
 PCOD9460410
Probable space group: P B C A
;
_chemical_formula_sum "Si O2"
_cell_formula_units_Z 40
_cell_length_a 25.243251
_cell_length_b 5.163553
_cell_length_c 14.043443
_cell_angle_alpha 90.000000
_cell_angle_beta 90.000000
_cell_angle_gamma 90.000000
_cell_volume 1830.490674
_symmetry_space_group_name_H-M "P B C A"
_symmetry_group_IT_number 61
_symmetry_cell_setting 'orthorhombic'
loop_
_space_group_symop_operation_xyz
x,y,z
1/2-x,-y,1/2+z
1/2+x,1/2-y,-z
-x,1/2+y,1/2-z
-x,-y,-z
1/2+x,y,1/2-z
1/2-x,1/2+y,z
x,1/2-y,1/2+z
loop_
_atom_site_type_symbol
_atom_site_label
_atom_site_fract_x
_atom_site_fract_y
_atom_site_fract_z
Si Si1 0.354364 0.891838 0.909589
Si Si2 0.512276 0.283312 0.311378
Si Si3 0.083577 0.603025 0.428461
Si Si4 0.620833 0.325881 0.896497
Si Si5 0.716779 0.348451 0.760220
O O1 0.397752 0.669845 0.883134
O O2 0.301778 0.853630 0.849568
O O3 0.377127 0.174946 0.892802
O O4 0.349754 0.843250 0.022480
O O5 0.491774 0.544100 0.262102
O O6 0.474202 0.196089 0.398526
O O7 0.571750 0.318105 0.348352
O O8 0.093964 0.554819 0.540517
O O9 0.663922 0.406575 0.820120
O O10 0.759784 0.567296 0.780815
#
# Coordination Sequence:
#
# PCOD9460410 Si02
#       5
#     8   8   8   8   8
#     4  10  24  44  69  94 134 172 224 271 329 393
#     4  12  25  40  70 103 140 175 214 264 336 405
#     4  10  22  43  67  98 135 170 216 262 333 399
#     4  10  27  43  72  96 140 172 227 270 334 398
#     4  12  27  45  68  97 132 174 229 285 337 383
#
# _framework density 21.852062
#
# number of rings (size 3 to 8) (size 9 to 14) (size 15 to 20)
#    1.200    0.000    0.000    5.400    5.600    2.400 
#    0.000    0.000    0.000    0.000    0.000    0.000 
#    0.000    0.000    0.000    0.000    0.000    0.000 
#
# Total GULP energy -223392.871750 kJ/mol
# GULP energy per Si atom -5584.821794 kJ/mol
# Density = 2.180233 g / cm^3
# Si number density = 21.852062 Si / 1000 Ang^3
#
#
#
# Elastic Constant Matrix: (Units=GPa)
#
#
# Indices 1 2 3 4 5 6 
#
# 1 46.3452 -9.6468 25.4799 0.0000 0.0000 0.0000
# 2 -9.6468 86.0309 16.9104 0.0000 0.0000 0.0000
# 3 25.4799 16.9104 80.5016 0.0000 0.0000 0.0000
# 4 0.0000 0.0000 0.0000 -15.7427 0.0000 0.0000
# 5 0.0000 0.0000 0.0000 0.0000 32.8481 0.0000
# 6 0.0000 0.0000 0.0000 0.0000 0.0000 26.1241
#
#
#
# Elastic Compliance Matrix: (Units=1/GPa)
#
#
# Indices 1 2 3 4 5 6 
#
# 1 0.028127 0.005115 -0.009977 0.000000 0.000000 0.000000
# 2 0.005115 0.013055 -0.004361 0.000000 0.000000 0.000000
# 3 -0.009977 -0.004361 0.016496 0.000000 0.000000 0.000000
# 4 0.000000 0.000000 0.000000 -0.063522 0.000000 0.000000
# 5 0.000000 0.000000 0.000000 0.000000 0.030443 0.000000
# 6 0.000000 0.000000 0.000000 0.000000 0.000000 0.038279
#
#
# Mechanical properties :
#
#
# Convention : Reuss Voigt Hill
#
# Bulk Modulus (GPa) = 25.48990 30.92941 28.20966
# Shear Modulus (GPa) = 52.96502 20.65486 36.80994
#
# Velocity S-wave (km/s) = 4.92855 3.07777 4.10873
# Velocity P-wave (km/s) = 6.63909 5.17831 5.95368
#
# Compressibility (1/GPa) = 0.03923122
#
# Stress axis : x y z
#
# Youngs Moduli (GPa) = 35.55279 76.60170 60.62018
#
# Poissons Ratio (x) = -0.39182 0.60482
# Poissons Ratio (y) = -0.18185 0.26438
# Poissons Ratio (z) = 0.35471 0.33408
#
# Static dielectric constant tensor:
#      x y z
#    x 1.755450 0.000000 0.000000 
#    y 0.000000 1.772230 0.000000 
#    z 0.000000 0.000000 1.843300 
# 
# From -- ./inp_files/8438.got.cif
#   From: 2010.05.17/outbox.cif.g08.bks.cpg/sg61_5_cif.got.tgz:8438.got - 2010.06.03 15:17:17.
