data_PCOD9460992
_publ_section_title
;
Structure prediction by ZEFSAII (Michael W. Deem and Ramdas Pophale) SiO2 
 PCOD9460992
Probable space group: P B C A
;
_chemical_formula_sum "Si O2"
_cell_formula_units_Z 56
_cell_length_a 7.737336
_cell_length_b 23.000700
_cell_length_c 13.085141
_cell_angle_alpha 90.000000
_cell_angle_beta 90.000000
_cell_angle_gamma 90.000000
_cell_volume 2328.685919
_symmetry_space_group_name_H-M "P B C A"
_symmetry_group_IT_number 61
_symmetry_cell_setting 'orthorhombic'
loop_
_space_group_symop_operation_xyz
x,y,z
1/2-x,-y,1/2+z
1/2+x,1/2-y,-z
-x,1/2+y,1/2-z
-x,-y,-z
1/2+x,y,1/2-z
1/2-x,1/2+y,z
x,1/2-y,1/2+z
loop_
_atom_site_type_symbol
_atom_site_label
_atom_site_fract_x
_atom_site_fract_y
_atom_site_fract_z
Si Si1 0.694792 0.806101 0.139998
Si Si2 0.140981 0.934785 0.418569
Si Si3 0.744350 0.706651 0.297621
Si Si4 0.589715 0.847975 0.604402
Si Si5 0.164505 0.519796 0.131608
Si Si6 0.977886 0.253771 0.472294
Si Si7 0.061961 0.525073 0.357599
O O1 0.677179 0.875004 0.139545
O O2 0.733622 0.771054 0.243953
O O3 0.851333 0.785044 0.067828
O O4 0.527225 0.783101 0.077412
O O5 0.959923 0.965256 0.390969
O O6 0.141837 0.932740 0.542010
O O7 0.295195 0.979191 0.391036
O O8 0.712990 0.665991 0.199355
O O9 0.596719 0.713647 0.382948
O O10 0.908396 0.678227 0.353330
O O11 0.638307 0.809433 0.506567
O O12 0.577149 0.915269 0.580046
O O13 0.102809 0.542186 0.240907
O O14 0.365857 0.503395 0.136205
#
# Coordination Sequence:
#
# PCOD9460992 Si02
#       7
#     8   8   8   8   8   8   8
#     4  11  25  46  71 106 143 186 239 302 361 442
#     4  11  27  50  71 109 152 194 250 303 371 452
#     4  11  23  43  68 103 139 183 236 295 368 422
#     4  11  24  42  71 103 135 185 238 299 354 438
#     4  11  25  47  72 105 145 192 243 303 367 438
#     4  11  23  45  67 100 139 178 234 293 359 422
#     4  12  24  49  74 108 144 195 252 300 374 443
#
# _framework density 24.047898
#
# number of rings (size 3 to 8) (size 9 to 14) (size 15 to 20)
#    0.000    0.857    4.286    2.143    2.000    1.143 
#   12.857    0.000    0.000    0.000    0.000    0.000 
#    0.000    0.000    0.000    0.000    0.000    0.000 
#
# Total GULP energy -313012.970470 kJ/mol
# GULP energy per Si atom -5589.517330 kJ/mol
# Density = 2.399316 g / cm^3
# Si number density = 24.047898 Si / 1000 Ang^3
#
#
#
# Elastic Constant Matrix: (Units=GPa)
#
#
# Indices 1 2 3 4 5 6 
#
# 1 92.0562 53.2602 -5.4250 0.0000 0.0000 0.0000
# 2 53.2602 163.7367 0.9541 0.0000 0.0000 0.0000
# 3 -5.4250 0.9541 61.6075 0.0000 0.0000 0.0000
# 4 0.0000 0.0000 0.0000 10.9168 0.0000 0.0000
# 5 0.0000 0.0000 0.0000 0.0000 27.3629 0.0000
# 6 0.0000 0.0000 0.0000 0.0000 0.0000 25.8941
#
#
#
# Elastic Compliance Matrix: (Units=1/GPa)
#
#
# Indices 1 2 3 4 5 6 
#
# 1 0.013477 -0.004391 0.001255 0.000000 0.000000 0.000000
# 2 -0.004391 0.007539 -0.000503 0.000000 0.000000 0.000000
# 3 0.001255 -0.000503 0.016350 0.000000 0.000000 0.000000
# 4 0.000000 0.000000 0.000000 0.091602 0.000000 0.000000
# 5 0.000000 0.000000 0.000000 0.000000 0.036546 0.000000
# 6 0.000000 0.000000 0.000000 0.000000 0.000000 0.038619
#
#
# Mechanical properties :
#
#
# Convention : Reuss Voigt Hill
#
# Bulk Modulus (GPa) = 33.23752 46.10876 39.67314
# Shear Modulus (GPa) = 22.57934 30.74217 26.66075
#
# Velocity S-wave (km/s) = 3.06752 3.57931 3.33326
# Velocity P-wave (km/s) = 5.13787 6.02472 5.59888
#
# Compressibility (1/GPa) = 0.03008648
#
# Stress axis : x y z
#
# Youngs Moduli (GPa) = 74.19776 132.64911 61.16180
#
# Poissons Ratio (x) = 0.58250 -0.07675
# Poissons Ratio (y) = 0.32582 0.03079
# Poissons Ratio (z) = -0.09310 0.06678
#
# Static dielectric constant tensor:
#      x y z
#    x 2.013990 0.000000 0.000000 
#    y 0.000000 1.932250 0.000000 
#    z 0.000000 0.000000 1.980490 
# 
# From -- ./inp_files/7157.got.cif
#   From: 2010.05.17/outbox.cif.g08.bks.cpg/sg61_4_cif.got.tgz:7157.got - 2010.06.03 15:17:17.
