data_PCOD9460453
_publ_section_title
;
Structure prediction by ZEFSAII (Michael W. Deem and Ramdas Pophale) SiO2 
 PCOD9460453
Probable space group: P B C A
;
_chemical_formula_sum "Si O2"
_cell_formula_units_Z 64
_cell_length_a 8.203766
_cell_length_b 14.836580
_cell_length_c 24.185303
_cell_angle_alpha 90.000000
_cell_angle_beta 90.000000
_cell_angle_gamma 90.000000
_cell_volume 2943.734242
_symmetry_space_group_name_H-M "P B C A"
_symmetry_group_IT_number 61
_symmetry_cell_setting 'orthorhombic'
loop_
_space_group_symop_operation_xyz
x,y,z
1/2-x,-y,1/2+z
1/2+x,1/2-y,-z
-x,1/2+y,1/2-z
-x,-y,-z
1/2+x,y,1/2-z
1/2-x,1/2+y,z
x,1/2-y,1/2+z
loop_
_atom_site_type_symbol
_atom_site_label
_atom_site_fract_x
_atom_site_fract_y
_atom_site_fract_z
Si Si1 0.913314 0.098742 0.948148
Si Si2 0.849407 0.148215 0.071001
Si Si3 0.747156 0.239847 0.874928
Si Si4 0.431028 0.296129 0.818139
Si Si5 0.925792 0.527124 0.112914
Si Si6 0.554072 0.184745 0.195660
Si Si7 0.775602 0.359772 0.073556
Si Si8 0.261245 0.084116 0.050176
O O1 0.782196 0.152955 0.912139
O O2 0.085888 0.118411 0.920665
O O3 0.875484 0.993271 0.951695
O O4 0.922146 0.139667 0.009994
O O5 0.927643 0.130399 0.131731
O O6 0.695668 0.081964 0.072015
O O7 0.805976 0.253906 0.077332
O O8 0.581283 0.233221 0.839474
O O9 0.908675 0.264508 0.838364
O O10 0.724875 0.322707 0.918225
O O11 0.494937 0.325199 0.758279
O O12 0.237331 0.272223 0.809248
O O13 0.868903 0.424815 0.115393
O O14 0.928158 0.586067 0.168261
O O15 0.098695 0.536494 0.084816
O O16 0.818934 0.391128 0.011302
#
# Coordination Sequence:
#
# PCOD9460453 Si02
#       8
#     8   8   8   8   8   8   8   8
#     4  12  25  39  63 106 138 181 226 272 348 431
#     4  11  25  38  68  99 135 185 223 274 353 408
#     4  11  24  44  68 100 140 178 229 287 343 416
#     4  11  22  42  75  95 129 178 234 284 344 400
#     4  10  24  41  62  98 133 175 227 281 340 404
#     4  10  22  44  71 100 124 179 238 288 342 402
#     4  12  23  39  63  96 144 175 221 282 330 422
#     4  11  23  39  65  94 141 180 217 269 343 411
#
# _framework density 21.741095000000001
#
# number of rings (size 3 to 8) (size 9 to 14) (size 15 to 20)
#    0.000    1.000    3.750    3.750    5.250    0.000 
#    0.000    0.000    2.750    0.000    0.000    0.000 
#    0.000    0.000    0.000    0.000    0.000    0.000 
#
# Total GULP energy -357191.231304 kJ/mol
# GULP energy per Si atom -5581.112989 kJ/mol
# Density = 2.169161 g / cm^3
# Si number density = 21.741095 Si / 1000 Ang^3
#
#
#
# Elastic Constant Matrix: (Units=GPa)
#
#
# Indices 1 2 3 4 5 6 
#
# 1 114.1907 28.0157 46.6982 0.0000 0.0000 0.0000
# 2 28.0157 112.1842 24.9416 0.0000 0.0000 0.0000
# 3 46.6982 24.9416 114.5188 0.0000 0.0000 0.0000
# 4 0.0000 0.0000 0.0000 5.6407 0.0000 0.0000
# 5 0.0000 0.0000 0.0000 0.0000 39.3671 0.0000
# 6 0.0000 0.0000 0.0000 0.0000 0.0000 25.4250
#
#
#
# Elastic Compliance Matrix: (Units=1/GPa)
#
#
# Indices 1 2 3 4 5 6 
#
# 1 0.010850 -0.001814 -0.004029 0.000000 0.000000 0.000000
# 2 -0.001814 0.009671 -0.001367 0.000000 0.000000 0.000000
# 3 -0.004029 -0.001367 0.010673 0.000000 0.000000 0.000000
# 4 0.000000 0.000000 0.000000 0.177284 0.000000 0.000000
# 5 0.000000 0.000000 0.000000 0.000000 0.025402 0.000000
# 6 0.000000 0.000000 0.000000 0.000000 0.000000 0.039331
#
#
# Mechanical properties :
#
#
# Convention : Reuss Voigt Hill
#
# Bulk Modulus (GPa) = 59.61541 60.02274 59.81907
# Shear Modulus (GPa) = 17.05196 30.16911 23.61053
#
# Velocity S-wave (km/s) = 2.80361 3.72916 3.29901
# Velocity P-wave (km/s) = 6.16120 6.79780 6.48732
#
# Compressibility (1/GPa) = 0.01677419
#
# Stress axis : x y z
#
# Youngs Moduli (GPa) = 92.16520 103.40527 93.69495
#
# Poissons Ratio (x) = 0.18755 0.37753
# Poissons Ratio (y) = 0.16716 0.12805
# Poissons Ratio (z) = 0.37137 0.14132
#
# Static dielectric constant tensor:
#      x y z
#    x 1.927820 0.000000 0.000000 
#    y 0.000000 1.761620 0.000000 
#    z 0.000000 0.000000 1.787990 
# 
# From -- ./inp_files/10900.got.cif
#   From: 2010.05.17/outbox.cif.g08.bks.cpg/sg61_6_cif.got.tgz:10900.got - 2010.06.03 15:17:17.
