data_PCOD9460026
_publ_section_title
;
Structure prediction by ZEFSAII (Michael W. Deem and Ramdas Pophale) SiO2 
 PCOD9460026
Probable space group: P B C A
;
_chemical_formula_sum "Si O2"
_cell_formula_units_Z 32
_cell_length_a 14.374141
_cell_length_b 5.458575
_cell_length_c 15.936060
_cell_angle_alpha 90.000000
_cell_angle_beta 90.000000
_cell_angle_gamma 90.000000
_cell_volume 1250.380346
_symmetry_space_group_name_H-M "P B C A"
_symmetry_group_IT_number 61
_symmetry_cell_setting 'orthorhombic'
loop_
_space_group_symop_operation_xyz
x,y,z
1/2-x,-y,1/2+z
1/2+x,1/2-y,-z
-x,1/2+y,1/2-z
-x,-y,-z
1/2+x,y,1/2-z
1/2-x,1/2+y,z
x,1/2-y,1/2+z
loop_
_atom_site_type_symbol
_atom_site_label
_atom_site_fract_x
_atom_site_fract_y
_atom_site_fract_z
Si Si1 0.375904 0.249261 0.975404
Si Si2 0.554362 0.303700 0.246981
Si Si3 0.404987 0.749553 0.069974
Si Si4 0.728879 0.247937 0.176458
O O1 0.369415 0.496373 0.030194
O O2 0.367504 0.996058 0.026650
O O3 0.481729 0.247725 0.939633
O O4 0.297672 0.254163 0.903006
O O5 0.517851 0.579982 0.252582
O O6 0.612359 0.259466 0.331268
O O7 0.618165 0.268099 0.164542
O O8 0.754327 0.495697 0.222608
#
# Coordination Sequence:
#
# PCOD9460026 Si02
#       4
#     8   8   8   8
#     4  10  21  40  67  99 135 179 235 296 357 426
#     4  12  25  44  72 106 149 197 246 298 370 455
#     4  10  21  40  68 100 135 181 235 288 358 442
#     4  12  25  44  69 101 141 189 242 304 373 433
#
# _framework density 25.592213999999998
#
# number of rings (size 3 to 8) (size 9 to 14) (size 15 to 20)
#    0.000    1.000    0.000    7.500    0.000    4.000 
#    0.000    7.500    0.000    0.000    0.000    0.000 
#    0.000    0.000    0.000    0.000    0.000    0.000 
#
# Total GULP energy -179178.824483 kJ/mol
# GULP energy per Si atom -5599.338265 kJ/mol
# Density = 2.553396 g / cm^3
# Si number density = 25.592214 Si / 1000 Ang^3
#
#
#
# Elastic Constant Matrix: (Units=GPa)
#
#
# Indices 1 2 3 4 5 6 
#
# 1 95.6247 14.0197 40.3226 0.0000 0.0000 0.0000
# 2 14.0197 206.0408 52.4482 0.0000 0.0000 0.0000
# 3 40.3226 52.4482 112.0592 0.0000 0.0000 0.0000
# 4 0.0000 0.0000 0.0000 17.3941 0.0000 0.0000
# 5 0.0000 0.0000 0.0000 0.0000 55.8147 0.0000
# 6 0.0000 0.0000 0.0000 0.0000 0.0000 42.3533
#
#
#
# Elastic Compliance Matrix: (Units=1/GPa)
#
#
# Indices 1 2 3 4 5 6 
#
# 1 0.012348 0.000330 -0.004598 0.000000 0.000000 0.000000
# 2 0.000330 0.005519 -0.002702 0.000000 0.000000 0.000000
# 3 -0.004598 -0.002702 0.011843 0.000000 0.000000 0.000000
# 4 0.000000 0.000000 0.000000 0.057491 0.000000 0.000000
# 5 0.000000 0.000000 0.000000 0.000000 0.017916 0.000000
# 6 0.000000 0.000000 0.000000 0.000000 0.000000 0.023611
#
#
# Mechanical properties :
#
#
# Convention : Reuss Voigt Hill
#
# Bulk Modulus (GPa) = 63.40855 69.70063 66.55459
# Shear Modulus (GPa) = 33.80133 43.57468 38.68800
#
# Velocity S-wave (km/s) = 3.63818 4.13080 3.89229
# Velocity P-wave (km/s) = 6.51757 7.07429 6.80163
#
# Compressibility (1/GPa) = 0.01577074
#
# Stress axis : x y z
#
# Youngs Moduli (GPa) = 80.98550 181.20256 84.43944
#
# Poissons Ratio (x) = -0.05983 0.38823
# Poissons Ratio (y) = -0.02674 0.22814
# Poissons Ratio (z) = 0.37235 0.48957
#
# Static dielectric constant tensor:
#      x y z
#    x 2.110570 0.000000 0.000000 
#    y 0.000000 2.027890 0.000000 
#    z 0.000000 0.000000 1.982590 
# 
# From -- ./inp_files/9381.got.cif
#   From: 2010.05.17/outbox.cif.g08.bks.cpg/sg61_5_cif.got.tgz:9381.got - 2010.06.03 15:17:17.
