data_PCOD9460191
_publ_section_title
;
Structure prediction by ZEFSAII (Michael W. Deem and Ramdas Pophale) SiO2 
 PCOD9460191
Probable space group: P B C A
;
_chemical_formula_sum "Si O2"
_cell_formula_units_Z 48
_cell_length_a 13.590993
_cell_length_b 14.160511
_cell_length_c 9.035023
_cell_angle_alpha 90.000000
_cell_angle_beta 90.000000
_cell_angle_gamma 90.000000
_cell_volume 1738.839019
_symmetry_space_group_name_H-M "P B C A"
_symmetry_group_IT_number 61
_symmetry_cell_setting 'orthorhombic'
loop_
_space_group_symop_operation_xyz
x,y,z
1/2-x,-y,1/2+z
1/2+x,1/2-y,-z
-x,1/2+y,1/2-z
-x,-y,-z
1/2+x,y,1/2-z
1/2-x,1/2+y,z
x,1/2-y,1/2+z
loop_
_atom_site_type_symbol
_atom_site_label
_atom_site_fract_x
_atom_site_fract_y
_atom_site_fract_z
Si Si1 0.602473 0.019253 0.790551
Si Si2 0.725132 0.744520 0.679108
Si Si3 0.905031 0.853581 0.024021
Si Si4 0.627669 0.835167 0.461131
Si Si5 0.928103 0.403530 0.046486
Si Si6 0.330985 0.517136 0.215333
O O1 0.589265 0.050821 0.622475
O O2 0.534956 0.096509 0.877728
O O3 0.718522 0.011671 0.807946
O O4 0.564814 0.924048 0.872101
O O5 0.829829 0.710644 0.619402
O O6 0.692295 0.844330 0.610914
O O7 0.695703 0.725186 0.846650
O O8 0.643036 0.680557 0.592481
O O9 0.013183 0.809159 0.012552
O O10 0.860345 0.885443 0.865110
O O11 0.617293 0.933100 0.375010
O O12 0.869628 0.493986 0.120132
#
# Coordination Sequence:
#
# PCOD9460191 Si02
#       6
#     8   8   8   8   8   8
#     4  11  19  38  68  92 131 163 206 267 319 375
#     4  11  24  46  61  95 128 180 213 263 325 388
#     4  12  23  43  70  92 134 168 214 274 325 376
#     4  11  26  43  65  93 134 169 221 265 322 392
#     4  10  22  37  64  98 130 162 212 265 322 382
#     4  11  21  41  66 102 123 166 214 271 324 385
#
# _framework density 27.604627000000001
#
# number of rings (size 3 to 8) (size 9 to 14) (size 15 to 20)
#    0.000    1.000    8.333    0.500    0.000    4.000 
#    6.000    0.000    0.000    0.000    0.000    0.000 
#    0.000    0.000    0.000    0.000    0.000    0.000 
#
# Total GULP energy -268247.798520 kJ/mol
# GULP energy per Si atom -5588.495803 kJ/mol
# Density = 2.754180 g / cm^3
# Si number density = 27.604627 Si / 1000 Ang^3
#
#
#
# Elastic Constant Matrix: (Units=GPa)
#
#
# Indices 1 2 3 4 5 6 
#
# 1 222.5750 13.2211 20.7158 0.0000 0.0000 0.0000
# 2 13.2211 40.1763 14.2372 0.0000 0.0000 0.0000
# 3 20.7158 14.2372 126.1755 0.0000 0.0000 0.0000
# 4 0.0000 0.0000 0.0000 43.1284 0.0000 0.0000
# 5 0.0000 0.0000 0.0000 0.0000 37.0086 0.0000
# 6 0.0000 0.0000 0.0000 0.0000 0.0000 30.0254
#
#
#
# Elastic Compliance Matrix: (Units=1/GPa)
#
#
# Indices 1 2 3 4 5 6 
#
# 1 0.004627 -0.001306 -0.000612 0.000000 0.000000 0.000000
# 2 -0.001306 0.026295 -0.002753 0.000000 0.000000 0.000000
# 3 -0.000612 -0.002753 0.008337 0.000000 0.000000 0.000000
# 4 0.000000 0.000000 0.000000 0.023187 0.000000 0.000000
# 5 0.000000 0.000000 0.000000 0.000000 0.027021 0.000000
# 6 0.000000 0.000000 0.000000 0.000000 0.000000 0.033305
#
#
# Mechanical properties :
#
#
# Convention : Reuss Voigt Hill
#
# Bulk Modulus (GPa) = 33.42493 53.91943 43.67218
# Shear Modulus (GPa) = 35.18988 44.74933 39.96960
#
# Velocity S-wave (km/s) = 3.57428 4.03063 3.80930
# Velocity P-wave (km/s) = 5.40081 6.42156 5.93318
#
# Compressibility (1/GPa) = 0.02991779
#
# Stress axis : x y z
#
# Youngs Moduli (GPa) = 216.10265 38.02935 119.95266
#
# Poissons Ratio (x) = 0.04966 0.07346
# Poissons Ratio (y) = 0.28218 0.33019
# Poissons Ratio (z) = 0.13234 0.10468
#
# Static dielectric constant tensor:
#      x y z
#    x 2.077080 0.000000 0.000000 
#    y 0.000000 2.467970 0.000000 
#    z 0.000000 0.000000 2.216820 
# 
# From -- ./inp_files/2846.got.cif
#   From: 2010.05.17/outbox.cif.g08.bks.cpg/sg61_2_cif.got.tgz:2846.got - 2010.06.03 15:17:17.
