data_PCOD9460059
_publ_section_title
;
Structure prediction by ZEFSAII (Michael W. Deem and Ramdas Pophale) SiO2 
 PCOD9460059
Probable space group: P B C A
;
_chemical_formula_sum "Si O2"
_cell_formula_units_Z 56
_cell_length_a 32.008703
_cell_length_b 5.872712
_cell_length_c 12.404806
_cell_angle_alpha 90.000000
_cell_angle_beta 90.000000
_cell_angle_gamma 90.000000
_cell_volume 2331.829310
_symmetry_space_group_name_H-M "P B C A"
_symmetry_group_IT_number 61
_symmetry_cell_setting 'orthorhombic'
loop_
_space_group_symop_operation_xyz
x,y,z
1/2-x,-y,1/2+z
1/2+x,1/2-y,-z
-x,1/2+y,1/2-z
-x,-y,-z
1/2+x,y,1/2-z
1/2-x,1/2+y,z
x,1/2-y,1/2+z
loop_
_atom_site_type_symbol
_atom_site_label
_atom_site_fract_x
_atom_site_fract_y
_atom_site_fract_z
Si Si1 0.411169 0.127777 0.493405
Si Si2 0.766895 0.344271 0.740625
Si Si3 0.237736 0.391280 0.006347
Si Si4 0.555933 0.905203 0.186836
Si Si5 0.020763 0.863450 0.626054
Si Si6 0.659302 0.578329 0.387113
Si Si7 0.909865 0.749899 0.359364
O O1 0.414631 0.228616 0.374856
O O2 0.456768 0.192621 0.543367
O O3 0.374241 0.257702 0.556465
O O4 0.404877 0.867103 0.523361
O O5 0.743073 0.109085 0.771754
O O6 0.758639 0.358017 0.611886
O O7 0.812233 0.308065 0.795031
O O8 0.240399 0.128111 0.048025
O O9 0.189836 0.470465 0.022181
O O10 0.523577 0.762245 0.259116
O O11 0.526541 0.057948 0.109607
O O12 0.580897 0.062512 0.269228
O O13 0.052110 0.075363 0.634187
O O14 0.632201 0.381301 0.333480
#
# Coordination Sequence:
#
# PCOD9460059 Si02
#       7
#     8   8   8   8   8   8   8
#     4  10  25  41  64 101 132 181 225 284 362 421
#     4  10  23  43  71 101 135 186 237 288 353 427
#     4  10  23  43  68 103 131 181 242 282 355 430
#     4  11  21  42  68  94 135 176 240 284 346 424
#     4  10  21  41  65  96 127 183 227 293 338 416
#     4  11  24  43  68  95 142 175 223 298 349 421
#     4  10  24  43  63  99 136 177 229 287 363 405
#
# _framework density 24.015481999999999
#
# number of rings (size 3 to 8) (size 9 to 14) (size 15 to 20)
#    0.000    1.714    1.429    1.286    4.000    5.143 
#   12.857    0.000    0.000    0.000    0.000    0.000 
#    0.000    0.000    0.000    0.000    0.000    0.000 
#
# Total GULP energy -312435.470951 kJ/mol
# GULP energy per Si atom -5579.204838 kJ/mol
# Density = 2.396082 g / cm^3
# Si number density = 24.015482 Si / 1000 Ang^3
#
#
#
# Elastic Constant Matrix: (Units=GPa)
#
#
# Indices 1 2 3 4 5 6 
#
# 1 95.1605 8.5429 15.9633 0.0000 0.0000 0.0000
# 2 8.5429 90.1302 14.4624 0.0000 0.0000 0.0000
# 3 15.9633 14.4624 53.6029 0.0000 0.0000 0.0000
# 4 0.0000 0.0000 0.0000 47.7746 0.0000 0.0000
# 5 0.0000 0.0000 0.0000 0.0000 24.6944 0.0000
# 6 0.0000 0.0000 0.0000 0.0000 0.0000 28.3967
#
#
#
# Elastic Compliance Matrix: (Units=1/GPa)
#
#
# Indices 1 2 3 4 5 6 
#
# 1 0.011087 -0.000545 -0.003155 0.000000 0.000000 0.000000
# 2 -0.000545 0.011624 -0.002974 0.000000 0.000000 0.000000
# 3 -0.003155 -0.002974 0.020398 0.000000 0.000000 0.000000
# 4 0.000000 0.000000 0.000000 0.020932 0.000000 0.000000
# 5 0.000000 0.000000 0.000000 0.000000 0.040495 0.000000
# 6 0.000000 0.000000 0.000000 0.000000 0.000000 0.035215
#
#
# Mechanical properties :
#
#
# Convention : Reuss Voigt Hill
#
# Bulk Modulus (GPa) = 33.60051 35.20340 34.40195
# Shear Modulus (GPa) = 30.67158 33.50148 32.08653
#
# Velocity S-wave (km/s) = 3.57761 3.73902 3.65920
# Velocity P-wave (km/s) = 5.57560 5.77328 5.67530
#
# Compressibility (1/GPa) = 0.02976146
#
# Stress axis : x y z
#
# Youngs Moduli (GPa) = 90.19843 86.02966 49.02532
#
# Poissons Ratio (x) = 0.04685 0.15466
# Poissons Ratio (y) = 0.04912 0.14580
# Poissons Ratio (z) = 0.28455 0.25585
#
# Static dielectric constant tensor:
#      x y z
#    x 1.870670 0.000000 0.000000 
#    y 0.000000 1.929770 0.000000 
#    z 0.000000 0.000000 2.119040 
# 
# From -- ./inp_files/8662.got.cif
#   From: 2010.05.17/outbox.cif.g08.bks.cpg/sg61_5_cif.got.tgz:8662.got - 2010.06.03 15:17:17.
