data_PCOD9460247
_publ_section_title
;
Structure prediction by ZEFSAII (Michael W. Deem and Ramdas Pophale) SiO2 
 PCOD9460247
Probable space group: P B C A
;
_chemical_formula_sum "Si O2"
_cell_formula_units_Z 56
_cell_length_a 19.302570
_cell_length_b 7.822803
_cell_length_c 16.461742
_cell_angle_alpha 90.000000
_cell_angle_beta 90.000000
_cell_angle_gamma 90.000000
_cell_volume 2485.726376
_symmetry_space_group_name_H-M "P B C A"
_symmetry_group_IT_number 61
_symmetry_cell_setting 'orthorhombic'
loop_
_space_group_symop_operation_xyz
x,y,z
1/2-x,-y,1/2+z
1/2+x,1/2-y,-z
-x,1/2+y,1/2-z
-x,-y,-z
1/2+x,y,1/2-z
1/2-x,1/2+y,z
x,1/2-y,1/2+z
loop_
_atom_site_type_symbol
_atom_site_label
_atom_site_fract_x
_atom_site_fract_y
_atom_site_fract_z
Si Si1 0.894851 0.166541 0.619773
Si Si2 0.964914 0.865026 0.725526
Si Si3 0.540229 0.224906 0.414787
Si Si4 0.371299 0.550094 0.813275
Si Si5 0.340489 0.609490 0.983861
Si Si6 0.698920 0.774572 0.980644
Si Si7 0.614011 0.955507 0.848575
O O1 0.879452 0.350255 0.661770
O O2 0.832657 0.121009 0.558350
O O3 0.962819 0.214565 0.566501
O O4 0.920141 0.017046 0.681974
O O5 0.960630 0.863366 0.824622
O O6 0.936876 0.677713 0.699552
O O7 0.043594 0.882405 0.693086
O O8 0.581073 0.128049 0.484975
O O9 0.585301 0.395031 0.404556
O O10 0.340658 0.538786 0.723556
O O11 0.333580 0.639258 0.887946
O O12 0.281088 0.714305 0.028308
O O13 0.320072 0.417041 0.000306
O O14 0.658906 0.829067 0.900505
#
# Coordination Sequence:
#
# PCOD9460247 Si02
#       7
#     8   8   8   8   8   8   8
#     4  10  23  40  66 101 129 172 220 267 334 390
#     4  10  22  39  70  98 136 169 207 287 321 392
#     4  10  22  40  67 101 129 169 222 267 338 387
#     4  10  23  41  65  97 133 170 216 274 323 397
#     4  11  26  44  65  93 135 174 222 272 326 400
#     4  11  26  43  65  93 131 180 218 274 328 396
#     4  10  22  41  66  98 133 168 220 270 334 387
#
# _framework density 22.528625000000002
#
# number of rings (size 3 to 8) (size 9 to 14) (size 15 to 20)
#    0.000    1.714    1.429    0.857   10.000    2.286 
#    2.571    1.429    0.000    0.000    0.000    0.000 
#    0.000    0.000    0.000    0.000    0.000    0.000 
#
# Total GULP energy -312333.880922 kJ/mol
# GULP energy per Si atom -5577.390731 kJ/mol
# Density = 2.247735 g / cm^3
# Si number density = 22.528625 Si / 1000 Ang^3
#
#
#
# Elastic Constant Matrix: (Units=GPa)
#
#
# Indices 1 2 3 4 5 6 
#
# 1 56.3932 -1.2156 12.1267 0.0000 0.0000 0.0000
# 2 -1.2156 59.0640 4.3185 0.0000 0.0000 0.0000
# 3 12.1267 4.3185 39.4619 0.0000 0.0000 0.0000
# 4 0.0000 0.0000 0.0000 28.8019 0.0000 0.0000
# 5 0.0000 0.0000 0.0000 0.0000 9.1679 0.0000
# 6 0.0000 0.0000 0.0000 0.0000 0.0000 16.5734
#
#
#
# Elastic Compliance Matrix: (Units=1/GPa)
#
#
# Indices 1 2 3 4 5 6 
#
# 1 0.019027 0.000826 -0.005937 0.000000 0.000000 0.000000
# 2 0.000826 0.017103 -0.002125 0.000000 0.000000 0.000000
# 3 -0.005937 -0.002125 0.027398 0.000000 0.000000 0.000000
# 4 0.000000 0.000000 0.000000 0.034720 0.000000 0.000000
# 5 0.000000 0.000000 0.000000 0.000000 0.109076 0.000000
# 6 0.000000 0.000000 0.000000 0.000000 0.000000 0.060338
#
#
# Mechanical properties :
#
#
# Convention : Reuss Voigt Hill
#
# Bulk Modulus (GPa) = 20.38562 20.59758 20.49160
# Shear Modulus (GPa) = 16.75112 20.22127 18.48619
#
# Velocity S-wave (km/s) = 2.72977 2.99922 2.86766
# Velocity P-wave (km/s) = 4.35935 4.59961 4.48109
#
# Compressibility (1/GPa) = 0.04905419
#
# Stress axis : x y z
#
# Youngs Moduli (GPa) = 52.55630 58.46863 36.49890
#
# Poissons Ratio (x) = -0.04828 0.21671
# Poissons Ratio (y) = -0.04340 0.07758
# Poissons Ratio (z) = 0.31205 0.12427
#
# Static dielectric constant tensor:
#      x y z
#    x 1.878780 0.000000 0.000000 
#    y 0.000000 1.846620 0.000000 
#    z 0.000000 0.000000 1.907020 
# 
# From -- ./inp_files/8367.got.cif
#   From: 2010.05.17/outbox.cif.g08.bks.cpg/sg61_5_cif.got.tgz:8367.got - 2010.06.03 15:17:17.
