data_PCOD9460443
_publ_section_title
;
Structure prediction by ZEFSAII (Michael W. Deem and Ramdas Pophale) SiO2 
 PCOD9460443
Probable space group: P B C A
;
_chemical_formula_sum "Si O2"
_cell_formula_units_Z 64
_cell_length_a 28.777475
_cell_length_b 5.242334
_cell_length_c 16.473601
_cell_angle_alpha 90.000000
_cell_angle_beta 90.000000
_cell_angle_gamma 90.000000
_cell_volume 2485.226155
_symmetry_space_group_name_H-M "P B C A"
_symmetry_group_IT_number 61
_symmetry_cell_setting 'orthorhombic'
loop_
_space_group_symop_operation_xyz
x,y,z
1/2-x,-y,1/2+z
1/2+x,1/2-y,-z
-x,1/2+y,1/2-z
-x,-y,-z
1/2+x,y,1/2-z
1/2-x,1/2+y,z
x,1/2-y,1/2+z
loop_
_atom_site_type_symbol
_atom_site_label
_atom_site_fract_x
_atom_site_fract_y
_atom_site_fract_z
Si Si1 0.505330 0.723502 0.111963
Si Si2 0.136825 0.629512 0.600790
Si Si3 0.274682 0.913832 0.510503
Si Si4 0.411956 0.847976 0.043309
Si Si5 0.954356 0.632823 0.724856
Si Si6 0.639923 0.849912 0.730413
Si Si7 0.401543 0.006380 0.879414
Si Si8 0.223308 0.145802 0.815469
O O1 0.466862 0.790413 0.046356
O O2 0.514418 0.439589 0.146377
O O3 0.485167 0.848450 0.195334
O O4 0.555913 0.822204 0.086867
O O5 0.179019 0.546734 0.543384
O O6 0.106391 0.372833 0.602627
O O7 0.154414 0.705288 0.689239
O O8 0.107161 0.875261 0.570434
O O9 0.235372 0.121842 0.537163
O O10 0.276691 0.883637 0.413116
O O11 0.392274 0.812791 0.952196
O O12 0.914412 0.422075 0.737819
O O13 0.924058 0.872705 0.698367
O O14 0.641408 0.673020 0.650218
O O15 0.671871 0.092835 0.716571
O O16 0.255086 0.909593 0.787597
#
# Coordination Sequence:
#
# PCOD9460443 Si02
#       8
#     8   8   8   8   8   8   8   8
#     4  11  23  42  65  97 135 185 235 288 344 407
#     4  12  27  45  70 103 139 187 225 290 346 422
#     4  10  22  44  69  98 138 176 220 276 348 413
#     4  12  28  44  68 102 143 179 242 286 348 405
#     4  11  23  41  68  97 138 184 231 285 350 411
#     4  11  26  44  71 102 141 182 236 283 354 408
#     4  11  26  43  69  98 135 193 231 295 339 415
#     4  10  24  43  72 105 136 177 223 282 340 416
#
# _framework density 25.752185999999998
#
# number of rings (size 3 to 8) (size 9 to 14) (size 15 to 20)
#    0.000    1.000    2.500    2.625   10.500    2.500 
#    0.000    0.000    0.000    0.000    0.000    0.000 
#    0.000    0.000    0.000    0.000    0.000    0.000 
#
# Total GULP energy -358270.114064 kJ/mol
# GULP energy per Si atom -5597.970532 kJ/mol
# Density = 2.569357 g / cm^3
# Si number density = 25.752186 Si / 1000 Ang^3
#
#
#
# Elastic Constant Matrix: (Units=GPa)
#
#
# Indices 1 2 3 4 5 6 
#
# 1 80.0313 21.4706 7.0467 0.0000 0.0000 0.0000
# 2 21.4706 85.8451 7.3021 0.0000 0.0000 0.0000
# 3 7.0467 7.3021 63.3945 0.0000 0.0000 0.0000
# 4 0.0000 0.0000 0.0000 20.2600 0.0000 0.0000
# 5 0.0000 0.0000 0.0000 0.0000 36.3667 0.0000
# 6 0.0000 0.0000 0.0000 0.0000 0.0000 39.4844
#
#
#
# Elastic Compliance Matrix: (Units=1/GPa)
#
#
# Indices 1 2 3 4 5 6 
#
# 1 0.013472 -0.003274 -0.001120 0.000000 0.000000 0.000000
# 2 -0.003274 0.012560 -0.001083 0.000000 0.000000 0.000000
# 3 -0.001120 -0.001083 0.016024 0.000000 0.000000 0.000000
# 4 0.000000 0.000000 0.000000 0.049358 0.000000 0.000000
# 5 0.000000 0.000000 0.000000 0.000000 0.027498 0.000000
# 6 0.000000 0.000000 0.000000 0.000000 0.000000 0.025326
#
#
# Mechanical properties :
#
#
# Convention : Reuss Voigt Hill
#
# Bulk Modulus (GPa) = 32.15343 33.43440 32.79392
# Shear Modulus (GPa) = 30.20060 32.11899 31.15980
#
# Velocity S-wave (km/s) = 3.42824 3.53545 3.48226
# Velocity P-wave (km/s) = 5.30879 5.44768 5.37868
#
# Compressibility (1/GPa) = 0.03110088
#
# Stress axis : x y z
#
# Youngs Moduli (GPa) = 74.22720 79.61851 62.40832
#
# Poissons Ratio (x) = 0.26069 0.06992
# Poissons Ratio (y) = 0.24303 0.06757
# Poissons Ratio (z) = 0.08316 0.08621
#
# Static dielectric constant tensor:
#      x y z
#    x 2.048760 0.000000 0.000000 
#    y 0.000000 2.098790 0.000000 
#    z 0.000000 0.000000 2.045030 
# 
# From -- ./inp_files/863.got.cif
#   From: 2010.05.17/outbox.cif.g08.bks.cpg/sg61_1_cif.got.tgz:863.got - 2010.06.03 15:17:17.
