data_PCOD9460504
_publ_section_title
;
Structure prediction by ZEFSAII (Michael W. Deem and Ramdas Pophale) SiO2 
 PCOD9460504
Probable space group: P B C A
;
_chemical_formula_sum "Si O2"
_cell_formula_units_Z 32
_cell_length_a 11.845812
_cell_length_b 7.950924
_cell_length_c 14.820413
_cell_angle_alpha 90.000000
_cell_angle_beta 90.000000
_cell_angle_gamma 90.000000
_cell_volume 1395.862835
_symmetry_space_group_name_H-M "P B C A"
_symmetry_group_IT_number 61
_symmetry_cell_setting 'orthorhombic'
loop_
_space_group_symop_operation_xyz
x,y,z
1/2-x,-y,1/2+z
1/2+x,1/2-y,-z
-x,1/2+y,1/2-z
-x,-y,-z
1/2+x,y,1/2-z
1/2-x,1/2+y,z
x,1/2-y,1/2+z
loop_
_atom_site_type_symbol
_atom_site_label
_atom_site_fract_x
_atom_site_fract_y
_atom_site_fract_z
Si Si1 0.595945 0.111079 0.809845
Si Si2 0.562129 0.739108 0.550136
Si Si3 0.688125 0.725025 0.385798
Si Si4 0.465924 0.614560 0.889344
O O1 0.480054 0.135082 0.865113
O O2 0.688368 0.226181 0.857996
O O3 0.586851 0.159792 0.705783
O O4 0.637908 0.921524 0.823807
O O5 0.667760 0.676292 0.490980
O O6 0.464111 0.753519 0.472112
O O7 0.576368 0.931992 0.581170
O O8 0.602622 0.883750 0.374102
#
# Coordination Sequence:
#
# PCOD9460504 Si02
#       4
#     8   8   8   8
#     4  12  21  41  63  90 123 164 211 247 315 371
#     4   9  21  44  60  90 128 158 206 256 315 356
#     4  10  23  38  61  92 122 162 205 257 298 385
#     4   9  21  42  63  88 125 163 197 271 296 374
#
# _framework density 22.924889
#
# number of rings (size 3 to 8) (size 9 to 14) (size 15 to 20)
#    1.500    0.500    0.000    3.750    0.000    0.000 
#    9.000    0.000    0.000    0.000    0.000    0.000 
#    0.000    0.000    0.000    0.000    0.000    0.000 
#
# Total GULP energy -178378.109343 kJ/mol
# GULP energy per Si atom -5574.315917 kJ/mol
# Density = 2.287271 g / cm^3
# Si number density = 22.924889 Si / 1000 Ang^3
#
#
#
# Elastic Constant Matrix: (Units=GPa)
#
#
# Indices 1 2 3 4 5 6 
#
# 1 24.3070 -6.9335 20.1740 0.0000 0.0000 0.0000
# 2 -6.9335 40.2173 6.3734 0.0000 0.0000 0.0000
# 3 20.1740 6.3734 139.7215 0.0000 0.0000 0.0000
# 4 0.0000 0.0000 0.0000 30.4064 0.0000 0.0000
# 5 0.0000 0.0000 0.0000 0.0000 11.8722 0.0000
# 6 0.0000 0.0000 0.0000 0.0000 0.0000 11.3263
#
#
#
# Elastic Compliance Matrix: (Units=1/GPa)
#
#
# Indices 1 2 3 4 5 6 
#
# 1 0.050380 0.009910 -0.007726 0.000000 0.000000 0.000000
# 2 0.009910 0.026995 -0.002662 0.000000 0.000000 0.000000
# 3 -0.007726 -0.002662 0.008394 0.000000 0.000000 0.000000
# 4 0.000000 0.000000 0.000000 0.032888 0.000000 0.000000
# 5 0.000000 0.000000 0.000000 0.000000 0.084230 0.000000
# 6 0.000000 0.000000 0.000000 0.000000 0.000000 0.088290
#
#
# Mechanical properties :
#
#
# Convention : Reuss Voigt Hill
#
# Bulk Modulus (GPa) = 11.79081 27.05264 19.42172
# Shear Modulus (GPa) = 15.60526 23.02978 19.31752
#
# Velocity S-wave (km/s) = 2.61188 3.17294 2.90598
# Velocity P-wave (km/s) = 3.77495 5.02490 4.44409
#
# Compressibility (1/GPa) = 0.08481184
#
# Stress axis : x y z
#
# Youngs Moduli (GPa) = 19.84930 37.04347 119.13125
#
# Poissons Ratio (x) = -0.36710 0.92044
# Poissons Ratio (y) = -0.19670 0.31716
# Poissons Ratio (z) = 0.15336 0.09862
#
# Static dielectric constant tensor:
#      x y z
#    x 1.870200 0.000000 0.000000 
#    y 0.000000 1.866850 0.000000 
#    z 0.000000 0.000000 1.906320 
# 
# From -- ./inp_files/2518.got.cif
#   From: 2010.05.17/outbox.cif.g08.bks.cpg/sg61_2_cif.got.tgz:2518.got - 2010.06.03 15:17:17.
