data_PCOD9460506
_publ_section_title
;
Structure prediction by ZEFSAII (Michael W. Deem and Ramdas Pophale) SiO2 
 PCOD9460506
Probable space group: P B C A
;
_chemical_formula_sum "Si O2"
_cell_formula_units_Z 56
_cell_length_a 18.759196
_cell_length_b 22.248927
_cell_length_c 5.936386
_cell_angle_alpha 90.000000
_cell_angle_beta 90.000000
_cell_angle_gamma 90.000000
_cell_volume 2477.681193
_symmetry_space_group_name_H-M "P B C A"
_symmetry_group_IT_number 61
_symmetry_cell_setting 'orthorhombic'
loop_
_space_group_symop_operation_xyz
x,y,z
1/2-x,-y,1/2+z
1/2+x,1/2-y,-z
-x,1/2+y,1/2-z
-x,-y,-z
1/2+x,y,1/2-z
1/2-x,1/2+y,z
x,1/2-y,1/2+z
loop_
_atom_site_type_symbol
_atom_site_label
_atom_site_fract_x
_atom_site_fract_y
_atom_site_fract_z
Si Si1 0.437225 0.486903 0.250415
Si Si2 0.211191 0.428960 0.258512
Si Si3 0.558853 0.406454 0.050967
Si Si4 0.026653 0.231359 0.900185
Si Si5 0.636509 0.734165 0.841229
Si Si6 0.164754 0.893631 0.025201
Si Si7 0.163798 0.943142 0.600887
O O1 0.508693 0.451363 0.193378
O O2 0.407110 0.470132 0.491962
O O3 0.438203 0.556824 0.185460
O O4 0.376373 0.454330 0.098018
O O5 0.137581 0.402958 0.344416
O O6 0.275659 0.421121 0.432409
O O7 0.199847 0.499395 0.218635
O O8 0.249654 0.400298 0.041522
O O9 0.527502 0.340088 0.051794
O O10 0.056872 0.241830 0.641110
O O11 0.945541 0.255099 0.867902
O O12 0.668002 0.752833 0.595273
O O13 0.636925 0.661817 0.834981
O O14 0.145022 0.889129 0.764817
#
# Coordination Sequence:
#
# PCOD9460506 Si02
#       7
#     8   8   8   8   8   8   8
#     4  10  23  38  64  99 133 164 218 280 335 389
#     4  11  22  37  60  94 133 174 207 265 347 404
#     4  11  22  43  61 101 136 167 221 280 339 408
#     4  10  23  44  68  93 130 184 228 275 335 405
#     4  10  23  42  68  95 125 174 234 285 327 385
#     4  11  22  41  63  93 128 174 221 275 328 413
#     4  11  21  39  63  92 133 177 217 259 337 423
#
# _framework density 22.601777999999999
#
# number of rings (size 3 to 8) (size 9 to 14) (size 15 to 20)
#    0.000    1.429    4.286    0.857    4.000    2.857 
#    0.000    1.429    0.000    0.000    0.000    0.000 
#    0.000    0.000    0.000    0.000    0.000    0.000 
#
# Total GULP energy -311965.913550 kJ/mol
# GULP energy per Si atom -5570.819885 kJ/mol
# Density = 2.255034 g / cm^3
# Si number density = 22.601778 Si / 1000 Ang^3
#
#
#
# Elastic Constant Matrix: (Units=GPa)
#
#
# Indices 1 2 3 4 5 6 
#
# 1 51.4142 4.4424 4.0239 0.0000 0.0000 0.0000
# 2 4.4424 71.1402 23.4915 0.0000 0.0000 0.0000
# 3 4.0239 23.4915 107.5204 0.0000 0.0000 0.0000
# 4 0.0000 0.0000 0.0000 28.1400 0.0000 0.0000
# 5 0.0000 0.0000 0.0000 0.0000 14.4867 0.0000
# 6 0.0000 0.0000 0.0000 0.0000 0.0000 19.4398
#
#
#
# Elastic Compliance Matrix: (Units=1/GPa)
#
#
# Indices 1 2 3 4 5 6 
#
# 1 0.019580 -0.001057 -0.000502 0.000000 0.000000 0.000000
# 2 -0.001057 0.015207 -0.003283 0.000000 0.000000 0.000000
# 3 -0.000502 -0.003283 0.010037 0.000000 0.000000 0.000000
# 4 0.000000 0.000000 0.000000 0.035537 0.000000 0.000000
# 5 0.000000 0.000000 0.000000 0.000000 0.069029 0.000000
# 6 0.000000 0.000000 0.000000 0.000000 0.000000 0.051441
#
#
# Mechanical properties :
#
#
# Convention : Reuss Voigt Hill
#
# Bulk Modulus (GPa) = 28.45724 32.66558 30.56141
# Shear Modulus (GPa) = 22.49948 25.62109 24.06028
#
# Velocity S-wave (km/s) = 3.15854 3.37053 3.26625
# Velocity P-wave (km/s) = 5.09115 5.44347 5.27026
#
# Compressibility (1/GPa) = 0.03514044
#
# Stress axis : x y z
#
# Youngs Moduli (GPa) = 51.07126 65.75996 99.63526
#
# Poissons Ratio (x) = 0.06951 0.05000
# Poissons Ratio (y) = 0.05398 0.32709
# Poissons Ratio (z) = 0.02563 0.21588
#
# Static dielectric constant tensor:
#      x y z
#    x 1.820580 0.000000 0.000000 
#    y 0.000000 1.784330 0.000000 
#    z 0.000000 0.000000 2.112770 
# 
# From -- ./inp_files/1043.got.cif
#   From: 2010.05.17/outbox.cif.g08.bks.cpg/sg61_1_cif.got.tgz:1043.got - 2010.06.03 15:17:17.
