data_PCOD9460687
_publ_section_title
;
Structure prediction by ZEFSAII (Michael W. Deem and Ramdas Pophale) SiO2 
 PCOD9460687
Probable space group: P B C A
;
_chemical_formula_sum "Si O2"
_cell_formula_units_Z 48
_cell_length_a 8.099036
_cell_length_b 20.149062
_cell_length_c 11.863829
_cell_angle_alpha 90.000000
_cell_angle_beta 90.000000
_cell_angle_gamma 90.000000
_cell_volume 1936.034272
_symmetry_space_group_name_H-M "P B C A"
_symmetry_group_IT_number 61
_symmetry_cell_setting 'orthorhombic'
loop_
_space_group_symop_operation_xyz
x,y,z
1/2-x,-y,1/2+z
1/2+x,1/2-y,-z
-x,1/2+y,1/2-z
-x,-y,-z
1/2+x,y,1/2-z
1/2-x,1/2+y,z
x,1/2-y,1/2+z
loop_
_atom_site_type_symbol
_atom_site_label
_atom_site_fract_x
_atom_site_fract_y
_atom_site_fract_z
Si Si1 0.809637 0.360500 0.345630
Si Si2 0.250473 0.457748 0.827010
Si Si3 0.472644 0.866778 0.669195
Si Si4 0.975980 0.551079 0.826474
Si Si5 0.460908 0.767555 0.495300
Si Si6 0.806046 0.251512 0.170978
O O1 0.654431 0.402267 0.390727
O O2 0.910064 0.314230 0.429997
O O3 0.745118 0.306953 0.254440
O O4 0.933855 0.407220 0.273766
O O5 0.397483 0.418101 0.888895
O O6 0.354718 0.499265 0.735182
O O7 0.136916 0.406079 0.757471
O O8 0.124594 0.509836 0.884929
O O9 0.374637 0.822407 0.577649
O O10 0.594332 0.810334 0.721501
O O11 0.561069 0.721176 0.580362
O O12 0.345721 0.731693 0.407665
#
# Coordination Sequence:
#
# PCOD9460687 Si02
#       6
#     8   8   8   8   8   8
#     4  11  20  39  66  90 128 164 203 261 321 372
#     4   9  18  42  61  91 119 171 213 246 306 365
#     4   9  22  38  65  89 127 160 210 259 307 367
#     4   9  20  35  66  87 119 171 206 249 310 372
#     4  10  24  40  59  97 126 160 212 252 318 387
#     4  10  24  38  63  94 125 164 203 261 322 374
#
# _framework density 24.792949
#
# number of rings (size 3 to 8) (size 9 to 14) (size 15 to 20)
#    1.000    1.333    1.667    0.000    4.667    1.333 
#    3.000    8.333    0.000    0.000    0.000    0.000 
#    0.000    0.000    0.000    0.000    0.000    0.000 
#
# Total GULP energy -267561.454317 kJ/mol
# GULP energy per Si atom -5574.196965 kJ/mol
# Density = 2.473652 g / cm^3
# Si number density = 24.792949 Si / 1000 Ang^3
#
#
#
# Elastic Constant Matrix: (Units=GPa)
#
#
# Indices 1 2 3 4 5 6 
#
# 1 90.9730 41.2007 12.0127 0.0000 0.0000 0.0000
# 2 41.2007 79.4821 9.4014 0.0000 0.0000 0.0000
# 3 12.0127 9.4014 30.7451 0.0000 0.0000 0.0000
# 4 0.0000 0.0000 0.0000 32.8495 0.0000 0.0000
# 5 0.0000 0.0000 0.0000 0.0000 543.5981 0.0000
# 6 0.0000 0.0000 0.0000 0.0000 0.0000 78.3810
#
#
#
# Elastic Compliance Matrix: (Units=1/GPa)
#
#
# Indices 1 2 3 4 5 6 
#
# 1 0.014728 -0.007215 -0.003548 0.000000 0.000000 0.000000
# 2 -0.007215 0.016588 -0.002253 0.000000 0.000000 0.000000
# 3 -0.003548 -0.002253 0.034601 0.000000 0.000000 0.000000
# 4 0.000000 0.000000 0.000000 0.030442 0.000000 0.000000
# 5 0.000000 0.000000 0.000000 0.000000 0.001840 0.000000
# 6 0.000000 0.000000 0.000000 0.000000 0.000000 0.012758
#
#
# Mechanical properties :
#
#
# Convention : Reuss Voigt Hill
#
# Bulk Modulus (GPa) = 25.07276 36.26996 30.67136
# Shear Modulus (GPa) = 33.27009 140.20475 86.73742
#
# Velocity S-wave (km/s) = 3.66719 7.52815 5.92120
# Velocity P-wave (km/s) = 5.29772 9.49868 7.69060
#
# Compressibility (1/GPa) = 0.03988393
#
# Stress axis : x y z
#
# Youngs Moduli (GPa) = 67.89597 60.28474 28.90087
#
# Poissons Ratio (x) = 0.43495 0.10255
# Poissons Ratio (y) = 0.48987 0.06512
# Poissons Ratio (z) = 0.24093 0.13584
#
# Static dielectric constant tensor:
#      x y z
#    x 1.994180 0.000000 0.000000 
#    y 0.000000 1.985300 0.000000 
#    z 0.000000 0.000000 1.951690 
# 
# From -- ./inp_files/7092.got.cif
#   From: 2010.05.17/outbox.cif.g08.bks.cpg/sg61_4_cif.got.tgz:7092.got - 2010.06.03 15:17:17.
