data_PCOD9460939
_publ_section_title
;
Structure prediction by ZEFSAII (Michael W. Deem and Ramdas Pophale) SiO2 
 PCOD9460939
Probable space group: P B C A
;
_chemical_formula_sum "Si O2"
_cell_formula_units_Z 48
_cell_length_a 15.631164
_cell_length_b 14.485906
_cell_length_c 10.044314
_cell_angle_alpha 90.000000
_cell_angle_beta 90.000000
_cell_angle_gamma 90.000000
_cell_volume 2274.349812
_symmetry_space_group_name_H-M "P B C A"
_symmetry_group_IT_number 61
_symmetry_cell_setting 'orthorhombic'
loop_
_space_group_symop_operation_xyz
x,y,z
1/2-x,-y,1/2+z
1/2+x,1/2-y,-z
-x,1/2+y,1/2-z
-x,-y,-z
1/2+x,y,1/2-z
1/2-x,1/2+y,z
x,1/2-y,1/2+z
loop_
_atom_site_type_symbol
_atom_site_label
_atom_site_fract_x
_atom_site_fract_y
_atom_site_fract_z
Si Si1 0.254227 0.598926 0.165841
Si Si2 0.033351 0.074263 0.398586
Si Si3 0.833210 0.288753 0.261069
Si Si4 0.290745 0.478374 0.381282
Si Si5 0.954614 0.568945 0.397578
Si Si6 0.549469 0.739959 0.007765
O O1 0.233455 0.706093 0.201212
O O2 0.224015 0.539793 0.295185
O O3 0.352568 0.570744 0.127964
O O4 0.211958 0.566988 0.027494
O O5 0.004723 0.055319 0.247986
O O6 0.996862 0.170680 0.447864
O O7 0.134624 0.055448 0.396649
O O8 0.000000 0.000000 0.500000
O O9 0.800844 0.388922 0.214454
O O10 0.890908 0.300563 0.391950
O O11 0.892808 0.258523 0.137311
O O12 0.000000 0.500000 0.500000
O O13 0.976965 0.669483 0.450297
#
# Coordination Sequence:
#
# PCOD9460939 Si02
#       6
#     8   8   8   8   8   8
#     4  11  27  45  69 105 140 189 239 294 363 437
#     4  11  22  43  68 103 136 184 241 290 366 429
#     4  12  24  47  73 102 142 189 234 295 368 428
#     4  11  26  45  70 101 144 188 237 300 357 440
#     4  11  27  45  70 104 143 189 244 300 366 436
#     4  12  24  44  74 101 141 188 239 303 357 440
#
# _framework density 21.104932000000002
#
# number of rings (size 3 to 8) (size 9 to 14) (size 15 to 20)
#    0.000    0.667    5.000    2.000    4.667    4.000 
#    0.000    0.000    0.000    0.000    0.000    0.000 
#    0.000    0.000    0.000    0.000    0.000    0.000 
#
# Total GULP energy -267472.166538 kJ/mol
# GULP energy per Si atom -5572.336803 kJ/mol
# Density = 2.105690 g / cm^3
# Si number density = 21.104932 Si / 1000 Ang^3
#
#
#
# Elastic Constant Matrix: (Units=GPa)
#
#
# Indices 1 2 3 4 5 6 
#
# 1 47.1710 16.4925 11.1678 0.0000 0.0000 0.0000
# 2 16.4925 65.3404 13.8795 0.0000 0.0000 0.0000
# 3 11.1678 13.8795 131.2513 0.0000 0.0000 0.0000
# 4 0.0000 0.0000 0.0000 48.5801 0.0000 0.0000
# 5 0.0000 0.0000 0.0000 0.0000 27.1336 0.0000
# 6 0.0000 0.0000 0.0000 0.0000 0.0000 33.3986
#
#
#
# Elastic Compliance Matrix: (Units=1/GPa)
#
#
# Indices 1 2 3 4 5 6 
#
# 1 0.023502 -0.005634 -0.001404 0.000000 0.000000 0.000000
# 2 -0.005634 0.017007 -0.001319 0.000000 0.000000 0.000000
# 3 -0.001404 -0.001319 0.007878 0.000000 0.000000 0.000000
# 4 0.000000 0.000000 0.000000 0.020585 0.000000 0.000000
# 5 0.000000 0.000000 0.000000 0.000000 0.036855 0.000000
# 6 0.000000 0.000000 0.000000 0.000000 0.000000 0.029941
#
#
# Mechanical properties :
#
#
# Convention : Reuss Voigt Hill
#
# Bulk Modulus (GPa) = 31.57297 36.31580 33.94439
# Shear Modulus (GPa) = 30.66772 35.30399 32.98585
#
# Velocity S-wave (km/s) = 3.81610 4.09440 3.95770
# Velocity P-wave (km/s) = 5.86594 6.29260 6.08301
#
# Compressibility (1/GPa) = 0.03167266
#
# Stress axis : x y z
#
# Youngs Moduli (GPa) = 42.55029 58.80044 126.93711
#
# Poissons Ratio (x) = 0.33127 0.17821
# Poissons Ratio (y) = 0.23972 0.16744
# Poissons Ratio (z) = 0.05974 0.07756
#
# Static dielectric constant tensor:
#      x y z
#    x 1.950840 0.000000 0.000000 
#    y 0.000000 1.499940 0.000000 
#    z 0.000000 0.000000 1.831980 
# 
# From -- ./inp_files/3417.got.cif
#   From: 2010.05.17/outbox.cif.g08.bks.cpg/sg61_2_cif.got.tgz:3417.got - 2010.06.03 15:17:17.
