data_PCOD9460270
_publ_section_title
;
Structure prediction by ZEFSAII (Michael W. Deem and Ramdas Pophale) SiO2 
 PCOD9460270
Probable space group: P B C A
;
_chemical_formula_sum "Si O2"
_cell_formula_units_Z 44
_cell_length_a 4.848848
_cell_length_b 14.096389
_cell_length_c 24.115025
_cell_angle_alpha 90.000000
_cell_angle_beta 90.000000
_cell_angle_gamma 90.000000
_cell_volume 1648.292045
_symmetry_space_group_name_H-M "P B C A"
_symmetry_group_IT_number 61
_symmetry_cell_setting 'orthorhombic'
loop_
_space_group_symop_operation_xyz
x,y,z
1/2-x,-y,1/2+z
1/2+x,1/2-y,-z
-x,1/2+y,1/2-z
-x,-y,-z
1/2+x,y,1/2-z
1/2-x,1/2+y,z
x,1/2-y,1/2+z
loop_
_atom_site_type_symbol
_atom_site_label
_atom_site_fract_x
_atom_site_fract_y
_atom_site_fract_z
Si Si1 0.293378 0.696680 0.020192
Si Si2 0.642018 0.181666 0.215872
Si Si3 0.500000 0.000000 0.000000
Si Si4 0.752117 0.594241 0.713086
Si Si5 0.585587 0.900165 0.608199
Si Si6 0.438159 0.521923 0.605437
O O1 0.452069 0.690443 0.079299
O O2 0.504108 0.748740 0.979077
O O3 0.243243 0.584732 0.010589
O O4 0.330236 0.158965 0.230918
O O5 0.702271 0.292740 0.208103
O O6 0.743597 0.128096 0.162225
O O7 0.359303 0.926345 0.049415
O O8 0.545456 0.563766 0.762445
O O9 0.609727 0.565826 0.655276
O O10 0.826974 0.954623 0.572412
O O11 0.334422 0.968652 0.624324
#
# Coordination Sequence:
#
# PCOD9460270 Si02
#       6
#     8   8   4   8   8   8
#     4  11  25  45  71 101 135 185 229 283 349 418
#     4  10  22  40  63  92 132 169 213 277 332 401
#     4  10  26  48  66 106 144 176 242 288 346 412
#     4  10  22  41  61  94 126 170 223 262 338 412
#     4  11  24  42  63  99 129 164 234 266 341 410
#     4  11  24  42  67  93 135 176 215 290 332 409
#
# _framework density 26.694296999999999
#
# number of rings (size 3 to 8) (size 9 to 14) (size 15 to 20)
#    0.000    1.455    0.000    4.364    2.545   10.909 
#    6.545    0.000    0.000    0.000    0.000    0.000 
#    0.000    0.000    0.000    0.000    0.000    0.000 
#
# Total GULP energy -245351.685544 kJ/mol
# GULP energy per Si atom -5576.174671 kJ/mol
# Density = 2.663354 g / cm^3
# Si number density = 26.694297 Si / 1000 Ang^3
#
#
#
# Elastic Constant Matrix: (Units=GPa)
#
#
# Indices 1 2 3 4 5 6 
#
# 1 139.5839 28.8343 -8.3010 0.0000 0.0000 0.0000
# 2 28.8343 78.9534 16.3764 0.0000 0.0000 0.0000
# 3 -8.3010 16.3764 95.7185 0.0000 0.0000 0.0000
# 4 0.0000 0.0000 0.0000 40.5065 0.0000 0.0000
# 5 0.0000 0.0000 0.0000 0.0000 36.1126 0.0000
# 6 0.0000 0.0000 0.0000 0.0000 0.0000 38.6664
#
#
#
# Elastic Compliance Matrix: (Units=1/GPa)
#
#
# Indices 1 2 3 4 5 6 
#
# 1 0.007884 -0.003132 0.001220 0.000000 0.000000 0.000000
# 2 -0.003132 0.014376 -0.002731 0.000000 0.000000 0.000000
# 3 0.001220 -0.002731 0.011020 0.000000 0.000000 0.000000
# 4 0.000000 0.000000 0.000000 0.024687 0.000000 0.000000
# 5 0.000000 0.000000 0.000000 0.000000 0.027691 0.000000
# 6 0.000000 0.000000 0.000000 0.000000 0.000000 0.025862
#
#
# Mechanical properties :
#
#
# Convention : Reuss Voigt Hill
#
# Bulk Modulus (GPa) = 41.67959 43.11945 42.39952
# Shear Modulus (GPa) = 38.81805 41.54684 40.18245
#
# Velocity S-wave (km/s) = 3.81750 3.94940 3.88401
# Velocity P-wave (km/s) = 5.92272 6.08154 6.00265
#
# Compressibility (1/GPa) = 0.02399256
#
# Stress axis : x y z
#
# Youngs Moduli (GPa) = 126.84404 69.55993 90.74118
#
# Poissons Ratio (x) = 0.21787 -0.11067
# Poissons Ratio (y) = 0.39729 0.24784
# Poissons Ratio (z) = -0.15470 0.18998
#
# Static dielectric constant tensor:
#      x y z
#    x 2.730380 0.000000 0.000000 
#    y 0.000000 2.753870 0.000000 
#    z 0.000000 0.000000 -2.949190 
# 
# From -- ./inp_files/481.got.cif
#   From: 2010.05.17/outbox.cif.g08.bks.cpg/sg61_1_cif.got.tgz:481.got - 2010.06.03 15:17:17.
