data_PCOD9460272
_publ_section_title
;
Structure prediction by ZEFSAII (Michael W. Deem and Ramdas Pophale) SiO2 
 PCOD9460272
Probable space group: P B C A
;
_chemical_formula_sum "Si O2"
_cell_formula_units_Z 36
_cell_length_a 4.883726
_cell_length_b 12.854956
_cell_length_c 21.046365
_cell_angle_alpha 90.000000
_cell_angle_beta 90.000000
_cell_angle_gamma 90.000000
_cell_volume 1321.292538
_symmetry_space_group_name_H-M "P B C A"
_symmetry_group_IT_number 61
_symmetry_cell_setting 'orthorhombic'
loop_
_space_group_symop_operation_xyz
x,y,z
1/2-x,-y,1/2+z
1/2+x,1/2-y,-z
-x,1/2+y,1/2-z
-x,-y,-z
1/2+x,y,1/2-z
1/2-x,1/2+y,z
x,1/2-y,1/2+z
loop_
_atom_site_type_symbol
_atom_site_label
_atom_site_fract_x
_atom_site_fract_y
_atom_site_fract_z
Si Si1 0.837933 0.902495 0.889286
Si Si2 0.500000 0.000000 0.000000
Si Si3 0.886608 0.279789 0.040268
Si Si4 0.593591 0.062237 0.705509
Si Si5 0.932261 0.696750 0.205151
O O1 0.007616 0.987662 0.850990
O O2 0.571213 0.868961 0.849985
O O3 0.016006 0.799860 0.905465
O O4 0.738652 0.950540 0.955424
O O5 0.456249 0.100110 0.949709
O O6 0.577598 0.253309 0.020325
O O7 0.893410 0.046273 0.734021
O O8 0.133052 0.820402 0.765934
O O9 0.554286 0.182100 0.686305
#
# Coordination Sequence:
#
# PCOD9460272 Si02
#       5
#     8   4   8   8   8
#     4  11  22  41  66  95 132 175 222 279 333 397
#     4  10  24  44  66  96 134 180 228 276 334 398
#     4  10  24  43  64  92 128 173 221 268 325 391
#     4  10  22  40  66  98 130 170 219 275 339 401
#     4  10  22  40  63  93 127 167 216 270 334 401
#
# _framework density 27.246047000000001
#
# number of rings (size 3 to 8) (size 9 to 14) (size 15 to 20)
#    0.000    1.778    0.000    2.667    0.000   10.667 
#    0.000   17.778    0.000    0.000    0.000    0.000 
#    0.000    0.000    0.000    0.000    0.000    0.000 
#
# Total GULP energy -201266.025571 kJ/mol
# GULP energy per Si atom -5590.722933 kJ/mol
# Density = 2.718403 g / cm^3
# Si number density = 27.246047 Si / 1000 Ang^3
#
#
#
# Elastic Constant Matrix: (Units=GPa)
#
#
# Indices 1 2 3 4 5 6 
#
# 1 89.8718 40.5910 23.7635 0.0000 0.0000 0.0000
# 2 40.5910 119.2249 24.5601 0.0000 0.0000 0.0000
# 3 23.7635 24.5601 82.5402 0.0000 0.0000 0.0000
# 4 0.0000 0.0000 0.0000 50.6656 0.0000 0.0000
# 5 0.0000 0.0000 0.0000 0.0000 43.2224 0.0000
# 6 0.0000 0.0000 0.0000 0.0000 0.0000 40.7471
#
#
#
# Elastic Compliance Matrix: (Units=1/GPa)
#
#
# Indices 1 2 3 4 5 6 
#
# 1 0.013700 -0.004103 -0.002723 0.000000 0.000000 0.000000
# 2 -0.004103 0.010164 -0.001843 0.000000 0.000000 0.000000
# 3 -0.002723 -0.001843 0.013448 0.000000 0.000000 0.000000
# 4 0.000000 0.000000 0.000000 0.019737 0.000000 0.000000
# 5 0.000000 0.000000 0.000000 0.000000 0.023136 0.000000
# 6 0.000000 0.000000 0.000000 0.000000 0.000000 0.024542
#
#
# Mechanical properties :
#
#
# Convention : Reuss Voigt Hill
#
# Bulk Modulus (GPa) = 50.06819 52.16291 51.11555
# Shear Modulus (GPa) = 38.84262 40.44183 39.64222
#
# Velocity S-wave (km/s) = 3.77984 3.85687 3.81855
# Velocity P-wave (km/s) = 6.12093 6.24665 6.18411
#
# Compressibility (1/GPa) = 0.01997276
#
# Stress axis : x y z
#
# Youngs Moduli (GPa) = 72.99067 98.38460 74.36173
#
# Poissons Ratio (x) = 0.40371 0.20252
# Poissons Ratio (y) = 0.29951 0.13705
# Poissons Ratio (z) = 0.19878 0.18132
#
# Static dielectric constant tensor:
#      x y z
#    x 2.058310 0.000000 0.000000 
#    y 0.000000 2.163740 0.000000 
#    z 0.000000 0.000000 2.163270 
# 
# From -- ./inp_files/10705.got.cif
#   From: 2010.05.17/outbox.cif.g08.bks.cpg/sg61_6_cif.got.tgz:10705.got - 2010.06.03 15:17:17.
