data_PCOD9460354
_publ_section_title
;
Structure prediction by ZEFSAII (Michael W. Deem and Ramdas Pophale) SiO2 
 PCOD9460354
Probable space group: P B C A
;
_chemical_formula_sum "Si O2"
_cell_formula_units_Z 64
_cell_length_a 14.214120
_cell_length_b 8.902450
_cell_length_c 21.832746
_cell_angle_alpha 90.000000
_cell_angle_beta 90.000000
_cell_angle_gamma 90.000000
_cell_volume 2762.726434
_symmetry_space_group_name_H-M "P B C A"
_symmetry_group_IT_number 61
_symmetry_cell_setting 'orthorhombic'
loop_
_space_group_symop_operation_xyz
x,y,z
1/2-x,-y,1/2+z
1/2+x,1/2-y,-z
-x,1/2+y,1/2-z
-x,-y,-z
1/2+x,y,1/2-z
1/2-x,1/2+y,z
x,1/2-y,1/2+z
loop_
_atom_site_type_symbol
_atom_site_label
_atom_site_fract_x
_atom_site_fract_y
_atom_site_fract_z
Si Si1 0.914171 0.437400 0.701440
Si Si2 0.167315 0.607629 0.965005
Si Si3 0.121239 0.236157 0.279719
Si Si4 0.247251 0.136392 0.382732
Si Si5 0.411866 0.747148 0.649749
Si Si6 0.028026 0.774272 0.045432
Si Si7 0.047311 0.593248 0.169394
Si Si8 0.637841 0.086775 0.473038
O O1 0.939838 0.611365 0.714090
O O2 0.829094 0.447145 0.653941
O O3 0.889349 0.376378 0.769788
O O4 0.992961 0.335109 0.669540
O O5 0.201831 0.757523 0.931017
O O6 0.172933 0.472886 0.916115
O O7 0.071255 0.650281 0.998860
O O8 0.253066 0.570658 0.010815
O O9 0.200164 0.234193 0.330126
O O10 0.152900 0.229841 0.209701
O O11 0.054411 0.098184 0.297509
O O12 0.430103 0.570478 0.643353
O O13 0.373344 0.817752 0.588357
O O14 0.041559 0.709446 0.113465
O O15 0.089924 0.925130 0.037172
O O16 0.923066 0.826496 0.025662
#
# Coordination Sequence:
#
# PCOD9460354 Si02
#       8
#     8   8   8   8   8   8   8   8
#     4  10  22  43  63  93 133 169 211 272 336 392
#     4  12  26  43  66 100 131 172 230 276 328 408
#     4  10  22  42  63  94 129 168 214 271 332 392
#     4  12  24  42  66  93 130 170 220 277 331 395
#     4  10  23  40  67  96 128 169 221 270 327 396
#     4  11  25  45  69  96 135 184 221 273 343 399
#     4  10  23  40  67  99 127 168 225 269 321 403
#     4  11  25  45  67  94 138 184 217 276 346 395
#
# _framework density 23.165523
#
# number of rings (size 3 to 8) (size 9 to 14) (size 15 to 20)
#    0.000    1.250    2.500    2.250    7.000    2.500 
#    0.000    2.500    0.000    0.000    0.000    0.000 
#    0.000    0.000    0.000    0.000    0.000    0.000 
#
# Total GULP energy -357697.662522 kJ/mol
# GULP energy per Si atom -5589.025977 kJ/mol
# Density = 2.311280 g / cm^3
# Si number density = 23.165523 Si / 1000 Ang^3
#
#
#
# Elastic Constant Matrix: (Units=GPa)
#
#
# Indices 1 2 3 4 5 6 
#
# 1 28.7727 1.7205 -2.6180 0.0000 0.0000 0.0000
# 2 1.7205 71.1079 39.6679 0.0000 0.0000 0.0000
# 3 -2.6180 39.6679 119.7519 0.0000 0.0000 0.0000
# 4 0.0000 0.0000 0.0000 104.1703 0.0000 0.0000
# 5 0.0000 0.0000 0.0000 0.0000 33.7461 0.0000
# 6 0.0000 0.0000 0.0000 0.0000 0.0000 25.1886
#
#
#
# Elastic Compliance Matrix: (Units=1/GPa)
#
#
# Indices 1 2 3 4 5 6 
#
# 1 0.034965 -0.001561 0.001281 0.000000 0.000000 0.000000
# 2 -0.001561 0.017321 -0.005772 0.000000 0.000000 0.000000
# 3 0.001281 -0.005772 0.010290 0.000000 0.000000 0.000000
# 4 0.000000 0.000000 0.000000 0.009600 0.000000 0.000000
# 5 0.000000 0.000000 0.000000 0.000000 0.029633 0.000000
# 6 0.000000 0.000000 0.000000 0.000000 0.000000 0.039700
#
#
# Mechanical properties :
#
#
# Convention : Reuss Voigt Hill
#
# Bulk Modulus (GPa) = 19.81215 33.01927 26.41571
# Shear Modulus (GPa) = 29.33652 44.67848 37.00750
#
# Velocity S-wave (km/s) = 3.56249 4.39642 4.00124
# Velocity P-wave (km/s) = 5.04904 6.32897 5.72489
#
# Compressibility (1/GPa) = 0.05047408
#
# Stress axis : x y z
#
# Youngs Moduli (GPa) = 28.59997 57.73473 97.17743
#
# Poissons Ratio (x) = 0.09012 -0.12453
# Poissons Ratio (y) = 0.04464 0.56087
# Poissons Ratio (z) = -0.03665 0.33322
#
# Static dielectric constant tensor:
#      x y z
#    x 1.893180 0.000000 0.000000 
#    y 0.000000 1.878460 0.000000 
#    z 0.000000 0.000000 1.901880 
# 
# From -- ./inp_files/11079.got.cif
#   From: 2010.05.17/outbox.cif.g08.bks.cpg/sg61_6_cif.got.tgz:11079.got - 2010.06.03 15:17:17.
