data_PCOD9460368
_publ_section_title
;
Structure prediction by ZEFSAII (Michael W. Deem and Ramdas Pophale) SiO2 
 PCOD9460368
Probable space group: P B C A
;
_chemical_formula_sum "Si O2"
_cell_formula_units_Z 32
_cell_length_a 20.993115
_cell_length_b 5.263639
_cell_length_c 10.038203
_cell_angle_alpha 90.000000
_cell_angle_beta 90.000000
_cell_angle_gamma 90.000000
_cell_volume 1109.223227
_symmetry_space_group_name_H-M "P B C A"
_symmetry_group_IT_number 61
_symmetry_cell_setting 'orthorhombic'
loop_
_space_group_symop_operation_xyz
x,y,z
1/2-x,-y,1/2+z
1/2+x,1/2-y,-z
-x,1/2+y,1/2-z
-x,-y,-z
1/2+x,y,1/2-z
1/2-x,1/2+y,z
x,1/2-y,1/2+z
loop_
_atom_site_type_symbol
_atom_site_label
_atom_site_fract_x
_atom_site_fract_y
_atom_site_fract_z
Si Si1 0.579768 0.772298 0.041096
Si Si2 0.728902 0.667987 0.922018
Si Si3 0.947009 0.772026 0.874088
Si Si4 0.660291 0.992023 0.743805
O O1 0.521876 0.765523 0.152481
O O2 0.643345 0.681373 0.118117
O O3 0.560696 0.544517 0.941405
O O4 0.572424 0.053306 0.981597
O O5 0.766194 0.897926 0.991885
O O6 0.664500 0.781051 0.863615
O O7 0.774294 0.628023 0.789000
O O8 0.895779 0.699242 0.760674
#
# Coordination Sequence:
#
# PCOD9460368 Si02
#       4
#     8   8   8   8
#     4  10  24  40  60  93 121 156 210 250 302 380
#     4   8  20  36  60  90 116 158 216 242 300 396
#     4  10  24  40  60  93 121 156 210 250 302 380
#     4  10  22  42  66  82 132 164 194 268 320 348
#
# _framework density 28.849015000000001
#
# number of rings (size 3 to 8) (size 9 to 14) (size 15 to 20)
#    1.500    1.000    0.000    0.000    7.000    6.000 
#    0.000    7.500    0.000    0.000    0.000    0.000 
#    0.000    0.000    0.000    0.000    0.000    0.000 
#
# Total GULP energy -178638.316718 kJ/mol
# GULP energy per Si atom -5582.447397 kJ/mol
# Density = 2.878335 g / cm^3
# Si number density = 28.849015 Si / 1000 Ang^3
#
#
#
# Elastic Constant Matrix: (Units=GPa)
#
#
# Indices 1 2 3 4 5 6 
#
# 1 70.1427 29.0949 -36.6785 0.0000 0.0000 0.0000
# 2 29.0949 164.8289 35.3680 0.0000 0.0000 0.0000
# 3 -36.6785 35.3680 47.4857 0.0000 0.0000 0.0000
# 4 0.0000 0.0000 0.0000 41.5343 0.0000 0.0000
# 5 0.0000 0.0000 0.0000 0.0000 20.5892 0.0000
# 6 0.0000 0.0000 0.0000 0.0000 0.0000 47.4440
#
#
#
# Elastic Compliance Matrix: (Units=1/GPa)
#
#
# Indices 1 2 3 4 5 6 
#
# 1 0.053103 -0.021632 0.057129 0.000000 0.000000 0.000000
# 2 -0.021632 0.016033 -0.028650 0.000000 0.000000 0.000000
# 3 0.057129 -0.028650 0.086525 0.000000 0.000000 0.000000
# 4 0.000000 0.000000 0.000000 0.024077 0.000000 0.000000
# 5 0.000000 0.000000 0.000000 0.000000 0.048569 0.000000
# 6 0.000000 0.000000 0.000000 0.000000 0.000000 0.021077
#
#
# Mechanical properties :
#
#
# Convention : Reuss Voigt Hill
#
# Bulk Modulus (GPa) = 5.90478 37.55845 21.73162
# Shear Modulus (GPa) = 17.11502 38.89169 28.00335
#
# Velocity S-wave (km/s) = 2.43834 3.67565 3.11896
# Velocity P-wave (km/s) = 3.15889 5.57325 4.52988
#
# Compressibility (1/GPa) = 0.16935421
#
# Stress axis : x y z
#
# Youngs Moduli (GPa) = 18.83140 62.37209 11.55738
#
# Poissons Ratio (x) = 1.34922 -0.66026
# Poissons Ratio (y) = 0.40736 0.33112
# Poissons Ratio (z) = -1.07582 1.78697
#
# Static dielectric constant tensor:
#      x y z
#    x 2.409020 0.000000 0.000000 
#    y 0.000000 2.189130 0.000000 
#    z 0.000000 0.000000 2.499180 
# 
# From -- ./inp_files/6552.got.cif
#   From: 2010.05.17/outbox.cif.g08.bks.cpg/sg61_4_cif.got.tgz:6552.got - 2010.06.03 15:17:17.
