data_PCOD9460984
_publ_section_title
;
Structure prediction by ZEFSAII (Michael W. Deem and Ramdas Pophale) SiO2 
 PCOD9460984
Probable space group: P B C A
;
_chemical_formula_sum "Si O2"
_cell_formula_units_Z 48
_cell_length_a 25.696074
_cell_length_b 8.640738
_cell_length_c 8.796704
_cell_angle_alpha 90.000000
_cell_angle_beta 90.000000
_cell_angle_gamma 90.000000
_cell_volume 1953.158958
_symmetry_space_group_name_H-M "P B C A"
_symmetry_group_IT_number 61
_symmetry_cell_setting 'orthorhombic'
loop_
_space_group_symop_operation_xyz
x,y,z
1/2-x,-y,1/2+z
1/2+x,1/2-y,-z
-x,1/2+y,1/2-z
-x,-y,-z
1/2+x,y,1/2-z
1/2-x,1/2+y,z
x,1/2-y,1/2+z
loop_
_atom_site_type_symbol
_atom_site_label
_atom_site_fract_x
_atom_site_fract_y
_atom_site_fract_z
Si Si1 0.475418 0.811128 0.561265
Si Si2 0.760468 0.304782 0.753602
Si Si3 0.205064 0.407489 0.042498
Si Si4 0.084815 0.753736 0.105489
Si Si5 0.355567 0.103105 0.845208
Si Si6 0.449021 0.532401 0.777735
O O1 0.527227 0.764789 0.464060
O O2 0.456612 0.663289 0.652410
O O3 0.436546 0.885853 0.438390
O O4 0.498642 0.936639 0.678756
O O5 0.747541 0.369758 0.587438
O O6 0.802624 0.168545 0.728889
O O7 0.710018 0.230370 0.836545
O O8 0.782261 0.437245 0.863622
O O9 0.155076 0.447418 0.939223
O O10 0.102306 0.894119 0.212036
O O11 0.087369 0.599666 0.209583
O O12 0.124148 0.725622 0.969015
#
# Coordination Sequence:
#
# PCOD9460984 Si02
#       6
#     8   8   8   8   8   8
#     4  11  23  42  73 101 135 182 238 276 326 424
#     4  12  23  43  72 102 133 186 238 281 338 424
#     4  12  23  43  72 102 136 182 241 278 339 428
#     4  12  23  43  67 103 136 178 224 287 350 399
#     4  12  24  41  71  99 137 178 225 286 353 402
#     4  11  23  42  71 101 132 185 235 273 334 413
#
# _framework density 24.575572000000001
#
# number of rings (size 3 to 8) (size 9 to 14) (size 15 to 20)
#    0.000    0.333    8.333    0.500    0.000    0.000 
#    0.000    1.667    0.000    0.000    0.000    0.000 
#    0.000    0.000    0.000    0.000    0.000    0.000 
#
# Total GULP energy -268397.442619 kJ/mol
# GULP energy per Si atom -5591.613388 kJ/mol
# Density = 2.451964 g / cm^3
# Si number density = 24.575572 Si / 1000 Ang^3
#
#
#
# Elastic Constant Matrix: (Units=GPa)
#
#
# Indices 1 2 3 4 5 6 
#
# 1 26.3536 16.7025 43.9720 0.0000 0.0000 0.0000
# 2 16.7025 74.4912 30.6320 0.0000 0.0000 0.0000
# 3 43.9720 30.6320 120.9817 0.0000 0.0000 0.0000
# 4 0.0000 0.0000 0.0000 65.5973 0.0000 0.0000
# 5 0.0000 0.0000 0.0000 0.0000 29.6403 0.0000
# 6 0.0000 0.0000 0.0000 0.0000 0.0000 20.5241
#
#
#
# Elastic Compliance Matrix: (Units=1/GPa)
#
#
# Indices 1 2 3 4 5 6 
#
# 1 0.100941 -0.008423 -0.034555 0.000000 0.000000 0.000000
# 2 -0.008423 0.015688 -0.000910 0.000000 0.000000 0.000000
# 3 -0.034555 -0.000910 0.021056 0.000000 0.000000 0.000000
# 4 0.000000 0.000000 0.000000 0.015245 0.000000 0.000000
# 5 0.000000 0.000000 0.000000 0.000000 0.033738 0.000000
# 6 0.000000 0.000000 0.000000 0.000000 0.000000 0.048723
#
#
# Mechanical properties :
#
#
# Convention : Reuss Voigt Hill
#
# Bulk Modulus (GPa) = 20.03769 44.93772 32.48770
# Shear Modulus (GPa) = 14.71439 31.85368 23.28403
#
# Velocity S-wave (km/s) = 2.44957 3.60412 3.08140
# Velocity P-wave (km/s) = 4.02141 5.97032 5.09001
#
# Compressibility (1/GPa) = 0.04990596
#
# Stress axis : x y z
#
# Youngs Moduli (GPa) = 9.90677 63.74499 47.49308
#
# Poissons Ratio (x) = 0.53695 1.64114
# Poissons Ratio (y) = 0.08345 0.04324
# Poissons Ratio (z) = 0.34233 0.05803
#
# Static dielectric constant tensor:
#      x y z
#    x 2.000330 0.000000 0.000000 
#    y 0.000000 1.966650 0.000000 
#    z 0.000000 0.000000 1.951110 
# 
# From -- ./inp_files/1860.got.cif
#   From: 2010.05.17/outbox.cif.g08.bks.cpg/sg61_1_cif.got.tgz:1860.got - 2010.06.03 15:17:17.
