data_PCOD9460987
_publ_section_title
;
Structure prediction by ZEFSAII (Michael W. Deem and Ramdas Pophale) SiO2 
 PCOD9460987
Probable space group: P B C A
;
_chemical_formula_sum "Si O2"
_cell_formula_units_Z 48
_cell_length_a 8.374540
_cell_length_b 26.317021
_cell_length_c 8.130226
_cell_angle_alpha 90.000000
_cell_angle_beta 90.000000
_cell_angle_gamma 90.000000
_cell_volume 1791.844452
_symmetry_space_group_name_H-M "P B C A"
_symmetry_group_IT_number 61
_symmetry_cell_setting 'orthorhombic'
loop_
_space_group_symop_operation_xyz
x,y,z
1/2-x,-y,1/2+z
1/2+x,1/2-y,-z
-x,1/2+y,1/2-z
-x,-y,-z
1/2+x,y,1/2-z
1/2-x,1/2+y,z
x,1/2-y,1/2+z
loop_
_atom_site_type_symbol
_atom_site_label
_atom_site_fract_x
_atom_site_fract_y
_atom_site_fract_z
Si Si1 0.156365 0.947950 0.921195
Si Si2 0.587108 0.398964 0.414776
Si Si3 0.936103 0.494195 0.230219
Si Si4 0.508192 0.698627 0.096273
Si Si5 0.757258 0.648651 0.585848
Si Si6 0.211204 0.757813 0.195828
O O1 0.270145 0.993215 0.855026
O O2 0.270353 0.899646 0.951299
O O3 0.091275 0.962892 0.100800
O O4 0.017466 0.952973 0.787173
O O5 0.540871 0.457662 0.382551
O O6 0.663474 0.377491 0.246404
O O7 0.416436 0.373868 0.451744
O O8 0.386467 0.745054 0.133121
O O9 0.626684 0.705225 0.249599
O O10 0.394267 0.651312 0.053423
O O11 0.608974 0.710694 0.933842
O O12 0.727584 0.706456 0.645019
#
# Coordination Sequence:
#
# PCOD9460987 Si02
#       6
#     8   8   8   8   8   8
#     4  11  23  42  71  99 133 179 234 268 332 408
#     4  12  23  43  67 103 137 174 221 285 346 394
#     4  11  23  42  73 100 130 182 235 274 322 416
#     4  12  23  43  71 102 133 179 235 275 335 412
#     4  12  24  41  71  99 137 178 219 284 349 393
#     4  12  23  43  73  99 133 179 237 273 330 421
#
# _framework density 26.788042000000001
#
# number of rings (size 3 to 8) (size 9 to 14) (size 15 to 20)
#    0.000    0.333    8.333    0.500    0.000    0.000 
#    0.000    1.667    0.000    0.000    0.000    0.000 
#    0.000    0.000    0.000    0.000    0.000    0.000 
#
# Total GULP energy -268720.224676 kJ/mol
# GULP energy per Si atom -5598.338014 kJ/mol
# Density = 2.672707 g / cm^3
# Si number density = 26.788042 Si / 1000 Ang^3
#
#
#
# Elastic Constant Matrix: (Units=GPa)
#
#
# Indices 1 2 3 4 5 6 
#
# 1 93.8235 11.7617 11.6890 0.0000 0.0000 0.0000
# 2 11.7617 72.0267 13.1693 0.0000 0.0000 0.0000
# 3 11.6890 13.1693 53.1567 0.0000 0.0000 0.0000
# 4 0.0000 0.0000 0.0000 50.8558 0.0000 0.0000
# 5 0.0000 0.0000 0.0000 0.0000 61.7155 0.0000
# 6 0.0000 0.0000 0.0000 0.0000 0.0000 63.7785
#
#
#
# Elastic Compliance Matrix: (Units=1/GPa)
#
#
# Indices 1 2 3 4 5 6 
#
# 1 0.011098 -0.001431 -0.002086 0.000000 0.000000 0.000000
# 2 -0.001431 0.014727 -0.003334 0.000000 0.000000 0.000000
# 3 -0.002086 -0.003334 0.020097 0.000000 0.000000 0.000000
# 4 0.000000 0.000000 0.000000 0.019663 0.000000 0.000000
# 5 0.000000 0.000000 0.000000 0.000000 0.016203 0.000000
# 6 0.000000 0.000000 0.000000 0.000000 0.000000 0.015679
#
#
# Mechanical properties :
#
#
# Convention : Reuss Voigt Hill
#
# Bulk Modulus (GPa) = 31.03630 32.47188 31.75409
# Shear Modulus (GPa) = 41.01428 47.42907 44.22168
#
# Velocity S-wave (km/s) = 3.91713 4.21233 4.06741
# Velocity P-wave (km/s) = 5.66300 5.98385 5.82563
#
# Compressibility (1/GPa) = 0.03222033
#
# Stress axis : x y z
#
# Youngs Moduli (GPa) = 90.11004 67.90267 49.75882
#
# Poissons Ratio (x) = 0.09716 0.10379
# Poissons Ratio (y) = 0.12893 0.16589
# Poissons Ratio (z) = 0.18796 0.22638
#
# Static dielectric constant tensor:
#      x y z
#    x 2.056710 0.000000 0.000000 
#    y 0.000000 2.142370 0.000000 
#    z 0.000000 0.000000 2.080390 
# 
# From -- ./inp_files/1849.got.cif
#   From: 2010.05.17/outbox.cif.g08.bks.cpg/sg61_1_cif.got.tgz:1849.got - 2010.06.03 15:17:17.
