data_PCOD9460553
_publ_section_title
;
Structure prediction by ZEFSAII (Michael W. Deem and Ramdas Pophale) SiO2 
 PCOD9460553
Probable space group: P B C A
;
_chemical_formula_sum "Si O2"
_cell_formula_units_Z 36
_cell_length_a 4.882019
_cell_length_b 16.745673
_cell_length_c 14.980372
_cell_angle_alpha 90.000000
_cell_angle_beta 90.000000
_cell_angle_gamma 90.000000
_cell_volume 1224.685764
_symmetry_space_group_name_H-M "P B C A"
_symmetry_group_IT_number 61
_symmetry_cell_setting 'orthorhombic'
loop_
_space_group_symop_operation_xyz
x,y,z
1/2-x,-y,1/2+z
1/2+x,1/2-y,-z
-x,1/2+y,1/2-z
-x,-y,-z
1/2+x,y,1/2-z
1/2-x,1/2+y,z
x,1/2-y,1/2+z
loop_
_atom_site_type_symbol
_atom_site_label
_atom_site_fract_x
_atom_site_fract_y
_atom_site_fract_z
Si Si1 0.726856 0.045565 0.810142
Si Si2 0.000000 0.000000 0.500000
Si Si3 0.974155 0.412845 0.613700
Si Si4 0.908268 0.243092 0.695452
Si Si5 0.799523 0.695857 0.521496
O O1 0.492723 0.075078 0.743911
O O2 0.829133 0.952508 0.813396
O O3 0.665273 0.051380 0.916242
O O4 0.768770 0.966566 0.574677
O O5 0.861221 0.330189 0.651476
O O6 0.182708 0.387082 0.532495
O O7 0.724919 0.237517 0.782431
O O8 0.805730 0.184422 0.619862
O O9 0.586325 0.757775 0.477808
#
# Coordination Sequence:
#
# PCOD9460553 Si02
#       5
#     8   4   8   8   8
#     4  12  26  47  74 106 145 193 256 310 375 459
#     4  12  28  48  70 116 156 200 260 324 386 458
#     4  11  25  44  74 106 149 198 252 323 382 457
#     4  11  23  41  70 103 136 179 247 307 362 454
#     4  10  23  42  66 101 140 183 231 300 389 439
#
# _framework density 29.395298
#
# number of rings (size 3 to 8) (size 9 to 14) (size 15 to 20)
#    0.000    0.889    2.222    4.667    9.333    0.000 
#    0.000    2.222    0.000    0.000    0.000    0.000 
#    0.000    0.000    0.000    0.000    0.000    0.000 
#
# Total GULP energy -200975.730802 kJ/mol
# GULP energy per Si atom -5582.659189 kJ/mol
# Density = 2.932839 g / cm^3
# Si number density = 29.395298 Si / 1000 Ang^3
#
#
#
# Elastic Constant Matrix: (Units=GPa)
#
#
# Indices 1 2 3 4 5 6 
#
# 1 176.6835 23.7094 65.7550 0.0000 0.0000 0.0000
# 2 23.7094 111.1192 37.1088 0.0000 0.0000 0.0000
# 3 65.7550 37.1088 173.5253 0.0000 0.0000 0.0000
# 4 0.0000 0.0000 0.0000 55.7520 0.0000 0.0000
# 5 0.0000 0.0000 0.0000 0.0000 40.7543 0.0000
# 6 0.0000 0.0000 0.0000 0.0000 0.0000 38.6409
#
#
#
# Elastic Compliance Matrix: (Units=1/GPa)
#
#
# Indices 1 2 3 4 5 6 
#
# 1 0.006628 -0.000620 -0.002379 0.000000 0.000000 0.000000
# 2 -0.000620 0.009749 -0.001850 0.000000 0.000000 0.000000
# 3 -0.002379 -0.001850 0.007060 0.000000 0.000000 0.000000
# 4 0.000000 0.000000 0.000000 0.017937 0.000000 0.000000
# 5 0.000000 0.000000 0.000000 0.000000 0.024537 0.000000
# 6 0.000000 0.000000 0.000000 0.000000 0.000000 0.025879
#
#
# Mechanical properties :
#
#
# Convention : Reuss Voigt Hill
#
# Bulk Modulus (GPa) = 72.78117 79.38603 76.08360
# Shear Modulus (GPa) = 47.13903 49.34644 48.24273
#
# Velocity S-wave (km/s) = 4.00887 4.10166 4.05553
# Velocity P-wave (km/s) = 6.80010 7.03538 6.91874
#
# Compressibility (1/GPa) = 0.01373982
#
# Stress axis : x y z
#
# Youngs Moduli (GPa) = 150.86458 102.57012 141.64169
#
# Poissons Ratio (x) = 0.06357 0.33700
# Poissons Ratio (y) = 0.09350 0.26205
# Poissons Ratio (z) = 0.35894 0.18976
#
# Static dielectric constant tensor:
#      x y z
#    x 1.802630 0.000000 0.000000 
#    y 0.000000 2.194990 0.000000 
#    z 0.000000 0.000000 2.204810 
# 
# From -- ./inp_files/6828.got.cif
#   From: 2010.05.17/outbox.cif.g08.bks.cpg/sg61_4_cif.got.tgz:6828.got - 2010.06.03 15:17:17.
