data_PCOD9460556
_publ_section_title
;
Structure prediction by ZEFSAII (Michael W. Deem and Ramdas Pophale) SiO2 
 PCOD9460556
Probable space group: P B C A
;
_chemical_formula_sum "Si O2"
_cell_formula_units_Z 48
_cell_length_a 5.567459
_cell_length_b 12.742014
_cell_length_c 26.000506
_cell_angle_alpha 90.000000
_cell_angle_beta 90.000000
_cell_angle_gamma 90.000000
_cell_volume 1844.492550
_symmetry_space_group_name_H-M "P B C A"
_symmetry_group_IT_number 61
_symmetry_cell_setting 'orthorhombic'
loop_
_space_group_symop_operation_xyz
x,y,z
1/2-x,-y,1/2+z
1/2+x,1/2-y,-z
-x,1/2+y,1/2-z
-x,-y,-z
1/2+x,y,1/2-z
1/2-x,1/2+y,z
x,1/2-y,1/2+z
loop_
_atom_site_type_symbol
_atom_site_label
_atom_site_fract_x
_atom_site_fract_y
_atom_site_fract_z
Si Si1 0.167973 0.099767 0.434483
Si Si2 0.125128 0.771870 0.261139
Si Si3 0.256941 0.774542 0.371698
Si Si4 0.842078 0.458080 0.777842
Si Si5 0.594344 0.375898 0.449421
Si Si6 0.950564 0.029499 0.876288
O O1 0.069007 0.185057 0.394317
O O2 0.154465 0.147589 0.491673
O O3 0.417801 0.063022 0.407605
O O4 0.030591 0.990203 0.442596
O O5 0.372536 0.828030 0.246427
O O6 0.136479 0.733985 0.319767
O O7 0.137384 0.669705 0.224753
O O8 0.356052 0.888143 0.354358
O O9 0.074061 0.796579 0.418516
O O10 0.616655 0.482862 0.739273
O O11 0.741894 0.495937 0.833309
O O12 0.836361 0.394637 0.418867
#
# Coordination Sequence:
#
# PCOD9460556 Si02
#       6
#     8   8   8   8   8   8
#     4  10  23  47  70 101 144 191 241 311 384 449
#     4  10  23  42  67 102 139 190 242 293 369 442
#     4  11  26  42  71 107 143 187 249 309 375 454
#     4  10  23  42  72 101 144 194 245 305 373 447
#     4  10  25  44  70 103 143 187 249 304 377 457
#     4  11  25  43  72 104 142 192 249 308 374 458
#
# _framework density 26.023415
#
# number of rings (size 3 to 8) (size 9 to 14) (size 15 to 20)
#    0.000    1.667    0.000    2.500   14.000    2.667 
#    0.000    0.000    0.000    0.000    0.000    0.000 
#    0.000    0.000    0.000    0.000    0.000    0.000 
#
# Total GULP energy -268220.895103 kJ/mol
# GULP energy per Si atom -5587.935315 kJ/mol
# Density = 2.596418 g / cm^3
# Si number density = 26.023415 Si / 1000 Ang^3
#
#
#
# Elastic Constant Matrix: (Units=GPa)
#
#
# Indices 1 2 3 4 5 6 
#
# 1 135.4436 31.9946 38.5378 0.0000 0.0000 0.0000
# 2 31.9946 82.7516 24.9540 0.0000 0.0000 0.0000
# 3 38.5378 24.9540 177.9200 0.0000 0.0000 0.0000
# 4 0.0000 0.0000 0.0000 39.7557 0.0000 0.0000
# 5 0.0000 0.0000 0.0000 0.0000 32.0304 0.0000
# 6 0.0000 0.0000 0.0000 0.0000 0.0000 12.5361
#
#
#
# Elastic Compliance Matrix: (Units=1/GPa)
#
#
# Indices 1 2 3 4 5 6 
#
# 1 0.008462 -0.002839 -0.001435 0.000000 0.000000 0.000000
# 2 -0.002839 0.013571 -0.001288 0.000000 0.000000 0.000000
# 3 -0.001435 -0.001288 0.006112 0.000000 0.000000 0.000000
# 4 0.000000 0.000000 0.000000 0.025154 0.000000 0.000000
# 5 0.000000 0.000000 0.000000 0.000000 0.031220 0.000000
# 6 0.000000 0.000000 0.000000 0.000000 0.000000 0.079769
#
#
# Mechanical properties :
#
#
# Convention : Reuss Voigt Hill
#
# Bulk Modulus (GPa) = 58.75359 65.23201 61.99280
# Shear Modulus (GPa) = 27.61127 36.90638 32.25882
#
# Velocity S-wave (km/s) = 3.26086 3.76998 3.52463
# Velocity P-wave (km/s) = 6.06661 6.63863 6.35906
#
# Compressibility (1/GPa) = 0.01702024
#
# Stress axis : x y z
#
# Youngs Moduli (GPa) = 118.17524 73.68900 163.61362
#
# Poissons Ratio (x) = 0.20921 0.23474
# Poissons Ratio (y) = 0.33551 0.21080
# Poissons Ratio (z) = 0.16955 0.09494
#
# Static dielectric constant tensor:
#      x y z
#    x 2.165860 0.000000 0.000000 
#    y 0.000000 2.160860 0.000000 
#    z 0.000000 0.000000 2.015000 
# 
# From -- ./inp_files/11241.got.cif
#   From: 2010.05.17/outbox.cif.g08.bks.cpg/sg61_6_cif.got.tgz:11241.got - 2010.06.03 15:17:17.
