data_PCOD9460022
_publ_section_title
;
Structure prediction by ZEFSAII (Michael W. Deem and Ramdas Pophale) SiO2 
 PCOD9460022
Probable space group: P B C A
;
_chemical_formula_sum "Si O2"
_cell_formula_units_Z 56
_cell_length_a 13.788960
_cell_length_b 16.333984
_cell_length_c 9.883762
_cell_angle_alpha 90.000000
_cell_angle_beta 90.000000
_cell_angle_gamma 90.000000
_cell_volume 2226.106392
_symmetry_space_group_name_H-M "P B C A"
_symmetry_group_IT_number 61
_symmetry_cell_setting 'orthorhombic'
loop_
_space_group_symop_operation_xyz
x,y,z
1/2-x,-y,1/2+z
1/2+x,1/2-y,-z
-x,1/2+y,1/2-z
-x,-y,-z
1/2+x,y,1/2-z
1/2-x,1/2+y,z
x,1/2-y,1/2+z
loop_
_atom_site_type_symbol
_atom_site_label
_atom_site_fract_x
_atom_site_fract_y
_atom_site_fract_z
Si Si1 0.054761 0.866872 0.806953
Si Si2 0.894005 0.413255 0.409113
Si Si3 0.981002 0.314561 0.175385
Si Si4 0.308576 0.863418 0.174243
Si Si5 0.233101 0.172784 0.213064
Si Si6 0.201868 0.902971 0.441446
Si Si7 0.904635 0.954372 0.669517
O O1 0.998438 0.781859 0.835102
O O2 0.160515 0.836007 0.772417
O O3 0.012000 0.918042 0.681867
O O4 0.061272 0.919747 0.943292
O O5 0.949738 0.340611 0.327760
O O6 0.779898 0.391710 0.420604
O O7 0.899184 0.488187 0.304353
O O8 0.884705 0.338319 0.091133
O O9 0.077339 0.367085 0.138864
O O10 0.291316 0.766935 0.196034
O O11 0.278514 0.905742 0.316878
O O12 0.160517 0.124844 0.308976
O O13 0.239772 0.125136 0.071035
O O14 0.142341 0.987902 0.442887
#
# Coordination Sequence:
#
# PCOD9460022 Si02
#       7
#     8   8   8   8   8   8   8
#     4  12  23  42  67  97 129 165 222 265 319 397
#     4  10  24  44  64  97 130 170 213 270 320 388
#     4  10  21  40  67  96 127 169 215 267 326 385
#     4  10  21  41  69  96 127 172 216 262 331 380
#     4  12  24  42  67  97 132 167 218 274 315 390
#     4  10  25  46  62  98 136 167 218 278 317 387
#     4  10  25  43  64  96 126 178 215 255 343 380
#
# _framework density 25.156030999999999
#
# number of rings (size 3 to 8) (size 9 to 14) (size 15 to 20)
#    0.000    1.714    4.286    1.286    4.000    5.143 
#    2.571    0.000    0.000    0.000    0.000    0.000 
#    0.000    0.000    0.000    0.000    0.000    0.000 
#
# Total GULP energy -313221.279281 kJ/mol
# GULP energy per Si atom -5593.237130 kJ/mol
# Density = 2.509878 g / cm^3
# Si number density = 25.156031 Si / 1000 Ang^3
#
#
#
# Elastic Constant Matrix: (Units=GPa)
#
#
# Indices 1 2 3 4 5 6 
#
# 1 88.1849 0.6029 -3.0561 0.0000 0.0000 0.0000
# 2 0.6029 70.4325 -13.9105 0.0000 0.0000 0.0000
# 3 -3.0561 -13.9105 52.7908 0.0000 0.0000 0.0000
# 4 0.0000 0.0000 0.0000 0.5837 0.0000 0.0000
# 5 0.0000 0.0000 0.0000 0.0000 18.3396 0.0000
# 6 0.0000 0.0000 0.0000 0.0000 0.0000 8.1970
#
#
#
# Elastic Compliance Matrix: (Units=1/GPa)
#
#
# Indices 1 2 3 4 5 6 
#
# 1 0.011363 0.000034 0.000667 0.000000 0.000000 0.000000
# 2 0.000034 0.014978 0.003949 0.000000 0.000000 0.000000
# 3 0.000667 0.003949 0.020022 0.000000 0.000000 0.000000
# 4 0.000000 0.000000 0.000000 1.713180 0.000000 0.000000
# 5 0.000000 0.000000 0.000000 0.000000 0.054527 0.000000
# 6 0.000000 0.000000 0.000000 0.000000 0.000000 0.121996
#
#
# Mechanical properties :
#
#
# Convention : Reuss Voigt Hill
#
# Bulk Modulus (GPa) = 17.96564 19.85343 18.90953
# Shear Modulus (GPa) = 2.57027 20.60884 11.58956
#
# Velocity S-wave (km/s) = 1.01190 2.86534 2.14874
# Velocity P-wave (km/s) = 2.91932 4.34237 3.69991
#
# Compressibility (1/GPa) = 0.05566181
#
# Stress axis : x y z
#
# Youngs Moduli (GPa) = 88.00736 66.76661 49.94569
#
# Poissons Ratio (x) = -0.00230 -0.03331
# Poissons Ratio (y) = -0.00303 -0.19722
# Poissons Ratio (z) = -0.05869 -0.26363
#
# Static dielectric constant tensor:
#      x y z
#    x 1.974500 0.000000 0.000000 
#    y 0.000000 1.981770 0.000000 
#    z 0.000000 0.000000 2.009430 
# 
# From -- ./inp_files/5812.got.cif
#   From: 2010.05.17/outbox.cif.g08.bks.cpg/sg61_3_cif.got.tgz:5812.got - 2010.06.03 15:17:17.
