data_PCOD9460455
_publ_section_title
;
Structure prediction by ZEFSAII (Michael W. Deem and Ramdas Pophale) SiO2 
 PCOD9460455
Probable space group: P B C A
;
_chemical_formula_sum "Si O2"
_cell_formula_units_Z 60
_cell_length_a 21.936771
_cell_length_b 24.548217
_cell_length_c 4.914009
_cell_angle_alpha 90.000000
_cell_angle_beta 90.000000
_cell_angle_gamma 90.000000
_cell_volume 2646.236180
_symmetry_space_group_name_H-M "P B C A"
_symmetry_group_IT_number 61
_symmetry_cell_setting 'orthorhombic'
loop_
_space_group_symop_operation_xyz
x,y,z
1/2-x,-y,1/2+z
1/2+x,1/2-y,-z
-x,1/2+y,1/2-z
-x,-y,-z
1/2+x,y,1/2-z
1/2-x,1/2+y,z
x,1/2-y,1/2+z
loop_
_atom_site_type_symbol
_atom_site_label
_atom_site_fract_x
_atom_site_fract_y
_atom_site_fract_z
Si Si1 0.015279 0.612978 0.732133
Si Si2 0.000000 0.000000 0.500000
Si Si3 0.904037 0.910783 0.860089
Si Si4 0.733091 0.788287 0.295678
Si Si5 0.322998 0.615240 0.627284
Si Si6 0.404320 0.287689 0.250195
Si Si7 0.404919 0.025960 0.474540
Si Si8 0.265931 0.468862 0.831031
O O1 0.042724 0.670097 0.821396
O O2 0.071667 0.581760 0.593959
O O3 0.961741 0.615906 0.508849
O O4 0.998160 0.568797 0.959047
O O5 0.048917 0.993561 0.746843
O O6 0.854322 0.911121 0.107593
O O7 0.912624 0.976664 0.802102
O O8 0.876186 0.879809 0.601357
O O9 0.737987 0.763356 0.596332
O O10 0.786792 0.831849 0.271251
O O11 0.665063 0.810968 0.232362
O O12 0.273625 0.579039 0.462544
O O13 0.409182 0.235728 0.447008
O O14 0.337171 0.035172 0.379021
O O15 0.255545 0.479603 0.513894
#
# Coordination Sequence:
#
# PCOD9460455 Si02
#       8
#     8   4   8   8   8   8   8   8
#     4  11  26  42  69 102 134 192 235 289 350 428
#     4  10  24  40  68  98 138 184 234 282 344 434
#     4  11  25  40  66  94 142 174 220 270 343 410
#     4  10  22  44  72  96 126 171 231 284 340 405
#     4  12  23  44  62  97 133 179 211 283 338 403
#     4  10  24  47  72 100 134 173 232 302 348 404
#     4  11  24  41  65  97 138 186 225 280 339 419
#     4  12  24  39  62  93 134 171 216 269 331 410
#
# _framework density 22.673715000000001
#
# number of rings (size 3 to 8) (size 9 to 14) (size 15 to 20)
#    0.000    1.067    2.667    3.200   11.200    0.000 
#    4.800    4.000    0.000    0.000    0.000    0.000 
#    0.000    0.000    0.000    0.000    0.000    0.000 
#
# Total GULP energy -334700.545366 kJ/mol
# GULP energy per Si atom -5578.342423 kJ/mol
# Density = 2.262211 g / cm^3
# Si number density = 22.673715 Si / 1000 Ang^3
#
#
#
# Elastic Constant Matrix: (Units=GPa)
#
#
# Indices 1 2 3 4 5 6 
#
# 1 99.1470 21.9194 -11.3551 0.0000 0.0000 0.0000
# 2 21.9194 48.4389 -16.5419 0.0000 0.0000 0.0000
# 3 -11.3551 -16.5419 60.8846 0.0000 0.0000 0.0000
# 4 0.0000 0.0000 0.0000 24.1608 0.0000 0.0000
# 5 0.0000 0.0000 0.0000 0.0000 3.9735 0.0000
# 6 0.0000 0.0000 0.0000 0.0000 0.0000 34.6748
#
#
#
# Elastic Compliance Matrix: (Units=1/GPa)
#
#
# Indices 1 2 3 4 5 6 
#
# 1 0.011241 -0.004818 0.000788 0.000000 0.000000 0.000000
# 2 -0.004818 0.024821 0.005845 0.000000 0.000000 0.000000
# 3 0.000788 0.005845 0.018159 0.000000 0.000000 0.000000
# 4 0.000000 0.000000 0.000000 0.041389 0.000000 0.000000
# 5 0.000000 0.000000 0.000000 0.000000 0.251667 0.000000
# 6 0.000000 0.000000 0.000000 0.000000 0.000000 0.028839
#
#
# Mechanical properties :
#
#
# Convention : Reuss Voigt Hill
#
# Bulk Modulus (GPa) = 17.28579 21.83503 19.56041
# Shear Modulus (GPa) = 12.76254 26.85835 19.81045
#
# Velocity S-wave (km/s) = 2.37508 3.44548 2.95908
# Velocity P-wave (km/s) = 3.89379 5.04771 4.50783
#
# Compressibility (1/GPa) = 0.05785100
#
# Stress axis : x y z
#
# Youngs Moduli (GPa) = 88.95704 40.28873 55.06772
#
# Poissons Ratio (x) = 0.19411 -0.04337
# Poissons Ratio (y) = 0.42859 -0.32188
# Poissons Ratio (z) = -0.07006 -0.23549
#
# Static dielectric constant tensor:
#      x y z
#    x 1.776000 0.000000 0.000000 
#    y 0.000000 1.820080 0.000000 
#    z 0.000000 0.000000 1.820090 
# 
# From -- ./inp_files/1072.got.cif
#   From: 2010.05.17/outbox.cif.g08.bks.cpg/sg61_1_cif.got.tgz:1072.got - 2010.06.03 15:17:17.
