data_PCOD9460857
_publ_section_title
;
Structure prediction by ZEFSAII (Michael W. Deem and Ramdas Pophale) SiO2 
 PCOD9460857
Probable space group: P B C A
;
_chemical_formula_sum "Si O2"
_cell_formula_units_Z 32
_cell_length_a 13.043745
_cell_length_b 8.583864
_cell_length_c 11.802085
_cell_angle_alpha 90.000000
_cell_angle_beta 90.000000
_cell_angle_gamma 90.000000
_cell_volume 1321.429099
_symmetry_space_group_name_H-M "P B C A"
_symmetry_group_IT_number 61
_symmetry_cell_setting 'orthorhombic'
loop_
_space_group_symop_operation_xyz
x,y,z
1/2-x,-y,1/2+z
1/2+x,1/2-y,-z
-x,1/2+y,1/2-z
-x,-y,-z
1/2+x,y,1/2-z
1/2-x,1/2+y,z
x,1/2-y,1/2+z
loop_
_atom_site_type_symbol
_atom_site_label
_atom_site_fract_x
_atom_site_fract_y
_atom_site_fract_z
Si Si1 0.618798 0.534854 0.489790
Si Si2 0.650984 0.254190 0.649886
Si Si3 0.739759 0.512021 0.785118
Si Si4 0.560282 0.856038 0.438594
O O1 0.500000 0.500000 0.500000
O O2 0.668126 0.383117 0.551804
O O3 0.663763 0.523549 0.364105
O O4 0.611233 0.721348 0.518573
O O5 0.682146 0.351810 0.759001
O O6 0.719263 0.100559 0.672097
O O7 0.532366 0.211934 0.637587
O O8 0.652919 0.598435 0.856816
O O9 0.500000 0.000000 0.500000
#
# Coordination Sequence:
#
# PCOD9460857 Si02
#       4
#     8   8   8   8
#     4  10  26  51  75 116 161 202 265 327 400 476
#     4  11  29  46  80 111 158 208 268 325 397 482
#     4  12  27  49  79 116 156 210 268 328 405 471
#     4  11  28  50  81 113 161 205 266 334 405 474
#
# _framework density 24.216204999999999
#
# number of rings (size 3 to 8) (size 9 to 14) (size 15 to 20)
#    0.000    1.000    2.500    0.000   21.000    0.000 
#    0.000    0.000    0.000    0.000    0.000    0.000 
#    0.000    0.000    0.000    0.000    0.000    0.000 
#
# Total GULP energy -178155.005592 kJ/mol
# GULP energy per Si atom -5567.343925 kJ/mol
# Density = 2.416109 g / cm^3
# Si number density = 24.216205 Si / 1000 Ang^3
#
#
#
# Elastic Constant Matrix: (Units=GPa)
#
#
# Indices 1 2 3 4 5 6 
#
# 1 162.9943 66.8548 56.3080 0.0000 0.0000 0.0000
# 2 66.8548 111.4902 17.8815 0.0000 0.0000 0.0000
# 3 56.3080 17.8815 43.3795 0.0000 0.0000 0.0000
# 4 0.0000 0.0000 0.0000 39.4658 0.0000 0.0000
# 5 0.0000 0.0000 0.0000 0.0000 49.0887 0.0000
# 6 0.0000 0.0000 0.0000 0.0000 0.0000 57.8119
#
#
#
# Elastic Compliance Matrix: (Units=1/GPa)
#
#
# Indices 1 2 3 4 5 6 
#
# 1 0.013965 -0.005854 -0.015714 0.000000 0.000000 0.000000
# 2 -0.005854 0.012058 0.002628 0.000000 0.000000 0.000000
# 3 -0.015714 0.002628 0.042366 0.000000 0.000000 0.000000
# 4 0.000000 0.000000 0.000000 0.025338 0.000000 0.000000
# 5 0.000000 0.000000 0.000000 0.000000 0.020371 0.000000
# 6 0.000000 0.000000 0.000000 0.000000 0.000000 0.017297
#
#
# Mechanical properties :
#
#
# Convention : Reuss Voigt Hill
#
# Bulk Modulus (GPa) = 32.77652 66.66139 49.71895
# Shear Modulus (GPa) = 27.86380 41.06125 34.46253
#
# Velocity S-wave (km/s) = 3.39577 4.12225 3.77652
# Velocity P-wave (km/s) = 5.37953 7.08834 6.29221
#
# Compressibility (1/GPa) = 0.03050965
#
# Stress axis : x y z
#
# Youngs Moduli (GPa) = 71.61011 82.93233 23.60389
#
# Poissons Ratio (x) = 0.48545 0.37090
# Poissons Ratio (y) = 0.41917 -0.06202
# Poissons Ratio (z) = 1.12525 -0.21792
#
# Static dielectric constant tensor:
#      x y z
#    x 0.509100 0.000000 0.000000 
#    y 0.000000 2.077160 0.000000 
#    z 0.000000 0.000000 1.980650 
# 
# From -- ./inp_files/2032.got.cif
#   From: 2010.05.17/outbox.cif.g08.bks.cpg/sg61_2_cif.got.tgz:2032.got - 2010.06.03 15:17:17.
