data_PCOD9460892
_publ_section_title
;
Structure prediction by ZEFSAII (Michael W. Deem and Ramdas Pophale) SiO2 
 PCOD9460892
Probable space group: P B C A
;
_chemical_formula_sum "Si O2"
_cell_formula_units_Z 40
_cell_length_a 25.001017
_cell_length_b 15.733830
_cell_length_c 4.985541
_cell_angle_alpha 90.000000
_cell_angle_beta 90.000000
_cell_angle_gamma 90.000000
_cell_volume 1961.121139
_symmetry_space_group_name_H-M "P B C A"
_symmetry_group_IT_number 61
_symmetry_cell_setting 'orthorhombic'
loop_
_space_group_symop_operation_xyz
x,y,z
1/2-x,-y,1/2+z
1/2+x,1/2-y,-z
-x,1/2+y,1/2-z
-x,-y,-z
1/2+x,y,1/2-z
1/2-x,1/2+y,z
x,1/2-y,1/2+z
loop_
_atom_site_type_symbol
_atom_site_label
_atom_site_fract_x
_atom_site_fract_y
_atom_site_fract_z
Si Si1 0.466259 0.968720 0.249543
Si Si2 0.684106 0.406915 0.951864
Si Si3 0.919837 0.698426 0.554546
Si Si4 0.294714 0.309293 0.623194
Si Si5 0.653795 0.986942 0.919540
O O1 0.405919 0.001878 0.198944
O O2 0.500000 0.000000 0.500000
O O3 0.459084 0.869561 0.314691
O O4 0.500000 0.000000 0.000000
O O5 0.735973 0.351633 0.890837
O O6 0.662365 0.458696 0.692199
O O7 0.639144 0.342571 0.066265
O O8 0.693138 0.473996 0.192198
O O9 0.925998 0.719595 0.242241
O O10 0.301465 0.232863 0.412863
O O11 0.333471 0.387729 0.552215
#
# Coordination Sequence:
#
# PCOD9460892 Si02
#       5
#     8   8   8   8   8
#     4  11  23  42  64  86 119 164 208 251 307 368
#     4  11  21  39  64  90 123 161 199 246 306 370
#     4  11  21  37  61  93 118 145 196 261 307 344
#     4  12  24  39  60  93 129 163 198 244 299 367
#     4  11  23  41  63  88 121 165 208 248 300 371
#
# _framework density 20.396495999999999
#
# number of rings (size 3 to 8) (size 9 to 14) (size 15 to 20)
#    0.000    0.800    0.000   10.800    0.000    0.000 
#    0.000    6.000    0.000    0.000    0.000    0.000 
#    0.000    0.000    0.000    0.000    0.000    0.000 
#
# Total GULP energy -223428.770711 kJ/mol
# GULP energy per Si atom -5585.719268 kJ/mol
# Density = 2.035007 g / cm^3
# Si number density = 20.396496 Si / 1000 Ang^3
#
#
#
# Elastic Constant Matrix: (Units=GPa)
#
#
# Indices 1 2 3 4 5 6 
#
# 1 55.5914 25.1761 14.6615 0.0000 0.0000 0.0000
# 2 25.1761 81.5625 18.1405 0.0000 0.0000 0.0000
# 3 14.6615 18.1405 120.1547 0.0000 0.0000 0.0000
# 4 0.0000 0.0000 0.0000 55.2704 0.0000 0.0000
# 5 0.0000 0.0000 0.0000 0.0000 26.1642 0.0000
# 6 0.0000 0.0000 0.0000 0.0000 0.0000 29.6474
#
#
#
# Elastic Compliance Matrix: (Units=1/GPa)
#
#
# Indices 1 2 3 4 5 6 
#
# 1 0.021226 -0.006183 -0.001656 0.000000 0.000000 0.000000
# 2 -0.006183 0.014488 -0.001433 0.000000 0.000000 0.000000
# 3 -0.001656 -0.001433 0.008741 0.000000 0.000000 0.000000
# 4 0.000000 0.000000 0.000000 0.018093 0.000000 0.000000
# 5 0.000000 0.000000 0.000000 0.000000 0.038220 0.000000
# 6 0.000000 0.000000 0.000000 0.000000 0.000000 0.033730
#
#
# Mechanical properties :
#
#
# Convention : Reuss Voigt Hill
#
# Bulk Modulus (GPa) = 38.59626 41.47387 40.03507
# Shear Modulus (GPa) = 30.92551 35.50510 33.21530
#
# Velocity S-wave (km/s) = 3.89809 4.17675 4.03982
# Velocity P-wave (km/s) = 6.26292 6.60593 6.43671
#
# Compressibility (1/GPa) = 0.02590925
#
# Stress axis : x y z
#
# Youngs Moduli (GPa) = 47.11303 69.02339 114.40279
#
# Poissons Ratio (x) = 0.42679 0.18950
# Poissons Ratio (y) = 0.29132 0.16392
# Poissons Ratio (z) = 0.07804 0.09890
#
# Static dielectric constant tensor:
#      x y z
#    x 1.903010 0.000000 0.000000 
#    y 0.000000 1.702260 0.000000 
#    z 0.000000 0.000000 1.727610 
# 
# From -- ./inp_files/1160.got.cif
#   From: 2010.05.17/outbox.cif.g08.bks.cpg/sg61_1_cif.got.tgz:1160.got - 2010.06.03 15:17:17.
