data_PCOD9460391
_publ_section_title
;
Structure prediction by ZEFSAII (Michael W. Deem and Ramdas Pophale) SiO2 
 PCOD9460391
Probable space group: P B C A
;
_chemical_formula_sum "Si O2"
_cell_formula_units_Z 40
_cell_length_a 15.816690
_cell_length_b 6.338631
_cell_length_c 15.408712
_cell_angle_alpha 90.000000
_cell_angle_beta 90.000000
_cell_angle_gamma 90.000000
_cell_volume 1544.818320
_symmetry_space_group_name_H-M "P B C A"
_symmetry_group_IT_number 61
_symmetry_cell_setting 'orthorhombic'
loop_
_space_group_symop_operation_xyz
x,y,z
1/2-x,-y,1/2+z
1/2+x,1/2-y,-z
-x,1/2+y,1/2-z
-x,-y,-z
1/2+x,y,1/2-z
1/2-x,1/2+y,z
x,1/2-y,1/2+z
loop_
_atom_site_type_symbol
_atom_site_label
_atom_site_fract_x
_atom_site_fract_y
_atom_site_fract_z
Si Si1 0.612901 0.466579 0.757908
Si Si2 0.587338 0.791773 0.092079
Si Si3 0.750228 0.466715 0.907543
Si Si4 0.449601 0.614814 0.849522
Si Si5 0.924252 0.466833 0.913812
O O1 0.627941 0.638425 0.682337
O O2 0.672895 0.474935 0.840066
O O3 0.513962 0.495147 0.784756
O O4 0.615853 0.249576 0.705024
O O5 0.595342 0.542760 0.084295
O O6 0.485754 0.836871 0.094656
O O7 0.612982 0.933232 0.010604
O O8 0.753439 0.716876 0.945107
O O9 0.840722 0.462604 0.858061
O O10 0.513122 0.773552 0.897324
#
# Coordination Sequence:
#
# PCOD9460391 Si02
#       5
#     8   8   8   8   8
#     4  11  23  37  68 103 137 183 241 297 357 428
#     4  10  22  42  71 104 136 181 250 305 355 437
#     4  12  27  45  70  99 145 195 236 289 371 435
#     4  11  20  39  69 101 135 181 242 303 351 429
#     4  10  23  43  68 102 139 190 242 299 371 437
#
# _framework density 25.89301
#
# number of rings (size 3 to 8) (size 9 to 14) (size 15 to 20)
#    0.000    1.200    4.000    1.800    5.600    0.000 
#    0.000    2.000    0.000    0.000    0.000    0.000 
#    0.000    0.000    0.000    0.000    0.000    0.000 
#
# Total GULP energy -222974.788263 kJ/mol
# GULP energy per Si atom -5574.369707 kJ/mol
# Density = 2.583408 g / cm^3
# Si number density = 25.893010 Si / 1000 Ang^3
#
#
#
# Elastic Constant Matrix: (Units=GPa)
#
#
# Indices 1 2 3 4 5 6 
#
# 1 58.5396 14.1076 -17.2865 0.0000 0.0000 0.0000
# 2 14.1076 150.7662 10.7011 0.0000 0.0000 0.0000
# 3 -17.2865 10.7011 39.5979 0.0000 0.0000 0.0000
# 4 0.0000 0.0000 0.0000 45.9670 0.0000 0.0000
# 5 0.0000 0.0000 0.0000 0.0000 9.8849 0.0000
# 6 0.0000 0.0000 0.0000 0.0000 0.0000 31.2696
#
#
#
# Elastic Compliance Matrix: (Units=1/GPa)
#
#
# Indices 1 2 3 4 5 6 
#
# 1 0.020573 -0.002613 0.009687 0.000000 0.000000 0.000000
# 2 -0.002613 0.007094 -0.003058 0.000000 0.000000 0.000000
# 3 0.009687 -0.003058 0.030309 0.000000 0.000000 0.000000
# 4 0.000000 0.000000 0.000000 0.021755 0.000000 0.000000
# 5 0.000000 0.000000 0.000000 0.000000 0.101165 0.000000
# 6 0.000000 0.000000 0.000000 0.000000 0.000000 0.031980
#
#
# Mechanical properties :
#
#
# Convention : Reuss Voigt Hill
#
# Bulk Modulus (GPa) = 15.14937 29.32758 22.23847
# Shear Modulus (GPa) = 22.04150 33.51641 27.77895
#
# Velocity S-wave (km/s) = 2.92079 3.60171 3.27897
# Velocity P-wave (km/s) = 4.15188 5.35233 4.78986
#
# Compressibility (1/GPa) = 0.06600934
#
# Stress axis : x y z
#
# Youngs Moduli (GPa) = 48.60836 140.95858 32.99345
#
# Poissons Ratio (x) = 0.36827 -0.31961
# Poissons Ratio (y) = 0.12699 0.10088
# Poissons Ratio (z) = -0.47087 0.43101
#
# Static dielectric constant tensor:
#      x y z
#    x 2.260370 0.000000 0.000000 
#    y 0.000000 2.194170 0.000000 
#    z 0.000000 0.000000 2.155400 
# 
# From -- ./inp_files/9606.got.cif
#   From: 2010.05.17/outbox.cif.g08.bks.cpg/sg61_5_cif.got.tgz:9606.got - 2010.06.03 15:17:17.
