data_PCOD9460769
_publ_section_title
;
Structure prediction by ZEFSAII (Michael W. Deem and Ramdas Pophale) SiO2 
 PCOD9460769
Probable space group: P B C A
;
_chemical_formula_sum "Si O2"
_cell_formula_units_Z 48
_cell_length_a 13.332143
_cell_length_b 16.283861
_cell_length_c 9.767861
_cell_angle_alpha 90.000000
_cell_angle_beta 90.000000
_cell_angle_gamma 90.000000
_cell_volume 2120.590545
_symmetry_space_group_name_H-M "P B C A"
_symmetry_group_IT_number 61
_symmetry_cell_setting 'orthorhombic'
loop_
_space_group_symop_operation_xyz
x,y,z
1/2-x,-y,1/2+z
1/2+x,1/2-y,-z
-x,1/2+y,1/2-z
-x,-y,-z
1/2+x,y,1/2-z
1/2-x,1/2+y,z
x,1/2-y,1/2+z
loop_
_atom_site_type_symbol
_atom_site_label
_atom_site_fract_x
_atom_site_fract_y
_atom_site_fract_z
Si Si1 0.497309 0.971669 0.217947
Si Si2 0.855247 0.932026 0.888884
Si Si3 0.300486 0.693299 0.333574
Si Si4 0.678519 0.734660 0.909427
Si Si5 0.456475 0.675590 0.883424
Si Si6 0.857748 0.425735 0.969915
O O1 0.438629 0.890548 0.263900
O O2 0.559251 0.004470 0.348008
O O3 0.422094 0.039288 0.157268
O O4 0.578466 0.949315 0.102377
O O5 0.816638 0.890572 0.747875
O O6 0.754807 0.962360 0.964171
O O7 0.904633 0.861067 0.981467
O O8 0.233265 0.751377 0.235076
O O9 0.248052 0.689952 0.479917
O O10 0.406536 0.737769 0.350888
O O11 0.574427 0.687955 0.896982
O O12 0.656192 0.827699 0.960919
#
# Coordination Sequence:
#
# PCOD9460769 Si02
#       6
#     8   8   8   8   8   8
#     4  11  26  43  70  97 141 184 220 288 346 420
#     4  11  26  43  67 100 138 175 232 277 345 412
#     4  11  24  45  68 103 135 180 228 293 337 406
#     4  11  25  43  74  99 138 174 232 289 338 403
#     4  12  26  42  72 100 134 180 237 274 356 409
#     4  10  24  46  67 100 137 180 229 283 347 410
#
# _framework density 22.635204000000002
#
# number of rings (size 3 to 8) (size 9 to 14) (size 15 to 20)
#    0.000    1.000    3.333    2.500   11.667    4.000 
#    0.000    0.000    0.000    0.000    0.000    0.000 
#    0.000    0.000    0.000    0.000    0.000    0.000 
#
# Total GULP energy -268692.203448 kJ/mol
# GULP energy per Si atom -5597.754238 kJ/mol
# Density = 2.258369 g / cm^3
# Si number density = 22.635204 Si / 1000 Ang^3
#
#
#
# Elastic Constant Matrix: (Units=GPa)
#
#
# Indices 1 2 3 4 5 6 
#
# 1 52.6675 -2.3072 -5.5471 0.0000 0.0000 0.0000
# 2 -2.3072 30.1955 -2.3584 0.0000 0.0000 0.0000
# 3 -5.5471 -2.3584 45.4574 0.0000 0.0000 0.0000
# 4 0.0000 0.0000 0.0000 21.7063 0.0000 0.0000
# 5 0.0000 0.0000 0.0000 0.0000 24.6992 0.0000
# 6 0.0000 0.0000 0.0000 0.0000 0.0000 9.9685
#
#
#
# Elastic Compliance Matrix: (Units=1/GPa)
#
#
# Indices 1 2 3 4 5 6 
#
# 1 0.019317 0.001667 0.002444 0.000000 0.000000 0.000000
# 2 0.001667 0.033396 0.001936 0.000000 0.000000 0.000000
# 3 0.002444 0.001936 0.022397 0.000000 0.000000 0.000000
# 4 0.000000 0.000000 0.000000 0.046069 0.000000 0.000000
# 5 0.000000 0.000000 0.000000 0.000000 0.040487 0.000000
# 6 0.000000 0.000000 0.000000 0.000000 0.000000 0.100316
#
#
# Mechanical properties :
#
#
# Convention : Reuss Voigt Hill
#
# Bulk Modulus (GPa) = 11.46734 11.98834 11.72784
# Shear Modulus (GPa) = 17.92386 20.51037 19.21711
#
# Velocity S-wave (km/s) = 2.81705 3.01346 2.91691
# Velocity P-wave (km/s) = 3.95704 4.17322 4.06657
#
# Compressibility (1/GPa) = 0.08720422
#
# Stress axis : x y z
#
# Youngs Moduli (GPa) = 51.76671 29.94364 44.64833
#
# Poissons Ratio (x) = -0.04991 -0.10911
# Poissons Ratio (y) = -0.08629 -0.08644
# Poissons Ratio (z) = -0.12650 -0.05797
#
# Static dielectric constant tensor:
#      x y z
#    x 1.815880 0.000000 0.000000 
#    y 0.000000 1.810640 0.000000 
#    z 0.000000 0.000000 1.825080 
# 
# From -- ./inp_files/2842.got.cif
#   From: 2010.05.17/outbox.cif.g08.bks.cpg/sg61_2_cif.got.tgz:2842.got - 2010.06.03 15:17:17.
