data_PCOD9460289
_publ_section_title
;
Structure prediction by ZEFSAII (Michael W. Deem and Ramdas Pophale) SiO2 
 PCOD9460289
Probable space group: P B C A
;
_chemical_formula_sum "Si O2"
_cell_formula_units_Z 48
_cell_length_a 13.390298
_cell_length_b 13.278965
_cell_length_c 11.369391
_cell_angle_alpha 90.000000
_cell_angle_beta 90.000000
_cell_angle_gamma 90.000000
_cell_volume 2021.583438
_symmetry_space_group_name_H-M "P B C A"
_symmetry_group_IT_number 61
_symmetry_cell_setting 'orthorhombic'
loop_
_space_group_symop_operation_xyz
x,y,z
1/2-x,-y,1/2+z
1/2+x,1/2-y,-z
-x,1/2+y,1/2-z
-x,-y,-z
1/2+x,y,1/2-z
1/2-x,1/2+y,z
x,1/2-y,1/2+z
loop_
_atom_site_type_symbol
_atom_site_label
_atom_site_fract_x
_atom_site_fract_y
_atom_site_fract_z
Si Si1 0.529051 0.652958 0.876602
Si Si2 0.492276 0.973444 0.792513
Si Si3 0.867626 0.427216 0.591590
Si Si4 0.193986 0.351789 0.381950
Si Si5 0.853435 0.360144 0.920756
Si Si6 0.702954 0.344185 0.718602
O O1 0.519224 0.588540 0.755116
O O2 0.418431 0.672851 0.932113
O O3 0.589308 0.757516 0.881445
O O4 0.588714 0.577361 0.962508
O O5 0.543492 0.912251 0.683511
O O6 0.567517 0.950271 0.900180
O O7 0.389710 0.914371 0.809118
O O8 0.820531 0.530639 0.637189
O O9 0.778080 0.350702 0.608340
O O10 0.296096 0.349186 0.456440
O O11 0.190333 0.276189 0.271831
O O12 0.762108 0.380199 0.831933
#
# Coordination Sequence:
#
# PCOD9460289 Si02
#       6
#     8   8   8   8   8   8
#     4  11  21  42  69  93 130 181 217 275 347 390
#     4  10  22  41  63  93 130 171 221 269 329 400
#     4  10  22  40  66  90 128 175 219 275 333 401
#     4  11  22  42  65  94 129 171 223 266 336 394
#     4  11  23  40  65  97 130 169 222 271 327 400
#     4  11  22  39  63  94 131 170 221 275 322 402
#
# _framework density 23.743763000000001
#
# number of rings (size 3 to 8) (size 9 to 14) (size 15 to 20)
#    0.000    1.333    3.333    4.000    2.333    0.000 
#    3.000    0.833    0.000    0.000    0.000    0.000 
#    0.000    0.000    0.000    0.000    0.000    0.000 
#
# Total GULP energy -267411.161659 kJ/mol
# GULP energy per Si atom -5571.065868 kJ/mol
# Density = 2.368972 g / cm^3
# Si number density = 23.743763 Si / 1000 Ang^3
#
#
#
# Elastic Constant Matrix: (Units=GPa)
#
#
# Indices 1 2 3 4 5 6 
#
# 1 108.7975 4.3155 33.0333 0.0000 0.0000 0.0000
# 2 4.3155 38.7931 8.0955 0.0000 0.0000 0.0000
# 3 33.0333 8.0955 20.6481 0.0000 0.0000 0.0000
# 4 0.0000 0.0000 0.0000 15.0312 0.0000 0.0000
# 5 0.0000 0.0000 0.0000 0.0000 30.0648 0.0000
# 6 0.0000 0.0000 0.0000 0.0000 0.0000 15.7330
#
#
#
# Elastic Compliance Matrix: (Units=1/GPa)
#
#
# Indices 1 2 3 4 5 6 
#
# 1 0.018568 0.004502 -0.031471 0.000000 0.000000 0.000000
# 2 0.004502 0.029166 -0.018637 0.000000 0.000000 0.000000
# 3 -0.031471 -0.018637 0.106085 0.000000 0.000000 0.000000
# 4 0.000000 0.000000 0.000000 0.066528 0.000000 0.000000
# 5 0.000000 0.000000 0.000000 0.000000 0.033261 0.000000
# 6 0.000000 0.000000 0.000000 0.000000 0.000000 0.063561
#
#
# Mechanical properties :
#
#
# Convention : Reuss Voigt Hill
#
# Bulk Modulus (GPa) = 15.97259 28.79192 22.38226
# Shear Modulus (GPa) = 11.64818 20.35209 16.00013
#
# Velocity S-wave (km/s) = 2.21730 2.93090 2.59871
# Velocity P-wave (km/s) = 3.64649 4.85860 4.29551
#
# Compressibility (1/GPa) = 0.06260723
#
# Stress axis : x y z
#
# Youngs Moduli (GPa) = 53.85616 34.28607 9.42638
#
# Poissons Ratio (x) = -0.15435 0.29665
# Poissons Ratio (y) = -0.24245 0.17568
# Poissons Ratio (z) = 1.69488 0.63901
#
# Static dielectric constant tensor:
#      x y z
#    x 1.980000 0.000000 0.000000 
#    y 0.000000 2.004430 0.000000 
#    z 0.000000 0.000000 1.906930 
# 
# From -- ./inp_files/5728.got.cif
#   From: 2010.05.17/outbox.cif.g08.bks.cpg/sg61_3_cif.got.tgz:5728.got - 2010.06.03 15:17:17.
