data_PCOD9460450
_publ_section_title
;
Structure prediction by ZEFSAII (Michael W. Deem and Ramdas Pophale) SiO2 
 PCOD9460450
Probable space group: P B C A
;
_chemical_formula_sum "Si O2"
_cell_formula_units_Z 36
_cell_length_a 13.374732
_cell_length_b 12.586376
_cell_length_c 8.078753
_cell_angle_alpha 90.000000
_cell_angle_beta 90.000000
_cell_angle_gamma 90.000000
_cell_volume 1359.972480
_symmetry_space_group_name_H-M "P B C A"
_symmetry_group_IT_number 61
_symmetry_cell_setting 'orthorhombic'
loop_
_space_group_symop_operation_xyz
x,y,z
1/2-x,-y,1/2+z
1/2+x,1/2-y,-z
-x,1/2+y,1/2-z
-x,-y,-z
1/2+x,y,1/2-z
1/2-x,1/2+y,z
x,1/2-y,1/2+z
loop_
_atom_site_type_symbol
_atom_site_label
_atom_site_fract_x
_atom_site_fract_y
_atom_site_fract_z
Si Si1 0.137525 0.382794 0.546573
Si Si2 0.376937 0.155531 0.050246
Si Si3 0.000000 0.500000 0.000000
Si Si4 0.866634 0.654764 0.825144
Si Si5 0.371873 0.115425 0.677227
O O1 0.259901 0.369276 0.558349
O O2 0.106045 0.277168 0.642801
O O3 0.099328 0.373504 0.359052
O O4 0.887186 0.499656 0.395174
O O5 0.445027 0.075531 0.150180
O O6 0.413886 0.112770 0.867202
O O7 0.400255 0.277548 0.080033
O O8 0.093729 0.414072 0.022740
O O9 0.747514 0.635743 0.812737
#
# Coordination Sequence:
#
# PCOD9460450 Si02
#       5
#     8   8   4   8   8
#     4  10  22  44  70  98 127 186 229 267 324 426
#     4  10  24  40  71  97 137 172 228 276 342 387
#     4  12  24  44  64 104 138 172 208 306 330 392
#     4  10  24  40  71  97 137 172 228 276 342 387
#     4  10  22  44  70  98 127 186 229 267 324 426
#
# _framework density 26.471125000000001
#
# number of rings (size 3 to 8) (size 9 to 14) (size 15 to 20)
#    0.000    1.778    2.222    0.000    6.222    5.333 
#    0.000    2.222    0.000    0.000    0.000    0.000 
#    0.000    0.000    0.000    0.000    0.000    0.000 
#
# Total GULP energy -200717.709955 kJ/mol
# GULP energy per Si atom -5575.491943 kJ/mol
# Density = 2.641088 g / cm^3
# Si number density = 26.471125 Si / 1000 Ang^3
#
#
#
# Elastic Constant Matrix: (Units=GPa)
#
#
# Indices 1 2 3 4 5 6 
#
# 1 98.3301 1.2227 0.6911 0.0000 0.0000 0.0000
# 2 1.2227 292.8344 86.7000 0.0000 0.0000 0.0000
# 3 0.6911 86.7000 101.8638 0.0000 0.0000 0.0000
# 4 0.0000 0.0000 0.0000 53.9727 0.0000 0.0000
# 5 0.0000 0.0000 0.0000 0.0000 23.3072 0.0000
# 6 0.0000 0.0000 0.0000 0.0000 0.0000 43.6843
#
#
#
# Elastic Compliance Matrix: (Units=1/GPa)
#
#
# Indices 1 2 3 4 5 6 
#
# 1 0.010171 -0.000029 -0.000044 0.000000 0.000000 0.000000
# 2 -0.000029 0.004565 -0.003886 0.000000 0.000000 0.000000
# 3 -0.000044 -0.003886 0.013125 0.000000 0.000000 0.000000
# 4 0.000000 0.000000 0.000000 0.018528 0.000000 0.000000
# 5 0.000000 0.000000 0.000000 0.000000 0.042905 0.000000
# 6 0.000000 0.000000 0.000000 0.000000 0.000000 0.022892
#
#
# Mechanical properties :
#
#
# Convention : Reuss Voigt Hill
#
# Bulk Modulus (GPa) = 50.14428 74.47289 62.30859
# Shear Modulus (GPa) = 39.44754 51.15380 45.30067
#
# Velocity S-wave (km/s) = 3.86451 4.40072 4.14130
# Velocity P-wave (km/s) = 6.23673 7.34959 6.81591
#
# Compressibility (1/GPa) = 0.01994245
#
# Stress axis : x y z
#
# Youngs Moduli (GPa) = 98.32353 219.03684 76.19331
#
# Poissons Ratio (x) = 0.00645 0.00335
# Poissons Ratio (y) = 0.00290 0.29606
# Poissons Ratio (z) = 0.00432 0.85109
#
# Static dielectric constant tensor:
#      x y z
#    x 1.591260 0.000000 0.000000 
#    y 0.000000 1.654250 0.000000 
#    z 0.000000 0.000000 1.470870 
# 
# From -- ./inp_files/2093.got.cif
#   From: 2010.05.17/outbox.cif.g08.bks.cpg/sg61_2_cif.got.tgz:2093.got - 2010.06.03 15:17:17.
