data_PCOD9460973
_publ_section_title
;
Structure prediction by ZEFSAII (Michael W. Deem and Ramdas Pophale) SiO2 
 PCOD9460973
Probable space group: P B C A
;
_chemical_formula_sum "Si O2"
_cell_formula_units_Z 64
_cell_length_a 12.180026
_cell_length_b 13.785411
_cell_length_c 18.092383
_cell_angle_alpha 90.000000
_cell_angle_beta 90.000000
_cell_angle_gamma 90.000000
_cell_volume 3037.831681
_symmetry_space_group_name_H-M "P B C A"
_symmetry_group_IT_number 61
_symmetry_cell_setting 'orthorhombic'
loop_
_space_group_symop_operation_xyz
x,y,z
1/2-x,-y,1/2+z
1/2+x,1/2-y,-z
-x,1/2+y,1/2-z
-x,-y,-z
1/2+x,y,1/2-z
1/2-x,1/2+y,z
x,1/2-y,1/2+z
loop_
_atom_site_type_symbol
_atom_site_label
_atom_site_fract_x
_atom_site_fract_y
_atom_site_fract_z
Si Si1 0.764958 0.678165 0.583153
Si Si2 0.450245 0.357732 0.336393
Si Si3 0.468971 0.029892 0.082528
Si Si4 0.102037 0.824694 0.172140
Si Si5 0.968971 0.529892 0.582528
Si Si6 0.235042 0.678165 0.083153
Si Si7 0.102037 0.324694 0.827860
Si Si8 0.549755 0.357732 0.836393
O O1 0.650278 0.633468 0.607445
O O2 0.750000 0.717318 0.500000
O O3 0.796816 0.762068 0.641874
O O4 0.860814 0.597299 0.583486
O O5 0.537995 0.437866 0.362212
O O6 0.399654 0.367955 0.254361
O O7 0.500000 0.250000 0.342045
O O8 0.360814 0.097299 0.083486
O O9 0.568979 0.093388 0.114567
O O10 0.500000 0.000000 0.000000
O O11 0.068979 0.906612 0.114567
O O12 0.203184 0.762068 0.141874
O O13 0.000000 0.750000 0.172301
O O14 0.962005 0.437866 0.637788
O O15 0.000000 0.500000 0.500000
O O16 0.349722 0.633468 0.107445
O O17 0.100346 0.367955 0.745639
#
# Coordination Sequence:
#
# PCOD9460973 Si02
#       8
#     8   8   8   8   8   8   8   8
#     4  11  23  41  68 100 131 173 227 279 346 406
#     4  11  24  43  66  98 133 176 223 277 344 404
#     4  11  23  41  66  95 136 173 224 273 333 410
#     4   9  22  43  67  93 132 172 219 279 333 402
#     4  11  23  41  66  95 136 173 224 273 333 410
#     4  11  23  41  68 100 131 173 227 279 346 406
#     4   9  22  43  67  93 132 172 219 279 333 402
#     4  11  24  43  66  98 133 176 223 277 344 404
#
# _framework density 21.067658999999999
#
# number of rings (size 3 to 8) (size 9 to 14) (size 15 to 20)
#    0.000    1.500    2.500    1.500    3.500    2.000 
#    0.000    7.500    0.000    0.000    0.000    0.000 
#    0.000    0.000    0.000    0.000    0.000    0.000 
#
# Total GULP energy -357422.477730 kJ/mol
# GULP energy per Si atom -5584.726215 kJ/mol
# Density = 2.101971 g / cm^3
# Si number density = 21.067659 Si / 1000 Ang^3
#
#
#
# Elastic Constant Matrix: (Units=GPa)
#
#
# Indices 1 2 3 4 5 6 
#
# 1 55.3773 8.4190 13.0407 0.0000 0.0000 0.0000
# 2 8.4190 91.0213 35.5701 0.0000 0.0000 0.0000
# 3 13.0407 35.5701 155.0126 0.0000 0.0000 0.0000
# 4 0.0000 0.0000 0.0000 38.4205 0.0000 0.0000
# 5 0.0000 0.0000 0.0000 0.0000 27.5585 0.0000
# 6 0.0000 0.0000 0.0000 0.0000 0.0000 26.9860
#
#
#
# Elastic Compliance Matrix: (Units=1/GPa)
#
#
# Indices 1 2 3 4 5 6 
#
# 1 0.018544 -0.001215 -0.001281 0.000000 0.000000 0.000000
# 2 -0.001215 0.012148 -0.002685 0.000000 0.000000 0.000000
# 3 -0.001281 -0.002685 0.007175 0.000000 0.000000 0.000000
# 4 0.000000 0.000000 0.000000 0.026028 0.000000 0.000000
# 5 0.000000 0.000000 0.000000 0.000000 0.036286 0.000000
# 6 0.000000 0.000000 0.000000 0.000000 0.000000 0.037056
#
#
# Mechanical properties :
#
#
# Convention : Reuss Voigt Hill
#
# Bulk Modulus (GPa) = 36.35702 46.16343 41.26022
# Shear Modulus (GPa) = 31.89404 34.88509 33.38956
#
# Velocity S-wave (km/s) = 3.89509 4.07364 3.98537
# Velocity P-wave (km/s) = 6.12566 6.63970 6.38785
#
# Compressibility (1/GPa) = 0.02750501
#
# Stress axis : x y z
#
# Youngs Moduli (GPa) = 53.92481 82.31666 139.37081
#
# Poissons Ratio (x) = 0.09997 0.17859
# Poissons Ratio (y) = 0.06549 0.37427
# Poissons Ratio (z) = 0.06910 0.22106
#
# Static dielectric constant tensor:
#      x y z
#    x 1.752640 0.000000 0.000000 
#    y 0.000000 1.805540 0.000000 
#    z 0.000000 0.000000 1.790600 
# 
# From -- ./inp_files/9304.got.cif
#   From: 2010.05.17/outbox.cif.g08.bks.cpg/sg61_5_cif.got.tgz:9304.got - 2010.06.03 15:17:17.
