data_PCOD9460169
_publ_section_title
;
Structure prediction by ZEFSAII (Michael W. Deem and Ramdas Pophale) SiO2 
 PCOD9460169
Probable space group: P B C A
;
_chemical_formula_sum "Si O2"
_cell_formula_units_Z 20
_cell_length_a 6.540717
_cell_length_b 7.243530
_cell_length_c 12.853959
_cell_angle_alpha 90.000000
_cell_angle_beta 90.000000
_cell_angle_gamma 90.000000
_cell_volume 608.993325
_symmetry_space_group_name_H-M "P B C A"
_symmetry_group_IT_number 61
_symmetry_cell_setting 'orthorhombic'
loop_
_space_group_symop_operation_xyz
x,y,z
1/2-x,-y,1/2+z
1/2+x,1/2-y,-z
-x,1/2+y,1/2-z
-x,-y,-z
1/2+x,y,1/2-z
1/2-x,1/2+y,z
x,1/2-y,1/2+z
loop_
_atom_site_type_symbol
_atom_site_label
_atom_site_fract_x
_atom_site_fract_y
_atom_site_fract_z
Si Si1 0.000000 0.000000 0.500000
Si Si2 0.896634 0.353442 0.632289
Si Si3 0.705323 0.691569 0.851165
O O1 0.756343 0.944194 0.552103
O O2 0.899983 0.164338 0.425332
O O3 0.786518 0.273523 0.734115
O O4 0.055121 0.179590 0.606662
O O5 0.058775 0.515349 0.656452
#
# Coordination Sequence:
#
# PCOD9460169 Si02
#       3
#     4   8   8
#     4   8  24  44  68 108 148 190 242 314 374 448
#     4  10  21  45  73 105 146 195 247 309 372 454
#     4  10  21  45  74 106 146 196 249 305 379 443
#
# _framework density 32.841085999999997
#
# number of rings (size 3 to 8) (size 9 to 14) (size 15 to 20)
#    2.400    0.000    0.000    2.400    0.000    0.000 
#   14.400    4.000    0.000    0.000    0.000    0.000 
#    0.000    0.000    0.000    0.000    0.000    0.000 
#
# Total GULP energy -112255.647113 kJ/mol
# GULP energy per Si atom -5612.782356 kJ/mol
# Density = 3.276634 g / cm^3
# Si number density = 32.841086 Si / 1000 Ang^3
#
#
#
# Elastic Constant Matrix: (Units=GPa)
#
#
# Indices 1 2 3 4 5 6 
#
# 1 242.7132 120.4968 102.6432 0.0000 0.0000 0.0000
# 2 120.4968 311.5080 87.4940 0.0000 0.0000 0.0000
# 3 102.6432 87.4940 242.4466 0.0000 0.0000 0.0000
# 4 0.0000 0.0000 0.0000 95.3316 0.0000 0.0000
# 5 0.0000 0.0000 0.0000 0.0000 110.2986 0.0000
# 6 0.0000 0.0000 0.0000 0.0000 0.0000 112.0544
#
#
#
# Elastic Compliance Matrix: (Units=1/GPa)
#
#
# Indices 1 2 3 4 5 6 
#
# 1 0.005735 -0.001710 -0.001811 0.000000 0.000000 0.000000
# 2 -0.001710 0.004082 -0.000749 0.000000 0.000000 0.000000
# 3 -0.001811 -0.000749 0.005162 0.000000 0.000000 0.000000
# 4 0.000000 0.000000 0.000000 0.010490 0.000000 0.000000
# 5 0.000000 0.000000 0.000000 0.000000 0.009066 0.000000
# 6 0.000000 0.000000 0.000000 0.000000 0.000000 0.008924
#
#
# Mechanical properties :
#
#
# Convention : Reuss Voigt Hill
#
# Bulk Modulus (GPa) = 155.31116 157.54839 156.42977
# Shear Modulus (GPa) = 92.34560 95.93918 94.14239
#
# Velocity S-wave (km/s) = 5.30848 5.41078 5.35988
# Velocity P-wave (km/s) = 9.21779 9.33341 9.27578
#
# Compressibility (1/GPa) = 0.00643869
#
# Stress axis : x y z
#
# Youngs Moduli (GPa) = 174.37782 244.97981 193.73517
#
# Poissons Ratio (x) = 0.41883 0.35083
# Poissons Ratio (y) = 0.29812 0.14516
# Poissons Ratio (z) = 0.31578 0.18356
#
# Static dielectric constant tensor:
#      x y z
#    x 2.521420 0.000000 0.000000 
#    y 0.000000 2.795820 0.000000 
#    z 0.000000 0.000000 2.784270 
# 
# From -- ./inp_files/8687.got.cif
#   From: 2010.05.17/outbox.cif.g08.bks.cpg/sg61_5_cif.got.tgz:8687.got - 2010.06.03 15:17:17.
