data_PCOD9460950
_publ_section_title
;
Structure prediction by ZEFSAII (Michael W. Deem and Ramdas Pophale) SiO2 
 PCOD9460950
Probable space group: P B C A
;
_chemical_formula_sum "Si O2"
_cell_formula_units_Z 64
_cell_length_a 14.269339
_cell_length_b 15.871041
_cell_length_c 12.484636
_cell_angle_alpha 90.000000
_cell_angle_beta 90.000000
_cell_angle_gamma 90.000000
_cell_volume 2827.386330
_symmetry_space_group_name_H-M "P B C A"
_symmetry_group_IT_number 61
_symmetry_cell_setting 'orthorhombic'
loop_
_space_group_symop_operation_xyz
x,y,z
1/2-x,-y,1/2+z
1/2+x,1/2-y,-z
-x,1/2+y,1/2-z
-x,-y,-z
1/2+x,y,1/2-z
1/2-x,1/2+y,z
x,1/2-y,1/2+z
loop_
_atom_site_type_symbol
_atom_site_label
_atom_site_fract_x
_atom_site_fract_y
_atom_site_fract_z
Si Si1 0.525428 0.876690 0.223611
Si Si2 0.191428 0.929036 0.135637
Si Si3 0.307486 0.825269 0.463575
Si Si4 0.440400 0.716637 0.336092
Si Si5 0.906905 0.305733 0.022327
Si Si6 0.647344 0.468151 0.211592
Si Si7 0.577224 0.399333 0.860722
Si Si8 0.127394 0.876742 0.910408
O O1 0.623271 0.876619 0.286523
O O2 0.467394 0.795639 0.261265
O O3 0.547118 0.874888 0.098904
O O4 0.461031 0.954297 0.259334
O O5 0.291946 0.936571 0.188828
O O6 0.143855 0.020554 0.132928
O O7 0.185539 0.890629 0.018135
O O8 0.343989 0.745123 0.394622
O O9 0.200579 0.827072 0.501682
O O10 0.327592 0.907988 0.389638
O O11 0.372890 0.828682 0.567066
O O12 0.524238 0.709390 0.423050
O O13 0.434309 0.636223 0.259101
O O14 0.893756 0.221947 0.096687
O O15 0.669525 0.565151 0.182681
O O16 0.477751 0.414670 0.918845
#
# Coordination Sequence:
#
# PCOD9460950 Si02
#       8
#     8   8   8   8   8   8   8   8
#     4  11  22  45  67  98 141 179 233 287 353 412
#     4  12  24  43  72 103 133 188 236 285 347 435
#     4  11  24  44  69 100 140 184 228 295 353 425
#     4  11  24  42  68 103 136 184 234 293 350 412
#     4  12  25  43  72 105 147 180 234 299 364 415
#     4  11  25  44  71 101 141 189 234 284 357 424
#     4  12  24  45  72 100 136 184 248 286 349 432
#     4  12  23  45  72  99 137 193 235 284 357 427
#
# _framework density 22.635746000000001
#
# number of rings (size 3 to 8) (size 9 to 14) (size 15 to 20)
#    0.000    0.500    7.500    1.125    1.750    5.000 
#    0.000    0.625    0.000    0.000    0.000    0.000 
#    0.000    0.000    0.000    0.000    0.000    0.000 
#
# Total GULP energy -357796.269341 kJ/mol
# GULP energy per Si atom -5590.566708 kJ/mol
# Density = 2.258423 g / cm^3
# Si number density = 22.635746 Si / 1000 Ang^3
#
#
#
# Elastic Constant Matrix: (Units=GPa)
#
#
# Indices 1 2 3 4 5 6 
#
# 1 71.6608 -25.5777 23.5212 0.0000 0.0000 0.0000
# 2 -25.5777 48.4694 5.0622 0.0000 0.0000 0.0000
# 3 23.5212 5.0622 78.5714 0.0000 0.0000 0.0000
# 4 0.0000 0.0000 0.0000 29.9314 0.0000 0.0000
# 5 0.0000 0.0000 0.0000 0.0000 37.3886 0.0000
# 6 0.0000 0.0000 0.0000 0.0000 0.0000 23.7768
#
#
#
# Elastic Compliance Matrix: (Units=1/GPa)
#
#
# Indices 1 2 3 4 5 6 
#
# 1 0.020254 0.011398 -0.006798 0.000000 0.000000 0.000000
# 2 0.011398 0.027186 -0.005164 0.000000 0.000000 0.000000
# 3 -0.006798 -0.005164 0.015095 0.000000 0.000000 0.000000
# 4 0.000000 0.000000 0.000000 0.033410 0.000000 0.000000
# 5 0.000000 0.000000 0.000000 0.000000 0.026746 0.000000
# 6 0.000000 0.000000 0.000000 0.000000 0.000000 0.042058
#
#
# Mechanical properties :
#
#
# Convention : Reuss Voigt Hill
#
# Bulk Modulus (GPa) = 16.28437 22.74590 19.51513
# Shear Modulus (GPa) = 26.83206 31.26576 29.04891
#
# Velocity S-wave (km/s) = 3.44668 3.72056 3.58623
# Velocity P-wave (km/s) = 4.80095 5.34109 5.07821
#
# Compressibility (1/GPa) = 0.06140856
#
# Stress axis : x y z
#
# Youngs Moduli (GPa) = 49.37257 36.78394 66.24750
#
# Poissons Ratio (x) = -0.41927 0.45033
# Poissons Ratio (y) = -0.56276 0.34208
# Poissons Ratio (z) = 0.33562 0.18994
#
# Static dielectric constant tensor:
#      x y z
#    x 1.829810 0.000000 0.000000 
#    y 0.000000 1.877930 0.000000 
#    z 0.000000 0.000000 1.821600 
# 
# From -- ./inp_files/6003.got.cif
#   From: 2010.05.17/outbox.cif.g08.bks.cpg/sg61_4_cif.got.tgz:6003.got - 2010.06.03 15:17:17.
