data_PCOD9460693
_publ_section_title
;
Structure prediction by ZEFSAII (Michael W. Deem and Ramdas Pophale) SiO2 
 PCOD9460693
Probable space group: P B C A
;
_chemical_formula_sum "Si O2"
_cell_formula_units_Z 64
_cell_length_a 11.714841
_cell_length_b 18.017177
_cell_length_c 15.390237
_cell_angle_alpha 90.000000
_cell_angle_beta 90.000000
_cell_angle_gamma 90.000000
_cell_volume 3248.392142
_symmetry_space_group_name_H-M "P B C A"
_symmetry_group_IT_number 61
_symmetry_cell_setting 'orthorhombic'
loop_
_space_group_symop_operation_xyz
x,y,z
1/2-x,-y,1/2+z
1/2+x,1/2-y,-z
-x,1/2+y,1/2-z
-x,-y,-z
1/2+x,y,1/2-z
1/2-x,1/2+y,z
x,1/2-y,1/2+z
loop_
_atom_site_type_symbol
_atom_site_label
_atom_site_fract_x
_atom_site_fract_y
_atom_site_fract_z
Si Si1 0.888234 0.801991 0.351305
Si Si2 0.370150 0.868699 0.857150
Si Si3 0.600236 0.195756 0.654744
Si Si4 0.361806 0.073794 0.435821
Si Si5 0.423721 0.869683 0.659186
Si Si6 0.704090 0.413075 0.009813
Si Si7 0.135249 0.793352 0.070589
Si Si8 0.051800 0.862325 0.495270
O O1 0.875270 0.829847 0.252628
O O2 0.942051 0.719302 0.345326
O O3 0.762846 0.793319 0.392736
O O4 0.967807 0.851017 0.413635
O O5 0.352965 0.779176 0.859376
O O6 0.257746 0.907985 0.890883
O O7 0.392407 0.888428 0.757453
O O8 0.475268 0.884563 0.921846
O O9 0.652466 0.144068 0.580215
O O10 0.463577 0.201491 0.642790
O O11 0.464576 0.086140 0.369474
O O12 0.379237 0.135268 0.510000
O O13 0.354048 0.991927 0.473864
O O14 0.327714 0.887394 0.587399
O O15 0.840600 0.415070 0.020363
O O16 0.106970 0.718268 0.017956
#
# Coordination Sequence:
#
# PCOD9460693 Si02
#       8
#     8   8   8   8   8   8   8   8
#     4  11  22  40  70  99 123 165 212 277 317 365
#     4  10  24  42  66  96 122 168 219 266 316 377
#     4  10  24  40  65  98 128 162 220 267 317 371
#     4  12  24  43  65  87 133 177 209 255 320 389
#     4  11  23  41  69  93 125 166 218 262 318 383
#     4  12  25  43  62  96 133 173 209 261 321 385
#     4  11  21  42  67  90 125 168 214 263 318 373
#     4  11  22  41  66  94 129 157 216 274 311 369
#
# _framework density 19.702054
#
# number of rings (size 3 to 8) (size 9 to 14) (size 15 to 20)
#    0.000    1.000    5.000    1.875    3.500    2.500 
#    4.500    0.000    0.000    0.000    0.000    0.000 
#    0.000    0.000    0.000    0.000    0.000    0.000 
#
# Total GULP energy -357835.902313 kJ/mol
# GULP energy per Si atom -5591.185974 kJ/mol
# Density = 1.965721 g / cm^3
# Si number density = 19.702054 Si / 1000 Ang^3
#
#
#
# Elastic Constant Matrix: (Units=GPa)
#
#
# Indices 1 2 3 4 5 6 
#
# 1 79.6128 -4.8040 17.0550 0.0000 0.0000 0.0000
# 2 -4.8040 33.4999 17.0443 0.0000 0.0000 0.0000
# 3 17.0550 17.0443 94.6408 0.0000 0.0000 0.0000
# 4 0.0000 0.0000 0.0000 10.1265 0.0000 0.0000
# 5 0.0000 0.0000 0.0000 0.0000 22.3124 0.0000
# 6 0.0000 0.0000 0.0000 0.0000 0.0000 9.0252
#
#
#
# Elastic Compliance Matrix: (Units=1/GPa)
#
#
# Indices 1 2 3 4 5 6 
#
# 1 0.013423 0.003474 -0.003044 0.000000 0.000000 0.000000
# 2 0.003474 0.033761 -0.006706 0.000000 0.000000 0.000000
# 3 -0.003044 -0.006706 0.012323 0.000000 0.000000 0.000000
# 4 0.000000 0.000000 0.000000 0.098751 0.000000 0.000000
# 5 0.000000 0.000000 0.000000 0.000000 0.044818 0.000000
# 6 0.000000 0.000000 0.000000 0.000000 0.000000 0.110800
#
#
# Mechanical properties :
#
#
# Convention : Reuss Voigt Hill
#
# Bulk Modulus (GPa) = 21.29806 29.59379 25.44592
# Shear Modulus (GPa) = 14.61644 20.19003 17.40324
#
# Velocity S-wave (km/s) = 2.72669 3.20467 2.97530
# Velocity P-wave (km/s) = 4.55485 5.36158 4.97459
#
# Compressibility (1/GPa) = 0.04695264
#
# Stress axis : x y z
#
# Youngs Moduli (GPa) = 74.50108 29.61996 81.15126
#
# Poissons Ratio (x) = -0.10290 0.24706
# Poissons Ratio (y) = -0.25881 0.54422
# Poissons Ratio (z) = 0.22682 0.19864
#
# Static dielectric constant tensor:
#      x y z
#    x 1.695710 0.000000 0.000000 
#    y 0.000000 1.678800 0.000000 
#    z 0.000000 0.000000 1.682910 
# 
# From -- ./inp_files/7640.got.cif
#   From: 2010.05.17/outbox.cif.g08.bks.cpg/sg61_4_cif.got.tgz:7640.got - 2010.06.03 15:17:17.
