data_PCOD9460849
_publ_section_title
;
Structure prediction by ZEFSAII (Michael W. Deem and Ramdas Pophale) SiO2 
 PCOD9460849
Probable space group: P B C A
;
_chemical_formula_sum "Si O2"
_cell_formula_units_Z 64
_cell_length_a 20.340353
_cell_length_b 9.060763
_cell_length_c 15.571633
_cell_angle_alpha 90.000000
_cell_angle_beta 90.000000
_cell_angle_gamma 90.000000
_cell_volume 2869.838226
_symmetry_space_group_name_H-M "P B C A"
_symmetry_group_IT_number 61
_symmetry_cell_setting 'orthorhombic'
loop_
_space_group_symop_operation_xyz
x,y,z
1/2-x,-y,1/2+z
1/2+x,1/2-y,-z
-x,1/2+y,1/2-z
-x,-y,-z
1/2+x,y,1/2-z
1/2-x,1/2+y,z
x,1/2-y,1/2+z
loop_
_atom_site_type_symbol
_atom_site_label
_atom_site_fract_x
_atom_site_fract_y
_atom_site_fract_z
Si Si1 0.696198 0.797969 0.214618
Si Si2 0.990213 0.736307 0.954356
Si Si3 0.286572 0.479154 0.999200
Si Si4 0.287974 0.307983 0.601512
Si Si5 0.070629 0.927380 0.597878
Si Si6 0.402131 0.636615 0.902082
Si Si7 0.310247 0.607985 0.367411
Si Si8 0.441159 0.378733 0.790497
O O1 0.723029 0.775002 0.309842
O O2 0.751529 0.720558 0.156519
O O3 0.627499 0.711836 0.205365
O O4 0.686112 0.969737 0.195567
O O5 0.948596 0.592547 0.927627
O O6 0.014674 0.808618 0.865944
O O7 0.948858 0.845358 0.015526
O O8 0.046748 0.675196 0.018908
O O9 0.274943 0.599461 0.072822
O O10 0.304608 0.319490 0.033697
O O11 0.339472 0.541844 0.933638
O O12 0.215051 0.463449 0.955628
O O13 0.351815 0.409530 0.612371
O O14 0.038514 0.880665 0.689995
O O15 0.375766 0.797876 0.876745
O O16 0.431247 0.547103 0.822367
#
# Coordination Sequence:
#
# PCOD9460849 Si02
#       8
#     8   8   8   8   8   8   8   8
#     4  11  23  42  64  98 135 178 219 284 336 412
#     4  11  26  47  72 101 137 184 235 286 352 403
#     4  12  22  40  67  97 135 176 220 277 340 407
#     4  11  24  42  66 100 137 174 229 276 339 406
#     4  10  26  47  73 102 139 182 231 294 342 411
#     4  12  25  42  69 103 134 181 232 285 343 418
#     4  12  22  41  68  96 136 178 220 268 350 408
#     4  11  25  47  72 101 140 178 237 289 344 413
#
# _framework density 22.300908
#
# number of rings (size 3 to 8) (size 9 to 14) (size 15 to 20)
#    0.000    0.750    3.750    2.625    7.000    1.000 
#    4.500    0.000    0.000    0.000    0.000    0.000 
#    0.000    0.000    0.000    0.000    0.000    0.000 
#
# Total GULP energy -357930.340545 kJ/mol
# GULP energy per Si atom -5592.661571 kJ/mol
# Density = 2.225015 g / cm^3
# Si number density = 22.300908 Si / 1000 Ang^3
#
#
#
# Elastic Constant Matrix: (Units=GPa)
#
#
# Indices 1 2 3 4 5 6 
#
# 1 13.2413 9.6631 -4.6973 0.0000 0.0000 0.0000
# 2 9.6631 73.3246 17.9319 0.0000 0.0000 0.0000
# 3 -4.6973 17.9319 94.9524 0.0000 0.0000 0.0000
# 4 0.0000 0.0000 0.0000 34.4896 0.0000 0.0000
# 5 0.0000 0.0000 0.0000 0.0000 31.3988 0.0000
# 6 0.0000 0.0000 0.0000 0.0000 0.0000 22.7835
#
#
#
# Elastic Compliance Matrix: (Units=1/GPa)
#
#
# Indices 1 2 3 4 5 6 
#
# 1 0.087585 -0.013212 0.006828 0.000000 0.000000 0.000000
# 2 -0.013212 0.016291 -0.003730 0.000000 0.000000 0.000000
# 3 0.006828 -0.003730 0.011574 0.000000 0.000000 0.000000
# 4 0.000000 0.000000 0.000000 0.028994 0.000000 0.000000
# 5 0.000000 0.000000 0.000000 0.000000 0.031848 0.000000
# 6 0.000000 0.000000 0.000000 0.000000 0.000000 0.043891
#
#
# Mechanical properties :
#
#
# Convention : Reuss Voigt Hill
#
# Bulk Modulus (GPa) = 10.50184 25.25708 17.87946
# Shear Modulus (GPa) = 18.37195 28.30907 23.34051
#
# Velocity S-wave (km/s) = 2.87334 3.56675 3.23866
# Velocity P-wave (km/s) = 3.96579 5.32094 4.69254
#
# Compressibility (1/GPa) = 0.09522137
#
# Stress axis : x y z
#
# Youngs Moduli (GPa) = 11.41746 61.38202 86.40174
#
# Poissons Ratio (x) = 0.81099 -0.58995
# Poissons Ratio (y) = 0.15085 0.32230
# Poissons Ratio (z) = -0.07796 0.22897
#
# Static dielectric constant tensor:
#      x y z
#    x 1.814900 0.000000 0.000000 
#    y 0.000000 1.816100 0.000000 
#    z 0.000000 0.000000 1.862260 
# 
# From -- ./inp_files/8504.got.cif
#   From: 2010.05.17/outbox.cif.g08.bks.cpg/sg61_5_cif.got.tgz:8504.got - 2010.06.03 15:17:17.
