data_PCOD9460111
_publ_section_title
;
Structure prediction by ZEFSAII (Michael W. Deem and Ramdas Pophale) SiO2 
 PCOD9460111
Probable space group: P B C A
;
_chemical_formula_sum "Si O2"
_cell_formula_units_Z 48
_cell_length_a 11.263952
_cell_length_b 17.418081
_cell_length_c 10.492883
_cell_angle_alpha 90.000000
_cell_angle_beta 90.000000
_cell_angle_gamma 90.000000
_cell_volume 2058.666167
_symmetry_space_group_name_H-M "P B C A"
_symmetry_group_IT_number 61
_symmetry_cell_setting 'orthorhombic'
loop_
_space_group_symop_operation_xyz
x,y,z
1/2-x,-y,1/2+z
1/2+x,1/2-y,-z
-x,1/2+y,1/2-z
-x,-y,-z
1/2+x,y,1/2-z
1/2-x,1/2+y,z
x,1/2-y,1/2+z
loop_
_atom_site_type_symbol
_atom_site_label
_atom_site_fract_x
_atom_site_fract_y
_atom_site_fract_z
Si Si1 0.990351 0.302746 0.010575
Si Si2 0.153367 0.932561 0.574783
Si Si3 0.980035 0.428532 0.669648
Si Si4 0.641000 0.785860 0.278375
Si Si5 0.336817 0.803890 0.626213
Si Si6 0.161963 0.555676 0.588744
O O1 0.927158 0.290066 0.146683
O O2 0.118139 0.264395 0.035155
O O3 0.963928 0.393085 0.985140
O O4 0.931821 0.253911 0.895019
O O5 0.116675 0.939628 0.722047
O O6 0.255160 0.867300 0.555773
O O7 0.219230 0.011631 0.543330
O O8 0.914405 0.423416 0.535026
O O9 0.054845 0.351111 0.684448
O O10 0.077314 0.496216 0.665273
O O11 0.756692 0.733412 0.265670
O O12 0.679415 0.870032 0.325224
#
# Coordination Sequence:
#
# PCOD9460111 Si02
#       6
#     8   8   8   8   8   8
#     4  11  24  43  65 103 137 177 231 286 347 408
#     4  10  24  41  68  99 132 180 231 275 341 415
#     4  10  21  45  68  93 137 182 225 278 348 398
#     4  11  25  42  67 100 135 180 231 279 349 409
#     4  10  21  42  67  97 133 178 220 286 335 407
#     4  10  23  43  68  95 135 185 226 285 341 408
#
# _framework density 23.316068999999999
#
# number of rings (size 3 to 8) (size 9 to 14) (size 15 to 20)
#    0.000    1.667    1.667    2.000    2.333    6.667 
#    3.000    1.667    0.000    0.000    0.000    0.000 
#    0.000    0.000    0.000    0.000    0.000    0.000 
#
# Total GULP energy -268156.879041 kJ/mol
# GULP energy per Si atom -5586.601647 kJ/mol
# Density = 2.326300 g / cm^3
# Si number density = 23.316069 Si / 1000 Ang^3
#
#
#
# Elastic Constant Matrix: (Units=GPa)
#
#
# Indices 1 2 3 4 5 6 
#
# 1 58.7488 20.2732 7.6139 0.0000 0.0000 0.0000
# 2 20.2732 82.7738 19.2720 0.0000 0.0000 0.0000
# 3 7.6139 19.2720 74.3471 0.0000 0.0000 0.0000
# 4 0.0000 0.0000 0.0000 19.2145 0.0000 0.0000
# 5 0.0000 0.0000 0.0000 0.0000 13.6898 0.0000
# 6 0.0000 0.0000 0.0000 0.0000 0.0000 47.8532
#
#
#
# Elastic Compliance Matrix: (Units=1/GPa)
#
#
# Indices 1 2 3 4 5 6 
#
# 1 0.018635 -0.004384 -0.000772 0.000000 0.000000 0.000000
# 2 -0.004384 0.013889 -0.003151 0.000000 0.000000 0.000000
# 3 -0.000772 -0.003151 0.014346 0.000000 0.000000 0.000000
# 4 0.000000 0.000000 0.000000 0.052044 0.000000 0.000000
# 5 0.000000 0.000000 0.000000 0.000000 0.073047 0.000000
# 6 0.000000 0.000000 0.000000 0.000000 0.000000 0.020897
#
#
# Mechanical properties :
#
#
# Convention : Reuss Voigt Hill
#
# Bulk Modulus (GPa) = 33.05262 34.46532 33.75897
# Shear Modulus (GPa) = 22.77307 27.39887 25.08597
#
# Velocity S-wave (km/s) = 3.12863 3.43170 3.28366
# Velocity P-wave (km/s) = 5.22090 5.52413 5.37465
#
# Compressibility (1/GPa) = 0.03025479
#
# Stress axis : x y z
#
# Youngs Moduli (GPa) = 53.66360 72.00139 69.70436
#
# Poissons Ratio (x) = 0.31568 0.05380
# Poissons Ratio (y) = 0.23528 0.21965
# Poissons Ratio (z) = 0.04142 0.22689
#
# Static dielectric constant tensor:
#      x y z
#    x 1.936950 0.000000 0.000000 
#    y 0.000000 1.918830 0.000000 
#    z 0.000000 0.000000 1.810860 
# 
# From -- ./inp_files/5230.got.cif
#   From: 2010.05.17/outbox.cif.g08.bks.cpg/sg61_3_cif.got.tgz:5230.got - 2010.06.03 15:17:17.
