data_PCOD9460967
_publ_section_title
;
Structure prediction by ZEFSAII (Michael W. Deem and Ramdas Pophale) SiO2 
 PCOD9460967
Probable space group: P B C A
;
_chemical_formula_sum "Si O2"
_cell_formula_units_Z 48
_cell_length_a 23.632963
_cell_length_b 7.729398
_cell_length_c 9.354679
_cell_angle_alpha 90.000000
_cell_angle_beta 90.000000
_cell_angle_gamma 90.000000
_cell_volume 1708.805901
_symmetry_space_group_name_H-M "P B C A"
_symmetry_group_IT_number 61
_symmetry_cell_setting 'orthorhombic'
loop_
_space_group_symop_operation_xyz
x,y,z
1/2-x,-y,1/2+z
1/2+x,1/2-y,-z
-x,1/2+y,1/2-z
-x,-y,-z
1/2+x,y,1/2-z
1/2-x,1/2+y,z
x,1/2-y,1/2+z
loop_
_atom_site_type_symbol
_atom_site_label
_atom_site_fract_x
_atom_site_fract_y
_atom_site_fract_z
Si Si1 0.787229 0.549682 0.695114
Si Si2 0.820373 0.206764 0.814926
Si Si3 0.467245 0.417812 0.667680
Si Si4 0.570599 0.307010 0.841454
Si Si5 0.326137 0.619560 0.343109
Si Si6 0.585118 0.629416 0.027064
O O1 0.738034 0.439383 0.620534
O O2 0.746355 0.658903 0.803682
O O3 0.822602 0.410082 0.783541
O O4 0.819619 0.684078 0.593981
O O5 0.846498 0.080976 0.689710
O O6 0.852127 0.157611 0.960339
O O7 0.531839 0.387618 0.715174
O O8 0.450635 0.613426 0.628896
O O9 0.431841 0.369261 0.809214
O O10 0.634963 0.304288 0.787077
O O11 0.449427 0.218458 0.049482
O O12 0.565388 0.441759 0.969672
#
# Coordination Sequence:
#
# PCOD9460967 Si02
#       6
#     8   8   8   8   8   8
#     4   8  13  27  55  89 117 166 207 272 324 385
#     4   8  15  30  57  88 124 164 214 266 325 393
#     4  12  26  44  69  98 139 179 225 279 332 398
#     4  11  23  40  65  97 133 177 224 275 331 396
#     4   8  15  28  52  88 118 163 211 268 324 385
#     4  11  25  45  68 100 135 179 226 275 337 401
#
# _framework density 28.089790000000001
#
# number of rings (size 3 to 8) (size 9 to 14) (size 15 to 20)
#    1.000    1.333    1.667    1.500    0.000    2.000 
#    0.000    0.000    0.000    8.000    0.000    0.000 
#    0.000    0.000    0.000    0.000    0.000    0.000 
#
# Total GULP energy -267284.448740 kJ/mol
# GULP energy per Si atom -5568.426015 kJ/mol
# Density = 2.802586 g / cm^3
# Si number density = 28.089790 Si / 1000 Ang^3
#
#
#
# Elastic Constant Matrix: (Units=GPa)
#
#
# Indices 1 2 3 4 5 6 
#
# 1 110.5024 21.4852 57.0130 0.0000 0.0000 0.0000
# 2 21.4852 239.8668 35.6222 0.0000 0.0000 0.0000
# 3 57.0130 35.6222 98.6470 0.0000 0.0000 0.0000
# 4 0.0000 0.0000 0.0000 25.8635 0.0000 0.0000
# 5 0.0000 0.0000 0.0000 0.0000 26.7464 0.0000
# 6 0.0000 0.0000 0.0000 0.0000 0.0000 44.1041
#
#
#
# Elastic Compliance Matrix: (Units=1/GPa)
#
#
# Indices 1 2 3 4 5 6 
#
# 1 0.012895 -0.000051 -0.007434 0.000000 0.000000 0.000000
# 2 -0.000051 0.004405 -0.001561 0.000000 0.000000 0.000000
# 3 -0.007434 -0.001561 0.014998 0.000000 0.000000 0.000000
# 4 0.000000 0.000000 0.000000 0.038664 0.000000 0.000000
# 5 0.000000 0.000000 0.000000 0.000000 0.037388 0.000000
# 6 0.000000 0.000000 0.000000 0.000000 0.000000 0.022674
#
#
# Mechanical properties :
#
#
# Convention : Reuss Voigt Hill
#
# Bulk Modulus (GPa) = 70.39840 75.25076 72.82458
# Shear Modulus (GPa) = 32.49856 41.66920 37.08388
#
# Velocity S-wave (km/s) = 3.40509 3.85571 3.63738
# Velocity P-wave (km/s) = 6.36992 6.83151 6.60475
#
# Compressibility (1/GPa) = 0.01420487
#
# Stress axis : x y z
#
# Youngs Moduli (GPa) = 77.54823 226.99297 66.67701
#
# Poissons Ratio (x) = 0.01157 0.49570
# Poissons Ratio (y) = 0.00395 0.10411
# Poissons Ratio (z) = 0.57652 0.35442
#
# Static dielectric constant tensor:
#      x y z
#    x 2.328680 0.000000 0.000000 
#    y 0.000000 2.155790 0.000000 
#    z 0.000000 0.000000 2.233460 
# 
# From -- ./inp_files/6576.got.cif
#   From: 2010.05.17/outbox.cif.g08.bks.cpg/sg61_4_cif.got.tgz:6576.got - 2010.06.03 15:17:17.
