data_PCOD9460709
_publ_section_title
;
Structure prediction by ZEFSAII (Michael W. Deem and Ramdas Pophale) SiO2 
 PCOD9460709
Probable space group: P B C A
;
_chemical_formula_sum "Si O2"
_cell_formula_units_Z 56
_cell_length_a 10.535339
_cell_length_b 19.806289
_cell_length_c 9.834735
_cell_angle_alpha 90.000000
_cell_angle_beta 90.000000
_cell_angle_gamma 90.000000
_cell_volume 2052.174508
_symmetry_space_group_name_H-M "P B C A"
_symmetry_group_IT_number 61
_symmetry_cell_setting 'orthorhombic'
loop_
_space_group_symop_operation_xyz
x,y,z
1/2-x,-y,1/2+z
1/2+x,1/2-y,-z
-x,1/2+y,1/2-z
-x,-y,-z
1/2+x,y,1/2-z
1/2-x,1/2+y,z
x,1/2-y,1/2+z
loop_
_atom_site_type_symbol
_atom_site_label
_atom_site_fract_x
_atom_site_fract_y
_atom_site_fract_z
Si Si1 0.188507 0.885328 0.557192
Si Si2 0.413360 0.712906 0.621679
Si Si3 0.111656 0.074193 0.707618
Si Si4 0.552668 0.355408 0.008264
Si Si5 0.809972 0.121565 0.143445
Si Si6 0.353894 0.491875 0.330992
Si Si7 0.185889 0.730171 0.826218
O O1 0.339048 0.886098 0.588806
O O2 0.128840 0.875945 0.704132
O O3 0.154394 0.951421 0.473797
O O4 0.180519 0.823857 0.449239
O O5 0.413847 0.631937 0.593516
O O6 0.436952 0.774564 0.516020
O O7 0.279645 0.719340 0.700420
O O8 0.538139 0.728333 0.716200
O O9 0.999426 0.019190 0.710200
O O10 0.252458 0.044117 0.727609
O O11 0.088770 0.117688 0.844545
O O12 0.420275 0.387043 0.965472
O O13 0.768122 0.198065 0.118153
O O14 0.706246 0.064044 0.141547
#
# Coordination Sequence:
#
# PCOD9460709 Si02
#       7
#     8   8   8   8   8   8   8
#     4  11  23  49  68 106 147 187 248 302 367 443
#     4  11  20  43  69 114 136 188 244 301 365 429
#     4  11  23  48  70 106 148 195 250 295 379 441
#     4  10  24  41  74 102 142 195 238 305 367 437
#     4  11  27  44  71 110 144 191 252 297 372 443
#     4  11  26  45  77 103 149 202 236 305 365 460
#     4  11  23  43  74 107 149 185 241 310 360 433
#
# _framework density 27.288129000000001
#
# number of rings (size 3 to 8) (size 9 to 14) (size 15 to 20)
#    0.000    1.143    5.714    0.000    4.000    5.714 
#    5.143    2.143    0.000    0.000    0.000    0.000 
#    0.000    0.000    0.000    0.000    0.000    0.000 
#
# Total GULP energy -313361.775827 kJ/mol
# GULP energy per Si atom -5595.745997 kJ/mol
# Density = 2.722602 g / cm^3
# Si number density = 27.288129 Si / 1000 Ang^3
#
#
#
# Elastic Constant Matrix: (Units=GPa)
#
#
# Indices 1 2 3 4 5 6 
#
# 1 121.2845 35.4637 18.5261 0.0000 0.0000 0.0000
# 2 35.4637 143.7854 49.9010 0.0000 0.0000 0.0000
# 3 18.5261 49.9010 111.9329 0.0000 0.0000 0.0000
# 4 0.0000 0.0000 0.0000 41.8117 0.0000 0.0000
# 5 0.0000 0.0000 0.0000 0.0000 29.4842 0.0000
# 6 0.0000 0.0000 0.0000 0.0000 0.0000 48.6100
#
#
#
# Elastic Compliance Matrix: (Units=1/GPa)
#
#
# Indices 1 2 3 4 5 6 
#
# 1 0.008918 -0.001996 -0.000586 0.000000 0.000000 0.000000
# 2 -0.001996 0.008675 -0.003537 0.000000 0.000000 0.000000
# 3 -0.000586 -0.003537 0.010608 0.000000 0.000000 0.000000
# 4 0.000000 0.000000 0.000000 0.023917 0.000000 0.000000
# 5 0.000000 0.000000 0.000000 0.000000 0.033916 0.000000
# 6 0.000000 0.000000 0.000000 0.000000 0.000000 0.020572
#
#
# Mechanical properties :
#
#
# Convention : Reuss Voigt Hill
#
# Bulk Modulus (GPa) = 62.64793 64.97604 63.81199
# Shear Modulus (GPa) = 40.26903 42.18865 41.22884
#
# Velocity S-wave (km/s) = 3.84565 3.93624 3.89121
# Velocity P-wave (km/s) = 6.53655 6.67244 6.60484
#
# Compressibility (1/GPa) = 0.01596222
#
# Stress axis : x y z
#
# Youngs Moduli (GPa) = 112.12889 115.27856 94.27107
#
# Poissons Ratio (x) = 0.23012 0.05526
# Poissons Ratio (y) = 0.22383 0.33342
# Poissons Ratio (z) = 0.06572 0.40772
#
# Static dielectric constant tensor:
#      x y z
#    x 2.186420 0.000000 0.000000 
#    y 0.000000 2.182980 0.000000 
#    z 0.000000 0.000000 2.193090 
# 
# From -- ./inp_files/5354.got.cif
#   From: 2010.05.17/outbox.cif.g08.bks.cpg/sg61_3_cif.got.tgz:5354.got - 2010.06.03 15:17:17.
