data_PCOD9460891
_publ_section_title
;
Structure prediction by ZEFSAII (Michael W. Deem and Ramdas Pophale) SiO2 
 PCOD9460891
Probable space group: P B C A
;
_chemical_formula_sum "Si O2"
_cell_formula_units_Z 40
_cell_length_a 4.881373
_cell_length_b 25.274250
_cell_length_c 15.112233
_cell_angle_alpha 90.000000
_cell_angle_beta 90.000000
_cell_angle_gamma 90.000000
_cell_volume 1864.442150
_symmetry_space_group_name_H-M "P B C A"
_symmetry_group_IT_number 61
_symmetry_cell_setting 'orthorhombic'
loop_
_space_group_symop_operation_xyz
x,y,z
1/2-x,-y,1/2+z
1/2+x,1/2-y,-z
-x,1/2+y,1/2-z
-x,-y,-z
1/2+x,y,1/2-z
1/2-x,1/2+y,z
x,1/2-y,1/2+z
loop_
_atom_site_type_symbol
_atom_site_label
_atom_site_fract_x
_atom_site_fract_y
_atom_site_fract_z
Si Si1 0.707984 0.896884 0.466536
Si Si2 0.729085 0.936008 0.927157
Si Si3 0.445340 0.655832 0.193139
Si Si4 0.899027 0.538490 0.812360
Si Si5 0.983241 0.783497 0.977092
O O1 0.453953 0.934789 0.494602
O O2 0.820516 0.910076 0.369538
O O3 0.599235 0.837406 0.479586
O O4 0.956894 0.908935 0.533742
O O5 0.866980 0.899587 0.851914
O O6 0.651835 0.990898 0.881638
O O7 0.759684 0.659935 0.220409
O O8 0.383508 0.699824 0.120245
O O9 0.700839 0.535333 0.727566
O O10 0.228016 0.741622 0.972688
#
# Coordination Sequence:
#
# PCOD9460891 Si02
#       5
#     8   8   8   8   8
#     4  11  23  41  63  88 121 165 209 249 300 371
#     4  11  21  39  64  90 123 161 199 247 307 370
#     4  11  21  37  61  93 118 145 196 261 306 342
#     4  12  24  39  60  93 129 163 198 244 300 369
#     4  11  23  42  64  86 119 164 207 249 304 364
#
# _framework density 21.454139999999999
#
# number of rings (size 3 to 8) (size 9 to 14) (size 15 to 20)
#    0.000    0.800    0.000   10.800    0.000    0.000 
#    0.000    6.000    0.000    0.000    0.000    0.000 
#    0.000    0.000    0.000    0.000    0.000    0.000 
#
# Total GULP energy -223823.764993 kJ/mol
# GULP energy per Si atom -5595.594125 kJ/mol
# Density = 2.140531 g / cm^3
# Si number density = 21.454140 Si / 1000 Ang^3
#
#
#
# Elastic Constant Matrix: (Units=GPa)
#
#
# Indices 1 2 3 4 5 6 
#
# 1 77.5510 3.5120 -1.5327 0.0000 0.0000 0.0000
# 2 3.5120 57.5023 22.6502 0.0000 0.0000 0.0000
# 3 -1.5327 22.6502 50.9756 0.0000 0.0000 0.0000
# 4 0.0000 0.0000 0.0000 15.5741 0.0000 0.0000
# 5 0.0000 0.0000 0.0000 0.0000 50.3953 0.0000
# 6 0.0000 0.0000 0.0000 0.0000 0.0000 27.1371
#
#
#
# Elastic Compliance Matrix: (Units=1/GPa)
#
#
# Indices 1 2 3 4 5 6 
#
# 1 0.012964 -0.001146 0.000899 0.000000 0.000000 0.000000
# 2 -0.001146 0.021181 -0.009446 0.000000 0.000000 0.000000
# 3 0.000899 -0.009446 0.023841 0.000000 0.000000 0.000000
# 4 0.000000 0.000000 0.000000 0.064209 0.000000 0.000000
# 5 0.000000 0.000000 0.000000 0.000000 0.019843 0.000000
# 6 0.000000 0.000000 0.000000 0.000000 0.000000 0.036850
#
#
# Mechanical properties :
#
#
# Convention : Reuss Voigt Hill
#
# Bulk Modulus (GPa) = 25.90589 26.14310 26.02450
# Shear Modulus (GPa) = 23.68069 29.38126 26.53097
#
# Velocity S-wave (km/s) = 3.32593 3.70468 3.52040
# Velocity P-wave (km/s) = 5.18172 5.52373 5.35546
#
# Compressibility (1/GPa) = 0.03860125
#
# Stress axis : x y z
#
# Youngs Moduli (GPa) = 77.13424 47.21122 41.94369
#
# Poissons Ratio (x) = 0.05410 -0.03771
# Poissons Ratio (y) = 0.08839 0.39620
# Poissons Ratio (z) = -0.06934 0.44596
#
# Static dielectric constant tensor:
#      x y z
#    x 1.770080 0.000000 0.000000 
#    y 0.000000 1.783930 0.000000 
#    z 0.000000 0.000000 1.768750 
# 
# From -- ./inp_files/4690.got.cif
#   From: 2010.05.17/outbox.cif.g08.bks.cpg/sg61_3_cif.got.tgz:4690.got - 2010.06.03 15:17:17.
