data_PCOD9460977
_publ_section_title
;
Structure prediction by ZEFSAII (Michael W. Deem and Ramdas Pophale) SiO2 
 PCOD9460977
Probable space group: P B C A
;
_chemical_formula_sum "Si O2"
_cell_formula_units_Z 48
_cell_length_a 14.235727
_cell_length_b 16.489765
_cell_length_c 7.739194
_cell_angle_alpha 90.000000
_cell_angle_beta 90.000000
_cell_angle_gamma 90.000000
_cell_volume 1816.727753
_symmetry_space_group_name_H-M "P B C A"
_symmetry_group_IT_number 61
_symmetry_cell_setting 'orthorhombic'
loop_
_space_group_symop_operation_xyz
x,y,z
1/2-x,-y,1/2+z
1/2+x,1/2-y,-z
-x,1/2+y,1/2-z
-x,-y,-z
1/2+x,y,1/2-z
1/2-x,1/2+y,z
x,1/2-y,1/2+z
loop_
_atom_site_type_symbol
_atom_site_label
_atom_site_fract_x
_atom_site_fract_y
_atom_site_fract_z
Si Si1 0.876581 0.784537 0.774418
Si Si2 0.337162 0.317717 0.601562
Si Si3 0.638573 0.855210 0.299016
Si Si4 0.814339 0.914348 0.529783
Si Si5 0.844329 0.021698 0.228995
Si Si6 0.943397 0.623887 0.594692
O O1 0.770019 0.794499 0.847014
O O2 0.872900 0.840007 0.603044
O O3 0.900737 0.692630 0.723968
O O4 0.940672 0.829674 0.913192
O O5 0.338952 0.346196 0.403436
O O6 0.390343 0.234400 0.632424
O O7 0.374276 0.386590 0.731251
O O8 0.725617 0.883866 0.414992
O O9 0.544521 0.903960 0.337414
O O10 0.765782 0.964301 0.685591
O O11 0.866785 0.975459 0.406170
O O12 0.881842 0.957904 0.090172
#
# Coordination Sequence:
#
# PCOD9460977 Si02
#       6
#     8   8   8   8   8   8
#     4  11  23  42  69  93 126 175 222 259 312 395
#     4  11  23  42  67  92 127 174 221 264 314 385
#     4  12  25  43  66  95 134 173 211 265 332 392
#     4  11  23  42  68  94 127 172 221 267 317 384
#     4  11  23  41  67  97 127 168 222 274 317 376
#     4  12  25  42  67  99 133 168 213 271 330 384
#
# _framework density 26.421129000000001
#
# number of rings (size 3 to 8) (size 9 to 14) (size 15 to 20)
#    0.000    0.667    0.000   11.000    0.000    1.333 
#    0.000    3.333    0.000    0.000    0.000    0.000 
#    0.000    0.000    0.000    0.000    0.000    0.000 
#
# Total GULP energy -268991.003649 kJ/mol
# GULP energy per Si atom -5603.979243 kJ/mol
# Density = 2.636099 g / cm^3
# Si number density = 26.421129 Si / 1000 Ang^3
#
#
#
# Elastic Constant Matrix: (Units=GPa)
#
#
# Indices 1 2 3 4 5 6 
#
# 1 75.7023 21.7149 20.4844 0.0000 0.0000 0.0000
# 2 21.7149 108.3553 39.2242 0.0000 0.0000 0.0000
# 3 20.4844 39.2242 134.3979 0.0000 0.0000 0.0000
# 4 0.0000 0.0000 0.0000 51.1005 0.0000 0.0000
# 5 0.0000 0.0000 0.0000 0.0000 31.4897 0.0000
# 6 0.0000 0.0000 0.0000 0.0000 0.0000 19.1831
#
#
#
# Elastic Compliance Matrix: (Units=1/GPa)
#
#
# Indices 1 2 3 4 5 6 
#
# 1 0.014281 -0.002319 -0.001500 0.000000 0.000000 0.000000
# 2 -0.002319 0.010696 -0.002768 0.000000 0.000000 0.000000
# 3 -0.001500 -0.002768 0.008477 0.000000 0.000000 0.000000
# 4 0.000000 0.000000 0.000000 0.019569 0.000000 0.000000
# 5 0.000000 0.000000 0.000000 0.000000 0.031756 0.000000
# 6 0.000000 0.000000 0.000000 0.000000 0.000000 0.052129
#
#
# Mechanical properties :
#
#
# Convention : Reuss Voigt Hill
#
# Bulk Modulus (GPa) = 49.31058 53.47806 51.39432
# Shear Modulus (GPa) = 31.87923 36.15679 34.01801
#
# Velocity S-wave (km/s) = 3.47736 3.70331 3.59211
# Velocity P-wave (km/s) = 5.90140 6.21052 6.05793
#
# Compressibility (1/GPa) = 0.02027962
#
# Stress axis : x y z
#
# Youngs Moduli (GPa) = 70.02472 93.49577 117.96550
#
# Poissons Ratio (x) = 0.21682 0.17692
# Poissons Ratio (y) = 0.16239 0.32654
# Poissons Ratio (z) = 0.10502 0.25880
#
# Static dielectric constant tensor:
#      x y z
#    x 2.111040 0.000000 0.000000 
#    y 0.000000 2.058590 0.000000 
#    z 0.000000 0.000000 2.119240 
# 
# From -- ./inp_files/2862.got.cif
#   From: 2010.05.17/outbox.cif.g08.bks.cpg/sg61_2_cif.got.tgz:2862.got - 2010.06.03 15:17:17.
