data_PCOD9460935
_publ_section_title
;
Structure prediction by ZEFSAII (Michael W. Deem and Ramdas Pophale) SiO2 
 PCOD9460935
Probable space group: P B C A
;
_chemical_formula_sum "Si O2"
_cell_formula_units_Z 48
_cell_length_a 24.394221
_cell_length_b 9.450113
_cell_length_c 7.804939
_cell_angle_alpha 90.000000
_cell_angle_beta 90.000000
_cell_angle_gamma 90.000000
_cell_volume 1799.258109
_symmetry_space_group_name_H-M "P B C A"
_symmetry_group_IT_number 61
_symmetry_cell_setting 'orthorhombic'
loop_
_space_group_symop_operation_xyz
x,y,z
1/2-x,-y,1/2+z
1/2+x,1/2-y,-z
-x,1/2+y,1/2-z
-x,-y,-z
1/2+x,y,1/2-z
1/2-x,1/2+y,z
x,1/2-y,1/2+z
loop_
_atom_site_type_symbol
_atom_site_label
_atom_site_fract_x
_atom_site_fract_y
_atom_site_fract_z
Si Si1 0.778535 0.575518 0.229257
Si Si2 0.782432 0.299084 0.414519
Si Si3 0.585874 0.455864 0.276750
Si Si4 0.457397 0.049470 0.721709
Si Si5 0.386739 0.815758 0.581843
Si Si6 0.598215 0.784248 0.578317
O O1 0.780514 0.407481 0.253484
O O2 0.732197 0.644407 0.350485
O O3 0.833744 0.635475 0.313502
O O4 0.762246 0.637584 0.046090
O O5 0.842069 0.302460 0.497924
O O6 0.520324 0.444410 0.271906
O O7 0.607489 0.352615 0.423009
O O8 0.599317 0.619752 0.251969
O O9 0.611770 0.382783 0.106281
O O10 0.421513 0.130116 0.864786
O O11 0.445025 0.137518 0.547065
O O12 0.437385 0.891193 0.680755
#
# Coordination Sequence:
#
# PCOD9460935 Si02
#       6
#     8   8   8   8   8   8
#     4  12  26  45  70 100 137 180 229 282 342 405
#     4  12  26  45  70 100 137 180 229 282 342 405
#     4  11  22  42  67  94 131 173 218 272 328 396
#     4  11  22  42  67  94 131 173 218 272 328 396
#     4  11  24  43  64  97 132 170 222 272 334 395
#     4  11  24  43  64  97 132 170 222 272 334 395
#
# _framework density 26.677662000000002
#
# number of rings (size 3 to 8) (size 9 to 14) (size 15 to 20)
#    0.000    0.667    3.333    7.000    4.667    1.333 
#    0.000    3.333    0.000    0.000    0.000    0.000 
#    0.000    0.000    0.000    0.000    0.000    0.000 
#
# Total GULP energy -269393.334588 kJ/mol
# GULP energy per Si atom -5612.361137 kJ/mol
# Density = 2.661694 g / cm^3
# Si number density = 26.677662 Si / 1000 Ang^3
#
#
#
# Elastic Constant Matrix: (Units=GPa)
#
#
# Indices 1 2 3 4 5 6 
#
# 1 110.3233 12.6158 -3.8509 0.0000 0.0000 0.0000
# 2 12.6158 126.7376 -7.4918 0.0000 0.0000 0.0000
# 3 -3.8509 -7.4918 68.7639 0.0000 0.0000 0.0000
# 4 0.0000 0.0000 0.0000 51.9928 0.0000 0.0000
# 5 0.0000 0.0000 0.0000 0.0000 40.2901 0.0000
# 6 0.0000 0.0000 0.0000 0.0000 0.0000 26.3818
#
#
#
# Elastic Compliance Matrix: (Units=1/GPa)
#
#
# Indices 1 2 3 4 5 6 
#
# 1 0.009181 -0.000889 0.000417 0.000000 0.000000 0.000000
# 2 -0.000889 0.008028 0.000825 0.000000 0.000000 0.000000
# 3 0.000417 0.000825 0.014656 0.000000 0.000000 0.000000
# 4 0.000000 0.000000 0.000000 0.019233 0.000000 0.000000
# 5 0.000000 0.000000 0.000000 0.000000 0.024820 0.000000
# 6 0.000000 0.000000 0.000000 0.000000 0.000000 0.037905
#
#
# Mechanical properties :
#
#
# Convention : Reuss Voigt Hill
#
# Bulk Modulus (GPa) = 30.70351 34.26345 32.48348
# Shear Modulus (GPa) = 40.33135 44.03637 42.18386
#
# Velocity S-wave (km/s) = 3.89241 4.06727 3.98080
# Velocity P-wave (km/s) = 5.63340 5.91001 5.77336
#
# Compressibility (1/GPa) = 0.03256957
#
# Stress axis : x y z
#
# Youngs Moduli (GPa) = 108.92635 124.57043 68.23263
#
# Poissons Ratio (x) = 0.11077 -0.02847
# Poissons Ratio (y) = 0.09686 -0.05628
# Poissons Ratio (z) = -0.04545 -0.10275
#
# Static dielectric constant tensor:
#      x y z
#    x 2.004290 0.000000 0.000000 
#    y 0.000000 2.047290 0.000000 
#    z 0.000000 0.000000 2.164530 
# 
# From -- ./inp_files/4218.got.cif
#   From: 2010.05.17/outbox.cif.g08.bks.cpg/sg61_3_cif.got.tgz:4218.got - 2010.06.03 15:17:17.
