data_PCOD9460964
_publ_section_title
;
Structure prediction by ZEFSAII (Michael W. Deem and Ramdas Pophale) SiO2 
 PCOD9460964
Probable space group: P B C A
;
_chemical_formula_sum "Si O2"
_cell_formula_units_Z 40
_cell_length_a 22.852819
_cell_length_b 9.244551
_cell_length_c 8.942755
_cell_angle_alpha 90.000000
_cell_angle_beta 90.000000
_cell_angle_gamma 90.000000
_cell_volume 1889.282646
_symmetry_space_group_name_H-M "P B C A"
_symmetry_group_IT_number 61
_symmetry_cell_setting 'orthorhombic'
loop_
_space_group_symop_operation_xyz
x,y,z
1/2-x,-y,1/2+z
1/2+x,1/2-y,-z
-x,1/2+y,1/2-z
-x,-y,-z
1/2+x,y,1/2-z
1/2-x,1/2+y,z
x,1/2-y,1/2+z
loop_
_atom_site_type_symbol
_atom_site_label
_atom_site_fract_x
_atom_site_fract_y
_atom_site_fract_z
Si Si1 0.408928 0.988076 0.530344
Si Si2 0.190079 0.105972 0.414312
Si Si3 0.992506 0.607330 0.712979
Si Si4 0.285374 0.583618 0.061826
Si Si5 0.061527 0.333183 0.986307
O O1 0.448643 0.998677 0.380710
O O2 0.340763 0.016118 0.511516
O O3 0.413606 0.815964 0.562284
O O4 0.442584 0.073097 0.658720
O O5 0.207228 0.263142 0.479326
O O6 0.207879 0.098400 0.240350
O O7 0.120113 0.087045 0.434662
O O8 0.225799 0.989787 0.509844
O O9 0.975725 0.765962 0.648818
O O10 0.977679 0.597269 0.885485
#
# Coordination Sequence:
#
# PCOD9460964 Si02
#       5
#     8   8   8   8   8
#     4   8  19  34  57  80 116 150 195 241 303 349
#     4  11  23  39  64  91 124 167 205 255 305 373
#     4   9  17  34  58  81 109 153 192 245 292 364
#     4  11  23  40  62  90 125 160 210 250 311 365
#     4   9  17  33  58  80 109 152 195 230 307 347
#
# _framework density 21.172056999999999
#
# number of rings (size 3 to 8) (size 9 to 14) (size 15 to 20)
#    1.200    1.200    0.000    3.600    2.800    0.000 
#    0.000   10.000    0.000    0.000    0.000    0.000 
#    0.000    0.000    0.000    0.000    0.000    0.000 
#
# Total GULP energy -223036.411053 kJ/mol
# GULP energy per Si atom -5575.910276 kJ/mol
# Density = 2.112387 g / cm^3
# Si number density = 21.172057 Si / 1000 Ang^3
#
#
#
# Elastic Constant Matrix: (Units=GPa)
#
#
# Indices 1 2 3 4 5 6 
#
# 1 -105.3923 -3.1396 19.5666 0.0000 0.0000 0.0000
# 2 -3.1396 24.6620 22.7789 0.0000 0.0000 0.0000
# 3 19.5666 22.7789 142.9143 0.0000 0.0000 0.0000
# 4 0.0000 0.0000 0.0000 28.2957 0.0000 0.0000
# 5 0.0000 0.0000 0.0000 0.0000 32.0518 0.0000
# 6 0.0000 0.0000 0.0000 0.0000 0.0000 36.0028
#
#
#
# Elastic Compliance Matrix: (Units=1/GPa)
#
#
# Indices 1 2 3 4 5 6 
#
# 1 -0.009096 -0.002707 0.001677 0.000000 0.000000 0.000000
# 2 -0.002707 0.046743 -0.007080 0.000000 0.000000 0.000000
# 3 0.001677 -0.007080 0.007896 0.000000 0.000000 0.000000
# 4 0.000000 0.000000 0.000000 0.035341 0.000000 0.000000
# 5 0.000000 0.000000 0.000000 0.000000 0.031200 0.000000
# 6 0.000000 0.000000 0.000000 0.000000 0.000000 0.027776
#
#
# Mechanical properties :
#
#
# Convention : Reuss Voigt Hill
#
# Bulk Modulus (GPa) = 34.10292 15.62174 24.86233
# Shear Modulus (GPa) = 30.14733 20.80192 25.47462
#
# Velocity S-wave (km/s) = 3.77758 3.13791 3.47251
# Velocity P-wave (km/s) = 5.93037 4.53025 5.27695
#
# Compressibility (1/GPa) = 0.02932300
#
# Stress axis : x y z
#
# Youngs Moduli (GPa) = -109.93351 21.39374 126.64586
#
# Poissons Ratio (x) = 0.05791 -0.21236
# Poissons Ratio (y) = -0.29757 0.89661
# Poissons Ratio (z) = 0.18434 0.15146
#
# Static dielectric constant tensor:
#      x y z
#    x 1.762380 0.000000 0.000000 
#    y 0.000000 1.802930 0.000000 
#    z 0.000000 0.000000 1.770680 
# 
# From -- ./inp_files/3823.got.cif
#   From: 2010.05.17/outbox.cif.g08.bks.cpg/sg61_2_cif.got.tgz:3823.got - 2010.06.03 15:17:17.
