data_PCOD9460216
_publ_section_title
;
Structure prediction by ZEFSAII (Michael W. Deem and Ramdas Pophale) SiO2 
 PCOD9460216
Probable space group: P B C A
;
_chemical_formula_sum "Si O2"
_cell_formula_units_Z 40
_cell_length_a 8.098823
_cell_length_b 8.745939
_cell_length_c 20.989027
_cell_angle_alpha 90.000000
_cell_angle_beta 90.000000
_cell_angle_gamma 90.000000
_cell_volume 1486.690813
_symmetry_space_group_name_H-M "P B C A"
_symmetry_group_IT_number 61
_symmetry_cell_setting 'orthorhombic'
loop_
_space_group_symop_operation_xyz
x,y,z
1/2-x,-y,1/2+z
1/2+x,1/2-y,-z
-x,1/2+y,1/2-z
-x,-y,-z
1/2+x,y,1/2-z
1/2-x,1/2+y,z
x,1/2-y,1/2+z
loop_
_atom_site_type_symbol
_atom_site_label
_atom_site_fract_x
_atom_site_fract_y
_atom_site_fract_z
Si Si1 0.237621 0.816296 0.113911
Si Si2 0.128592 0.102825 0.037196
Si Si3 0.065824 0.130344 0.450128
Si Si4 0.172442 0.474756 0.818409
Si Si5 0.109734 0.335506 0.242820
O O1 0.402177 0.722062 0.094179
O O2 0.084180 0.718965 0.085740
O O3 0.245134 0.833685 0.188968
O O4 0.227448 0.974430 0.076900
O O5 0.171719 0.234740 0.984467
O O6 0.000000 0.000000 0.000000
O O7 0.167698 0.053323 0.393601
O O8 0.000000 0.000000 0.500000
O O9 0.347936 0.532962 0.793867
O O10 0.115729 0.323371 0.780350
O O11 0.046094 0.608072 0.797680
#
# Coordination Sequence:
#
# PCOD9460216 Si02
#       5
#     8   8   8   8   8
#     4  11  22  44  69  95 137 185 229 290 360 419
#     4  10  22  38  65  97 128 175 227 270 336 419
#     4  11  24  43  68 103 141 181 230 290 356 425
#     4  12  26  46  71 104 140 184 238 295 355 428
#     4  12  26  47  74 103 140 189 241 297 361 425
#
# _framework density 26.905391999999999
#
# number of rings (size 3 to 8) (size 9 to 14) (size 15 to 20)
#    0.000    0.800    0.000    8.400    0.000    4.800 
#    0.000   10.000    0.000    0.000    0.000    0.000 
#    0.000    0.000    0.000    0.000    0.000    0.000 
#
# Total GULP energy -223441.800255 kJ/mol
# GULP energy per Si atom -5586.045006 kJ/mol
# Density = 2.684415 g / cm^3
# Si number density = 26.905392 Si / 1000 Ang^3
#
#
#
# Elastic Constant Matrix: (Units=GPa)
#
#
# Indices 1 2 3 4 5 6 
#
# 1 24.8674 17.6457 37.7517 0.0000 0.0000 0.0000
# 2 17.6457 162.9527 81.5818 0.0000 0.0000 0.0000
# 3 37.7517 81.5818 198.9548 0.0000 0.0000 0.0000
# 4 0.0000 0.0000 0.0000 56.9959 0.0000 0.0000
# 5 0.0000 0.0000 0.0000 0.0000 42.0193 0.0000
# 6 0.0000 0.0000 0.0000 0.0000 0.0000 51.1083
#
#
#
# Elastic Compliance Matrix: (Units=1/GPa)
#
#
# Indices 1 2 3 4 5 6 
#
# 1 0.056600 -0.000946 -0.010352 0.000000 0.000000 0.000000
# 2 -0.000946 0.007738 -0.002993 0.000000 0.000000 0.000000
# 3 -0.010352 -0.002993 0.008218 0.000000 0.000000 0.000000
# 4 0.000000 0.000000 0.000000 0.017545 0.000000 0.000000
# 5 0.000000 0.000000 0.000000 0.000000 0.023799 0.000000
# 6 0.000000 0.000000 0.000000 0.000000 0.000000 0.019566
#
#
# Mechanical properties :
#
#
# Convention : Reuss Voigt Hill
#
# Bulk Modulus (GPa) = 22.74139 73.41483 48.07811
# Shear Modulus (GPa) = 28.29549 46.67772 37.48661
#
# Velocity S-wave (km/s) = 3.24646 4.16971 3.73671
# Velocity P-wave (km/s) = 4.74588 7.10827 6.04363
#
# Compressibility (1/GPa) = 0.04397268
#
# Stress axis : x y z
#
# Youngs Moduli (GPa) = 17.66783 129.23505 121.68512
#
# Poissons Ratio (x) = 0.12232 1.25966
# Poissons Ratio (y) = 0.01672 0.36424
# Poissons Ratio (z) = 0.18289 0.38684
#
# Static dielectric constant tensor:
#      x y z
#    x 2.660130 0.000000 0.000000 
#    y 0.000000 2.053610 0.000000 
#    z 0.000000 0.000000 2.076540 
# 
# From -- ./inp_files/9109.got.cif
#   From: 2010.05.17/outbox.cif.g08.bks.cpg/sg61_5_cif.got.tgz:9109.got - 2010.06.03 15:17:17.
