data_PCOD9460226
_publ_section_title
;
Structure prediction by ZEFSAII (Michael W. Deem and Ramdas Pophale) SiO2 
 PCOD9460226
Probable space group: P B C A
;
_chemical_formula_sum "Si O2"
_cell_formula_units_Z 48
_cell_length_a 7.841150
_cell_length_b 29.422892
_cell_length_c 8.041398
_cell_angle_alpha 90.000000
_cell_angle_beta 90.000000
_cell_angle_gamma 90.000000
_cell_volume 1855.225381
_symmetry_space_group_name_H-M "P B C A"
_symmetry_group_IT_number 61
_symmetry_cell_setting 'orthorhombic'
loop_
_space_group_symop_operation_xyz
x,y,z
1/2-x,-y,1/2+z
1/2+x,1/2-y,-z
-x,1/2+y,1/2-z
-x,-y,-z
1/2+x,y,1/2-z
1/2-x,1/2+y,z
x,1/2-y,1/2+z
loop_
_atom_site_type_symbol
_atom_site_label
_atom_site_fract_x
_atom_site_fract_y
_atom_site_fract_z
Si Si1 0.518216 0.634207 0.165921
Si Si2 0.852663 0.968862 0.185733
Si Si3 0.838670 0.390233 0.997511
Si Si4 0.015300 0.804546 0.346619
Si Si5 0.352408 0.216956 0.499177
Si Si6 0.801394 0.054448 0.002720
O O1 0.527305 0.610804 0.346069
O O2 0.331384 0.630370 0.089318
O O3 0.585819 0.685402 0.153673
O O4 0.646443 0.604468 0.053860
O O5 0.851425 0.952243 0.375162
O O6 0.039016 0.963398 0.107819
O O7 0.729945 0.936138 0.078644
O O8 0.792339 0.020680 0.159346
O O9 0.913223 0.355169 0.131122
O O10 0.020674 0.792196 0.153060
O O11 0.136062 0.768543 0.440794
O O12 0.831594 0.797646 0.431285
#
# Coordination Sequence:
#
# PCOD9460226 Si02
#       6
#     8   8   8   8   8   8
#     4  11  23  40  62  90 123 160 203 249 301 358
#     4  10  22  39  60  88 121 158 201 248 299 356
#     4  11  23  40  62  90 123 160 203 249 301 358
#     4  12  25  43  65  91 123 159 201 248 301 358
#     4  12  25  43  65  91 123 159 201 248 301 358
#     4  10  22  39  60  88 121 158 201 248 299 356
#
# _framework density 25.872866999999999
#
# number of rings (size 3 to 8) (size 9 to 14) (size 15 to 20)
#    0.000    1.000    0.000    7.000    0.000    6.000 
#    0.000    0.000    0.000    0.000    0.000    0.000 
#    0.000    0.000    0.000    0.000    0.000    0.000 
#
# Total GULP energy -269262.802616 kJ/mol
# GULP energy per Si atom -5609.641721 kJ/mol
# Density = 2.581398 g / cm^3
# Si number density = 25.872867 Si / 1000 Ang^3
#
#
#
# Elastic Constant Matrix: (Units=GPa)
#
#
# Indices 1 2 3 4 5 6 
#
# 1 107.0506 1.6845 -16.7821 0.0000 0.0000 0.0000
# 2 1.6845 64.6107 -12.3642 0.0000 0.0000 0.0000
# 3 -16.7821 -12.3642 77.9831 0.0000 0.0000 0.0000
# 4 0.0000 0.0000 0.0000 43.7701 0.0000 0.0000
# 5 0.0000 0.0000 0.0000 0.0000 28.3053 0.0000
# 6 0.0000 0.0000 0.0000 0.0000 0.0000 22.6466
#
#
#
# Elastic Compliance Matrix: (Units=1/GPa)
#
#
# Indices 1 2 3 4 5 6 
#
# 1 0.009669 0.000151 0.002105 0.000000 0.000000 0.000000
# 2 0.000151 0.015964 0.002564 0.000000 0.000000 0.000000
# 3 0.002105 0.002564 0.013683 0.000000 0.000000 0.000000
# 4 0.000000 0.000000 0.000000 0.022847 0.000000 0.000000
# 5 0.000000 0.000000 0.000000 0.000000 0.035329 0.000000
# 6 0.000000 0.000000 0.000000 0.000000 0.000000 0.044157
#
#
# Mechanical properties :
#
#
# Convention : Reuss Voigt Hill
#
# Bulk Modulus (GPa) = 20.42767 21.63566 21.03167
# Shear Modulus (GPa) = 33.70906 37.41815 35.56360
#
# Velocity S-wave (km/s) = 3.61345 3.80706 3.71152
# Velocity P-wave (km/s) = 5.03209 5.26359 5.14914
#
# Compressibility (1/GPa) = 0.04895320
#
# Stress axis : x y z
#
# Youngs Moduli (GPa) = 103.42389 62.64120 73.08521
#
# Poissons Ratio (x) = -0.00944 -0.15382
# Poissons Ratio (y) = -0.01558 -0.18735
# Poissons Ratio (z) = -0.21767 -0.16058
#
# Static dielectric constant tensor:
#      x y z
#    x 2.064470 0.000000 0.000000 
#    y 0.000000 1.935350 0.000000 
#    z 0.000000 0.000000 2.034120 
# 
# From -- ./inp_files/1870.got.cif
#   From: 2010.05.17/outbox.cif.g08.bks.cpg/sg61_1_cif.got.tgz:1870.got - 2010.06.03 15:17:17.
