data_PCOD9460750
_publ_section_title
;
Structure prediction by ZEFSAII (Michael W. Deem and Ramdas Pophale) SiO2 
 PCOD9460750
Probable space group: P B C A
;
_chemical_formula_sum "Si O2"
_cell_formula_units_Z 64
_cell_length_a 31.648261
_cell_length_b 9.448153
_cell_length_c 8.954774
_cell_angle_alpha 90.000000
_cell_angle_beta 90.000000
_cell_angle_gamma 90.000000
_cell_volume 2677.635138
_symmetry_space_group_name_H-M "P B C A"
_symmetry_group_IT_number 61
_symmetry_cell_setting 'orthorhombic'
loop_
_space_group_symop_operation_xyz
x,y,z
1/2-x,-y,1/2+z
1/2+x,1/2-y,-z
-x,1/2+y,1/2-z
-x,-y,-z
1/2+x,y,1/2-z
1/2-x,1/2+y,z
x,1/2-y,1/2+z
loop_
_atom_site_type_symbol
_atom_site_label
_atom_site_fract_x
_atom_site_fract_y
_atom_site_fract_z
Si Si1 0.099770 0.058009 0.927956
Si Si2 0.520148 0.309608 0.944705
Si Si3 0.280803 0.318315 0.241392
Si Si4 0.040373 0.745110 0.679590
Si Si5 0.570095 0.026199 0.905068
Si Si6 0.355624 0.853727 0.904338
Si Si7 0.740610 0.414568 0.570795
Si Si8 0.872596 0.098405 0.816799
O O1 0.077826 0.026747 0.772035
O O2 0.128880 0.193399 0.897367
O O3 0.063547 0.104637 0.045839
O O4 0.123626 0.928824 0.005728
O O5 0.490251 0.313124 0.802389
O O6 0.537351 0.146997 0.954725
O O7 0.491343 0.351471 0.084731
O O8 0.262175 0.168785 0.291545
O O9 0.265419 0.424628 0.373271
O O10 0.331584 0.313612 0.229642
O O11 0.264816 0.381044 0.082996
O O12 0.082971 0.667653 0.731023
O O13 0.054602 0.868510 0.565563
O O14 0.614383 0.064473 0.979969
O O15 0.307093 0.858943 0.947640
O O16 0.363367 0.943199 0.753495
#
# Coordination Sequence:
#
# PCOD9460750 Si02
#       8
#     8   8   8   8   8   8   8   8
#     4  11  24  43  69  98 133 181 231 294 339 419
#     4  11  24  42  63  98 132 180 238 281 344 416
#     4  11  27  48  74 113 150 193 243 306 370 450
#     4  12  25  41  67  95 139 185 224 293 350 412
#     4  11  24  41  65  99 136 181 233 289 352 416
#     4  10  24  44  71 100 134 180 236 287 349 428
#     4  11  26  46  78 108 148 192 243 301 370 451
#     4  11  27  45  67 103 144 175 235 294 359 420
#
# _framework density 23.901689000000001
#
# number of rings (size 3 to 8) (size 9 to 14) (size 15 to 20)
#    0.000    1.000    1.250    4.125   10.500    6.000 
#    0.000    0.000    0.000    0.000    0.000    0.000 
#    0.000    0.000    0.000    0.000    0.000    0.000 
#
# Total GULP energy -358201.926449 kJ/mol
# GULP energy per Si atom -5596.905101 kJ/mol
# Density = 2.384729 g / cm^3
# Si number density = 23.901689 Si / 1000 Ang^3
#
#
#
# Elastic Constant Matrix: (Units=GPa)
#
#
# Indices 1 2 3 4 5 6 
#
# 1 134.8463 11.6382 27.0724 0.0000 0.0000 0.0000
# 2 11.6382 41.7293 -23.3927 0.0000 0.0000 0.0000
# 3 27.0724 -23.3927 75.2362 0.0000 0.0000 0.0000
# 4 0.0000 0.0000 0.0000 20.5205 0.0000 0.0000
# 5 0.0000 0.0000 0.0000 0.0000 31.8684 0.0000
# 6 0.0000 0.0000 0.0000 0.0000 0.0000 19.9209
#
#
#
# Elastic Compliance Matrix: (Units=1/GPa)
#
#
# Indices 1 2 3 4 5 6 
#
# 1 0.008816 -0.005131 -0.004768 0.000000 0.000000 0.000000
# 2 -0.005131 0.032009 0.011799 0.000000 0.000000 0.000000
# 3 -0.004768 0.011799 0.018676 0.000000 0.000000 0.000000
# 4 0.000000 0.000000 0.000000 0.048732 0.000000 0.000000
# 5 0.000000 0.000000 0.000000 0.000000 0.031379 0.000000
# 6 0.000000 0.000000 0.000000 0.000000 0.000000 0.050198
#
#
# Mechanical properties :
#
#
# Convention : Reuss Voigt Hill
#
# Bulk Modulus (GPa) = 15.79768 31.38308 23.59038
# Shear Modulus (GPa) = 24.14165 30.22822 27.18493
#
# Velocity S-wave (km/s) = 3.18156 3.56011 3.37614
# Velocity P-wave (km/s) = 4.48556 5.48249 5.00889
#
# Compressibility (1/GPa) = 0.06330042
#
# Stress axis : x y z
#
# Youngs Moduli (GPa) = 113.43103 31.24080 53.54576
#
# Poissons Ratio (x) = 0.16031 0.25529
# Poissons Ratio (y) = 0.58207 -0.63178
# Poissons Ratio (z) = 0.54081 -0.36861
#
# Static dielectric constant tensor:
#      x y z
#    x 1.862930 0.000000 0.000000 
#    y 0.000000 1.973470 0.000000 
#    z 0.000000 0.000000 1.955580 
# 
# From -- ./inp_files/4640.got.cif
#   From: 2010.05.17/outbox.cif.g08.bks.cpg/sg61_3_cif.got.tgz:4640.got - 2010.06.03 15:17:17.
