data_PCOD9460590
_publ_section_title
;
Structure prediction by ZEFSAII (Michael W. Deem and Ramdas Pophale) SiO2 
 PCOD9460590
Probable space group: P B C A
;
_chemical_formula_sum "Si O2"
_cell_formula_units_Z 64
_cell_length_a 21.631515
_cell_length_b 8.563183
_cell_length_c 14.754019
_cell_angle_alpha 90.000000
_cell_angle_beta 90.000000
_cell_angle_gamma 90.000000
_cell_volume 2732.955125
_symmetry_space_group_name_H-M "P B C A"
_symmetry_group_IT_number 61
_symmetry_cell_setting 'orthorhombic'
loop_
_space_group_symop_operation_xyz
x,y,z
1/2-x,-y,1/2+z
1/2+x,1/2-y,-z
-x,1/2+y,1/2-z
-x,-y,-z
1/2+x,y,1/2-z
1/2-x,1/2+y,z
x,1/2-y,1/2+z
loop_
_atom_site_type_symbol
_atom_site_label
_atom_site_fract_x
_atom_site_fract_y
_atom_site_fract_z
Si Si1 0.558963 0.970840 0.243690
Si Si2 0.073538 0.283581 0.530364
Si Si3 0.160534 0.588320 0.287327
Si Si4 0.668578 0.019803 0.359127
Si Si5 0.588136 0.925918 0.901743
Si Si6 0.737689 0.310651 0.272241
Si Si7 0.931088 0.259197 0.577886
Si Si8 0.467567 0.739806 0.837121
O O1 0.561298 0.885548 0.147639
O O2 0.499038 0.910700 0.295624
O O3 0.619157 0.925291 0.299058
O O4 0.562998 0.157205 0.240420
O O5 0.123626 0.410066 0.563485
O O6 0.000753 0.318317 0.554471
O O7 0.075201 0.281993 0.422055
O O8 0.084859 0.106256 0.565855
O O9 0.130523 0.582377 0.186642
O O10 0.210696 0.726053 0.288146
O O11 0.198359 0.427757 0.289243
O O12 0.110640 0.621228 0.365213
O O13 0.695940 0.174600 0.312836
O O14 0.728202 0.905119 0.354930
O O15 0.522325 0.857106 0.868932
O O16 0.600970 0.811990 0.987670
#
# Coordination Sequence:
#
# PCOD9460590 Si02
#       8
#     8   8   8   8   8   8   8   8
#     4  12  22  39  65 100 139 185 218 270 346 416
#     4  11  22  39  66 105 144 177 223 283 351 423
#     4  11  22  43  70  95 133 186 229 287 343 398
#     4  11  23  41  70  94 128 180 231 281 343 402
#     4  11  20  38  67 102 137 185 217 276 349 411
#     4  10  23  43  69  93 127 181 241 286 333 397
#     4  11  21  39  66 105 141 179 222 274 348 419
#     4  11  23  39  65 101 150 177 218 275 342 429
#
# _framework density 23.417874000000001
#
# number of rings (size 3 to 8) (size 9 to 14) (size 15 to 20)
#    0.000    1.000    6.250    1.500    0.000    0.500 
#    0.000    2.500   11.000    0.000    0.000    0.000 
#    0.000    0.000    0.000    0.000    0.000    0.000 
#
# Total GULP energy -357773.861213 kJ/mol
# GULP energy per Si atom -5590.216581 kJ/mol
# Density = 2.336457 g / cm^3
# Si number density = 23.417874 Si / 1000 Ang^3
#
#
#
# Elastic Constant Matrix: (Units=GPa)
#
#
# Indices 1 2 3 4 5 6 
#
# 1 64.9685 41.0566 9.2732 0.0000 0.0000 0.0000
# 2 41.0566 112.5215 32.6559 0.0000 0.0000 0.0000
# 3 9.2732 32.6559 74.1789 0.0000 0.0000 0.0000
# 4 0.0000 0.0000 0.0000 28.0328 0.0000 0.0000
# 5 0.0000 0.0000 0.0000 0.0000 18.6723 0.0000
# 6 0.0000 0.0000 0.0000 0.0000 0.0000 51.0687
#
#
#
# Elastic Compliance Matrix: (Units=1/GPa)
#
#
# Indices 1 2 3 4 5 6 
#
# 1 0.020048 -0.007553 0.000819 0.000000 0.000000 0.000000
# 2 -0.007553 0.013034 -0.004794 0.000000 0.000000 0.000000
# 3 0.000819 -0.004794 0.015489 0.000000 0.000000 0.000000
# 4 0.000000 0.000000 0.000000 0.035673 0.000000 0.000000
# 5 0.000000 0.000000 0.000000 0.000000 0.053555 0.000000
# 6 0.000000 0.000000 0.000000 0.000000 0.000000 0.019581
#
#
# Mechanical properties :
#
#
# Convention : Reuss Voigt Hill
#
# Bulk Modulus (GPa) = 39.19176 46.40444 42.79810
# Shear Modulus (GPa) = 26.46315 30.80029 28.63172
#
# Velocity S-wave (km/s) = 3.36525 3.63057 3.50043
# Velocity P-wave (km/s) = 5.64554 6.11830 5.88666
#
# Compressibility (1/GPa) = 0.02551557
#
# Stress axis : x y z
#
# Youngs Moduli (GPa) = 49.87993 76.72062 64.56184
#
# Poissons Ratio (x) = 0.57945 -0.05286
# Poissons Ratio (y) = 0.37673 0.30951
# Poissons Ratio (z) = -0.04084 0.36779
#
# Static dielectric constant tensor:
#      x y z
#    x 1.917940 0.000000 0.000000 
#    y 0.000000 1.963370 0.000000 
#    z 0.000000 0.000000 1.903060 
# 
# From -- ./inp_files/8538.got.cif
#   From: 2010.05.17/outbox.cif.g08.bks.cpg/sg61_5_cif.got.tgz:8538.got - 2010.06.03 15:17:17.
