data_PCOD9460236
_publ_section_title
;
Structure prediction by ZEFSAII (Michael W. Deem and Ramdas Pophale) SiO2 
 PCOD9460236
Probable space group: P B C A
;
_chemical_formula_sum "Si O2"
_cell_formula_units_Z 48
_cell_length_a 10.854131
_cell_length_b 16.742730
_cell_length_c 11.827754
_cell_angle_alpha 90.000000
_cell_angle_beta 90.000000
_cell_angle_gamma 90.000000
_cell_volume 2149.431533
_symmetry_space_group_name_H-M "P B C A"
_symmetry_group_IT_number 61
_symmetry_cell_setting 'orthorhombic'
loop_
_space_group_symop_operation_xyz
x,y,z
1/2-x,-y,1/2+z
1/2+x,1/2-y,-z
-x,1/2+y,1/2-z
-x,-y,-z
1/2+x,y,1/2-z
1/2-x,1/2+y,z
x,1/2-y,1/2+z
loop_
_atom_site_type_symbol
_atom_site_label
_atom_site_fract_x
_atom_site_fract_y
_atom_site_fract_z
Si Si1 0.497490 0.820202 0.189793
Si Si2 0.476845 0.415614 0.638614
Si Si3 0.163535 0.546367 0.915875
Si Si4 0.846963 0.802617 0.518577
Si Si5 0.405884 0.143609 0.372316
Si Si6 0.407091 0.873640 0.433680
O O1 0.604922 0.876586 0.143810
O O2 0.540032 0.729741 0.167801
O O3 0.467250 0.846743 0.315951
O O4 0.377648 0.830433 0.108686
O O5 0.385434 0.451691 0.544989
O O6 0.596385 0.472488 0.643407
O O7 0.533415 0.332950 0.589273
O O8 0.411316 0.406550 0.757713
O O9 0.309129 0.556276 0.915441
O O10 0.726415 0.840507 0.572902
O O11 0.837256 0.707056 0.523699
O O12 0.493967 0.109318 0.469560
#
# Coordination Sequence:
#
# PCOD9460236 Si02
#       6
#     8   8   8   8   8   8
#     4  10  22  40  63  95 128 164 211 266 318 371
#     4  10  23  44  64  92 128 171 206 259 328 379
#     4  10  23  44  65  89 132 169 206 261 330 379
#     4  10  22  39  63  95 125 163 210 263 312 379
#     4  11  23  38  69  97 124 164 222 262 314 383
#     4  11  23  39  66  96 123 166 210 265 319 370
#
# _framework density 22.331486000000002
#
# number of rings (size 3 to 8) (size 9 to 14) (size 15 to 20)
#    0.000    1.667    3.333    0.000    4.667    1.333 
#    6.000    1.667    0.000    0.000    0.000    0.000 
#    0.000    0.000    0.000    0.000    0.000    0.000 
#
# Total GULP energy -268408.826840 kJ/mol
# GULP energy per Si atom -5591.850559 kJ/mol
# Density = 2.228066 g / cm^3
# Si number density = 22.331486 Si / 1000 Ang^3
#
#
#
# Elastic Constant Matrix: (Units=GPa)
#
#
# Indices 1 2 3 4 5 6 
#
# 1 52.5063 -6.3587 0.7395 0.0000 0.0000 0.0000
# 2 -6.3587 37.5708 -4.8836 0.0000 0.0000 0.0000
# 3 0.7395 -4.8836 97.1537 0.0000 0.0000 0.0000
# 4 0.0000 0.0000 0.0000 19.6884 0.0000 0.0000
# 5 0.0000 0.0000 0.0000 0.0000 9.9058 0.0000
# 6 0.0000 0.0000 0.0000 0.0000 0.0000 32.8184
#
#
#
# Elastic Compliance Matrix: (Units=1/GPa)
#
#
# Indices 1 2 3 4 5 6 
#
# 1 0.019444 0.003293 0.000018 0.000000 0.000000 0.000000
# 2 0.003293 0.027349 0.001350 0.000000 0.000000 0.000000
# 3 0.000018 0.001350 0.010361 0.000000 0.000000 0.000000
# 4 0.000000 0.000000 0.000000 0.050791 0.000000 0.000000
# 5 0.000000 0.000000 0.000000 0.000000 0.100951 0.000000
# 6 0.000000 0.000000 0.000000 0.000000 0.000000 0.030471
#
#
# Mechanical properties :
#
#
# Convention : Reuss Voigt Hill
#
# Bulk Modulus (GPa) = 15.04341 18.46948 16.75644
# Shear Modulus (GPa) = 19.82522 25.66477 22.74499
#
# Velocity S-wave (km/s) = 2.98278 3.39376 3.19488
# Velocity P-wave (km/s) = 4.31436 4.86265 4.59668
#
# Compressibility (1/GPa) = 0.06647429
#
# Stress axis : x y z
#
# Youngs Moduli (GPa) = 51.43007 36.56418 96.51877
#
# Poissons Ratio (x) = -0.12041 -0.00169
# Poissons Ratio (y) = -0.16936 -0.13027
# Poissons Ratio (z) = -0.00090 -0.04935
#
# Static dielectric constant tensor:
#      x y z
#    x 1.801610 0.000000 0.000000 
#    y 0.000000 1.880820 0.000000 
#    z 0.000000 0.000000 1.790100 
# 
# From -- ./inp_files/5231.got.cif
#   From: 2010.05.17/outbox.cif.g08.bks.cpg/sg61_3_cif.got.tgz:5231.got - 2010.06.03 15:17:17.
