data_PCOD9460386
_publ_section_title
;
Structure prediction by ZEFSAII (Michael W. Deem and Ramdas Pophale) SiO2 
 PCOD9460386
Probable space group: P B C A
;
_chemical_formula_sum "Si O2"
_cell_formula_units_Z 64
_cell_length_a 28.638899
_cell_length_b 10.310993
_cell_length_c 8.968625
_cell_angle_alpha 90.000000
_cell_angle_beta 90.000000
_cell_angle_gamma 90.000000
_cell_volume 2648.394488
_symmetry_space_group_name_H-M "P B C A"
_symmetry_group_IT_number 61
_symmetry_cell_setting 'orthorhombic'
loop_
_space_group_symop_operation_xyz
x,y,z
1/2-x,-y,1/2+z
1/2+x,1/2-y,-z
-x,1/2+y,1/2-z
-x,-y,-z
1/2+x,y,1/2-z
1/2-x,1/2+y,z
x,1/2-y,1/2+z
loop_
_atom_site_type_symbol
_atom_site_label
_atom_site_fract_x
_atom_site_fract_y
_atom_site_fract_z
Si Si1 0.063048 0.153614 0.028966
Si Si2 0.486422 0.166719 0.855046
Si Si3 0.255213 0.578582 0.184821
Si Si4 0.078208 0.740085 0.614646
Si Si5 0.568366 0.007052 0.765205
Si Si6 0.375380 0.877227 0.985399
Si Si7 0.728433 0.334584 0.489821
Si Si8 0.861988 0.011487 0.803395
O O1 0.056457 0.048014 0.901342
O O2 0.083544 0.278837 0.941728
O O3 0.019835 0.207425 0.123180
O O4 0.104259 0.098021 0.129862
O O5 0.462657 0.158030 0.694025
O O6 0.522137 0.046115 0.859679
O O7 0.445220 0.191695 0.972486
O O8 0.247529 0.618724 0.356844
O O9 0.308601 0.527132 0.172595
O O10 0.249744 0.707238 0.084477
O O11 0.226682 0.456560 0.123096
O O12 0.122625 0.646140 0.619741
O O13 0.084334 0.860391 0.725789
O O14 0.610104 0.083907 0.847391
O O15 0.325756 0.806733 0.973643
O O16 0.371339 0.999757 0.874566
#
# Coordination Sequence:
#
# PCOD9460386 Si02
#       8
#     8   8   8   8   8   8   8   8
#     4  11  22  41  66  94 128 176 229 283 332 415
#     4  11  24  41  60  91 128 180 236 283 343 406
#     4  11  25  47  75 111 151 188 242 298 368 448
#     4  12  25  41  61  93 136 178 227 293 347 407
#     4  11  24  39  63  94 132 178 231 284 355 410
#     4  10  22  42  69  97 130 175 230 274 344 418
#     4  11  24  45  76 109 145 191 236 296 364 445
#     4  11  25  42  68  99 141 173 229 287 348 421
#
# _framework density 24.165585
#
# number of rings (size 3 to 8) (size 9 to 14) (size 15 to 20)
#    0.000    1.000    2.500    4.125    5.250    3.000 
#    0.000    2.500    0.000    0.000    0.000    0.000 
#    0.000    0.000    0.000    0.000    0.000    0.000 
#
# Total GULP energy -357682.812599 kJ/mol
# GULP energy per Si atom -5588.793947 kJ/mol
# Density = 2.411058 g / cm^3
# Si number density = 24.165585 Si / 1000 Ang^3
#
#
#
# Elastic Constant Matrix: (Units=GPa)
#
#
# Indices 1 2 3 4 5 6 
#
# 1 27.1039 2.5779 15.9453 0.0000 0.0000 0.0000
# 2 2.5779 106.7321 5.4451 0.0000 0.0000 0.0000
# 3 15.9453 5.4451 83.2719 0.0000 0.0000 0.0000
# 4 0.0000 0.0000 0.0000 34.7053 0.0000 0.0000
# 5 0.0000 0.0000 0.0000 0.0000 25.2163 0.0000
# 6 0.0000 0.0000 0.0000 0.0000 0.0000 30.0193
#
#
#
# Elastic Compliance Matrix: (Units=1/GPa)
#
#
# Indices 1 2 3 4 5 6 
#
# 1 0.041617 -0.000601 -0.007930 0.000000 0.000000 0.000000
# 2 -0.000601 0.009409 -0.000500 0.000000 0.000000 0.000000
# 3 -0.007930 -0.000500 0.013560 0.000000 0.000000 0.000000
# 4 0.000000 0.000000 0.000000 0.028814 0.000000 0.000000
# 5 0.000000 0.000000 0.000000 0.000000 0.039657 0.000000
# 6 0.000000 0.000000 0.000000 0.000000 0.000000 0.033312
#
#
# Mechanical properties :
#
#
# Convention : Reuss Voigt Hill
#
# Bulk Modulus (GPa) = 21.49370 29.44939 25.47155
# Shear Modulus (GPa) = 25.00758 30.86414 27.93586
#
# Velocity S-wave (km/s) = 3.22039 3.57766 3.40372
# Velocity P-wave (km/s) = 4.76881 5.41102 5.10003
#
# Compressibility (1/GPa) = 0.04652525
#
# Stress axis : x y z
#
# Youngs Moduli (GPa) = 24.02843 106.27806 73.74629
#
# Poissons Ratio (x) = 0.06383 0.58480
# Poissons Ratio (y) = 0.01443 0.03689
# Poissons Ratio (z) = 0.19054 0.05317
#
# Static dielectric constant tensor:
#      x y z
#    x 1.910010 0.000000 0.000000 
#    y 0.000000 1.961700 0.000000 
#    z 0.000000 0.000000 2.048070 
# 
# From -- ./inp_files/4639.got.cif
#   From: 2010.05.17/outbox.cif.g08.bks.cpg/sg61_3_cif.got.tgz:4639.got - 2010.06.03 15:17:17.
