data_PCOD9460080
_publ_section_title
;
Structure prediction by ZEFSAII (Michael W. Deem and Ramdas Pophale) SiO2 
 PCOD9460080
Probable space group: P B C A
;
_chemical_formula_sum "Si O2"
_cell_formula_units_Z 56
_cell_length_a 9.260069
_cell_length_b 21.346491
_cell_length_c 12.831766
_cell_angle_alpha 90.000000
_cell_angle_beta 90.000000
_cell_angle_gamma 90.000000
_cell_volume 2536.454923
_symmetry_space_group_name_H-M "P B C A"
_symmetry_group_IT_number 61
_symmetry_cell_setting 'orthorhombic'
loop_
_space_group_symop_operation_xyz
x,y,z
1/2-x,-y,1/2+z
1/2+x,1/2-y,-z
-x,1/2+y,1/2-z
-x,-y,-z
1/2+x,y,1/2-z
1/2-x,1/2+y,z
x,1/2-y,1/2+z
loop_
_atom_site_type_symbol
_atom_site_label
_atom_site_fract_x
_atom_site_fract_y
_atom_site_fract_z
Si Si1 0.282927 0.875053 0.706305
Si Si2 0.595823 0.326831 0.156038
Si Si3 0.675325 0.994113 0.883124
Si Si4 0.022071 0.832669 0.939323
Si Si5 0.995258 0.467572 0.306798
Si Si6 0.641854 0.753829 0.222342
Si Si7 0.779401 0.442085 0.579553
O O1 0.439340 0.865923 0.656251
O O2 0.217623 0.806609 0.725876
O O3 0.287032 0.911436 0.816357
O O4 0.192739 0.919170 0.627828
O O5 0.540592 0.395944 0.179974
O O6 0.488032 0.276827 0.207054
O O7 0.749632 0.310865 0.204238
O O8 0.587420 0.319296 0.031830
O O9 0.544114 0.014123 0.809649
O O10 0.828248 0.019244 0.833137
O O11 0.676684 0.022939 0.998217
O O12 0.089706 0.770858 0.890137
O O13 0.142163 0.882602 0.974986
O O14 0.097254 0.508955 0.383438
#
# Coordination Sequence:
#
# PCOD9460080 Si02
#       7
#     8   8   8   8   8   8   8
#     4  10  22  42  70  94 135 170 223 275 322 403
#     4  12  25  42  68  93 137 177 222 275 324 397
#     4  11  21  40  69 100 127 172 215 274 340 396
#     4  11  22  43  70  91 130 182 218 268 339 390
#     4  11  22  39  66  97 133 164 217 273 334 394
#     4  11  26  44  62  97 133 176 230 272 320 393
#     4  10  21  41  70  99 128 173 215 272 344 403
#
# _framework density 22.078059
#
# number of rings (size 3 to 8) (size 9 to 14) (size 15 to 20)
#    0.000    1.143    4.286    2.143    2.000    0.000 
#    2.571    2.857    6.286    0.000    0.000    0.000 
#    0.000    0.000    0.000    0.000    0.000    0.000 
#
# Total GULP energy -313239.726440 kJ/mol
# GULP energy per Si atom -5593.566544 kJ/mol
# Density = 2.202781 g / cm^3
# Si number density = 22.078059 Si / 1000 Ang^3
#
#
#
# Elastic Constant Matrix: (Units=GPa)
#
#
# Indices 1 2 3 4 5 6 
#
# 1 44.2201 5.3289 15.9910 0.0000 0.0000 0.0000
# 2 5.3289 81.2514 -0.1038 0.0000 0.0000 0.0000
# 3 15.9910 -0.1038 67.1226 0.0000 0.0000 0.0000
# 4 0.0000 0.0000 0.0000 18.3166 0.0000 0.0000
# 5 0.0000 0.0000 0.0000 0.0000 14.3599 0.0000
# 6 0.0000 0.0000 0.0000 0.0000 0.0000 112.7651
#
#
#
# Elastic Compliance Matrix: (Units=1/GPa)
#
#
# Indices 1 2 3 4 5 6 
#
# 1 0.024964 -0.001645 -0.005950 0.000000 0.000000 0.000000
# 2 -0.001645 0.012416 0.000411 0.000000 0.000000 0.000000
# 3 -0.005950 0.000411 0.016316 0.000000 0.000000 0.000000
# 4 0.000000 0.000000 0.000000 0.054595 0.000000 0.000000
# 5 0.000000 0.000000 0.000000 0.000000 0.069639 0.000000
# 6 0.000000 0.000000 0.000000 0.000000 0.000000 0.008868
#
#
# Mechanical properties :
#
#
# Convention : Reuss Voigt Hill
#
# Bulk Modulus (GPa) = 25.42669 26.11404 25.77036
# Shear Modulus (GPa) = 23.33452 40.51351 31.92402
#
# Velocity S-wave (km/s) = 3.25454 4.28835 3.80670
# Velocity P-wave (km/s) = 5.06601 6.03106 5.56948
#
# Compressibility (1/GPa) = 0.03932876
#
# Stress axis : x y z
#
# Youngs Moduli (GPa) = 40.05773 80.54196 61.28878
#
# Poissons Ratio (x) = 0.13248 0.36466
# Poissons Ratio (y) = 0.06589 -0.02519
# Poissons Ratio (z) = 0.23834 -0.03311
#
# Static dielectric constant tensor:
#      x y z
#    x 1.829140 0.000000 0.000000 
#    y 0.000000 1.802170 0.000000 
#    z 0.000000 0.000000 1.822500 
# 
# From -- ./inp_files/7149.got.cif
#   From: 2010.05.17/outbox.cif.g08.bks.cpg/sg61_4_cif.got.tgz:7149.got - 2010.06.03 15:17:17.
