data_PCOD9460129
_publ_section_title
;
Structure prediction by ZEFSAII (Michael W. Deem and Ramdas Pophale) SiO2 
 PCOD9460129
Probable space group: P B C A
;
_chemical_formula_sum "Si O2"
_cell_formula_units_Z 52
_cell_length_a 13.672085
_cell_length_b 7.085681
_cell_length_c 21.579848
_cell_angle_alpha 90.000000
_cell_angle_beta 90.000000
_cell_angle_gamma 90.000000
_cell_volume 2090.570065
_symmetry_space_group_name_H-M "P B C A"
_symmetry_group_IT_number 61
_symmetry_cell_setting 'orthorhombic'
loop_
_space_group_symop_operation_xyz
x,y,z
1/2-x,-y,1/2+z
1/2+x,1/2-y,-z
-x,1/2+y,1/2-z
-x,-y,-z
1/2+x,y,1/2-z
1/2-x,1/2+y,z
x,1/2-y,1/2+z
loop_
_atom_site_type_symbol
_atom_site_label
_atom_site_fract_x
_atom_site_fract_y
_atom_site_fract_z
Si Si1 0.649152 0.009926 0.425045
Si Si2 0.500000 0.500000 0.000000
Si Si3 0.821934 0.164579 0.503049
Si Si4 0.867745 0.698991 0.069983
Si Si5 0.589161 0.671159 0.801575
Si Si6 0.115536 0.460663 0.261829
Si Si7 0.680092 0.416483 0.705805
O O1 0.555917 0.132239 0.441893
O O2 0.620600 0.851673 0.480231
O O3 0.647457 0.909382 0.359928
O O4 0.751795 0.096592 0.446016
O O5 0.559909 0.365657 0.052883
O O6 0.742299 0.230961 0.553109
O O7 0.881102 0.990030 0.528850
O O8 0.866516 0.636877 0.140917
O O9 0.482655 0.577907 0.799377
O O10 0.592584 0.897103 0.794420
O O11 0.634554 0.597607 0.737578
O O12 0.155575 0.252163 0.245642
O O13 0.205417 0.544164 0.300855
#
# Coordination Sequence:
#
# PCOD9460129 Si02
#       7
#     8   4   8   8   8   8   8
#     4  10  23  43  65  96 136 177 230 295 357 438
#     4  10  22  42  64  96 142 180 230 304 358 418
#     4   9  21  41  69  96 132 181 239 287 364 439
#     4  10  21  43  67 104 137 187 244 301 368 455
#     4  12  27  46  69 111 147 190 250 310 376 456
#     4  12  26  46  69 109 144 193 248 302 383 446
#     4  12  25  45  75 107 147 203 248 311 390 449
#
# _framework density 24.873597
#
# number of rings (size 3 to 8) (size 9 to 14) (size 15 to 20)
#    0.000    1.231    3.077    1.846    2.154    3.077 
#    5.538    0.000    0.000    0.000    0.000    0.000 
#    0.000    0.000    0.000    0.000    0.000    0.000 
#
# Total GULP energy -289922.565992 kJ/mol
# GULP energy per Si atom -5575.433961 kJ/mol
# Density = 2.481698 g / cm^3
# Si number density = 24.873597 Si / 1000 Ang^3
#
#
#
# Elastic Constant Matrix: (Units=GPa)
#
#
# Indices 1 2 3 4 5 6 
#
# 1 115.3801 24.7025 36.5783 0.0000 0.0000 0.0000
# 2 24.7025 108.5148 16.0054 0.0000 0.0000 0.0000
# 3 36.5783 16.0054 51.4724 0.0000 0.0000 0.0000
# 4 0.0000 0.0000 0.0000 28.2269 0.0000 0.0000
# 5 0.0000 0.0000 0.0000 0.0000 17.2064 0.0000
# 6 0.0000 0.0000 0.0000 0.0000 0.0000 41.8131
#
#
#
# Elastic Compliance Matrix: (Units=1/GPa)
#
#
# Indices 1 2 3 4 5 6 
#
# 1 0.011406 -0.001468 -0.007649 0.000000 0.000000 0.000000
# 2 -0.001468 0.009847 -0.002019 0.000000 0.000000 0.000000
# 3 -0.007649 -0.002019 0.025491 0.000000 0.000000 0.000000
# 4 0.000000 0.000000 0.000000 0.035427 0.000000 0.000000
# 5 0.000000 0.000000 0.000000 0.000000 0.058118 0.000000
# 6 0.000000 0.000000 0.000000 0.000000 0.000000 0.023916
#
#
# Mechanical properties :
#
#
# Convention : Reuss Voigt Hill
#
# Bulk Modulus (GPa) = 40.86170 47.77109 44.31639
# Shear Modulus (GPa) = 25.68896 30.65467 28.17182
#
# Velocity S-wave (km/s) = 3.21718 3.51439 3.36906
# Velocity P-wave (km/s) = 5.50125 5.97622 5.74364
#
# Compressibility (1/GPa) = 0.02447280
#
# Stress axis : x y z
#
# Youngs Moduli (GPa) = 87.67034 101.55042 39.22892
#
# Poissons Ratio (x) = 0.14911 0.30007
# Poissons Ratio (y) = 0.12873 0.07919
# Poissons Ratio (z) = 0.67061 0.20499
#
# Static dielectric constant tensor:
#      x y z
#    x 2.535260 0.000000 0.000000 
#    y 0.000000 2.148180 0.000000 
#    z 0.000000 0.000000 1.992180 
# 
# From -- ./inp_files/10428.got.cif
#   From: 2010.05.17/outbox.cif.g08.bks.cpg/sg61_6_cif.got.tgz:10428.got - 2010.06.03 15:17:17.
