data_PCOD9460704
_publ_section_title
;
Structure prediction by ZEFSAII (Michael W. Deem and Ramdas Pophale) SiO2 
 PCOD9460704
Probable space group: P B C A
;
_chemical_formula_sum "Si O2"
_cell_formula_units_Z 60
_cell_length_a 8.410754
_cell_length_b 19.301829
_cell_length_c 16.569736
_cell_angle_alpha 90.000000
_cell_angle_beta 90.000000
_cell_angle_gamma 90.000000
_cell_volume 2689.979582
_symmetry_space_group_name_H-M "P B C A"
_symmetry_group_IT_number 61
_symmetry_cell_setting 'orthorhombic'
loop_
_space_group_symop_operation_xyz
x,y,z
1/2-x,-y,1/2+z
1/2+x,1/2-y,-z
-x,1/2+y,1/2-z
-x,-y,-z
1/2+x,y,1/2-z
1/2-x,1/2+y,z
x,1/2-y,1/2+z
loop_
_atom_site_type_symbol
_atom_site_label
_atom_site_fract_x
_atom_site_fract_y
_atom_site_fract_z
Si Si1 0.162544 0.709113 0.642269
Si Si2 0.843908 0.361364 0.806265
Si Si3 0.181769 0.455460 0.575759
Si Si4 0.874545 0.399158 0.490222
Si Si5 0.624054 0.138593 0.725087
Si Si6 0.800158 0.905099 0.654322
Si Si7 0.599645 0.944797 0.168302
Si Si8 0.000000 0.000000 0.500000
O O1 0.197693 0.789842 0.649974
O O2 0.150392 0.672289 0.555923
O O3 0.294110 0.670401 0.695868
O O4 0.992639 0.693295 0.683887
O O5 0.729405 0.421150 0.840441
O O6 0.818672 0.361226 0.709829
O O7 0.023948 0.378103 0.829086
O O8 0.129871 0.536100 0.572072
O O9 0.340248 0.454672 0.522012
O O10 0.039584 0.410997 0.536671
O O11 0.737715 0.407109 0.558634
O O12 0.765597 0.114399 0.666510
O O13 0.514854 0.075886 0.757934
O O14 0.801105 0.984972 0.679670
O O15 0.494800 0.961956 0.090118
#
# Coordination Sequence:
#
# PCOD9460704 Si02
#       8
#     8   8   8   8   8   8   8   4
#     4  11  25  46  67 100 135 189 223 287 343 435
#     4  12  26  44  70  97 145 181 233 273 362 416
#     4  11  23  42  66 101 136 180 226 298 336 413
#     4  11  25  43  70 101 141 175 242 286 355 398
#     4  10  24  41  68  94 135 175 234 278 347 414
#     4  12  25  43  69 104 135 182 226 297 341 418
#     4  11  22  39  68 100 129 171 227 294 345 402
#     4  12  20  40  62 100 132 168 222 286 348 398
#
# _framework density 22.305002000000002
#
# number of rings (size 3 to 8) (size 9 to 14) (size 15 to 20)
#    0.000    0.800    2.667    4.000    5.600    1.067 
#    0.000    2.667    0.000    0.000    0.000    0.000 
#    0.000    0.000    0.000    0.000    0.000    0.000 
#
# Total GULP energy -334477.272026 kJ/mol
# GULP energy per Si atom -5574.621200 kJ/mol
# Density = 2.225423 g / cm^3
# Si number density = 22.305002 Si / 1000 Ang^3
#
#
#
# Elastic Constant Matrix: (Units=GPa)
#
#
# Indices 1 2 3 4 5 6 
#
# 1 71.9483 -7.0657 15.5676 0.0000 0.0000 0.0000
# 2 -7.0657 55.4319 30.3539 0.0000 0.0000 0.0000
# 3 15.5676 30.3539 89.9288 0.0000 0.0000 0.0000
# 4 0.0000 0.0000 0.0000 26.5085 0.0000 0.0000
# 5 0.0000 0.0000 0.0000 0.0000 38.7802 0.0000
# 6 0.0000 0.0000 0.0000 0.0000 0.0000 15.0377
#
#
#
# Elastic Compliance Matrix: (Units=1/GPa)
#
#
# Indices 1 2 3 4 5 6 
#
# 1 0.015176 0.004138 -0.004024 0.000000 0.000000 0.000000
# 2 0.004138 0.023259 -0.008567 0.000000 0.000000 0.000000
# 3 -0.004024 -0.008567 0.014708 0.000000 0.000000 0.000000
# 4 0.000000 0.000000 0.000000 0.037724 0.000000 0.000000
# 5 0.000000 0.000000 0.000000 0.000000 0.025786 0.000000
# 6 0.000000 0.000000 0.000000 0.000000 0.000000 0.066499
#
#
# Mechanical properties :
#
#
# Convention : Reuss Voigt Hill
#
# Bulk Modulus (GPa) = 27.59619 32.78010 30.18814
# Shear Modulus (GPa) = 23.56971 27.96218 25.76594
#
# Velocity S-wave (km/s) = 3.25422 3.54450 3.40246
# Velocity P-wave (km/s) = 5.14966 5.61066 5.38510
#
# Compressibility (1/GPa) = 0.03623689
#
# Stress axis : x y z
#
# Youngs Moduli (GPa) = 65.89426 42.99472 67.99002
#
# Poissons Ratio (x) = -0.17790 0.27357
# Poissons Ratio (y) = -0.27265 0.58246
# Poissons Ratio (z) = 0.26514 0.36833
#
# Static dielectric constant tensor:
#      x y z
#    x 1.915820 0.000000 0.000000 
#    y 0.000000 1.839660 0.000000 
#    z 0.000000 0.000000 1.809580 
# 
# From -- ./inp_files/8981.got.cif
#   From: 2010.05.17/outbox.cif.g08.bks.cpg/sg61_5_cif.got.tgz:8981.got - 2010.06.03 15:17:17.
