data_PCOD9460416
_publ_section_title
;
Structure prediction by ZEFSAII (Michael W. Deem and Ramdas Pophale) SiO2 
 PCOD9460416
Probable space group: P B C A
;
_chemical_formula_sum "Si O2"
_cell_formula_units_Z 64
_cell_length_a 18.885879
_cell_length_b 9.711610
_cell_length_c 13.832683
_cell_angle_alpha 90.000000
_cell_angle_beta 90.000000
_cell_angle_gamma 90.000000
_cell_volume 2537.084085
_symmetry_space_group_name_H-M "P B C A"
_symmetry_group_IT_number 61
_symmetry_cell_setting 'orthorhombic'
loop_
_space_group_symop_operation_xyz
x,y,z
1/2-x,-y,1/2+z
1/2+x,1/2-y,-z
-x,1/2+y,1/2-z
-x,-y,-z
1/2+x,y,1/2-z
1/2-x,1/2+y,z
x,1/2-y,1/2+z
loop_
_atom_site_type_symbol
_atom_site_label
_atom_site_fract_x
_atom_site_fract_y
_atom_site_fract_z
Si Si1 0.390744 0.291435 0.361686
Si Si2 0.010808 0.642688 0.684103
Si Si3 0.990831 0.689007 0.018469
Si Si4 0.368104 0.749490 0.769225
Si Si5 0.142552 0.055267 0.453966
Si Si6 0.783764 0.191962 0.278310
Si Si7 0.230906 0.936495 0.095063
Si Si8 0.405744 0.584169 0.074640
O O1 0.437943 0.358548 0.276200
O O2 0.449100 0.265405 0.443288
O O3 0.341379 0.403566 0.414338
O O4 0.341065 0.182949 0.306868
O O5 0.017991 0.789612 0.627603
O O6 0.928889 0.636151 0.716453
O O7 0.037711 0.526265 0.611793
O O8 0.934515 0.813731 0.004621
O O9 0.936820 0.561030 0.999646
O O10 0.366970 0.854323 0.858682
O O11 0.285195 0.723403 0.758279
O O12 0.389550 0.826265 0.670409
O O13 0.203308 0.100993 0.526863
O O14 0.806323 0.300824 0.360821
O O15 0.759899 0.049262 0.326982
O O16 0.166833 0.013675 0.041681
#
# Coordination Sequence:
#
# PCOD9460416 Si02
#       8
#     8   8   8   8   8   8   8   8
#     4  12  24  44  70 102 141 183 238 297 352 435
#     4  11  23  42  69 100 138 183 232 299 359 428
#     4  11  26  43  68 105 139 188 236 300 371 430
#     4  10  22  43  69  96 143 189 234 297 373 426
#     4  11  24  44  69 102 140 190 244 299 361 441
#     4  11  25  47  68 106 143 191 245 297 364 433
#     4  11  25  44  73 102 145 192 240 303 355 435
#     4  11  21  45  66  99 144 181 238 299 361 436
#
# _framework density 25.225809999999999
#
# number of rings (size 3 to 8) (size 9 to 14) (size 15 to 20)
#    0.000    1.000    3.750    3.000    1.750    5.000 
#    0.000    0.000    0.000    0.000    0.000    0.000 
#    0.000    0.000    0.000    0.000    0.000    0.000 
#
# Total GULP energy -357615.607967 kJ/mol
# GULP energy per Si atom -5587.743874 kJ/mol
# Density = 2.516840 g / cm^3
# Si number density = 25.225810 Si / 1000 Ang^3
#
#
#
# Elastic Constant Matrix: (Units=GPa)
#
#
# Indices 1 2 3 4 5 6 
#
# 1 98.3890 -4.9852 22.4660 0.0000 0.0000 0.0000
# 2 -4.9852 37.6782 8.5027 0.0000 0.0000 0.0000
# 3 22.4660 8.5027 76.8765 0.0000 0.0000 0.0000
# 4 0.0000 0.0000 0.0000 20.6204 0.0000 0.0000
# 5 0.0000 0.0000 0.0000 0.0000 38.9849 0.0000
# 6 0.0000 0.0000 0.0000 0.0000 0.0000 37.7821
#
#
#
# Elastic Compliance Matrix: (Units=1/GPa)
#
#
# Indices 1 2 3 4 5 6 
#
# 1 0.011074 0.002252 -0.003485 0.000000 0.000000 0.000000
# 2 0.002252 0.027678 -0.003719 0.000000 0.000000 0.000000
# 3 -0.003485 -0.003719 0.014438 0.000000 0.000000 0.000000
# 4 0.000000 0.000000 0.000000 0.048496 0.000000 0.000000
# 5 0.000000 0.000000 0.000000 0.000000 0.025651 0.000000
# 6 0.000000 0.000000 0.000000 0.000000 0.000000 0.026468
#
#
# Mechanical properties :
#
#
# Convention : Reuss Voigt Hill
#
# Bulk Modulus (GPa) = 23.10343 29.43453 26.26898
# Shear Modulus (GPa) = 28.06835 31.94149 30.00492
#
# Velocity S-wave (km/s) = 3.33931 3.56226 3.45259
# Velocity P-wave (km/s) = 4.90372 5.34915 5.13127
#
# Compressibility (1/GPa) = 0.04328362
#
# Stress axis : x y z
#
# Youngs Moduli (GPa) = 90.30477 36.13005 69.26301
#
# Poissons Ratio (x) = -0.08135 0.24139
# Poissons Ratio (y) = -0.20333 0.25761
# Poissons Ratio (z) = 0.31472 0.13438
#
# Static dielectric constant tensor:
#      x y z
#    x 2.036360 0.000000 0.000000 
#    y 0.000000 2.049040 0.000000 
#    z 0.000000 0.000000 2.041710 
# 
# From -- ./inp_files/8203.got.cif
#   From: 2010.05.17/outbox.cif.g08.bks.cpg/sg61_5_cif.got.tgz:8203.got - 2010.06.03 15:17:17.
