data_PCOD9460662
_publ_section_title
;
Structure prediction by ZEFSAII (Michael W. Deem and Ramdas Pophale) SiO2 
 PCOD9460662
Probable space group: P B C A
;
_chemical_formula_sum "Si O2"
_cell_formula_units_Z 40
_cell_length_a 7.076955
_cell_length_b 9.409715
_cell_length_c 23.890158
_cell_angle_alpha 90.000000
_cell_angle_beta 90.000000
_cell_angle_gamma 90.000000
_cell_volume 1590.896498
_symmetry_space_group_name_H-M "P B C A"
_symmetry_group_IT_number 61
_symmetry_cell_setting 'orthorhombic'
loop_
_space_group_symop_operation_xyz
x,y,z
1/2-x,-y,1/2+z
1/2+x,1/2-y,-z
-x,1/2+y,1/2-z
-x,-y,-z
1/2+x,y,1/2-z
1/2-x,1/2+y,z
x,1/2-y,1/2+z
loop_
_atom_site_type_symbol
_atom_site_label
_atom_site_fract_x
_atom_site_fract_y
_atom_site_fract_z
Si Si1 0.799940 0.529477 0.664147
Si Si2 0.502331 0.296411 0.548191
Si Si3 0.551437 0.752776 0.707739
Si Si4 0.736496 0.044603 0.539206
Si Si5 0.375571 0.258128 0.170991
O O1 0.669078 0.606995 0.708979
O O2 0.826943 0.363615 0.671824
O O3 0.716136 0.576069 0.604475
O O4 0.011050 0.593486 0.668116
O O5 0.536448 0.128698 0.535413
O O6 0.362460 0.377860 0.506967
O O7 0.701249 0.379646 0.538929
O O8 0.426182 0.312637 0.611624
O O9 0.347646 0.732192 0.680595
O O10 0.546659 0.810163 0.771319
#
# Coordination Sequence:
#
# PCOD9460662 Si02
#       5
#     8   8   8   8   8
#     4  11  26  47  74 105 143 194 237 304 355 428
#     4  10  24  47  71 106 141 188 238 293 363 424
#     4  12  27  46  74 103 150 188 245 295 363 432
#     4  10  23  46  71 100 142 181 238 298 351 426
#     4  11  26  44  70 108 142 193 236 292 363 429
#
# _framework density 25.143056000000001
#
# number of rings (size 3 to 8) (size 9 to 14) (size 15 to 20)
#    0.000    1.200    2.000    2.400    5.600    4.000 
#   10.800    0.000    0.000    0.000    0.000    0.000 
#    0.000    0.000    0.000    0.000    0.000    0.000 
#
# Total GULP energy -223428.138969 kJ/mol
# GULP energy per Si atom -5585.703474 kJ/mol
# Density = 2.508583 g / cm^3
# Si number density = 25.143056 Si / 1000 Ang^3
#
#
#
# Elastic Constant Matrix: (Units=GPa)
#
#
# Indices 1 2 3 4 5 6 
#
# 1 143.7357 28.9436 37.5838 0.0000 0.0000 0.0000
# 2 28.9436 92.0274 10.1028 0.0000 0.0000 0.0000
# 3 37.5838 10.1028 122.2256 0.0000 0.0000 0.0000
# 4 0.0000 0.0000 0.0000 19.0458 0.0000 0.0000
# 5 0.0000 0.0000 0.0000 0.0000 40.9952 0.0000
# 6 0.0000 0.0000 0.0000 0.0000 0.0000 27.3014
#
#
#
# Elastic Compliance Matrix: (Units=1/GPa)
#
#
# Indices 1 2 3 4 5 6 
#
# 1 0.008009 -0.002269 -0.002275 0.000000 0.000000 0.000000
# 2 -0.002269 0.011609 -0.000262 0.000000 0.000000 0.000000
# 3 -0.002275 -0.000262 0.008903 0.000000 0.000000 0.000000
# 4 0.000000 0.000000 0.000000 0.052505 0.000000 0.000000
# 5 0.000000 0.000000 0.000000 0.000000 0.024393 0.000000
# 6 0.000000 0.000000 0.000000 0.000000 0.000000 0.036628
#
#
# Mechanical properties :
#
#
# Convention : Reuss Voigt Hill
#
# Bulk Modulus (GPa) = 52.88663 56.80546 54.84604
# Shear Modulus (GPa) = 31.65317 36.22572 33.93945
#
# Velocity S-wave (km/s) = 3.55198 3.79988 3.67802
# Velocity P-wave (km/s) = 6.15646 6.47257 6.31649
#
# Compressibility (1/GPa) = 0.01890837
#
# Stress axis : x y z
#
# Youngs Moduli (GPa) = 124.85862 86.14196 112.32379
#
# Poissons Ratio (x) = 0.19547 0.25556
# Poissons Ratio (y) = 0.28333 0.02940
# Poissons Ratio (z) = 0.28408 0.02255
#
# Static dielectric constant tensor:
#      x y z
#    x 1.987950 0.000000 0.000000 
#    y 0.000000 1.985580 0.000000 
#    z 0.000000 0.000000 2.021570 
# 
# From -- ./inp_files/11326.got.cif
#   From: 2010.05.17/outbox.cif.g08.bks.cpg/sg61_6_cif.got.tgz:11326.got - 2010.06.03 15:17:17.
