data_PCOD9460061
_publ_section_title
;
Structure prediction by ZEFSAII (Michael W. Deem and Ramdas Pophale) SiO2 
 PCOD9460061
Probable space group: P B C A
;
_chemical_formula_sum "Si O2"
_cell_formula_units_Z 52
_cell_length_a 12.532667
_cell_length_b 8.790782
_cell_length_c 19.244682
_cell_angle_alpha 90.000000
_cell_angle_beta 90.000000
_cell_angle_gamma 90.000000
_cell_volume 2120.224018
_symmetry_space_group_name_H-M "P B C A"
_symmetry_group_IT_number 61
_symmetry_cell_setting 'orthorhombic'
loop_
_space_group_symop_operation_xyz
x,y,z
1/2-x,-y,1/2+z
1/2+x,1/2-y,-z
-x,1/2+y,1/2-z
-x,-y,-z
1/2+x,y,1/2-z
1/2-x,1/2+y,z
x,1/2-y,1/2+z
loop_
_atom_site_type_symbol
_atom_site_label
_atom_site_fract_x
_atom_site_fract_y
_atom_site_fract_z
Si Si1 0.717528 0.825758 0.973590
Si Si2 0.255189 0.721612 0.379467
Si Si3 0.014421 0.413556 0.720642
Si Si4 0.655781 0.123385 0.759780
Si Si5 0.101107 0.550503 0.861839
Si Si6 0.000000 0.000000 0.500000
Si Si7 0.832695 0.054299 0.877353
O O1 0.665085 0.681046 0.936532
O O2 0.789227 0.905832 0.916204
O O3 0.783113 0.777642 0.042301
O O4 0.621529 0.934367 0.996291
O O5 0.307089 0.802098 0.312641
O O6 0.292627 0.549119 0.378420
O O7 0.132025 0.772572 0.370936
O O8 0.064962 0.244893 0.714814
O O9 0.075299 0.492183 0.785596
O O10 0.053718 0.513372 0.655549
O O11 0.894175 0.457735 0.742042
O O12 0.748984 0.103169 0.816642
O O13 0.007931 0.504462 0.914108
#
# Coordination Sequence:
#
# PCOD9460061 Si02
#       7
#     8   8   8   8   8   4   8
#     4  11  24  43  70  98 139 185 231 293 352 425
#     4  10  22  41  66  91 128 176 220 274 342 407
#     4  11  25  41  69 102 134 183 230 290 349 416
#     4  11  25  44  69 101 140 178 235 289 349 424
#     4  10  21  41  66  94 127 174 222 277 337 408
#     4  10  22  40  68  94 128 176 232 276 348 416
#     4  12  24  45  67 101 142 184 232 294 360 417
#
# _framework density 24.52571
#
# number of rings (size 3 to 8) (size 9 to 14) (size 15 to 20)
#    0.000    1.231    3.077    2.769    6.462    1.231 
#    0.000    2.308    0.000    0.000    0.000    0.000 
#    0.000    0.000    0.000    0.000    0.000    0.000 
#
# Total GULP energy -289622.048619 kJ/mol
# GULP energy per Si atom -5569.654781 kJ/mol
# Density = 2.446989 g / cm^3
# Si number density = 24.525710 Si / 1000 Ang^3
#
#
#
# Elastic Constant Matrix: (Units=GPa)
#
#
# Indices 1 2 3 4 5 6 
#
# 1 45.7155 -3.4093 1.0288 0.0000 0.0000 0.0000
# 2 -3.4093 55.0024 11.1647 0.0000 0.0000 0.0000
# 3 1.0288 11.1647 114.6741 0.0000 0.0000 0.0000
# 4 0.0000 0.0000 0.0000 47.4149 0.0000 0.0000
# 5 0.0000 0.0000 0.0000 0.0000 46.2849 0.0000
# 6 0.0000 0.0000 0.0000 0.0000 0.0000 23.7275
#
#
#
# Elastic Compliance Matrix: (Units=1/GPa)
#
#
# Indices 1 2 3 4 5 6 
#
# 1 0.021989 0.001431 -0.000337 0.000000 0.000000 0.000000
# 2 0.001431 0.018641 -0.001828 0.000000 0.000000 0.000000
# 3 -0.000337 -0.001828 0.008901 0.000000 0.000000 0.000000
# 4 0.000000 0.000000 0.000000 0.021090 0.000000 0.000000
# 5 0.000000 0.000000 0.000000 0.000000 0.021605 0.000000
# 6 0.000000 0.000000 0.000000 0.000000 0.000000 0.042145
#
#
# Mechanical properties :
#
#
# Convention : Reuss Voigt Hill
#
# Bulk Modulus (GPa) = 20.80529 25.88450 23.34490
# Shear Modulus (GPa) = 32.92519 37.25931 35.09225
#
# Velocity S-wave (km/s) = 3.66796 3.90191 3.78674
# Velocity P-wave (km/s) = 5.14199 5.55669 5.35336
#
# Compressibility (1/GPa) = 0.04806469
#
# Stress axis : x y z
#
# Youngs Moduli (GPa) = 45.47788 53.64593 112.34275
#
# Poissons Ratio (x) = -0.07678 0.03782
# Poissons Ratio (y) = -0.06509 0.20533
# Poissons Ratio (z) = 0.01531 0.09805
#
# Static dielectric constant tensor:
#      x y z
#    x 1.988840 0.000000 0.000000 
#    y 0.000000 1.971330 0.000000 
#    z 0.000000 0.000000 2.135170 
# 
# From -- ./inp_files/3882.got.cif
#   From: 2010.05.17/outbox.cif.g08.bks.cpg/sg61_2_cif.got.tgz:3882.got - 2010.06.03 15:17:17.
