data_PCOD9460103
_publ_section_title
;
Structure prediction by ZEFSAII (Michael W. Deem and Ramdas Pophale) SiO2 
 PCOD9460103
Probable space group: P B C A
;
_chemical_formula_sum "Si O2"
_cell_formula_units_Z 32
_cell_length_a 17.526218
_cell_length_b 7.870201
_cell_length_c 8.333459
_cell_angle_alpha 90.000000
_cell_angle_beta 90.000000
_cell_angle_gamma 90.000000
_cell_volume 1149.474487
_symmetry_space_group_name_H-M "P B C A"
_symmetry_group_IT_number 61
_symmetry_cell_setting 'orthorhombic'
loop_
_space_group_symop_operation_xyz
x,y,z
1/2-x,-y,1/2+z
1/2+x,1/2-y,-z
-x,1/2+y,1/2-z
-x,-y,-z
1/2+x,y,1/2-z
1/2-x,1/2+y,z
x,1/2-y,1/2+z
loop_
_atom_site_type_symbol
_atom_site_label
_atom_site_fract_x
_atom_site_fract_y
_atom_site_fract_z
Si Si1 0.417105 0.693269 0.937508
Si Si2 0.666635 0.693299 0.708481
Si Si3 0.270600 0.499240 0.981072
Si Si4 0.015911 0.603960 0.255913
O O1 0.438070 0.568615 0.787737
O O2 0.458355 0.867334 0.890543
O O3 0.328284 0.661835 0.969079
O O4 0.460747 0.622964 0.091409
O O5 0.706313 0.870285 0.661226
O O6 0.705350 0.600701 0.859195
O O7 0.687010 0.571682 0.556857
O O8 0.580011 0.746707 0.742953
#
# Coordination Sequence:
#
# PCOD9460103 Si02
#       4
#     8   8   8   8
#     4  10  23  41  65  95 130 170 219 271 331 392
#     4  11  23  42  68  96 133 173 221 274 332 397
#     4  11  25  44  67  98 134 177 223 276 336 401
#     4  10  21  42  66  94 129 170 217 271 327 396
#
# _framework density 27.838806000000002
#
# number of rings (size 3 to 8) (size 9 to 14) (size 15 to 20)
#    0.000    1.500    0.000    6.000    0.000    9.000 
#    0.000    5.000    0.000    0.000    0.000    0.000 
#    0.000    0.000    0.000    0.000    0.000    0.000 
#
# Total GULP energy -179162.155455 kJ/mol
# GULP energy per Si atom -5598.817358 kJ/mol
# Density = 2.777544 g / cm^3
# Si number density = 27.838806 Si / 1000 Ang^3
#
#
#
# Elastic Constant Matrix: (Units=GPa)
#
#
# Indices 1 2 3 4 5 6 
#
# 1 160.6132 45.4215 27.3130 0.0000 0.0000 0.0000
# 2 45.4215 89.1683 16.5962 0.0000 0.0000 0.0000
# 3 27.3130 16.5962 65.1601 0.0000 0.0000 0.0000
# 4 0.0000 0.0000 0.0000 52.1373 0.0000 0.0000
# 5 0.0000 0.0000 0.0000 0.0000 18.3501 0.0000
# 6 0.0000 0.0000 0.0000 0.0000 0.0000 60.8851
#
#
#
# Elastic Compliance Matrix: (Units=1/GPa)
#
#
# Indices 1 2 3 4 5 6 
#
# 1 0.007590 -0.003437 -0.002306 0.000000 0.000000 0.000000
# 2 -0.003437 0.013329 -0.001954 0.000000 0.000000 0.000000
# 3 -0.002306 -0.001954 0.016811 0.000000 0.000000 0.000000
# 4 0.000000 0.000000 0.000000 0.019180 0.000000 0.000000
# 5 0.000000 0.000000 0.000000 0.000000 0.054496 0.000000
# 6 0.000000 0.000000 0.000000 0.000000 0.000000 0.016424
#
#
# Mechanical properties :
#
#
# Convention : Reuss Voigt Hill
#
# Bulk Modulus (GPa) = 44.77129 54.84478 49.80804
# Shear Modulus (GPa) = 33.18477 41.31521 37.24999
#
# Velocity S-wave (km/s) = 3.45633 3.85656 3.66192
# Velocity P-wave (km/s) = 5.66088 6.29082 5.98414
#
# Compressibility (1/GPa) = 0.02233574
#
# Stress axis : x y z
#
# Youngs Moduli (GPa) = 131.74589 75.02234 59.48403
#
# Poissons Ratio (x) = 0.25787 0.13718
# Poissons Ratio (y) = 0.45284 0.11624
# Poissons Ratio (z) = 0.30383 0.14661
#
# Static dielectric constant tensor:
#      x y z
#    x 2.250960 0.000000 0.000000 
#    y 0.000000 2.279010 0.000000 
#    z 0.000000 0.000000 2.180260 
# 
# From -- ./inp_files/3771.got.cif
#   From: 2010.05.17/outbox.cif.g08.bks.cpg/sg61_2_cif.got.tgz:3771.got - 2010.06.03 15:17:17.
