data_PCOD9460497
_publ_section_title
;
Structure prediction by ZEFSAII (Michael W. Deem and Ramdas Pophale) SiO2 
 PCOD9460497
Probable space group: P B C A
;
_chemical_formula_sum "Si O2"
_cell_formula_units_Z 32
_cell_length_a 13.610053
_cell_length_b 6.942870
_cell_length_c 13.428847
_cell_angle_alpha 90.000000
_cell_angle_beta 90.000000
_cell_angle_gamma 90.000000
_cell_volume 1268.929739
_symmetry_space_group_name_H-M "P B C A"
_symmetry_group_IT_number 61
_symmetry_cell_setting 'orthorhombic'
loop_
_space_group_symop_operation_xyz
x,y,z
1/2-x,-y,1/2+z
1/2+x,1/2-y,-z
-x,1/2+y,1/2-z
-x,-y,-z
1/2+x,y,1/2-z
1/2-x,1/2+y,z
x,1/2-y,1/2+z
loop_
_atom_site_type_symbol
_atom_site_label
_atom_site_fract_x
_atom_site_fract_y
_atom_site_fract_z
Si Si1 0.655596 0.767311 0.933816
Si Si2 0.157331 0.409607 0.445657
Si Si3 0.377489 0.194342 0.284048
Si Si4 0.527415 0.439988 0.631831
O O1 0.677634 0.740453 0.816284
O O2 0.573667 0.935904 0.932114
O O3 0.613508 0.569179 0.978651
O O4 0.750701 0.825197 0.994966
O O5 0.180423 0.536861 0.347496
O O6 0.089555 0.239285 0.406866
O O7 0.409993 0.369736 0.353494
O O8 0.479537 0.105764 0.240924
#
# Coordination Sequence:
#
# PCOD9460497 Si02
#       4
#     8   8   8   8
#     4  10  27  49  76 125 162 213 274 356 409 491
#     4  12  25  51  78 123 166 209 284 345 417 493
#     4  10  23  50  80 115 158 222 271 337 408 502
#     4  10  22  51  81 113 162 221 275 332 415 498
#
# _framework density 25.218101999999998
#
# number of rings (size 3 to 8) (size 9 to 14) (size 15 to 20)
#    1.500    0.000    2.500    0.750    3.500    3.000 
#   13.500    0.000    0.000    0.000    0.000    0.000 
#    0.000    0.000    0.000    0.000    0.000    0.000 
#
# Total GULP energy -179039.643824 kJ/mol
# GULP energy per Si atom -5594.988869 kJ/mol
# Density = 2.516070 g / cm^3
# Si number density = 25.218102 Si / 1000 Ang^3
#
#
#
# Elastic Constant Matrix: (Units=GPa)
#
#
# Indices 1 2 3 4 5 6 
#
# 1 102.1252 37.7865 46.6270 0.0000 0.0000 0.0000
# 2 37.7865 104.5194 40.9850 0.0000 0.0000 0.0000
# 3 46.6270 40.9850 149.6793 0.0000 0.0000 0.0000
# 4 0.0000 0.0000 0.0000 51.6595 0.0000 0.0000
# 5 0.0000 0.0000 0.0000 0.0000 57.4401 0.0000
# 6 0.0000 0.0000 0.0000 0.0000 0.0000 39.9936
#
#
#
# Elastic Compliance Matrix: (Units=1/GPa)
#
#
# Indices 1 2 3 4 5 6 
#
# 1 0.012362 -0.003315 -0.002943 0.000000 0.000000 0.000000
# 2 -0.003315 0.011607 -0.002146 0.000000 0.000000 0.000000
# 3 -0.002943 -0.002146 0.008185 0.000000 0.000000 0.000000
# 4 0.000000 0.000000 0.000000 0.019358 0.000000 0.000000
# 5 0.000000 0.000000 0.000000 0.000000 0.017409 0.000000
# 6 0.000000 0.000000 0.000000 0.000000 0.000000 0.025004
#
#
# Mechanical properties :
#
#
# Convention : Reuss Voigt Hill
#
# Bulk Modulus (GPa) = 65.15926 67.45787 66.30856
# Shear Modulus (GPa) = 43.15933 45.21370 44.18651
#
# Velocity S-wave (km/s) = 4.14145 4.23887 4.19044
# Velocity P-wave (km/s) = 6.98306 7.12497 7.05437
#
# Compressibility (1/GPa) = 0.01534701
#
# Stress axis : x y z
#
# Youngs Moduli (GPa) = 80.89099 86.15141 122.16986
#
# Poissons Ratio (x) = 0.28561 0.35958
# Poissons Ratio (y) = 0.26817 0.26213
# Poissons Ratio (z) = 0.23808 0.18485
#
# Static dielectric constant tensor:
#      x y z
#    x 2.003800 0.000000 0.000000 
#    y 0.000000 1.971180 0.000000 
#    z 0.000000 0.000000 2.095830 
# 
# From -- ./inp_files/8042.got.cif
#   From: 2010.05.17/outbox.cif.g08.bks.cpg/sg61_5_cif.got.tgz:8042.got - 2010.06.03 15:17:17.
