data_PCOD9460300
_publ_section_title
;
Structure prediction by ZEFSAII (Michael W. Deem and Ramdas Pophale) SiO2 
 PCOD9460300
Probable space group: P B C A
;
_chemical_formula_sum "Si O2"
_cell_formula_units_Z 60
_cell_length_a 9.676559
_cell_length_b 20.585008
_cell_length_c 12.637912
_cell_angle_alpha 90.000000
_cell_angle_beta 90.000000
_cell_angle_gamma 90.000000
_cell_volume 2517.371529
_symmetry_space_group_name_H-M "P B C A"
_symmetry_group_IT_number 61
_symmetry_cell_setting 'orthorhombic'
loop_
_space_group_symop_operation_xyz
x,y,z
1/2-x,-y,1/2+z
1/2+x,1/2-y,-z
-x,1/2+y,1/2-z
-x,-y,-z
1/2+x,y,1/2-z
1/2-x,1/2+y,z
x,1/2-y,1/2+z
loop_
_atom_site_type_symbol
_atom_site_label
_atom_site_fract_x
_atom_site_fract_y
_atom_site_fract_z
Si Si1 0.463350 0.984338 0.741157
Si Si2 0.987064 0.231786 0.204293
Si Si3 0.837479 0.348355 0.529454
Si Si4 0.261293 0.185266 0.708319
Si Si5 0.000000 0.500000 0.000000
Si Si6 0.456733 0.632871 0.371815
Si Si7 0.777091 0.946616 0.174117
Si Si8 0.313916 0.010168 0.525299
O O1 0.423514 0.911921 0.769550
O O2 0.523644 0.922399 0.946401
O O3 0.623348 0.001142 0.731250
O O4 0.383208 0.027478 0.831343
O O5 0.944397 0.190588 0.101613
O O6 0.879732 0.290420 0.213272
O O7 0.139628 0.261916 0.200022
O O8 0.964163 0.191408 0.314098
O O9 0.826566 0.329312 0.406466
O O10 0.683355 0.340055 0.577510
O O11 0.867168 0.425287 0.533887
O O12 0.207649 0.118945 0.761982
O O13 0.847834 0.521655 0.960853
O O14 0.172860 0.449133 0.446578
O O15 0.609728 0.994952 0.365531
#
# Coordination Sequence:
#
# PCOD9460300 Si02
#       8
#     8   8   8   8   4   8   8   8
#     4  12  24  43  73 109 147 183 241 315 382 434
#     4  12  28  53  73 107 149 207 255 309 366 460
#     4  11  25  48  73 106 144 191 256 306 373 452
#     4  12  29  49  77 104 154 205 254 305 371 458
#     4  10  22  40  76 110 150 188 242 308 388 436
#     4  11  25  46  76 109 150 192 246 312 377 450
#     4  12  25  46  71 107 150 189 243 309 375 444
#     4  11  24  44  74 114 145 190 239 314 382 444
#
# _framework density 23.834382999999999
#
# number of rings (size 3 to 8) (size 9 to 14) (size 15 to 20)
#    0.000    0.533    5.333    2.800    5.600    2.133 
#    2.400    0.000    0.000    0.000    0.000    0.000 
#    0.000    0.000    0.000    0.000    0.000    0.000 
#
# Total GULP energy -334636.404185 kJ/mol
# GULP energy per Si atom -5577.273403 kJ/mol
# Density = 2.378014 g / cm^3
# Si number density = 23.834383 Si / 1000 Ang^3
#
#
#
# Elastic Constant Matrix: (Units=GPa)
#
#
# Indices 1 2 3 4 5 6 
#
# 1 76.5345 1.5175 -24.2836 0.0000 0.0000 0.0000
# 2 1.5175 68.8079 28.8893 0.0000 0.0000 0.0000
# 3 -24.2836 28.8893 81.3486 0.0000 0.0000 0.0000
# 4 0.0000 0.0000 0.0000 51.9234 0.0000 0.0000
# 5 0.0000 0.0000 0.0000 0.0000 24.4692 0.0000
# 6 0.0000 0.0000 0.0000 0.0000 0.0000 26.7152
#
#
#
# Elastic Compliance Matrix: (Units=1/GPa)
#
#
# Indices 1 2 3 4 5 6 
#
# 1 0.014808 -0.002565 0.005331 0.000000 0.000000 0.000000
# 2 -0.002565 0.017524 -0.006989 0.000000 0.000000 0.000000
# 3 0.005331 -0.006989 0.016366 0.000000 0.000000 0.000000
# 4 0.000000 0.000000 0.000000 0.019259 0.000000 0.000000
# 5 0.000000 0.000000 0.000000 0.000000 0.040868 0.000000
# 6 0.000000 0.000000 0.000000 0.000000 0.000000 0.037432
#
#
# Mechanical properties :
#
#
# Convention : Reuss Voigt Hill
#
# Bulk Modulus (GPa) = 24.84244 26.54859 25.69552
# Shear Modulus (GPa) = 29.74051 35.32607 32.53329
#
# Velocity S-wave (km/s) = 3.53625 3.85404 3.69856
# Velocity P-wave (km/s) = 5.20759 5.56487 5.38919
#
# Compressibility (1/GPa) = 0.04025370
#
# Stress axis : x y z
#
# Youngs Moduli (GPa) = 67.52891 57.06411 61.10121
#
# Poissons Ratio (x) = 0.14637 -0.32576
# Poissons Ratio (y) = 0.17321 0.42704
# Poissons Ratio (z) = -0.36003 0.39882
#
# Static dielectric constant tensor:
#      x y z
#    x 1.871940 0.000000 0.000000 
#    y 0.000000 1.941300 0.000000 
#    z 0.000000 0.000000 1.942080 
# 
# From -- ./inp_files/7209.got.cif
#   From: 2010.05.17/outbox.cif.g08.bks.cpg/sg61_4_cif.got.tgz:7209.got - 2010.06.03 15:17:17.
