data_PCOD9460926
_publ_section_title
;
Structure prediction by ZEFSAII (Michael W. Deem and Ramdas Pophale) SiO2 
 PCOD9460926
Probable space group: P B C A
;
_chemical_formula_sum "Si O2"
_cell_formula_units_Z 64
_cell_length_a 9.229907
_cell_length_b 31.497922
_cell_length_c 10.292578
_cell_angle_alpha 90.000000
_cell_angle_beta 90.000000
_cell_angle_gamma 90.000000
_cell_volume 2992.288029
_symmetry_space_group_name_H-M "P B C A"
_symmetry_group_IT_number 61
_symmetry_cell_setting 'orthorhombic'
loop_
_space_group_symop_operation_xyz
x,y,z
1/2-x,-y,1/2+z
1/2+x,1/2-y,-z
-x,1/2+y,1/2-z
-x,-y,-z
1/2+x,y,1/2-z
1/2-x,1/2+y,z
x,1/2-y,1/2+z
loop_
_atom_site_type_symbol
_atom_site_label
_atom_site_fract_x
_atom_site_fract_y
_atom_site_fract_z
Si Si1 0.024340 0.872673 0.344381
Si Si2 0.099101 0.267978 0.780746
Si Si3 0.325966 0.248780 0.102025
Si Si4 0.513338 0.377718 0.035348
Si Si5 0.432314 0.028742 0.883554
Si Si6 0.267442 0.666499 0.482826
Si Si7 0.587837 0.471836 0.101315
Si Si8 0.266009 0.812958 0.427105
O O1 0.046061 0.920271 0.399835
O O2 0.174579 0.847386 0.349802
O O3 0.992769 0.871468 0.191533
O O4 0.894942 0.851496 0.426539
O O5 0.163903 0.263829 0.639385
O O6 0.149559 0.223932 0.850355
O O7 0.927729 0.263496 0.779930
O O8 0.161391 0.308401 0.860009
O O9 0.321717 0.296304 0.056534
O O10 0.361383 0.214237 0.995161
O O11 0.357440 0.369290 0.968000
O O12 0.570495 0.425423 0.034674
O O13 0.627228 0.342411 0.988331
O O14 0.259426 0.019844 0.880262
O O15 0.510350 0.022671 0.742684
O O16 0.500000 0.000000 0.000000
O O17 0.500000 0.500000 0.000000
#
# Coordination Sequence:
#
# PCOD9460926 Si02
#       8
#     8   8   8   8   8   8   8   8
#     4  11  22  40  65  93 123 158 211 258 313 366
#     4  11  24  38  57  83 120 166 206 253 309 363
#     4  11  24  38  57  82 122 165 206 253 308 364
#     4  11  22  38  67  95 119 159 209 260 312 369
#     4  11  25  45  72 102 137 172 215 271 332 400
#     4  11  24  38  59  89 122 162 207 260 307 367
#     4  11  25  45  72 103 136 172 215 269 334 400
#     4  11  22  40  57  87 123 156 207 258 303 365
#
# _framework density 21.388316
#
# number of rings (size 3 to 8) (size 9 to 14) (size 15 to 20)
#    0.000    1.000    3.750    3.000   10.500    0.000 
#    0.000    2.500    0.000    0.000    0.000    0.000 
#    0.000    0.000    0.000    0.000    0.000    0.000 
#
# Total GULP energy -356853.868630 kJ/mol
# GULP energy per Si atom -5575.841697 kJ/mol
# Density = 2.133964 g / cm^3
# Si number density = 21.388316 Si / 1000 Ang^3
#
#
#
# Elastic Constant Matrix: (Units=GPa)
#
#
# Indices 1 2 3 4 5 6 
#
# 1 128.7733 39.2338 16.2429 0.0000 0.0000 0.0000
# 2 39.2338 108.1660 40.7826 0.0000 0.0000 0.0000
# 3 16.2429 40.7826 43.9110 0.0000 0.0000 0.0000
# 4 0.0000 0.0000 0.0000 35.0066 0.0000 0.0000
# 5 0.0000 0.0000 0.0000 0.0000 31.5916 0.0000
# 6 0.0000 0.0000 0.0000 0.0000 0.0000 30.7196
#
#
#
# Elastic Compliance Matrix: (Units=1/GPa)
#
#
# Indices 1 2 3 4 5 6 
#
# 1 0.008736 -0.003001 -0.000444 0.000000 0.000000 0.000000
# 2 -0.003001 0.015258 -0.013061 0.000000 0.000000 0.000000
# 3 -0.000444 -0.013061 0.035068 0.000000 0.000000 0.000000
# 4 0.000000 0.000000 0.000000 0.028566 0.000000 0.000000
# 5 0.000000 0.000000 0.000000 0.000000 0.031654 0.000000
# 6 0.000000 0.000000 0.000000 0.000000 0.000000 0.032552
#
#
# Mechanical properties :
#
#
# Convention : Reuss Voigt Hill
#
# Bulk Modulus (GPa) = 38.38816 52.59652 45.49234
# Shear Modulus (GPa) = 25.83576 31.76961 28.80269
#
# Velocity S-wave (km/s) = 3.47931 3.85823 3.67366
# Velocity P-wave (km/s) = 5.84191 6.67028 6.26979
#
# Compressibility (1/GPa) = 0.02604970
#
# Stress axis : x y z
#
# Youngs Moduli (GPa) = 114.46875 65.53894 28.51607
#
# Poissons Ratio (x) = 0.19670 0.01266
# Poissons Ratio (y) = 0.34355 0.37244
# Poissons Ratio (z) = 0.05083 0.85599
#
# Static dielectric constant tensor:
#      x y z
#    x 1.840740 0.000000 0.000000 
#    y 0.000000 1.846080 0.000000 
#    z 0.000000 0.000000 1.828030 
# 
# From -- ./inp_files/4634.got.cif
#   From: 2010.05.17/outbox.cif.g08.bks.cpg/sg61_3_cif.got.tgz:4634.got - 2010.06.03 15:17:17.
