data_PCOD9460114
_publ_section_title
;
Structure prediction by ZEFSAII (Michael W. Deem and Ramdas Pophale) SiO2 
 PCOD9460114
Probable space group: P B C A
;
_chemical_formula_sum "Si O2"
_cell_formula_units_Z 32
_cell_length_a 5.631391
_cell_length_b 9.721713
_cell_length_c 19.828731
_cell_angle_alpha 90.000000
_cell_angle_beta 90.000000
_cell_angle_gamma 90.000000
_cell_volume 1085.558918
_symmetry_space_group_name_H-M "P B C A"
_symmetry_group_IT_number 61
_symmetry_cell_setting 'orthorhombic'
loop_
_space_group_symop_operation_xyz
x,y,z
1/2-x,-y,1/2+z
1/2+x,1/2-y,-z
-x,1/2+y,1/2-z
-x,-y,-z
1/2+x,y,1/2-z
1/2-x,1/2+y,z
x,1/2-y,1/2+z
loop_
_atom_site_type_symbol
_atom_site_label
_atom_site_fract_x
_atom_site_fract_y
_atom_site_fract_z
Si Si1 0.023896 0.593896 0.770460
Si Si2 0.758104 0.821784 0.979609
Si Si3 0.522057 0.738626 0.352725
Si Si4 0.251532 0.012971 0.896571
O O1 0.773980 0.527313 0.751729
O O2 0.037303 0.735569 0.727107
O O3 0.048675 0.591547 0.850876
O O4 0.725808 0.826760 0.899027
O O5 0.513377 0.743961 0.002508
O O6 0.739077 0.960806 0.023806
O O7 0.475218 0.896388 0.375516
O O8 0.300880 0.641951 0.374165
#
# Coordination Sequence:
#
# PCOD9460114 Si02
#       4
#     8   8   8   8
#     4  10  22  40  62  92 126 166 210 260 318 380
#     4  10  21  42  67  98 133 172 221 274 331 392
#     4  10  22  42  68  99 134 175 222 274 332 394
#     4  10  22  42  68  99 134 175 222 274 332 394
#
# _framework density 29.477900000000002
#
# number of rings (size 3 to 8) (size 9 to 14) (size 15 to 20)
#    0.000    2.000    0.000    2.250    0.000    8.000 
#    0.000   51.250    0.000    0.000    0.000    0.000 
#    0.000    0.000    0.000    0.000    0.000    0.000 
#
# Total GULP energy -178476.479896 kJ/mol
# GULP energy per Si atom -5577.389997 kJ/mol
# Density = 2.941081 g / cm^3
# Si number density = 29.477900 Si / 1000 Ang^3
#
#
#
# Elastic Constant Matrix: (Units=GPa)
#
#
# Indices 1 2 3 4 5 6 
#
# 1 188.8089 67.4287 54.9777 0.0000 0.0000 0.0000
# 2 67.4287 143.2428 53.8416 0.0000 0.0000 0.0000
# 3 54.9777 53.8416 103.5044 0.0000 0.0000 0.0000
# 4 0.0000 0.0000 0.0000 43.7050 0.0000 0.0000
# 5 0.0000 0.0000 0.0000 0.0000 54.4152 0.0000
# 6 0.0000 0.0000 0.0000 0.0000 0.0000 41.5320
#
#
#
# Elastic Compliance Matrix: (Units=1/GPa)
#
#
# Indices 1 2 3 4 5 6 
#
# 1 0.006825 -0.002300 -0.002429 0.000000 0.000000 0.000000
# 2 -0.002300 0.009453 -0.003696 0.000000 0.000000 0.000000
# 3 -0.002429 -0.003696 0.012874 0.000000 0.000000 0.000000
# 4 0.000000 0.000000 0.000000 0.022881 0.000000 0.000000
# 5 0.000000 0.000000 0.000000 0.000000 0.018377 0.000000
# 6 0.000000 0.000000 0.000000 0.000000 0.000000 0.024078
#
#
# Mechanical properties :
#
#
# Convention : Reuss Voigt Hill
#
# Bulk Modulus (GPa) = 81.27994 87.56135 84.42065
# Shear Modulus (GPa) = 43.31364 45.21763 44.26563
#
# Velocity S-wave (km/s) = 3.83738 3.92082 3.87932
# Velocity P-wave (km/s) = 6.87510 7.08983 6.98329
#
# Compressibility (1/GPa) = 0.01230316
#
# Stress axis : x y z
#
# Youngs Moduli (GPa) = 146.52244 105.78833 77.67594
#
# Poissons Ratio (x) = 0.24329 0.18866
# Poissons Ratio (y) = 0.33696 0.28707
# Poissons Ratio (z) = 0.35588 0.39096
#
# Static dielectric constant tensor:
#      x y z
#    x 2.289570 0.000000 0.000000 
#    y 0.000000 2.257530 0.000000 
#    z 0.000000 0.000000 2.498050 
# 
# From -- ./inp_files/151.got.cif
#   From: 2010.05.17/outbox.cif.g08.bks.cpg/sg61_1_cif.got.tgz:151.got - 2010.06.03 15:17:17.
