data_PCOD9460957
_publ_section_title
;
Structure prediction by ZEFSAII (Michael W. Deem and Ramdas Pophale) SiO2 
 PCOD9460957
Probable space group: P B C A
;
_chemical_formula_sum "Si O2"
_cell_formula_units_Z 48
_cell_length_a 7.998155
_cell_length_b 11.897502
_cell_length_c 22.192358
_cell_angle_alpha 90.000000
_cell_angle_beta 90.000000
_cell_angle_gamma 90.000000
_cell_volume 2111.781847
_symmetry_space_group_name_H-M "P B C A"
_symmetry_group_IT_number 61
_symmetry_cell_setting 'orthorhombic'
loop_
_space_group_symop_operation_xyz
x,y,z
1/2-x,-y,1/2+z
1/2+x,1/2-y,-z
-x,1/2+y,1/2-z
-x,-y,-z
1/2+x,y,1/2-z
1/2-x,1/2+y,z
x,1/2-y,1/2+z
loop_
_atom_site_type_symbol
_atom_site_label
_atom_site_fract_x
_atom_site_fract_y
_atom_site_fract_z
Si Si1 0.009545 0.123101 0.310262
Si Si2 0.929006 0.266471 0.926784
Si Si3 0.905305 0.341378 0.673496
Si Si4 0.199637 0.374065 0.008646
Si Si5 0.118084 0.031566 0.920328
Si Si6 0.983946 0.399829 0.124072
O O1 0.201638 0.159118 0.324073
O O2 0.898858 0.189512 0.359650
O O3 0.966454 0.145436 0.241595
O O4 0.984629 0.991547 0.324456
O O5 0.776177 0.246814 0.972174
O O6 0.003782 0.140921 0.923678
O O7 0.061032 0.348656 0.958260
O O8 0.950245 0.444497 0.629575
O O9 0.980595 0.227364 0.646748
O O10 0.111998 0.417039 0.069159
O O11 0.332701 0.458305 0.979039
O O12 0.297538 0.076537 0.898640
#
# Coordination Sequence:
#
# PCOD9460957 Si02
#       6
#     8   8   8   8   8   8
#     4  11  27  44  71  98 136 181 231 282 341 405
#     4  12  25  43  68 105 137 182 229 285 340 419
#     4  11  25  46  69 100 134 185 227 286 336 403
#     4  12  25  42  72 103 140 183 221 285 351 417
#     4  11  22  46  68 100 140 176 227 282 347 404
#     4  11  24  45  72  98 139 179 224 287 342 406
#
# _framework density 22.729619
#
# number of rings (size 3 to 8) (size 9 to 14) (size 15 to 20)
#    0.000    0.667    5.000    3.000    7.000    1.333 
#    0.000    0.000    0.000    0.000    0.000    0.000 
#    0.000    0.000    0.000    0.000    0.000    0.000 
#
# Total GULP energy -268721.655953 kJ/mol
# GULP energy per Si atom -5598.367832 kJ/mol
# Density = 2.267789 g / cm^3
# Si number density = 22.729619 Si / 1000 Ang^3
#
#
#
# Elastic Constant Matrix: (Units=GPa)
#
#
# Indices 1 2 3 4 5 6 
#
# 1 25.8681 17.0167 20.7964 0.0000 0.0000 0.0000
# 2 17.0167 99.8512 44.8286 0.0000 0.0000 0.0000
# 3 20.7964 44.8286 126.9332 0.0000 0.0000 0.0000
# 4 0.0000 0.0000 0.0000********** 0.0000 0.0000
# 5 0.0000 0.0000 0.0000 0.0000 35.0822 0.0000
# 6 0.0000 0.0000 0.0000 0.0000 0.0000 23.7634
#
#
#
# Elastic Compliance Matrix: (Units=1/GPa)
#
#
# Indices 1 2 3 4 5 6 
#
# 1 0.046844 -0.005393 -0.005770 0.000000 0.000000 0.000000
# 2 -0.005393 0.012523 -0.003539 0.000000 0.000000 0.000000
# 3 -0.005770 -0.003539 0.010073 0.000000 0.000000 0.000000
# 4 0.000000 0.000000 0.000000 -0.000072 0.000000 0.000000
# 5 0.000000 0.000000 0.000000 0.000000 0.028504 0.000000
# 6 0.000000 0.000000 0.000000 0.000000 0.000000 0.042081
#
#
# Mechanical properties :
#
#
# Convention : Reuss Voigt Hill
#
# Bulk Modulus (GPa) = 24.97738 46.43733 35.70735
# Shear Modulus (GPa) = 27.36669 -2756.36101 -1364.49716
#
# Velocity S-wave (km/s) = 3.47365 -34.86124 -24.52794
# Velocity P-wave (km/s) = 5.20587 39.99917 28.04312
#
# Compressibility (1/GPa) = 0.04003623
#
# Stress axis : x y z
#
# Youngs Moduli (GPa) = 21.34742 79.85421 99.27078
#
# Poissons Ratio (x) = 0.43062 0.57283
# Poissons Ratio (y) = 0.11512 0.35133
# Poissons Ratio (z) = 0.12318 0.28261
#
# Static dielectric constant tensor:
#      x y z
#    x 1.916520 0.000000 0.000000 
#    y 0.000000 1.830950 0.000000 
#    z 0.000000 0.000000 1.803620 
# 
# From -- ./inp_files/10843.got.cif
#   From: 2010.05.17/outbox.cif.g08.bks.cpg/sg61_6_cif.got.tgz:10843.got - 2010.06.03 15:17:17.
