data_PCOD9460281
_publ_section_title
;
Structure prediction by ZEFSAII (Michael W. Deem and Ramdas Pophale) SiO2 
 PCOD9460281
Probable space group: P B C A
;
_chemical_formula_sum "Si O2"
_cell_formula_units_Z 28
_cell_length_a 8.414870
_cell_length_b 14.034598
_cell_length_c 8.602999
_cell_angle_alpha 90.000000
_cell_angle_beta 90.000000
_cell_angle_gamma 90.000000
_cell_volume 1016.008312
_symmetry_space_group_name_H-M "P B C A"
_symmetry_group_IT_number 61
_symmetry_cell_setting 'orthorhombic'
loop_
_space_group_symop_operation_xyz
x,y,z
1/2-x,-y,1/2+z
1/2+x,1/2-y,-z
-x,1/2+y,1/2-z
-x,-y,-z
1/2+x,y,1/2-z
1/2-x,1/2+y,z
x,1/2-y,1/2+z
loop_
_atom_site_type_symbol
_atom_site_label
_atom_site_fract_x
_atom_site_fract_y
_atom_site_fract_z
Si Si1 0.543636 0.355649 0.108456
Si Si2 0.839250 0.181716 0.411823
Si Si3 0.831411 0.456828 0.646393
Si Si4 0.500000 0.500000 0.500000
O O1 0.416172 0.277548 0.158222
O O2 0.582669 0.447771 0.219717
O O3 0.702102 0.306494 0.040440
O O4 0.457713 0.405202 0.961814
O O5 0.772633 0.116485 0.273236
O O6 0.983622 0.116833 0.471164
O O7 0.687993 0.497703 0.549647
#
# Coordination Sequence:
#
# PCOD9460281 Si02
#       4
#     8   8   8   4
#     4  10  23  41  67 101 136 179 236 280 340 423
#     4  11  22  41  68  99 140 184 228 288 346 402
#     4  10  22  43  67  99 140 181 226 289 347 401
#     4  10  22  40  64  98 136 174 228 276 334 416
#
# _framework density 27.55883
#
# number of rings (size 3 to 8) (size 9 to 14) (size 15 to 20)
#    0.000    1.714    0.000    3.429    0.000    2.286 
#    0.000   22.857    0.000    3.429    0.000    0.000 
#    0.000    0.000    0.000    0.000    0.000    0.000 
#
# Total GULP energy -156064.219818 kJ/mol
# GULP energy per Si atom -5573.722136 kJ/mol
# Density = 2.749610 g / cm^3
# Si number density = 27.558830 Si / 1000 Ang^3
#
#
#
# Elastic Constant Matrix: (Units=GPa)
#
#
# Indices 1 2 3 4 5 6 
#
# 1 122.4212 49.5163 17.8038 0.0000 0.0000 0.0000
# 2 49.5163 175.6205 33.2663 0.0000 0.0000 0.0000
# 3 17.8038 33.2663 65.6335 0.0000 0.0000 0.0000
# 4 0.0000 0.0000 0.0000 43.5690 0.0000 0.0000
# 5 0.0000 0.0000 0.0000 0.0000 44.1624 0.0000
# 6 0.0000 0.0000 0.0000 0.0000 0.0000 58.4774
#
#
#
# Elastic Compliance Matrix: (Units=1/GPa)
#
#
# Indices 1 2 3 4 5 6 
#
# 1 0.009323 -0.002378 -0.001324 0.000000 0.000000 0.000000
# 2 -0.002378 0.006905 -0.002855 0.000000 0.000000 0.000000
# 3 -0.001324 -0.002855 0.017042 0.000000 0.000000 0.000000
# 4 0.000000 0.000000 0.000000 0.022952 0.000000 0.000000
# 5 0.000000 0.000000 0.000000 0.000000 0.022644 0.000000
# 6 0.000000 0.000000 0.000000 0.000000 0.000000 0.017101
#
#
# Mechanical properties :
#
#
# Convention : Reuss Voigt Hill
#
# Bulk Modulus (GPa) = 49.60964 62.76088 56.18526
# Shear Modulus (GPa) = 43.17833 46.78102 44.97968
#
# Velocity S-wave (km/s) = 3.96254 4.12454 4.04435
# Velocity P-wave (km/s) = 6.24308 6.74576 6.49928
#
# Compressibility (1/GPa) = 0.02015737
#
# Stress axis : x y z
#
# Youngs Moduli (GPa) = 107.26388 144.81601 58.67780
#
# Poissons Ratio (x) = 0.34435 0.07767
# Poissons Ratio (y) = 0.25506 0.16752
# Poissons Ratio (z) = 0.14199 0.41344
#
# Static dielectric constant tensor:
#      x y z
#    x 2.003190 0.000000 0.000000 
#    y 0.000000 2.202200 0.000000 
#    z 0.000000 0.000000 2.510650 
# 
# From -- ./inp_files/1624.got.cif
#   From: 2010.05.17/outbox.cif.g08.bks.cpg/sg61_1_cif.got.tgz:1624.got - 2010.06.03 15:17:17.
