data_PCOD9460065
_publ_section_title
;
Structure prediction by ZEFSAII (Michael W. Deem and Ramdas Pophale) SiO2 
 PCOD9460065
Probable space group: P B C A
;
_chemical_formula_sum "Si O2"
_cell_formula_units_Z 64
_cell_length_a 7.225842
_cell_length_b 12.356309
_cell_length_c 32.946214
_cell_angle_alpha 90.000000
_cell_angle_beta 90.000000
_cell_angle_gamma 90.000000
_cell_volume 2941.594037
_symmetry_space_group_name_H-M "P B C A"
_symmetry_group_IT_number 61
_symmetry_cell_setting 'orthorhombic'
loop_
_space_group_symop_operation_xyz
x,y,z
1/2-x,-y,1/2+z
1/2+x,1/2-y,-z
-x,1/2+y,1/2-z
-x,-y,-z
1/2+x,y,1/2-z
1/2-x,1/2+y,z
x,1/2-y,1/2+z
loop_
_atom_site_type_symbol
_atom_site_label
_atom_site_fract_x
_atom_site_fract_y
_atom_site_fract_z
Si Si1 0.454236 0.972315 0.046121
Si Si2 0.163914 0.239559 0.859178
Si Si3 0.056655 0.757269 0.930756
Si Si4 0.887291 0.291838 0.924794
Si Si5 0.910455 0.115302 0.987824
Si Si6 0.555898 0.075596 0.698770
Si Si7 0.292526 0.697818 0.721880
Si Si8 0.367397 0.330133 0.789877
O O1 0.575803 0.871551 0.060496
O O2 0.250569 0.923667 0.042099
O O3 0.450146 0.083943 0.069858
O O4 0.500000 0.000000 0.000000
O O5 0.324060 0.273605 0.890497
O O6 0.168555 0.119136 0.840090
O O7 0.193735 0.312919 0.819479
O O8 0.972410 0.252833 0.882701
O O9 0.837003 0.786022 0.926994
O O10 0.127935 0.827321 0.969013
O O11 0.980686 0.216964 0.960368
O O12 0.000000 0.000000 0.000000
O O13 0.644313 0.124035 0.740033
O O14 0.353462 0.129523 0.696590
O O15 0.555172 0.948486 0.703756
O O16 0.472923 0.742854 0.699686
O O17 0.193823 0.799736 0.744270
#
# Coordination Sequence:
#
# PCOD9460065 Si02
#       8
#     8   8   8   8   8   8   8   8
#     4  11  22  39  69  89 116 166 220 278 331 388
#     4  11  27  41  63  95 138 170 214 264 329 397
#     4  11  25  43  62  93 130 167 220 277 332 394
#     4  11  25  44  61  94 128 169 222 272 328 396
#     4  11  23  41  66  91 121 164 221 280 333 383
#     4  10  21  41  67 100 134 171 217 265 322 392
#     4   9  20  40  70 101 133 166 221 271 310 391
#     4  10  21  41  68 100 132 178 213 266 331 386
#
# _framework density 21.756910999999999
#
# number of rings (size 3 to 8) (size 9 to 14) (size 15 to 20)
#    0.000    1.500    2.500    1.500    7.000    1.000 
#    0.000    1.250    0.000    0.000    0.000    0.000 
#    0.000    0.000    0.000    0.000    0.000    0.000 
#
# Total GULP energy -356959.099173 kJ/mol
# GULP energy per Si atom -5577.485925 kJ/mol
# Density = 2.170739 g / cm^3
# Si number density = 21.756911 Si / 1000 Ang^3
#
#
#
# Elastic Constant Matrix: (Units=GPa)
#
#
# Indices 1 2 3 4 5 6 
#
# 1 55.0662 6.4365 5.8209 0.0000 0.0000 0.0000
# 2 6.4365 103.1027 6.8871 0.0000 0.0000 0.0000
# 3 5.8209 6.8871 53.3604 0.0000 0.0000 0.0000
# 4 0.0000 0.0000 0.0000 13.8087 0.0000 0.0000
# 5 0.0000 0.0000 0.0000 0.0000 35.2385 0.0000
# 6 0.0000 0.0000 0.0000 0.0000 0.0000 24.1588
#
#
#
# Elastic Compliance Matrix: (Units=1/GPa)
#
#
# Indices 1 2 3 4 5 6 
#
# 1 0.018479 -0.001028 -0.001883 0.000000 0.000000 0.000000
# 2 -0.001028 0.009841 -0.001158 0.000000 0.000000 0.000000
# 3 -0.001883 -0.001158 0.019095 0.000000 0.000000 0.000000
# 4 0.000000 0.000000 0.000000 0.072418 0.000000 0.000000
# 5 0.000000 0.000000 0.000000 0.000000 0.028378 0.000000
# 6 0.000000 0.000000 0.000000 0.000000 0.000000 0.041393
#
#
# Mechanical properties :
#
#
# Convention : Reuss Voigt Hill
#
# Bulk Modulus (GPa) = 25.46009 27.75760 26.60884
# Shear Modulus (GPa) = 23.71532 27.46686 25.59109
#
# Velocity S-wave (km/s) = 3.30512 3.55694 3.43334
# Velocity P-wave (km/s) = 5.12762 5.44563 5.28902
#
# Compressibility (1/GPa) = 0.03927716
#
# Stress axis : x y z
#
# Youngs Moduli (GPa) = 54.11501 101.62001 52.36869
#
# Poissons Ratio (x) = 0.10445 0.09862
# Poissons Ratio (y) = 0.05562 0.06064
# Poissons Ratio (z) = 0.10191 0.11767
#
# Static dielectric constant tensor:
#      x y z
#    x 1.831790 0.000000 0.000000 
#    y 0.000000 1.807390 0.000000 
#    z 0.000000 0.000000 1.758060 
# 
# From -- ./inp_files/11716.got.cif
#   From: 2010.05.17/outbox.cif.g08.bks.cpg/sg61_6_cif.got.tgz:11716.got - 2010.06.03 15:17:17.
