data_PCOD9460431
_publ_section_title
;
Structure prediction by ZEFSAII (Michael W. Deem and Ramdas Pophale) SiO2 
 PCOD9460431
Probable space group: P B C A
;
_chemical_formula_sum "Si O2"
_cell_formula_units_Z 64
_cell_length_a 9.077947
_cell_length_b 11.870639
_cell_length_c 24.068111
_cell_angle_alpha 90.000000
_cell_angle_beta 90.000000
_cell_angle_gamma 90.000000
_cell_volume 2593.604472
_symmetry_space_group_name_H-M "P B C A"
_symmetry_group_IT_number 61
_symmetry_cell_setting 'orthorhombic'
loop_
_space_group_symop_operation_xyz
x,y,z
1/2-x,-y,1/2+z
1/2+x,1/2-y,-z
-x,1/2+y,1/2-z
-x,-y,-z
1/2+x,y,1/2-z
1/2-x,1/2+y,z
x,1/2-y,1/2+z
loop_
_atom_site_type_symbol
_atom_site_label
_atom_site_fract_x
_atom_site_fract_y
_atom_site_fract_z
Si Si1 0.777772 0.802908 0.779812
Si Si2 0.930552 0.040621 0.662899
Si Si3 0.475174 0.049815 0.276396
Si Si4 0.487789 0.876766 0.436530
Si Si5 0.337584 0.828331 0.328100
Si Si6 0.801286 0.991832 0.553192
Si Si7 0.278054 0.638601 0.622667
Si Si8 0.464783 0.814634 0.022999
O O1 0.646669 0.874609 0.753929
O O2 0.856021 0.746276 0.726256
O O3 0.726493 0.710282 0.824184
O O4 0.904390 0.877267 0.808604
O O5 0.099384 0.052394 0.644779
O O6 0.837456 0.156420 0.662066
O O7 0.848046 0.966423 0.616865
O O8 0.930832 0.003064 0.725977
O O9 0.400122 0.951354 0.311015
O O10 0.413744 0.803246 0.386321
O O11 0.368916 0.973347 0.449682
O O12 0.642328 0.914188 0.410406
O O13 0.508783 0.794164 0.488328
O O14 0.896735 0.104271 0.537418
O O15 0.857781 0.893114 0.514299
O O16 0.371152 0.711382 0.578126
#
# Coordination Sequence:
#
# PCOD9460431 Si02
#       8
#     8   8   8   8   8   8   8   8
#     4  12  26  41  70 102 133 188 229 283 363 423
#     4  10  22  44  65  94 140 179 218 285 349 415
#     4  12  25  42  67 101 137 182 231 279 349 435
#     4  11  24  41  72  99 133 184 231 287 347 414
#     4  11  25  45  67  99 148 175 230 295 350 424
#     4   9  22  43  68  97 135 185 224 278 350 414
#     4  11  24  43  70 100 138 177 228 299 339 411
#     4  10  22  45  69  99 140 180 231 285 349 417
#
# _framework density 24.676082000000001
#
# number of rings (size 3 to 8) (size 9 to 14) (size 15 to 20)
#    0.000    1.250    2.500    2.250    7.000    0.500 
#    2.250    2.500    0.000    0.000    0.000    0.000 
#    0.000    0.000    0.000    0.000    0.000    0.000 
#
# Total GULP energy -358253.897979 kJ/mol
# GULP energy per Si atom -5597.717156 kJ/mol
# Density = 2.461992 g / cm^3
# Si number density = 24.676082 Si / 1000 Ang^3
#
#
#
# Elastic Constant Matrix: (Units=GPa)
#
#
# Indices 1 2 3 4 5 6 
#
# 1 129.5851 17.1475 -4.4926 0.0000 0.0000 0.0000
# 2 17.1475 35.1613 7.8522 0.0000 0.0000 0.0000
# 3 -4.4926 7.8522 99.7042 0.0000 0.0000 0.0000
# 4 0.0000 0.0000 0.0000 32.8026 0.0000 0.0000
# 5 0.0000 0.0000 0.0000 0.0000 39.0711 0.0000
# 6 0.0000 0.0000 0.0000 0.0000 0.0000 26.1031
#
#
#
# Elastic Compliance Matrix: (Units=1/GPa)
#
#
# Indices 1 2 3 4 5 6 
#
# 1 0.008298 -0.004204 0.000705 0.000000 0.000000 0.000000
# 2 -0.004204 0.031080 -0.002637 0.000000 0.000000 0.000000
# 3 0.000705 -0.002637 0.010269 0.000000 0.000000 0.000000
# 4 0.000000 0.000000 0.000000 0.030485 0.000000 0.000000
# 5 0.000000 0.000000 0.000000 0.000000 0.025594 0.000000
# 6 0.000000 0.000000 0.000000 0.000000 0.000000 0.038310
#
#
# Mechanical properties :
#
#
# Convention : Reuss Voigt Hill
#
# Bulk Modulus (GPa) = 26.75661 33.94054 30.34858
# Shear Modulus (GPa) = 29.62679 35.85824 32.74252
#
# Velocity S-wave (km/s) = 3.46877 3.81617 3.64661
# Velocity P-wave (km/s) = 5.18747 5.76210 5.48232
#
# Compressibility (1/GPa) = 0.03737395
#
# Stress axis : x y z
#
# Youngs Moduli (GPa) = 120.51558 32.17552 97.37929
#
# Poissons Ratio (x) = 0.13527 -0.06865
# Poissons Ratio (y) = 0.50665 0.25680
# Poissons Ratio (z) = -0.08496 0.08485
#
# Static dielectric constant tensor:
#      x y z
#    x 1.968260 0.000000 0.000000 
#    y 0.000000 1.943430 0.000000 
#    z 0.000000 0.000000 1.960880 
# 
# From -- ./inp_files/10914.got.cif
#   From: 2010.05.17/outbox.cif.g08.bks.cpg/sg61_6_cif.got.tgz:10914.got - 2010.06.03 15:17:17.
