data_PCOD9460885
_publ_section_title
;
Structure prediction by ZEFSAII (Michael W. Deem and Ramdas Pophale) SiO2 
 PCOD9460885
Probable space group: P B C A
;
_chemical_formula_sum "Si O2"
_cell_formula_units_Z 64
_cell_length_a 10.490652
_cell_length_b 9.785738
_cell_length_c 28.498870
_cell_angle_alpha 90.000000
_cell_angle_beta 90.000000
_cell_angle_gamma 90.000000
_cell_volume 2925.658995
_symmetry_space_group_name_H-M "P B C A"
_symmetry_group_IT_number 61
_symmetry_cell_setting 'orthorhombic'
loop_
_space_group_symop_operation_xyz
x,y,z
1/2-x,-y,1/2+z
1/2+x,1/2-y,-z
-x,1/2+y,1/2-z
-x,-y,-z
1/2+x,y,1/2-z
1/2-x,1/2+y,z
x,1/2-y,1/2+z
loop_
_atom_site_type_symbol
_atom_site_label
_atom_site_fract_x
_atom_site_fract_y
_atom_site_fract_z
Si Si1 0.725262 0.618102 0.432525
Si Si2 0.396016 0.224403 0.921056
Si Si3 0.465729 0.154995 0.145692
Si Si4 0.166213 0.418549 0.207667
Si Si5 0.416897 0.825488 0.648569
Si Si6 0.192381 0.059723 0.415434
Si Si7 0.961836 0.423359 0.290712
Si Si8 0.127143 0.345676 0.016767
O O1 0.613070 0.684677 0.401859
O O2 0.838719 0.605655 0.394036
O O3 0.778969 0.719185 0.472309
O O4 0.678203 0.474394 0.452938
O O5 0.486657 0.221368 0.876027
O O6 0.327342 0.367930 0.918609
O O7 0.488638 0.197909 0.964682
O O8 0.296554 0.102561 0.917228
O O9 0.604053 0.103165 0.128198
O O10 0.475141 0.287990 0.177850
O O11 0.385216 0.037453 0.172915
O O12 0.167259 0.273034 0.180913
O O13 0.312360 0.440247 0.223766
O O14 0.062481 0.414035 0.248887
O O15 0.485294 0.941192 0.678518
O O16 0.124328 0.109234 0.463279
#
# Coordination Sequence:
#
# PCOD9460885 Si02
#       8
#     8   8   8   8   8   8   8   8
#     4  11  20  43  75  98 135 186 241 288 341 428
#     4  11  26  45  65 100 139 187 233 297 350 425
#     4  12  24  43  72  98 140 193 234 284 361 424
#     4  12  24  47  71 107 142 186 237 300 364 439
#     4  11  23  45  70  99 139 183 238 286 353 430
#     4  12  26  44  69 100 149 184 240 294 366 414
#     4  12  26  42  74 107 140 182 243 294 366 437
#     4  11  24  43  69 105 139 185 236 302 349 416
#
# _framework density 21.875413999999999
#
# number of rings (size 3 to 8) (size 9 to 14) (size 15 to 20)
#    0.000    0.500    5.000    3.375    3.500    2.000 
#    0.000    1.875    0.000    0.000    0.000    0.000 
#    0.000    0.000    0.000    0.000    0.000    0.000 
#
# Total GULP energy -358007.290646 kJ/mol
# GULP energy per Si atom -5593.863916 kJ/mol
# Density = 2.182562 g / cm^3
# Si number density = 21.875414 Si / 1000 Ang^3
#
#
#
# Elastic Constant Matrix: (Units=GPa)
#
#
# Indices 1 2 3 4 5 6 
#
# 1 44.9397 -8.5990 28.0268 0.0000 0.0000 0.0000
# 2 -8.5990 30.6370 10.0482 0.0000 0.0000 0.0000
# 3 28.0268 10.0482 78.3976 0.0000 0.0000 0.0000
# 4 0.0000 0.0000 0.0000 25.1205 0.0000 0.0000
# 5 0.0000 0.0000 0.0000 0.0000 28.6884 0.0000
# 6 0.0000 0.0000 0.0000 0.0000 0.0000 39.9111
#
#
#
# Elastic Compliance Matrix: (Units=1/GPa)
#
#
# Indices 1 2 3 4 5 6 
#
# 1 0.033494 0.013913 -0.013757 0.000000 0.000000 0.000000
# 2 0.013913 0.039852 -0.010082 0.000000 0.000000 0.000000
# 3 -0.013757 -0.010082 0.018966 0.000000 0.000000 0.000000
# 4 0.000000 0.000000 0.000000 0.039808 0.000000 0.000000
# 5 0.000000 0.000000 0.000000 0.000000 0.034857 0.000000
# 6 0.000000 0.000000 0.000000 0.000000 0.000000 0.025056
#
#
# Mechanical properties :
#
#
# Convention : Reuss Voigt Hill
#
# Bulk Modulus (GPa) = 13.80078 23.65849 18.72964
# Shear Modulus (GPa) = 21.18309 27.04389 24.11349
#
# Velocity S-wave (km/s) = 3.11521 3.51988 3.32371
# Velocity P-wave (km/s) = 4.38884 5.23048 4.82803
#
# Compressibility (1/GPa) = 0.07245965
#
# Stress axis : x y z
#
# Youngs Moduli (GPa) = 29.85620 25.09301 52.72661
#
# Poissons Ratio (x) = -0.34911 0.72537
# Poissons Ratio (y) = -0.41538 0.53157
# Poissons Ratio (z) = 0.41074 0.25298
#
# Static dielectric constant tensor:
#      x y z
#    x 1.844350 0.000000 0.000000 
#    y 0.000000 1.777260 0.000000 
#    z 0.000000 0.000000 1.792530 
# 
# From -- ./inp_files/11776.got.cif
#   From: 2010.05.17/outbox.cif.g08.bks.cpg/sg61_6_cif.got.tgz:11776.got - 2010.06.03 15:17:17.
