data_PCOD9460592
_publ_section_title
;
Structure prediction by ZEFSAII (Michael W. Deem and Ramdas Pophale) SiO2 
 PCOD9460592
Probable space group: P B C A
;
_chemical_formula_sum "Si O2"
_cell_formula_units_Z 56
_cell_length_a 19.838282
_cell_length_b 11.968862
_cell_length_c 10.473749
_cell_angle_alpha 90.000000
_cell_angle_beta 90.000000
_cell_angle_gamma 90.000000
_cell_volume 2486.904345
_symmetry_space_group_name_H-M "P B C A"
_symmetry_group_IT_number 61
_symmetry_cell_setting 'orthorhombic'
loop_
_space_group_symop_operation_xyz
x,y,z
1/2-x,-y,1/2+z
1/2+x,1/2-y,-z
-x,1/2+y,1/2-z
-x,-y,-z
1/2+x,y,1/2-z
1/2-x,1/2+y,z
x,1/2-y,1/2+z
loop_
_atom_site_type_symbol
_atom_site_label
_atom_site_fract_x
_atom_site_fract_y
_atom_site_fract_z
Si Si1 0.633553 0.374937 0.468419
Si Si2 0.737729 0.310739 0.663440
Si Si3 0.556521 0.994714 0.189681
Si Si4 0.340318 0.457204 0.954967
Si Si5 0.374346 0.654091 0.121102
Si Si6 0.359587 0.299998 0.200236
Si Si7 0.405488 0.051894 0.205558
O O1 0.696772 0.309759 0.530791
O O2 0.599808 0.449820 0.576945
O O3 0.590998 0.268539 0.422224
O O4 0.645767 0.460338 0.353426
O O5 0.779193 0.424902 0.638606
O O6 0.682399 0.316690 0.773970
O O7 0.794661 0.223079 0.708493
O O8 0.585280 0.872802 0.223111
O O9 0.572998 0.071688 0.312011
O O10 0.478095 0.007829 0.161730
O O11 0.402970 0.447387 0.858978
O O12 0.340091 0.579877 0.011748
O O13 0.342064 0.370197 0.072743
O O14 0.387477 0.177376 0.163739
#
# Coordination Sequence:
#
# PCOD9460592 Si02
#       7
#     8   8   8   8   8   8   8
#     4  11  25  41  68 101 138 181 236 298 348 413
#     4  10  23  43  69  99 135 180 230 294 349 424
#     4  10  25  46  68  99 141 190 236 288 350 433
#     4  10  24  42  68 101 139 183 230 292 350 432
#     4  10  24  42  66 101 134 180 231 294 354 408
#     4  10  24  46  68 101 137 191 233 289 365 415
#     4  11  26  41  71 103 136 187 233 293 352 418
#
# _framework density 22.517954
#
# number of rings (size 3 to 8) (size 9 to 14) (size 15 to 20)
#    0.000    1.714    0.000    1.286   14.000    6.857 
#    2.571    0.000    0.000    0.000    0.000    0.000 
#    0.000    0.000    0.000    0.000    0.000    0.000 
#
# Total GULP energy -312478.984402 kJ/mol
# GULP energy per Si atom -5579.981864 kJ/mol
# Density = 2.246670 g / cm^3
# Si number density = 22.517954 Si / 1000 Ang^3
#
#
#
# Elastic Constant Matrix: (Units=GPa)
#
#
# Indices 1 2 3 4 5 6 
#
# 1 70.2687 21.9972 20.0241 0.0000 0.0000 0.0000
# 2 21.9972 165.2411 51.9856 0.0000 0.0000 0.0000
# 3 20.0241 51.9856 81.5621 0.0000 0.0000 0.0000
# 4 0.0000 0.0000 0.0000 28.9955 0.0000 0.0000
# 5 0.0000 0.0000 0.0000 0.0000 15.3175 0.0000
# 6 0.0000 0.0000 0.0000 0.0000 0.0000 14.9366
#
#
#
# Elastic Compliance Matrix: (Units=1/GPa)
#
#
# Indices 1 2 3 4 5 6 
#
# 1 0.015454 -0.001080 -0.003106 0.000000 0.000000 0.000000
# 2 -0.001080 0.007645 -0.004608 0.000000 0.000000 0.000000
# 3 -0.003106 -0.004608 0.015960 0.000000 0.000000 0.000000
# 4 0.000000 0.000000 0.000000 0.034488 0.000000 0.000000
# 5 0.000000 0.000000 0.000000 0.000000 0.065285 0.000000
# 6 0.000000 0.000000 0.000000 0.000000 0.000000 0.066950
#
#
# Mechanical properties :
#
#
# Convention : Reuss Voigt Hill
#
# Bulk Modulus (GPa) = 46.57170 56.12064 51.34617
# Shear Modulus (GPa) = 21.68953 26.72093 24.20523
#
# Velocity S-wave (km/s) = 3.10693 3.44852 3.28217
# Velocity P-wave (km/s) = 5.79635 6.39008 6.10044
#
# Compressibility (1/GPa) = 0.02147227
#
# Stress axis : x y z
#
# Youngs Moduli (GPa) = 64.70715 130.80197 62.65735
#
# Poissons Ratio (x) = 0.14130 0.19459
# Poissons Ratio (y) = 0.06990 0.28870
# Poissons Ratio (z) = 0.20095 0.60268
#
# Static dielectric constant tensor:
#      x y z
#    x 1.913110 0.000000 0.000000 
#    y 0.000000 1.816680 0.000000 
#    z 0.000000 0.000000 1.881290 
# 
# From -- ./inp_files/6440.got.cif
#   From: 2010.05.17/outbox.cif.g08.bks.cpg/sg61_4_cif.got.tgz:6440.got - 2010.06.03 15:17:17.
