data_PCOD9460178
_publ_section_title
;
Structure prediction by ZEFSAII (Michael W. Deem and Ramdas Pophale) SiO2 
 PCOD9460178
Probable space group: P B C A
;
_chemical_formula_sum "Si O2"
_cell_formula_units_Z 48
_cell_length_a 7.900488
_cell_length_b 18.235971
_cell_length_c 13.192292
_cell_angle_alpha 90.000000
_cell_angle_beta 90.000000
_cell_angle_gamma 90.000000
_cell_volume 1900.654009
_symmetry_space_group_name_H-M "P B C A"
_symmetry_group_IT_number 61
_symmetry_cell_setting 'orthorhombic'
loop_
_space_group_symop_operation_xyz
x,y,z
1/2-x,-y,1/2+z
1/2+x,1/2-y,-z
-x,1/2+y,1/2-z
-x,-y,-z
1/2+x,y,1/2-z
1/2-x,1/2+y,z
x,1/2-y,1/2+z
loop_
_atom_site_type_symbol
_atom_site_label
_atom_site_fract_x
_atom_site_fract_y
_atom_site_fract_z
Si Si1 0.792035 0.539468 0.066222
Si Si2 0.673732 0.752962 0.048697
Si Si3 0.220981 0.349145 0.101286
Si Si4 0.002759 0.131068 0.159079
Si Si5 0.164000 0.594056 0.059308
Si Si6 0.451604 0.220967 0.754386
O O1 0.649190 0.573219 0.139893
O O2 0.983464 0.562111 0.096576
O O3 0.767044 0.572996 0.951752
O O4 0.785195 0.453862 0.040370
O O5 0.810508 0.702791 0.994974
O O6 0.708028 0.774953 0.165058
O O7 0.649493 0.823606 0.981058
O O8 0.030390 0.809768 0.931532
O O9 0.075046 0.331384 0.181026
O O10 0.388329 0.317726 0.154261
O O11 0.683749 0.094671 0.359584
O O12 0.997680 0.191775 0.249582
#
# Coordination Sequence:
#
# PCOD9460178 Si02
#       6
#     8   8   8   8   8   8
#     4  10  22  36  65  96 125 172 212 267 339 395
#     4   9  19  38  64  90 120 164 217 264 322 383
#     4  11  21  40  59  93 128 160 223 273 321 391
#     4   9  20  38  60  95 122 163 215 264 324 383
#     4  11  19  37  67  93 126 169 214 264 330 406
#     4  10  22  35  64  89 120 167 215 266 334 377
#
# _framework density 25.254465
#
# number of rings (size 3 to 8) (size 9 to 14) (size 15 to 20)
#    1.000    1.000    3.333    0.500    2.333    5.333 
#    0.000    0.000    7.333    0.000    0.000    0.000 
#    0.000    0.000    0.000    0.000    0.000    0.000 
#
# Total GULP energy -267498.151946 kJ/mol
# GULP energy per Si atom -5572.878166 kJ/mol
# Density = 2.519699 g / cm^3
# Si number density = 25.254465 Si / 1000 Ang^3
#
#
#
# Elastic Constant Matrix: (Units=GPa)
#
#
# Indices 1 2 3 4 5 6 
#
# 1 113.5739 36.6627 22.9929 0.0000 0.0000 0.0000
# 2 36.6627 71.4802 -0.1067 0.0000 0.0000 0.0000
# 3 22.9929 -0.1067 77.5258 0.0000 0.0000 0.0000
# 4 0.0000 0.0000 0.0000 35.7544 0.0000 0.0000
# 5 0.0000 0.0000 0.0000 0.0000 22.4953 0.0000
# 6 0.0000 0.0000 0.0000 0.0000 0.0000 31.3417
#
#
#
# Elastic Compliance Matrix: (Units=1/GPa)
#
#
# Indices 1 2 3 4 5 6 
#
# 1 0.011374 -0.005839 -0.003381 0.000000 0.000000 0.000000
# 2 -0.005839 0.016987 0.001755 0.000000 0.000000 0.000000
# 3 -0.003381 0.001755 0.013904 0.000000 0.000000 0.000000
# 4 0.000000 0.000000 0.000000 0.027969 0.000000 0.000000
# 5 0.000000 0.000000 0.000000 0.000000 0.044454 0.000000
# 6 0.000000 0.000000 0.000000 0.000000 0.000000 0.031906
#
#
# Mechanical properties :
#
#
# Convention : Reuss Voigt Hill
#
# Bulk Modulus (GPa) = 36.58280 42.40861 39.49571
# Shear Modulus (GPa) = 29.30195 31.45368 30.37782
#
# Velocity S-wave (km/s) = 3.40997 3.53295 3.47200
# Velocity P-wave (km/s) = 5.47914 5.78544 5.63437
#
# Compressibility (1/GPa) = 0.02733525
#
# Stress axis : x y z
#
# Youngs Moduli (GPa) = 87.91751 58.86723 71.92055
#
# Poissons Ratio (x) = 0.34373 0.24320
# Poissons Ratio (y) = 0.51335 -0.12623
# Poissons Ratio (z) = 0.29729 -0.10332
#
# Static dielectric constant tensor:
#      x y z
#    x 2.175450 0.000000 0.000000 
#    y 0.000000 1.940200 0.000000 
#    z 0.000000 0.000000 2.049620 
# 
# From -- ./inp_files/7031.got.cif
#   From: 2010.05.17/outbox.cif.g08.bks.cpg/sg61_4_cif.got.tgz:7031.got - 2010.06.03 15:17:17.
