data_PCOD9460484
_publ_section_title
;
Structure prediction by ZEFSAII (Michael W. Deem and Ramdas Pophale) SiO2 
 PCOD9460484
Probable space group: P B C A
;
_chemical_formula_sum "Si O2"
_cell_formula_units_Z 48
_cell_length_a 17.462087
_cell_length_b 9.583848
_cell_length_c 11.247214
_cell_angle_alpha 90.000000
_cell_angle_beta 90.000000
_cell_angle_gamma 90.000000
_cell_volume 1882.266112
_symmetry_space_group_name_H-M "P B C A"
_symmetry_group_IT_number 61
_symmetry_cell_setting 'orthorhombic'
loop_
_space_group_symop_operation_xyz
x,y,z
1/2-x,-y,1/2+z
1/2+x,1/2-y,-z
-x,1/2+y,1/2-z
-x,-y,-z
1/2+x,y,1/2-z
1/2-x,1/2+y,z
x,1/2-y,1/2+z
loop_
_atom_site_type_symbol
_atom_site_label
_atom_site_fract_x
_atom_site_fract_y
_atom_site_fract_z
Si Si1 0.004738 0.842235 0.628404
Si Si2 0.368827 0.497320 0.368481
Si Si3 0.152491 0.709663 0.671873
Si Si4 0.079271 0.062285 0.790140
Si Si5 0.701697 0.481266 0.018226
Si Si6 0.318990 0.721586 0.174808
O O1 0.092262 0.800505 0.596273
O O2 0.940488 0.935175 0.561791
O O3 0.968500 0.689586 0.652622
O O4 0.024094 0.943627 0.740043
O O5 0.383807 0.357438 0.291184
O O6 0.288300 0.483463 0.435650
O O7 0.357472 0.613067 0.264697
O O8 0.186343 0.591439 0.585326
O O9 0.230312 0.782221 0.712520
O O10 0.138652 0.996305 0.881873
O O11 0.135328 0.135815 0.693873
O O12 0.682027 0.331665 0.959648
#
# Coordination Sequence:
#
# PCOD9460484 Si02
#       6
#     8   8   8   8   8   8
#     4  11  24  45  72 105 148 191 234 309 376 422
#     4  10  22  47  68 102 144 191 235 299 370 421
#     4  11  23  43  71 107 138 190 254 290 353 451
#     4  11  24  48  74 101 152 192 235 308 369 431
#     4  11  25  44  76 102 142 198 245 295 366 441
#     4  10  24  43  72 108 137 185 257 290 347 454
#
# _framework density 25.501175
#
# number of rings (size 3 to 8) (size 9 to 14) (size 15 to 20)
#    0.000    1.333    3.333    1.000    7.000    2.000 
#    0.000    1.667    0.000    0.000    0.000    0.000 
#    0.000    0.000    0.000    0.000    0.000    0.000 
#
# Total GULP energy -268324.274812 kJ/mol
# GULP energy per Si atom -5590.089059 kJ/mol
# Density = 2.544313 g / cm^3
# Si number density = 25.501175 Si / 1000 Ang^3
#
#
#
# Elastic Constant Matrix: (Units=GPa)
#
#
# Indices 1 2 3 4 5 6 
#
# 1 161.3211 22.9912 16.7890 0.0000 0.0000 0.0000
# 2 22.9912 69.1134 13.5965 0.0000 0.0000 0.0000
# 3 16.7890 13.5965 46.1127 0.0000 0.0000 0.0000
# 4 0.0000 0.0000 0.0000 21.8728 0.0000 0.0000
# 5 0.0000 0.0000 0.0000 0.0000 40.1484 0.0000
# 6 0.0000 0.0000 0.0000 0.0000 0.0000 46.6238
#
#
#
# Elastic Compliance Matrix: (Units=1/GPa)
#
#
# Indices 1 2 3 4 5 6 
#
# 1 0.006657 -0.001845 -0.001880 0.000000 0.000000 0.000000
# 2 -0.001845 0.015871 -0.004008 0.000000 0.000000 0.000000
# 3 -0.001880 -0.004008 0.023552 0.000000 0.000000 0.000000
# 4 0.000000 0.000000 0.000000 0.045719 0.000000 0.000000
# 5 0.000000 0.000000 0.000000 0.000000 0.024908 0.000000
# 6 0.000000 0.000000 0.000000 0.000000 0.000000 0.021448
#
#
# Mechanical properties :
#
#
# Convention : Reuss Voigt Hill
#
# Bulk Modulus (GPa) = 32.66337 42.58893 37.62615
# Shear Modulus (GPa) = 30.52018 36.60704 33.56361
#
# Velocity S-wave (km/s) = 3.46325 3.79292 3.63183
# Velocity P-wave (km/s) = 5.36922 5.99322 5.68978
#
# Compressibility (1/GPa) = 0.03061534
#
# Stress axis : x y z
#
# Youngs Moduli (GPa) = 150.20916 63.00738 42.45886
#
# Poissons Ratio (x) = 0.11624 0.07982
# Poissons Ratio (y) = 0.27711 0.17017
# Poissons Ratio (z) = 0.28238 0.25253
#
# Static dielectric constant tensor:
#      x y z
#    x 2.057890 0.000000 0.000000 
#    y 0.000000 2.045830 0.000000 
#    z 0.000000 0.000000 2.060940 
# 
# From -- ./inp_files/8124.got.cif
#   From: 2010.05.17/outbox.cif.g08.bks.cpg/sg61_5_cif.got.tgz:8124.got - 2010.06.03 15:17:17.
