data_PCOD9460451
_publ_section_title
;
Structure prediction by ZEFSAII (Michael W. Deem and Ramdas Pophale) SiO2 
 PCOD9460451
Probable space group: P B C A
;
_chemical_formula_sum "Si O2"
_cell_formula_units_Z 40
_cell_length_a 19.944049
_cell_length_b 9.032835
_cell_length_c 8.920693
_cell_angle_alpha 90.000000
_cell_angle_beta 90.000000
_cell_angle_gamma 90.000000
_cell_volume 1607.074475
_symmetry_space_group_name_H-M "P B C A"
_symmetry_group_IT_number 61
_symmetry_cell_setting 'orthorhombic'
loop_
_space_group_symop_operation_xyz
x,y,z
1/2-x,-y,1/2+z
1/2+x,1/2-y,-z
-x,1/2+y,1/2-z
-x,-y,-z
1/2+x,y,1/2-z
1/2-x,1/2+y,z
x,1/2-y,1/2+z
loop_
_atom_site_type_symbol
_atom_site_label
_atom_site_fract_x
_atom_site_fract_y
_atom_site_fract_z
Si Si1 0.157921 0.191725 0.806007
Si Si2 0.737130 0.585153 0.140838
Si Si3 0.431128 0.390619 0.362159
Si Si4 0.843220 0.231781 0.888333
Si Si5 0.067767 0.193445 0.524600
O O1 0.188805 0.356127 0.825249
O O2 0.125985 0.162233 0.645703
O O3 0.220314 0.086827 0.845534
O O4 0.098157 0.173868 0.926262
O O5 0.691340 0.661829 0.267636
O O6 0.711694 0.636741 0.978061
O O7 0.397447 0.365015 0.201907
O O8 0.380661 0.328923 0.487672
O O9 0.499099 0.295527 0.383514
O O10 0.445518 0.559835 0.407269
#
# Coordination Sequence:
#
# PCOD9460451 Si02
#       5
#     8   8   8   8   8
#     4  12  27  45  68 104 139 188 239 290 353 423
#     4  11  26  43  71  98 141 182 239 286 357 410
#     4  10  22  45  70 103 138 184 228 293 352 429
#     4  10  22  44  70  99 139 179 230 290 350 423
#     4  11  25  43  70 100 143 181 235 287 356 421
#
# _framework density 24.889949000000001
#
# number of rings (size 3 to 8) (size 9 to 14) (size 15 to 20)
#    0.000    1.200    2.000    2.400    8.400    3.200 
#    0.000    3.000    0.000    0.000    0.000    0.000 
#    0.000    0.000    0.000    0.000    0.000    0.000 
#
# Total GULP energy -224063.997177 kJ/mol
# GULP energy per Si atom -5601.599929 kJ/mol
# Density = 2.483330 g / cm^3
# Si number density = 24.889949 Si / 1000 Ang^3
#
#
#
# Elastic Constant Matrix: (Units=GPa)
#
#
# Indices 1 2 3 4 5 6 
#
# 1 82.9156 0.0786 2.2426 0.0000 0.0000 0.0000
# 2 0.0786 47.1361 17.0443 0.0000 0.0000 0.0000
# 3 2.2426 17.0443 103.8553 0.0000 0.0000 0.0000
# 4 0.0000 0.0000 0.0000 21.6838 0.0000 0.0000
# 5 0.0000 0.0000 0.0000 0.0000 39.0697 0.0000
# 6 0.0000 0.0000 0.0000 0.0000 0.0000 27.5122
#
#
#
# Elastic Compliance Matrix: (Units=1/GPa)
#
#
# Indices 1 2 3 4 5 6 
#
# 1 0.012068 0.000079 -0.000274 0.000000 0.000000 0.000000
# 2 0.000079 0.022554 -0.003703 0.000000 0.000000 0.000000
# 3 -0.000274 -0.003703 0.010242 0.000000 0.000000 0.000000
# 4 0.000000 0.000000 0.000000 0.046117 0.000000 0.000000
# 5 0.000000 0.000000 0.000000 0.000000 0.025595 0.000000
# 6 0.000000 0.000000 0.000000 0.000000 0.000000 0.036347
#
#
# Mechanical properties :
#
#
# Convention : Reuss Voigt Hill
#
# Bulk Modulus (GPa) = 26.97710 30.29311 28.63510
# Shear Modulus (GPa) = 28.88899 31.95593 30.42246
#
# Velocity S-wave (km/s) = 3.41056 3.58703 3.49990
# Velocity P-wave (km/s) = 5.13530 5.41783 5.27846
#
# Compressibility (1/GPa) = 0.03706848
#
# Stress axis : x y z
#
# Youngs Moduli (GPa) = 82.86530 44.33788 97.63304
#
# Poissons Ratio (x) = -0.00349 0.02670
# Poissons Ratio (y) = -0.00653 0.36155
# Poissons Ratio (z) = 0.02267 0.16419
#
# Static dielectric constant tensor:
#      x y z
#    x 1.985890 0.000000 0.000000 
#    y 0.000000 2.025900 0.000000 
#    z 0.000000 0.000000 1.943120 
# 
# From -- ./inp_files/1777.got.cif
#   From: 2010.05.17/outbox.cif.g08.bks.cpg/sg61_1_cif.got.tgz:1777.got - 2010.06.03 15:17:17.
