data_PCOD9460160
_publ_section_title
;
Structure prediction by ZEFSAII (Michael W. Deem and Ramdas Pophale) SiO2 
 PCOD9460160
Probable space group: P B C A
;
_chemical_formula_sum "Si O2"
_cell_formula_units_Z 64
_cell_length_a 8.907916
_cell_length_b 23.130494
_cell_length_c 13.490693
_cell_angle_alpha 90.000000
_cell_angle_beta 90.000000
_cell_angle_gamma 90.000000
_cell_volume 2779.683061
_symmetry_space_group_name_H-M "P B C A"
_symmetry_group_IT_number 61
_symmetry_cell_setting 'orthorhombic'
loop_
_space_group_symop_operation_xyz
x,y,z
1/2-x,-y,1/2+z
1/2+x,1/2-y,-z
-x,1/2+y,1/2-z
-x,-y,-z
1/2+x,y,1/2-z
1/2-x,1/2+y,z
x,1/2-y,1/2+z
loop_
_atom_site_type_symbol
_atom_site_label
_atom_site_fract_x
_atom_site_fract_y
_atom_site_fract_z
Si Si1 0.261776 0.621960 0.825776
Si Si2 0.762194 0.469234 0.462918
Si Si3 0.479010 0.891483 0.664375
Si Si4 0.260364 0.154731 0.473339
Si Si5 0.184721 0.590292 0.044403
Si Si6 0.567248 0.810221 0.333320
Si Si7 0.011088 0.183495 0.340434
Si Si8 0.057613 0.013082 0.842075
O O1 0.151768 0.651559 0.748430
O O2 0.399519 0.665514 0.844941
O O3 0.344598 0.562594 0.790857
O O4 0.179830 0.607146 0.929036
O O5 0.694849 0.406599 0.486207
O O6 0.652500 0.522247 0.437664
O O7 0.845388 0.491354 0.563304
O O8 0.899781 0.462662 0.384744
O O9 0.621347 0.863165 0.611284
O O10 0.358437 0.904796 0.579580
O O11 0.417080 0.848558 0.746503
O O12 0.520998 0.953340 0.712666
O O13 0.345596 0.183660 0.563618
O O14 0.134940 0.194247 0.424499
O O15 0.098279 0.636303 0.110805
O O16 0.562800 0.742794 0.306933
#
# Coordination Sequence:
#
# PCOD9460160 Si02
#       8
#     8   8   8   8   8   8   8   8
#     4  11  24  48  67 100 132 181 227 285 342 403
#     4   8  15  36  70  98 132 172 216 275 341 415
#     4  10  21  44  72  99 136 180 224 276 344 419
#     4  11  23  46  70  99 135 177 226 279 348 399
#     4  10  22  44  71  98 141 178 221 282 353 408
#     4  12  29  44  70  95 137 184 236 284 330 412
#     4  12  29  41  65 107 134 180 231 285 336 409
#     4   8  15  37  70  98 129 175 220 270 346 409
#
# _framework density 23.024208999999999
#
# number of rings (size 3 to 8) (size 9 to 14) (size 15 to 20)
#    0.000    1.750    2.500    2.250    7.000    1.500 
#    6.750    0.000    0.000    0.000    0.000    0.000 
#    0.000    0.000    0.000    0.000    0.000    0.000 
#
# Total GULP energy -357975.735222 kJ/mol
# GULP energy per Si atom -5593.370863 kJ/mol
# Density = 2.297180 g / cm^3
# Si number density = 23.024209 Si / 1000 Ang^3
#
#
#
# Elastic Constant Matrix: (Units=GPa)
#
#
# Indices 1 2 3 4 5 6 
#
# 1 41.0854 6.8808 16.3963 0.0000 0.0000 0.0000
# 2 6.8808 99.2462 30.7341 0.0000 0.0000 0.0000
# 3 16.3963 30.7341 75.4952 0.0000 0.0000 0.0000
# 4 0.0000 0.0000 0.0000 27.0697 0.0000 0.0000
# 5 0.0000 0.0000 0.0000 0.0000 24.4908 0.0000
# 6 0.0000 0.0000 0.0000 0.0000 0.0000 19.6805
#
#
#
# Elastic Compliance Matrix: (Units=1/GPa)
#
#
# Indices 1 2 3 4 5 6 
#
# 1 0.026650 -0.000063 -0.005762 0.000000 0.000000 0.000000
# 2 -0.000063 0.011530 -0.004680 0.000000 0.000000 0.000000
# 3 -0.005762 -0.004680 0.016403 0.000000 0.000000 0.000000
# 4 0.000000 0.000000 0.000000 0.036942 0.000000 0.000000
# 5 0.000000 0.000000 0.000000 0.000000 0.040832 0.000000
# 6 0.000000 0.000000 0.000000 0.000000 0.000000 0.050812
#
#
# Mechanical properties :
#
#
# Convention : Reuss Voigt Hill
#
# Bulk Modulus (GPa) = 29.78750 35.98324 32.88537
# Shear Modulus (GPa) = 23.21609 25.03591 24.12600
#
# Velocity S-wave (km/s) = 3.17887 3.30111 3.24057
# Velocity P-wave (km/s) = 5.14191 5.49474 5.32125
#
# Compressibility (1/GPa) = 0.03357113
#
# Stress axis : x y z
#
# Youngs Moduli (GPa) = 37.52394 86.73317 60.96621
#
# Poissons Ratio (x) = 0.00548 0.35129
# Poissons Ratio (y) = 0.00237 0.28532
# Poissons Ratio (z) = 0.21622 0.40591
#
# Static dielectric constant tensor:
#      x y z
#    x 1.853560 0.000000 0.000000 
#    y 0.000000 1.877110 0.000000 
#    z 0.000000 0.000000 1.830480 
# 
# From -- ./inp_files/7266.got.cif
#   From: 2010.05.17/outbox.cif.g08.bks.cpg/sg61_4_cif.got.tgz:7266.got - 2010.06.03 15:17:17.
