data_PCOD9460867
_publ_section_title
;
Structure prediction by ZEFSAII (Michael W. Deem and Ramdas Pophale) SiO2 
 PCOD9460867
Probable space group: P B C A
;
_chemical_formula_sum "Si O2"
_cell_formula_units_Z 56
_cell_length_a 18.961875
_cell_length_b 9.731106
_cell_length_c 11.740985
_cell_angle_alpha 90.000000
_cell_angle_beta 90.000000
_cell_angle_gamma 90.000000
_cell_volume 2166.446735
_symmetry_space_group_name_H-M "P B C A"
_symmetry_group_IT_number 61
_symmetry_cell_setting 'orthorhombic'
loop_
_space_group_symop_operation_xyz
x,y,z
1/2-x,-y,1/2+z
1/2+x,1/2-y,-z
-x,1/2+y,1/2-z
-x,-y,-z
1/2+x,y,1/2-z
1/2-x,1/2+y,z
x,1/2-y,1/2+z
loop_
_atom_site_type_symbol
_atom_site_label
_atom_site_fract_x
_atom_site_fract_y
_atom_site_fract_z
Si Si1 0.332459 0.588435 0.576344
Si Si2 0.263740 0.165120 0.015946
Si Si3 0.119832 0.756607 0.834161
Si Si4 0.092817 0.355941 0.855184
Si Si5 0.512586 0.423153 0.333458
Si Si6 0.091446 0.958174 0.156668
Si Si7 0.627306 0.046049 0.592763
O O1 0.279728 0.715854 0.579655
O O2 0.294745 0.446187 0.603072
O O3 0.353564 0.575359 0.443021
O O4 0.408354 0.608344 0.634208
O O5 0.322960 0.226531 0.932033
O O6 0.208627 0.081028 0.936999
O O7 0.118884 0.919784 0.820938
O O8 0.131383 0.669781 0.717166
O O9 0.043046 0.695316 0.872660
O O10 0.887356 0.907022 0.770579
O O11 0.099030 0.196793 0.877534
O O12 0.017255 0.429769 0.878858
O O13 0.988111 0.064772 0.798653
O O14 0.097283 0.986334 0.025768
#
# Coordination Sequence:
#
# PCOD9460867 Si02
#       7
#     8   8   8   8   8   8   8
#     4  11  18  38  68  97 133 202 222 286 383 399
#     4  11  21  34  68  98 139 186 236 285 358 435
#     4   9  20  39  64 101 136 191 234 295 353 423
#     4   8  19  35  69  97 130 186 229 294 346 418
#     4   8  19  39  71  90 138 195 227 291 369 414
#     4   8  20  40  69  97 138 188 227 300 354 423
#     4  11  20  40  69 101 142 179 244 298 346 439
#
# _framework density 25.848777999999999
#
# number of rings (size 3 to 8) (size 9 to 14) (size 15 to 20)
#    1.714    0.571    4.286    0.429    0.000    0.000 
#    0.000   11.429   12.571    0.000    0.000    0.000 
#    0.000    0.000    0.000    0.000    0.000    0.000 
#
# Total GULP energy -312903.262615 kJ/mol
# GULP energy per Si atom -5587.558261 kJ/mol
# Density = 2.578995 g / cm^3
# Si number density = 25.848778 Si / 1000 Ang^3
#
#
#
# Elastic Constant Matrix: (Units=GPa)
#
#
# Indices 1 2 3 4 5 6 
#
# 1 160.3705 89.1339 31.9215 0.0000 0.0000 0.0000
# 2 89.1339 222.2609 60.8011 0.0000 0.0000 0.0000
# 3 31.9215 60.8011 84.9171 0.0000 0.0000 0.0000
# 4 0.0000 0.0000 0.0000 209.9432 0.0000 0.0000
# 5 0.0000 0.0000 0.0000 0.0000 24.0860 0.0000
# 6 0.0000 0.0000 0.0000 0.0000 0.0000 48.1358
#
#
#
# Elastic Compliance Matrix: (Units=1/GPa)
#
#
# Indices 1 2 3 4 5 6 
#
# 1 0.008078 -0.002996 -0.000892 0.000000 0.000000 0.000000
# 2 -0.002996 0.006706 -0.003675 0.000000 0.000000 0.000000
# 3 -0.000892 -0.003675 0.014743 0.000000 0.000000 0.000000
# 4 0.000000 0.000000 0.000000 0.004763 0.000000 0.000000
# 5 0.000000 0.000000 0.000000 0.000000 0.041518 0.000000
# 6 0.000000 0.000000 0.000000 0.000000 0.000000 0.020775
#
#
# Mechanical properties :
#
#
# Convention : Reuss Voigt Hill
#
# Bulk Modulus (GPa) = 69.43747 92.36237 80.89992
# Shear Modulus (GPa) = 42.91519 75.47914 59.19716
#
# Velocity S-wave (km/s) = 4.07903 5.40959 4.79073
# Velocity P-wave (km/s) = 7.00756 8.65029 7.87190
#
# Compressibility (1/GPa) = 0.01440145
#
# Stress axis : x y z
#
# Youngs Moduli (GPa) = 123.79276 149.12033 67.82855
#
# Poissons Ratio (x) = 0.44670 0.06049
# Poissons Ratio (y) = 0.37083 0.24930
# Poissons Ratio (z) = 0.11039 0.54808
#
# Static dielectric constant tensor:
#      x y z
#    x 2.070780 0.000000 0.000000 
#    y 0.000000 2.094480 0.000000 
#    z 0.000000 0.000000 2.077560 
# 
# From -- ./inp_files/9754.got.cif
#   From: 2010.05.17/outbox.cif.g08.bks.cpg/sg61_5_cif.got.tgz:9754.got - 2010.06.03 15:17:17.
