data_PCOD9460949
_publ_section_title
;
Structure prediction by ZEFSAII (Michael W. Deem and Ramdas Pophale) SiO2 
 PCOD9460949
Probable space group: P B C A
;
_chemical_formula_sum "Si O2"
_cell_formula_units_Z 40
_cell_length_a 13.064636
_cell_length_b 25.204840
_cell_length_c 4.776859
_cell_angle_alpha 90.000000
_cell_angle_beta 90.000000
_cell_angle_gamma 90.000000
_cell_volume 1572.981741
_symmetry_space_group_name_H-M "P B C A"
_symmetry_group_IT_number 61
_symmetry_cell_setting 'orthorhombic'
loop_
_space_group_symop_operation_xyz
x,y,z
1/2-x,-y,1/2+z
1/2+x,1/2-y,-z
-x,1/2+y,1/2-z
-x,-y,-z
1/2+x,y,1/2-z
1/2-x,1/2+y,z
x,1/2-y,1/2+z
loop_
_atom_site_type_symbol
_atom_site_label
_atom_site_fract_x
_atom_site_fract_y
_atom_site_fract_z
Si Si1 0.032746 0.074601 0.973944
Si Si2 0.219118 0.128731 0.705476
Si Si3 0.069865 0.619565 0.018018
Si Si4 0.909030 0.713419 0.062513
Si Si5 0.200770 0.473357 0.804591
O O1 0.127647 0.115166 0.922843
O O2 0.985255 0.073992 0.667731
O O3 0.945224 0.099193 0.168159
O O4 0.093298 0.028151 0.135100
O O5 0.321476 0.131232 0.884521
O O6 0.191463 0.181285 0.533642
O O7 0.216674 0.080344 0.481566
O O8 0.218707 0.516234 0.051881
O O9 0.001402 0.672799 0.002836
O O10 0.913562 0.766333 0.877159
#
# Coordination Sequence:
#
# PCOD9460949 Si02
#       5
#     8   8   8   8   8
#     4  11  22  45  66  98 141 183 220 292 338 400
#     4  11  26  45  75 100 145 188 231 289 352 417
#     4  11  25  42  72 100 138 183 232 282 353 408
#     4  11  24  43  69 100 138 179 227 288 347 412
#     4  12  23  43  73  99 137 192 233 283 353 414
#
# _framework density 25.429410000000001
#
# number of rings (size 3 to 8) (size 9 to 14) (size 15 to 20)
#    0.000    0.800    6.000    2.400    2.800    1.600 
#    0.000    6.000    0.000    0.000    0.000    0.000 
#    0.000    0.000    0.000    0.000    0.000    0.000 
#
# Total GULP energy -223939.042218 kJ/mol
# GULP energy per Si atom -5598.476055 kJ/mol
# Density = 2.537153 g / cm^3
# Si number density = 25.429410 Si / 1000 Ang^3
#
#
#
# Elastic Constant Matrix: (Units=GPa)
#
#
# Indices 1 2 3 4 5 6 
#
# 1 90.3658 -8.2565 3.8900 0.0000 0.0000 0.0000
# 2 -8.2565 99.6739 0.7585 0.0000 0.0000 0.0000
# 3 3.8900 0.7585 120.0544 0.0000 0.0000 0.0000
# 4 0.0000 0.0000 0.0000 34.1729 0.0000 0.0000
# 5 0.0000 0.0000 0.0000 0.0000 30.2332 0.0000
# 6 0.0000 0.0000 0.0000 0.0000 0.0000 31.3144
#
#
#
# Elastic Compliance Matrix: (Units=1/GPa)
#
#
# Indices 1 2 3 4 5 6 
#
# 1 0.011167 0.000928 -0.000368 0.000000 0.000000 0.000000
# 2 0.000928 0.010110 -0.000094 0.000000 0.000000 0.000000
# 3 -0.000368 -0.000094 0.008342 0.000000 0.000000 0.000000
# 4 0.000000 0.000000 0.000000 0.029263 0.000000 0.000000
# 5 0.000000 0.000000 0.000000 0.000000 0.033076 0.000000
# 6 0.000000 0.000000 0.000000 0.000000 0.000000 0.031934
#
#
# Mechanical properties :
#
#
# Convention : Reuss Voigt Hill
#
# Bulk Modulus (GPa) = 32.73169 33.65311 33.19240
# Shear Modulus (GPa) = 37.55336 40.05758 38.80547
#
# Velocity S-wave (km/s) = 3.84704 3.97324 3.91065
# Velocity P-wave (km/s) = 5.71249 5.85761 5.78550
#
# Compressibility (1/GPa) = 0.03055143
#
# Stress axis : x y z
#
# Youngs Moduli (GPa) = 89.55172 98.90912 119.87442
#
# Poissons Ratio (x) = -0.09177 0.04408
# Poissons Ratio (y) = -0.08309 0.01126
# Poissons Ratio (z) = 0.03293 0.00929
#
# Static dielectric constant tensor:
#      x y z
#    x 2.038940 0.000000 0.000000 
#    y 0.000000 2.026230 0.000000 
#    z 0.000000 0.000000 1.942040 
# 
# From -- ./inp_files/439.got.cif
#   From: 2010.05.17/outbox.cif.g08.bks.cpg/sg61_1_cif.got.tgz:439.got - 2010.06.03 15:17:17.
