data_PCOD9460125
_publ_section_title
;
Structure prediction by ZEFSAII (Michael W. Deem and Ramdas Pophale) SiO2 
 PCOD9460125
Probable space group: P B C A
;
_chemical_formula_sum "Si O2"
_cell_formula_units_Z 64
_cell_length_a 16.169935
_cell_length_b 19.505016
_cell_length_c 9.653575
_cell_angle_alpha 90.000000
_cell_angle_beta 90.000000
_cell_angle_gamma 90.000000
_cell_volume 3044.687751
_symmetry_space_group_name_H-M "P B C A"
_symmetry_group_IT_number 61
_symmetry_cell_setting 'orthorhombic'
loop_
_space_group_symop_operation_xyz
x,y,z
1/2-x,-y,1/2+z
1/2+x,1/2-y,-z
-x,1/2+y,1/2-z
-x,-y,-z
1/2+x,y,1/2-z
1/2-x,1/2+y,z
x,1/2-y,1/2+z
loop_
_atom_site_type_symbol
_atom_site_label
_atom_site_fract_x
_atom_site_fract_y
_atom_site_fract_z
Si Si1 0.073862 0.589521 0.099454
Si Si2 0.933651 0.561083 0.880233
Si Si3 0.735939 0.057679 0.054092
Si Si4 0.860487 0.792676 0.934434
Si Si5 0.265971 0.569144 0.120072
Si Si6 0.442165 0.694256 0.783762
Si Si7 0.100091 0.733621 0.192448
Si Si8 0.794914 0.210947 0.050194
O O1 0.059745 0.516627 0.175757
O O2 0.172935 0.593400 0.077586
O O3 0.054038 0.660442 0.175946
O O4 0.016380 0.581027 0.964764
O O5 0.918084 0.618725 0.766488
O O6 0.856347 0.560555 0.987649
O O7 0.734024 0.047285 0.219097
O O8 0.778609 0.130721 0.028333
O O9 0.782367 0.995888 0.977179
O O10 0.930017 0.797157 0.052690
O O11 0.786316 0.752075 0.008714
O O12 0.827966 0.867829 0.896570
O O13 0.889049 0.749112 0.802867
O O14 0.536592 0.711441 0.748434
O O15 0.177720 0.723060 0.292664
O O16 0.132873 0.760574 0.046833
#
# Coordination Sequence:
#
# PCOD9460125 Si02
#       8
#     8   8   8   8   8   8   8   8
#     4  10  21  43  64  92 127 178 215 268 327 402
#     4  10  23  42  68  94 129 177 224 268 333 405
#     4  11  24  44  68 100 133 175 221 276 336 403
#     4  12  25  42  67 100 133 173 219 280 332 395
#     4  11  25  43  71  99 133 175 222 276 338 400
#     4  12  26  43  68  97 137 178 226 274 341 404
#     4  12  25  42  67  95 135 176 220 271 337 400
#     4  12  23  43  65  98 132 167 218 276 328 391
#
# _framework density 21.020219000000001
#
# number of rings (size 3 to 8) (size 9 to 14) (size 15 to 20)
#    0.000    0.750    3.750    3.750    5.250    0.000 
#    4.500    0.000    0.000    3.750    0.000    0.000 
#    0.000    0.000    0.000    0.000    0.000    0.000 
#
# Total GULP energy -357826.279688 kJ/mol
# GULP energy per Si atom -5591.035620 kJ/mol
# Density = 2.097238 g / cm^3
# Si number density = 21.020219 Si / 1000 Ang^3
#
#
#
# Elastic Constant Matrix: (Units=GPa)
#
#
# Indices 1 2 3 4 5 6 
#
# 1 36.4236 -6.8990 -4.6048 0.0000 0.0000 0.0000
# 2 -6.8990 133.8801 50.0864 0.0000 0.0000 0.0000
# 3 -4.6048 50.0864 83.0775 0.0000 0.0000 0.0000
# 4 0.0000 0.0000 0.0000 28.0493 0.0000 0.0000
# 5 0.0000 0.0000 0.0000 0.0000 26.2393 0.0000
# 6 0.0000 0.0000 0.0000 0.0000 0.0000 29.6827
#
#
#
# Elastic Compliance Matrix: (Units=1/GPa)
#
#
# Indices 1 2 3 4 5 6 
#
# 1 0.027774 0.001104 0.000874 0.000000 0.000000 0.000000
# 2 0.001104 0.009689 -0.005780 0.000000 0.000000 0.000000
# 3 0.000874 -0.005780 0.015570 0.000000 0.000000 0.000000
# 4 0.000000 0.000000 0.000000 0.035651 0.000000 0.000000
# 5 0.000000 0.000000 0.000000 0.000000 0.038111 0.000000
# 6 0.000000 0.000000 0.000000 0.000000 0.000000 0.033690
#
#
# Mechanical properties :
#
#
# Convention : Reuss Voigt Hill
#
# Bulk Modulus (GPa) = 22.01227 36.72738 29.36982
# Shear Modulus (GPa) = 27.28783 31.11417 29.20100
#
# Velocity S-wave (km/s) = 3.60692 3.85151 3.73122
# Velocity P-wave (km/s) = 5.27648 6.10649 5.70659
#
# Compressibility (1/GPa) = 0.04542922
#
# Stress axis : x y z
#
# Youngs Moduli (GPa) = 36.00443 103.21357 64.22585
#
# Poissons Ratio (x) = -0.11399 -0.05611
# Poissons Ratio (y) = -0.03976 0.37122
# Poissons Ratio (z) = -0.03145 0.59657
#
# Static dielectric constant tensor:
#      x y z
#    x 1.759870 0.000000 0.000000 
#    y 0.000000 1.759240 0.000000 
#    z 0.000000 0.000000 1.728470 
# 
# From -- ./inp_files/3699.got.cif
#   From: 2010.05.17/outbox.cif.g08.bks.cpg/sg61_2_cif.got.tgz:3699.got - 2010.06.03 15:17:17.
