data_PCOD9460381
_publ_section_title
;
Structure prediction by ZEFSAII (Michael W. Deem and Ramdas Pophale) SiO2 
 PCOD9460381
Probable space group: P B C A
;
_chemical_formula_sum "Si O2"
_cell_formula_units_Z 40
_cell_length_a 13.811638
_cell_length_b 8.943985
_cell_length_c 13.178981
_cell_angle_alpha 90.000000
_cell_angle_beta 90.000000
_cell_angle_gamma 90.000000
_cell_volume 1628.013797
_symmetry_space_group_name_H-M "P B C A"
_symmetry_group_IT_number 61
_symmetry_cell_setting 'orthorhombic'
loop_
_space_group_symop_operation_xyz
x,y,z
1/2-x,-y,1/2+z
1/2+x,1/2-y,-z
-x,1/2+y,1/2-z
-x,-y,-z
1/2+x,y,1/2-z
1/2-x,1/2+y,z
x,1/2-y,1/2+z
loop_
_atom_site_type_symbol
_atom_site_label
_atom_site_fract_x
_atom_site_fract_y
_atom_site_fract_z
Si Si1 0.407483 0.617365 0.112787
Si Si2 0.668203 0.310927 0.242622
Si Si3 0.811164 0.467219 0.927583
Si Si4 0.439669 0.296563 0.044533
Si Si5 0.216797 0.584196 0.387348
O O1 0.418443 0.704201 0.219060
O O2 0.293505 0.611378 0.085834
O O3 0.464052 0.700617 0.022865
O O4 0.440076 0.443967 0.115159
O O5 0.690923 0.403675 0.344108
O O6 0.747423 0.195697 0.199380
O O7 0.663738 0.440026 0.159058
O O8 0.901490 0.357495 0.909746
O O9 0.806072 0.530224 0.042266
O O10 0.356003 0.333501 0.962131
#
# Coordination Sequence:
#
# PCOD9460381 Si02
#       5
#     8   8   8   8   8
#     4  10  22  42  69 101 132 175 222 279 336 403
#     4  12  24  40  70  97 131 181 233 273 339 406
#     4  11  23  44  73  97 139 182 220 289 340 402
#     4  10  23  46  68  98 139 176 220 281 343 398
#     4  11  24  42  64 100 131 182 226 277 340 399
#
# _framework density 24.569815999999999
#
# number of rings (size 3 to 8) (size 9 to 14) (size 15 to 20)
#    0.000    1.200    4.000    2.400    2.800    0.800 
#    7.200    2.000    0.000    0.000    0.000    0.000 
#    0.000    0.000    0.000    0.000    0.000    0.000 
#
# Total GULP energy -223621.827522 kJ/mol
# GULP energy per Si atom -5590.545688 kJ/mol
# Density = 2.451389 g / cm^3
# Si number density = 24.569816 Si / 1000 Ang^3
#
#
#
# Elastic Constant Matrix: (Units=GPa)
#
#
# Indices 1 2 3 4 5 6 
#
# 1 62.7975 39.9576 12.5982 0.0000 0.0000 0.0000
# 2 39.9576 133.6507 61.9225 0.0000 0.0000 0.0000
# 3 12.5982 61.9225 97.7530 0.0000 0.0000 0.0000
# 4 0.0000 0.0000 0.0000 36.8344 0.0000 0.0000
# 5 0.0000 0.0000 0.0000 0.0000 33.7290 0.0000
# 6 0.0000 0.0000 0.0000 0.0000 0.0000 23.7422
#
#
#
# Elastic Compliance Matrix: (Units=1/GPa)
#
#
# Indices 1 2 3 4 5 6 
#
# 1 0.019863 -0.006727 0.001701 0.000000 0.000000 0.000000
# 2 -0.006727 0.012868 -0.007285 0.000000 0.000000 0.000000
# 3 0.001701 -0.007285 0.014625 0.000000 0.000000 0.000000
# 4 0.000000 0.000000 0.000000 0.027149 0.000000 0.000000
# 5 0.000000 0.000000 0.000000 0.000000 0.029648 0.000000
# 6 0.000000 0.000000 0.000000 0.000000 0.000000 0.042119
#
#
# Mechanical properties :
#
#
# Convention : Reuss Voigt Hill
#
# Bulk Modulus (GPa) = 43.98265 58.12865 51.05565
# Shear Modulus (GPa) = 28.01571 30.84264 29.42918
#
# Velocity S-wave (km/s) = 3.38042 3.54687 3.46465
# Velocity P-wave (km/s) = 5.75989 6.36268 6.06877
#
# Compressibility (1/GPa) = 0.02273624
#
# Stress axis : x y z
#
# Youngs Moduli (GPa) = 50.34483 77.71009 68.37532
#
# Poissons Ratio (x) = 0.52273 -0.11631
# Poissons Ratio (y) = 0.33865 0.49809
# Poissons Ratio (z) = -0.08564 0.56609
#
# Static dielectric constant tensor:
#      x y z
#    x 1.941040 0.000000 0.000000 
#    y 0.000000 2.023950 0.000000 
#    z 0.000000 0.000000 2.016980 
# 
# From -- ./inp_files/7700.got.cif
#   From: 2010.05.17/outbox.cif.g08.bks.cpg/sg61_4_cif.got.tgz:7700.got - 2010.06.03 15:17:17.
