data_PCOD9460463
_publ_section_title
;
Structure prediction by ZEFSAII (Michael W. Deem and Ramdas Pophale) SiO2 
 PCOD9460463
Probable space group: P B C A
;
_chemical_formula_sum "Si O2"
_cell_formula_units_Z 56
_cell_length_a 9.020126
_cell_length_b 21.342100
_cell_length_c 11.621801
_cell_angle_alpha 90.000000
_cell_angle_beta 90.000000
_cell_angle_gamma 90.000000
_cell_volume 2237.294677
_symmetry_space_group_name_H-M "P B C A"
_symmetry_group_IT_number 61
_symmetry_cell_setting 'orthorhombic'
loop_
_space_group_symop_operation_xyz
x,y,z
1/2-x,-y,1/2+z
1/2+x,1/2-y,-z
-x,1/2+y,1/2-z
-x,-y,-z
1/2+x,y,1/2-z
1/2-x,1/2+y,z
x,1/2-y,1/2+z
loop_
_atom_site_type_symbol
_atom_site_label
_atom_site_fract_x
_atom_site_fract_y
_atom_site_fract_z
Si Si1 0.080601 0.926009 0.185081
Si Si2 0.650441 0.157330 0.829836
Si Si3 0.506945 0.607287 0.206659
Si Si4 0.476187 0.270143 0.933215
Si Si5 0.282704 0.690700 0.910867
Si Si6 0.321661 0.940871 0.494541
Si Si7 0.811959 0.537247 0.147789
O O1 0.214447 0.886030 0.129549
O O2 0.973311 0.885626 0.267790
O O3 0.966281 0.949629 0.087838
O O4 0.152478 0.979777 0.264634
O O5 0.565509 0.206887 0.906309
O O6 0.723172 0.196279 0.724891
O O7 0.519199 0.680239 0.171938
O O8 0.662598 0.574090 0.181534
O O9 0.445304 0.586617 0.331505
O O10 0.384611 0.579245 0.117604
O O11 0.314769 0.245619 0.962131
O O12 0.552380 0.303020 0.040881
O O13 0.237560 0.621028 0.948257
O O14 0.219477 0.001324 0.472545
#
# Coordination Sequence:
#
# PCOD9460463 Si02
#       7
#     8   8   8   8   8   8   8
#     4  11  20  38  72  94 117 168 228 272 317 382
#     4  11  21  39  66  95 124 162 224 278 318 384
#     4  11  27  41  64  97 137 176 211 274 340 399
#     4  11  25  42  63  96 138 168 217 269 340 396
#     4  10  23  41  66  96 126 174 221 274 323 395
#     4  10  22  45  69  94 130 169 233 269 332 389
#     4  12  21  42  67  92 131 175 215 269 330 394
#
# _framework density 25.03023
#
# number of rings (size 3 to 8) (size 9 to 14) (size 15 to 20)
#    0.000    1.143    5.714    0.429    8.000    0.000 
#    2.571    0.714    3.143    0.000    0.000    0.000 
#    0.000    0.000    0.000    0.000    0.000    0.000 
#
# Total GULP energy -313250.803318 kJ/mol
# GULP energy per Si atom -5593.764345 kJ/mol
# Density = 2.497326 g / cm^3
# Si number density = 25.030230 Si / 1000 Ang^3
#
#
#
# Elastic Constant Matrix: (Units=GPa)
#
#
# Indices 1 2 3 4 5 6 
#
# 1 77.2100 50.0537 3.7154 0.0000 0.0000 0.0000
# 2 50.0537 111.6181 18.4270 0.0000 0.0000 0.0000
# 3 3.7154 18.4270 33.8011 0.0000 0.0000 0.0000
# 4 0.0000 0.0000 0.0000 30.6358 0.0000 0.0000
# 5 0.0000 0.0000 0.0000 0.0000 34.6245 0.0000
# 6 0.0000 0.0000 0.0000 0.0000 0.0000 33.0666
#
#
#
# Elastic Compliance Matrix: (Units=1/GPa)
#
#
# Indices 1 2 3 4 5 6 
#
# 1 0.018487 -0.008742 0.002733 0.000000 0.000000 0.000000
# 2 -0.008742 0.013979 -0.006660 0.000000 0.000000 0.000000
# 3 0.002733 -0.006660 0.032915 0.000000 0.000000 0.000000
# 4 0.000000 0.000000 0.000000 0.032642 0.000000 0.000000
# 5 0.000000 0.000000 0.000000 0.000000 0.028881 0.000000
# 6 0.000000 0.000000 0.000000 0.000000 0.000000 0.030242
#
#
# Mechanical properties :
#
#
# Convention : Reuss Voigt Hill
#
# Bulk Modulus (GPa) = 24.97186 40.78016 32.87601
# Shear Modulus (GPa) = 25.53239 29.69424 27.61332
#
# Velocity S-wave (km/s) = 3.19731 3.44806 3.32505
# Velocity P-wave (km/s) = 4.86094 5.67273 5.28245
#
# Compressibility (1/GPa) = 0.04004508
#
# Stress axis : x y z
#
# Youngs Moduli (GPa) = 54.09157 71.53780 30.38129
#
# Poissons Ratio (x) = 0.62535 -0.08305
# Poissons Ratio (y) = 0.47285 0.20233
# Poissons Ratio (z) = -0.14786 0.47642
#
# Static dielectric constant tensor:
#      x y z
#    x 1.981750 0.000000 0.000000 
#    y 0.000000 1.987420 0.000000 
#    z 0.000000 0.000000 2.022200 
# 
# From -- ./inp_files/7165.got.cif
#   From: 2010.05.17/outbox.cif.g08.bks.cpg/sg61_4_cif.got.tgz:7165.got - 2010.06.03 15:17:17.
