data_PCOD9460278
_publ_section_title
;
Structure prediction by ZEFSAII (Michael W. Deem and Ramdas Pophale) SiO2 
 PCOD9460278
Probable space group: P B C A
;
_chemical_formula_sum "Si O2"
_cell_formula_units_Z 64
_cell_length_a 16.251527
_cell_length_b 17.936689
_cell_length_c 9.504639
_cell_angle_alpha 90.000000
_cell_angle_beta 90.000000
_cell_angle_gamma 90.000000
_cell_volume 2770.588825
_symmetry_space_group_name_H-M "P B C A"
_symmetry_group_IT_number 61
_symmetry_cell_setting 'orthorhombic'
loop_
_space_group_symop_operation_xyz
x,y,z
1/2-x,-y,1/2+z
1/2+x,1/2-y,-z
-x,1/2+y,1/2-z
-x,-y,-z
1/2+x,y,1/2-z
1/2-x,1/2+y,z
x,1/2-y,1/2+z
loop_
_atom_site_type_symbol
_atom_site_label
_atom_site_fract_x
_atom_site_fract_y
_atom_site_fract_z
Si Si1 0.242072 0.711713 0.797811
Si Si2 0.351899 0.856762 0.787489
Si Si3 0.399457 0.230054 0.605521
Si Si4 0.175783 0.437191 0.284282
Si Si5 0.009430 0.244943 0.154770
Si Si6 0.440678 0.601884 0.555457
Si Si7 0.123766 0.878911 0.506801
Si Si8 0.277073 0.976170 0.578687
O O1 0.281565 0.793606 0.816831
O O2 0.192811 0.707821 0.648952
O O3 0.313026 0.650411 0.816318
O O4 0.173706 0.679500 0.906222
O O5 0.430141 0.813022 0.725498
O O6 0.381419 0.905164 0.920899
O O7 0.322296 0.913193 0.668256
O O8 0.462839 0.206582 0.726422
O O9 0.443702 0.212600 0.457999
O O10 0.399777 0.320319 0.627796
O O11 0.179465 0.485246 0.427135
O O12 0.254293 0.457862 0.185496
O O13 0.095391 0.440966 0.188959
O O14 0.061800 0.307685 0.073791
O O15 0.537339 0.586244 0.538152
O O16 0.188971 0.940411 0.542692
#
# Coordination Sequence:
#
# PCOD9460278 Si02
#       8
#     8   8   8   8   8   8   8   8
#     4  11  23  38  67  96 128 163 210 260 318 372
#     4  12  24  38  68  99 129 162 212 265 319 375
#     4  11  20  38  59  96 131 159 203 259 315 379
#     4  11  26  44  65  91 129 170 214 264 317 377
#     4  11  22  36  61  97 135 160 201 261 320 374
#     4  11  23  40  65  96 127 167 207 258 319 374
#     4  10  22  40  64  95 126 169 206 256 319 374
#     4  11  26  46  65  92 129 171 216 262 318 379
#
# _framework density 23.099782000000001
#
# number of rings (size 3 to 8) (size 9 to 14) (size 15 to 20)
#    0.000    1.000    7.500    0.750    7.000    0.500 
#    2.250    0.000    0.000    4.500    0.000    0.000 
#    0.000    0.000    0.000    0.000    0.000    0.000 
#
# Total GULP energy -356931.441446 kJ/mol
# GULP energy per Si atom -5577.053773 kJ/mol
# Density = 2.304721 g / cm^3
# Si number density = 23.099782 Si / 1000 Ang^3
#
#
#
# Elastic Constant Matrix: (Units=GPa)
#
#
# Indices 1 2 3 4 5 6 
#
# 1 92.7451 1.6602 28.6322 0.0000 0.0000 0.0000
# 2 1.6602 33.7611 4.5089 0.0000 0.0000 0.0000
# 3 28.6322 4.5089 116.5630 0.0000 0.0000 0.0000
# 4 0.0000 0.0000 0.0000 22.8621 0.0000 0.0000
# 5 0.0000 0.0000 0.0000 0.0000 35.7608 0.0000
# 6 0.0000 0.0000 0.0000 0.0000 0.0000 15.2911
#
#
#
# Elastic Compliance Matrix: (Units=1/GPa)
#
#
# Indices 1 2 3 4 5 6 
#
# 1 0.011668 -0.000192 -0.002859 0.000000 0.000000 0.000000
# 2 -0.000192 0.029777 -0.001105 0.000000 0.000000 0.000000
# 3 -0.002859 -0.001105 0.009324 0.000000 0.000000 0.000000
# 4 0.000000 0.000000 0.000000 0.043741 0.000000 0.000000
# 5 0.000000 0.000000 0.000000 0.000000 0.027964 0.000000
# 6 0.000000 0.000000 0.000000 0.000000 0.000000 0.065397
#
#
# Mechanical properties :
#
#
# Convention : Reuss Voigt Hill
#
# Bulk Modulus (GPa) = 23.55255 34.74133 29.14694
# Shear Modulus (GPa) = 23.77169 28.66732 26.21951
#
# Velocity S-wave (km/s) = 3.21142 3.52663 3.37271
# Velocity P-wave (km/s) = 4.89582 5.62630 5.27372
#
# Compressibility (1/GPa) = 0.04245825
#
# Stress axis : x y z
#
# Youngs Moduli (GPa) = 85.70282 33.58316 107.25014
#
# Poissons Ratio (x) = 0.00645 0.30660
# Poissons Ratio (y) = 0.01645 0.11848
# Poissons Ratio (z) = 0.24500 0.03710
#
# Static dielectric constant tensor:
#      x y z
#    x 1.894770 0.000000 0.000000 
#    y 0.000000 1.908060 0.000000 
#    z 0.000000 0.000000 1.978350 
# 
# From -- ./inp_files/3718.got.cif
#   From: 2010.05.17/outbox.cif.g08.bks.cpg/sg61_2_cif.got.tgz:3718.got - 2010.06.03 15:17:17.
