data_PCOD9460666
_publ_section_title
;
Structure prediction by ZEFSAII (Michael W. Deem and Ramdas Pophale) SiO2 
 PCOD9460666
Probable space group: P B C A
;
_chemical_formula_sum "Si O2"
_cell_formula_units_Z 52
_cell_length_a 5.332182
_cell_length_b 14.567671
_cell_length_c 24.492918
_cell_angle_alpha 90.000000
_cell_angle_beta 90.000000
_cell_angle_gamma 90.000000
_cell_volume 1902.547979
_symmetry_space_group_name_H-M "P B C A"
_symmetry_group_IT_number 61
_symmetry_cell_setting 'orthorhombic'
loop_
_space_group_symop_operation_xyz
x,y,z
1/2-x,-y,1/2+z
1/2+x,1/2-y,-z
-x,1/2+y,1/2-z
-x,-y,-z
1/2+x,y,1/2-z
1/2-x,1/2+y,z
x,1/2-y,1/2+z
loop_
_atom_site_type_symbol
_atom_site_label
_atom_site_fract_x
_atom_site_fract_y
_atom_site_fract_z
Si Si1 0.000000 0.000000 0.000000
Si Si2 0.505904 0.793709 0.913381
Si Si3 0.795392 0.833492 0.274163
Si Si4 0.835698 0.137547 0.627166
Si Si5 0.657754 0.331622 0.465870
Si Si6 0.160245 0.873146 0.768875
Si Si7 0.330116 0.441504 0.881092
O O1 0.137459 0.910550 0.028323
O O2 0.029121 0.949630 0.938708
O O3 0.354416 0.722773 0.875592
O O4 0.775202 0.751692 0.925241
O O5 0.441907 0.894893 0.893899
O O6 0.398562 0.791872 0.975120
O O7 0.516621 0.871377 0.265132
O O8 0.737307 0.727028 0.256070
O O9 0.930927 0.845545 0.332264
O O10 0.923593 0.121614 0.564003
O O11 0.704686 0.042953 0.640912
O O12 0.437574 0.917048 0.766119
O O13 0.066258 0.880435 0.831339
#
# Coordination Sequence:
#
# PCOD9460666 Si02
#       7
#     4   8   8   8   8   8   8
#     4  10  24  46  70 110 158 198 262 342 396 508
#     4  11  23  45  66 106 147 197 255 310 401 480
#     4  10  24  45  73 105 147 197 257 334 398 468
#     4  12  26  44  72 108 144 205 254 328 397 481
#     4  11  24  42  72 101 151 197 252 318 392 485
#     4  10  23  46  72 110 148 204 264 335 405 484
#     4  11  26  45  75 111 154 209 270 334 420 498
#
# _framework density 27.331768
#
# number of rings (size 3 to 8) (size 9 to 14) (size 15 to 20)
#    0.000    1.231    3.077    1.846    6.462    6.154 
#    0.000    0.000    0.000    0.000    0.000    0.000 
#    0.000    0.000    0.000    0.000    0.000    0.000 
#
# Total GULP energy -289698.308002 kJ/mol
# GULP energy per Si atom -5571.121308 kJ/mol
# Density = 2.726956 g / cm^3
# Si number density = 27.331768 Si / 1000 Ang^3
#
#
#
# Elastic Constant Matrix: (Units=GPa)
#
#
# Indices 1 2 3 4 5 6 
#
# 1 85.0877 -7.7612 9.1241 0.0000 0.0000 0.0000
# 2 -7.7612 104.0855 15.1565 0.0000 0.0000 0.0000
# 3 9.1241 15.1565 162.4208 0.0000 0.0000 0.0000
# 4 0.0000 0.0000 0.0000 38.7210 0.0000 0.0000
# 5 0.0000 0.0000 0.0000 0.0000 35.2347 0.0000
# 6 0.0000 0.0000 0.0000 0.0000 0.0000 7.6586
#
#
#
# Elastic Compliance Matrix: (Units=1/GPa)
#
#
# Indices 1 2 3 4 5 6 
#
# 1 0.011926 0.001000 -0.000763 0.000000 0.000000 0.000000
# 2 0.001000 0.009824 -0.000973 0.000000 0.000000 0.000000
# 3 -0.000763 -0.000973 0.006291 0.000000 0.000000 0.000000
# 4 0.000000 0.000000 0.000000 0.025826 0.000000 0.000000
# 5 0.000000 0.000000 0.000000 0.000000 0.028381 0.000000
# 6 0.000000 0.000000 0.000000 0.000000 0.000000 0.130572
#
#
# Mechanical properties :
#
#
# Convention : Reuss Voigt Hill
#
# Bulk Modulus (GPa) = 37.63880 42.73697 40.18789
# Shear Modulus (GPa) = 22.40684 38.66117 30.53401
#
# Velocity S-wave (km/s) = 2.86634 3.76508 3.34602
# Velocity P-wave (km/s) = 4.97549 5.87975 5.44642
#
# Compressibility (1/GPa) = 0.02656833
#
# Stress axis : x y z
#
# Youngs Moduli (GPa) = 83.85264 101.79413 158.96951
#
# Poissons Ratio (x) = -0.10183 0.12134
# Poissons Ratio (y) = -0.08389 0.15466
# Poissons Ratio (z) = 0.06400 0.09904
#
# Static dielectric constant tensor:
#      x y z
#    x 2.263020 0.000000 0.000000 
#    y 0.000000 2.185590 0.000000 
#    z 0.000000 0.000000 2.101150 
# 
# From -- ./inp_files/11257.got.cif
#   From: 2010.05.17/outbox.cif.g08.bks.cpg/sg61_6_cif.got.tgz:11257.got - 2010.06.03 15:17:17.
