data_PCOD9460344
_publ_section_title
;
Structure prediction by ZEFSAII (Michael W. Deem and Ramdas Pophale) SiO2 
 PCOD9460344
Probable space group: P B C A
;
_chemical_formula_sum "Si O2"
_cell_formula_units_Z 64
_cell_length_a 18.966097
_cell_length_b 12.915760
_cell_length_c 12.217572
_cell_angle_alpha 90.000000
_cell_angle_beta 90.000000
_cell_angle_gamma 90.000000
_cell_volume 2992.835460
_symmetry_space_group_name_H-M "P B C A"
_symmetry_group_IT_number 61
_symmetry_cell_setting 'orthorhombic'
loop_
_space_group_symop_operation_xyz
x,y,z
1/2-x,-y,1/2+z
1/2+x,1/2-y,-z
-x,1/2+y,1/2-z
-x,-y,-z
1/2+x,y,1/2-z
1/2-x,1/2+y,z
x,1/2-y,1/2+z
loop_
_atom_site_type_symbol
_atom_site_label
_atom_site_fract_x
_atom_site_fract_y
_atom_site_fract_z
Si Si1 0.170611 0.366406 0.721583
Si Si2 0.787274 0.293927 0.304951
Si Si3 0.769920 0.522173 0.675251
Si Si4 0.852194 0.039822 0.959094
Si Si5 0.952466 0.760066 0.862708
Si Si6 0.002370 0.134394 0.930369
Si Si7 0.082535 0.045252 0.717233
Si Si8 0.067714 0.688023 0.209328
O O1 0.218966 0.274949 0.674726
O O2 0.216114 0.425764 0.812679
O O3 0.155957 0.456943 0.636541
O O4 0.095609 0.310490 0.733926
O O5 0.772626 0.372533 0.203483
O O6 0.811805 0.360474 0.409489
O O7 0.850477 0.215412 0.280095
O O8 0.812025 0.505273 0.563409
O O9 0.833868 0.530092 0.763353
O O10 0.935261 0.066882 0.972190
O O11 0.933575 0.639264 0.865209
O O12 0.031617 0.778723 0.822894
O O13 0.946508 0.823582 0.974750
O O14 0.043524 0.079761 0.830273
O O15 0.965668 0.236609 0.880207
O O16 0.055261 0.932122 0.685764
#
# Coordination Sequence:
#
# PCOD9460344 Si02
#       8
#     8   8   8   8   8   8   8   8
#     4  11  22  40  63  93 130 165 211 273 314 380
#     4  10  22  42  61  93 134 164 213 271 325 378
#     4  11  22  40  64  94 123 178 211 257 330 383
#     4  10  23  41  66  94 126 173 218 260 322 394
#     4  11  23  41  67  94 128 169 217 268 315 388
#     4  10  23  42  66  98 128 171 219 265 323 386
#     4  11  21  39  67  96 128 171 216 262 325 383
#     4  10  22  42  66  92 133 171 212 272 322 382
#
# _framework density 21.384404
#
# number of rings (size 3 to 8) (size 9 to 14) (size 15 to 20)
#    0.000    1.500    2.500    2.250    0.000    4.000 
#    6.750    0.000    0.000    0.000    0.000    0.000 
#    0.000    0.000    0.000    0.000    0.000    0.000 
#
# Total GULP energy -357166.125541 kJ/mol
# GULP energy per Si atom -5580.720712 kJ/mol
# Density = 2.133573 g / cm^3
# Si number density = 21.384404 Si / 1000 Ang^3
#
#
#
# Elastic Constant Matrix: (Units=GPa)
#
#
# Indices 1 2 3 4 5 6 
#
# 1 75.1132 20.6365 16.8028 0.0000 0.0000 0.0000
# 2 20.6365 125.7430 0.6360 0.0000 0.0000 0.0000
# 3 16.8028 0.6360 16.9470 0.0000 0.0000 0.0000
# 4 0.0000 0.0000 0.0000 15.1936 0.0000 0.0000
# 5 0.0000 0.0000 0.0000 0.0000 23.6240 0.0000
# 6 0.0000 0.0000 0.0000 0.0000 0.0000 38.8036
#
#
#
# Elastic Compliance Matrix: (Units=1/GPa)
#
#
# Indices 1 2 3 4 5 6 
#
# 1 0.018093 -0.002879 -0.017831 0.000000 0.000000 0.000000
# 2 -0.002879 0.008412 0.002539 0.000000 0.000000 0.000000
# 3 -0.017831 0.002539 0.076592 0.000000 0.000000 0.000000
# 4 0.000000 0.000000 0.000000 0.065817 0.000000 0.000000
# 5 0.000000 0.000000 0.000000 0.000000 0.042330 0.000000
# 6 0.000000 0.000000 0.000000 0.000000 0.000000 0.025771
#
#
# Mechanical properties :
#
#
# Convention : Reuss Voigt Hill
#
# Bulk Modulus (GPa) = 14.98026 32.66153 23.82089
# Shear Modulus (GPa) = 16.91423 27.50608 22.21016
#
# Velocity S-wave (km/s) = 2.81545 3.59035 3.22625
# Velocity P-wave (km/s) = 4.19398 5.70037 5.00418
#
# Compressibility (1/GPa) = 0.06675451
#
# Stress axis : x y z
#
# Youngs Moduli (GPa) = 55.26974 118.87200 13.05625
#
# Poissons Ratio (x) = 0.34225 0.23281
# Poissons Ratio (y) = 0.15913 -0.03315
# Poissons Ratio (z) = 0.98552 -0.30181
#
# Static dielectric constant tensor:
#      x y z
#    x 1.786440 0.000000 0.000000 
#    y 0.000000 1.811040 0.000000 
#    z 0.000000 0.000000 1.775740 
# 
# From -- ./inp_files/8221.got.cif
#   From: 2010.05.17/outbox.cif.g08.bks.cpg/sg61_5_cif.got.tgz:8221.got - 2010.06.03 15:17:17.
