data_PCOD9460707
_publ_section_title
;
Structure prediction by ZEFSAII (Michael W. Deem and Ramdas Pophale) SiO2 
 PCOD9460707
Probable space group: P B C A
;
_chemical_formula_sum "Si O2"
_cell_formula_units_Z 56
_cell_length_a 10.574497
_cell_length_b 13.910354
_cell_length_c 16.159076
_cell_angle_alpha 90.000000
_cell_angle_beta 90.000000
_cell_angle_gamma 90.000000
_cell_volume 2376.919230
_symmetry_space_group_name_H-M "P B C A"
_symmetry_group_IT_number 61
_symmetry_cell_setting 'orthorhombic'
loop_
_space_group_symop_operation_xyz
x,y,z
1/2-x,-y,1/2+z
1/2+x,1/2-y,-z
-x,1/2+y,1/2-z
-x,-y,-z
1/2+x,y,1/2-z
1/2-x,1/2+y,z
x,1/2-y,1/2+z
loop_
_atom_site_type_symbol
_atom_site_label
_atom_site_fract_x
_atom_site_fract_y
_atom_site_fract_z
Si Si1 0.462662 0.643473 0.306320
Si Si2 0.542319 0.816538 0.570814
Si Si3 0.223719 0.453164 0.914282
Si Si4 0.668917 0.017217 0.414099
Si Si5 0.626435 0.280755 0.313110
Si Si6 0.114466 0.799067 0.103339
Si Si7 0.158994 0.493734 0.245150
O O1 0.410806 0.589761 0.387559
O O2 0.353171 0.695382 0.253025
O O3 0.548077 0.734819 0.328424
O O4 0.540081 0.565726 0.253269
O O5 0.677225 0.865446 0.582290
O O6 0.433909 0.899491 0.571852
O O7 0.503304 0.743482 0.641188
O O8 0.554634 0.766207 0.482653
O O9 0.267171 0.508954 0.831714
O O10 0.246888 0.505309 0.001984
O O11 0.598489 0.914732 0.398000
O O12 0.757258 0.028064 0.333739
O O13 0.736870 0.282575 0.381934
O O14 0.621518 0.385004 0.273909
#
# Coordination Sequence:
#
# PCOD9460707 Si02
#       7
#     8   8   8   8   8   8   8
#     4  12  25  44  71 102 147 177 237 301 353 419
#     4  11  23  46  73  96 143 186 236 291 354 425
#     4  11  24  44  69 103 138 189 232 282 362 416
#     4  10  24  47  74 101 142 186 237 290 353 433
#     4  11  26  45  71 104 141 185 237 293 352 423
#     4  10  24  41  71 104 136 182 234 289 351 422
#     4  11  26  47  70 104 143 184 238 293 353 425
#
# _framework density 23.559908
#
# number of rings (size 3 to 8) (size 9 to 14) (size 15 to 20)
#    0.000    1.143    1.429    4.286   10.000    1.714 
#    2.571    0.000    0.000    0.000    0.000    0.000 
#    0.000    0.000    0.000    0.000    0.000    0.000 
#
# Total GULP energy -313178.637372 kJ/mol
# GULP energy per Si atom -5592.475667 kJ/mol
# Density = 2.350628 g / cm^3
# Si number density = 23.559908 Si / 1000 Ang^3
#
#
#
# Elastic Constant Matrix: (Units=GPa)
#
#
# Indices 1 2 3 4 5 6 
#
# 1 34.9904 16.4541 10.1895 0.0000 0.0000 0.0000
# 2 16.4541 90.7231 45.5781 0.0000 0.0000 0.0000
# 3 10.1895 45.5781 128.5378 0.0000 0.0000 0.0000
# 4 0.0000 0.0000 0.0000 36.7309 0.0000 0.0000
# 5 0.0000 0.0000 0.0000 0.0000 44.2616 0.0000
# 6 0.0000 0.0000 0.0000 0.0000 0.0000 17.5057
#
#
#
# Elastic Compliance Matrix: (Units=1/GPa)
#
#
# Indices 1 2 3 4 5 6 
#
# 1 0.031278 -0.005387 -0.000569 0.000000 0.000000 0.000000
# 2 -0.005387 0.014339 -0.004658 0.000000 0.000000 0.000000
# 3 -0.000569 -0.004658 0.009476 0.000000 0.000000 0.000000
# 4 0.000000 0.000000 0.000000 0.027225 0.000000 0.000000
# 5 0.000000 0.000000 0.000000 0.000000 0.022593 0.000000
# 6 0.000000 0.000000 0.000000 0.000000 0.000000 0.057124
#
#
# Mechanical properties :
#
#
# Convention : Reuss Voigt Hill
#
# Bulk Modulus (GPa) = 29.52764 44.29944 36.91354
# Shear Modulus (GPa) = 25.70000 31.83495 28.76747
#
# Velocity S-wave (km/s) = 3.30636 3.67990 3.49812
# Velocity P-wave (km/s) = 5.20925 6.07448 5.65842
#
# Compressibility (1/GPa) = 0.03386658
#
# Stress axis : x y z
#
# Youngs Moduli (GPa) = 31.97122 69.73780 105.52438
#
# Poissons Ratio (x) = 0.37566 0.06009
# Poissons Ratio (y) = 0.17222 0.49149
# Poissons Ratio (z) = 0.01821 0.32481
#
# Static dielectric constant tensor:
#      x y z
#    x 1.902970 0.000000 0.000000 
#    y 0.000000 1.870860 0.000000 
#    z 0.000000 0.000000 1.963510 
# 
# From -- ./inp_files/7537.got.cif
#   From: 2010.05.17/outbox.cif.g08.bks.cpg/sg61_4_cif.got.tgz:7537.got - 2010.06.03 15:17:17.
