data_PCOD9460101
_publ_section_title
;
Structure prediction by ZEFSAII (Michael W. Deem and Ramdas Pophale) SiO2 
 PCOD9460101
Probable space group: P B C A
;
_chemical_formula_sum "Si O2"
_cell_formula_units_Z 48
_cell_length_a 18.308641
_cell_length_b 13.093537
_cell_length_c 9.285351
_cell_angle_alpha 90.000000
_cell_angle_beta 90.000000
_cell_angle_gamma 90.000000
_cell_volume 2225.929546
_symmetry_space_group_name_H-M "P B C A"
_symmetry_group_IT_number 61
_symmetry_cell_setting 'orthorhombic'
loop_
_space_group_symop_operation_xyz
x,y,z
1/2-x,-y,1/2+z
1/2+x,1/2-y,-z
-x,1/2+y,1/2-z
-x,-y,-z
1/2+x,y,1/2-z
1/2-x,1/2+y,z
x,1/2-y,1/2+z
loop_
_atom_site_type_symbol
_atom_site_label
_atom_site_fract_x
_atom_site_fract_y
_atom_site_fract_z
Si Si1 0.802496 0.698306 0.125425
Si Si2 0.694027 0.624353 0.602178
Si Si3 0.404442 0.709262 0.637535
Si Si4 0.061857 0.438543 0.584956
Si Si5 0.721043 0.020059 0.355554
Si Si6 0.532666 0.559340 0.633912
O O1 0.734009 0.767664 0.078342
O O2 0.855322 0.765886 0.225339
O O3 0.779749 0.607264 0.231555
O O4 0.851362 0.668210 0.988285
O O5 0.718595 0.549754 0.472078
O O6 0.720417 0.581383 0.758406
O O7 0.606509 0.622331 0.604263
O O8 0.438724 0.816204 0.579952
O O9 0.468643 0.634374 0.682361
O O10 0.145183 0.472564 0.554226
O O11 0.051924 0.474307 0.749115
O O12 0.000000 0.500000 0.500000
O O13 0.500000 0.500000 0.500000
#
# Coordination Sequence:
#
# PCOD9460101 Si02
#       6
#     8   8   8   8   8   8
#     4  11  22  44  68  93 130 175 223 261 342 396
#     4  11  24  44  64 100 128 174 225 271 330 400
#     4  11  22  43  67  93 134 177 214 282 333 397
#     4  10  21  42  65  97 125 171 226 264 339 396
#     4  10  24  41  65  95 131 173 220 277 332 391
#     4  11  25  42  66  97 134 169 219 276 335 394
#
# _framework density 21.564025000000001
#
# number of rings (size 3 to 8) (size 9 to 14) (size 15 to 20)
#    0.000    1.333    3.333    4.000    4.667    0.000 
#   15.000    0.000    0.000    0.000    0.000    0.000 
#    0.000    0.000    0.000    0.000    0.000    0.000 
#
# Total GULP energy -268281.901180 kJ/mol
# GULP energy per Si atom -5589.206275 kJ/mol
# Density = 2.151494 g / cm^3
# Si number density = 21.564025 Si / 1000 Ang^3
#
#
#
# Elastic Constant Matrix: (Units=GPa)
#
#
# Indices 1 2 3 4 5 6 
#
# 1 64.4026 27.5513 15.3343 0.0000 0.0000 0.0000
# 2 27.5513 64.9375 -15.2714 0.0000 0.0000 0.0000
# 3 15.3343 -15.2714 56.5071 0.0000 0.0000 0.0000
# 4 0.0000 0.0000 0.0000 26.7155 0.0000 0.0000
# 5 0.0000 0.0000 0.0000 0.0000 25.6493 0.0000
# 6 0.0000 0.0000 0.0000 0.0000 0.0000 39.6319
#
#
#
# Elastic Compliance Matrix: (Units=1/GPa)
#
#
# Indices 1 2 3 4 5 6 
#
# 1 0.022872 -0.011922 -0.009429 0.000000 0.000000 0.000000
# 2 -0.011922 0.022658 0.009359 0.000000 0.000000 0.000000
# 3 -0.009429 0.009359 0.022785 0.000000 0.000000 0.000000
# 4 0.000000 0.000000 0.000000 0.037431 0.000000 0.000000
# 5 0.000000 0.000000 0.000000 0.000000 0.038987 0.000000
# 6 0.000000 0.000000 0.000000 0.000000 0.000000 0.025232
#
#
# Mechanical properties :
#
#
# Convention : Reuss Voigt Hill
#
# Bulk Modulus (GPa) = 22.55689 26.78618 24.67154
# Shear Modulus (GPa) = 23.95473 28.94819 26.45146
#
# Velocity S-wave (km/s) = 3.33658 3.66789 3.50615
# Velocity P-wave (km/s) = 5.03258 5.51240 5.27795
#
# Compressibility (1/GPa) = 0.04433235
#
# Stress axis : x y z
#
# Youngs Moduli (GPa) = 43.72095 44.13390 43.88891
#
# Poissons Ratio (x) = 0.52614 0.41382
# Poissons Ratio (y) = 0.52122 -0.41074
# Poissons Ratio (z) = 0.41223 -0.41304
#
# Static dielectric constant tensor:
#      x y z
#    x 1.844860 0.000000 0.000000 
#    y 0.000000 1.814800 0.000000 
#    z 0.000000 0.000000 1.777990 
# 
# From -- ./inp_files/3423.got.cif
#   From: 2010.05.17/outbox.cif.g08.bks.cpg/sg61_2_cif.got.tgz:3423.got - 2010.06.03 15:17:17.
