data_PCOD9460039
_publ_section_title
;
Structure prediction by ZEFSAII (Michael W. Deem and Ramdas Pophale) SiO2 
 PCOD9460039
Probable space group: P B C A
;
_chemical_formula_sum "Si O2"
_cell_formula_units_Z 64
_cell_length_a 5.416161
_cell_length_b 23.330211
_cell_length_c 26.327161
_cell_angle_alpha 90.000000
_cell_angle_beta 90.000000
_cell_angle_gamma 90.000000
_cell_volume 3326.704775
_symmetry_space_group_name_H-M "P B C A"
_symmetry_group_IT_number 61
_symmetry_cell_setting 'orthorhombic'
loop_
_space_group_symop_operation_xyz
x,y,z
1/2-x,-y,1/2+z
1/2+x,1/2-y,-z
-x,1/2+y,1/2-z
-x,-y,-z
1/2+x,y,1/2-z
1/2-x,1/2+y,z
x,1/2-y,1/2+z
loop_
_atom_site_type_symbol
_atom_site_label
_atom_site_fract_x
_atom_site_fract_y
_atom_site_fract_z
Si Si1 0.934449 0.936338 0.780729
Si Si2 0.060535 0.721390 0.888475
Si Si3 0.964928 0.348755 0.896588
Si Si4 0.046477 0.279116 0.998788
Si Si5 0.544872 0.795066 0.780625
Si Si6 0.501524 0.564700 0.782424
Si Si7 0.939809 0.316920 0.334553
Si Si8 0.034553 0.638103 0.376060
O O1 0.649368 0.932277 0.762327
O O2 0.000273 0.887892 0.820811
O O3 0.971635 0.000112 0.803284
O O4 0.324632 0.701696 0.868013
O O5 0.031357 0.698549 0.945868
O O6 0.825212 0.697279 0.858671
O O7 0.045722 0.791722 0.881824
O O8 0.210331 0.385317 0.896475
O O9 0.954541 0.320380 0.839023
O O10 0.710100 0.380466 0.904505
O O11 0.990385 0.307485 0.944759
O O12 0.342475 0.272216 0.002292
O O13 0.291395 0.809785 0.751293
O O14 0.544410 0.726278 0.786860
O O15 0.229875 0.569624 0.757377
O O16 0.536322 0.617149 0.820294
#
# Coordination Sequence:
#
# PCOD9460039 Si02
#       8
#     8   8   8   8   8   8   8   8
#     4  10  23  40  59  81 111 158 204 240 274 333
#     4  12  22  37  56  87 120 142 192 233 296 347
#     4  12  23  37  53  82 116 155 194 221 281 348
#     4  12  20  37  58  76 116 157 192 239 273 340
#     4  12  22  32  47  73 113 147 172 215 273 335
#     4  10  21  41  60  80 110 154 207 240 277 335
#     4  12  22  38  54  85 115 151 186 234 290 346
#     4  12  21  38  53  82 118 146 187 233 284 345
#
# _framework density 19.238257000000001
#
# number of rings (size 3 to 8) (size 9 to 14) (size 15 to 20)
#    0.000    0.500    5.000    4.500    0.000    3.000 
#    0.000    0.000    0.000    0.000    0.000    5.250 
#    0.000    0.000    0.000    0.000    0.000    0.000 
#
# Total GULP energy -356653.894995 kJ/mol
# GULP energy per Si atom -5572.717109 kJ/mol
# Density = 1.919447 g / cm^3
# Si number density = 19.238257 Si / 1000 Ang^3
#
#
#
# Elastic Constant Matrix: (Units=GPa)
#
#
# Indices 1 2 3 4 5 6 
#
# 1 124.4318 8.9431 10.9089 0.0000 0.0000 0.0000
# 2 8.9431 55.5042 26.0575 0.0000 0.0000 0.0000
# 3 10.9089 26.0575 51.8435 0.0000 0.0000 0.0000
# 4 0.0000 0.0000 0.0000 12.5782 0.0000 0.0000
# 5 0.0000 0.0000 0.0000 0.0000 30.0035 0.0000
# 6 0.0000 0.0000 0.0000 0.0000 0.0000 15.5336
#
#
#
# Elastic Compliance Matrix: (Units=1/GPa)
#
#
# Indices 1 2 3 4 5 6 
#
# 1 0.008207 -0.000670 -0.001390 0.000000 0.000000 0.000000
# 2 -0.000670 0.023636 -0.011739 0.000000 0.000000 0.000000
# 3 -0.001390 -0.011739 0.025481 0.000000 0.000000 0.000000
# 4 0.000000 0.000000 0.000000 0.079503 0.000000 0.000000
# 5 0.000000 0.000000 0.000000 0.000000 0.033329 0.000000
# 6 0.000000 0.000000 0.000000 0.000000 0.000000 0.064377
#
#
# Mechanical properties :
#
#
# Convention : Reuss Voigt Hill
#
# Bulk Modulus (GPa) = 33.64024 35.95540 34.79782
# Shear Modulus (GPa) = 18.37978 24.01440 21.19709
#
# Velocity S-wave (km/s) = 3.09427 3.53691 3.32297
# Velocity P-wave (km/s) = 5.50364 5.95061 5.73148
#
# Compressibility (1/GPa) = 0.02972630
#
# Stress axis : x y z
#
# Youngs Moduli (GPa) = 121.85401 42.30923 39.24418
#
# Poissons Ratio (x) = 0.02833 0.05456
# Poissons Ratio (y) = 0.08159 0.46068
# Poissons Ratio (z) = 0.16941 0.49666
#
# Static dielectric constant tensor:
#      x y z
#    x 1.795360 0.000000 0.000000 
#    y 0.000000 1.683960 0.000000 
#    z 0.000000 0.000000 1.726230 
# 
# From -- ./inp_files/10777.got.cif
#   From: 2010.05.17/outbox.cif.g08.bks.cpg/sg61_6_cif.got.tgz:10777.got - 2010.06.03 15:17:17.
