data_PCOD9460815
_publ_section_title
;
Structure prediction by ZEFSAII (Michael W. Deem and Ramdas Pophale) SiO2 
 PCOD9460815
Probable space group: P B C A
;
_chemical_formula_sum "Si O2"
_cell_formula_units_Z 36
_cell_length_a 8.142390
_cell_length_b 8.440282
_cell_length_c 19.388197
_cell_angle_alpha 90.000000
_cell_angle_beta 90.000000
_cell_angle_gamma 90.000000
_cell_volume 1332.435764
_symmetry_space_group_name_H-M "P B C A"
_symmetry_group_IT_number 61
_symmetry_cell_setting 'orthorhombic'
loop_
_space_group_symop_operation_xyz
x,y,z
1/2-x,-y,1/2+z
1/2+x,1/2-y,-z
-x,1/2+y,1/2-z
-x,-y,-z
1/2+x,y,1/2-z
1/2-x,1/2+y,z
x,1/2-y,1/2+z
loop_
_atom_site_type_symbol
_atom_site_label
_atom_site_fract_x
_atom_site_fract_y
_atom_site_fract_z
Si Si1 0.618732 0.826105 0.060422
Si Si2 0.000000 0.500000 0.500000
Si Si3 0.400263 0.329191 0.708187
Si Si4 0.299589 0.464093 0.297993
Si Si5 0.774977 0.016069 0.425039
O O1 0.704957 0.870769 0.130969
O O2 0.442695 0.917992 0.064844
O O3 0.574255 0.645999 0.047824
O O4 0.739247 0.887905 0.998605
O O5 0.896007 0.425946 0.431687
O O6 0.359682 0.455249 0.768194
O O7 0.582026 0.384041 0.690043
O O8 0.361785 0.160261 0.740086
O O9 0.289827 0.377333 0.642356
#
# Coordination Sequence:
#
# PCOD9460815 Si02
#       5
#     8   4   8   8   8
#     4  10  25  45  66 104 138 178 236 286 349 419
#     4  12  24  40  76  96 132 184 222 290 358 404
#     4  11  26  46  72 101 146 187 241 290 363 421
#     4  11  26  45  70 103 141 191 233 297 354 430
#     4  10  25  46  68 102 139 179 233 291 341 429
#
# _framework density 27.018190000000001
#
# number of rings (size 3 to 8) (size 9 to 14) (size 15 to 20)
#    0.000    1.333    0.000    2.667   15.556    0.000 
#    8.000    0.000    0.000    0.000    0.000    0.000 
#    0.000    0.000    0.000    0.000    0.000    0.000 
#
# Total GULP energy -200770.539806 kJ/mol
# GULP energy per Si atom -5576.959439 kJ/mol
# Density = 2.695669 g / cm^3
# Si number density = 27.018190 Si / 1000 Ang^3
#
#
#
# Elastic Constant Matrix: (Units=GPa)
#
#
# Indices 1 2 3 4 5 6 
#
# 1 45.8544 1.8185 19.3044 0.0000 0.0000 0.0000
# 2 1.8185 99.1629 5.8717 0.0000 0.0000 0.0000
# 3 19.3044 5.8717 126.6677 0.0000 0.0000 0.0000
# 4 0.0000 0.0000 0.0000 49.3518 0.0000 0.0000
# 5 0.0000 0.0000 0.0000 0.0000 30.4861 0.0000
# 6 0.0000 0.0000 0.0000 0.0000 0.0000 50.0847
#
#
#
# Elastic Compliance Matrix: (Units=1/GPa)
#
#
# Indices 1 2 3 4 5 6 
#
# 1 0.023308 -0.000218 -0.003542 0.000000 0.000000 0.000000
# 2 -0.000218 0.010114 -0.000436 0.000000 0.000000 0.000000
# 3 -0.003542 -0.000436 0.008455 0.000000 0.000000 0.000000
# 4 0.000000 0.000000 0.000000 0.020263 0.000000 0.000000
# 5 0.000000 0.000000 0.000000 0.000000 0.032802 0.000000
# 6 0.000000 0.000000 0.000000 0.000000 0.000000 0.019966
#
#
# Mechanical properties :
#
#
# Convention : Reuss Voigt Hill
#
# Bulk Modulus (GPa) = 29.86324 36.18601 33.02463
# Shear Modulus (GPa) = 37.18566 42.29723 39.74145
#
# Velocity S-wave (km/s) = 3.71390 3.96094 3.83941
# Velocity P-wave (km/s) = 5.42842 5.86012 5.64840
#
# Compressibility (1/GPa) = 0.03348599
#
# Stress axis : x y z
#
# Youngs Moduli (GPa) = 42.90373 98.87079 118.27756
#
# Poissons Ratio (x) = 0.02152 0.41895
# Poissons Ratio (y) = 0.00934 0.05153
# Poissons Ratio (z) = 0.15197 0.04308
#
# Static dielectric constant tensor:
#      x y z
#    x 1.411740 0.000000 0.000000 
#    y 0.000000 1.761480 0.000000 
#    z 0.000000 0.000000 2.107800 
# 
# From -- ./inp_files/1674.got.cif
#   From: 2010.05.17/outbox.cif.g08.bks.cpg/sg61_1_cif.got.tgz:1674.got - 2010.06.03 15:17:17.
