data_PCOD9460696
_publ_section_title
;
Structure prediction by ZEFSAII (Michael W. Deem and Ramdas Pophale) SiO2 
 PCOD9460696
Probable space group: P B C A
;
_chemical_formula_sum "Si O2"
_cell_formula_units_Z 40
_cell_length_a 8.908013
_cell_length_b 18.783881
_cell_length_c 9.401466
_cell_angle_alpha 90.000000
_cell_angle_beta 90.000000
_cell_angle_gamma 90.000000
_cell_volume 1573.119629
_symmetry_space_group_name_H-M "P B C A"
_symmetry_group_IT_number 61
_symmetry_cell_setting 'orthorhombic'
loop_
_space_group_symop_operation_xyz
x,y,z
1/2-x,-y,1/2+z
1/2+x,1/2-y,-z
-x,1/2+y,1/2-z
-x,-y,-z
1/2+x,y,1/2-z
1/2-x,1/2+y,z
x,1/2-y,1/2+z
loop_
_atom_site_type_symbol
_atom_site_label
_atom_site_fract_x
_atom_site_fract_y
_atom_site_fract_z
Si Si1 0.323162 0.617564 0.549916
Si Si2 0.817237 0.778643 0.055401
Si Si3 0.837904 0.922661 0.923738
Si Si4 0.431054 0.156449 0.755686
Si Si5 0.663426 0.974345 0.671506
O O1 0.329496 0.700152 0.503820
O O2 0.473979 0.606046 0.639380
O O3 0.179442 0.613047 0.653704
O O4 0.288228 0.571430 0.413422
O O5 0.668825 0.790983 0.149040
O O6 0.956292 0.799186 0.156641
O O7 0.813117 0.838352 0.931806
O O8 0.711883 0.963705 0.833498
O O9 0.000389 0.941287 0.860260
O O10 0.835823 0.951084 0.086606
#
# Coordination Sequence:
#
# PCOD9460696 Si02
#       5
#     8   8   8   8   8
#     4  11  24  42  69  99 137 180 231 283 340 404
#     4  11  24  42  69  99 137 180 231 283 340 404
#     4  11  28  47  70 101 139 181 231 282 342 409
#     4  10  24  40  68  96 142 176 226 284 348 396
#     4  11  28  47  70 101 139 181 231 282 342 409
#
# _framework density 25.427184
#
# number of rings (size 3 to 8) (size 9 to 14) (size 15 to 20)
#    0.000    1.200    2.000    1.200   14.000    0.800 
#    0.000    0.000    0.000    0.000    0.000    0.000 
#    0.000    0.000    0.000    0.000    0.000    0.000 
#
# Total GULP energy -224513.901906 kJ/mol
# GULP energy per Si atom -5612.847548 kJ/mol
# Density = 2.536931 g / cm^3
# Si number density = 25.427184 Si / 1000 Ang^3
#
#
#
# Elastic Constant Matrix: (Units=GPa)
#
#
# Indices 1 2 3 4 5 6 
#
# 1 116.1834 -3.4979 40.4724 0.0000 0.0000 0.0000
# 2 -3.4979 97.5456 10.1146 0.0000 0.0000 0.0000
# 3 40.4724 10.1146 96.9083 0.0000 0.0000 0.0000
# 4 0.0000 0.0000 0.0000 30.0250 0.0000 0.0000
# 5 0.0000 0.0000 0.0000 0.0000 45.3463 0.0000
# 6 0.0000 0.0000 0.0000 0.0000 0.0000 16.6056
#
#
#
# Elastic Compliance Matrix: (Units=1/GPa)
#
#
# Indices 1 2 3 4 5 6 
#
# 1 0.010136 0.000811 -0.004318 0.000000 0.000000 0.000000
# 2 0.000811 0.010429 -0.001427 0.000000 0.000000 0.000000
# 3 -0.004318 -0.001427 0.012271 0.000000 0.000000 0.000000
# 4 0.000000 0.000000 0.000000 0.033306 0.000000 0.000000
# 5 0.000000 0.000000 0.000000 0.000000 0.022053 0.000000
# 6 0.000000 0.000000 0.000000 0.000000 0.000000 0.060221
#
#
# Mechanical properties :
#
#
# Convention : Reuss Voigt Hill
#
# Bulk Modulus (GPa) = 43.53884 44.97951 44.25917
# Shear Modulus (GPa) = 30.13179 35.96526 33.04853
#
# Velocity S-wave (km/s) = 3.44615 3.76499 3.60909
# Velocity P-wave (km/s) = 5.74410 6.05211 5.90012
#
# Compressibility (1/GPa) = 0.02296800
#
# Stress axis : x y z
#
# Youngs Moduli (GPa) = 98.66266 95.88923 81.49162
#
# Poissons Ratio (x) = -0.07778 0.35185
# Poissons Ratio (y) = -0.08003 0.11631
# Poissons Ratio (z) = 0.42599 0.13686
#
# Static dielectric constant tensor:
#      x y z
#    x 1.974010 0.000000 0.000000 
#    y 0.000000 1.984220 0.000000 
#    z 0.000000 0.000000 1.994120 
# 
# From -- ./inp_files/1758.got.cif
#   From: 2010.05.17/outbox.cif.g08.bks.cpg/sg61_1_cif.got.tgz:1758.got - 2010.06.03 15:17:17.
