data_PCOD9460652
_publ_section_title
;
Structure prediction by ZEFSAII (Michael W. Deem and Ramdas Pophale) SiO2 
 PCOD9460652
Probable space group: P B C A
;
_chemical_formula_sum "Si O2"
_cell_formula_units_Z 32
_cell_length_a 12.720918
_cell_length_b 14.509965
_cell_length_c 7.138833
_cell_angle_alpha 90.000000
_cell_angle_beta 90.000000
_cell_angle_gamma 90.000000
_cell_volume 1317.686330
_symmetry_space_group_name_H-M "P B C A"
_symmetry_group_IT_number 61
_symmetry_cell_setting 'orthorhombic'
loop_
_space_group_symop_operation_xyz
x,y,z
1/2-x,-y,1/2+z
1/2+x,1/2-y,-z
-x,1/2+y,1/2-z
-x,-y,-z
1/2+x,y,1/2-z
1/2-x,1/2+y,z
x,1/2-y,1/2+z
loop_
_atom_site_type_symbol
_atom_site_label
_atom_site_fract_x
_atom_site_fract_y
_atom_site_fract_z
Si Si1 0.319283 0.398120 0.441727
Si Si2 0.377350 0.524854 0.113267
Si Si3 0.105765 0.364641 0.284940
Si Si4 0.974435 0.670369 0.115094
O O1 0.380227 0.445925 0.269188
O O2 0.248559 0.465484 0.571063
O O3 0.225536 0.340153 0.345596
O O4 0.404488 0.350257 0.571033
O O5 0.424282 0.615269 0.213265
O O6 0.418415 0.540287 0.898865
O O7 0.037746 0.278535 0.354231
O O8 0.089147 0.366545 0.065133
#
# Coordination Sequence:
#
# PCOD9460652 Si02
#       4
#     8   8   8   8
#     4  10  24  44  71  98 140 182 217 293 339 400
#     4  10  23  46  64 104 133 177 238 269 343 418
#     4  10  24  42  66 102 135 176 231 282 329 428
#     4  12  22  46  66 100 140 174 234 282 350 404
#
# _framework density 24.284991000000002
#
# number of rings (size 3 to 8) (size 9 to 14) (size 15 to 20)
#    1.500    0.000    2.500    2.250    0.000    5.000 
#    9.000    0.000    0.000    0.000    0.000    0.000 
#    0.000    0.000    0.000    0.000    0.000    0.000 
#
# Total GULP energy -178556.820850 kJ/mol
# GULP energy per Si atom -5579.900652 kJ/mol
# Density = 2.422972 g / cm^3
# Si number density = 24.284991 Si / 1000 Ang^3
#
#
#
# Elastic Constant Matrix: (Units=GPa)
#
#
# Indices 1 2 3 4 5 6 
#
# 1 59.5594 3.0922 13.8206 0.0000 0.0000 0.0000
# 2 3.0922 58.4366 10.0515 0.0000 0.0000 0.0000
# 3 13.8206 10.0515 120.6614 0.0000 0.0000 0.0000
# 4 0.0000 0.0000 0.0000 33.7065 0.0000 0.0000
# 5 0.0000 0.0000 0.0000 0.0000 57.8431 0.0000
# 6 0.0000 0.0000 0.0000 0.0000 0.0000 22.6852
#
#
#
# Elastic Compliance Matrix: (Units=1/GPa)
#
#
# Indices 1 2 3 4 5 6 
#
# 1 0.017268 -0.000582 -0.001929 0.000000 0.000000 0.000000
# 2 -0.000582 0.017381 -0.001381 0.000000 0.000000 0.000000
# 3 -0.001929 -0.001381 0.008624 0.000000 0.000000 0.000000
# 4 0.000000 0.000000 0.000000 0.029668 0.000000 0.000000
# 5 0.000000 0.000000 0.000000 0.000000 0.017288 0.000000
# 6 0.000000 0.000000 0.000000 0.000000 0.000000 0.044082
#
#
# Mechanical properties :
#
#
# Convention : Reuss Voigt Hill
#
# Bulk Modulus (GPa) = 28.17893 32.50955 30.34424
# Shear Modulus (GPa) = 32.48348 36.95984 34.72166
#
# Velocity S-wave (km/s) = 3.66128 3.90541 3.78532
# Velocity P-wave (km/s) = 5.43157 5.80965 5.62379
#
# Compressibility (1/GPa) = 0.03548751
#
# Stress axis : x y z
#
# Youngs Moduli (GPa) = 57.91101 57.53428 115.95943
#
# Poissons Ratio (x) = 0.03348 0.22373
# Poissons Ratio (y) = 0.03370 0.16017
# Poissons Ratio (z) = 0.11173 0.07947
#
# Static dielectric constant tensor:
#      x y z
#    x 2.095800 0.000000 0.000000 
#    y 0.000000 1.938720 0.000000 
#    z 0.000000 0.000000 1.896810 
# 
# From -- ./inp_files/2044.got.cif
#   From: 2010.05.17/outbox.cif.g08.bks.cpg/sg61_2_cif.got.tgz:2044.got - 2010.06.03 15:17:17.
