data_PCOD9460664
_publ_section_title
;
Structure prediction by ZEFSAII (Michael W. Deem and Ramdas Pophale) SiO2 
 PCOD9460664
Probable space group: P B C A
;
_chemical_formula_sum "Si O2"
_cell_formula_units_Z 64
_cell_length_a 14.566606
_cell_length_b 15.174939
_cell_length_c 11.721649
_cell_angle_alpha 90.000000
_cell_angle_beta 90.000000
_cell_angle_gamma 90.000000
_cell_volume 2591.039537
_symmetry_space_group_name_H-M "P B C A"
_symmetry_group_IT_number 61
_symmetry_cell_setting 'orthorhombic'
loop_
_space_group_symop_operation_xyz
x,y,z
1/2-x,-y,1/2+z
1/2+x,1/2-y,-z
-x,1/2+y,1/2-z
-x,-y,-z
1/2+x,y,1/2-z
1/2-x,1/2+y,z
x,1/2-y,1/2+z
loop_
_atom_site_type_symbol
_atom_site_label
_atom_site_fract_x
_atom_site_fract_y
_atom_site_fract_z
Si Si1 0.924997 0.464142 0.850566
Si Si2 0.784803 0.607452 0.815202
Si Si3 0.683498 0.427153 0.061903
Si Si4 0.506323 0.357010 0.001799
Si Si5 0.173162 0.614246 0.356198
Si Si6 0.574482 0.583795 0.760468
Si Si7 0.034477 0.820947 0.473687
Si Si8 0.774005 0.244479 0.483824
O O1 0.857923 0.545997 0.881753
O O2 0.854399 0.405950 0.773194
O O3 0.010563 0.502289 0.777972
O O4 0.969310 0.408471 0.951979
O O5 0.829055 0.612995 0.689347
O O6 0.682235 0.568644 0.789461
O O7 0.767453 0.697252 0.883062
O O8 0.589855 0.425097 0.991550
O O9 0.714782 0.526164 0.085914
O O10 0.744465 0.355636 0.999815
O O11 0.469827 0.374954 0.127957
O O12 0.427353 0.375953 0.911931
O O13 0.541436 0.255984 0.981350
O O14 0.231508 0.697391 0.398906
O O15 0.563735 0.651439 0.653581
O O16 0.117493 0.766987 0.531877
#
# Coordination Sequence:
#
# PCOD9460664 Si02
#       8
#     8   8   8   8   8   8   8   8
#     4  11  27  45  71 102 138 187 229 286 351 420
#     4  11  24  45  69  99 139 182 229 288 341 420
#     4  11  24  45  67 104 137 181 234 280 346 418
#     4  11  24  43  74 100 138 183 231 288 343 420
#     4  10  23  46  71  98 139 181 231 285 346 417
#     4  12  23  47  68  98 140 182 225 291 343 411
#     4  11  26  43  69  98 142 182 228 288 355 401
#     4  11  25  40  72  99 141 180 231 290 343 415
#
# _framework density 24.700510999999999
#
# number of rings (size 3 to 8) (size 9 to 14) (size 15 to 20)
#    0.000    1.000    6.250    0.750    8.750    0.000 
#    4.500    0.000    0.000    0.000    0.000    0.000 
#    0.000    0.000    0.000    0.000    0.000    0.000 
#
# Total GULP energy -357483.931886 kJ/mol
# GULP energy per Si atom -5585.686436 kJ/mol
# Density = 2.464429 g / cm^3
# Si number density = 24.700511 Si / 1000 Ang^3
#
#
#
# Elastic Constant Matrix: (Units=GPa)
#
#
# Indices 1 2 3 4 5 6 
#
# 1 72.7621 8.2636 5.0682 0.0000 0.0000 0.0000
# 2 8.2636 108.7221 18.7366 0.0000 0.0000 0.0000
# 3 5.0682 18.7366 62.5819 0.0000 0.0000 0.0000
# 4 0.0000 0.0000 0.0000 34.3771 0.0000 0.0000
# 5 0.0000 0.0000 0.0000 0.0000 31.7982 0.0000
# 6 0.0000 0.0000 0.0000 0.0000 0.0000 34.0064
#
#
#
# Elastic Compliance Matrix: (Units=1/GPa)
#
#
# Indices 1 2 3 4 5 6 
#
# 1 0.013906 -0.000910 -0.000854 0.000000 0.000000 0.000000
# 2 -0.000910 0.009758 -0.002848 0.000000 0.000000 0.000000
# 3 -0.000854 -0.002848 0.016901 0.000000 0.000000 0.000000
# 4 0.000000 0.000000 0.000000 0.029089 0.000000 0.000000
# 5 0.000000 0.000000 0.000000 0.000000 0.031448 0.000000
# 6 0.000000 0.000000 0.000000 0.000000 0.000000 0.029406
#
#
# Mechanical properties :
#
#
# Convention : Reuss Voigt Hill
#
# Bulk Modulus (GPa) = 31.90604 34.24477 33.07540
# Shear Modulus (GPa) = 33.29375 34.16952 33.73163
#
# Velocity S-wave (km/s) = 3.67535 3.72338 3.69945
# Velocity P-wave (km/s) = 5.56383 5.69024 5.62739
#
# Compressibility (1/GPa) = 0.03134203
#
# Stress axis : x y z
#
# Youngs Moduli (GPa) = 71.91025 102.48350 59.16888
#
# Poissons Ratio (x) = 0.09324 0.05052
# Poissons Ratio (y) = 0.06543 0.16850
# Poissons Ratio (z) = 0.06140 0.29184
#
# Static dielectric constant tensor:
#      x y z
#    x 2.058580 0.000000 0.000000 
#    y 0.000000 2.127750 0.000000 
#    z 0.000000 0.000000 1.950970 
# 
# From -- ./inp_files/6302.got.cif
#   From: 2010.05.17/outbox.cif.g08.bks.cpg/sg61_4_cif.got.tgz:6302.got - 2010.06.03 15:17:17.
