data_PCOD9460899
_publ_section_title
;
Structure prediction by ZEFSAII (Michael W. Deem and Ramdas Pophale) SiO2 
 PCOD9460899
Probable space group: P B C A
;
_chemical_formula_sum "Si O2"
_cell_formula_units_Z 48
_cell_length_a 14.001135
_cell_length_b 9.153651
_cell_length_c 16.239348
_cell_angle_alpha 90.000000
_cell_angle_beta 90.000000
_cell_angle_gamma 90.000000
_cell_volume 2081.259254
_symmetry_space_group_name_H-M "P B C A"
_symmetry_group_IT_number 61
_symmetry_cell_setting 'orthorhombic'
loop_
_space_group_symop_operation_xyz
x,y,z
1/2-x,-y,1/2+z
1/2+x,1/2-y,-z
-x,1/2+y,1/2-z
-x,-y,-z
1/2+x,y,1/2-z
1/2-x,1/2+y,z
x,1/2-y,1/2+z
loop_
_atom_site_type_symbol
_atom_site_label
_atom_site_fract_x
_atom_site_fract_y
_atom_site_fract_z
Si Si1 0.773379 0.062634 0.625319
Si Si2 0.815704 0.337897 0.524191
Si Si3 0.022876 0.250707 0.518782
Si Si4 0.023549 0.461147 0.870626
Si Si5 0.663226 0.028766 0.783820
Si Si6 0.294891 0.688809 0.117883
O O1 0.787740 0.228456 0.598708
O O2 0.628073 0.501120 0.662073
O O3 0.749091 0.977660 0.541148
O O4 0.689316 0.032329 0.688483
O O5 0.785291 0.264422 0.439046
O O6 0.929166 0.349491 0.525436
O O7 0.032576 0.183272 0.427169
O O8 0.114950 0.329390 0.556631
O O9 0.003819 0.101756 0.571970
O O10 0.938217 0.455758 0.805275
O O11 0.744664 0.943383 0.835401
O O12 0.668193 0.194674 0.815309
#
# Coordination Sequence:
#
# PCOD9460899 Si02
#       6
#     8   8   8   8   8   8
#     4  11  23  39  60  89 122 157 196 248 304 353
#     4  11  21  39  63  88 116 158 205 247 288 356
#     4   9  18  35  61  88 111 157 203 235 292 357
#     4   9  18  37  60  81 119 162 193 225 302 379
#     4  11  23  39  60  89 122 157 196 248 304 353
#     4  11  21  39  63  88 116 158 205 247 288 356
#
# _framework density 23.06296
#
# number of rings (size 3 to 8) (size 9 to 14) (size 15 to 20)
#    0.000    1.667    3.333    2.000    0.000    1.333 
#    0.000   11.667    0.000    0.000    0.000    0.000 
#    0.000    0.000    0.000    0.000    0.000    0.000 
#
# Total GULP energy -268433.205087 kJ/mol
# GULP energy per Si atom -5592.358439 kJ/mol
# Density = 2.301047 g / cm^3
# Si number density = 23.062960 Si / 1000 Ang^3
#
#
#
# Elastic Constant Matrix: (Units=GPa)
#
#
# Indices 1 2 3 4 5 6 
#
# 1 74.0357 8.0618 -24.0759 0.0000 0.0000 0.0000
# 2 8.0618 62.0920 -3.1152 0.0000 0.0000 0.0000
# 3 -24.0759 -3.1152 41.4388 0.0000 0.0000 0.0000
# 4 0.0000 0.0000 0.0000 22.6284 0.0000 0.0000
# 5 0.0000 0.0000 0.0000 0.0000 35.7478 0.0000
# 6 0.0000 0.0000 0.0000 0.0000 0.0000 24.4520
#
#
#
# Elastic Compliance Matrix: (Units=1/GPa)
#
#
# Indices 1 2 3 4 5 6 
#
# 1 0.016831 -0.001701 0.009651 0.000000 0.000000 0.000000
# 2 -0.001701 0.016338 0.000240 0.000000 0.000000 0.000000
# 3 0.009651 0.000240 0.029757 0.000000 0.000000 0.000000
# 4 0.000000 0.000000 0.000000 0.044192 0.000000 0.000000
# 5 0.000000 0.000000 0.000000 0.000000 0.027974 0.000000
# 6 0.000000 0.000000 0.000000 0.000000 0.000000 0.040896
#
#
# Mechanical properties :
#
#
# Convention : Reuss Voigt Hill
#
# Bulk Modulus (GPa) = 12.60959 15.47866 14.04412
# Shear Modulus (GPa) = 26.87537 29.67869 28.27703
#
# Velocity S-wave (km/s) = 3.41736 3.59117 3.50534
# Velocity P-wave (km/s) = 4.58808 4.89095 4.74193
#
# Compressibility (1/GPa) = 0.07930474
#
# Stress axis : x y z
#
# Youngs Moduli (GPa) = 59.41571 61.20693 33.60547
#
# Poissons Ratio (x) = 0.10412 -0.32432
# Poissons Ratio (y) = 0.10107 -0.00806
# Poissons Ratio (z) = -0.57340 -0.01468
#
# Static dielectric constant tensor:
#      x y z
#    x 1.850550 0.000000 0.000000 
#    y 0.000000 1.875630 0.000000 
#    z 0.000000 0.000000 1.847390 
# 
# From -- ./inp_files/9444.got.cif
#   From: 2010.05.17/outbox.cif.g08.bks.cpg/sg61_5_cif.got.tgz:9444.got - 2010.06.03 15:17:17.
