data_PCOD9460981
_publ_section_title
;
Structure prediction by ZEFSAII (Michael W. Deem and Ramdas Pophale) SiO2 
 PCOD9460981
Probable space group: P B C A
;
_chemical_formula_sum "Si O2"
_cell_formula_units_Z 48
_cell_length_a 9.620349
_cell_length_b 20.974824
_cell_length_c 10.555290
_cell_angle_alpha 90.000000
_cell_angle_beta 90.000000
_cell_angle_gamma 90.000000
_cell_volume 2129.900534
_symmetry_space_group_name_H-M "P B C A"
_symmetry_group_IT_number 61
_symmetry_cell_setting 'orthorhombic'
loop_
_space_group_symop_operation_xyz
x,y,z
1/2-x,-y,1/2+z
1/2+x,1/2-y,-z
-x,1/2+y,1/2-z
-x,-y,-z
1/2+x,y,1/2-z
1/2-x,1/2+y,z
x,1/2-y,1/2+z
loop_
_atom_site_type_symbol
_atom_site_label
_atom_site_fract_x
_atom_site_fract_y
_atom_site_fract_z
Si Si1 0.999538 0.060010 0.189793
Si Si2 0.704091 0.345331 0.254083
Si Si3 0.623588 0.259550 0.952076
Si Si4 0.660281 0.736270 0.126634
Si Si5 0.550948 0.584583 0.890656
Si Si6 0.221968 0.631921 0.183671
O O1 0.136185 0.099121 0.228518
O O2 0.887093 0.074111 0.300228
O O3 0.954849 0.081381 0.045116
O O4 0.034107 0.986159 0.167698
O O5 0.635393 0.286750 0.331663
O O6 0.822246 0.307854 0.174560
O O7 0.583165 0.377872 0.169911
O O8 0.798717 0.389252 0.344723
O O9 0.462798 0.272387 0.972443
O O10 0.716268 0.322473 0.927059
O O11 0.691707 0.221751 0.065517
O O12 0.641154 0.685242 0.235150
#
# Coordination Sequence:
#
# PCOD9460981 Si02
#       6
#     8   8   8   8   8   8
#     4  11  24  43  69  91 129 171 219 266 320 382
#     4  11  23  42  64  90 133 163 214 264 326 377
#     4  11  24  39  66  97 129 169 211 266 324 388
#     4  11  24  39  66  97 129 169 211 266 324 388
#     4  11  24  45  65  95 125 173 219 268 318 382
#     4  11  23  42  62  96 129 169 210 268 322 383
#
# _framework density 22.536265
#
# number of rings (size 3 to 8) (size 9 to 14) (size 15 to 20)
#    0.000    1.000    3.333    3.000    4.667    0.000 
#    0.000    0.000    0.000    8.000    0.000    0.000 
#    0.000    0.000    0.000    0.000    0.000    0.000 
#
# Total GULP energy -267380.709766 kJ/mol
# GULP energy per Si atom -5570.431453 kJ/mol
# Density = 2.248497 g / cm^3
# Si number density = 22.536265 Si / 1000 Ang^3
#
#
#
# Elastic Constant Matrix: (Units=GPa)
#
#
# Indices 1 2 3 4 5 6 
#
# 1 90.9681 14.1012 4.1595 0.0000 0.0000 0.0000
# 2 14.1012 93.6778 19.3379 0.0000 0.0000 0.0000
# 3 4.1595 19.3379 23.5955 0.0000 0.0000 0.0000
# 4 0.0000 0.0000 0.0000 24.5821 0.0000 0.0000
# 5 0.0000 0.0000 0.0000 0.0000 33.6807 0.0000
# 6 0.0000 0.0000 0.0000 0.0000 0.0000 33.8215
#
#
#
# Elastic Compliance Matrix: (Units=1/GPa)
#
#
# Indices 1 2 3 4 5 6 
#
# 1 0.011266 -0.001548 -0.000718 0.000000 0.000000 0.000000
# 2 -0.001548 0.013061 -0.010432 0.000000 0.000000 0.000000
# 3 -0.000718 -0.010432 0.051057 0.000000 0.000000 0.000000
# 4 0.000000 0.000000 0.000000 0.040680 0.000000 0.000000
# 5 0.000000 0.000000 0.000000 0.000000 0.029691 0.000000
# 6 0.000000 0.000000 0.000000 0.000000 0.000000 0.029567
#
#
# Mechanical properties :
#
#
# Convention : Reuss Voigt Hill
#
# Bulk Modulus (GPa) = 20.00402 31.49318 25.74860
# Shear Modulus (GPa) = 23.00138 29.79305 26.39721
#
# Velocity S-wave (km/s) = 3.19821 3.63988 3.42617
# Velocity P-wave (km/s) = 4.74697 5.62759 5.20593
#
# Compressibility (1/GPa) = 0.04998995
#
# Stress axis : x y z
#
# Youngs Moduli (GPa) = 88.76596 76.56229 19.58602
#
# Poissons Ratio (x) = 0.11849 0.01405
# Poissons Ratio (y) = 0.13738 0.20431
# Poissons Ratio (z) = 0.06369 0.79867
#
# Static dielectric constant tensor:
#      x y z
#    x 1.840090 0.000000 0.000000 
#    y 0.000000 1.870820 0.000000 
#    z 0.000000 0.000000 1.929780 
# 
# From -- ./inp_files/4848.got.cif
#   From: 2010.05.17/outbox.cif.g08.bks.cpg/sg61_3_cif.got.tgz:4848.got - 2010.06.03 15:17:17.
