data_PCOD9460998
_publ_section_title
;
Structure prediction by ZEFSAII (Michael W. Deem and Ramdas Pophale) SiO2 
 PCOD9460998
Probable space group: P B C A
;
_chemical_formula_sum "Si O2"
_cell_formula_units_Z 64
_cell_length_a 18.506104
_cell_length_b 12.444986
_cell_length_c 13.737681
_cell_angle_alpha 90.000000
_cell_angle_beta 90.000000
_cell_angle_gamma 90.000000
_cell_volume 3163.900655
_symmetry_space_group_name_H-M "P B C A"
_symmetry_group_IT_number 61
_symmetry_cell_setting 'orthorhombic'
loop_
_space_group_symop_operation_xyz
x,y,z
1/2-x,-y,1/2+z
1/2+x,1/2-y,-z
-x,1/2+y,1/2-z
-x,-y,-z
1/2+x,y,1/2-z
1/2-x,1/2+y,z
x,1/2-y,1/2+z
loop_
_atom_site_type_symbol
_atom_site_label
_atom_site_fract_x
_atom_site_fract_y
_atom_site_fract_z
Si Si1 0.825645 0.727778 0.298445
Si Si2 0.069365 0.738992 0.347400
Si Si3 0.237632 0.764253 0.887628
Si Si4 0.969194 0.725798 0.681677
Si Si5 0.938436 0.499526 0.580625
Si Si6 0.529155 0.378513 0.494129
Si Si7 0.302930 0.598203 0.560789
Si Si8 0.798318 0.582325 0.484297
O O1 0.774830 0.691306 0.210020
O O2 0.905438 0.740368 0.255254
O O3 0.793866 0.841055 0.337104
O O4 0.826586 0.653969 0.394323
O O5 0.153407 0.755305 0.370651
O O6 0.056332 0.611502 0.361016
O O7 0.044182 0.772764 0.240014
O O8 0.019669 0.808910 0.420198
O O9 0.257163 0.842043 0.976997
O O10 0.275386 0.654923 0.924087
O O11 0.949808 0.607303 0.643223
O O12 0.971523 0.811327 0.594322
O O13 0.862531 0.508256 0.523864
O O14 0.000000 0.500000 0.500000
O O15 0.500000 0.500000 0.500000
O O16 0.612576 0.389002 0.462228
O O17 0.271386 0.479477 0.556705
#
# Coordination Sequence:
#
# PCOD9460998 Si02
#       8
#     8   8   8   8   8   8   8   8
#     4  11  23  43  73 101 137 185 235 287 357 427
#     4  12  27  45  74 109 141 186 250 294 355 439
#     4  11  24  45  69 103 142 183 231 297 355 425
#     4  12  25  46  72 105 144 187 241 297 365 425
#     4  12  24  46  74 100 143 191 238 294 358 423
#     4  12  26  47  72 102 148 192 233 297 370 429
#     4  11  23  45  70  99 140 185 230 286 360 428
#     4  11  24  44  72 102 143 186 234 294 359 431
#
# _framework density 20.228196000000001
#
# number of rings (size 3 to 8) (size 9 to 14) (size 15 to 20)
#    0.000    0.500    6.250    2.250    1.750    6.000 
#    2.250    0.000    0.000    0.000    0.000    0.000 
#    0.000    0.000    0.000    0.000    0.000    0.000 
#
# Total GULP energy -357707.039143 kJ/mol
# GULP energy per Si atom -5589.172487 kJ/mol
# Density = 2.018216 g / cm^3
# Si number density = 20.228196 Si / 1000 Ang^3
#
#
#
# Elastic Constant Matrix: (Units=GPa)
#
#
# Indices 1 2 3 4 5 6 
#
# 1 126.5532 22.5866 16.1249 0.0000 0.0000 0.0000
# 2 22.5866 103.1604 22.5728 0.0000 0.0000 0.0000
# 3 16.1249 22.5728 73.1061 0.0000 0.0000 0.0000
# 4 0.0000 0.0000 0.0000 15.7076 0.0000 0.0000
# 5 0.0000 0.0000 0.0000 0.0000 23.7030 0.0000
# 6 0.0000 0.0000 0.0000 0.0000 0.0000 36.2185
#
#
#
# Elastic Compliance Matrix: (Units=1/GPa)
#
#
# Indices 1 2 3 4 5 6 
#
# 1 0.008349 -0.001528 -0.001370 0.000000 0.000000 0.000000
# 2 -0.001528 0.010676 -0.002959 0.000000 0.000000 0.000000
# 3 -0.001370 -0.002959 0.014895 0.000000 0.000000 0.000000
# 4 0.000000 0.000000 0.000000 0.063664 0.000000 0.000000
# 5 0.000000 0.000000 0.000000 0.000000 0.042189 0.000000
# 6 0.000000 0.000000 0.000000 0.000000 0.000000 0.027610
#
#
# Mechanical properties :
#
#
# Convention : Reuss Voigt Hill
#
# Bulk Modulus (GPa) = 45.03482 47.26537 46.15009
# Shear Modulus (GPa) = 26.80992 31.22817 29.01905
#
# Velocity S-wave (km/s) = 3.64452 3.93338 3.79170
# Velocity P-wave (km/s) = 6.32627 6.63667 6.48333
#
# Compressibility (1/GPa) = 0.02220504
#
# Stress axis : x y z
#
# Youngs Moduli (GPa) = 119.77342 93.66997 67.13861
#
# Poissons Ratio (x) = 0.14316 0.09196
# Poissons Ratio (y) = 0.18305 0.19868
# Poissons Ratio (z) = 0.16405 0.27719
#
# Static dielectric constant tensor:
#      x y z
#    x 1.707160 0.000000 0.000000 
#    y 0.000000 1.763880 0.000000 
#    z 0.000000 0.000000 1.702180 
# 
# From -- ./inp_files/8202.got.cif
#   From: 2010.05.17/outbox.cif.g08.bks.cpg/sg61_5_cif.got.tgz:8202.got - 2010.06.03 15:17:17.
