data_PCOD9460779
_publ_section_title
;
Structure prediction by ZEFSAII (Michael W. Deem and Ramdas Pophale) SiO2 
 PCOD9460779
Probable space group: P B C A
;
_chemical_formula_sum "Si O2"
_cell_formula_units_Z 36
_cell_length_a 8.477052
_cell_length_b 19.707985
_cell_length_c 7.573990
_cell_angle_alpha 90.000000
_cell_angle_beta 90.000000
_cell_angle_gamma 90.000000
_cell_volume 1265.353287
_symmetry_space_group_name_H-M "P B C A"
_symmetry_group_IT_number 61
_symmetry_cell_setting 'orthorhombic'
loop_
_space_group_symop_operation_xyz
x,y,z
1/2-x,-y,1/2+z
1/2+x,1/2-y,-z
-x,1/2+y,1/2-z
-x,-y,-z
1/2+x,y,1/2-z
1/2-x,1/2+y,z
x,1/2-y,1/2+z
loop_
_atom_site_type_symbol
_atom_site_label
_atom_site_fract_x
_atom_site_fract_y
_atom_site_fract_z
Si Si1 0.822319 0.201146 0.364039
Si Si2 0.792705 0.933188 0.715600
Si Si3 0.048732 0.300059 0.159347
Si Si4 0.700199 0.435255 0.334414
Si Si5 0.500000 0.000000 0.500000
O O1 0.779689 0.141226 0.228743
O O2 0.940041 0.256191 0.284515
O O3 0.671066 0.244749 0.419358
O O4 0.924661 0.170120 0.519827
O O5 0.666760 0.998208 0.711218
O O6 0.875391 0.943876 0.528789
O O7 0.895777 0.941190 0.889675
O O8 0.149649 0.362610 0.231621
O O9 0.884592 0.442617 0.384812
#
# Coordination Sequence:
#
# PCOD9460779 Si02
#       5
#     8   8   8   8   4
#     4  12  28  49  73 111 155 212 258 337 391 492
#     4  10  24  46  78 109 157 196 268 325 409 460
#     4  12  28  48  77 108 158 205 271 318 412 476
#     4  10  24  46  75 112 148 201 258 330 399 480
#     4   8  24  46  78 110 154 204 254 344 396 482
#
# _framework density 28.450554
#
# number of rings (size 3 to 8) (size 9 to 14) (size 15 to 20)
#    1.333    0.000    0.000    4.000    9.333    6.222 
#    0.000    0.000    0.000    0.000    0.000    0.000 
#    0.000    0.000    0.000    0.000    0.000    0.000 
#
# Total GULP energy -201007.748219 kJ/mol
# GULP energy per Si atom -5583.548562 kJ/mol
# Density = 2.838580 g / cm^3
# Si number density = 28.450554 Si / 1000 Ang^3
#
#
#
# Elastic Constant Matrix: (Units=GPa)
#
#
# Indices 1 2 3 4 5 6 
#
# 1 131.0654 49.3383 9.8641 0.0000 0.0000 0.0000
# 2 49.3383 191.2575 54.3272 0.0000 0.0000 0.0000
# 3 9.8641 54.3272 74.3357 0.0000 0.0000 0.0000
# 4 0.0000 0.0000 0.0000 44.0907 0.0000 0.0000
# 5 0.0000 0.0000 0.0000 0.0000 48.0067 0.0000
# 6 0.0000 0.0000 0.0000 0.0000 0.0000 58.0736
#
#
#
# Elastic Compliance Matrix: (Units=1/GPa)
#
#
# Indices 1 2 3 4 5 6 
#
# 1 0.008471 -0.002355 0.000597 0.000000 0.000000 0.000000
# 2 -0.002355 0.007253 -0.004988 0.000000 0.000000 0.000000
# 3 0.000597 -0.004988 0.017019 0.000000 0.000000 0.000000
# 4 0.000000 0.000000 0.000000 0.022681 0.000000 0.000000
# 5 0.000000 0.000000 0.000000 0.000000 0.020830 0.000000
# 6 0.000000 0.000000 0.000000 0.000000 0.000000 0.017220
#
#
# Mechanical properties :
#
#
# Convention : Reuss Voigt Hill
#
# Bulk Modulus (GPa) = 51.94603 69.30197 60.62400
# Shear Modulus (GPa) = 44.09833 48.90946 46.50389
#
# Velocity S-wave (km/s) = 3.94127 4.15071 4.04734
# Velocity P-wave (km/s) = 6.24576 6.88351 6.57238
#
# Compressibility (1/GPa) = 0.01925075
#
# Stress axis : x y z
#
# Youngs Moduli (GPa) = 118.04527 137.87466 58.75829
#
# Poissons Ratio (x) = 0.32468 -0.03507
# Poissons Ratio (y) = 0.27798 0.29310
# Poissons Ratio (z) = -0.07046 0.68775
#
# Static dielectric constant tensor:
#      x y z
#    x 2.007460 0.000000 0.000000 
#    y 0.000000 2.153300 0.000000 
#    z 0.000000 0.000000 1.777200 
# 
# From -- ./inp_files/1703.got.cif
#   From: 2010.05.17/outbox.cif.g08.bks.cpg/sg61_1_cif.got.tgz:1703.got - 2010.06.03 15:17:17.
