data_PCOD9460791
_publ_section_title
;
Structure prediction by ZEFSAII (Michael W. Deem and Ramdas Pophale) SiO2 
 PCOD9460791
Probable space group: P B C A
;
_chemical_formula_sum "Si O2"
_cell_formula_units_Z 40
_cell_length_a 16.973091
_cell_length_b 9.594720
_cell_length_c 9.289701
_cell_angle_alpha 90.000000
_cell_angle_beta 90.000000
_cell_angle_gamma 90.000000
_cell_volume 1512.846904
_symmetry_space_group_name_H-M "P B C A"
_symmetry_group_IT_number 61
_symmetry_cell_setting 'orthorhombic'
loop_
_space_group_symop_operation_xyz
x,y,z
1/2-x,-y,1/2+z
1/2+x,1/2-y,-z
-x,1/2+y,1/2-z
-x,-y,-z
1/2+x,y,1/2-z
1/2-x,1/2+y,z
x,1/2-y,1/2+z
loop_
_atom_site_type_symbol
_atom_site_label
_atom_site_fract_x
_atom_site_fract_y
_atom_site_fract_z
Si Si1 0.353404 0.024516 0.579759
Si Si2 0.019183 0.744672 0.028671
Si Si3 0.083048 0.466984 0.111029
Si Si4 0.376862 0.837680 0.825655
Si Si5 0.228041 0.110931 0.811473
O O1 0.385714 0.954108 0.947191
O O2 0.304087 0.091542 0.712359
O O3 0.394007 0.897326 0.668309
O O4 0.292377 0.963898 0.462312
O O5 0.155643 0.431756 0.208982
O O6 0.081328 0.869073 0.016631
O O7 0.937682 0.777947 0.111267
O O8 0.988131 0.647068 0.895833
O O9 0.210544 0.224969 0.332572
O O10 0.055638 0.623891 0.131642
#
# Coordination Sequence:
#
# PCOD9460791 Si02
#       5
#     8   8   8   8   8
#     4  12  28  49  81 115 165 218 261 339 411 479
#     4   9  24  48  81 108 157 202 265 325 400 473
#     4   9  22  49  74 115 153 197 265 331 383 483
#     4  10  24  49  76 113 154 202 270 330 390 485
#     4  12  27  47  77 114 160 211 268 324 403 484
#
# _framework density 26.440215999999999
#
# number of rings (size 3 to 8) (size 9 to 14) (size 15 to 20)
#    1.200    0.400    0.000    2.400    5.600    4.000 
#    3.600    0.000    4.400    0.000    0.000    0.000 
#    0.000    0.000    0.000    0.000    0.000    0.000 
#
# Total GULP energy -223191.420933 kJ/mol
# GULP energy per Si atom -5579.785523 kJ/mol
# Density = 2.638004 g / cm^3
# Si number density = 26.440216 Si / 1000 Ang^3
#
#
#
# Elastic Constant Matrix: (Units=GPa)
#
#
# Indices 1 2 3 4 5 6 
#
# 1 68.5768 18.7355 17.7817 0.0000 0.0000 0.0000
# 2 18.7355 84.4368 18.3473 0.0000 0.0000 0.0000
# 3 17.7817 18.3473 140.8290 0.0000 0.0000 0.0000
# 4 0.0000 0.0000 0.0000 33.5822 0.0000 0.0000
# 5 0.0000 0.0000 0.0000 0.0000 45.1544 0.0000
# 6 0.0000 0.0000 0.0000 0.0000 0.0000 54.1939
#
#
#
# Elastic Compliance Matrix: (Units=1/GPa)
#
#
# Indices 1 2 3 4 5 6 
#
# 1 0.015861 -0.003174 -0.001589 0.000000 0.000000 0.000000
# 2 -0.003174 0.012823 -0.001270 0.000000 0.000000 0.000000
# 3 -0.001589 -0.001270 0.007467 0.000000 0.000000 0.000000
# 4 0.000000 0.000000 0.000000 0.029778 0.000000 0.000000
# 5 0.000000 0.000000 0.000000 0.000000 0.022146 0.000000
# 6 0.000000 0.000000 0.000000 0.000000 0.000000 0.018452
#
#
# Mechanical properties :
#
#
# Convention : Reuss Voigt Hill
#
# Bulk Modulus (GPa) = 41.51905 44.84131 43.18018
# Shear Modulus (GPa) = 39.48736 42.51799 41.00267
#
# Velocity S-wave (km/s) = 3.86872 4.01444 3.94225
# Velocity P-wave (km/s) = 5.97437 6.20354 6.09003
#
# Compressibility (1/GPa) = 0.02408533
#
# Stress axis : x y z
#
# Youngs Moduli (GPa) = 63.04592 77.98236 133.92424
#
# Poissons Ratio (x) = 0.24753 0.21283
# Poissons Ratio (y) = 0.20012 0.17007
# Poissons Ratio (z) = 0.10019 0.09903
#
# Static dielectric constant tensor:
#      x y z
#    x 2.147400 0.000000 0.000000 
#    y 0.000000 2.198180 0.000000 
#    z 0.000000 0.000000 2.050750 
# 
# From -- ./inp_files/2681.got.cif
#   From: 2010.05.17/outbox.cif.g08.bks.cpg/sg61_2_cif.got.tgz:2681.got - 2010.06.03 15:17:17.
