data_PCOD9460778
_publ_section_title
;
Structure prediction by ZEFSAII (Michael W. Deem and Ramdas Pophale) SiO2 
 PCOD9460778
Probable space group: P B C A
;
_chemical_formula_sum "Si O2"
_cell_formula_units_Z 36
_cell_length_a 4.893533
_cell_length_b 23.063135
_cell_length_c 10.018881
_cell_angle_alpha 90.000000
_cell_angle_beta 90.000000
_cell_angle_gamma 90.000000
_cell_volume 1130.733036
_symmetry_space_group_name_H-M "P B C A"
_symmetry_group_IT_number 61
_symmetry_cell_setting 'orthorhombic'
loop_
_space_group_symop_operation_xyz
x,y,z
1/2-x,-y,1/2+z
1/2+x,1/2-y,-z
-x,1/2+y,1/2-z
-x,-y,-z
1/2+x,y,1/2-z
1/2-x,1/2+y,z
x,1/2-y,1/2+z
loop_
_atom_site_type_symbol
_atom_site_label
_atom_site_fract_x
_atom_site_fract_y
_atom_site_fract_z
Si Si1 0.000000 0.500000 0.500000
Si Si2 0.755677 0.015405 0.298802
Si Si3 0.753995 0.184414 0.663032
Si Si4 0.987115 0.910690 0.526607
Si Si5 0.866600 0.187408 0.159942
O O1 0.071560 0.486379 0.326966
O O2 0.810573 0.554059 0.439505
O O3 0.055356 0.053765 0.314130
O O4 0.813599 0.961258 0.439830
O O5 0.439882 0.182096 0.703978
O O6 0.856157 0.131749 0.577042
O O7 0.813927 0.248341 0.605634
O O8 0.756509 0.862457 0.570820
O O9 0.681044 0.182129 0.295684
#
# Coordination Sequence:
#
# PCOD9460778 Si02
#       5
#     4   8   8   8   8
#     4  12  30  50  74 122 154 214 274 324 410 488
#     4  12  27  51  77 110 155 199 261 327 391 480
#     4  10  26  48  72 112 158 205 258 326 407 479
#     4  12  27  48  82 116 157 210 273 335 408 485
#     4  10  24  46  75 110 149 195 256 322 395 475
#
# _framework density 31.837752999999999
#
# number of rings (size 3 to 8) (size 9 to 14) (size 15 to 20)
#    0.000    0.889    2.222    2.000    6.222    7.111 
#    0.000    0.000    0.000    0.000    0.000    0.000 
#    0.000    0.000    0.000    0.000    0.000    0.000 
#
# Total GULP energy -201058.586095 kJ/mol
# GULP energy per Si atom -5584.960725 kJ/mol
# Density = 3.176529 g / cm^3
# Si number density = 31.837753 Si / 1000 Ang^3
#
#
#
# Elastic Constant Matrix: (Units=GPa)
#
#
# Indices 1 2 3 4 5 6 
#
# 1 256.1011 61.4642 116.5864 0.0000 0.0000 0.0000
# 2 61.4642 260.7920 90.8308 0.0000 0.0000 0.0000
# 3 116.5864 90.8308 223.2252 0.0000 0.0000 0.0000
# 4 0.0000 0.0000 0.0000 56.7292 0.0000 0.0000
# 5 0.0000 0.0000 0.0000 0.0000 79.6926 0.0000
# 6 0.0000 0.0000 0.0000 0.0000 0.0000 55.2969
#
#
#
# Elastic Compliance Matrix: (Units=1/GPa)
#
#
# Indices 1 2 3 4 5 6 
#
# 1 0.005146 -0.000322 -0.002556 0.000000 0.000000 0.000000
# 2 -0.000322 0.004488 -0.001658 0.000000 0.000000 0.000000
# 3 -0.002556 -0.001658 0.006489 0.000000 0.000000 0.000000
# 4 0.000000 0.000000 0.000000 0.017628 0.000000 0.000000
# 5 0.000000 0.000000 0.000000 0.000000 0.012548 0.000000
# 6 0.000000 0.000000 0.000000 0.000000 0.000000 0.018084
#
#
# Mechanical properties :
#
#
# Convention : Reuss Voigt Hill
#
# Bulk Modulus (GPa) = 141.84216 141.98679 141.91448
# Shear Modulus (GPa) = 65.95764 69.75953 67.85859
#
# Velocity S-wave (km/s) = 4.55651 4.68599 4.62170
# Velocity P-wave (km/s) = 8.50474 8.60069 8.55285
#
# Compressibility (1/GPa) = 0.00705009
#
# Stress axis : x y z
#
# Youngs Moduli (GPa) = 194.33133 222.82514 154.09609
#
# Poissons Ratio (x) = 0.07185 0.39393
# Poissons Ratio (y) = 0.06266 0.25545
# Poissons Ratio (z) = 0.49679 0.36938
#
# Static dielectric constant tensor:
#      x y z
#    x 3.306570 0.000000 0.000000 
#    y 0.000000 2.267740 0.000000 
#    z 0.000000 0.000000 3.575980 
# 
# From -- ./inp_files/4689.got.cif
#   From: 2010.05.17/outbox.cif.g08.bks.cpg/sg61_3_cif.got.tgz:4689.got - 2010.06.03 15:17:17.
