data_PCOD9460631
_publ_section_title
;
Structure prediction by ZEFSAII (Michael W. Deem and Ramdas Pophale) SiO2 
 PCOD9460631
Probable space group: P B C A
;
_chemical_formula_sum "Si O2"
_cell_formula_units_Z 40
_cell_length_a 8.970281
_cell_length_b 21.608030
_cell_length_c 7.643550
_cell_angle_alpha 90.000000
_cell_angle_beta 90.000000
_cell_angle_gamma 90.000000
_cell_volume 1481.550068
_symmetry_space_group_name_H-M "P B C A"
_symmetry_group_IT_number 61
_symmetry_cell_setting 'orthorhombic'
loop_
_space_group_symop_operation_xyz
x,y,z
1/2-x,-y,1/2+z
1/2+x,1/2-y,-z
-x,1/2+y,1/2-z
-x,-y,-z
1/2+x,y,1/2-z
1/2-x,1/2+y,z
x,1/2-y,1/2+z
loop_
_atom_site_type_symbol
_atom_site_label
_atom_site_fract_x
_atom_site_fract_y
_atom_site_fract_z
Si Si1 0.372006 0.309659 0.557790
Si Si2 0.558792 0.447062 0.264223
Si Si3 0.305786 0.997645 0.582400
Si Si4 0.455783 0.173798 0.669409
Si Si5 0.425125 0.865704 0.677539
O O1 0.451036 0.245051 0.607178
O O2 0.364055 0.319039 0.350423
O O3 0.484378 0.358946 0.644771
O O4 0.206321 0.315749 0.639626
O O5 0.639907 0.476487 0.427507
O O6 0.385625 0.454983 0.217575
O O7 0.583408 0.373795 0.243210
O O8 0.623960 0.491054 0.109045
O O9 0.337322 0.929575 0.656234
O O10 0.449214 0.142055 0.475350
#
# Coordination Sequence:
#
# PCOD9460631 Si02
#       5
#     8   8   8   8   8
#     4  12  27  46  76 101 151 189 243 306 356 441
#     4  10  24  42  71  98 142 180 237 293 357 424
#     4  10  23  45  66 103 136 180 233 296 349 428
#     4  11  27  45  70 108 144 195 240 295 366 431
#     4  11  27  48  73 111 141 194 246 296 373 426
#
# _framework density 26.998750000000001
#
# number of rings (size 3 to 8) (size 9 to 14) (size 15 to 20)
#    0.000    1.200    2.000    1.200   11.200    2.400 
#    0.000    0.000    0.000    0.000    0.000    0.000 
#    0.000    0.000    0.000    0.000    0.000    0.000 
#
# Total GULP energy -222913.447434 kJ/mol
# GULP energy per Si atom -5572.836186 kJ/mol
# Density = 2.693730 g / cm^3
# Si number density = 26.998750 Si / 1000 Ang^3
#
#
#
# Elastic Constant Matrix: (Units=GPa)
#
#
# Indices 1 2 3 4 5 6 
#
# 1 104.1896 33.0268 24.8676 0.0000 0.0000 0.0000
# 2 33.0268 101.0699 12.1289 0.0000 0.0000 0.0000
# 3 24.8676 12.1289 98.1462 0.0000 0.0000 0.0000
# 4 0.0000 0.0000 0.0000 31.0255 0.0000 0.0000
# 5 0.0000 0.0000 0.0000 0.0000 31.0134 0.0000
# 6 0.0000 0.0000 0.0000 0.0000 0.0000 16.6311
#
#
#
# Elastic Compliance Matrix: (Units=1/GPa)
#
#
# Indices 1 2 3 4 5 6 
#
# 1 0.011251 -0.003385 -0.002433 0.000000 0.000000 0.000000
# 2 -0.003385 0.011061 -0.000509 0.000000 0.000000 0.000000
# 3 -0.002433 -0.000509 0.010868 0.000000 0.000000 0.000000
# 4 0.000000 0.000000 0.000000 0.032232 0.000000 0.000000
# 5 0.000000 0.000000 0.000000 0.000000 0.032244 0.000000
# 6 0.000000 0.000000 0.000000 0.000000 0.000000 0.060128
#
#
# Mechanical properties :
#
#
# Convention : Reuss Voigt Hill
#
# Bulk Modulus (GPa) = 48.71474 49.27246 48.99360
# Shear Modulus (GPa) = 28.20385 31.29282 29.74834
#
# Velocity S-wave (km/s) = 3.23559 3.40817 3.32300
# Velocity P-wave (km/s) = 5.66050 5.81180 5.73665
#
# Compressibility (1/GPa) = 0.02052767
#
# Stress axis : x y z
#
# Youngs Moduli (GPa) = 88.87802 90.40533 92.01186
#
# Poissons Ratio (x) = 0.30600 0.22382
# Poissons Ratio (y) = 0.30083 0.04687
# Poissons Ratio (z) = 0.21620 0.04605
#
# Static dielectric constant tensor:
#      x y z
#    x 2.224040 0.000000 0.000000 
#    y 0.000000 2.158390 0.000000 
#    z 0.000000 0.000000 2.147140 
# 
# From -- ./inp_files/1774.got.cif
#   From: 2010.05.17/outbox.cif.g08.bks.cpg/sg61_1_cif.got.tgz:1774.got - 2010.06.03 15:17:17.
