data_PCOD9460663
_publ_section_title
;
Structure prediction by ZEFSAII (Michael W. Deem and Ramdas Pophale) SiO2 
 PCOD9460663
Probable space group: P B C A
;
_chemical_formula_sum "Si O2"
_cell_formula_units_Z 48
_cell_length_a 16.256816
_cell_length_b 11.498051
_cell_length_c 11.841759
_cell_angle_alpha 90.000000
_cell_angle_beta 90.000000
_cell_angle_gamma 90.000000
_cell_volume 2213.481717
_symmetry_space_group_name_H-M "P B C A"
_symmetry_group_IT_number 61
_symmetry_cell_setting 'orthorhombic'
loop_
_space_group_symop_operation_xyz
x,y,z
1/2-x,-y,1/2+z
1/2+x,1/2-y,-z
-x,1/2+y,1/2-z
-x,-y,-z
1/2+x,y,1/2-z
1/2-x,1/2+y,z
x,1/2-y,1/2+z
loop_
_atom_site_type_symbol
_atom_site_label
_atom_site_fract_x
_atom_site_fract_y
_atom_site_fract_z
Si Si1 0.148973 0.704430 0.188012
Si Si2 0.139458 0.408587 0.536931
Si Si3 0.911092 0.989669 0.190793
Si Si4 0.408196 0.446985 0.245399
Si Si5 0.174258 0.179356 0.639126
Si Si6 0.321870 0.453728 0.485462
O O1 0.140836 0.606200 0.284301
O O2 0.088871 0.810763 0.214022
O O3 0.239885 0.760874 0.176634
O O4 0.132966 0.634427 0.071948
O O5 0.082023 0.460024 0.440546
O O6 0.142676 0.490414 0.646359
O O7 0.120131 0.281200 0.583503
O O8 0.229097 0.406375 0.478724
O O9 0.867582 0.883361 0.255299
O O10 0.001556 0.002008 0.242976
O O11 0.364750 0.460019 0.365381
O O12 0.184378 0.078612 0.545970
#
# Coordination Sequence:
#
# PCOD9460663 Si02
#       6
#     8   8   8   8   8   8
#     4  10  24  46  68 101 138 183 237 289 348 425
#     4  11  25  41  70 100 138 179 243 287 351 425
#     4  11  27  43  71 106 145 183 232 297 368 421
#     4  12  26  43  70 104 143 184 227 300 362 414
#     4  10  23  46  71  98 134 188 240 291 343 423
#     4  10  24  44  70  98 130 191 240 285 344 431
#
# _framework density 21.685293999999999
#
# number of rings (size 3 to 8) (size 9 to 14) (size 15 to 20)
#    0.000    1.333    1.667    1.500   11.667    4.000 
#    0.000    0.000    0.000    0.000    0.000    0.000 
#    0.000    0.000    0.000    0.000    0.000    0.000 
#
# Total GULP energy -268404.332544 kJ/mol
# GULP energy per Si atom -5591.756928 kJ/mol
# Density = 2.163594 g / cm^3
# Si number density = 21.685294 Si / 1000 Ang^3
#
#
#
# Elastic Constant Matrix: (Units=GPa)
#
#
# Indices 1 2 3 4 5 6 
#
# 1 58.5982 18.0238 28.9866 0.0000 0.0000 0.0000
# 2 18.0238 125.2525 47.5871 0.0000 0.0000 0.0000
# 3 28.9866 47.5871 106.5918 0.0000 0.0000 0.0000
# 4 0.0000 0.0000 0.0000 13.0613 0.0000 0.0000
# 5 0.0000 0.0000 0.0000 0.0000 31.0232 0.0000
# 6 0.0000 0.0000 0.0000 0.0000 0.0000 6.7008
#
#
#
# Elastic Compliance Matrix: (Units=1/GPa)
#
#
# Indices 1 2 3 4 5 6 
#
# 1 0.019815 -0.000968 -0.004956 0.000000 0.000000 0.000000
# 2 -0.000968 0.009662 -0.004050 0.000000 0.000000 0.000000
# 3 -0.004956 -0.004050 0.012538 0.000000 0.000000 0.000000
# 4 0.000000 0.000000 0.000000 0.076562 0.000000 0.000000
# 5 0.000000 0.000000 0.000000 0.000000 0.032234 0.000000
# 6 0.000000 0.000000 0.000000 0.000000 0.000000 0.149235
#
#
# Mechanical properties :
#
#
# Convention : Reuss Voigt Hill
#
# Bulk Modulus (GPa) = 45.32063 53.29306 49.30685
# Shear Modulus (GPa) = 15.27419 23.21342 19.24380
#
# Velocity S-wave (km/s) = 2.65685 3.27535 2.98218
# Velocity P-wave (km/s) = 5.50967 6.23962 5.88597
#
# Compressibility (1/GPa) = 0.02206500
#
# Stress axis : x y z
#
# Youngs Moduli (GPa) = 50.46717 103.49824 79.76058
#
# Poissons Ratio (x) = 0.10023 0.39530
# Poissons Ratio (y) = 0.04887 0.32304
# Poissons Ratio (z) = 0.25012 0.41919
#
# Static dielectric constant tensor:
#      x y z
#    x 1.815360 0.000000 0.000000 
#    y 0.000000 1.792240 0.000000 
#    z 0.000000 0.000000 1.775800 
# 
# From -- ./inp_files/5243.got.cif
#   From: 2010.05.17/outbox.cif.g08.bks.cpg/sg61_3_cif.got.tgz:5243.got - 2010.06.03 15:17:17.
