data_PCOD9460788
_publ_section_title
;
Structure prediction by ZEFSAII (Michael W. Deem and Ramdas Pophale) SiO2 
 PCOD9460788
Probable space group: P B C A
;
_chemical_formula_sum "Si O2"
_cell_formula_units_Z 44
_cell_length_a 24.669025
_cell_length_b 4.743120
_cell_length_c 13.589715
_cell_angle_alpha 90.000000
_cell_angle_beta 90.000000
_cell_angle_gamma 90.000000
_cell_volume 1590.107355
_symmetry_space_group_name_H-M "P B C A"
_symmetry_group_IT_number 61
_symmetry_cell_setting 'orthorhombic'
loop_
_space_group_symop_operation_xyz
x,y,z
1/2-x,-y,1/2+z
1/2+x,1/2-y,-z
-x,1/2+y,1/2-z
-x,-y,-z
1/2+x,y,1/2-z
1/2-x,1/2+y,z
x,1/2-y,1/2+z
loop_
_atom_site_type_symbol
_atom_site_label
_atom_site_fract_x
_atom_site_fract_y
_atom_site_fract_z
Si Si1 0.870263 0.860489 0.254654
Si Si2 0.451234 0.477234 0.366088
Si Si3 0.788370 0.492198 0.378344
Si Si4 0.286884 0.534821 0.894024
Si Si5 0.000000 0.500000 0.500000
Si Si6 0.049302 0.697321 0.652746
O O1 0.902528 0.668598 0.174391
O O2 0.835803 0.636672 0.317416
O O3 0.831689 0.043322 0.184331
O O4 0.904336 0.078654 0.322963
O O5 0.452444 0.211680 0.435946
O O6 0.472311 0.372459 0.260445
O O7 0.495104 0.700324 0.410085
O O8 0.766057 0.179560 0.361295
O O9 0.803730 0.501173 0.493313
O O10 0.232511 0.353954 0.879305
O O11 0.050699 0.423273 0.584597
#
# Coordination Sequence:
#
# PCOD9460788 Si02
#       6
#     8   8   8   8   4   8
#     4  12  26  42  80 110 158 212 278 332 416 520
#     4  12  25  50  71 113 155 210 268 336 410 492
#     4  10  24  48  74 112 158 206 270 348 424 500
#     4  10  24  48  74 112 158 206 270 348 424 500
#     4  12  26  48  84 100 168 206 268 356 410 474
#     4  12  25  50  71 113 155 210 268 336 410 492
#
# _framework density 27.671088000000001
#
# number of rings (size 3 to 8) (size 9 to 14) (size 15 to 20)
#    0.000    0.727    3.636    1.636    7.636    0.000 
#    3.273    0.000    0.000    0.000    0.000    0.000 
#    0.000    0.000    0.000    0.000    0.000    0.000 
#
# Total GULP energy -245436.897041 kJ/mol
# GULP energy per Si atom -5578.111296 kJ/mol
# Density = 2.760811 g / cm^3
# Si number density = 27.671088 Si / 1000 Ang^3
#
#
#
# Elastic Constant Matrix: (Units=GPa)
#
#
# Indices 1 2 3 4 5 6 
#
# 1 95.8539 25.4961 67.8417 0.0000 0.0000 0.0000
# 2 25.4961 106.9112 35.6731 0.0000 0.0000 0.0000
# 3 67.8417 35.6731 203.8951 0.0000 0.0000 0.0000
# 4 0.0000 0.0000 0.0000 43.3963 0.0000 0.0000
# 5 0.0000 0.0000 0.0000 0.0000 40.9604 0.0000
# 6 0.0000 0.0000 0.0000 0.0000 0.0000 49.3770
#
#
#
# Elastic Compliance Matrix: (Units=1/GPa)
#
#
# Indices 1 2 3 4 5 6 
#
# 1 0.013998 -0.001895 -0.004326 0.000000 0.000000 0.000000
# 2 -0.001895 0.010190 -0.001152 0.000000 0.000000 0.000000
# 3 -0.004326 -0.001152 0.006546 0.000000 0.000000 0.000000
# 4 0.000000 0.000000 0.000000 0.023043 0.000000 0.000000
# 5 0.000000 0.000000 0.000000 0.000000 0.024414 0.000000
# 6 0.000000 0.000000 0.000000 0.000000 0.000000 0.020252
#
#
# Mechanical properties :
#
#
# Convention : Reuss Voigt Hill
#
# Bulk Modulus (GPa) = 62.54993 73.85358 68.20176
# Shear Modulus (GPa) = 42.18723 45.25670 43.72196
#
# Velocity S-wave (km/s) = 3.90884 4.04855 3.97931
# Velocity P-wave (km/s) = 6.55942 6.97152 6.76860
#
# Compressibility (1/GPa) = 0.01598723
#
# Stress axis : x y z
#
# Youngs Moduli (GPa) = 71.43648 98.13603 152.77590
#
# Poissons Ratio (x) = 0.18595 0.66093
# Poissons Ratio (y) = 0.13536 0.17605
# Poissons Ratio (z) = 0.30905 0.11309
#
# Static dielectric constant tensor:
#      x y z
#    x 2.278700 0.000000 0.000000 
#    y 0.000000 2.284010 0.000000 
#    z 0.000000 0.000000 2.125260 
# 
# From -- ./inp_files/8569.got.cif
#   From: 2010.05.17/outbox.cif.g08.bks.cpg/sg61_5_cif.got.tgz:8569.got - 2010.06.03 15:17:17.
