data_PCOD9460005
_publ_section_title
;
Structure prediction by ZEFSAII (Michael W. Deem and Ramdas Pophale) SiO2 
 PCOD9460005
Probable space group: P B C A
;
_chemical_formula_sum "Si O2"
_cell_formula_units_Z 32
_cell_length_a 10.194764
_cell_length_b 13.657985
_cell_length_c 8.370938
_cell_angle_alpha 90.000000
_cell_angle_beta 90.000000
_cell_angle_gamma 90.000000
_cell_volume 1165.568853
_symmetry_space_group_name_H-M "P B C A"
_symmetry_group_IT_number 61
_symmetry_cell_setting 'orthorhombic'
loop_
_space_group_symop_operation_xyz
x,y,z
1/2-x,-y,1/2+z
1/2+x,1/2-y,-z
-x,1/2+y,1/2-z
-x,-y,-z
1/2+x,y,1/2-z
1/2-x,1/2+y,z
x,1/2-y,1/2+z
loop_
_atom_site_type_symbol
_atom_site_label
_atom_site_fract_x
_atom_site_fract_y
_atom_site_fract_z
Si Si1 0.898790 0.691338 0.043410
Si Si2 0.227601 0.075040 0.198188
Si Si3 0.375842 0.396093 0.372027
Si Si4 0.383656 0.317128 0.930898
O O1 0.870823 0.656570 0.225066
O O2 0.753497 0.690596 0.973117
O O3 0.980338 0.606634 0.953360
O O4 0.985017 0.789958 0.027423
O O5 0.355544 0.092022 0.313947
O O6 0.156508 0.973446 0.237051
O O7 0.275098 0.085714 0.018689
O O8 0.368685 0.282224 0.326529
#
# Coordination Sequence:
#
# PCOD9460005 Si02
#       4
#     8   8   8   8
#     4   8  19  42  62  92 122 173 212 278 294 400
#     4  10  21  40  65  95 130 168 212 265 324 386
#     4  10  21  40  65  95 130 168 212 265 324 386
#     4   8  20  38  64  84 126 170 212 258 314 368
#
# _framework density 27.454405000000001
#
# number of rings (size 3 to 8) (size 9 to 14) (size 15 to 20)
#    3.000    0.000    0.000    0.750    0.000    4.000 
#    0.000    5.000    0.000    0.000    0.000    0.000 
#    0.000    0.000    0.000    0.000    0.000    0.000 
#
# Total GULP energy -178362.122318 kJ/mol
# GULP energy per Si atom -5573.816322 kJ/mol
# Density = 2.739192 g / cm^3
# Si number density = 27.454405 Si / 1000 Ang^3
#
#
#
# Elastic Constant Matrix: (Units=GPa)
#
#
# Indices 1 2 3 4 5 6 
#
# 1 143.4081 14.4614 33.4982 0.0000 0.0000 0.0000
# 2 14.4614 57.3687 -6.3094 0.0000 0.0000 0.0000
# 3 33.4982 -6.3094 82.4433 0.0000 0.0000 0.0000
# 4 0.0000 0.0000 0.0000 18.7654 0.0000 0.0000
# 5 0.0000 0.0000 0.0000 0.0000 39.7285 0.0000
# 6 0.0000 0.0000 0.0000 0.0000 0.0000 35.1703
#
#
#
# Elastic Compliance Matrix: (Units=1/GPa)
#
#
# Indices 1 2 3 4 5 6 
#
# 1 0.008019 -0.002400 -0.003442 0.000000 0.000000 0.000000
# 2 -0.002400 0.018297 0.002375 0.000000 0.000000 0.000000
# 3 -0.003442 0.002375 0.013710 0.000000 0.000000 0.000000
# 4 0.000000 0.000000 0.000000 0.053290 0.000000 0.000000
# 5 0.000000 0.000000 0.000000 0.000000 0.025171 0.000000
# 6 0.000000 0.000000 0.000000 0.000000 0.000000 0.028433
#
#
# Mechanical properties :
#
#
# Convention : Reuss Voigt Hill
#
# Bulk Modulus (GPa) = 30.21758 40.72449 35.47103
# Shear Modulus (GPa) = 30.32435 34.83751 32.58093
#
# Velocity S-wave (km/s) = 3.32706 3.56606 3.44863
# Velocity P-wave (km/s) = 5.07833 5.64105 5.36707
#
# Compressibility (1/GPa) = 0.03309332
#
# Stress axis : x y z
#
# Youngs Moduli (GPa) = 124.70189 54.65272 72.94006
#
# Poissons Ratio (x) = 0.13117 0.25106
# Poissons Ratio (y) = 0.29928 -0.17327
# Poissons Ratio (z) = 0.42922 -0.12983
#
# Static dielectric constant tensor:
#      x y z
#    x 2.288250 0.000000 0.000000 
#    y 0.000000 2.207870 0.000000 
#    z 0.000000 0.000000 2.184010 
# 
# From -- ./inp_files/1968.got.cif
#   From: 2010.05.17/outbox.cif.g08.bks.cpg/sg61_1_cif.got.tgz:1968.got - 2010.06.03 15:17:17.
