data_PCOD9460555
_publ_section_title
;
Structure prediction by ZEFSAII (Michael W. Deem and Ramdas Pophale) SiO2 
 PCOD9460555
Probable space group: P B C A
;
_chemical_formula_sum "Si O2"
_cell_formula_units_Z 56
_cell_length_a 28.779102
_cell_length_b 5.163716
_cell_length_c 14.373080
_cell_angle_alpha 90.000000
_cell_angle_beta 90.000000
_cell_angle_gamma 90.000000
_cell_volume 2135.941873
_symmetry_space_group_name_H-M "P B C A"
_symmetry_group_IT_number 61
_symmetry_cell_setting 'orthorhombic'
loop_
_space_group_symop_operation_xyz
x,y,z
1/2-x,-y,1/2+z
1/2+x,1/2-y,-z
-x,1/2+y,1/2-z
-x,-y,-z
1/2+x,y,1/2-z
1/2-x,1/2+y,z
x,1/2-y,1/2+z
loop_
_atom_site_type_symbol
_atom_site_label
_atom_site_fract_x
_atom_site_fract_y
_atom_site_fract_z
Si Si1 0.778122 0.899812 0.955692
Si Si2 0.617615 0.026363 0.436931
Si Si3 0.557093 0.794580 0.079758
Si Si4 0.366181 0.217819 0.765027
Si Si5 0.010399 0.281801 0.355303
Si Si6 0.274036 0.567526 0.271711
Si Si7 0.572283 0.422318 0.313868
O O1 0.749765 0.149392 0.988119
O O2 0.832574 0.899666 0.980925
O O3 0.775204 0.912624 0.841876
O O4 0.588818 0.832683 0.500899
O O5 0.629763 0.896243 0.338529
O O6 0.587165 0.271336 0.405466
O O7 0.593043 0.840239 0.163720
O O8 0.531517 0.067962 0.075474
O O9 0.479713 0.432897 0.894467
O O10 0.319345 0.091923 0.802161
O O11 0.379306 0.516617 0.740788
O O12 0.038899 0.273647 0.258225
O O13 0.958903 0.177078 0.335255
O O14 0.266776 0.865174 0.299947
#
# Coordination Sequence:
#
# PCOD9460555 Si02
#       7
#     8   8   8   8   8   8   8
#     4   9  20  37  60  94 134 171 216 273 327 393
#     4  11  25  41  72 100 133 180 230 270 342 400
#     4  11  26  45  65 101 136 173 222 290 321 401
#     4  10  23  42  66  94 134 176 220 273 338 400
#     4  11  25  45  67  95 139 172 226 276 341 393
#     4   9  19  33  59  92 124 165 219 267 325 393
#     4  11  24  43  71  96 130 187 218 274 343 409
#
# _framework density 26.217943000000002
#
# number of rings (size 3 to 8) (size 9 to 14) (size 15 to 20)
#    0.000    1.714    1.429    1.714   14.000    1.143 
#    0.000    1.429    0.000    0.000    0.000    0.000 
#    0.000    0.000    0.000    0.000    0.000    0.000 
#
# Total GULP energy -313278.517141 kJ/mol
# GULP energy per Si atom -5594.259235 kJ/mol
# Density = 2.615827 g / cm^3
# Si number density = 26.217943 Si / 1000 Ang^3
#
#
#
# Elastic Constant Matrix: (Units=GPa)
#
#
# Indices 1 2 3 4 5 6 
#
# 1 121.0084 34.5918 20.2844 0.0000 0.0000 0.0000
# 2 34.5918 91.7941 -17.6604 0.0000 0.0000 0.0000
# 3 20.2844 -17.6604 51.7774 0.0000 0.0000 0.0000
# 4 0.0000 0.0000 0.0000 29.0274 0.0000 0.0000
# 5 0.0000 0.0000 0.0000 0.0000 -30.1529 0.0000
# 6 0.0000 0.0000 0.0000 0.0000 0.0000 30.4664
#
#
#
# Elastic Compliance Matrix: (Units=1/GPa)
#
#
# Indices 1 2 3 4 5 6 
#
# 1 0.010756 -0.005206 -0.005989 0.000000 0.000000 0.000000
# 2 -0.005206 0.014178 0.006875 0.000000 0.000000 0.000000
# 3 -0.005989 0.006875 0.024005 0.000000 0.000000 0.000000
# 4 0.000000 0.000000 0.000000 0.034450 0.000000 0.000000
# 5 0.000000 0.000000 0.000000 0.000000 -0.033164 0.000000
# 6 0.000000 0.000000 0.000000 0.000000 0.000000 0.032823
#
#
# Mechanical properties :
#
#
# Convention : Reuss Voigt Hill
#
# Bulk Modulus (GPa) = 24.81380 37.66796 31.24088
# Shear Modulus (GPa) = 47.56444 21.02579 34.29512
#
# Velocity S-wave (km/s) = 4.26396 2.83497 3.62066
# Velocity P-wave (km/s) = 5.80747 5.01143 5.42408
#
# Compressibility (1/GPa) = 0.04030015
#
# Stress axis : x y z
#
# Youngs Moduli (GPa) = 92.97181 70.52987 41.65820
#
# Poissons Ratio (x) = 0.36715 0.24950
# Poissons Ratio (y) = 0.48397 -0.28641
# Poissons Ratio (z) = 0.55684 -0.48492
#
# Static dielectric constant tensor:
#      x y z
#    x 2.078520 0.000000 0.000000 
#    y 0.000000 2.095030 0.000000 
#    z 0.000000 0.000000 2.126560 
# 
# From -- ./inp_files/8659.got.cif
#   From: 2010.05.17/outbox.cif.g08.bks.cpg/sg61_5_cif.got.tgz:8659.got - 2010.06.03 15:17:17.
