data_PCOD9460597
_publ_section_title
;
Structure prediction by ZEFSAII (Michael W. Deem and Ramdas Pophale) SiO2 
 PCOD9460597
Probable space group: P B C A
;
_chemical_formula_sum "Si O2"
_cell_formula_units_Z 40
_cell_length_a 14.202623
_cell_length_b 12.560861
_cell_length_c 9.409408
_cell_angle_alpha 90.000000
_cell_angle_beta 90.000000
_cell_angle_gamma 90.000000
_cell_volume 1678.611790
_symmetry_space_group_name_H-M "P B C A"
_symmetry_group_IT_number 61
_symmetry_cell_setting 'orthorhombic'
loop_
_space_group_symop_operation_xyz
x,y,z
1/2-x,-y,1/2+z
1/2+x,1/2-y,-z
-x,1/2+y,1/2-z
-x,-y,-z
1/2+x,y,1/2-z
1/2-x,1/2+y,z
x,1/2-y,1/2+z
loop_
_atom_site_type_symbol
_atom_site_label
_atom_site_fract_x
_atom_site_fract_y
_atom_site_fract_z
Si Si1 0.937463 0.838428 0.149411
Si Si2 0.180631 0.511047 0.719191
Si Si3 0.136730 0.948930 0.893185
Si Si4 0.627109 0.734665 0.764718
Si Si5 0.165031 0.283709 0.630388
O O1 0.862448 0.800356 0.032177
O O2 0.035287 0.777125 0.137891
O O3 0.895066 0.810210 0.301857
O O4 0.946213 0.964766 0.126590
O O5 0.282194 0.491667 0.787632
O O6 0.137601 0.614341 0.796754
O O7 0.137692 0.392275 0.715274
O O8 0.112274 0.830416 0.845223
O O9 0.177551 0.956321 0.052491
O O10 0.724992 0.762119 0.843688
#
# Coordination Sequence:
#
# PCOD9460597 Si02
#       5
#     8   8   8   8   8
#     4  11  25  44  69 101 140 180 237 285 349 420
#     4  10  23  43  71  97 142 184 231 288 349 412
#     4  10  24  45  70 105 139 184 236 287 351 417
#     4  11  25  41  73 100 141 187 224 288 357 408
#     4  10  25  44  66 100 138 182 230 290 343 419
#
# _framework density 23.829212999999999
#
# number of rings (size 3 to 8) (size 9 to 14) (size 15 to 20)
#    0.000    1.600    2.000    0.000   11.200    3.200 
#    0.000    1.000    0.000    0.000    0.000    0.000 
#    0.000    0.000    0.000    0.000    0.000    0.000 
#
# Total GULP energy -223603.068885 kJ/mol
# GULP energy per Si atom -5590.076722 kJ/mol
# Density = 2.377498 g / cm^3
# Si number density = 23.829213 Si / 1000 Ang^3
#
#
#
# Elastic Constant Matrix: (Units=GPa)
#
#
# Indices 1 2 3 4 5 6 
#
# 1 96.1855 11.0802 33.7658 0.0000 0.0000 0.0000
# 2 11.0802 156.0588 46.3254 0.0000 0.0000 0.0000
# 3 33.7658 46.3254 57.9265 0.0000 0.0000 0.0000
# 4 0.0000 0.0000 0.0000 28.7105 0.0000 0.0000
# 5 0.0000 0.0000 0.0000 0.0000 19.9099 0.0000
# 6 0.0000 0.0000 0.0000 0.0000 0.0000 40.1659
#
#
#
# Elastic Compliance Matrix: (Units=1/GPa)
#
#
# Indices 1 2 3 4 5 6 
#
# 1 0.013446 0.001799 -0.009276 0.000000 0.000000 0.000000
# 2 0.001799 0.008643 -0.007961 0.000000 0.000000 0.000000
# 3 -0.009276 -0.007961 0.029037 0.000000 0.000000 0.000000
# 4 0.000000 0.000000 0.000000 0.034830 0.000000 0.000000
# 5 0.000000 0.000000 0.000000 0.000000 0.050226 0.000000
# 6 0.000000 0.000000 0.000000 0.000000 0.000000 0.024897
#
#
# Mechanical properties :
#
#
# Convention : Reuss Voigt Hill
#
# Bulk Modulus (GPa) = 49.38373 54.72375 52.05374
# Shear Modulus (GPa) = 25.16281 32.35723 28.76002
#
# Velocity S-wave (km/s) = 3.25309 3.68894 3.47785
# Velocity P-wave (km/s) = 5.90585 6.41554 6.16597
#
# Compressibility (1/GPa) = 0.02024958
#
# Stress axis : x y z
#
# Youngs Moduli (GPa) = 74.37272 115.69698 34.43876
#
# Poissons Ratio (x) = -0.20814 0.31947
# Poissons Ratio (y) = -0.13380 0.27416
# Poissons Ratio (z) = 0.68991 0.92105
#
# Static dielectric constant tensor:
#      x y z
#    x 1.922600 0.000000 0.000000 
#    y 0.000000 1.960600 0.000000 
#    z 0.000000 0.000000 1.862360 
# 
# From -- ./inp_files/5599.got.cif
#   From: 2010.05.17/outbox.cif.g08.bks.cpg/sg61_3_cif.got.tgz:5599.got - 2010.06.03 15:17:17.
