data_PCOD9460214
_publ_section_title
;
Structure prediction by ZEFSAII (Michael W. Deem and Ramdas Pophale) SiO2 
 PCOD9460214
Probable space group: P B C A
;
_chemical_formula_sum "Si O2"
_cell_formula_units_Z 64
_cell_length_a 9.269860
_cell_length_b 12.118129
_cell_length_c 28.272379
_cell_angle_alpha 90.000000
_cell_angle_beta 90.000000
_cell_angle_gamma 90.000000
_cell_volume 3175.931308
_symmetry_space_group_name_H-M "P B C A"
_symmetry_group_IT_number 61
_symmetry_cell_setting 'orthorhombic'
loop_
_space_group_symop_operation_xyz
x,y,z
1/2-x,-y,1/2+z
1/2+x,1/2-y,-z
-x,1/2+y,1/2-z
-x,-y,-z
1/2+x,y,1/2-z
1/2-x,1/2+y,z
x,1/2-y,1/2+z
loop_
_atom_site_type_symbol
_atom_site_label
_atom_site_fract_x
_atom_site_fract_y
_atom_site_fract_z
Si Si1 0.884531 0.044058 0.535940
Si Si2 0.440570 0.250123 0.908680
Si Si3 0.611691 0.301542 0.566389
Si Si4 0.916362 0.883360 0.990172
Si Si5 0.587730 0.563286 0.258880
Si Si6 0.502388 0.756396 0.835541
Si Si7 0.325991 0.249456 0.807502
Si Si8 0.154676 0.582838 0.722914
O O1 0.965864 0.128282 0.570851
O O2 0.748837 0.089404 0.505319
O O3 0.848896 0.930528 0.562158
O O4 0.000000 0.000000 0.500000
O O5 0.271172 0.258131 0.922075
O O6 0.536684 0.338293 0.938088
O O7 0.434571 0.257170 0.851914
O O8 0.551465 0.224586 0.523693
O O9 0.502077 0.285990 0.609631
O O10 0.000000 0.000000 0.000000
O O11 0.543424 0.640889 0.302358
O O12 0.676209 0.636527 0.221347
O O13 0.451282 0.519383 0.230150
O O14 0.684326 0.462525 0.276997
O O15 0.337081 0.723431 0.823525
O O16 0.607188 0.656767 0.821234
O O17 0.368956 0.158079 0.769342
#
# Coordination Sequence:
#
# PCOD9460214 Si02
#       8
#     8   8   8   8   8   8   8   8
#     4  11  22  40  67  90 131 169 209 269 337 386
#     4  10  22  39  66  96 123 169 226 266 320 397
#     4  10  22  41  66  96 126 168 221 267 330 395
#     4  11  22  41  67  95 129 166 219 275 324 393
#     4  11  22  39  66  89 130 169 210 269 331 383
#     4  10  22  40  64  97 126 165 219 269 317 401
#     4  10  22  38  64  96 122 167 226 262 315 396
#     4  11  22  40  64  93 129 168 208 268 332 382
#
# _framework density 20.151568999999999
#
# number of rings (size 3 to 8) (size 9 to 14) (size 15 to 20)
#    0.000    1.500    5.000    0.000    1.750    1.000 
#    0.000    3.750    0.000    0.000    0.000    0.000 
#    0.000    0.000    0.000    0.000    0.000    0.000 
#
# Total GULP energy -356454.431383 kJ/mol
# GULP energy per Si atom -5569.600490 kJ/mol
# Density = 2.010570 g / cm^3
# Si number density = 20.151569 Si / 1000 Ang^3
#
#
#
# Elastic Constant Matrix: (Units=GPa)
#
#
# Indices 1 2 3 4 5 6 
#
# 1 53.5923 9.3513 19.5494 0.0000 0.0000 0.0000
# 2 9.3513 80.9066 26.8054 0.0000 0.0000 0.0000
# 3 19.5494 26.8054 86.9363 0.0000 0.0000 0.0000
# 4 0.0000 0.0000 0.0000 46.0663 0.0000 0.0000
# 5 0.0000 0.0000 0.0000 0.0000 28.9033 0.0000
# 6 0.0000 0.0000 0.0000 0.0000 0.0000 33.4182
#
#
#
# Elastic Compliance Matrix: (Units=1/GPa)
#
#
# Indices 1 2 3 4 5 6 
#
# 1 0.020390 -0.000933 -0.004297 0.000000 0.000000 0.000000
# 2 -0.000933 0.013809 -0.004048 0.000000 0.000000 0.000000
# 3 -0.004297 -0.004048 0.013717 0.000000 0.000000 0.000000
# 4 0.000000 0.000000 0.000000 0.021708 0.000000 0.000000
# 5 0.000000 0.000000 0.000000 0.000000 0.034598 0.000000
# 6 0.000000 0.000000 0.000000 0.000000 0.000000 0.029924
#
#
# Mechanical properties :
#
#
# Convention : Reuss Voigt Hill
#
# Bulk Modulus (GPa) = 34.06076 36.98303 35.52189
# Shear Modulus (GPa) = 30.77139 32.72617 31.74878
#
# Velocity S-wave (km/s) = 3.91192 4.03426 3.97356
# Velocity P-wave (km/s) = 6.11090 6.33187 6.22237
#
# Compressibility (1/GPa) = 0.02935930
#
# Stress axis : x y z
#
# Youngs Moduli (GPa) = 49.04418 72.41707 72.90135
#
# Poissons Ratio (x) = 0.06756 0.31329
# Poissons Ratio (y) = 0.04575 0.29510
# Poissons Ratio (z) = 0.21076 0.29314
#
# Static dielectric constant tensor:
#      x y z
#    x 1.727530 0.000000 0.000000 
#    y 0.000000 1.760230 0.000000 
#    z 0.000000 0.000000 1.730560 
# 
# From -- ./inp_files/11715.got.cif
#   From: 2010.05.17/outbox.cif.g08.bks.cpg/sg61_6_cif.got.tgz:11715.got - 2010.06.03 15:17:17.
