data_PCOD9460667
_publ_section_title
;
Structure prediction by ZEFSAII (Michael W. Deem and Ramdas Pophale) SiO2 
 PCOD9460667
Probable space group: P B C A
;
_chemical_formula_sum "Si O2"
_cell_formula_units_Z 60
_cell_length_a 12.808858
_cell_length_b 9.305233
_cell_length_c 17.821556
_cell_angle_alpha 90.000000
_cell_angle_beta 90.000000
_cell_angle_gamma 90.000000
_cell_volume 2124.140712
_symmetry_space_group_name_H-M "P B C A"
_symmetry_group_IT_number 61
_symmetry_cell_setting 'orthorhombic'
loop_
_space_group_symop_operation_xyz
x,y,z
1/2-x,-y,1/2+z
1/2+x,1/2-y,-z
-x,1/2+y,1/2-z
-x,-y,-z
1/2+x,y,1/2-z
1/2-x,1/2+y,z
x,1/2-y,1/2+z
loop_
_atom_site_type_symbol
_atom_site_label
_atom_site_fract_x
_atom_site_fract_y
_atom_site_fract_z
Si Si1 0.849250 0.549882 0.666482
Si Si2 0.640692 0.275264 0.447933
Si Si3 0.500583 0.253437 0.239394
Si Si4 0.500000 0.000000 0.500000
Si Si5 0.363973 0.191457 0.620298
Si Si6 0.058942 0.892886 0.382322
Si Si7 0.222407 0.705270 0.416742
Si Si8 0.833145 0.956769 0.750420
O O1 0.954764 0.596109 0.705685
O O2 0.787119 0.695188 0.643816
O O3 0.847371 0.441680 0.595672
O O4 0.784715 0.457366 0.725313
O O5 0.750772 0.251634 0.404853
O O6 0.557840 0.386854 0.412213
O O7 0.687864 0.335528 0.525520
O O8 0.575456 0.132021 0.466508
O O9 0.434315 0.197849 0.169172
O O10 0.435534 0.274070 0.314525
O O11 0.603589 0.180985 0.272961
O O12 0.563476 0.882593 0.442771
O O13 0.338688 0.074357 0.685282
O O14 0.139285 0.827100 0.442068
O O15 0.110533 0.015706 0.331667
#
# Coordination Sequence:
#
# PCOD9460667 Si02
#       8
#     8   8   8   4   8   8   8   8
#     4  11  23  46  74 113 153 211 263 335 416 494
#     4  12  27  47  75 114 159 223 275 341 430 514
#     4  11  23  45  78 110 159 207 273 343 418 491
#     4  12  28  50  82 116 172 216 284 352 428 524
#     4  11  27  47  76 115 157 218 279 350 425 506
#     4  10  25  45  71 110 151 202 268 337 411 496
#     4  11  26  45  76 112 160 203 269 332 415 501
#     4  10  23  46  73 113 150 202 268 345 411 502
#
# _framework density 28.246715999999999
#
# number of rings (size 3 to 8) (size 9 to 14) (size 15 to 20)
#    0.000    1.067    1.333    3.200   11.200    1.067 
#    2.400    1.333    0.000    0.000    0.000    0.000 
#    0.000    0.000    0.000    0.000    0.000    0.000 
#
# Total GULP energy -334185.495087 kJ/mol
# GULP energy per Si atom -5569.758251 kJ/mol
# Density = 2.818243 g / cm^3
# Si number density = 28.246716 Si / 1000 Ang^3
#
#
#
# Elastic Constant Matrix: (Units=GPa)
#
#
# Indices 1 2 3 4 5 6 
#
# 1 158.0950 38.1644 47.7245 0.0000 0.0000 0.0000
# 2 38.1644 96.8002 29.4293 0.0000 0.0000 0.0000
# 3 47.7245 29.4293 99.4883 0.0000 0.0000 0.0000
# 4 0.0000 0.0000 0.0000 45.3752 0.0000 0.0000
# 5 0.0000 0.0000 0.0000 0.0000 66.5005 0.0000
# 6 0.0000 0.0000 0.0000 0.0000 0.0000 56.6097
#
#
#
# Elastic Compliance Matrix: (Units=1/GPa)
#
#
# Indices 1 2 3 4 5 6 
#
# 1 0.007774 -0.002122 -0.003101 0.000000 0.000000 0.000000
# 2 -0.002122 0.011931 -0.002511 0.000000 0.000000 0.000000
# 3 -0.003101 -0.002511 0.012282 0.000000 0.000000 0.000000
# 4 0.000000 0.000000 0.000000 0.022038 0.000000 0.000000
# 5 0.000000 0.000000 0.000000 0.000000 0.015037 0.000000
# 6 0.000000 0.000000 0.000000 0.000000 0.000000 0.017665
#
#
# Mechanical properties :
#
#
# Convention : Reuss Voigt Hill
#
# Bulk Modulus (GPa) = 60.54298 65.00221 62.77260
# Shear Modulus (GPa) = 46.42431 49.63477 48.02954
#
# Velocity S-wave (km/s) = 4.05844 4.19643 4.12801
# Velocity P-wave (km/s) = 6.59101 6.82219 6.70760
#
# Compressibility (1/GPa) = 0.01651719
#
# Stress axis : x y z
#
# Youngs Moduli (GPa) = 128.63741 83.81772 81.41990
#
# Poissons Ratio (x) = 0.17786 0.25251
# Poissons Ratio (y) = 0.27297 0.20447
# Poissons Ratio (z) = 0.39895 0.21049
#
# Static dielectric constant tensor:
#      x y z
#    x 1.938720 0.000000 0.000000 
#    y 0.000000 2.297130 0.000000 
#    z 0.000000 0.000000 1.587970 
# 
# From -- ./inp_files/9514.got.cif
#   From: 2010.05.17/outbox.cif.g08.bks.cpg/sg61_5_cif.got.tgz:9514.got - 2010.06.03 15:17:17.
