data_PCOD9460459
_publ_section_title
;
Structure prediction by ZEFSAII (Michael W. Deem and Ramdas Pophale) SiO2 
 PCOD9460459
Probable space group: P B C A
;
_chemical_formula_sum "Si O2"
_cell_formula_units_Z 56
_cell_length_a 11.288081
_cell_length_b 14.790486
_cell_length_c 15.116176
_cell_angle_alpha 90.000000
_cell_angle_beta 90.000000
_cell_angle_gamma 90.000000
_cell_volume 2523.739364
_symmetry_space_group_name_H-M "P B C A"
_symmetry_group_IT_number 61
_symmetry_cell_setting 'orthorhombic'
loop_
_space_group_symop_operation_xyz
x,y,z
1/2-x,-y,1/2+z
1/2+x,1/2-y,-z
-x,1/2+y,1/2-z
-x,-y,-z
1/2+x,y,1/2-z
1/2-x,1/2+y,z
x,1/2-y,1/2+z
loop_
_atom_site_type_symbol
_atom_site_label
_atom_site_fract_x
_atom_site_fract_y
_atom_site_fract_z
Si Si1 0.144042 0.149248 0.694298
Si Si2 0.429315 0.036584 0.127813
Si Si3 0.221003 0.816630 0.689296
Si Si4 0.653382 0.160084 0.604751
Si Si5 0.294371 0.334800 0.888058
Si Si6 0.674880 0.997644 0.061681
Si Si7 0.943846 0.696468 0.420662
O O1 0.266511 0.207514 0.687815
O O2 0.104316 0.165959 0.795649
O O3 0.063624 0.202412 0.621806
O O4 0.143557 0.043525 0.675363
O O5 0.400605 0.135328 0.165105
O O6 0.566014 0.008294 0.129360
O O7 0.383299 0.038973 0.027379
O O8 0.249574 0.848856 0.788066
O O9 0.325637 0.846967 0.622607
O O10 0.758690 0.232761 0.590835
O O11 0.564715 0.185122 0.525803
O O12 0.717099 0.063941 0.593311
O O13 0.227363 0.402506 0.952466
O O14 0.434225 0.346782 0.890335
#
# Coordination Sequence:
#
# PCOD9460459 Si02
#       7
#     8   8   8   8   8   8   8
#     4   9  21  41  66  94 128 176 217 269 331 386
#     4  11  21  42  65  95 137 171 223 269 328 395
#     4   9  22  41  64  93 130 169 220 268 330 388
#     4  11  22  45  62 100 132 171 226 270 325 402
#     4  11  24  42  68  96 133 169 223 270 333 395
#     4  11  24  38  67  97 129 178 220 275 327 390
#     4  10  22  45  65  92 134 171 216 277 327 386
#
# _framework density 22.189295999999999
#
# number of rings (size 3 to 8) (size 9 to 14) (size 15 to 20)
#    0.857    0.857    1.429    2.571    2.000    1.714 
#    2.571    1.429    0.000    0.000    0.000    0.000 
#    0.000    0.000    0.000    0.000    0.000    0.000 
#
# Total GULP energy -312270.963579 kJ/mol
# GULP energy per Si atom -5576.267207 kJ/mol
# Density = 2.213879 g / cm^3
# Si number density = 22.189296 Si / 1000 Ang^3
#
#
#
# Elastic Constant Matrix: (Units=GPa)
#
#
# Indices 1 2 3 4 5 6 
#
# 1 27.3831 20.9344 11.8530 0.0000 0.0000 0.0000
# 2 20.9344 67.0829 22.6014 0.0000 0.0000 0.0000
# 3 11.8530 22.6014 77.6663 0.0000 0.0000 0.0000
# 4 0.0000 0.0000 0.0000 18.4108 0.0000 0.0000
# 5 0.0000 0.0000 0.0000 0.0000 15.1931 0.0000
# 6 0.0000 0.0000 0.0000 0.0000 0.0000 17.9150
#
#
#
# Elastic Compliance Matrix: (Units=1/GPa)
#
#
# Indices 1 2 3 4 5 6 
#
# 1 0.048730 -0.014082 -0.003339 0.000000 0.000000 0.000000
# 2 -0.014082 0.020597 -0.003845 0.000000 0.000000 0.000000
# 3 -0.003339 -0.003845 0.014504 0.000000 0.000000 0.000000
# 4 0.000000 0.000000 0.000000 0.054316 0.000000 0.000000
# 5 0.000000 0.000000 0.000000 0.000000 0.065819 0.000000
# 6 0.000000 0.000000 0.000000 0.000000 0.000000 0.055819
#
#
# Mechanical properties :
#
#
# Convention : Reuss Voigt Hill
#
# Bulk Modulus (GPa) = 24.21343 31.43443 27.82393
# Shear Modulus (GPa) = 15.81863 18.08668 16.95265
#
# Velocity S-wave (km/s) = 2.67290 2.85811 2.76706
# Velocity P-wave (km/s) = 4.52347 5.00889 4.77235
#
# Compressibility (1/GPa) = 0.04129940
#
# Stress axis : x y z
#
# Youngs Moduli (GPa) = 20.52125 48.55120 68.94652
#
# Poissons Ratio (x) = 0.68370 0.23021
# Poissons Ratio (y) = 0.28898 0.26508
# Poissons Ratio (z) = 0.06852 0.18666
#
# Static dielectric constant tensor:
#      x y z
#    x 1.777760 0.000000 0.000000 
#    y 0.000000 1.803550 0.000000 
#    z 0.000000 0.000000 1.863490 
# 
# From -- ./inp_files/7518.got.cif
#   From: 2010.05.17/outbox.cif.g08.bks.cpg/sg61_4_cif.got.tgz:7518.got - 2010.06.03 15:17:17.
