data_PCOD9460732
_publ_section_title
;
Structure prediction by ZEFSAII (Michael W. Deem and Ramdas Pophale) SiO2 
 PCOD9460732
Probable space group: P B C A
;
_chemical_formula_sum "Si O2"
_cell_formula_units_Z 60
_cell_length_a 10.200399
_cell_length_b 29.668968
_cell_length_c 8.695406
_cell_angle_alpha 90.000000
_cell_angle_beta 90.000000
_cell_angle_gamma 90.000000
_cell_volume 2631.536904
_symmetry_space_group_name_H-M "P B C A"
_symmetry_group_IT_number 61
_symmetry_cell_setting 'orthorhombic'
loop_
_space_group_symop_operation_xyz
x,y,z
1/2-x,-y,1/2+z
1/2+x,1/2-y,-z
-x,1/2+y,1/2-z
-x,-y,-z
1/2+x,y,1/2-z
1/2-x,1/2+y,z
x,1/2-y,1/2+z
loop_
_atom_site_type_symbol
_atom_site_label
_atom_site_fract_x
_atom_site_fract_y
_atom_site_fract_z
Si Si1 0.628410 0.815580 0.512326
Si Si2 0.757192 0.035390 0.671022
Si Si3 0.418400 0.810947 0.032367
Si Si4 0.430566 0.103152 0.979352
Si Si5 0.318392 0.952354 0.999177
Si Si6 0.000000 0.000000 0.000000
Si Si7 0.976650 0.254698 0.763271
Si Si8 0.082411 0.592528 0.347161
O O1 0.575234 0.784702 0.374452
O O2 0.627667 0.781366 0.658152
O O3 0.552290 0.860851 0.562723
O O4 0.774236 0.830753 0.468911
O O5 0.804231 0.082722 0.603141
O O6 0.773716 0.034349 0.855154
O O7 0.613421 0.019602 0.620594
O O8 0.849009 0.997692 0.592205
O O9 0.530508 0.846916 0.070945
O O10 0.452891 0.791622 0.866315
O O11 0.424324 0.769280 0.147370
O O12 0.424755 0.099997 0.164489
O O13 0.556302 0.072729 0.936843
O O14 0.232397 0.921280 0.888143
O O15 0.001394 0.950280 0.907689
#
# Coordination Sequence:
#
# PCOD9460732 Si02
#       8
#     8   8   8   8   8   4   8   8
#     4  11  22  45  69  99 141 177 228 288 350 416
#     4  11  26  44  70  98 138 185 230 295 342 415
#     4  11  23  43  70 101 139 176 232 279 348 420
#     4  12  26  43  71 102 138 181 237 287 352 415
#     4  11  26  45  69  98 141 177 239 286 350 413
#     4  10  26  44  68  98 140 184 240 274 354 414
#     4  10  24  43  69 103 136 180 223 286 352 421
#     4  11  25  44  69 100 141 187 230 293 346 423
#
# _framework density 22.800363000000001
#
# number of rings (size 3 to 8) (size 9 to 14) (size 15 to 20)
#    0.000    1.067    2.667    2.800   11.200    0.000 
#    0.000    1.333    0.000    0.000    0.000    0.000 
#    0.000    0.000    0.000    0.000    0.000    0.000 
#
# Total GULP energy -334451.656943 kJ/mol
# GULP energy per Si atom -5574.194282 kJ/mol
# Density = 2.274847 g / cm^3
# Si number density = 22.800363 Si / 1000 Ang^3
#
#
#
# Elastic Constant Matrix: (Units=GPa)
#
#
# Indices 1 2 3 4 5 6 
#
# 1 13.5809 0.8279 -1.1080 0.0000 0.0000 0.0000
# 2 0.8279 101.7403 12.3883 0.0000 0.0000 0.0000
# 3 -1.1080 12.3883 71.3806 0.0000 0.0000 0.0000
# 4 0.0000 0.0000 0.0000 29.4482 0.0000 0.0000
# 5 0.0000 0.0000 0.0000 0.0000 17.2881 0.0000
# 6 0.0000 0.0000 0.0000 0.0000 0.0000 32.9782
#
#
#
# Elastic Compliance Matrix: (Units=1/GPa)
#
#
# Indices 1 2 3 4 5 6 
#
# 1 0.073783 -0.000756 0.001276 0.000000 0.000000 0.000000
# 2 -0.000756 0.010049 -0.001756 0.000000 0.000000 0.000000
# 3 0.001276 -0.001756 0.014334 0.000000 0.000000 0.000000
# 4 0.000000 0.000000 0.000000 0.033958 0.000000 0.000000
# 5 0.000000 0.000000 0.000000 0.000000 0.057843 0.000000
# 6 0.000000 0.000000 0.000000 0.000000 0.000000 0.030323
#
#
# Mechanical properties :
#
#
# Convention : Reuss Voigt Hill
#
# Bulk Modulus (GPa) = 10.44980 23.43535 16.94258
# Shear Modulus (GPa) = 19.63412 27.58248 23.60830
#
# Velocity S-wave (km/s) = 2.93769 3.48190 3.22131
# Velocity P-wave (km/s) = 4.01246 5.14448 4.61332
#
# Compressibility (1/GPa) = 0.09569561
#
# Stress axis : x y z
#
# Youngs Moduli (GPa) = 13.55327 99.51356 69.76446
#
# Poissons Ratio (x) = 0.07521 -0.08905
# Poissons Ratio (y) = 0.01024 0.12249
# Poissons Ratio (z) = -0.01730 0.17472
#
# Static dielectric constant tensor:
#      x y z
#    x 2.043730 0.000000 0.000000 
#    y 0.000000 1.919440 0.000000 
#    z 0.000000 0.000000 1.915150 
# 
# From -- ./inp_files/2406.got.cif
#   From: 2010.05.17/outbox.cif.g08.bks.cpg/sg61_2_cif.got.tgz:2406.got - 2010.06.03 15:17:17.
