data_PCOD9460394
_publ_section_title
;
Structure prediction by ZEFSAII (Michael W. Deem and Ramdas Pophale) SiO2 
 PCOD9460394
Probable space group: P B C A
;
_chemical_formula_sum "Si O2"
_cell_formula_units_Z 48
_cell_length_a 8.248722
_cell_length_b 19.757129
_cell_length_c 10.875781
_cell_angle_alpha 90.000000
_cell_angle_beta 90.000000
_cell_angle_gamma 90.000000
_cell_volume 1772.437608
_symmetry_space_group_name_H-M "P B C A"
_symmetry_group_IT_number 61
_symmetry_cell_setting 'orthorhombic'
loop_
_space_group_symop_operation_xyz
x,y,z
1/2-x,-y,1/2+z
1/2+x,1/2-y,-z
-x,1/2+y,1/2-z
-x,-y,-z
1/2+x,y,1/2-z
1/2-x,1/2+y,z
x,1/2-y,1/2+z
loop_
_atom_site_type_symbol
_atom_site_label
_atom_site_fract_x
_atom_site_fract_y
_atom_site_fract_z
Si Si1 0.395917 0.683030 0.956300
Si Si2 0.827784 0.112580 0.356628
Si Si3 0.658252 0.100357 0.002507
Si Si4 0.146004 0.782184 0.858465
Si Si5 0.121866 0.594201 0.696637
Si Si6 0.313913 0.993168 0.345302
O O1 0.254927 0.716439 0.875755
O O2 0.527320 0.658752 0.856274
O O3 0.321334 0.628028 0.052019
O O4 0.485548 0.729800 0.059138
O O5 0.867518 0.180629 0.273715
O O6 0.800675 0.049975 0.263681
O O7 0.985353 0.097949 0.436770
O O8 0.753721 0.161318 0.066448
O O9 0.759031 0.033681 0.036745
O O10 0.695227 0.103773 0.859563
O O11 0.179473 0.564959 0.825572
O O12 0.992860 0.536870 0.652803
#
# Coordination Sequence:
#
# PCOD9460394 Si02
#       6
#     8   8   8   8   8   8
#     4  11  25  45  74 106 144 192 246 311 365 434
#     4  11  23  43  76 104 141 200 242 297 373 437
#     4  10  22  42  73  97 141 195 242 296 362 427
#     4  10  22  44  68 106 139 187 248 301 362 440
#     4  11  26  44  69 106 149 189 243 302 359 439
#     4  11  23  43  68 108 149 192 240 292 365 438
#
# _framework density 27.081348999999999
#
# number of rings (size 3 to 8) (size 9 to 14) (size 15 to 20)
#    0.000    1.333    1.667    3.500    7.000    2.000 
#   12.000    0.000    0.000    0.000    0.000    0.000 
#    0.000    0.000    0.000    0.000    0.000    0.000 
#
# Total GULP energy -268406.394271 kJ/mol
# GULP energy per Si atom -5591.799881 kJ/mol
# Density = 2.701971 g / cm^3
# Si number density = 27.081349 Si / 1000 Ang^3
#
#
#
# Elastic Constant Matrix: (Units=GPa)
#
#
# Indices 1 2 3 4 5 6 
#
# 1 127.0727 20.6546 43.0174 0.0000 0.0000 0.0000
# 2 20.6546 92.0811 27.4965 0.0000 0.0000 0.0000
# 3 43.0174 27.4965 113.4787 0.0000 0.0000 0.0000
# 4 0.0000 0.0000 0.0000 28.7453 0.0000 0.0000
# 5 0.0000 0.0000 0.0000 0.0000 42.4516 0.0000
# 6 0.0000 0.0000 0.0000 0.0000 0.0000 48.9918
#
#
#
# Elastic Compliance Matrix: (Units=1/GPa)
#
#
# Indices 1 2 3 4 5 6 
#
# 1 0.009129 -0.001093 -0.003196 0.000000 0.000000 0.000000
# 2 -0.001093 0.011838 -0.002454 0.000000 0.000000 0.000000
# 3 -0.003196 -0.002454 0.010618 0.000000 0.000000 0.000000
# 4 0.000000 0.000000 0.000000 0.034788 0.000000 0.000000
# 5 0.000000 0.000000 0.000000 0.000000 0.023556 0.000000
# 6 0.000000 0.000000 0.000000 0.000000 0.000000 0.020412
#
#
# Mechanical properties :
#
#
# Convention : Reuss Voigt Hill
#
# Bulk Modulus (GPa) = 55.25097 57.21882 56.23489
# Shear Modulus (GPa) = 38.50281 40.13534 39.31907
#
# Velocity S-wave (km/s) = 3.77470 3.85389 3.81450
# Velocity P-wave (km/s) = 6.28044 6.40138 6.34120
#
# Compressibility (1/GPa) = 0.01809923
#
# Stress axis : x y z
#
# Youngs Moduli (GPa) = 109.54027 84.47349 94.17754
#
# Poissons Ratio (x) = 0.09237 0.30096
# Poissons Ratio (y) = 0.11978 0.23110
# Poissons Ratio (z) = 0.35006 0.20729
#
# Static dielectric constant tensor:
#      x y z
#    x 2.069340 0.000000 0.000000 
#    y 0.000000 2.221350 0.000000 
#    z 0.000000 0.000000 2.128440 
# 
# From -- ./inp_files/4860.got.cif
#   From: 2010.05.17/outbox.cif.g08.bks.cpg/sg61_3_cif.got.tgz:4860.got - 2010.06.03 15:17:17.
