data_PCOD9460120
_publ_section_title
;
Structure prediction by ZEFSAII (Michael W. Deem and Ramdas Pophale) SiO2 
 PCOD9460120
Probable space group: P B C A
;
_chemical_formula_sum "Si O2"
_cell_formula_units_Z 56
_cell_length_a 6.376535
_cell_length_b 13.333749
_cell_length_c 28.517720
_cell_angle_alpha 90.000000
_cell_angle_beta 90.000000
_cell_angle_gamma 90.000000
_cell_volume 2424.665449
_symmetry_space_group_name_H-M "P B C A"
_symmetry_group_IT_number 61
_symmetry_cell_setting 'orthorhombic'
loop_
_space_group_symop_operation_xyz
x,y,z
1/2-x,-y,1/2+z
1/2+x,1/2-y,-z
-x,1/2+y,1/2-z
-x,-y,-z
1/2+x,y,1/2-z
1/2-x,1/2+y,z
x,1/2-y,1/2+z
loop_
_atom_site_type_symbol
_atom_site_label
_atom_site_fract_x
_atom_site_fract_y
_atom_site_fract_z
Si Si1 0.054420 0.894427 0.368164
Si Si2 0.821844 0.354537 0.994867
Si Si3 0.471900 0.272849 0.729718
Si Si4 0.078143 0.056672 0.805464
Si Si5 0.525330 0.795718 0.573565
Si Si6 0.324561 0.477628 0.705183
Si Si7 0.814764 0.968739 0.553899
O O1 0.288475 0.914027 0.350220
O O2 0.014397 0.781048 0.383350
O O3 0.924570 0.933078 0.324425
O O4 0.030667 0.969117 0.411903
O O5 0.858265 0.266808 0.032098
O O6 0.706850 0.444730 0.022708
O O7 0.697694 0.321189 0.949075
O O8 0.043104 0.400100 0.979285
O O9 0.725115 0.278063 0.747684
O O10 0.473432 0.161999 0.708836
O O11 0.452681 0.375450 0.700265
O O12 0.195161 0.013762 0.759253
O O13 0.909178 0.970214 0.814614
O O14 0.656653 0.896412 0.580914
#
# Coordination Sequence:
#
# PCOD9460120 Si02
#       7
#     8   8   8   8   8   8   8
#     4  11  27  44  67 105 143 182 245 312 360 435
#     4  10  21  42  74 100 137 185 226 281 370 450
#     4  12  24  42  77 104 131 190 253 311 376 441
#     4  12  24  47  71  98 141 191 253 305 373 444
#     4  11  22  43  72 103 141 181 236 290 365 450
#     4  12  24  47  70  97 142 193 246 309 371 445
#     4  10  23  43  68 106 140 179 232 295 352 451
#
# _framework density 23.095970000000001
#
# number of rings (size 3 to 8) (size 9 to 14) (size 15 to 20)
#    0.000    0.857    5.714    0.429    2.000    2.286 
#    5.143    0.000    0.000    0.000    0.000    0.000 
#    0.000    0.000    0.000    0.000    0.000    0.000 
#
# Total GULP energy -312060.202842 kJ/mol
# GULP energy per Si atom -5572.503622 kJ/mol
# Density = 2.304340 g / cm^3
# Si number density = 23.095970 Si / 1000 Ang^3
#
#
#
# Elastic Constant Matrix: (Units=GPa)
#
#
# Indices 1 2 3 4 5 6 
#
# 1 71.6073 12.6266 7.4224 0.0000 0.0000 0.0000
# 2 12.6266 192.9892 -3.4273 0.0000 0.0000 0.0000
# 3 7.4224 -3.4273 38.6729 0.0000 0.0000 0.0000
# 4 0.0000 0.0000 0.0000 -22.1568 0.0000 0.0000
# 5 0.0000 0.0000 0.0000 0.0000 28.2180 0.0000
# 6 0.0000 0.0000 0.0000 0.0000 0.0000 36.5568
#
#
#
# Elastic Compliance Matrix: (Units=1/GPa)
#
#
# Indices 1 2 3 4 5 6 
#
# 1 0.014437 -0.000995 -0.002859 0.000000 0.000000 0.000000
# 2 -0.000995 0.005258 0.000657 0.000000 0.000000 0.000000
# 3 -0.002859 0.000657 0.026465 0.000000 0.000000 0.000000
# 4 0.000000 0.000000 0.000000 -0.045133 0.000000 0.000000
# 5 0.000000 0.000000 0.000000 0.000000 0.035438 0.000000
# 6 0.000000 0.000000 0.000000 0.000000 0.000000 0.027355
#
#
# Mechanical properties :
#
#
# Convention : Reuss Voigt Hill
#
# Bulk Modulus (GPa) = 25.14740 37.39030 31.26885
# Shear Modulus (GPa) = 59.90150 27.63343 43.76746
#
# Velocity S-wave (km/s) = 5.09826 3.46274 4.35791
# Velocity P-wave (km/s) = 6.75042 5.67553 6.23618
#
# Compressibility (1/GPa) = 0.03976555
#
# Stress axis : x y z
#
# Youngs Moduli (GPa) = 69.26682 190.17091 37.78590
#
# Poissons Ratio (x) = 0.18928 0.10803
# Poissons Ratio (y) = 0.06894 -0.02483
# Poissons Ratio (z) = 0.19804 -0.12495
#
# Static dielectric constant tensor:
#      x y z
#    x 2.061150 0.000000 0.000000 
#    y 0.000000 1.866540 0.000000 
#    z 0.000000 0.000000 1.914430 
# 
# From -- ./inp_files/11606.got.cif
#   From: 2010.05.17/outbox.cif.g08.bks.cpg/sg61_6_cif.got.tgz:11606.got - 2010.06.03 15:17:17.
