data_PCOD9460501
_publ_section_title
;
Structure prediction by ZEFSAII (Michael W. Deem and Ramdas Pophale) SiO2 
 PCOD9460501
Probable space group: P B C A
;
_chemical_formula_sum "Si O2"
_cell_formula_units_Z 48
_cell_length_a 11.104352
_cell_length_b 10.277627
_cell_length_c 22.585689
_cell_angle_alpha 90.000000
_cell_angle_beta 90.000000
_cell_angle_gamma 90.000000
_cell_volume 2577.623105
_symmetry_space_group_name_H-M "P B C A"
_symmetry_group_IT_number 61
_symmetry_cell_setting 'orthorhombic'
loop_
_space_group_symop_operation_xyz
x,y,z
1/2-x,-y,1/2+z
1/2+x,1/2-y,-z
-x,1/2+y,1/2-z
-x,-y,-z
1/2+x,y,1/2-z
1/2-x,1/2+y,z
x,1/2-y,1/2+z
loop_
_atom_site_type_symbol
_atom_site_label
_atom_site_fract_x
_atom_site_fract_y
_atom_site_fract_z
Si Si1 0.384249 0.525872 0.579888
Si Si2 0.843551 0.943809 0.554836
Si Si3 0.979284 0.752133 0.842063
Si Si4 0.182102 0.340332 0.250343
Si Si5 0.772898 0.914012 0.814837
Si Si6 0.252517 0.302822 0.379471
O O1 0.326661 0.538579 0.515325
O O2 0.515190 0.461753 0.570285
O O3 0.409699 0.668332 0.607801
O O4 0.305564 0.446962 0.627457
O O5 0.775276 0.059378 0.589169
O O6 0.801923 0.803756 0.577038
O O7 0.947569 0.672453 0.781959
O O8 0.117651 0.750835 0.857723
O O9 0.912068 0.889536 0.833543
O O10 0.246370 0.472911 0.231799
O O11 0.176464 0.320294 0.319799
O O12 0.253894 0.222460 0.217915
#
# Coordination Sequence:
#
# PCOD9460501 Si02
#       6
#     8   8   8   8   8   8
#     4   9  19  41  59  79 114 158 195 228 302 342
#     4  10  23  36  60  83 118 154 188 246 287 348
#     4   8  20  37  58  78 117 146 191 241 278 344
#     4   9  19  35  55  82 112 147 187 231 290 338
#     4   9  18  37  59  82 106 156 188 238 278 346
#     4  11  21  40  54  89 117 149 192 242 291 348
#
# _framework density 18.621808000000001
#
# number of rings (size 3 to 8) (size 9 to 14) (size 15 to 20)
#    1.000    1.667    0.000    1.000    2.333    1.333 
#   12.000    0.833    0.000    0.000    0.000    0.000 
#    0.000    0.000    0.000    0.000    0.000    0.000 
#
# Total GULP energy -267369.036637 kJ/mol
# GULP energy per Si atom -5570.188263 kJ/mol
# Density = 1.857942 g / cm^3
# Si number density = 18.621808 Si / 1000 Ang^3
#
#
#
# Elastic Constant Matrix: (Units=GPa)
#
#
# Indices 1 2 3 4 5 6 
#
# 1 7.7557 1.5424 6.6299 0.0000 0.0000 0.0000
# 2 1.5424 33.9821 -7.0479 0.0000 0.0000 0.0000
# 3 6.6299 -7.0479 100.6034 0.0000 0.0000 0.0000
# 4 0.0000 0.0000 0.0000 -2.6790 0.0000 0.0000
# 5 0.0000 0.0000 0.0000 0.0000 18.2671 0.0000
# 6 0.0000 0.0000 0.0000 0.0000 0.0000 17.9005
#
#
#
# Elastic Compliance Matrix: (Units=1/GPa)
#
#
# Indices 1 2 3 4 5 6 
#
# 1 0.138918 -0.008325 -0.009738 0.000000 0.000000 0.000000
# 2 -0.008325 0.030360 0.002676 0.000000 0.000000 0.000000
# 3 -0.009738 0.002676 0.010769 0.000000 0.000000 0.000000
# 4 0.000000 0.000000 0.000000 -0.373269 0.000000 0.000000
# 5 0.000000 0.000000 0.000000 0.000000 0.054743 0.000000
# 6 0.000000 0.000000 0.000000 0.000000 0.000000 0.055865
#
#
# Mechanical properties :
#
#
# Convention : Reuss Voigt Hill
#
# Bulk Modulus (GPa) = 6.69918 16.06555 11.38237
# Shear Modulus (GPa) = -2402.72674 16.11215 -1193.30730
#
# Velocity S-wave (km/s) = -35.95938 2.94467 -25.34172
# Velocity P-wave (km/s) = 41.47888 4.49527 29.15724
#
# Compressibility (1/GPa) = 0.14927203
#
# Stress axis : x y z
#
# Youngs Moduli (GPa) = 7.19849 32.93801 92.85718
#
# Poissons Ratio (x) = 0.27421 0.90426
# Poissons Ratio (y) = 0.05993 -0.24844
# Poissons Ratio (z) = 0.07010 -0.08813
#
# Static dielectric constant tensor:
#      x y z
#    x 1.657280 0.000000 0.000000 
#    y 0.000000 1.627610 0.000000 
#    z 0.000000 0.000000 1.641420 
# 
# From -- ./inp_files/10279.got.cif
#   From: 2010.05.17/outbox.cif.g08.bks.cpg/sg61_6_cif.got.tgz:10279.got - 2010.06.03 15:17:17.
