data_PCOD9460424
_publ_section_title
;
Structure prediction by ZEFSAII (Michael W. Deem and Ramdas Pophale) SiO2 
 PCOD9460424
Probable space group: P B C A
;
_chemical_formula_sum "Si O2"
_cell_formula_units_Z 32
_cell_length_a 11.420603
_cell_length_b 8.307305
_cell_length_c 13.091494
_cell_angle_alpha 90.000000
_cell_angle_beta 90.000000
_cell_angle_gamma 90.000000
_cell_volume 1242.048063
_symmetry_space_group_name_H-M "P B C A"
_symmetry_group_IT_number 61
_symmetry_cell_setting 'orthorhombic'
loop_
_space_group_symop_operation_xyz
x,y,z
1/2-x,-y,1/2+z
1/2+x,1/2-y,-z
-x,1/2+y,1/2-z
-x,-y,-z
1/2+x,y,1/2-z
1/2-x,1/2+y,z
x,1/2-y,1/2+z
loop_
_atom_site_type_symbol
_atom_site_label
_atom_site_fract_x
_atom_site_fract_y
_atom_site_fract_z
Si Si1 0.175606 0.411862 0.161612
Si Si2 0.420298 0.668200 0.864162
Si Si3 0.644098 0.731170 0.461678
Si Si4 0.810418 0.478962 0.141056
O O1 0.076409 0.353784 0.240856
O O2 0.230373 0.299509 0.074866
O O3 0.132763 0.572176 0.108812
O O4 0.284405 0.443054 0.240282
O O5 0.538434 0.657700 0.925822
O O6 0.366553 0.848111 0.873279
O O7 0.324330 0.536576 0.899988
O O8 0.630831 0.662329 0.575684
#
# Coordination Sequence:
#
# PCOD9460424 Si02
#       4
#     8   8   8   8
#     4  10  23  41  63  98 132 157 228 259 304 406
#     4  10  23  43  64  93 132 169 211 270 316 379
#     4  12  23  42  71  89 131 182 198 270 340 355
#     4  10  22  44  60  98 132 157 226 263 298 404
#
# _framework density 25.763898000000001
#
# number of rings (size 3 to 8) (size 9 to 14) (size 15 to 20)
#    1.500    0.000    2.500    2.250    3.500    0.000 
#    0.000    5.000    0.000    0.000    0.000    0.000 
#    0.000    0.000    0.000    0.000    0.000    0.000 
#
# Total GULP energy -178797.787671 kJ/mol
# GULP energy per Si atom -5587.430865 kJ/mol
# Density = 2.570526 g / cm^3
# Si number density = 25.763898 Si / 1000 Ang^3
#
#
#
# Elastic Constant Matrix: (Units=GPa)
#
#
# Indices 1 2 3 4 5 6 
#
# 1 52.4219 7.6003 26.5712 0.0000 0.0000 0.0000
# 2 7.6003 56.5765 11.8167 0.0000 0.0000 0.0000
# 3 26.5712 11.8167 108.9668 0.0000 0.0000 0.0000
# 4 0.0000 0.0000 0.0000 33.9522 0.0000 0.0000
# 5 0.0000 0.0000 0.0000 0.0000 34.3868 0.0000
# 6 0.0000 0.0000 0.0000 0.0000 0.0000 32.1325
#
#
#
# Elastic Compliance Matrix: (Units=1/GPa)
#
#
# Indices 1 2 3 4 5 6 
#
# 1 0.021959 -0.001874 -0.005151 0.000000 0.000000 0.000000
# 2 -0.001874 0.018245 -0.001522 0.000000 0.000000 0.000000
# 3 -0.005151 -0.001522 0.010598 0.000000 0.000000 0.000000
# 4 0.000000 0.000000 0.000000 0.029453 0.000000 0.000000
# 5 0.000000 0.000000 0.000000 0.000000 0.029081 0.000000
# 6 0.000000 0.000000 0.000000 0.000000 0.000000 0.031121
#
#
# Mechanical properties :
#
#
# Convention : Reuss Voigt Hill
#
# Bulk Modulus (GPa) = 29.66654 34.43796 32.05225
# Shear Modulus (GPa) = 29.62318 31.55942 30.59130
#
# Velocity S-wave (km/s) = 3.39454 3.50372 3.44956
# Velocity P-wave (km/s) = 5.18687 5.45563 5.32295
#
# Compressibility (1/GPa) = 0.03370801
#
# Stress axis : x y z
#
# Youngs Moduli (GPa) = 45.53994 54.81036 94.35522
#
# Poissons Ratio (x) = 0.10271 0.48606
# Poissons Ratio (y) = 0.08534 0.14357
# Poissons Ratio (z) = 0.23459 0.08340
#
# Static dielectric constant tensor:
#      x y z
#    x 2.125080 0.000000 0.000000 
#    y 0.000000 1.976690 0.000000 
#    z 0.000000 0.000000 2.056030 
# 
# From -- ./inp_files/2507.got.cif
#   From: 2010.05.17/outbox.cif.g08.bks.cpg/sg61_2_cif.got.tgz:2507.got - 2010.06.03 15:17:17.
