data_PCOD9460284
_publ_section_title
;
Structure prediction by ZEFSAII (Michael W. Deem and Ramdas Pophale) SiO2 
 PCOD9460284
Probable space group: P B C A
;
_chemical_formula_sum "Si O2"
_cell_formula_units_Z 64
_cell_length_a 16.860537
_cell_length_b 18.902349
_cell_length_c 8.588760
_cell_angle_alpha 90.000000
_cell_angle_beta 90.000000
_cell_angle_gamma 90.000000
_cell_volume 2737.270060
_symmetry_space_group_name_H-M "P B C A"
_symmetry_group_IT_number 61
_symmetry_cell_setting 'orthorhombic'
loop_
_space_group_symop_operation_xyz
x,y,z
1/2-x,-y,1/2+z
1/2+x,1/2-y,-z
-x,1/2+y,1/2-z
-x,-y,-z
1/2+x,y,1/2-z
1/2-x,1/2+y,z
x,1/2-y,1/2+z
loop_
_atom_site_type_symbol
_atom_site_label
_atom_site_fract_x
_atom_site_fract_y
_atom_site_fract_z
Si Si1 0.090672 0.491646 0.333662
Si Si2 0.750064 0.413026 0.257102
Si Si3 0.750789 0.838305 0.932083
Si Si4 0.422585 0.369994 0.647514
Si Si5 0.339819 0.693035 0.560465
Si Si6 0.436958 0.781462 0.755555
Si Si7 0.929628 0.455284 0.175677
Si Si8 0.889293 0.578322 0.342760
O O1 0.179636 0.469771 0.277772
O O2 0.076673 0.573179 0.288014
O O3 0.088735 0.472528 0.515344
O O4 0.016546 0.449321 0.255097
O O5 0.715486 0.373581 0.407685
O O6 0.843864 0.432588 0.253460
O O7 0.743634 0.357758 0.113987
O O8 0.663561 0.838406 0.869973
O O9 0.788087 0.762376 0.907395
O O10 0.797341 0.902729 0.850104
O O11 0.479994 0.302968 0.669636
O O12 0.434366 0.417148 0.490521
O O13 0.414170 0.707079 0.679033
O O14 0.374001 0.699268 0.388939
O O15 0.427408 0.844624 0.629023
O O16 0.915655 0.540706 0.183668
#
# Coordination Sequence:
#
# PCOD9460284 Si02
#       8
#     8   8   8   8   8   8   8   8
#     4  11  22  41  67  97 142 165 210 276 339 398
#     4  10  22  40  65  95 128 176 215 266 336 387
#     4   9  21  43  61  89 133 167 225 270 315 395
#     4  11  23  41  65 101 129 168 218 280 330 396
#     4  11  22  46  64  89 124 180 227 270 325 388
#     4  11  24  43  69  89 129 174 225 272 331 387
#     4  11  22  39  65  98 136 167 218 265 331 408
#     4  10  22  41  63  97 132 175 207 266 337 399
#
# _framework density 23.380960000000002
#
# number of rings (size 3 to 8) (size 9 to 14) (size 15 to 20)
#    0.000    1.500    2.500    2.250    1.750    0.000 
#   11.250    0.000    0.000    0.000    0.000    0.000 
#    0.000    0.000    0.000    0.000    0.000    0.000 
#
# Total GULP energy -356914.628344 kJ/mol
# GULP energy per Si atom -5576.791068 kJ/mol
# Density = 2.332774 g / cm^3
# Si number density = 23.380960 Si / 1000 Ang^3
#
#
#
# Elastic Constant Matrix: (Units=GPa)
#
#
# Indices 1 2 3 4 5 6 
#
# 1 139.2912 19.2868 32.3926 0.0000 0.0000 0.0000
# 2 19.2868 43.8923 1.8915 0.0000 0.0000 0.0000
# 3 32.3926 1.8915 59.9006 0.0000 0.0000 0.0000
# 4 0.0000 0.0000 0.0000 19.2819 0.0000 0.0000
# 5 0.0000 0.0000 0.0000 0.0000 27.6334 0.0000
# 6 0.0000 0.0000 0.0000 0.0000 0.0000 35.9932
#
#
#
# Elastic Compliance Matrix: (Units=1/GPa)
#
#
# Indices 1 2 3 4 5 6 
#
# 1 0.008759 -0.003650 -0.004622 0.000000 0.000000 0.000000
# 2 -0.003650 0.024335 0.001205 0.000000 0.000000 0.000000
# 3 -0.004622 0.001205 0.019155 0.000000 0.000000 0.000000
# 4 0.000000 0.000000 0.000000 0.051862 0.000000 0.000000
# 5 0.000000 0.000000 0.000000 0.000000 0.036188 0.000000
# 6 0.000000 0.000000 0.000000 0.000000 0.000000 0.027783
#
#
# Mechanical properties :
#
#
# Convention : Reuss Voigt Hill
#
# Bulk Modulus (GPa) = 26.23465 38.91398 32.57432
# Shear Modulus (GPa) = 25.65146 29.21593 27.43369
#
# Velocity S-wave (km/s) = 3.31586 3.53875 3.42911
# Velocity P-wave (km/s) = 5.08967 5.77724 5.44432
#
# Compressibility (1/GPa) = 0.03811753
#
# Stress axis : x y z
#
# Youngs Moduli (GPa) = 114.16404 41.09335 52.20439
#
# Poissons Ratio (x) = 0.14998 0.24127
# Poissons Ratio (y) = 0.41667 -0.06292
# Poissons Ratio (z) = 0.52762 -0.04953
#
# Static dielectric constant tensor:
#      x y z
#    x 1.964180 0.000000 0.000000 
#    y 0.000000 1.887020 0.000000 
#    z 0.000000 0.000000 1.920670 
# 
# From -- ./inp_files/3209.got.cif
#   From: 2010.05.17/outbox.cif.g08.bks.cpg/sg61_2_cif.got.tgz:3209.got - 2010.06.03 15:17:17.
