data_PCOD9460521
_publ_section_title
;
Structure prediction by ZEFSAII (Michael W. Deem and Ramdas Pophale) SiO2 
 PCOD9460521
Probable space group: P B C A
;
_chemical_formula_sum "Si O2"
_cell_formula_units_Z 32
_cell_length_a 7.344371
_cell_length_b 12.691689
_cell_length_c 15.133693
_cell_angle_alpha 90.000000
_cell_angle_beta 90.000000
_cell_angle_gamma 90.000000
_cell_volume 1410.648945
_symmetry_space_group_name_H-M "P B C A"
_symmetry_group_IT_number 61
_symmetry_cell_setting 'orthorhombic'
loop_
_space_group_symop_operation_xyz
x,y,z
1/2-x,-y,1/2+z
1/2+x,1/2-y,-z
-x,1/2+y,1/2-z
-x,-y,-z
1/2+x,y,1/2-z
1/2-x,1/2+y,z
x,1/2-y,1/2+z
loop_
_atom_site_type_symbol
_atom_site_label
_atom_site_fract_x
_atom_site_fract_y
_atom_site_fract_z
Si Si1 0.801130 0.885462 0.542697
Si Si2 0.892186 0.238200 0.907599
Si Si3 0.914509 0.618373 0.851529
Si Si4 0.821554 0.929719 0.163644
O O1 0.670844 0.791291 0.507254
O O2 0.979141 0.838532 0.590107
O O3 0.862735 0.930503 0.446719
O O4 0.699278 0.967245 0.603987
O O5 0.017398 0.143452 0.871716
O O6 0.704665 0.226619 0.852661
O O7 0.854686 0.550997 0.767124
O O8 0.128973 0.629707 0.844419
#
# Coordination Sequence:
#
# PCOD9460521 Si02
#       4
#     8   8   8   8
#     4  10  23  43  71  97 138 182 226 280 341 409
#     4  10  23  43  64 102 134 182 226 282 335 400
#     4  10  23  40  66  95 138 174 224 285 326 410
#     4  12  21  46  65 100 140 177 226 285 344 397
#
# _framework density 22.684594000000001
#
# number of rings (size 3 to 8) (size 9 to 14) (size 15 to 20)
#    1.500    0.000    2.500    3.000    0.000    0.000 
#    4.500    0.000    0.000    0.000    0.000    0.000 
#    0.000    0.000    0.000    0.000    0.000    0.000 
#
# Total GULP energy -178444.629263 kJ/mol
# GULP energy per Si atom -5576.394664 kJ/mol
# Density = 2.263296 g / cm^3
# Si number density = 22.684594 Si / 1000 Ang^3
#
#
#
# Elastic Constant Matrix: (Units=GPa)
#
#
# Indices 1 2 3 4 5 6 
#
# 1 78.4866 -9.7212 -13.3421 0.0000 0.0000 0.0000
# 2 -9.7212 25.1327 1.2124 0.0000 0.0000 0.0000
# 3 -13.3421 1.2124 92.6159 0.0000 0.0000 0.0000
# 4 0.0000 0.0000 0.0000 17.8158 0.0000 0.0000
# 5 0.0000 0.0000 0.0000 0.0000 3.2422 0.0000
# 6 0.0000 0.0000 0.0000 0.0000 0.0000 12.2200
#
#
#
# Elastic Compliance Matrix: (Units=1/GPa)
#
#
# Indices 1 2 3 4 5 6 
#
# 1 0.013711 0.005211 0.001907 0.000000 0.000000 0.000000
# 2 0.005211 0.041795 0.000204 0.000000 0.000000 0.000000
# 3 0.001907 0.000204 0.011069 0.000000 0.000000 0.000000
# 4 0.000000 0.000000 0.000000 0.056130 0.000000 0.000000
# 5 0.000000 0.000000 0.000000 0.000000 0.308437 0.000000
# 6 0.000000 0.000000 0.000000 0.000000 0.000000 0.081833
#
#
# Mechanical properties :
#
#
# Convention : Reuss Voigt Hill
#
# Bulk Modulus (GPa) = 12.31251 16.94815 14.63033
# Shear Modulus (GPa) = 9.51649 21.19466 15.35558
#
# Velocity S-wave (km/s) = 2.05042 3.05998 2.60458
# Velocity P-wave (km/s) = 3.32342 4.46901 3.93810
#
# Compressibility (1/GPa) = 0.08121819
#
# Stress axis : x y z
#
# Youngs Moduli (GPa) = 72.93601 23.92649 90.33980
#
# Poissons Ratio (x) = -0.12469 -0.17227
# Poissons Ratio (y) = -0.38009 -0.01840
# Poissons Ratio (z) = -0.13908 -0.00487
#
# Static dielectric constant tensor:
#      x y z
#    x 1.855620 0.000000 0.000000 
#    y 0.000000 1.889930 0.000000 
#    z 0.000000 0.000000 1.850270 
# 
# From -- ./inp_files/2567.got.cif
#   From: 2010.05.17/outbox.cif.g08.bks.cpg/sg61_2_cif.got.tgz:2567.got - 2010.06.03 15:17:17.
