data_PCOD9460313
_publ_section_title
;
Structure prediction by ZEFSAII (Michael W. Deem and Ramdas Pophale) SiO2 
 PCOD9460313
Probable space group: P B C A
;
_chemical_formula_sum "Si O2"
_cell_formula_units_Z 48
_cell_length_a 28.237247
_cell_length_b 8.820781
_cell_length_c 8.296925
_cell_angle_alpha 90.000000
_cell_angle_beta 90.000000
_cell_angle_gamma 90.000000
_cell_volume 2066.553042
_symmetry_space_group_name_H-M "P B C A"
_symmetry_group_IT_number 61
_symmetry_cell_setting 'orthorhombic'
loop_
_space_group_symop_operation_xyz
x,y,z
1/2-x,-y,1/2+z
1/2+x,1/2-y,-z
-x,1/2+y,1/2-z
-x,-y,-z
1/2+x,y,1/2-z
1/2-x,1/2+y,z
x,1/2-y,1/2+z
loop_
_atom_site_type_symbol
_atom_site_label
_atom_site_fract_x
_atom_site_fract_y
_atom_site_fract_z
Si Si1 0.220294 0.143073 0.525965
Si Si2 0.461952 0.934092 0.198202
Si Si3 0.987736 0.248083 0.424952
Si Si4 0.384130 0.135612 0.538723
Si Si5 0.302865 0.962280 0.664368
Si Si6 0.636683 0.539839 0.326747
O O1 0.212747 0.087701 0.342952
O O2 0.207902 0.318835 0.549875
O O3 0.271795 0.100802 0.594152
O O4 0.184159 0.047961 0.636183
O O5 0.469170 0.851474 0.366863
O O6 0.476728 0.109412 0.197611
O O7 0.408631 0.934733 0.133593
O O8 0.497594 0.843898 0.082883
O O9 0.940342 0.347512 0.437199
O O10 0.370747 0.085394 0.358947
O O11 0.365994 0.306026 0.571677
O O12 0.356991 0.019202 0.656019
#
# Coordination Sequence:
#
# PCOD9460313 Si02
#       6
#     8   8   8   8   8   8
#     4  12  26  46  70 104 138 177 225 275 336 405
#     4  10  23  40  63  93 130 174 222 278 335 399
#     4  10  22  41  63  92 129 172 223 276 336 399
#     4  11  23  43  68  96 133 181 227 282 342 402
#     4  12  26  46  72 100 139 178 222 276 336 403
#     4  11  24  42  66  97 133 176 229 280 341 405
#
# _framework density 23.227084999999999
#
# number of rings (size 3 to 8) (size 9 to 14) (size 15 to 20)
#    0.000    1.000    0.000    7.000    0.000    9.333 
#    0.000    0.000    0.000    0.000    0.000    0.000 
#    0.000    0.000    0.000    0.000    0.000    0.000 
#
# Total GULP energy -268728.640252 kJ/mol
# GULP energy per Si atom -5598.513339 kJ/mol
# Density = 2.317422 g / cm^3
# Si number density = 23.227085 Si / 1000 Ang^3
#
#
#
# Elastic Constant Matrix: (Units=GPa)
#
#
# Indices 1 2 3 4 5 6 
#
# 1 84.7116 36.6598 31.5136 0.0000 0.0000 0.0000
# 2 36.6598 74.5674 33.2510 0.0000 0.0000 0.0000
# 3 31.5136 33.2510 74.6904 0.0000 0.0000 0.0000
# 4 0.0000 0.0000 0.0000 32.0569 0.0000 0.0000
# 5 0.0000 0.0000 0.0000 0.0000 33.6542 0.0000
# 6 0.0000 0.0000 0.0000 0.0000 0.0000 37.8160
#
#
#
# Elastic Compliance Matrix: (Units=1/GPa)
#
#
# Indices 1 2 3 4 5 6 
#
# 1 0.015912 -0.006025 -0.004031 0.000000 0.000000 0.000000
# 2 -0.006025 0.019014 -0.005922 0.000000 0.000000 0.000000
# 3 -0.004031 -0.005922 0.017726 0.000000 0.000000 0.000000
# 4 0.000000 0.000000 0.000000 0.031195 0.000000 0.000000
# 5 0.000000 0.000000 0.000000 0.000000 0.029714 0.000000
# 6 0.000000 0.000000 0.000000 0.000000 0.000000 0.026444
#
#
# Mechanical properties :
#
#
# Convention : Reuss Voigt Hill
#
# Bulk Modulus (GPa) = 48.32342 48.53534 48.42938
# Shear Modulus (GPa) = 27.95481 29.54175 28.74828
#
# Velocity S-wave (km/s) = 3.47298 3.57019 3.52192
# Velocity P-wave (km/s) = 6.07717 6.15925 6.11835
#
# Compressibility (1/GPa) = 0.02069390
#
# Stress axis : x y z
#
# Youngs Moduli (GPa) = 62.84601 52.59330 56.41400
#
# Poissons Ratio (x) = 0.31689 0.22742
# Poissons Ratio (y) = 0.37866 0.33411
# Poissons Ratio (z) = 0.25335 0.31148
#
# Static dielectric constant tensor:
#      x y z
#    x 1.868540 0.000000 0.000000 
#    y 0.000000 1.827140 0.000000 
#    z 0.000000 0.000000 1.894880 
# 
# From -- ./inp_files/4572.got.cif
#   From: 2010.05.17/outbox.cif.g08.bks.cpg/sg61_3_cif.got.tgz:4572.got - 2010.06.03 15:17:17.
