data_PCOD9460364
_publ_section_title
;
Structure prediction by ZEFSAII (Michael W. Deem and Ramdas Pophale) SiO2 
 PCOD9460364
Probable space group: P B C A
;
_chemical_formula_sum "Si O2"
_cell_formula_units_Z 56
_cell_length_a 5.157553
_cell_length_b 14.130813
_cell_length_c 32.186120
_cell_angle_alpha 90.000000
_cell_angle_beta 90.000000
_cell_angle_gamma 90.000000
_cell_volume 2345.737847
_symmetry_space_group_name_H-M "P B C A"
_symmetry_group_IT_number 61
_symmetry_cell_setting 'orthorhombic'
loop_
_space_group_symop_operation_xyz
x,y,z
1/2-x,-y,1/2+z
1/2+x,1/2-y,-z
-x,1/2+y,1/2-z
-x,-y,-z
1/2+x,y,1/2-z
1/2-x,1/2+y,z
x,1/2-y,1/2+z
loop_
_atom_site_type_symbol
_atom_site_label
_atom_site_fract_x
_atom_site_fract_y
_atom_site_fract_z
Si Si1 0.768372 0.823055 0.354799
Si Si2 0.627191 0.372748 0.507414
Si Si3 0.514198 0.249119 0.270178
Si Si4 0.820644 0.960435 0.048723
Si Si5 0.063858 0.974022 0.771264
Si Si6 0.648274 0.736598 0.942368
Si Si7 0.734010 0.053013 0.642787
O O1 0.857037 0.765674 0.314674
O O2 0.787465 0.767091 0.398214
O O3 0.475105 0.861421 0.353113
O O4 0.973349 0.908795 0.356275
O O5 0.445462 0.426690 0.473795
O O6 0.859036 0.441191 0.523008
O O7 0.672086 0.275580 0.482399
O O8 0.498715 0.334041 0.549635
O O9 0.224574 0.287428 0.262935
O O10 0.472527 0.137569 0.264477
O O11 0.801534 0.989846 0.097026
O O12 0.991973 0.864145 0.053026
O O13 0.278750 0.012711 0.739087
O O14 0.168388 0.989812 0.817486
#
# Coordination Sequence:
#
# PCOD9460364 Si02
#       7
#     8   8   8   8   8   8   8
#     4  11  24  41  67  98 136 170 221 285 331 401
#     4  11  21  42  66  92 129 183 222 280 356 409
#     4  10  22  43  65  95 132 171 217 268 332 405
#     4  10  23  41  63  94 133 173 230 286 337 417
#     4  10  22  42  65  93 133 174 219 270 330 409
#     4  11  22  42  65  97 135 174 232 286 346 416
#     4  11  23  43  63  99 134 169 223 279 333 398
#
# _framework density 23.873083999999999
#
# number of rings (size 3 to 8) (size 9 to 14) (size 15 to 20)
#    0.000    1.429    2.857    2.143    0.000    3.429 
#   18.000    0.000    0.000    0.000    0.000    0.000 
#    0.000    0.000    0.000    0.000    0.000    0.000 
#
# Total GULP energy -312295.649068 kJ/mol
# GULP energy per Si atom -5576.708019 kJ/mol
# Density = 2.381875 g / cm^3
# Si number density = 23.873084 Si / 1000 Ang^3
#
#
#
# Elastic Constant Matrix: (Units=GPa)
#
#
# Indices 1 2 3 4 5 6 
#
# 1 36.1530 11.7237 55.8665 0.0000 0.0000 0.0000
# 2 11.7237 44.9347 24.9951 0.0000 0.0000 0.0000
# 3 55.8665 24.9951 156.7645 0.0000 0.0000 0.0000
# 4 0.0000 0.0000 0.0000 33.5530 0.0000 0.0000
# 5 0.0000 0.0000 0.0000 0.0000 28.5280 0.0000
# 6 0.0000 0.0000 0.0000 0.0000 0.0000 76.0428
#
#
#
# Elastic Compliance Matrix: (Units=1/GPa)
#
#
# Indices 1 2 3 4 5 6 
#
# 1 0.062305 -0.004285 -0.021521 0.000000 0.000000 0.000000
# 2 -0.004285 0.024715 -0.002414 0.000000 0.000000 0.000000
# 3 -0.021521 -0.002414 0.014433 0.000000 0.000000 0.000000
# 4 0.000000 0.000000 0.000000 0.029804 0.000000 0.000000
# 5 0.000000 0.000000 0.000000 0.000000 0.035053 0.000000
# 6 0.000000 0.000000 0.000000 0.000000 0.000000 0.013150
#
#
# Mechanical properties :
#
#
# Convention : Reuss Voigt Hill
#
# Bulk Modulus (GPa) = 22.21467 47.00253 34.60860
# Shear Modulus (GPa) = 19.92792 37.30924 28.61858
#
# Velocity S-wave (km/s) = 2.89233 3.95754 3.46610
# Velocity P-wave (km/s) = 4.52544 6.37291 5.52692
#
# Compressibility (1/GPa) = 0.04501529
#
# Stress axis : x y z
#
# Youngs Moduli (GPa) = 16.05000 40.46118 69.28457
#
# Poissons Ratio (x) = 0.17337 1.49105
# Poissons Ratio (y) = 0.06877 0.16723
# Poissons Ratio (z) = 0.34541 0.09766
#
# Static dielectric constant tensor:
#      x y z
#    x 2.040980 0.000000 0.000000 
#    y 0.000000 1.925530 0.000000 
#    z 0.000000 0.000000 1.929460 
# 
# From -- ./inp_files/11593.got.cif
#   From: 2010.05.17/outbox.cif.g08.bks.cpg/sg61_6_cif.got.tgz:11593.got - 2010.06.03 15:17:17.
