data_PCOD9460573
_publ_section_title
;
Structure prediction by ZEFSAII (Michael W. Deem and Ramdas Pophale) SiO2 
 PCOD9460573
Probable space group: P B C A
;
_chemical_formula_sum "Si O2"
_cell_formula_units_Z 60
_cell_length_a 16.438063
_cell_length_b 16.562062
_cell_length_c 8.484884
_cell_angle_alpha 90.000000
_cell_angle_beta 90.000000
_cell_angle_gamma 90.000000
_cell_volume 2309.994554
_symmetry_space_group_name_H-M "P B C A"
_symmetry_group_IT_number 61
_symmetry_cell_setting 'orthorhombic'
loop_
_space_group_symop_operation_xyz
x,y,z
1/2-x,-y,1/2+z
1/2+x,1/2-y,-z
-x,1/2+y,1/2-z
-x,-y,-z
1/2+x,y,1/2-z
1/2-x,1/2+y,z
x,1/2-y,1/2+z
loop_
_atom_site_type_symbol
_atom_site_label
_atom_site_fract_x
_atom_site_fract_y
_atom_site_fract_z
Si Si1 0.649834 0.358610 0.421290
Si Si2 0.500000 0.500000 0.000000
Si Si3 0.622364 0.909358 0.275270
Si Si4 0.207421 0.441122 0.369781
Si Si5 0.296173 0.818128 0.650533
Si Si6 0.697113 0.615694 0.083120
Si Si7 0.978614 0.833307 0.834639
Si Si8 0.974894 0.167811 0.501680
O O1 0.656089 0.380241 0.238030
O O2 0.688907 0.268010 0.434884
O O3 0.714770 0.411288 0.515380
O O4 0.559134 0.379235 0.468984
O O5 0.445841 0.468878 0.159300
O O6 0.484517 0.591907 0.051980
O O7 0.706738 0.949867 0.219393
O O8 0.648309 0.855295 0.429146
O O9 0.592384 0.862503 0.121608
O O10 0.216048 0.393393 0.532900
O O11 0.160156 0.527032 0.375234
O O12 0.222666 0.825534 0.775665
O O13 0.385814 0.826750 0.728228
O O14 0.999035 0.755877 0.938827
O O15 0.038427 0.836730 0.684799
#
# Coordination Sequence:
#
# PCOD9460573 Si02
#       8
#     8   4   8   8   8   8   8   8
#     4  10  23  42  74 104 139 198 251 315 364 465
#     4  12  26  50  70 112 152 194 250 306 392 456
#     4  11  28  46  70 113 154 201 247 325 388 458
#     4  11  24  44  71 104 151 193 252 312 383 454
#     4  11  22  43  77 105 140 194 261 307 371 457
#     4  11  22  46  68 106 144 194 251 312 384 443
#     4  11  25  47  80 109 146 209 250 313 377 468
#     4  11  25  49  76 110 153 200 260 306 391 465
#
# _framework density 25.974084999999999
#
# number of rings (size 3 to 8) (size 9 to 14) (size 15 to 20)
#    0.000    1.067    1.333    4.800    9.333    1.600 
#   19.200    0.000    0.000    0.000    0.000    0.000 
#    0.000    0.000    0.000    0.000    0.000    0.000 
#
# Total GULP energy -334599.717244 kJ/mol
# GULP energy per Si atom -5576.661954 kJ/mol
# Density = 2.591497 g / cm^3
# Si number density = 25.974085 Si / 1000 Ang^3
#
#
#
# Elastic Constant Matrix: (Units=GPa)
#
#
# Indices 1 2 3 4 5 6 
#
# 1 64.1655 -5.0976 4.8298 0.0000 0.0000 0.0000
# 2 -5.0976 38.0685 -6.1099 0.0000 0.0000 0.0000
# 3 4.8298 -6.1099 54.8640 0.0000 0.0000 0.0000
# 4 0.0000 0.0000 0.0000 40.0665 0.0000 0.0000
# 5 0.0000 0.0000 0.0000 0.0000 57.3624 0.0000
# 6 0.0000 0.0000 0.0000 0.0000 0.0000 24.9880
#
#
#
# Elastic Compliance Matrix: (Units=1/GPa)
#
#
# Indices 1 2 3 4 5 6 
#
# 1 0.015827 0.001930 -0.001178 0.000000 0.000000 0.000000
# 2 0.001930 0.026982 0.002835 0.000000 0.000000 0.000000
# 3 -0.001178 0.002835 0.018646 0.000000 0.000000 0.000000
# 4 0.000000 0.000000 0.000000 0.024958 0.000000 0.000000
# 5 0.000000 0.000000 0.000000 0.000000 0.017433 0.000000
# 6 0.000000 0.000000 0.000000 0.000000 0.000000 0.040019
#
#
# Mechanical properties :
#
#
# Convention : Reuss Voigt Hill
#
# Bulk Modulus (GPa) = 14.57118 16.03805 15.30462
# Shear Modulus (GPa) = 31.33455 35.38176 33.35816
#
# Velocity S-wave (km/s) = 3.47706 3.69480 3.58758
# Velocity P-wave (km/s) = 4.66283 4.93863 4.80271
#
# Compressibility (1/GPa) = 0.06862861
#
# Stress axis : x y z
#
# Youngs Moduli (GPa) = 63.18417 37.06186 53.62985
#
# Poissons Ratio (x) = -0.07154 0.06319
# Poissons Ratio (y) = -0.12196 -0.15204
# Poissons Ratio (z) = 0.07445 -0.10507
#
# Static dielectric constant tensor:
#      x y z
#    x 2.479790 0.000000 0.000000 
#    y 0.000000 2.001690 0.000000 
#    z 0.000000 0.000000 2.477210 
# 
# From -- ./inp_files/3620.got.cif
#   From: 2010.05.17/outbox.cif.g08.bks.cpg/sg61_2_cif.got.tgz:3620.got - 2010.06.03 15:17:17.
