data_PCOD9460053
_publ_section_title
;
Structure prediction by ZEFSAII (Michael W. Deem and Ramdas Pophale) SiO2 
 PCOD9460053
Probable space group: P B C A
;
_chemical_formula_sum "Si O2"
_cell_formula_units_Z 64
_cell_length_a 10.916622
_cell_length_b 16.339119
_cell_length_c 18.366855
_cell_angle_alpha 90.000000
_cell_angle_beta 90.000000
_cell_angle_gamma 90.000000
_cell_volume 3276.058934
_symmetry_space_group_name_H-M "P B C A"
_symmetry_group_IT_number 61
_symmetry_cell_setting 'orthorhombic'
loop_
_space_group_symop_operation_xyz
x,y,z
1/2-x,-y,1/2+z
1/2+x,1/2-y,-z
-x,1/2+y,1/2-z
-x,-y,-z
1/2+x,y,1/2-z
1/2-x,1/2+y,z
x,1/2-y,1/2+z
loop_
_atom_site_type_symbol
_atom_site_label
_atom_site_fract_x
_atom_site_fract_y
_atom_site_fract_z
Si Si1 0.361132 0.892019 0.345283
Si Si2 0.475318 0.720039 0.948728
Si Si3 0.427878 0.977230 0.661617
Si Si4 0.386073 0.018411 0.824595
Si Si5 0.455425 0.188702 0.386869
Si Si6 0.812980 0.873089 0.571866
Si Si7 0.063749 0.336675 0.193098
Si Si8 0.783157 0.375853 0.407530
O O1 0.374132 0.845538 0.421517
O O2 0.226165 0.918592 0.325398
O O3 0.413699 0.837590 0.279345
O O4 0.445365 0.972480 0.346641
O O5 0.420799 0.806207 0.924422
O O6 0.599793 0.684146 0.914329
O O7 0.501917 0.720378 0.034168
O O8 0.457282 0.888076 0.631526
O O9 0.391934 0.974312 0.746363
O O10 0.330851 0.035732 0.620495
O O11 0.504465 0.076033 0.829027
O O12 0.360167 0.954172 0.888175
O O13 0.313833 0.159760 0.391702
O O14 0.478828 0.261835 0.330839
O O15 0.777288 0.885142 0.487076
O O16 0.190139 0.335592 0.149094
#
# Coordination Sequence:
#
# PCOD9460053 Si02
#       8
#     8   8   8   8   8   8   8   8
#     4  10  21  41  65  90 128 167 211 257 324 373
#     4  10  23  40  64  93 124 165 212 259 314 378
#     4  10  22  41  64  95 122 169 214 259 316 384
#     4  11  23  40  66  93 131 163 214 266 311 386
#     4  11  23  42  67  91 129 165 218 265 314 379
#     4  11  23  42  65  96 126 166 221 258 314 386
#     4  11  23  43  62  93 130 167 203 268 325 373
#     4  10  22  43  64  89 133 165 208 262 321 378
#
# _framework density 19.535667
#
# number of rings (size 3 to 8) (size 9 to 14) (size 15 to 20)
#    0.000    1.500    3.750    0.750    3.500    2.000 
#    2.250    0.000    0.000    0.000    0.000    0.000 
#    0.000    0.000    0.000    0.000    0.000    0.000 
#
# Total GULP energy -357321.473201 kJ/mol
# GULP energy per Si atom -5583.148019 kJ/mol
# Density = 1.949120 g / cm^3
# Si number density = 19.535667 Si / 1000 Ang^3
#
#
#
# Elastic Constant Matrix: (Units=GPa)
#
#
# Indices 1 2 3 4 5 6 
#
# 1 39.1685 8.9730 8.5482 0.0000 0.0000 0.0000
# 2 8.9730 68.0037 30.7029 0.0000 0.0000 0.0000
# 3 8.5482 30.7029 44.1070 0.0000 0.0000 0.0000
# 4 0.0000 0.0000 0.0000 31.0821 0.0000 0.0000
# 5 0.0000 0.0000 0.0000 0.0000 19.9875 0.0000
# 6 0.0000 0.0000 0.0000 0.0000 0.0000 17.6562
#
#
#
# Elastic Compliance Matrix: (Units=1/GPa)
#
#
# Indices 1 2 3 4 5 6 
#
# 1 0.026798 -0.001737 -0.003984 0.000000 0.000000 0.000000
# 2 -0.001737 0.021557 -0.014669 0.000000 0.000000 0.000000
# 3 -0.003984 -0.014669 0.033656 0.000000 0.000000 0.000000
# 4 0.000000 0.000000 0.000000 0.032173 0.000000 0.000000
# 5 0.000000 0.000000 0.000000 0.000000 0.050031 0.000000
# 6 0.000000 0.000000 0.000000 0.000000 0.000000 0.056637
#
#
# Mechanical properties :
#
#
# Convention : Reuss Voigt Hill
#
# Bulk Modulus (GPa) = 24.25453 27.52526 25.88990
# Shear Modulus (GPa) = 18.15687 20.61551 19.38619
#
# Velocity S-wave (km/s) = 3.05195 3.25202 3.15357
# Velocity P-wave (km/s) = 4.98615 5.31237 5.15184
#
# Compressibility (1/GPa) = 0.04122941
#
# Stress axis : x y z
#
# Youngs Moduli (GPa) = 37.31595 46.38781 29.71254
#
# Poissons Ratio (x) = 0.08058 0.11839
# Poissons Ratio (y) = 0.06482 0.43587
# Poissons Ratio (z) = 0.14868 0.68049
#
# Static dielectric constant tensor:
#      x y z
#    x 1.689920 0.000000 0.000000 
#    y 0.000000 1.665670 0.000000 
#    z 0.000000 0.000000 1.670460 
# 
# From -- ./inp_files/9283.got.cif
#   From: 2010.05.17/outbox.cif.g08.bks.cpg/sg61_5_cif.got.tgz:9283.got - 2010.06.03 15:17:17.
