data_PCOD9460112
_publ_section_title
;
Structure prediction by ZEFSAII (Michael W. Deem and Ramdas Pophale) SiO2 
 PCOD9460112
Probable space group: P B C A
;
_chemical_formula_sum "Si O2"
_cell_formula_units_Z 64
_cell_length_a 21.334750
_cell_length_b 7.997359
_cell_length_c 14.859998
_cell_angle_alpha 90.000000
_cell_angle_beta 90.000000
_cell_angle_gamma 90.000000
_cell_volume 2535.437451
_symmetry_space_group_name_H-M "P B C A"
_symmetry_group_IT_number 61
_symmetry_cell_setting 'orthorhombic'
loop_
_space_group_symop_operation_xyz
x,y,z
1/2-x,-y,1/2+z
1/2+x,1/2-y,-z
-x,1/2+y,1/2-z
-x,-y,-z
1/2+x,y,1/2-z
1/2-x,1/2+y,z
x,1/2-y,1/2+z
loop_
_atom_site_type_symbol
_atom_site_label
_atom_site_fract_x
_atom_site_fract_y
_atom_site_fract_z
Si Si1 0.343225 0.197665 0.124734
Si Si2 0.047560 0.369132 0.410724
Si Si3 0.989452 0.765101 0.912396
Si Si4 0.604199 0.222525 0.266428
Si Si5 0.183412 0.598830 0.927487
Si Si6 0.780334 0.845929 0.339753
Si Si7 0.819838 0.788589 0.031544
Si Si8 0.405075 0.340427 0.277127
O O1 0.294429 0.342734 0.153898
O O2 0.402701 0.221611 0.189639
O O3 0.306122 0.031904 0.152943
O O4 0.347634 0.181955 0.017164
O O5 0.007610 0.537846 0.406228
O O6 0.063498 0.306312 0.311810
O O7 0.117061 0.393880 0.454250
O O8 0.015797 0.238784 0.480610
O O9 0.040761 0.679375 0.850389
O O10 0.924707 0.723475 0.862242
O O11 0.677645 0.267107 0.260961
O O12 0.594391 0.027027 0.258485
O O13 0.257972 0.622920 0.930451
O O14 0.169088 0.399848 0.929993
O O15 0.156162 0.684165 0.839062
O O16 0.800856 0.744505 0.428658
#
# Coordination Sequence:
#
# PCOD9460112 Si02
#       8
#     8   8   8   8   8   8   8   8
#     4  10  23  41  66 100 137 178 213 278 343 398
#     4  11  24  46  70  96 135 186 225 284 339 399
#     4  11  27  46  67  99 133 185 233 277 338 403
#     4  12  24  44  69  97 137 176 231 285 333 404
#     4  10  24  41  66 104 136 171 221 275 341 403
#     4  10  21  42  67  97 138 171 221 273 337 404
#     4  10  21  44  69  99 135 176 214 280 337 402
#     4  12  26  42  67 103 131 179 228 277 342 406
#
# _framework density 25.242194000000001
#
# number of rings (size 3 to 8) (size 9 to 14) (size 15 to 20)
#    0.000    1.250    2.500    2.250    3.500    5.500 
#    0.000    0.000    0.000    0.000    0.000    0.000 
#    0.000    0.000    0.000    0.000    0.000    0.000 
#
# Total GULP energy -358127.097662 kJ/mol
# GULP energy per Si atom -5595.735901 kJ/mol
# Density = 2.518474 g / cm^3
# Si number density = 25.242194 Si / 1000 Ang^3
#
#
#
# Elastic Constant Matrix: (Units=GPa)
#
#
# Indices 1 2 3 4 5 6 
#
# 1 59.3321 -29.0421 1.2688 0.0000 0.0000 0.0000
# 2 -29.0421 41.0820 -0.9630 0.0000 0.0000 0.0000
# 3 1.2688 -0.9630 120.6155 0.0000 0.0000 0.0000
# 4 0.0000 0.0000 0.0000 25.5583 0.0000 0.0000
# 5 0.0000 0.0000 0.0000 0.0000 51.0870 0.0000
# 6 0.0000 0.0000 0.0000 0.0000 0.0000 22.6915
#
#
#
# Elastic Compliance Matrix: (Units=1/GPa)
#
#
# Indices 1 2 3 4 5 6 
#
# 1 0.025774 0.018218 -0.000126 0.000000 0.000000 0.000000
# 2 0.018218 0.037222 0.000106 0.000000 0.000000 0.000000
# 3 -0.000126 0.000106 0.008293 0.000000 0.000000 0.000000
# 4 0.000000 0.000000 0.000000 0.039126 0.000000 0.000000
# 5 0.000000 0.000000 0.000000 0.000000 0.019574 0.000000
# 6 0.000000 0.000000 0.000000 0.000000 0.000000 0.044069
#
#
# Mechanical properties :
#
#
# Convention : Reuss Voigt Hill
#
# Bulk Modulus (GPa) = 9.28640 18.17300 13.72970
# Shear Modulus (GPa) = 28.80854 36.51842 32.66348
#
# Velocity S-wave (km/s) = 3.38196 3.80771 3.60113
# Velocity P-wave (km/s) = 4.35168 5.15234 4.76884
#
# Compressibility (1/GPa) = 0.10768439
#
# Stress axis : x y z
#
# Youngs Moduli (GPa) = 38.79861 26.86548 120.58398
#
# Poissons Ratio (x) = -0.48942 0.01515
# Poissons Ratio (y) = -0.70681 -0.01273
# Poissons Ratio (z) = 0.00488 -0.00284
#
# Static dielectric constant tensor:
#      x y z
#    x 2.089540 0.000000 0.000000 
#    y 0.000000 1.949590 0.000000 
#    z 0.000000 0.000000 2.031650 
# 
# From -- ./inp_files/8518.got.cif
#   From: 2010.05.17/outbox.cif.g08.bks.cpg/sg61_5_cif.got.tgz:8518.got - 2010.06.03 15:17:17.
