data_PCOD9460571
_publ_section_title
;
Structure prediction by ZEFSAII (Michael W. Deem and Ramdas Pophale) SiO2 
 PCOD9460571
Probable space group: P B C A
;
_chemical_formula_sum "Si O2"
_cell_formula_units_Z 64
_cell_length_a 14.215538
_cell_length_b 12.137125
_cell_length_c 16.477150
_cell_angle_alpha 90.000000
_cell_angle_beta 90.000000
_cell_angle_gamma 90.000000
_cell_volume 2842.897625
_symmetry_space_group_name_H-M "P B C A"
_symmetry_group_IT_number 61
_symmetry_cell_setting 'orthorhombic'
loop_
_space_group_symop_operation_xyz
x,y,z
1/2-x,-y,1/2+z
1/2+x,1/2-y,-z
-x,1/2+y,1/2-z
-x,-y,-z
1/2+x,y,1/2-z
1/2-x,1/2+y,z
x,1/2-y,1/2+z
loop_
_atom_site_type_symbol
_atom_site_label
_atom_site_fract_x
_atom_site_fract_y
_atom_site_fract_z
Si Si1 0.953099 0.607631 0.954918
Si Si2 0.367537 0.250712 0.458377
Si Si3 0.222872 0.117363 0.221463
Si Si4 0.805985 0.713079 0.450042
Si Si5 0.085683 0.568669 0.695584
Si Si6 0.720020 0.685302 0.700555
Si Si7 0.890213 0.482355 0.490440
Si Si8 0.888686 0.541570 0.774859
O O1 0.856267 0.673264 0.978428
O O2 0.933594 0.579173 0.860523
O O3 0.027168 0.706955 0.965050
O O4 0.000000 0.500000 0.000000
O O5 0.304241 0.277270 0.535238
O O6 0.322602 0.325271 0.387700
O O7 0.362970 0.118061 0.450367
O O8 0.183349 0.188212 0.145635
O O9 0.238036 0.193226 0.297750
O O10 0.144890 0.026983 0.239593
O O11 0.324967 0.064739 0.203390
O O12 0.841804 0.601812 0.494685
O O13 0.131656 0.675255 0.737504
O O14 0.118395 0.559879 0.602663
O O15 0.976685 0.545121 0.712770
O O16 0.806413 0.613416 0.732723
O O17 0.000000 0.500000 0.500000
#
# Coordination Sequence:
#
# PCOD9460571 Si02
#       8
#     8   8   8   8   8   8   8   8
#     4  12  26  46  73 107 148 194 244 308 366 445
#     4  12  27  43  72 108 140 189 248 300 368 447
#     4  10  23  42  71  97 134 193 229 295 369 434
#     4  11  25  47  68 101 146 191 242 301 375 435
#     4  10  24  42  68 100 139 184 237 293 369 442
#     4  11  24  43  69 101 140 186 237 298 363 433
#     4  11  25  44  71 100 140 188 236 299 364 435
#     4  11  24  44  71 103 145 182 245 300 368 445
#
# _framework density 22.512242000000001
#
# number of rings (size 3 to 8) (size 9 to 14) (size 15 to 20)
#    0.000    1.000    3.750    1.500    8.750    3.000 
#    0.000    0.000    0.000    0.000    0.000    0.000 
#    0.000    0.000    0.000    0.000    0.000    0.000 
#
# Total GULP energy -356643.299735 kJ/mol
# GULP energy per Si atom -5572.551558 kJ/mol
# Density = 2.246100 g / cm^3
# Si number density = 22.512242 Si / 1000 Ang^3
#
#
#
# Elastic Constant Matrix: (Units=GPa)
#
#
# Indices 1 2 3 4 5 6 
#
# 1 104.4256 13.9368 0.2860 0.0000 0.0000 0.0000
# 2 13.9368 77.0112 10.8973 0.0000 0.0000 0.0000
# 3 0.2860 10.8973 36.4278 0.0000 0.0000 0.0000
# 4 0.0000 0.0000 0.0000 19.0995 0.0000 0.0000
# 5 0.0000 0.0000 0.0000 0.0000 37.3176 0.0000
# 6 0.0000 0.0000 0.0000 0.0000 0.0000 33.5340
#
#
#
# Elastic Compliance Matrix: (Units=1/GPa)
#
#
# Indices 1 2 3 4 5 6 
#
# 1 0.009821 -0.001844 0.000475 0.000000 0.000000 0.000000
# 2 -0.001844 0.013906 -0.004145 0.000000 0.000000 0.000000
# 3 0.000475 -0.004145 0.028688 0.000000 0.000000 0.000000
# 4 0.000000 0.000000 0.000000 0.052357 0.000000 0.000000
# 5 0.000000 0.000000 0.000000 0.000000 0.026797 0.000000
# 6 0.000000 0.000000 0.000000 0.000000 0.000000 0.029821
#
#
# Mechanical properties :
#
#
# Convention : Reuss Voigt Hill
#
# Bulk Modulus (GPa) = 24.16383 29.78941 26.97662
# Shear Modulus (GPa) = 26.85077 30.83984 28.84531
#
# Velocity S-wave (km/s) = 3.45732 3.70525 3.58343
# Velocity P-wave (km/s) = 5.16666 5.61840 5.39726
#
# Compressibility (1/GPa) = 0.04138417
#
# Stress axis : x y z
#
# Youngs Moduli (GPa) = 101.82191 71.91397 34.85789
#
# Poissons Ratio (x) = 0.13264 -0.01655
# Poissons Ratio (y) = 0.18781 0.14450
# Poissons Ratio (z) = -0.04833 0.29811
#
# Static dielectric constant tensor:
#      x y z
#    x 1.887960 0.000000 0.000000 
#    y 0.000000 2.130920 0.000000 
#    z 0.000000 0.000000 1.921530 
# 
# From -- ./inp_files/9529.got.cif
#   From: 2010.05.17/outbox.cif.g08.bks.cpg/sg61_5_cif.got.tgz:9529.got - 2010.06.03 15:17:17.
