data_PCOD9460886
_publ_section_title
;
Structure prediction by ZEFSAII (Michael W. Deem and Ramdas Pophale) SiO2 
 PCOD9460886
Probable space group: P B C A
;
_chemical_formula_sum "Si O2"
_cell_formula_units_Z 64
_cell_length_a 20.981039
_cell_length_b 16.856776
_cell_length_c 7.829013
_cell_angle_alpha 90.000000
_cell_angle_beta 90.000000
_cell_angle_gamma 90.000000
_cell_volume 2768.907968
_symmetry_space_group_name_H-M "P B C A"
_symmetry_group_IT_number 61
_symmetry_cell_setting 'orthorhombic'
loop_
_space_group_symop_operation_xyz
x,y,z
1/2-x,-y,1/2+z
1/2+x,1/2-y,-z
-x,1/2+y,1/2-z
-x,-y,-z
1/2+x,y,1/2-z
1/2-x,1/2+y,z
x,1/2-y,1/2+z
loop_
_atom_site_type_symbol
_atom_site_label
_atom_site_fract_x
_atom_site_fract_y
_atom_site_fract_z
Si Si1 0.027551 0.692598 0.839698
Si Si2 0.155928 0.707366 0.030920
Si Si3 0.389600 0.679146 0.605417
Si Si4 0.153989 0.625909 0.395764
Si Si5 0.019519 0.630337 0.451541
Si Si6 0.250712 0.591805 0.920492
Si Si7 0.119256 0.138902 0.009100
Si Si8 0.216309 0.064196 0.527822
O O1 0.024381 0.658065 0.649547
O O2 0.963822 0.665823 0.939109
O O3 0.093337 0.675937 0.934090
O O4 0.023094 0.788687 0.839803
O O5 0.157628 0.671295 0.217576
O O6 0.153487 0.802277 0.032876
O O7 0.219315 0.677777 0.937391
O O8 0.376202 0.772764 0.587965
O O9 0.383878 0.654677 0.804335
O O10 0.340361 0.626359 0.497718
O O11 0.084820 0.583913 0.408969
O O12 0.218742 0.579179 0.423826
O O13 0.947343 0.599596 0.431757
O O14 0.315419 0.591268 0.032283
O O15 0.265637 0.574356 0.725178
O O16 0.200852 0.526921 0.989146
#
# Coordination Sequence:
#
# PCOD9460886 Si02
#       8
#     8   8   8   8   8   8   8   8
#     4   9  16  30  52  80 108 135 168 215 265 313
#     4  11  21  35  56  83 110 141 178 219 263 315
#     4   9  19  34  56  82 108 136 174 218 265 317
#     4  11  21  35  56  83 110 141 178 219 263 315
#     4   9  16  30  52  80 108 135 168 215 265 313
#     4  11  23  39  55  77 108 144 182 224 269 319
#     4   9  19  34  56  82 108 136 174 218 265 317
#     4  11  23  39  55  77 108 144 182 224 269 319
#
# _framework density 23.113807000000001
#
# number of rings (size 3 to 8) (size 9 to 14) (size 15 to 20)
#    0.000    2.000    0.000    6.000    0.000    5.000 
#    0.000    1.250    0.000    0.000    0.000    0.000 
#    0.000    0.000    0.000    0.000    0.000    0.000 
#
# Total GULP energy -357537.645279 kJ/mol
# GULP energy per Si atom -5586.525707 kJ/mol
# Density = 2.306120 g / cm^3
# Si number density = 23.113807 Si / 1000 Ang^3
#
#
#
# Elastic Constant Matrix: (Units=GPa)
#
#
# Indices 1 2 3 4 5 6 
#
# 1 106.0785 18.4536 -2.6135 0.0000 0.0000 0.0000
# 2 18.4536 27.5856 -10.1282 0.0000 0.0000 0.0000
# 3 -2.6135 -10.1282 43.9148 0.0000 0.0000 0.0000
# 4 0.0000 0.0000 0.0000 19.7885 0.0000 0.0000
# 5 0.0000 0.0000 0.0000 0.0000 19.5157 0.0000
# 6 0.0000 0.0000 0.0000 0.0000 0.0000 -0.3780
#
#
#
# Elastic Compliance Matrix: (Units=1/GPa)
#
#
# Indices 1 2 3 4 5 6 
#
# 1 0.010718 -0.007577 -0.001110 0.000000 0.000000 0.000000
# 2 -0.007577 0.044961 0.009919 0.000000 0.000000 0.000000
# 3 -0.001110 0.009919 0.024993 0.000000 0.000000 0.000000
# 4 0.000000 0.000000 0.000000 0.050534 0.000000 0.000000
# 5 0.000000 0.000000 0.000000 0.000000 0.051241 0.000000
# 6 0.000000 0.000000 0.000000 0.000000 0.000000 -2.645760
#
#
# Mechanical properties :
#
#
# Convention : Reuss Voigt Hill
#
# Bulk Modulus (GPa) = 12.02859 21.00030 16.51444
# Shear Modulus (GPa) = -2.05081 19.24305 8.59612
#
# Velocity S-wave (km/s) = -0.94297 2.88850 1.93057
# Velocity P-wave (km/s) = 2.00743 4.49777 3.48279
#
# Compressibility (1/GPa) = 0.08313528
#
# Stress axis : x y z
#
# Youngs Moduli (GPa) = 93.30295 22.24142 40.01141
#
# Poissons Ratio (x) = 0.16853 0.04440
# Poissons Ratio (y) = 0.70697 -0.39686
# Poissons Ratio (z) = 0.10354 -0.22060
#
# Static dielectric constant tensor:
#      x y z
#    x 1.949110 0.000000 0.000000 
#    y 0.000000 1.849170 0.000000 
#    z 0.000000 0.000000 1.868940 
# 
# From -- ./inp_files/4092.got.cif
#   From: 2010.05.17/outbox.cif.g08.bks.cpg/sg61_3_cif.got.tgz:4092.got - 2010.06.03 15:17:17.
