data_PCOD9460549
_publ_section_title
;
Structure prediction by ZEFSAII (Michael W. Deem and Ramdas Pophale) SiO2 
 PCOD9460549
Probable space group: P B C A
;
_chemical_formula_sum "Si O2"
_cell_formula_units_Z 48
_cell_length_a 5.284152
_cell_length_b 28.538678
_cell_length_c 14.281361
_cell_angle_alpha 90.000000
_cell_angle_beta 90.000000
_cell_angle_gamma 90.000000
_cell_volume 2153.667976
_symmetry_space_group_name_H-M "P B C A"
_symmetry_group_IT_number 61
_symmetry_cell_setting 'orthorhombic'
loop_
_space_group_symop_operation_xyz
x,y,z
1/2-x,-y,1/2+z
1/2+x,1/2-y,-z
-x,1/2+y,1/2-z
-x,-y,-z
1/2+x,y,1/2-z
1/2-x,1/2+y,z
x,1/2-y,1/2+z
loop_
_atom_site_type_symbol
_atom_site_label
_atom_site_fract_x
_atom_site_fract_y
_atom_site_fract_z
Si Si1 0.607264 0.191564 0.696639
Si Si2 0.101672 0.994689 0.140769
Si Si3 0.030336 0.894560 0.063749
Si Si4 0.463617 0.121619 0.053556
Si Si5 0.102186 0.034170 0.352465
Si Si6 0.975459 0.232909 0.446453
O O1 0.403322 0.186995 0.779947
O O2 0.531791 0.150846 0.625345
O O3 0.547487 0.240997 0.648929
O O4 0.034920 0.940626 0.128495
O O5 0.128100 0.012824 0.248183
O O6 0.374644 0.006116 0.099778
O O7 0.870243 0.024345 0.099578
O O8 0.801899 0.895399 0.989290
O O9 0.304332 0.888264 0.017092
O O10 0.528547 0.088642 0.142398
O O11 0.452950 0.177309 0.067149
O O12 0.209812 0.246407 0.515007
#
# Coordination Sequence:
#
# PCOD9460549 Si02
#       6
#     8   8   8   8   8   8
#     4  12  26  43  69 106 135 175 228 277 345 407
#     4  10  23  42  62  94 133 179 213 277 330 395
#     4  12  25  41  73 100 131 179 223 277 336 395
#     4  12  24  44  71  99 131 179 226 275 332 406
#     4  10  23  42  63  93 133 175 217 270 335 390
#     4  12  23  48  70 100 140 177 220 285 343 394
#
# _framework density 22.287561
#
# number of rings (size 3 to 8) (size 9 to 14) (size 15 to 20)
#    0.000    0.667    3.333    4.000    4.667    4.000 
#    6.000    0.000    0.000    0.000    0.000    0.000 
#    0.000    0.000    0.000    0.000    0.000    0.000 
#
# Total GULP energy -268393.698456 kJ/mol
# GULP energy per Si atom -5591.535385 kJ/mol
# Density = 2.223683 g / cm^3
# Si number density = 22.287561 Si / 1000 Ang^3
#
#
#
# Elastic Constant Matrix: (Units=GPa)
#
#
# Indices 1 2 3 4 5 6 
#
# 1 148.0609 16.2680 5.8855 0.0000 0.0000 0.0000
# 2 16.2680 165.8430 39.4779 0.0000 0.0000 0.0000
# 3 5.8855 39.4779 32.6336 0.0000 0.0000 0.0000
# 4 0.0000 0.0000 0.0000 45.9628 0.0000 0.0000
# 5 0.0000 0.0000 0.0000 0.0000 31.3074 0.0000
# 6 0.0000 0.0000 0.0000 0.0000 0.0000 36.0239
#
#
#
# Elastic Compliance Matrix: (Units=1/GPa)
#
#
# Indices 1 2 3 4 5 6 
#
# 1 0.006836 -0.000530 -0.000592 0.000000 0.000000 0.000000
# 2 -0.000530 0.008509 -0.010199 0.000000 0.000000 0.000000
# 3 -0.000592 -0.010199 0.043088 0.000000 0.000000 0.000000
# 4 0.000000 0.000000 0.000000 0.021757 0.000000 0.000000
# 5 0.000000 0.000000 0.000000 0.000000 0.031941 0.000000
# 6 0.000000 0.000000 0.000000 0.000000 0.000000 0.027759
#
#
# Mechanical properties :
#
#
# Convention : Reuss Voigt Hill
#
# Bulk Modulus (GPa) = 27.93916 52.20005 40.06960
# Shear Modulus (GPa) = 28.65955 41.65257 35.15606
#
# Velocity S-wave (km/s) = 3.58983 4.32773 3.97594
# Velocity P-wave (km/s) = 5.45395 6.96020 6.25260
#
# Compressibility (1/GPa) = 0.03579206
#
# Stress axis : x y z
#
# Youngs Moduli (GPa) = 146.29077 117.51604 23.20844
#
# Poissons Ratio (x) = 0.06223 0.01374
# Poissons Ratio (y) = 0.07747 0.23670
# Poissons Ratio (z) = 0.08663 1.19851
#
# Static dielectric constant tensor:
#      x y z
#    x 1.885870 0.000000 0.000000 
#    y 0.000000 1.787500 0.000000 
#    z 0.000000 0.000000 1.766290 
# 
# From -- ./inp_files/6859.got.cif
#   From: 2010.05.17/outbox.cif.g08.bks.cpg/sg61_4_cif.got.tgz:6859.got - 2010.06.03 15:17:17.
