data_PCOD9460358
_publ_section_title
;
Structure prediction by ZEFSAII (Michael W. Deem and Ramdas Pophale) SiO2 
 PCOD9460358
Probable space group: P B C A
;
_chemical_formula_sum "Si O2"
_cell_formula_units_Z 56
_cell_length_a 8.566520
_cell_length_b 16.282789
_cell_length_c 20.037532
_cell_angle_alpha 90.000000
_cell_angle_beta 90.000000
_cell_angle_gamma 90.000000
_cell_volume 2794.971972
_symmetry_space_group_name_H-M "P B C A"
_symmetry_group_IT_number 61
_symmetry_cell_setting 'orthorhombic'
loop_
_space_group_symop_operation_xyz
x,y,z
1/2-x,-y,1/2+z
1/2+x,1/2-y,-z
-x,1/2+y,1/2-z
-x,-y,-z
1/2+x,y,1/2-z
1/2-x,1/2+y,z
x,1/2-y,1/2+z
loop_
_atom_site_type_symbol
_atom_site_label
_atom_site_fract_x
_atom_site_fract_y
_atom_site_fract_z
Si Si1 0.064915 0.089860 0.987912
Si Si2 0.103251 0.750164 0.475289
Si Si3 0.430154 0.718216 0.397426
Si Si4 0.987811 0.873773 0.168443
Si Si5 0.232680 0.031295 0.728025
Si Si6 0.410921 0.071638 0.959727
Si Si7 0.439971 0.538805 0.337944
O O1 0.038536 0.104474 0.909054
O O2 0.249699 0.087585 0.998004
O O3 0.983350 0.162040 0.030744
O O4 0.000000 0.000000 0.000000
O O5 0.273440 0.740878 0.440778
O O6 0.023839 0.835584 0.449389
O O7 0.079656 0.765974 0.554675
O O8 0.450592 0.777116 0.333831
O O9 0.420502 0.624972 0.374423
O O10 0.873647 0.919894 0.219105
O O11 0.158565 0.904027 0.189597
O O12 0.118585 0.982017 0.679287
O O13 0.341380 0.969780 0.770322
O O14 0.382485 0.032193 0.887868
O O15 0.500000 0.000000 0.000000
#
# Coordination Sequence:
#
# PCOD9460358 Si02
#       7
#     8   8   8   8   8   8   8
#     4  11  24  39  64  97 134 169 215 274 343 401
#     4  11  22  40  62  99 135 169 214 271 346 406
#     4  11  23  41  66  97 136 173 219 277 336 414
#     4  10  22  42  64  90 131 175 219 269 332 386
#     4  10  23  43  64  90 129 180 229 274 318 397
#     4  12  23  40  66  97 130 174 214 274 340 402
#     4  11  23  42  67  95 132 175 230 272 333 396
#
# _framework density 20.035979000000001
#
# number of rings (size 3 to 8) (size 9 to 14) (size 15 to 20)
#    0.000    1.143    5.714    0.857    2.000    2.286 
#    0.000    0.000    0.000    0.000    0.000    0.000 
#    0.000    0.000    0.000    0.000    0.000    0.000 
#
# Total GULP energy -312133.270962 kJ/mol
# GULP energy per Si atom -5573.808410 kJ/mol
# Density = 1.999038 g / cm^3
# Si number density = 20.035979 Si / 1000 Ang^3
#
#
#
# Elastic Constant Matrix: (Units=GPa)
#
#
# Indices 1 2 3 4 5 6 
#
# 1 115.2187 48.4366 33.3491 0.0000 0.0000 0.0000
# 2 48.4366 176.8016 36.5545 0.0000 0.0000 0.0000
# 3 33.3491 36.5545 44.8825 0.0000 0.0000 0.0000
# 4 0.0000 0.0000 0.0000 36.2532 0.0000 0.0000
# 5 0.0000 0.0000 0.0000 0.0000 27.2415 0.0000
# 6 0.0000 0.0000 0.0000 0.0000 0.0000 31.0380
#
#
#
# Elastic Compliance Matrix: (Units=1/GPa)
#
#
# Indices 1 2 3 4 5 6 
#
# 1 0.011447 -0.001656 -0.007156 0.000000 0.000000 0.000000
# 2 -0.001656 0.007041 -0.004504 0.000000 0.000000 0.000000
# 3 -0.007156 -0.004504 0.031266 0.000000 0.000000 0.000000
# 4 0.000000 0.000000 0.000000 0.027584 0.000000 0.000000
# 5 0.000000 0.000000 0.000000 0.000000 0.036709 0.000000
# 6 0.000000 0.000000 0.000000 0.000000 0.000000 0.032219
#
#
# Mechanical properties :
#
#
# Convention : Reuss Voigt Hill
#
# Bulk Modulus (GPa) = 43.25127 63.73147 53.49137
# Shear Modulus (GPa) = 27.68481 33.47740 30.58111
#
# Velocity S-wave (km/s) = 3.72123 4.09206 3.91104
# Velocity P-wave (km/s) = 6.33222 7.36234 6.86663
#
# Compressibility (1/GPa) = 0.02312071
#
# Stress axis : x y z
#
# Youngs Moduli (GPa) = 87.36066 142.02496 31.98380
#
# Poissons Ratio (x) = 0.23525 0.22889
# Poissons Ratio (y) = 0.14470 0.14405
# Poissons Ratio (z) = 0.62518 0.63965
#
# Static dielectric constant tensor:
#      x y z
#    x 1.822290 0.000000 0.000000 
#    y 0.000000 1.808030 0.000000 
#    z 0.000000 0.000000 1.700600 
# 
# From -- ./inp_files/10131.got.cif
#   From: 2010.05.17/outbox.cif.g08.bks.cpg/sg61_6_cif.got.tgz:10131.got - 2010.06.03 15:17:17.
