data_PCOD9460127
_publ_section_title
;
Structure prediction by ZEFSAII (Michael W. Deem and Ramdas Pophale) SiO2 
 PCOD9460127
Probable space group: P B C A
;
_chemical_formula_sum "Si O2"
_cell_formula_units_Z 48
_cell_length_a 16.880325
_cell_length_b 11.000937
_cell_length_c 12.437956
_cell_angle_alpha 90.000000
_cell_angle_beta 90.000000
_cell_angle_gamma 90.000000
_cell_volume 2309.720865
_symmetry_space_group_name_H-M "P B C A"
_symmetry_group_IT_number 61
_symmetry_cell_setting 'orthorhombic'
loop_
_space_group_symop_operation_xyz
x,y,z
1/2-x,-y,1/2+z
1/2+x,1/2-y,-z
-x,1/2+y,1/2-z
-x,-y,-z
1/2+x,y,1/2-z
1/2-x,1/2+y,z
x,1/2-y,1/2+z
loop_
_atom_site_type_symbol
_atom_site_label
_atom_site_fract_x
_atom_site_fract_y
_atom_site_fract_z
Si Si1 0.312781 0.824270 0.228946
Si Si2 0.086107 0.042279 0.366637
Si Si3 0.252216 0.430847 0.786533
Si Si4 0.456774 0.566903 0.124898
Si Si5 0.117603 0.040736 0.912288
Si Si6 0.530832 0.170524 0.920936
O O1 0.266258 0.696735 0.228282
O O2 0.388805 0.833034 0.151025
O O3 0.262489 0.948535 0.212306
O O4 0.343663 0.843707 0.352525
O O5 0.180758 0.036837 0.367960
O O6 0.069356 0.086610 0.246043
O O7 0.052908 0.126998 0.460064
O O8 0.038310 0.916826 0.379138
O O9 0.332913 0.432361 0.856339
O O10 0.525792 0.467974 0.121283
O O11 0.495189 0.690847 0.082054
O O12 0.386424 0.540563 0.040769
#
# Coordination Sequence:
#
# PCOD9460127 Si02
#       6
#     8   8   8   8   8   8
#     4  10  21  43  65  96 133 171 220 279 336 404
#     4  11  23  40  64  99 127 183 222 279 344 412
#     4  10  22  41  68  96 134 169 224 280 345 398
#     4  11  21  41  70  90 132 179 224 281 343 412
#     4   9  23  39  65  98 127 168 226 276 333 409
#     4  11  24  40  66  94 139 171 231 282 340 415
#
# _framework density 20.781731000000001
#
# number of rings (size 3 to 8) (size 9 to 14) (size 15 to 20)
#    1.000    0.667    3.333    1.000    2.333    1.333 
#    0.000    0.000    3.667    0.000    0.000    0.000 
#    0.000    0.000    0.000    0.000    0.000    0.000 
#
# Total GULP energy -267351.172163 kJ/mol
# GULP energy per Si atom -5569.816087 kJ/mol
# Density = 2.073443 g / cm^3
# Si number density = 20.781731 Si / 1000 Ang^3
#
#
#
# Elastic Constant Matrix: (Units=GPa)
#
#
# Indices 1 2 3 4 5 6 
#
# 1 45.7894 12.4558 24.4371 0.0000 0.0000 0.0000
# 2 12.4558 101.2840 9.4773 0.0000 0.0000 0.0000
# 3 24.4371 9.4773 93.9345 0.0000 0.0000 0.0000
# 4 0.0000 0.0000 0.0000 17.8875 0.0000 0.0000
# 5 0.0000 0.0000 0.0000 0.0000 31.9667 0.0000
# 6 0.0000 0.0000 0.0000 0.0000 0.0000 38.4506
#
#
#
# Elastic Compliance Matrix: (Units=1/GPa)
#
#
# Indices 1 2 3 4 5 6 
#
# 1 0.026016 -0.002591 -0.006507 0.000000 0.000000 0.000000
# 2 -0.002591 0.010225 -0.000358 0.000000 0.000000 0.000000
# 3 -0.006507 -0.000358 0.012375 0.000000 0.000000 0.000000
# 4 0.000000 0.000000 0.000000 0.055905 0.000000 0.000000
# 5 0.000000 0.000000 0.000000 0.000000 0.031283 0.000000
# 6 0.000000 0.000000 0.000000 0.000000 0.000000 0.026007
#
#
# Mechanical properties :
#
#
# Convention : Reuss Voigt Hill
#
# Bulk Modulus (GPa) = 33.66326 37.08316 35.37321
# Shear Modulus (GPa) = 26.22973 30.63680 28.43326
#
# Velocity S-wave (km/s) = 3.55653 3.84372 3.70291
# Velocity P-wave (km/s) = 5.75316 6.13040 5.94477
#
# Compressibility (1/GPa) = 0.02970598
#
# Stress axis : x y z
#
# Youngs Moduli (GPa) = 38.43728 97.79676 80.81096
#
# Poissons Ratio (x) = 0.25335 0.52582
# Poissons Ratio (y) = 0.09958 0.02891
# Poissons Ratio (z) = 0.25010 0.03498
#
# Static dielectric constant tensor:
#      x y z
#    x 1.781060 0.000000 0.000000 
#    y 0.000000 1.763470 0.000000 
#    z 0.000000 0.000000 1.758100 
# 
# From -- ./inp_files/6149.got.cif
#   From: 2010.05.17/outbox.cif.g08.bks.cpg/sg61_4_cif.got.tgz:6149.got - 2010.06.03 15:17:17.
