data_PCOD9460043
_publ_section_title
;
Structure prediction by ZEFSAII (Michael W. Deem and Ramdas Pophale) SiO2 
 PCOD9460043
Probable space group: P B C A
;
_chemical_formula_sum "Si O2"
_cell_formula_units_Z 64
_cell_length_a 22.952259
_cell_length_b 11.379411
_cell_length_c 10.661042
_cell_angle_alpha 90.000000
_cell_angle_beta 90.000000
_cell_angle_gamma 90.000000
_cell_volume 2784.484943
_symmetry_space_group_name_H-M "P B C A"
_symmetry_group_IT_number 61
_symmetry_cell_setting 'orthorhombic'
loop_
_space_group_symop_operation_xyz
x,y,z
1/2-x,-y,1/2+z
1/2+x,1/2-y,-z
-x,1/2+y,1/2-z
-x,-y,-z
1/2+x,y,1/2-z
1/2-x,1/2+y,z
x,1/2-y,1/2+z
loop_
_atom_site_type_symbol
_atom_site_label
_atom_site_fract_x
_atom_site_fract_y
_atom_site_fract_z
Si Si1 0.349556 0.321969 0.208273
Si Si2 0.627594 0.265876 0.901425
Si Si3 0.447957 0.778897 0.849339
Si Si4 0.442699 0.224909 0.517089
Si Si5 0.637975 0.595624 0.146145
Si Si6 0.160085 0.011427 0.594898
Si Si7 0.431970 0.456781 0.378612
Si Si8 0.789618 0.514918 0.426932
O O1 0.382083 0.257700 0.092848
O O2 0.339074 0.224710 0.313036
O O3 0.397602 0.413938 0.257228
O O4 0.297347 0.403338 0.165154
O O5 0.582568 0.259535 0.784641
O O6 0.667687 0.151123 0.899474
O O7 0.668043 0.379528 0.888267
O O8 0.594475 0.259210 0.035667
O O9 0.506811 0.709072 0.881483
O O10 0.463131 0.919314 0.855779
O O11 0.423219 0.119745 0.424936
O O12 0.460991 0.338731 0.434804
O O13 0.631627 0.525625 0.274083
O O14 0.684321 0.531312 0.058246
O O15 0.222329 0.951066 0.573232
O O16 0.116769 0.987335 0.481746
#
# Coordination Sequence:
#
# PCOD9460043 Si02
#       8
#     8   8   8   8   8   8   8   8
#     4  10  21  42  67  97 135 165 234 274 320 412
#     4  11  26  45  65 100 141 169 232 280 336 418
#     4  11  24  44  67  97 141 178 220 281 348 399
#     4  10  22  41  71  97 132 180 219 271 343 394
#     4  10  23  43  67 102 134 164 239 276 315 419
#     4  11  25  42  69  96 134 177 221 279 341 394
#     4  10  21  41  62  99 131 175 220 275 320 414
#     4  11  25  44  68  96 131 187 215 281 346 392
#
# _framework density 22.984503
#
# number of rings (size 3 to 8) (size 9 to 14) (size 15 to 20)
#    0.000    1.500    2.500    1.125    7.000    0.000 
#    0.000    5.625    0.000    0.000    0.000    0.000 
#    0.000    0.000    0.000    0.000    0.000    0.000 
#
# Total GULP energy -357518.943283 kJ/mol
# GULP energy per Si atom -5586.233489 kJ/mol
# Density = 2.293219 g / cm^3
# Si number density = 22.984503 Si / 1000 Ang^3
#
#
#
# Elastic Constant Matrix: (Units=GPa)
#
#
# Indices 1 2 3 4 5 6 
#
# 1 68.7350 17.5971 19.7670 0.0000 0.0000 0.0000
# 2 17.5971 68.6206 26.4143 0.0000 0.0000 0.0000
# 3 19.7670 26.4143 88.6013 0.0000 0.0000 0.0000
# 4 0.0000 0.0000 0.0000 17.1851 0.0000 0.0000
# 5 0.0000 0.0000 0.0000 0.0000 15.2706 0.0000
# 6 0.0000 0.0000 0.0000 0.0000 0.0000 14.1547
#
#
#
# Elastic Compliance Matrix: (Units=1/GPa)
#
#
# Indices 1 2 3 4 5 6 
#
# 1 0.016111 -0.003104 -0.002669 0.000000 0.000000 0.000000
# 2 -0.003104 0.017060 -0.004394 0.000000 0.000000 0.000000
# 3 -0.002669 -0.004394 0.013192 0.000000 0.000000 0.000000
# 4 0.000000 0.000000 0.000000 0.058190 0.000000 0.000000
# 5 0.000000 0.000000 0.000000 0.000000 0.065485 0.000000
# 6 0.000000 0.000000 0.000000 0.000000 0.000000 0.070648
#
#
# Mechanical properties :
#
#
# Convention : Reuss Voigt Hill
#
# Bulk Modulus (GPa) = 38.41778 39.27930 38.84854
# Shear Modulus (GPa) = 18.53944 20.13400 19.33672
#
# Velocity S-wave (km/s) = 2.84316 2.96291 2.90365
# Velocity P-wave (km/s) = 5.24681 5.36951 5.30852
#
# Compressibility (1/GPa) = 0.02602961
#
# Stress axis : x y z
#
# Youngs Moduli (GPa) = 62.06995 58.61627 75.80491
#
# Poissons Ratio (x) = 0.18195 0.20232
# Poissons Ratio (y) = 0.19267 0.33305
# Poissons Ratio (z) = 0.16566 0.25753
#
# Static dielectric constant tensor:
#      x y z
#    x 1.830210 0.000000 0.000000 
#    y 0.000000 1.915710 0.000000 
#    z 0.000000 0.000000 1.891220 
# 
# From -- ./inp_files/6623.got.cif
#   From: 2010.05.17/outbox.cif.g08.bks.cpg/sg61_4_cif.got.tgz:6623.got - 2010.06.03 15:17:17.
