data_PCOD9460838
_publ_section_title
;
Structure prediction by ZEFSAII (Michael W. Deem and Ramdas Pophale) SiO2 
 PCOD9460838
Probable space group: P B C A
;
_chemical_formula_sum "Si O2"
_cell_formula_units_Z 64
_cell_length_a 17.411489
_cell_length_b 19.548180
_cell_length_c 8.919058
_cell_angle_alpha 90.000000
_cell_angle_beta 90.000000
_cell_angle_gamma 90.000000
_cell_volume 3035.716634
_symmetry_space_group_name_H-M "P B C A"
_symmetry_group_IT_number 61
_symmetry_cell_setting 'orthorhombic'
loop_
_space_group_symop_operation_xyz
x,y,z
1/2-x,-y,1/2+z
1/2+x,1/2-y,-z
-x,1/2+y,1/2-z
-x,-y,-z
1/2+x,y,1/2-z
1/2-x,1/2+y,z
x,1/2-y,1/2+z
loop_
_atom_site_type_symbol
_atom_site_label
_atom_site_fract_x
_atom_site_fract_y
_atom_site_fract_z
Si Si1 0.566530 0.774229 0.692423
Si Si2 0.020085 0.322583 0.406497
Si Si3 0.832766 0.488385 0.644663
Si Si4 0.853917 0.336984 0.977030
Si Si5 0.061481 0.956543 0.096505
Si Si6 0.911919 0.491106 0.954263
Si Si7 0.821800 0.864363 0.983505
Si Si8 0.837618 0.556902 0.205847
O O1 0.521431 0.817146 0.568017
O O2 0.610101 0.715312 0.597525
O O3 0.505110 0.738456 0.801023
O O4 0.620390 0.815135 0.808627
O O5 0.110258 0.325738 0.433226
O O6 0.983820 0.392098 0.340614
O O7 0.869647 0.438733 0.519849
O O8 0.893316 0.495465 0.778622
O O9 0.820170 0.560047 0.558951
O O10 0.751563 0.464667 0.710862
O O11 0.881558 0.415316 0.999887
O O12 0.762417 0.334013 0.992352
O O13 0.103717 0.002809 0.218654
O O14 0.000000 0.000000 0.000000
O O15 0.863459 0.551487 0.034568
O O16 0.000000 0.500000 0.000000
O O17 0.844061 0.876662 0.809183
#
# Coordination Sequence:
#
# PCOD9460838 Si02
#       8
#     8   8   8   8   8   8   8   8
#     4  10  26  44  68  86 120 170 222 258 306 354
#     4  11  23  44  66  91 121 165 213 259 305 375
#     4  11  21  38  56  99 128 161 190 244 321 379
#     4  11  23  47  62  94 125 168 212 266 305 375
#     4  11  20  37  66  91 124 162 195 248 318 375
#     4  12  24  35  65  97 135 156 202 258 324 379
#     4  11  24  40  66  88 132 161 205 255 312 379
#     4  11  21  38  56  99 128 161 190 244 321 379
#
# _framework density 21.082336999999999
#
# number of rings (size 3 to 8) (size 9 to 14) (size 15 to 20)
#    0.000    1.000    5.000    3.000    3.500    1.000 
#    0.000    0.000    0.000    0.000    0.000    0.000 
#    0.000    0.000    0.000    0.000    0.000    0.000 
#
# Total GULP energy -357575.415325 kJ/mol
# GULP energy per Si atom -5587.115864 kJ/mol
# Density = 2.103435 g / cm^3
# Si number density = 21.082337 Si / 1000 Ang^3
#
#
#
# Elastic Constant Matrix: (Units=GPa)
#
#
# Indices 1 2 3 4 5 6 
#
# 1 139.3931 21.9582 11.7152 0.0000 0.0000 0.0000
# 2 21.9582 23.1331 -13.2133 0.0000 0.0000 0.0000
# 3 11.7152 -13.2133 57.9901 0.0000 0.0000 0.0000
# 4 0.0000 0.0000 0.0000 19.3588 0.0000 0.0000
# 5 0.0000 0.0000 0.0000 0.0000 33.5875 0.0000
# 6 0.0000 0.0000 0.0000 0.0000 0.0000 22.5230
#
#
#
# Elastic Compliance Matrix: (Units=1/GPa)
#
#
# Indices 1 2 3 4 5 6 
#
# 1 0.009356 -0.011450 -0.004499 0.000000 0.000000 0.000000
# 2 -0.011450 0.063710 0.016830 0.000000 0.000000 0.000000
# 3 -0.004499 0.016830 0.021988 0.000000 0.000000 0.000000
# 4 0.000000 0.000000 0.000000 0.051656 0.000000 0.000000
# 5 0.000000 0.000000 0.000000 0.000000 0.029773 0.000000
# 6 0.000000 0.000000 0.000000 0.000000 0.000000 0.044399
#
#
# Mechanical properties :
#
#
# Convention : Reuss Voigt Hill
#
# Bulk Modulus (GPa) = 10.32908 29.04849 19.68879
# Shear Modulus (GPa) = 19.88921 28.43095 24.16008
#
# Velocity S-wave (km/s) = 3.07482 3.67627 3.38892
# Velocity P-wave (km/s) = 4.18522 5.64167 4.96712
#
# Compressibility (1/GPa) = 0.09681406
#
# Stress axis : x y z
#
# Youngs Moduli (GPa) = 106.88521 15.69617 45.47940
#
# Poissons Ratio (x) = 0.17973 0.20462
# Poissons Ratio (y) = 1.22388 -0.76541
# Poissons Ratio (z) = 0.48089 -0.26416
#
# Static dielectric constant tensor:
#      x y z
#    x 1.743260 0.000000 0.000000 
#    y 0.000000 1.754480 0.000000 
#    z 0.000000 0.000000 1.799090 
# 
# From -- ./inp_files/3702.got.cif
#   From: 2010.05.17/outbox.cif.g08.bks.cpg/sg61_2_cif.got.tgz:3702.got - 2010.06.03 15:17:17.
