data_PCOD9460041
_publ_section_title
;
Structure prediction by ZEFSAII (Michael W. Deem and Ramdas Pophale) SiO2 
 PCOD9460041
Probable space group: P B C A
;
_chemical_formula_sum "Si O2"
_cell_formula_units_Z 40
_cell_length_a 9.954969
_cell_length_b 10.949206
_cell_length_c 14.248581
_cell_angle_alpha 90.000000
_cell_angle_beta 90.000000
_cell_angle_gamma 90.000000
_cell_volume 1553.081170
_symmetry_space_group_name_H-M "P B C A"
_symmetry_group_IT_number 61
_symmetry_cell_setting 'orthorhombic'
loop_
_space_group_symop_operation_xyz
x,y,z
1/2-x,-y,1/2+z
1/2+x,1/2-y,-z
-x,1/2+y,1/2-z
-x,-y,-z
1/2+x,y,1/2-z
1/2-x,1/2+y,z
x,1/2-y,1/2+z
loop_
_atom_site_type_symbol
_atom_site_label
_atom_site_fract_x
_atom_site_fract_y
_atom_site_fract_z
Si Si1 0.032095 0.254967 0.000040
Si Si2 0.778588 0.123880 0.526046
Si Si3 0.232681 0.199620 0.772313
Si Si4 0.490209 0.158576 0.290514
Si Si5 0.630682 0.943678 0.383434
O O1 0.191917 0.251238 0.985389
O O2 0.967076 0.147987 0.937477
O O3 0.007634 0.219452 0.107584
O O4 0.929797 0.366570 0.987796
O O5 0.768470 0.114309 0.638454
O O6 0.699376 0.028904 0.461906
O O7 0.089772 0.265900 0.776242
O O8 0.338936 0.311690 0.763335
O O9 0.256924 0.122153 0.678828
O O10 0.540483 0.022484 0.310080
#
# Coordination Sequence:
#
# PCOD9460041 Si02
#       5
#     8   8   8   8   8
#     4  10  21  41  62  87 123 164 209 259 316 377
#     4  10  22  41  65  92 127 169 210 263 320 375
#     4  11  24  41  63  97 131 164 217 267 311 380
#     4  10  23  40  62  92 127 168 211 262 317 374
#     4  11  22  41  67  92 127 173 212 259 324 382
#
# _framework density 25.755254000000001
#
# number of rings (size 3 to 8) (size 9 to 14) (size 15 to 20)
#    0.000    1.600    0.000    6.000    0.000    6.400 
#    0.000   11.000    0.000    0.000    0.000    1.400 
#    0.000    0.000    0.000    0.000    0.000    0.000 
#
# Total GULP energy -223783.834264 kJ/mol
# GULP energy per Si atom -5594.595857 kJ/mol
# Density = 2.569663 g / cm^3
# Si number density = 25.755254 Si / 1000 Ang^3
#
#
#
# Elastic Constant Matrix: (Units=GPa)
#
#
# Indices 1 2 3 4 5 6 
#
# 1 114.2788 31.9242 11.3044 0.0000 0.0000 0.0000
# 2 31.9242 76.7638 42.5337 0.0000 0.0000 0.0000
# 3 11.3044 42.5337 103.5990 0.0000 0.0000 0.0000
# 4 0.0000 0.0000 0.0000 42.1408 0.0000 0.0000
# 5 0.0000 0.0000 0.0000 0.0000 41.6144 0.0000
# 6 0.0000 0.0000 0.0000 0.0000 0.0000 29.8699
#
#
#
# Elastic Compliance Matrix: (Units=1/GPa)
#
#
# Indices 1 2 3 4 5 6 
#
# 1 0.009951 -0.004578 0.000794 0.000000 0.000000 0.000000
# 2 -0.004578 0.018969 -0.007289 0.000000 0.000000 0.000000
# 3 0.000794 -0.007289 0.012558 0.000000 0.000000 0.000000
# 4 0.000000 0.000000 0.000000 0.023730 0.000000 0.000000
# 5 0.000000 0.000000 0.000000 0.000000 0.024030 0.000000
# 6 0.000000 0.000000 0.000000 0.000000 0.000000 0.033479
#
#
# Mechanical properties :
#
#
# Convention : Reuss Voigt Hill
#
# Bulk Modulus (GPa) = 51.72537 51.79626 51.76081
# Shear Modulus (GPa) = 33.04527 36.65030 34.84778
#
# Velocity S-wave (km/s) = 3.58585 3.77639 3.68235
# Velocity P-wave (km/s) = 6.10504 6.25855 6.18227
#
# Compressibility (1/GPa) = 0.01933287
#
# Stress axis : x y z
#
# Youngs Moduli (GPa) = 100.49293 52.71641 79.62808
#
# Poissons Ratio (x) = 0.24135 -0.06321
# Poissons Ratio (y) = 0.46008 0.58037
# Poissons Ratio (z) = -0.07977 0.38423
#
# Static dielectric constant tensor:
#      x y z
#    x 2.079650 0.000000 0.000000 
#    y 0.000000 2.069830 0.000000 
#    z 0.000000 0.000000 2.015630 
# 
# From -- ./inp_files/5083.got.cif
#   From: 2010.05.17/outbox.cif.g08.bks.cpg/sg61_3_cif.got.tgz:5083.got - 2010.06.03 15:17:17.
