data_PCOD9460494
_publ_section_title
;
Structure prediction by ZEFSAII (Michael W. Deem and Ramdas Pophale) SiO2 
 PCOD9460494
Probable space group: P B C A
;
_chemical_formula_sum "Si O2"
_cell_formula_units_Z 44
_cell_length_a 15.635902
_cell_length_b 9.650435
_cell_length_c 11.587943
_cell_angle_alpha 90.000000
_cell_angle_beta 90.000000
_cell_angle_gamma 90.000000
_cell_volume 1748.542449
_symmetry_space_group_name_H-M "P B C A"
_symmetry_group_IT_number 61
_symmetry_cell_setting 'orthorhombic'
loop_
_space_group_symop_operation_xyz
x,y,z
1/2-x,-y,1/2+z
1/2+x,1/2-y,-z
-x,1/2+y,1/2-z
-x,-y,-z
1/2+x,y,1/2-z
1/2-x,1/2+y,z
x,1/2-y,1/2+z
loop_
_atom_site_type_symbol
_atom_site_label
_atom_site_fract_x
_atom_site_fract_y
_atom_site_fract_z
Si Si1 0.767925 0.724878 0.969446
Si Si2 0.643520 0.631708 0.162783
Si Si3 0.413905 0.418573 0.361386
Si Si4 0.106668 0.000182 0.605227
Si Si5 0.160653 0.496571 0.648270
Si Si6 0.500000 0.000000 0.500000
O O1 0.725647 0.695937 0.094838
O O2 0.790516 0.622615 0.423910
O O3 0.856774 0.641513 0.949670
O O4 0.704121 0.642006 0.884843
O O5 0.586011 0.765966 0.192370
O O6 0.655412 0.545450 0.279577
O O7 0.587267 0.539911 0.075872
O O8 0.507626 0.482674 0.364364
O O9 0.388514 0.398060 0.495799
O O10 0.347356 0.507621 0.287110
O O11 0.061174 0.490997 0.613093
#
# Coordination Sequence:
#
# PCOD9460494 Si02
#       6
#     8   8   8   8   8   4
#     4  11  27  48  77 114 155 210 266 333 417 466
#     4  11  25  48  79 113 163 208 273 338 404 497
#     4  11  26  46  77 112 158 213 276 329 406 494
#     4  11  26  47  75 117 153 211 268 335 403 501
#     4  11  25  50  77 112 157 212 269 335 402 495
#     4  10  22  48  76 108 148 220 260 324 406 482
#
# _framework density 25.163815
#
# number of rings (size 3 to 8) (size 9 to 14) (size 15 to 20)
#    0.000    1.091    1.818    2.182   10.182    0.000 
#    9.818    0.000    0.000    0.000    0.000    0.000 
#    0.000    0.000    0.000    0.000    0.000    0.000 
#
# Total GULP energy -245004.035998 kJ/mol
# GULP energy per Si atom -5568.273545 kJ/mol
# Density = 2.510654 g / cm^3
# Si number density = 25.163815 Si / 1000 Ang^3
#
#
#
# Elastic Constant Matrix: (Units=GPa)
#
#
# Indices 1 2 3 4 5 6 
#
# 1 113.3376 26.2006 52.2262 0.0000 0.0000 0.0000
# 2 26.2006 86.3022 43.3557 0.0000 0.0000 0.0000
# 3 52.2262 43.3557 156.2661 0.0000 0.0000 0.0000
# 4 0.0000 0.0000 0.0000 27.4792 0.0000 0.0000
# 5 0.0000 0.0000 0.0000 0.0000 60.1363 0.0000
# 6 0.0000 0.0000 0.0000 0.0000 0.0000 22.9105
#
#
#
# Elastic Compliance Matrix: (Units=1/GPa)
#
#
# Indices 1 2 3 4 5 6 
#
# 1 0.010634 -0.001677 -0.003089 0.000000 0.000000 0.000000
# 2 -0.001677 0.013728 -0.003248 0.000000 0.000000 0.000000
# 3 -0.003089 -0.003248 0.008333 0.000000 0.000000 0.000000
# 4 0.000000 0.000000 0.000000 0.036391 0.000000 0.000000
# 5 0.000000 0.000000 0.000000 0.000000 0.016629 0.000000
# 6 0.000000 0.000000 0.000000 0.000000 0.000000 0.043648
#
#
# Mechanical properties :
#
#
# Convention : Reuss Voigt Hill
#
# Bulk Modulus (GPa) = 59.99805 66.60788 63.30296
# Shear Modulus (GPa) = 33.12418 37.71345 35.41881
#
# Velocity S-wave (km/s) = 3.63208 3.87553 3.75578
# Velocity P-wave (km/s) = 6.44081 6.82301 6.63466
#
# Compressibility (1/GPa) = 0.01666721
#
# Stress axis : x y z
#
# Youngs Moduli (GPa) = 94.03653 72.84304 120.00517
#
# Poissons Ratio (x) = 0.12213 0.37068
# Poissons Ratio (y) = 0.15767 0.38983
# Poissons Ratio (z) = 0.29047 0.23663
#
# Static dielectric constant tensor:
#      x y z
#    x 1.970450 0.000000 0.000000 
#    y 0.000000 1.974040 0.000000 
#    z 0.000000 0.000000 2.100000 
# 
# From -- ./inp_files/6119.got.cif
#   From: 2010.05.17/outbox.cif.g08.bks.cpg/sg61_4_cif.got.tgz:6119.got - 2010.06.03 15:17:17.
