data_PCOD9460476
_publ_section_title
;
Structure prediction by ZEFSAII (Michael W. Deem and Ramdas Pophale) SiO2 
 PCOD9460476
Probable space group: P B C A
;
_chemical_formula_sum "Si O2"
_cell_formula_units_Z 40
_cell_length_a 5.729923
_cell_length_b 8.970668
_cell_length_c 28.034120
_cell_angle_alpha 90.000000
_cell_angle_beta 90.000000
_cell_angle_gamma 90.000000
_cell_volume 1440.988443
_symmetry_space_group_name_H-M "P B C A"
_symmetry_group_IT_number 61
_symmetry_cell_setting 'orthorhombic'
loop_
_space_group_symop_operation_xyz
x,y,z
1/2-x,-y,1/2+z
1/2+x,1/2-y,-z
-x,1/2+y,1/2-z
-x,-y,-z
1/2+x,y,1/2-z
1/2-x,1/2+y,z
x,1/2-y,1/2+z
loop_
_atom_site_type_symbol
_atom_site_label
_atom_site_fract_x
_atom_site_fract_y
_atom_site_fract_z
Si Si1 0.734237 0.063081 0.750223
Si Si2 0.932417 0.472586 0.080727
Si Si3 0.697738 0.845826 0.841386
Si Si4 0.935298 0.951401 0.148050
Si Si5 0.284656 0.830241 0.005851
O O1 0.484094 0.144899 0.755020
O O2 0.702172 0.007703 0.696093
O O3 0.718656 0.929848 0.789680
O O4 0.731900 0.384136 0.108243
O O5 0.808224 0.546935 0.035356
O O6 0.015763 0.583457 0.121806
O O7 0.158465 0.394094 0.058271
O O8 0.633386 0.672695 0.838902
O O9 0.940305 0.894722 0.865899
O O10 0.524005 0.734580 0.996853
#
# Coordination Sequence:
#
# PCOD9460476 Si02
#       5
#     8   8   8   8   8
#     4  10  22  46  68 109 151 204 252 313 374 449
#     4  11  26  48  77 112 155 210 262 326 403 472
#     4  11  26  46  78 113 160 210 265 324 391 471
#     4  11  26  48  76 117 158 211 266 324 393 469
#     4  11  28  49  79 113 155 200 265 332 402 475
#
# _framework density 27.758721000000001
#
# number of rings (size 3 to 8) (size 9 to 14) (size 15 to 20)
#    0.000    1.200    2.000    1.200    8.400    9.600 
#    0.000    0.000    0.000    0.000    0.000    0.000 
#    0.000    0.000    0.000    0.000    0.000    0.000 
#
# Total GULP energy -223409.924145 kJ/mol
# GULP energy per Si atom -5585.248104 kJ/mol
# Density = 2.769554 g / cm^3
# Si number density = 27.758721 Si / 1000 Ang^3
#
#
#
# Elastic Constant Matrix: (Units=GPa)
#
#
# Indices 1 2 3 4 5 6 
#
# 1 166.4909 45.6277 29.8818 0.0000 0.0000 0.0000
# 2 45.6277 91.5665 50.7230 0.0000 0.0000 0.0000
# 3 29.8818 50.7230 145.9901 0.0000 0.0000 0.0000
# 4 0.0000 0.0000 0.0000 33.2109 0.0000 0.0000
# 5 0.0000 0.0000 0.0000 0.0000 52.9137 0.0000
# 6 0.0000 0.0000 0.0000 0.0000 0.0000 44.5481
#
#
#
# Elastic Compliance Matrix: (Units=1/GPa)
#
#
# Indices 1 2 3 4 5 6 
#
# 1 0.006965 -0.003320 -0.000272 0.000000 0.000000 0.000000
# 2 -0.003320 0.015106 -0.004569 0.000000 0.000000 0.000000
# 3 -0.000272 -0.004569 0.008493 0.000000 0.000000 0.000000
# 4 0.000000 0.000000 0.000000 0.030111 0.000000 0.000000
# 5 0.000000 0.000000 0.000000 0.000000 0.018899 0.000000
# 6 0.000000 0.000000 0.000000 0.000000 0.000000 0.022448
#
#
# Mechanical properties :
#
#
# Convention : Reuss Voigt Hill
#
# Bulk Modulus (GPa) = 70.21433 72.94586 71.58009
# Shear Modulus (GPa) = 40.62039 44.65554 42.63796
#
# Velocity S-wave (km/s) = 3.82951 4.01522 3.92346
# Velocity P-wave (km/s) = 6.70097 6.91603 6.80935
#
# Compressibility (1/GPa) = 0.01424211
#
# Stress axis : x y z
#
# Youngs Moduli (GPa) = 143.57450 66.19730 117.74463
#
# Poissons Ratio (x) = 0.21977 0.03204
# Poissons Ratio (y) = 0.47666 0.53798
# Poissons Ratio (z) = 0.03907 0.30246
#
# Static dielectric constant tensor:
#      x y z
#    x 2.245570 0.000000 0.000000 
#    y 0.000000 2.142000 0.000000 
#    z 0.000000 0.000000 2.156110 
# 
# From -- ./inp_files/11202.got.cif
#   From: 2010.05.17/outbox.cif.g08.bks.cpg/sg61_6_cif.got.tgz:11202.got - 2010.06.03 15:17:17.
