data_PCOD9460051
_publ_section_title
;
Structure prediction by ZEFSAII (Michael W. Deem and Ramdas Pophale) SiO2 
 PCOD9460051
Probable space group: P B C A
;
_chemical_formula_sum "Si O2"
_cell_formula_units_Z 56
_cell_length_a 13.641798
_cell_length_b 30.090052
_cell_length_c 5.674403
_cell_angle_alpha 90.000000
_cell_angle_beta 90.000000
_cell_angle_gamma 90.000000
_cell_volume 2329.242626
_symmetry_space_group_name_H-M "P B C A"
_symmetry_group_IT_number 61
_symmetry_cell_setting 'orthorhombic'
loop_
_space_group_symop_operation_xyz
x,y,z
1/2-x,-y,1/2+z
1/2+x,1/2-y,-z
-x,1/2+y,1/2-z
-x,-y,-z
1/2+x,y,1/2-z
1/2-x,1/2+y,z
x,1/2-y,1/2+z
loop_
_atom_site_type_symbol
_atom_site_label
_atom_site_fract_x
_atom_site_fract_y
_atom_site_fract_z
Si Si1 0.876805 0.868165 0.518331
Si Si2 0.214288 0.748792 0.148645
Si Si3 0.042955 0.045234 0.762407
Si Si4 0.182219 0.434435 0.639980
Si Si5 0.346882 0.482483 0.428973
Si Si6 0.413361 0.340941 0.640635
Si Si7 0.335099 0.153467 0.642838
O O1 0.922425 0.912089 0.391865
O O2 0.823782 0.886297 0.753392
O O3 0.783657 0.851031 0.371366
O O4 0.969308 0.838714 0.596897
O O5 0.270389 0.750099 0.898610
O O6 0.148610 0.793192 0.147224
O O7 0.145624 0.705494 0.149861
O O8 0.929147 0.036510 0.741257
O O9 0.095395 0.001102 0.656879
O O10 0.078726 0.055010 0.022781
O O11 0.265085 0.445518 0.454907
O O12 0.201870 0.472730 0.830766
O O13 0.386941 0.362794 0.897807
O O14 0.375630 0.362780 0.394506
#
# Coordination Sequence:
#
# PCOD9460051 Si02
#       7
#     8   8   8   8   8   8   8
#     4  11  27  40  63 103 134 180 231 281 359 416
#     4   8  16  38  65  93 127 174 222 271 334 397
#     4  10  23  40  61  92 129 172 228 280 350 406
#     4  11  22  42  64  95 129 178 233 287 349 416
#     4  10  21  41  65  89 124 173 230 285 334 414
#     4  10  23  44  67  99 141 178 227 287 344 410
#     4  10  23  43  70  97 139 180 226 282 342 414
#
# _framework density 24.042151
#
# number of rings (size 3 to 8) (size 9 to 14) (size 15 to 20)
#    0.000    2.000    1.429    0.429    6.000    0.000 
#    0.000   12.857    0.000    0.000    0.000    0.000 
#    0.000    0.000    0.000    0.000    0.000    0.000 
#
# Total GULP energy -312346.277690 kJ/mol
# GULP energy per Si atom -5577.612102 kJ/mol
# Density = 2.398743 g / cm^3
# Si number density = 24.042151 Si / 1000 Ang^3
#
#
#
# Elastic Constant Matrix: (Units=GPa)
#
#
# Indices 1 2 3 4 5 6 
#
# 1 100.2766 14.2245 2.9787 0.0000 0.0000 0.0000
# 2 14.2245 58.1814 -2.3252 0.0000 0.0000 0.0000
# 3 2.9787 -2.3252 136.3712 0.0000 0.0000 0.0000
# 4 0.0000 0.0000 0.0000 18.9272 0.0000 0.0000
# 5 0.0000 0.0000 0.0000 0.0000 23.5476 0.0000
# 6 0.0000 0.0000 0.0000 0.0000 0.0000 8.2332
#
#
#
# Elastic Compliance Matrix: (Units=1/GPa)
#
#
# Indices 1 2 3 4 5 6 
#
# 1 0.010341 -0.002539 -0.000269 0.000000 0.000000 0.000000
# 2 -0.002539 0.017823 0.000359 0.000000 0.000000 0.000000
# 3 -0.000269 0.000359 0.007345 0.000000 0.000000 0.000000
# 4 0.000000 0.000000 0.000000 0.052834 0.000000 0.000000
# 5 0.000000 0.000000 0.000000 0.000000 0.042467 0.000000
# 6 0.000000 0.000000 0.000000 0.000000 0.000000 0.121460
#
#
# Mechanical properties :
#
#
# Convention : Reuss Voigt Hill
#
# Bulk Modulus (GPa) = 32.66818 36.06502 34.36660
# Shear Modulus (GPa) = 18.70063 28.80499 23.75281
#
# Velocity S-wave (km/s) = 2.79198 3.46512 3.14660
# Velocity P-wave (km/s) = 4.90009 5.57160 5.24660
#
# Compressibility (1/GPa) = 0.03061083
#
# Stress axis : x y z
#
# Youngs Moduli (GPa) = 96.70658 56.10822 136.14833
#
# Poissons Ratio (x) = 0.14245 0.03664
# Poissons Ratio (y) = 0.24552 -0.04892
# Poissons Ratio (z) = 0.02603 -0.02016
#
# Static dielectric constant tensor:
#      x y z
#    x 1.920880 0.000000 0.000000 
#    y 0.000000 1.932170 0.000000 
#    z 0.000000 0.000000 2.071270 
# 
# From -- ./inp_files/613.got.cif
#   From: 2010.05.17/outbox.cif.g08.bks.cpg/sg61_1_cif.got.tgz:613.got - 2010.06.03 15:17:17.
