data_PCOD9460931
_publ_section_title
;
Structure prediction by ZEFSAII (Michael W. Deem and Ramdas Pophale) SiO2 
 PCOD9460931
Probable space group: P B C A
;
_chemical_formula_sum "Si O2"
_cell_formula_units_Z 32
_cell_length_a 11.056676
_cell_length_b 13.328482
_cell_length_c 11.929256
_cell_angle_alpha 90.000000
_cell_angle_beta 90.000000
_cell_angle_gamma 90.000000
_cell_volume 1757.999033
_symmetry_space_group_name_H-M "P B C A"
_symmetry_group_IT_number 61
_symmetry_cell_setting 'orthorhombic'
loop_
_space_group_symop_operation_xyz
x,y,z
1/2-x,-y,1/2+z
1/2+x,1/2-y,-z
-x,1/2+y,1/2-z
-x,-y,-z
1/2+x,y,1/2-z
1/2-x,1/2+y,z
x,1/2-y,1/2+z
loop_
_atom_site_type_symbol
_atom_site_label
_atom_site_fract_x
_atom_site_fract_y
_atom_site_fract_z
Si Si1 0.804316 0.965915 0.976624
Si Si2 0.578696 0.630558 0.571262
Si Si3 0.450249 0.134268 0.403371
Si Si4 0.576296 0.962707 0.838173
O O1 0.714938 0.912971 0.066149
O O2 0.916711 0.895190 0.947542
O O3 0.716429 0.981133 0.870039
O O4 0.856168 0.069956 0.022643
O O5 0.573085 0.747937 0.590864
O O6 0.498322 0.565795 0.656285
O O7 0.530836 0.603101 0.445310
O O8 0.439076 0.093964 0.277118
#
# Coordination Sequence:
#
# PCOD9460931 Si02
#       4
#     8   8   8   8
#     4   9  23  40  59  95 128 151 220 262 283 407
#     4   9  22  41  62  91 127 165 202 266 308 372
#     4  11  22  40  67  93 122 174 208 251 331 363
#     4   9  22  41  62  92 130 163 204 265 309 370
#
# _framework density 18.202513
#
# number of rings (size 3 to 8) (size 9 to 14) (size 15 to 20)
#    1.500    1.000    0.000    0.000    7.000    4.000 
#    4.500    0.000    0.000    0.000    0.000    0.000 
#    0.000    0.000    0.000    0.000    0.000    0.000 
#
# Total GULP energy -178233.921809 kJ/mol
# GULP energy per Si atom -5569.810057 kJ/mol
# Density = 1.816108 g / cm^3
# Si number density = 18.202513 Si / 1000 Ang^3
#
#
#
# Elastic Constant Matrix: (Units=GPa)
#
#
# Indices 1 2 3 4 5 6 
#
# 1 113.4705 81.4392 8.0838 0.0000 0.0000 0.0000
# 2 81.4392 182.4160 33.9874 0.0000 0.0000 0.0000
# 3 8.0838 33.9874 33.8347 0.0000 0.0000 0.0000
# 4 0.0000 0.0000 0.0000 21.4507 0.0000 0.0000
# 5 0.0000 0.0000 0.0000 0.0000 -7.0703 0.0000
# 6 0.0000 0.0000 0.0000 0.0000 0.0000 13.1271
#
#
#
# Elastic Compliance Matrix: (Units=1/GPa)
#
#
# Indices 1 2 3 4 5 6 
#
# 1 0.013283 -0.006568 0.003424 0.000000 0.000000 0.000000
# 2 -0.006568 0.009992 -0.008468 0.000000 0.000000 0.000000
# 3 0.003424 -0.008468 0.037243 0.000000 0.000000 0.000000
# 4 0.000000 0.000000 0.000000 0.046619 0.000000 0.000000
# 5 0.000000 0.000000 0.000000 0.000000 -0.141436 0.000000
# 6 0.000000 0.000000 0.000000 0.000000 0.000000 0.076178
#
#
# Mechanical properties :
#
#
# Convention : Reuss Voigt Hill
#
# Bulk Modulus (GPa) = 26.81338 64.08245 45.44791
# Shear Modulus (GPa) = 64.48744 19.24887 41.86816
#
# Velocity S-wave (km/s) = 5.95858 3.25543 4.80117
# Velocity P-wave (km/s) = 7.88049 7.02937 7.46707
#
# Compressibility (1/GPa) = 0.03729481
#
# Stress axis : x y z
#
# Youngs Moduli (GPa) = 75.28453 100.07994 26.85038
#
# Poissons Ratio (x) = 0.65734 -0.09194
# Poissons Ratio (y) = 0.49448 0.22736
# Poissons Ratio (z) = -0.25779 0.84746
#
# Static dielectric constant tensor:
#      x y z
#    x 1.642430 0.000000 0.000000 
#    y 0.000000 1.576760 0.000000 
#    z 0.000000 0.000000 1.631180 
# 
# From -- ./inp_files/5017.got.cif
#   From: 2010.05.17/outbox.cif.g08.bks.cpg/sg61_3_cif.got.tgz:5017.got - 2010.06.03 15:17:17.
