data_PCOD9460280
_publ_section_title
;
Structure prediction by ZEFSAII (Michael W. Deem and Ramdas Pophale) SiO2 
 PCOD9460280
Probable space group: P B C A
;
_chemical_formula_sum "Si O2"
_cell_formula_units_Z 64
_cell_length_a 9.874659
_cell_length_b 20.946781
_cell_length_c 14.407648
_cell_angle_alpha 90.000000
_cell_angle_beta 90.000000
_cell_angle_gamma 90.000000
_cell_volume 2980.111331
_symmetry_space_group_name_H-M "P B C A"
_symmetry_group_IT_number 61
_symmetry_cell_setting 'orthorhombic'
loop_
_space_group_symop_operation_xyz
x,y,z
1/2-x,-y,1/2+z
1/2+x,1/2-y,-z
-x,1/2+y,1/2-z
-x,-y,-z
1/2+x,y,1/2-z
1/2-x,1/2+y,z
x,1/2-y,1/2+z
loop_
_atom_site_type_symbol
_atom_site_label
_atom_site_fract_x
_atom_site_fract_y
_atom_site_fract_z
Si Si1 0.435910 0.453691 0.077632
Si Si2 0.811384 0.350941 0.160376
Si Si3 0.689116 0.024428 0.685384
Si Si4 0.256518 0.552919 0.147626
Si Si5 0.606747 0.553758 0.526298
Si Si6 0.536205 0.186475 0.549117
Si Si7 0.613328 0.736654 0.295151
Si Si8 0.094929 0.323466 0.659579
O O1 0.532673 0.463877 0.166422
O O2 0.294100 0.484488 0.103321
O O3 0.452353 0.380213 0.051732
O O4 0.500000 0.500000 0.000000
O O5 0.750354 0.408751 0.222267
O O6 0.921448 0.385943 0.093863
O O7 0.684143 0.328098 0.095912
O O8 0.866222 0.296510 0.225726
O O9 0.772710 0.021231 0.588336
O O10 0.708556 0.964149 0.750347
O O11 0.381583 0.600822 0.149580
O O12 0.155251 0.581534 0.072150
O O13 0.500000 0.500000 0.500000
O O14 0.458432 0.237735 0.611770
O O15 0.553135 0.203303 0.441232
O O16 0.513435 0.690643 0.238716
O O17 0.759437 0.705931 0.313405
#
# Coordination Sequence:
#
# PCOD9460280 Si02
#       8
#     8   8   8   8   8   8   8   8
#     4  11  19  42  69  94 128 173 215 285 352 413
#     4   9  20  48  65  95 134 177 233 290 339 424
#     4   9  22  36  65  96 128 166 217 275 346 414
#     4  12  23  41  65  99 138 172 223 281 358 412
#     4  10  22  40  64  96 136 168 213 286 352 409
#     4  11  23  46  73  96 139 181 238 297 353 421
#     4  12  27  47  72 100 138 194 249 284 358 417
#     4  12  28  44  72 101 142 190 237 302 337 435
#
# _framework density 21.475708000000001
#
# number of rings (size 3 to 8) (size 9 to 14) (size 15 to 20)
#    0.750    0.500    5.000    0.750    5.250    1.000 
#    2.250    0.000    0.000    0.000    0.000    0.000 
#    0.000    0.000    0.000    0.000    0.000    0.000 
#
# Total GULP energy -356938.439311 kJ/mol
# GULP energy per Si atom -5577.163114 kJ/mol
# Density = 2.142683 g / cm^3
# Si number density = 21.475708 Si / 1000 Ang^3
#
#
#
# Elastic Constant Matrix: (Units=GPa)
#
#
# Indices 1 2 3 4 5 6 
#
# 1 56.0294 18.5809 18.5144 0.0000 0.0000 0.0000
# 2 18.5809 54.3103 30.5494 0.0000 0.0000 0.0000
# 3 18.5144 30.5494 98.2535 0.0000 0.0000 0.0000
# 4 0.0000 0.0000 0.0000 44.2593 0.0000 0.0000
# 5 0.0000 0.0000 0.0000 0.0000 22.1561 0.0000
# 6 0.0000 0.0000 0.0000 0.0000 0.0000 37.4138
#
#
#
# Elastic Compliance Matrix: (Units=1/GPa)
#
#
# Indices 1 2 3 4 5 6 
#
# 1 0.020462 -0.005856 -0.002035 0.000000 0.000000 0.000000
# 2 -0.005856 0.023991 -0.006356 0.000000 0.000000 0.000000
# 3 -0.002035 -0.006356 0.012537 0.000000 0.000000 0.000000
# 4 0.000000 0.000000 0.000000 0.022594 0.000000 0.000000
# 5 0.000000 0.000000 0.000000 0.000000 0.045134 0.000000
# 6 0.000000 0.000000 0.000000 0.000000 0.000000 0.026728
#
#
# Mechanical properties :
#
#
# Convention : Reuss Voigt Hill
#
# Bulk Modulus (GPa) = 35.09130 38.20915 36.65022
# Shear Modulus (GPa) = 26.39348 30.16240 28.27794
#
# Velocity S-wave (km/s) = 3.50950 3.75172 3.63263
# Velocity P-wave (km/s) = 5.72692 6.04960 5.89047
#
# Compressibility (1/GPa) = 0.02849709
#
# Stress axis : x y z
#
# Youngs Moduli (GPa) = 48.87057 41.68160 79.76086
#
# Poissons Ratio (x) = 0.24408 0.16232
# Poissons Ratio (y) = 0.28618 0.50696
# Poissons Ratio (z) = 0.09945 0.26493
#
# Static dielectric constant tensor:
#      x y z
#    x 1.800970 0.000000 0.000000 
#    y 0.000000 1.825540 0.000000 
#    z 0.000000 0.000000 1.811860 
# 
# From -- ./inp_files/7249.got.cif
#   From: 2010.05.17/outbox.cif.g08.bks.cpg/sg61_4_cif.got.tgz:7249.got - 2010.06.03 15:17:17.
