data_PCOD9460204
_publ_section_title
;
Structure prediction by ZEFSAII (Michael W. Deem and Ramdas Pophale) SiO2 
 PCOD9460204
Probable space group: P B C A
;
_chemical_formula_sum "Si O2"
_cell_formula_units_Z 48
_cell_length_a 19.416396
_cell_length_b 22.264457
_cell_length_c 5.046630
_cell_angle_alpha 90.000000
_cell_angle_beta 90.000000
_cell_angle_gamma 90.000000
_cell_volume 2181.635509
_symmetry_space_group_name_H-M "P B C A"
_symmetry_group_IT_number 61
_symmetry_cell_setting 'orthorhombic'
loop_
_space_group_symop_operation_xyz
x,y,z
1/2-x,-y,1/2+z
1/2+x,1/2-y,-z
-x,1/2+y,1/2-z
-x,-y,-z
1/2+x,y,1/2-z
1/2-x,1/2+y,z
x,1/2-y,1/2+z
loop_
_atom_site_type_symbol
_atom_site_label
_atom_site_fract_x
_atom_site_fract_y
_atom_site_fract_z
Si Si1 0.618660 0.414734 0.203609
Si Si2 0.033733 0.906287 0.020897
Si Si3 0.250773 0.460805 0.571315
Si Si4 0.552555 0.783071 0.197215
Si Si5 0.114040 0.214018 0.635534
Si Si6 0.401852 0.041458 0.007467
O O1 0.548361 0.402546 0.043696
O O2 0.631561 0.355804 0.378642
O O3 0.605728 0.474256 0.377743
O O4 0.683176 0.425285 0.011755
O O5 0.064388 0.846055 0.155043
O O6 0.062377 0.957256 0.221700
O O7 0.055781 0.920582 0.723513
O O8 0.247972 0.519449 0.377101
O O9 0.324355 0.432825 0.498410
O O10 0.577591 0.731970 0.402738
O O11 0.469465 0.781614 0.154083
O O12 0.139914 0.254910 0.400195
#
# Coordination Sequence:
#
# PCOD9460204 Si02
#       6
#     8   8   8   8   8   8
#     4  10  22  38  61  84 115 153 189 235 286 337
#     4  11  22  35  58  88 115 144 192 244 282 329
#     4  10  22  39  57  80 112 153 186 215 276 354
#     4   9  17  32  52  76 108 147 186 229 281 334
#     4   9  19  33  53  81 108 139 188 239 279 323
#     4  11  22  37  55  87 122 150 182 232 289 343
#
# _framework density 22.001840000000001
#
# number of rings (size 3 to 8) (size 9 to 14) (size 15 to 20)
#    0.000    2.000    0.000    4.000    0.000   10.667 
#    0.000    0.000    0.000    6.000    0.000    0.000 
#    0.000    0.000    0.000    0.000    0.000    0.000 
#
# Total GULP energy -268221.183976 kJ/mol
# GULP energy per Si atom -5587.941333 kJ/mol
# Density = 2.195176 g / cm^3
# Si number density = 22.001840 Si / 1000 Ang^3
#
#
#
# Elastic Constant Matrix: (Units=GPa)
#
#
# Indices 1 2 3 4 5 6 
#
# 1 93.3409 -9.3615 1.6627 0.0000 0.0000 0.0000
# 2 -9.3615 82.8884 3.8005 0.0000 0.0000 0.0000
# 3 1.6627 3.8005 88.4150 0.0000 0.0000 0.0000
# 4 0.0000 0.0000 0.0000 14.3794 0.0000 0.0000
# 5 0.0000 0.0000 0.0000 0.0000 31.8637 0.0000
# 6 0.0000 0.0000 0.0000 0.0000 0.0000 0.2319
#
#
#
# Elastic Compliance Matrix: (Units=1/GPa)
#
#
# Indices 1 2 3 4 5 6 
#
# 1 0.010842 0.001236 -0.000257 0.000000 0.000000 0.000000
# 2 0.001236 0.012229 -0.000549 0.000000 0.000000 0.000000
# 3 -0.000257 -0.000549 0.011339 0.000000 0.000000 0.000000
# 4 0.000000 0.000000 0.000000 0.069544 0.000000 0.000000
# 5 0.000000 0.000000 0.000000 0.000000 0.031384 0.000000
# 6 0.000000 0.000000 0.000000 0.000000 0.000000 4.312560
#
#
# Mechanical properties :
#
#
# Convention : Reuss Voigt Hill
#
# Bulk Modulus (GPa) = 28.35220 28.53861 28.44541
# Shear Modulus (GPa) = 1.12138 27.19785 14.15961
#
# Velocity S-wave (km/s) = 0.71469 3.51972 2.53961
# Velocity P-wave (km/s) = 3.68718 5.43297 4.64287
#
# Compressibility (1/GPa) = 0.03527063
#
# Stress axis : x y z
#
# Youngs Moduli (GPa) = 92.23398 81.77141 88.19333
#
# Poissons Ratio (x) = -0.10109 0.02267
# Poissons Ratio (y) = -0.11403 0.04841
# Poissons Ratio (z) = 0.02371 0.04489
#
# Static dielectric constant tensor:
#      x y z
#    x 1.780700 0.000000 0.000000 
#    y 0.000000 1.856810 0.000000 
#    z 0.000000 0.000000 1.774070 
# 
# From -- ./inp_files/974.got.cif
#   From: 2010.05.17/outbox.cif.g08.bks.cpg/sg61_1_cif.got.tgz:974.got - 2010.06.03 15:17:17.
