data_PCOD9460348
_publ_section_title
;
Structure prediction by ZEFSAII (Michael W. Deem and Ramdas Pophale) SiO2 
 PCOD9460348
Probable space group: P B C A
;
_chemical_formula_sum "Si O2"
_cell_formula_units_Z 64
_cell_length_a 21.960575
_cell_length_b 9.318012
_cell_length_c 15.513304
_cell_angle_alpha 90.000000
_cell_angle_beta 90.000000
_cell_angle_gamma 90.000000
_cell_volume 3174.470354
_symmetry_space_group_name_H-M "P B C A"
_symmetry_group_IT_number 61
_symmetry_cell_setting 'orthorhombic'
loop_
_space_group_symop_operation_xyz
x,y,z
1/2-x,-y,1/2+z
1/2+x,1/2-y,-z
-x,1/2+y,1/2-z
-x,-y,-z
1/2+x,y,1/2-z
1/2-x,1/2+y,z
x,1/2-y,1/2+z
loop_
_atom_site_type_symbol
_atom_site_label
_atom_site_fract_x
_atom_site_fract_y
_atom_site_fract_z
Si Si1 0.922399 0.530991 0.845219
Si Si2 0.370291 0.833237 0.682013
Si Si3 0.110251 0.639938 0.986904
Si Si4 0.228906 0.223336 0.318578
Si Si5 0.439692 0.448833 0.301065
Si Si6 0.852812 0.219147 0.273755
Si Si7 0.161040 0.901004 0.061650
Si Si8 0.741094 0.966767 0.062180
O O1 0.902035 0.694043 0.856942
O O2 0.873644 0.442985 0.788156
O O3 0.988154 0.533453 0.801337
O O4 0.921663 0.442549 0.934355
O O5 0.309645 0.778759 0.731234
O O6 0.409736 0.911934 0.756500
O O7 0.359023 0.952839 0.609128
O O8 0.080737 0.586278 0.898567
O O9 0.182018 0.599491 0.982991
O O10 0.111778 0.811532 0.005056
O O11 0.300685 0.232320 0.297142
O O12 0.218428 0.348551 0.387959
O O13 0.216967 0.072943 0.364343
O O14 0.411946 0.313921 0.248700
O O15 0.825880 0.290727 0.360219
O O16 0.218277 0.942491 0.003470
#
# Coordination Sequence:
#
# PCOD9460348 Si02
#       8
#     8   8   8   8   8   8   8   8
#     4  11  25  38  67  91 124 168 216 260 313 368
#     4  11  25  40  65  97 122 158 218 264 305 384
#     4  11  23  41  60  89 125 171 206 256 317 378
#     4  12  23  39  63  90 127 160 202 254 316 377
#     4  11  21  46  62  89 126 171 214 259 310 375
#     4  10  22  42  62  91 129 165 205 263 322 364
#     4  10  24  39  61  91 128 160 202 256 318 376
#     4  12  22  39  59  90 126 165 195 248 318 376
#
# _framework density 20.160843
#
# number of rings (size 3 to 8) (size 9 to 14) (size 15 to 20)
#    0.000    1.000    3.750    2.625    7.000    0.000 
#    0.000    0.625    0.000    0.000    0.000    0.000 
#    0.000    0.000    0.000    0.000    0.000    0.000 
#
# Total GULP energy -357398.522152 kJ/mol
# GULP energy per Si atom -5584.351909 kJ/mol
# Density = 2.011496 g / cm^3
# Si number density = 20.160843 Si / 1000 Ang^3
#
#
#
# Elastic Constant Matrix: (Units=GPa)
#
#
# Indices 1 2 3 4 5 6 
#
# 1 59.8996 23.4809 9.8317 0.0000 0.0000 0.0000
# 2 23.4809 93.0027 5.9756 0.0000 0.0000 0.0000
# 3 9.8317 5.9756 48.8989 0.0000 0.0000 0.0000
# 4 0.0000 0.0000 0.0000 18.3476 0.0000 0.0000
# 5 0.0000 0.0000 0.0000 0.0000 13.3820 0.0000
# 6 0.0000 0.0000 0.0000 0.0000 0.0000 20.5405
#
#
#
# Elastic Compliance Matrix: (Units=1/GPa)
#
#
# Indices 1 2 3 4 5 6 
#
# 1 0.019032 -0.004595 -0.003265 0.000000 0.000000 0.000000
# 2 -0.004595 0.011947 -0.000536 0.000000 0.000000 0.000000
# 3 -0.003265 -0.000536 0.021172 0.000000 0.000000 0.000000
# 4 0.000000 0.000000 0.000000 0.054503 0.000000 0.000000
# 5 0.000000 0.000000 0.000000 0.000000 0.074727 0.000000
# 6 0.000000 0.000000 0.000000 0.000000 0.000000 0.048684
#
#
# Mechanical properties :
#
#
# Convention : Reuss Voigt Hill
#
# Bulk Modulus (GPa) = 28.28171 31.15307 29.71739
# Shear Modulus (GPa) = 19.33154 21.28822 20.30988
#
# Velocity S-wave (km/s) = 3.09991 3.25302 3.17739
# Velocity P-wave (km/s) = 5.18374 5.44016 5.31349
#
# Compressibility (1/GPa) = 0.03535855
#
# Stress axis : x y z
#
# Youngs Moduli (GPa) = 52.54343 83.70293 47.23142
#
# Poissons Ratio (x) = 0.38464 0.15421
# Poissons Ratio (y) = 0.24145 0.02532
# Poissons Ratio (z) = 0.17155 0.04487
#
# Static dielectric constant tensor:
#      x y z
#    x 1.700840 0.000000 0.000000 
#    y 0.000000 1.712920 0.000000 
#    z 0.000000 0.000000 1.723220 
# 
# From -- ./inp_files/8535.got.cif
#   From: 2010.05.17/outbox.cif.g08.bks.cpg/sg61_5_cif.got.tgz:8535.got - 2010.06.03 15:17:17.
