data_PCOD9460168
_publ_section_title
;
Structure prediction by ZEFSAII (Michael W. Deem and Ramdas Pophale) SiO2 
 PCOD9460168
Probable space group: P B C A
;
_chemical_formula_sum "Si O2"
_cell_formula_units_Z 56
_cell_length_a 14.127765
_cell_length_b 25.369629
_cell_length_c 6.363354
_cell_angle_alpha 90.000000
_cell_angle_beta 90.000000
_cell_angle_gamma 90.000000
_cell_volume 2280.728884
_symmetry_space_group_name_H-M "P B C A"
_symmetry_group_IT_number 61
_symmetry_cell_setting 'orthorhombic'
loop_
_space_group_symop_operation_xyz
x,y,z
1/2-x,-y,1/2+z
1/2+x,1/2-y,-z
-x,1/2+y,1/2-z
-x,-y,-z
1/2+x,y,1/2-z
1/2-x,1/2+y,z
x,1/2-y,1/2+z
loop_
_atom_site_type_symbol
_atom_site_label
_atom_site_fract_x
_atom_site_fract_y
_atom_site_fract_z
Si Si1 0.758117 0.256263 0.533719
Si Si2 0.279601 0.872096 0.082914
Si Si3 0.107359 0.163149 0.969714
Si Si4 0.513046 0.527509 0.755099
Si Si5 0.921217 0.376192 0.488964
Si Si6 0.122693 0.943861 0.636293
Si Si7 0.170871 0.437836 0.711402
O O1 0.799351 0.247917 0.781430
O O2 0.724566 0.316572 0.539767
O O3 0.671724 0.214874 0.519466
O O4 0.170369 0.874714 0.159620
O O5 0.296157 0.924168 0.947920
O O6 0.358660 0.864743 0.255694
O O7 0.129613 0.118614 0.141881
O O8 0.994344 0.171477 0.976024
O O9 0.542902 0.557053 0.542023
O O10 0.413991 0.497148 0.750880
O O11 0.520041 0.572508 0.924671
O O12 0.402723 0.514870 0.215731
O O13 0.885887 0.391451 0.721325
O O14 0.232898 0.948882 0.581926
#
# Coordination Sequence:
#
# PCOD9460168 Si02
#       7
#     8   8   8   8   8   8   8
#     4  10  21  45  73 102 138 182 234 298 362 424
#     4  10  24  43  67  95 134 177 235 292 361 429
#     4  11  23  41  71  95 134 180 232 297 360 425
#     4  11  24  38  60  94 138 179 232 282 341 422
#     4  11  24  42  64  98 137 183 232 291 350 429
#     4  10  24  38  58  90 131 179 226 283 331 423
#     4  11  23  39  64  93 132 184 225 283 355 423
#
# _framework density 24.553553999999998
#
# number of rings (size 3 to 8) (size 9 to 14) (size 15 to 20)
#    0.000    1.429    2.857    1.286    8.000    0.000 
#    0.000    5.714    0.000    0.000    0.000    0.000 
#    0.000    0.000    0.000    0.000    0.000    0.000 
#
# Total GULP energy -312094.561737 kJ/mol
# GULP energy per Si atom -5573.117174 kJ/mol
# Density = 2.449767 g / cm^3
# Si number density = 24.553554 Si / 1000 Ang^3
#
#
#
# Elastic Constant Matrix: (Units=GPa)
#
#
# Indices 1 2 3 4 5 6 
#
# 1 110.1763 17.8690 -0.3081 0.0000 0.0000 0.0000
# 2 17.8690 76.9527 -10.7405 0.0000 0.0000 0.0000
# 3 -0.3081 -10.7405 82.2804 0.0000 0.0000 0.0000
# 4 0.0000 0.0000 0.0000 31.0036 0.0000 0.0000
# 5 0.0000 0.0000 0.0000 0.0000 24.6246 0.0000
# 6 0.0000 0.0000 0.0000 0.0000 0.0000 30.7591
#
#
#
# Elastic Compliance Matrix: (Units=1/GPa)
#
#
# Indices 1 2 3 4 5 6 
#
# 1 0.009437 -0.002227 -0.000255 0.000000 0.000000 0.000000
# 2 -0.002227 0.013762 0.001788 0.000000 0.000000 0.000000
# 3 -0.000255 0.001788 0.012386 0.000000 0.000000 0.000000
# 4 0.000000 0.000000 0.000000 0.032254 0.000000 0.000000
# 5 0.000000 0.000000 0.000000 0.000000 0.040610 0.000000
# 6 0.000000 0.000000 0.000000 0.000000 0.000000 0.032511
#
#
# Mechanical properties :
#
#
# Convention : Reuss Voigt Hill
#
# Bulk Modulus (GPa) = 29.24321 31.45004 30.34662
# Shear Modulus (GPa) = 32.52105 34.78339 33.65222
#
# Velocity S-wave (km/s) = 3.64331 3.76790 3.70613
# Velocity P-wave (km/s) = 5.44372 5.63613 5.54076
#
# Compressibility (1/GPa) = 0.03419597
#
# Stress axis : x y z
#
# Youngs Moduli (GPa) = 105.96781 72.66563 80.73629
#
# Poissons Ratio (x) = 0.16182 0.02062
# Poissons Ratio (y) = 0.23598 -0.14436
# Poissons Ratio (z) = 0.02706 -0.12993
#
# Static dielectric constant tensor:
#      x y z
#    x 2.007260 0.000000 0.000000 
#    y 0.000000 1.911520 0.000000 
#    z 0.000000 0.000000 2.188970 
# 
# From -- ./inp_files/612.got.cif
#   From: 2010.05.17/outbox.cif.g08.bks.cpg/sg61_1_cif.got.tgz:612.got - 2010.06.03 15:17:17.
