data_PCOD9460724
_publ_section_title
;
Structure prediction by ZEFSAII (Michael W. Deem and Ramdas Pophale) SiO2 
 PCOD9460724
Probable space group: P B C A
;
_chemical_formula_sum "Si O2"
_cell_formula_units_Z 60
_cell_length_a 11.258120
_cell_length_b 29.576125
_cell_length_c 8.620651
_cell_angle_alpha 90.000000
_cell_angle_beta 90.000000
_cell_angle_gamma 90.000000
_cell_volume 2870.431649
_symmetry_space_group_name_H-M "P B C A"
_symmetry_group_IT_number 61
_symmetry_cell_setting 'orthorhombic'
loop_
_space_group_symop_operation_xyz
x,y,z
1/2-x,-y,1/2+z
1/2+x,1/2-y,-z
-x,1/2+y,1/2-z
-x,-y,-z
1/2+x,y,1/2-z
1/2-x,1/2+y,z
x,1/2-y,1/2+z
loop_
_atom_site_type_symbol
_atom_site_label
_atom_site_fract_x
_atom_site_fract_y
_atom_site_fract_z
Si Si1 0.315988 0.560443 0.504452
Si Si2 0.918805 0.093644 0.502508
Si Si3 0.059771 0.749147 0.270643
Si Si4 0.409268 0.098012 0.625419
Si Si5 0.674828 0.689038 0.472494
Si Si6 0.052668 0.313038 0.471871
Si Si7 0.254140 0.524376 0.169747
Si Si8 0.000000 0.500000 0.500000
O O1 0.448078 0.576617 0.472291
O O2 0.224420 0.598955 0.556467
O O3 0.263951 0.536492 0.350414
O O4 0.313618 0.523079 0.641203
O O5 0.902325 0.094559 0.688362
O O6 0.898925 0.143894 0.440043
O O7 0.824056 0.061117 0.420538
O O8 0.120709 0.786385 0.378138
O O9 0.157460 0.724719 0.164744
O O10 0.966993 0.775485 0.161838
O O11 0.999144 0.711030 0.375578
O O12 0.481524 0.142066 0.574638
O O13 0.467597 0.052218 0.559162
O O14 0.810117 0.676318 0.502703
O O15 0.384622 0.518918 0.099403
#
# Coordination Sequence:
#
# PCOD9460724 Si02
#       8
#     8   8   8   8   8   8   8   4
#     4  11  28  45  70 102 142 183 242 287 343 428
#     4  12  27  44  72 103 142 183 238 287 356 420
#     4  10  24  45  68 108 133 183 231 286 353 423
#     4  11  26  44  69 101 140 190 230 288 352 416
#     4  11  24  44  72 100 139 179 227 288 351 414
#     4  11  23  46  73 101 143 181 233 290 353 419
#     4  11  25  46  71 100 139 185 231 292 348 409
#     4  10  24  42  72  94 136 180 236 278 344 412
#
# _framework density 20.902778999999999
#
# number of rings (size 3 to 8) (size 9 to 14) (size 15 to 20)
#    0.000    1.067    1.333    3.600   13.067    1.067 
#    9.600    0.000    0.000    0.000    0.000    0.000 
#    0.000    0.000    0.000    0.000    0.000    0.000 
#
# Total GULP energy -334726.931544 kJ/mol
# GULP energy per Si atom -5578.782192 kJ/mol
# Density = 2.085520 g / cm^3
# Si number density = 20.902779 Si / 1000 Ang^3
#
#
#
# Elastic Constant Matrix: (Units=GPa)
#
#
# Indices 1 2 3 4 5 6 
#
# 1 68.8277 27.8842 37.4087 0.0000 0.0000 0.0000
# 2 27.8842 95.8258 22.4471 0.0000 0.0000 0.0000
# 3 37.4087 22.4471 75.8231 0.0000 0.0000 0.0000
# 4 0.0000 0.0000 0.0000 27.9960 0.0000 0.0000
# 5 0.0000 0.0000 0.0000 0.0000 1.0798 0.0000
# 6 0.0000 0.0000 0.0000 0.0000 0.0000 34.7834
#
#
#
# Elastic Compliance Matrix: (Units=1/GPa)
#
#
# Indices 1 2 3 4 5 6 
#
# 1 0.021185 -0.003993 -0.009270 0.000000 0.000000 0.000000
# 2 -0.003993 0.011966 -0.001572 0.000000 0.000000 0.000000
# 3 -0.009270 -0.001572 0.018228 0.000000 0.000000 0.000000
# 4 0.000000 0.000000 0.000000 0.035719 0.000000 0.000000
# 5 0.000000 0.000000 0.000000 0.000000 0.926119 0.000000
# 6 0.000000 0.000000 0.000000 0.000000 0.000000 0.028749
#
#
# Mechanical properties :
#
#
# Convention : Reuss Voigt Hill
#
# Bulk Modulus (GPa) = 46.06653 46.21738 46.14195
# Shear Modulus (GPa) = 4.63447 22.95427 13.79437
#
# Velocity S-wave (km/s) = 1.49063 3.31742 2.57170
# Velocity P-wave (km/s) = 5.00489 6.06897 5.56243
#
# Compressibility (1/GPa) = 0.02170774
#
# Stress axis : x y z
#
# Youngs Moduli (GPa) = 47.20301 83.57087 54.86204
#
# Poissons Ratio (x) = 0.33371 0.50856
# Poissons Ratio (y) = 0.18849 0.08626
# Poissons Ratio (z) = 0.43757 0.13140
#
# Static dielectric constant tensor:
#      x y z
#    x 1.730970 0.000000 0.000000 
#    y 0.000000 1.723040 0.000000 
#    z 0.000000 0.000000 1.762050 
# 
# From -- ./inp_files/2402.got.cif
#   From: 2010.05.17/outbox.cif.g08.bks.cpg/sg61_2_cif.got.tgz:2402.got - 2010.06.03 15:17:17.
