data_PCOD9460619
_publ_section_title
;
Structure prediction by ZEFSAII (Michael W. Deem and Ramdas Pophale) SiO2 
 PCOD9460619
Probable space group: P B C A
;
_chemical_formula_sum "Si O2"
_cell_formula_units_Z 56
_cell_length_a 13.584600
_cell_length_b 9.439265
_cell_length_c 17.563790
_cell_angle_alpha 90.000000
_cell_angle_beta 90.000000
_cell_angle_gamma 90.000000
_cell_volume 2252.180893
_symmetry_space_group_name_H-M "P B C A"
_symmetry_group_IT_number 61
_symmetry_cell_setting 'orthorhombic'
loop_
_space_group_symop_operation_xyz
x,y,z
1/2-x,-y,1/2+z
1/2+x,1/2-y,-z
-x,1/2+y,1/2-z
-x,-y,-z
1/2+x,y,1/2-z
1/2-x,1/2+y,z
x,1/2-y,1/2+z
loop_
_atom_site_type_symbol
_atom_site_label
_atom_site_fract_x
_atom_site_fract_y
_atom_site_fract_z
Si Si1 0.314853 0.311980 0.615872
Si Si2 0.622940 0.652992 0.657201
Si Si3 0.380679 0.839560 0.522089
Si Si4 0.056257 0.179851 0.770143
Si Si5 0.037568 0.115878 0.410149
Si Si6 0.573654 0.563372 0.107371
Si Si7 0.755176 0.574530 0.789457
O O1 0.226927 0.326065 0.556500
O O2 0.420474 0.359008 0.584613
O O3 0.315540 0.152669 0.649702
O O4 0.286884 0.420517 0.683614
O O5 0.541213 0.688929 0.720902
O O6 0.574129 0.543245 0.599354
O O7 0.645243 0.803608 0.620005
O O8 0.710527 0.583459 0.705171
O O9 0.589658 0.303413 0.521508
O O10 0.386511 0.963774 0.459460
O O11 0.467202 0.876395 0.581842
O O12 0.147190 0.170316 0.713019
O O13 0.064207 0.306086 0.830299
O O14 0.059271 0.034605 0.818786
#
# Coordination Sequence:
#
# PCOD9460619 Si02
#       7
#     8   8   8   8   8   8   8
#     4  12  25  47  72 107 137 192 239 288 353 426
#     4  12  22  43  74 108 140 175 231 301 356 417
#     4  10  25  48  69  96 144 197 242 278 348 423
#     4  11  21  44  71 108 140 179 227 290 366 418
#     4  11  25  46  72 106 146 181 234 301 349 417
#     4  10  23  44  70  97 143 187 231 295 343 414
#     4  12  25  44  77 106 141 182 234 292 364 429
#
# _framework density 24.864788999999998
#
# number of rings (size 3 to 8) (size 9 to 14) (size 15 to 20)
#    0.000    0.857    2.857    4.286    4.000    0.571 
#    7.714    0.000    0.000    0.000    0.000    0.000 
#    0.000    0.000    0.000    0.000    0.000    0.000 
#
# Total GULP energy -314270.868174 kJ/mol
# GULP energy per Si atom -5611.979789 kJ/mol
# Density = 2.480820 g / cm^3
# Si number density = 24.864789 Si / 1000 Ang^3
#
#
#
# Elastic Constant Matrix: (Units=GPa)
#
#
# Indices 1 2 3 4 5 6 
#
# 1 41.8655 -3.9256 -2.9629 0.0000 0.0000 0.0000
# 2 -3.9256 109.8407 26.4872 0.0000 0.0000 0.0000
# 3 -2.9629 26.4872 50.5105 0.0000 0.0000 0.0000
# 4 0.0000 0.0000 0.0000 10.3512 0.0000 0.0000
# 5 0.0000 0.0000 0.0000 0.0000 43.3558 0.0000
# 6 0.0000 0.0000 0.0000 0.0000 0.0000 26.6437
#
#
#
# Elastic Compliance Matrix: (Units=1/GPa)
#
#
# Indices 1 2 3 4 5 6 
#
# 1 0.024019 0.000594 0.001098 0.000000 0.000000 0.000000
# 2 0.000594 0.010437 -0.005438 0.000000 0.000000 0.000000
# 3 0.001098 -0.005438 0.022714 0.000000 0.000000 0.000000
# 4 0.000000 0.000000 0.000000 0.096607 0.000000 0.000000
# 5 0.000000 0.000000 0.000000 0.000000 0.023065 0.000000
# 6 0.000000 0.000000 0.000000 0.000000 0.000000 0.037532
#
#
# Mechanical properties :
#
#
# Convention : Reuss Voigt Hill
#
# Bulk Modulus (GPa) = 20.13021 26.82379 23.47700
# Shear Modulus (GPa) = 20.97078 28.24465 24.60771
#
# Velocity S-wave (km/s) = 2.90727 3.37401 3.14930
# Velocity P-wave (km/s) = 4.40262 5.09803 4.76303
#
# Compressibility (1/GPa) = 0.04967658
#
# Stress axis : x y z
#
# Youngs Moduli (GPa) = 41.63305 95.81606 44.02584
#
# Poissons Ratio (x) = -0.05689 -0.04832
# Poissons Ratio (y) = -0.02472 0.23942
# Poissons Ratio (z) = -0.04570 0.52105
#
# Static dielectric constant tensor:
#      x y z
#    x 1.968310 0.000000 0.000000 
#    y 0.000000 1.961870 0.000000 
#    z 0.000000 0.000000 1.952820 
# 
# From -- ./inp_files/7154.got.cif
#   From: 2010.05.17/outbox.cif.g08.bks.cpg/sg61_4_cif.got.tgz:7154.got - 2010.06.03 15:17:17.
