data_PCOD9460513
_publ_section_title
;
Structure prediction by ZEFSAII (Michael W. Deem and Ramdas Pophale) SiO2 
 PCOD9460513
Probable space group: P B C A
;
_chemical_formula_sum "Si O2"
_cell_formula_units_Z 48
_cell_length_a 27.401255
_cell_length_b 5.016504
_cell_length_c 12.253727
_cell_angle_alpha 90.000000
_cell_angle_beta 90.000000
_cell_angle_gamma 90.000000
_cell_volume 1684.378998
_symmetry_space_group_name_H-M "P B C A"
_symmetry_group_IT_number 61
_symmetry_cell_setting 'orthorhombic'
loop_
_space_group_symop_operation_xyz
x,y,z
1/2-x,-y,1/2+z
1/2+x,1/2-y,-z
-x,1/2+y,1/2-z
-x,-y,-z
1/2+x,y,1/2-z
1/2-x,1/2+y,z
x,1/2-y,1/2+z
loop_
_atom_site_type_symbol
_atom_site_label
_atom_site_fract_x
_atom_site_fract_y
_atom_site_fract_z
Si Si1 0.716439 0.560896 0.551502
Si Si2 0.052524 0.189571 0.611024
Si Si3 0.217010 0.581199 0.204331
Si Si4 0.043009 0.045456 0.371535
Si Si5 0.595558 0.813759 0.468783
Si Si6 0.860453 0.672509 0.638934
O O1 0.740550 0.846302 0.572369
O O2 0.705232 0.557085 0.423136
O O3 0.669220 0.441852 0.610295
O O4 0.070205 0.490716 0.618840
O O5 0.007985 0.056586 0.677124
O O6 0.031502 0.204627 0.484282
O O7 0.094893 0.969683 0.593525
O O8 0.237776 0.877260 0.222205
O O9 0.170824 0.488599 0.273792
O O10 0.068336 0.780003 0.419900
O O11 0.086035 0.228207 0.321426
O O12 0.636013 0.001858 0.525781
#
# Coordination Sequence:
#
# PCOD9460513 Si02
#       6
#     8   8   8   8   8   8
#     4  10  23  40  55  74 105 140 170 211 268 316
#     4   8  15  27  42  67 115 135 164 203 249 306
#     4  10  23  40  55  74 105 140 170 211 268 316
#     4   8  17  26  45  76 105 134 169 208 249 298
#     4   9  17  27  44  77 104 135 168 209 248 299
#     4  11  21  31  58  83 103 129 182 219 251 298
#
# _framework density 28.497150999999999
#
# number of rings (size 3 to 8) (size 9 to 14) (size 15 to 20)
#    1.000    1.667    0.000    1.500    7.000    0.000 
#    0.000    0.000    0.000    0.000    0.000   18.667 
#    0.000    0.000    0.000    0.000    0.000    0.000 
#
# Total GULP energy -268241.396852 kJ/mol
# GULP energy per Si atom -5588.362434 kJ/mol
# Density = 2.843229 g / cm^3
# Si number density = 28.497151 Si / 1000 Ang^3
#
#
#
# Elastic Constant Matrix: (Units=GPa)
#
#
# Indices 1 2 3 4 5 6 
#
# 1 157.4020 42.5711 23.4241 0.0000 0.0000 0.0000
# 2 42.5711 196.6172 19.9282 0.0000 0.0000 0.0000
# 3 23.4241 19.9282 71.7977 0.0000 0.0000 0.0000
# 4 0.0000 0.0000 0.0000 38.8522 0.0000 0.0000
# 5 0.0000 0.0000 0.0000 0.0000 47.2943 0.0000
# 6 0.0000 0.0000 0.0000 0.0000 0.0000 45.5101
#
#
#
# Elastic Compliance Matrix: (Units=1/GPa)
#
#
# Indices 1 2 3 4 5 6 
#
# 1 0.006995 -0.001320 -0.001916 0.000000 0.000000 0.000000
# 2 -0.001320 0.005482 -0.001091 0.000000 0.000000 0.000000
# 3 -0.001916 -0.001091 0.014856 0.000000 0.000000 0.000000
# 4 0.000000 0.000000 0.000000 0.025739 0.000000 0.000000
# 5 0.000000 0.000000 0.000000 0.000000 0.021144 0.000000
# 6 0.000000 0.000000 0.000000 0.000000 0.000000 0.021973
#
#
# Mechanical properties :
#
#
# Convention : Reuss Voigt Hill
#
# Bulk Modulus (GPa) = 53.53473 66.40710 59.97091
# Shear Modulus (GPa) = 45.01650 48.99088 47.00369
#
# Velocity S-wave (km/s) = 3.97884 4.15076 4.06571
# Velocity P-wave (km/s) = 6.31941 6.80628 6.56736
#
# Compressibility (1/GPa) = 0.01867946
#
# Stress axis : x y z
#
# Youngs Moduli (GPa) = 142.95136 182.39860 67.31358
#
# Poissons Ratio (x) = 0.24085 0.12896
# Poissons Ratio (y) = 0.18876 0.07343
# Poissons Ratio (z) = 0.27386 0.19898
#
# Static dielectric constant tensor:
#      x y z
#    x 2.321900 0.000000 0.000000 
#    y 0.000000 2.196860 0.000000 
#    z 0.000000 0.000000 2.458510 
# 
# From -- ./inp_files/8586.got.cif
#   From: 2010.05.17/outbox.cif.g08.bks.cpg/sg61_5_cif.got.tgz:8586.got - 2010.06.03 15:17:17.
