data_PCOD9460113
_publ_section_title
;
Structure prediction by ZEFSAII (Michael W. Deem and Ramdas Pophale) SiO2 
 PCOD9460113
Probable space group: P B C A
;
_chemical_formula_sum "Si O2"
_cell_formula_units_Z 64
_cell_length_a 13.853611
_cell_length_b 25.612242
_cell_length_c 8.044961
_cell_angle_alpha 90.000000
_cell_angle_beta 90.000000
_cell_angle_gamma 90.000000
_cell_volume 2854.529454
_symmetry_space_group_name_H-M "P B C A"
_symmetry_group_IT_number 61
_symmetry_cell_setting 'orthorhombic'
loop_
_space_group_symop_operation_xyz
x,y,z
1/2-x,-y,1/2+z
1/2+x,1/2-y,-z
-x,1/2+y,1/2-z
-x,-y,-z
1/2+x,y,1/2-z
1/2-x,1/2+y,z
x,1/2-y,1/2+z
loop_
_atom_site_type_symbol
_atom_site_label
_atom_site_fract_x
_atom_site_fract_y
_atom_site_fract_z
Si Si1 0.626005 0.399872 0.401614
Si Si2 0.908676 0.775845 0.009662
Si Si3 0.255226 0.161444 0.865077
Si Si4 0.451292 0.143447 0.698128
Si Si5 0.945209 0.672479 0.161694
Si Si6 0.674567 0.996891 0.751052
Si Si7 0.955863 0.404532 0.641119
Si Si8 0.320975 0.930360 0.571262
O O1 0.699122 0.366583 0.287695
O O2 0.521561 0.391611 0.312419
O O3 0.619189 0.372975 0.580500
O O4 0.652535 0.460549 0.393743
O O5 0.803003 0.786335 0.087393
O O6 0.947054 0.717186 0.022447
O O7 0.982361 0.812295 0.113193
O O8 0.906823 0.796958 0.822551
O O9 0.364615 0.165902 0.807292
O O10 0.238216 0.121158 0.017396
O O11 0.412203 0.110753 0.538351
O O12 0.040838 0.643798 0.229895
O O13 0.591240 0.954685 0.722381
O O14 0.769323 0.963573 0.788057
O O15 0.681636 0.032094 0.588476
O O16 0.068437 0.415385 0.601048
#
# Coordination Sequence:
#
# PCOD9460113 Si02
#       8
#     8   8   8   8   8   8   8   8
#     4  10  23  42  62  97 133 181 224 280 332 400
#     4  10  21  45  66  98 130 175 215 287 348 395
#     4  10  21  42  67  98 131 178 224 279 335 407
#     4  10  21  42  69  95 137 176 229 277 341 405
#     4  11  23  44  72  93 137 171 226 280 349 410
#     4  11  26  40  68 100 137 192 227 279 344 399
#     4  11  24  45  67 101 144 183 222 288 341 401
#     4  11  24  44  64 101 140 180 234 279 335 404
#
# _framework density 22.420508000000002
#
# number of rings (size 3 to 8) (size 9 to 14) (size 15 to 20)
#    0.000    1.500    5.000    1.875    7.000    0.500 
#    0.000    8.750    0.000    0.000    0.000    0.000 
#    0.000    0.000    0.000    0.000    0.000    0.000 
#
# Total GULP energy -357661.077007 kJ/mol
# GULP energy per Si atom -5588.454328 kJ/mol
# Density = 2.236948 g / cm^3
# Si number density = 22.420508 Si / 1000 Ang^3
#
#
#
# Elastic Constant Matrix: (Units=GPa)
#
#
# Indices 1 2 3 4 5 6 
#
# 1 62.0748 9.8513 15.6505 0.0000 0.0000 0.0000
# 2 9.8513 96.7390 34.2544 0.0000 0.0000 0.0000
# 3 15.6505 34.2544 82.6564 0.0000 0.0000 0.0000
# 4 0.0000 0.0000 0.0000 46.5460 0.0000 0.0000
# 5 0.0000 0.0000 0.0000 0.0000 7.6787 0.0000
# 6 0.0000 0.0000 0.0000 0.0000 0.0000 10.6018
#
#
#
# Elastic Compliance Matrix: (Units=1/GPa)
#
#
# Indices 1 2 3 4 5 6 
#
# 1 0.016957 -0.000691 -0.002924 0.000000 0.000000 0.000000
# 2 -0.000691 0.012143 -0.004901 0.000000 0.000000 0.000000
# 3 -0.002924 -0.004901 0.014683 0.000000 0.000000 0.000000
# 4 0.000000 0.000000 0.000000 0.021484 0.000000 0.000000
# 5 0.000000 0.000000 0.000000 0.000000 0.130230 0.000000
# 6 0.000000 0.000000 0.000000 0.000000 0.000000 0.094324
#
#
# Mechanical properties :
#
#
# Convention : Reuss Voigt Hill
#
# Bulk Modulus (GPa) = 37.38453 40.10917 38.74685
# Shear Modulus (GPa) = 15.83425 25.07956 20.45691
#
# Velocity S-wave (km/s) = 2.66040 3.34817 3.02391
# Velocity P-wave (km/s) = 5.11346 5.73370 5.43244
#
# Compressibility (1/GPa) = 0.02674903
#
# Stress axis : x y z
#
# Youngs Moduli (GPa) = 58.97429 82.35173 68.10515
#
# Poissons Ratio (x) = 0.05693 0.19915
# Poissons Ratio (y) = 0.04077 0.33381
# Poissons Ratio (z) = 0.17245 0.40364
#
# Static dielectric constant tensor:
#      x y z
#    x 1.793220 0.000000 0.000000 
#    y 0.000000 1.832470 0.000000 
#    z 0.000000 0.000000 1.896060 
# 
# From -- ./inp_files/3197.got.cif
#   From: 2010.05.17/outbox.cif.g08.bks.cpg/sg61_2_cif.got.tgz:3197.got - 2010.06.03 15:17:17.
