data_PCOD9460872
_publ_section_title
;
Structure prediction by ZEFSAII (Michael W. Deem and Ramdas Pophale) SiO2 
 PCOD9460872
Probable space group: P B C A
;
_chemical_formula_sum "Si O2"
_cell_formula_units_Z 48
_cell_length_a 16.891137
_cell_length_b 7.304872
_cell_length_c 15.919654
_cell_angle_alpha 90.000000
_cell_angle_beta 90.000000
_cell_angle_gamma 90.000000
_cell_volume 1964.287800
_symmetry_space_group_name_H-M "P B C A"
_symmetry_group_IT_number 61
_symmetry_cell_setting 'orthorhombic'
loop_
_space_group_symop_operation_xyz
x,y,z
1/2-x,-y,1/2+z
1/2+x,1/2-y,-z
-x,1/2+y,1/2-z
-x,-y,-z
1/2+x,y,1/2-z
1/2-x,1/2+y,z
x,1/2-y,1/2+z
loop_
_atom_site_type_symbol
_atom_site_label
_atom_site_fract_x
_atom_site_fract_y
_atom_site_fract_z
Si Si1 0.619252 0.409842 0.302227
Si Si2 0.084879 0.718045 0.475436
Si Si3 0.017018 0.402523 0.765987
Si Si4 0.418238 0.894626 0.587851
Si Si5 0.683143 0.035199 0.629692
Si Si6 0.860900 0.567683 0.085921
O O1 0.569842 0.595853 0.309594
O O2 0.636606 0.273136 0.378654
O O3 0.683366 0.425137 0.229595
O O4 0.544485 0.308194 0.255780
O O5 0.116454 0.572315 0.543082
O O6 0.127683 0.637776 0.391592
O O7 0.106475 0.929552 0.484646
O O8 0.990869 0.690632 0.465990
O O9 0.040127 0.466880 0.672195
O O10 0.080230 0.465740 0.835841
O O11 0.647603 0.212556 0.581643
O O12 0.771464 0.995305 0.602093
#
# Coordination Sequence:
#
# PCOD9460872 Si02
#       6
#     8   8   8   8   8   8
#     4   9  17  33  55  82 108 143 185 230 273 332
#     4  11  20  37  58  84 117 147 182 237 291 330
#     4   9  17  33  55  82 108 143 185 230 273 332
#     4   9  20  35  58  82 118 143 182 245 286 328
#     4  11  21  35  60  83 109 151 196 229 277 346
#     4  11  21  35  60  83 109 151 196 229 277 346
#
# _framework density 24.436337000000002
#
# number of rings (size 3 to 8) (size 9 to 14) (size 15 to 20)
#    1.000    1.000    5.000    0.000    0.000    0.000 
#    0.000    6.667    0.000    0.000    0.000    0.000 
#    0.000    0.000    0.000    0.000    0.000    0.000 
#
# Total GULP energy -267223.258702 kJ/mol
# GULP energy per Si atom -5567.151223 kJ/mol
# Density = 2.438072 g / cm^3
# Si number density = 24.436337 Si / 1000 Ang^3
#
#
#
# Elastic Constant Matrix: (Units=GPa)
#
#
# Indices 1 2 3 4 5 6 
#
# 1 51.7488 4.0740 -0.6623 0.0000 0.0000 0.0000
# 2 4.0740 104.1011 18.1128 0.0000 0.0000 0.0000
# 3 -0.6623 18.1128 47.8921 0.0000 0.0000 0.0000
# 4 0.0000 0.0000 0.0000 62.8519 0.0000 0.0000
# 5 0.0000 0.0000 0.0000 0.0000 13.5868 0.0000
# 6 0.0000 0.0000 0.0000 0.0000 0.0000 48.5485
#
#
#
# Elastic Compliance Matrix: (Units=1/GPa)
#
#
# Indices 1 2 3 4 5 6 
#
# 1 0.019400 -0.000863 0.000595 0.000000 0.000000 0.000000
# 2 -0.000863 0.010321 -0.003915 0.000000 0.000000 0.000000
# 3 0.000595 -0.003915 0.022369 0.000000 0.000000 0.000000
# 4 0.000000 0.000000 0.000000 0.015910 0.000000 0.000000
# 5 0.000000 0.000000 0.000000 0.000000 0.073601 0.000000
# 6 0.000000 0.000000 0.000000 0.000000 0.000000 0.020598
#
#
# Mechanical properties :
#
#
# Convention : Reuss Voigt Hill
#
# Bulk Modulus (GPa) = 22.87124 27.42122 25.14623
# Shear Modulus (GPa) = 27.00650 37.14527 32.07588
#
# Velocity S-wave (km/s) = 3.32803 3.90305 3.62695
# Velocity P-wave (km/s) = 4.91401 5.61762 5.27755
#
# Compressibility (1/GPa) = 0.04372304
#
# Stress axis : x y z
#
# Youngs Moduli (GPa) = 51.54733 96.88941 44.70415
#
# Poissons Ratio (x) = 0.08358 -0.02658
# Poissons Ratio (y) = 0.04447 0.17503
# Poissons Ratio (z) = -0.03065 0.37936
#
# Static dielectric constant tensor:
#      x y z
#    x 0.361040 0.000000 0.000000 
#    y 0.000000 2.355800 0.000000 
#    z 0.000000 0.000000 2.026190 
# 
# From -- ./inp_files/10511.got.cif
#   From: 2010.05.17/outbox.cif.g08.bks.cpg/sg61_6_cif.got.tgz:10511.got - 2010.06.03 15:17:17.
