data_PCOD9460853
_publ_section_title
;
Structure prediction by ZEFSAII (Michael W. Deem and Ramdas Pophale) SiO2 
 PCOD9460853
Probable space group: P B C A
;
_chemical_formula_sum "Si O2"
_cell_formula_units_Z 36
_cell_length_a 27.622391
_cell_length_b 5.228655
_cell_length_c 9.187827
_cell_angle_alpha 90.000000
_cell_angle_beta 90.000000
_cell_angle_gamma 90.000000
_cell_volume 1326.979044
_symmetry_space_group_name_H-M "P B C A"
_symmetry_group_IT_number 61
_symmetry_cell_setting 'orthorhombic'
loop_
_space_group_symop_operation_xyz
x,y,z
1/2-x,-y,1/2+z
1/2+x,1/2-y,-z
-x,1/2+y,1/2-z
-x,-y,-z
1/2+x,y,1/2-z
1/2-x,1/2+y,z
x,1/2-y,1/2+z
loop_
_atom_site_type_symbol
_atom_site_label
_atom_site_fract_x
_atom_site_fract_y
_atom_site_fract_z
Si Si1 0.219530 0.020764 0.816813
Si Si2 0.500000 0.000000 0.500000
Si Si3 0.659109 0.343800 0.908161
Si Si4 0.068797 0.432681 0.006287
Si Si5 0.577282 0.822464 0.272441
O O1 0.262882 0.229488 0.799941
O O2 0.182100 0.129673 0.697106
O O3 0.198331 0.046331 0.979891
O O4 0.524809 0.267025 0.545992
O O5 0.462372 0.009119 0.643479
O O6 0.628846 0.555717 0.817570
O O7 0.618906 0.214496 0.012204
O O8 0.068950 0.680430 0.899782
O O9 0.071338 0.539624 0.167745
#
# Coordination Sequence:
#
# PCOD9460853 Si02
#       5
#     8   4   8   8   8
#     4  12  28  48  78 114 159 210 274 339 406 490
#     4  10  26  48  72 116 150 202 256 324 398 464
#     4  11  26  47  73 113 153 213 259 329 408 486
#     4  11  26  47  79 111 159 206 265 331 399 499
#     4  11  26  45  78 111 155 204 264 322 403 483
#
# _framework density 27.129287999999999
#
# number of rings (size 3 to 8) (size 9 to 14) (size 15 to 20)
#    0.000    0.889    2.222    2.000   12.444    1.778 
#    0.000    0.000    0.000    0.000    0.000    0.000 
#    0.000    0.000    0.000    0.000    0.000    0.000 
#
# Total GULP energy -201146.771824 kJ/mol
# GULP energy per Si atom -5587.410328 kJ/mol
# Density = 2.706754 g / cm^3
# Si number density = 27.129288 Si / 1000 Ang^3
#
#
#
# Elastic Constant Matrix: (Units=GPa)
#
#
# Indices 1 2 3 4 5 6 
#
# 1 106.4584 21.3144 54.3357 0.0000 0.0000 0.0000
# 2 21.3144 88.1868 20.6533 0.0000 0.0000 0.0000
# 3 54.3357 20.6533 105.8984 0.0000 0.0000 0.0000
# 4 0.0000 0.0000 0.0000 38.3016 0.0000 0.0000
# 5 0.0000 0.0000 0.0000 0.0000 26.1937 0.0000
# 6 0.0000 0.0000 0.0000 0.0000 0.0000 33.1276
#
#
#
# Elastic Compliance Matrix: (Units=1/GPa)
#
#
# Indices 1 2 3 4 5 6 
#
# 1 0.012951 -0.001649 -0.006323 0.000000 0.000000 0.000000
# 2 -0.001649 0.012092 -0.001512 0.000000 0.000000 0.000000
# 3 -0.006323 -0.001512 0.012982 0.000000 0.000000 0.000000
# 4 0.000000 0.000000 0.000000 0.026109 0.000000 0.000000
# 5 0.000000 0.000000 0.000000 0.000000 0.038177 0.000000
# 6 0.000000 0.000000 0.000000 0.000000 0.000000 0.030186
#
#
# Mechanical properties :
#
#
# Convention : Reuss Voigt Hill
#
# Bulk Modulus (GPa) = 52.47659 54.79450 53.63555
# Shear Modulus (GPa) = 31.68181 33.14060 32.41120
#
# Velocity S-wave (km/s) = 3.42103 3.49890 3.46018
# Velocity P-wave (km/s) = 5.91521 6.04686 5.98140
#
# Compressibility (1/GPa) = 0.01905612
#
# Stress axis : x y z
#
# Youngs Moduli (GPa) = 77.21435 82.69708 77.02731
#
# Poissons Ratio (x) = 0.13639 0.48707
# Poissons Ratio (y) = 0.12735 0.11648
# Poissons Ratio (z) = 0.48826 0.12505
#
# Static dielectric constant tensor:
#      x y z
#    x 2.264680 0.000000 0.000000 
#    y 0.000000 1.839170 0.000000 
#    z 0.000000 0.000000 1.902090 
# 
# From -- ./inp_files/4545.got.cif
#   From: 2010.05.17/outbox.cif.g08.bks.cpg/sg61_3_cif.got.tgz:4545.got - 2010.06.03 15:17:17.
