data_PCOD9460362
_publ_section_title
;
Structure prediction by ZEFSAII (Michael W. Deem and Ramdas Pophale) SiO2 
 PCOD9460362
Probable space group: P B C A
;
_chemical_formula_sum "Si O2"
_cell_formula_units_Z 64
_cell_length_a 10.668899
_cell_length_b 23.812337
_cell_length_c 9.910076
_cell_angle_alpha 90.000000
_cell_angle_beta 90.000000
_cell_angle_gamma 90.000000
_cell_volume 2517.668864
_symmetry_space_group_name_H-M "P B C A"
_symmetry_group_IT_number 61
_symmetry_cell_setting 'orthorhombic'
loop_
_space_group_symop_operation_xyz
x,y,z
1/2-x,-y,1/2+z
1/2+x,1/2-y,-z
-x,1/2+y,1/2-z
-x,-y,-z
1/2+x,y,1/2-z
1/2-x,1/2+y,z
x,1/2-y,1/2+z
loop_
_atom_site_type_symbol
_atom_site_label
_atom_site_fract_x
_atom_site_fract_y
_atom_site_fract_z
Si Si1 0.316647 0.524435 0.903867
Si Si2 0.642624 0.250234 0.600266
Si Si3 0.054740 0.674559 0.707848
Si Si4 0.549830 0.592079 0.015833
Si Si5 0.323303 0.470682 0.659671
Si Si6 0.923792 0.912470 0.721405
Si Si7 0.520990 0.655226 0.495453
Si Si8 0.708457 0.785210 0.841492
O O1 0.364967 0.461491 0.946408
O O2 0.199113 0.532946 0.001041
O O3 0.428853 0.565498 0.942222
O O4 0.294139 0.527048 0.744671
O O5 0.585540 0.194406 0.667537
O O6 0.535254 0.282246 0.516224
O O7 0.740272 0.235008 0.485493
O O8 0.690302 0.289840 0.722394
O O9 0.106243 0.637364 0.585345
O O10 0.126407 0.733848 0.717243
O O11 0.056716 0.644393 0.851885
O O12 0.491322 0.619080 0.151960
O O13 0.208671 0.433638 0.723628
O O14 0.468483 0.459205 0.692972
O O15 0.918868 0.883510 0.576037
O O16 0.634060 0.659061 0.386577
#
# Coordination Sequence:
#
# PCOD9460362 Si02
#       8
#     8   8   8   8   8   8   8   8
#     4   9  20  41  64  90 120 172 208 260 346 392
#     4  11  24  42  62  88 131 174 213 267 327 388
#     4  11  24  41  61  98 125 162 224 270 318 388
#     4   9  21  41  63  86 130 169 211 262 332 409
#     4  10  22  42  64  94 128 164 218 272 334 412
#     4  10  24  40  63  97 129 168 221 269 329 401
#     4  11  25  39  63  95 126 172 222 265 329 380
#     4  11  24  42  62  88 131 174 213 267 327 388
#
# _framework density 25.420341000000001
#
# number of rings (size 3 to 8) (size 9 to 14) (size 15 to 20)
#    0.000    1.750    2.500    0.750    5.250    4.500 
#    2.250    0.000    0.000    0.000    0.000    0.000 
#    0.000    0.000    0.000    0.000    0.000    0.000 
#
# Total GULP energy -357289.473003 kJ/mol
# GULP energy per Si atom -5582.648016 kJ/mol
# Density = 2.536248 g / cm^3
# Si number density = 25.420341 Si / 1000 Ang^3
#
#
#
# Elastic Constant Matrix: (Units=GPa)
#
#
# Indices 1 2 3 4 5 6 
#
# 1 65.3138 10.8814 19.5484 0.0000 0.0000 0.0000
# 2 10.8814 15.2531 14.6428 0.0000 0.0000 0.0000
# 3 19.5484 14.6428 120.9754 0.0000 0.0000 0.0000
# 4 0.0000 0.0000 0.0000 50.9646 0.0000 0.0000
# 5 0.0000 0.0000 0.0000 0.0000 39.8281 0.0000
# 6 0.0000 0.0000 0.0000 0.0000 0.0000 21.7471
#
#
#
# Elastic Compliance Matrix: (Units=1/GPa)
#
#
# Indices 1 2 3 4 5 6 
#
# 1 0.017613 -0.011125 -0.001499 0.000000 0.000000 0.000000
# 2 -0.011125 0.081207 -0.008032 0.000000 0.000000 0.000000
# 3 -0.001499 -0.008032 0.009481 0.000000 0.000000 0.000000
# 4 0.000000 0.000000 0.000000 0.019621 0.000000 0.000000
# 5 0.000000 0.000000 0.000000 0.000000 0.025108 0.000000
# 6 0.000000 0.000000 0.000000 0.000000 0.000000 0.045983
#
#
# Mechanical properties :
#
#
# Convention : Reuss Voigt Hill
#
# Bulk Modulus (GPa) = 14.92807 32.40974 23.66891
# Shear Modulus (GPa) = 19.03635 32.93926 25.98781
#
# Velocity S-wave (km/s) = 2.73950 3.60360 3.20085
# Velocity P-wave (km/s) = 3.98645 5.48560 4.79498
#
# Compressibility (1/GPa) = 0.06698789
#
# Stress axis : x y z
#
# Youngs Moduli (GPa) = 56.77618 12.31419 105.47884
#
# Poissons Ratio (x) = 0.13700 0.15816
# Poissons Ratio (y) = 0.63166 0.84716
# Poissons Ratio (z) = 0.08513 0.09890
#
# Static dielectric constant tensor:
#      x y z
#    x 2.088700 0.000000 0.000000 
#    y 0.000000 2.053310 0.000000 
#    z 0.000000 0.000000 2.040300 
# 
# From -- ./inp_files/2434.got.cif
#   From: 2010.05.17/outbox.cif.g08.bks.cpg/sg61_2_cif.got.tgz:2434.got - 2010.06.03 15:17:17.
