data_PCOD9460183
_publ_section_title
;
Structure prediction by ZEFSAII (Michael W. Deem and Ramdas Pophale) SiO2 
 PCOD9460183
Probable space group: P B C A
;
_chemical_formula_sum "Si O2"
_cell_formula_units_Z 64
_cell_length_a 9.221897
_cell_length_b 16.639543
_cell_length_c 20.607996
_cell_angle_alpha 90.000000
_cell_angle_beta 90.000000
_cell_angle_gamma 90.000000
_cell_volume 3162.258896
_symmetry_space_group_name_H-M "P B C A"
_symmetry_group_IT_number 61
_symmetry_cell_setting 'orthorhombic'
loop_
_space_group_symop_operation_xyz
x,y,z
1/2-x,-y,1/2+z
1/2+x,1/2-y,-z
-x,1/2+y,1/2-z
-x,-y,-z
1/2+x,y,1/2-z
1/2-x,1/2+y,z
x,1/2-y,1/2+z
loop_
_atom_site_type_symbol
_atom_site_label
_atom_site_fract_x
_atom_site_fract_y
_atom_site_fract_z
Si Si1 0.782997 0.402275 0.468788
Si Si2 0.647283 0.236813 0.199799
Si Si3 0.637793 0.587372 0.603275
Si Si4 0.942584 0.826947 0.080938
Si Si5 0.851062 0.078188 0.455853
Si Si6 0.656489 0.087773 0.111139
Si Si7 0.475451 0.223482 0.826375
Si Si8 0.636369 0.267824 0.948265
O O1 0.947437 0.395190 0.442630
O O2 0.723384 0.490312 0.448673
O O3 0.753890 0.396254 0.546668
O O4 0.718222 0.317594 0.441655
O O5 0.538065 0.281299 0.148810
O O6 0.669065 0.149046 0.169540
O O7 0.811575 0.268387 0.198212
O O8 0.582324 0.248803 0.270444
O O9 0.584435 0.578067 0.529332
O O10 0.686768 0.503101 0.631397
O O11 0.523278 0.631424 0.648772
O O12 0.781681 0.639033 0.591067
O O13 0.936709 0.767390 0.019395
O O14 0.741069 0.153692 0.446737
O O15 0.988355 0.088119 0.410137
O O16 0.516580 0.271670 0.891833
#
# Coordination Sequence:
#
# PCOD9460183 Si02
#       8
#     8   8   8   8   8   8   8   8
#     4  11  21  36  66  99 130 162 209 274 325 387
#     4  11  25  42  65  90 131 168 228 257 326 394
#     4   9  21  40  62  92 130 161 212 267 328 384
#     4  10  22  38  63  98 122 168 215 269 335 390
#     4  10  22  36  63 104 126 162 214 266 325 400
#     4  11  20  39  64  92 129 163 209 271 326 379
#     4  11  25  44  62  94 125 181 212 272 318 399
#     4  11  22  37  67  91 131 164 216 266 334 382
#
# _framework density 20.238696999999998
#
# number of rings (size 3 to 8) (size 9 to 14) (size 15 to 20)
#    0.000    1.500    1.250    4.500    7.000    5.500 
#    0.000    3.750    0.000    0.000    0.000    0.000 
#    0.000    0.000    0.000    0.000    0.000    0.000 
#
# Total GULP energy -356861.666057 kJ/mol
# GULP energy per Si atom -5575.963532 kJ/mol
# Density = 2.019263 g / cm^3
# Si number density = 20.238697 Si / 1000 Ang^3
#
#
#
# Elastic Constant Matrix: (Units=GPa)
#
#
# Indices 1 2 3 4 5 6 
#
# 1 45.5621 5.7549 21.4835 0.0000 0.0000 0.0000
# 2 5.7549 82.6655 32.0619 0.0000 0.0000 0.0000
# 3 21.4835 32.0619 69.7770 0.0000 0.0000 0.0000
# 4 0.0000 0.0000 0.0000 16.1217 0.0000 0.0000
# 5 0.0000 0.0000 0.0000 0.0000 32.4356 0.0000
# 6 0.0000 0.0000 0.0000 0.0000 0.0000 22.6701
#
#
#
# Elastic Compliance Matrix: (Units=1/GPa)
#
#
# Indices 1 2 3 4 5 6 
#
# 1 0.025841 0.001566 -0.008676 0.000000 0.000000 0.000000
# 2 0.001566 0.014815 -0.007290 0.000000 0.000000 0.000000
# 3 -0.008676 -0.007290 0.020352 0.000000 0.000000 0.000000
# 4 0.000000 0.000000 0.000000 0.062028 0.000000 0.000000
# 5 0.000000 0.000000 0.000000 0.000000 0.030830 0.000000
# 6 0.000000 0.000000 0.000000 0.000000 0.000000 0.044111
#
#
# Mechanical properties :
#
#
# Convention : Reuss Voigt Hill
#
# Bulk Modulus (GPa) = 31.04669 35.17836 33.11252
# Shear Modulus (GPa) = 21.05147 23.49241 22.27194
#
# Velocity S-wave (km/s) = 3.22865 3.41070 3.32092
# Velocity P-wave (km/s) = 5.41040 5.73846 5.57685
#
# Compressibility (1/GPa) = 0.03220956
#
# Stress axis : x y z
#
# Youngs Moduli (GPa) = 38.69809 67.49817 49.13516
#
# Poissons Ratio (x) = -0.10570 0.42628
# Poissons Ratio (y) = -0.06060 0.35818
# Poissons Ratio (z) = 0.33573 0.49203
#
# Static dielectric constant tensor:
#      x y z
#    x 1.775980 0.000000 0.000000 
#    y 0.000000 1.793200 0.000000 
#    z 0.000000 0.000000 1.712720 
# 
# From -- ./inp_files/10171.got.cif
#   From: 2010.05.17/outbox.cif.g08.bks.cpg/sg61_6_cif.got.tgz:10171.got - 2010.06.03 15:17:17.
