data_PCOD9460287
_publ_section_title
;
Structure prediction by ZEFSAII (Michael W. Deem and Ramdas Pophale) SiO2 
 PCOD9460287
Probable space group: P B C A
;
_chemical_formula_sum "Si O2"
_cell_formula_units_Z 64
_cell_length_a 8.714825
_cell_length_b 21.912415
_cell_length_c 12.586399
_cell_angle_alpha 90.000000
_cell_angle_beta 90.000000
_cell_angle_gamma 90.000000
_cell_volume 2403.534776
_symmetry_space_group_name_H-M "P B C A"
_symmetry_group_IT_number 61
_symmetry_cell_setting 'orthorhombic'
loop_
_space_group_symop_operation_xyz
x,y,z
1/2-x,-y,1/2+z
1/2+x,1/2-y,-z
-x,1/2+y,1/2-z
-x,-y,-z
1/2+x,y,1/2-z
1/2-x,1/2+y,z
x,1/2-y,1/2+z
loop_
_atom_site_type_symbol
_atom_site_label
_atom_site_fract_x
_atom_site_fract_y
_atom_site_fract_z
Si Si1 0.238647 0.481002 0.792392
Si Si2 0.183302 0.708035 0.097897
Si Si3 0.845785 0.802006 0.692929
Si Si4 0.501321 0.095786 0.904969
Si Si5 0.199084 0.655524 0.513873
Si Si6 0.226086 0.165957 0.861500
Si Si7 0.067204 0.957130 0.617217
Si Si8 0.510299 0.938515 0.358581
O O1 0.111557 0.446705 0.860749
O O2 0.323721 0.437128 0.710494
O O3 0.133762 0.526783 0.717705
O O4 0.371411 0.511431 0.864685
O O5 0.311028 0.688026 0.183615
O O6 0.154970 0.780424 0.071198
O O7 0.017355 0.687240 0.146007
O O8 0.246120 0.681768 0.986101
O O9 0.723016 0.830738 0.610295
O O10 0.810375 0.729856 0.688965
O O11 0.633090 0.140622 0.940151
O O12 0.384778 0.132961 0.832501
O O13 0.577749 0.031112 0.875592
O O14 0.398906 0.070190 0.003789
O O15 0.098059 0.596066 0.545041
O O16 0.097536 0.118407 0.826111
#
# Coordination Sequence:
#
# PCOD9460287 Si02
#       8
#     8   8   8   8   8   8   8   8
#     4  10  22  40  66 102 130 166 226 278 328 386
#     4  11  26  41  65  96 135 172 220 278 329 393
#     4  11  26  41  65  96 135 172 220 278 329 393
#     4  11  22  43  65  88 132 175 212 268 331 382
#     4  11  24  43  63  96 132 176 222 268 331 395
#     4  11  24  43  63  96 132 176 222 268 331 395
#     4  10  22  41  65  94 131 164 216 277 322 387
#     4  11  22  38  69 100 129 173 222 279 323 399
#
# _framework density 26.627451000000001
#
# number of rings (size 3 to 8) (size 9 to 14) (size 15 to 20)
#    0.000    1.250    5.000    0.000    5.250    0.000 
#    2.250    3.750    0.000    0.000    0.000    0.000 
#    0.000    0.000    0.000    0.000    0.000    0.000 
#
# Total GULP energy -357445.884336 kJ/mol
# GULP energy per Si atom -5585.091943 kJ/mol
# Density = 2.656685 g / cm^3
# Si number density = 26.627451 Si / 1000 Ang^3
#
#
#
# Elastic Constant Matrix: (Units=GPa)
#
#
# Indices 1 2 3 4 5 6 
#
# 1 122.7576 32.5582 29.9822 0.0000 0.0000 0.0000
# 2 32.5582 114.1786 8.9888 0.0000 0.0000 0.0000
# 3 29.9822 8.9888 75.9840 0.0000 0.0000 0.0000
# 4 0.0000 0.0000 0.0000 25.4073 0.0000 0.0000
# 5 0.0000 0.0000 0.0000 0.0000 40.3377 0.0000
# 6 0.0000 0.0000 0.0000 0.0000 0.0000 22.2300
#
#
#
# Elastic Compliance Matrix: (Units=1/GPa)
#
#
# Indices 1 2 3 4 5 6 
#
# 1 0.009663 -0.002478 -0.003520 0.000000 0.000000 0.000000
# 2 -0.002478 0.009476 -0.000143 0.000000 0.000000 0.000000
# 3 -0.003520 -0.000143 0.014566 0.000000 0.000000 0.000000
# 4 0.000000 0.000000 0.000000 0.039359 0.000000 0.000000
# 5 0.000000 0.000000 0.000000 0.000000 0.024791 0.000000
# 6 0.000000 0.000000 0.000000 0.000000 0.000000 0.044984
#
#
# Mechanical properties :
#
#
# Convention : Reuss Voigt Hill
#
# Bulk Modulus (GPa) = 46.67805 50.66429 48.67117
# Shear Modulus (GPa) = 30.81418 33.68773 32.25096
#
# Velocity S-wave (km/s) = 3.40550 3.56075 3.48399
# Velocity P-wave (km/s) = 5.74729 5.99781 5.87389
#
# Compressibility (1/GPa) = 0.02142335
#
# Stress axis : x y z
#
# Youngs Moduli (GPa) = 103.48627 105.52768 68.65098
#
# Poissons Ratio (x) = 0.26154 0.24163
# Poissons Ratio (y) = 0.25648 0.00982
# Poissons Ratio (z) = 0.36425 0.01510
#
# Static dielectric constant tensor:
#      x y z
#    x 2.069760 0.000000 0.000000 
#    y 0.000000 2.152620 0.000000 
#    z 0.000000 0.000000 2.200670 
# 
# From -- ./inp_files/7228.got.cif
#   From: 2010.05.17/outbox.cif.g08.bks.cpg/sg61_4_cif.got.tgz:7228.got - 2010.06.03 15:17:17.
