data_PCOD9460440
_publ_section_title
;
Structure prediction by ZEFSAII (Michael W. Deem and Ramdas Pophale) SiO2 
 PCOD9460440
Probable space group: P B C A
;
_chemical_formula_sum "Si O2"
_cell_formula_units_Z 64
_cell_length_a 14.001395
_cell_length_b 9.194565
_cell_length_c 23.972166
_cell_angle_alpha 90.000000
_cell_angle_beta 90.000000
_cell_angle_gamma 90.000000
_cell_volume 3086.098416
_symmetry_space_group_name_H-M "P B C A"
_symmetry_group_IT_number 61
_symmetry_cell_setting 'orthorhombic'
loop_
_space_group_symop_operation_xyz
x,y,z
1/2-x,-y,1/2+z
1/2+x,1/2-y,-z
-x,1/2+y,1/2-z
-x,-y,-z
1/2+x,y,1/2-z
1/2-x,1/2+y,z
x,1/2-y,1/2+z
loop_
_atom_site_type_symbol
_atom_site_label
_atom_site_fract_x
_atom_site_fract_y
_atom_site_fract_z
Si Si1 0.254714 0.743955 0.314110
Si Si2 0.553932 0.914149 0.707402
Si Si3 0.639666 0.618701 0.984496
Si Si4 0.670073 0.963145 0.988310
Si Si5 0.393106 0.831178 0.216772
Si Si6 0.515450 0.960417 0.583564
Si Si7 0.055654 0.136855 0.600199
Si Si8 0.849357 0.491772 0.118972
O O1 0.156363 0.663446 0.297969
O O2 0.305514 0.796740 0.257609
O O3 0.222920 0.873524 0.354982
O O4 0.326282 0.637589 0.347206
O O5 0.468790 0.800416 0.716270
O O6 0.537092 0.990924 0.647683
O O7 0.557013 0.029150 0.756456
O O8 0.661914 0.789267 0.985412
O O9 0.729772 0.524391 0.966075
O O10 0.550202 0.580651 0.945226
O O11 0.608988 0.564926 0.046187
O O12 0.589915 0.039966 0.950970
O O13 0.664071 0.009842 0.052852
O O14 0.371007 0.861030 0.151948
O O15 0.463422 0.802593 0.581553
O O16 0.956060 0.073162 0.623965
#
# Coordination Sequence:
#
# PCOD9460440 Si02
#       8
#     8   8   8   8   8   8   8   8
#     4  12  24  44  72 101 136 178 233 289 346 401
#     4  11  23  46  67 101 133 176 232 283 333 417
#     4  11  24  41  68 100 139 181 227 281 355 402
#     4  12  24  44  67 104 138 187 230 289 343 425
#     4  11  25  43  71  97 139 181 225 284 352 414
#     4  10  22  44  68  97 138 181 224 292 334 410
#     4  11  24  47  65 100 146 178 230 290 350 417
#     4  12  23  43  73 102 136 183 232 291 338 413
#
# _framework density 20.738159
#
# number of rings (size 3 to 8) (size 9 to 14) (size 15 to 20)
#    0.000    0.750    5.000    3.375    0.000    2.000 
#    9.000    0.000    0.000    0.000    0.000    0.000 
#    0.000    0.000    0.000    0.000    0.000    0.000 
#
# Total GULP energy -358003.537335 kJ/mol
# GULP energy per Si atom -5593.805271 kJ/mol
# Density = 2.069096 g / cm^3
# Si number density = 20.738159 Si / 1000 Ang^3
#
#
#
# Elastic Constant Matrix: (Units=GPa)
#
#
# Indices 1 2 3 4 5 6 
#
# 1 46.8519 1.4710 32.0202 0.0000 0.0000 0.0000
# 2 1.4710 32.2640 22.3444 0.0000 0.0000 0.0000
# 3 32.0202 22.3444 109.0149 0.0000 0.0000 0.0000
# 4 0.0000 0.0000 0.0000 32.3850 0.0000 0.0000
# 5 0.0000 0.0000 0.0000 0.0000 35.3694 0.0000
# 6 0.0000 0.0000 0.0000 0.0000 0.0000 23.8382
#
#
#
# Elastic Compliance Matrix: (Units=1/GPa)
#
#
# Indices 1 2 3 4 5 6 
#
# 1 0.027390 0.005038 -0.009078 0.000000 0.000000 0.000000
# 2 0.005038 0.037048 -0.009073 0.000000 0.000000 0.000000
# 3 -0.009078 -0.009073 0.013699 0.000000 0.000000 0.000000
# 4 0.000000 0.000000 0.000000 0.030878 0.000000 0.000000
# 5 0.000000 0.000000 0.000000 0.000000 0.028273 0.000000
# 6 0.000000 0.000000 0.000000 0.000000 0.000000 0.041949
#
#
# Mechanical properties :
#
#
# Convention : Reuss Voigt Hill
#
# Bulk Modulus (GPa) = 19.26374 33.31133 26.28754
# Shear Modulus (GPa) = 22.44487 27.13820 24.79154
#
# Velocity S-wave (km/s) = 3.29340 3.62140 3.46129
# Velocity P-wave (km/s) = 4.87557 5.79515 5.35513
#
# Compressibility (1/GPa) = 0.05191099
#
# Stress axis : x y z
#
# Youngs Moduli (GPa) = 36.51015 26.99169 72.99748
#
# Poissons Ratio (x) = -0.13598 0.66264
# Poissons Ratio (y) = -0.18394 0.66234
# Poissons Ratio (z) = 0.33142 0.24491
#
# Static dielectric constant tensor:
#      x y z
#    x 1.765520 0.000000 0.000000 
#    y 0.000000 1.724290 0.000000 
#    z 0.000000 0.000000 1.727420 
# 
# From -- ./inp_files/11082.got.cif
#   From: 2010.05.17/outbox.cif.g08.bks.cpg/sg61_6_cif.got.tgz:11082.got - 2010.06.03 15:17:17.
