data_PCOD9460860
_publ_section_title
;
Structure prediction by ZEFSAII (Michael W. Deem and Ramdas Pophale) SiO2 
 PCOD9460860
Probable space group: P B C A
;
_chemical_formula_sum "Si O2"
_cell_formula_units_Z 48
_cell_length_a 13.814964
_cell_length_b 18.161005
_cell_length_c 6.892515
_cell_angle_alpha 90.000000
_cell_angle_beta 90.000000
_cell_angle_gamma 90.000000
_cell_volume 1729.288110
_symmetry_space_group_name_H-M "P B C A"
_symmetry_group_IT_number 61
_symmetry_cell_setting 'orthorhombic'
loop_
_space_group_symop_operation_xyz
x,y,z
1/2-x,-y,1/2+z
1/2+x,1/2-y,-z
-x,1/2+y,1/2-z
-x,-y,-z
1/2+x,y,1/2-z
1/2-x,1/2+y,z
x,1/2-y,1/2+z
loop_
_atom_site_type_symbol
_atom_site_label
_atom_site_fract_x
_atom_site_fract_y
_atom_site_fract_z
Si Si1 0.349217 0.040968 0.237761
Si Si2 0.143789 0.054257 0.381549
Si Si3 0.064137 0.083715 0.984204
Si Si4 0.349851 0.685229 0.679683
Si Si5 0.934824 0.178275 0.743825
Si Si6 0.814770 0.196388 0.395357
O O1 0.387464 0.007839 0.034394
O O2 0.404445 0.994479 0.398634
O O3 0.235278 0.023080 0.263567
O O4 0.342844 0.128844 0.242215
O O5 0.070835 0.082750 0.215881
O O6 0.173276 0.123241 0.518753
O O7 0.141396 0.142399 0.887926
O O8 0.968430 0.110313 0.873918
O O9 0.036461 0.297106 0.146210
O O10 0.281386 0.756611 0.659724
O O11 0.843576 0.163716 0.605330
O O12 0.896318 0.241852 0.879149
#
# Coordination Sequence:
#
# PCOD9460860 Si02
#       6
#     8   8   8   8   8   8
#     4  11  24  42  78 118 153 207 267 327 403 482
#     4  11  21  47  81 110 156 206 272 317 401 495
#     4   9  23  50  76 110 158 215 256 328 404 475
#     4   9  25  50  80 115 154 215 259 338 407 468
#     4  10  27  49  75 116 158 209 269 323 411 478
#     4  12  26  48  79 117 160 203 273 338 397 486
#
# _framework density 27.757086999999999
#
# number of rings (size 3 to 8) (size 9 to 14) (size 15 to 20)
#    1.000    0.667    1.667    1.000    2.333    6.000 
#    3.000    0.833    7.333    0.000    0.000    0.000 
#    0.000    0.000    0.000    0.000    0.000    0.000 
#
# Total GULP energy -268490.077520 kJ/mol
# GULP energy per Si atom -5593.543282 kJ/mol
# Density = 2.769391 g / cm^3
# Si number density = 27.757087 Si / 1000 Ang^3
#
#
#
# Elastic Constant Matrix: (Units=GPa)
#
#
# Indices 1 2 3 4 5 6 
#
# 1 116.9416 43.3298 27.3950 0.0000 0.0000 0.0000
# 2 43.3298 173.3271 53.9862 0.0000 0.0000 0.0000
# 3 27.3950 53.9862 136.9354 0.0000 0.0000 0.0000
# 4 0.0000 0.0000 0.0000 71.5437 0.0000 0.0000
# 5 0.0000 0.0000 0.0000 0.0000 27.9000 0.0000
# 6 0.0000 0.0000 0.0000 0.0000 0.0000 4.2125
#
#
#
# Elastic Compliance Matrix: (Units=1/GPa)
#
#
# Indices 1 2 3 4 5 6 
#
# 1 0.009569 -0.002047 -0.001107 0.000000 0.000000 0.000000
# 2 -0.002047 0.007015 -0.002356 0.000000 0.000000 0.000000
# 3 -0.001107 -0.002356 0.008453 0.000000 0.000000 0.000000
# 4 0.000000 0.000000 0.000000 0.013977 0.000000 0.000000
# 5 0.000000 0.000000 0.000000 0.000000 0.035842 0.000000
# 6 0.000000 0.000000 0.000000 0.000000 0.000000 0.237391
#
#
# Mechanical properties :
#
#
# Convention : Reuss Voigt Hill
#
# Bulk Modulus (GPa) = 71.34643 75.18067 73.26355
# Shear Modulus (GPa) = 15.24662 40.89744 28.07203
#
# Velocity S-wave (km/s) = 2.34623 3.84266 3.18362
# Velocity P-wave (km/s) = 5.75321 6.84340 6.32185
#
# Compressibility (1/GPa) = 0.01401612
#
# Stress axis : x y z
#
# Youngs Moduli (GPa) = 104.50137 142.54974 118.29972
#
# Poissons Ratio (x) = 0.29185 0.13099
# Poissons Ratio (y) = 0.21395 0.27872
# Poissons Ratio (z) = 0.11571 0.33586
#
# Static dielectric constant tensor:
#      x y z
#    x 2.245840 0.000000 0.000000 
#    y 0.000000 1.974600 0.000000 
#    z 0.000000 0.000000 2.264720 
# 
# From -- ./inp_files/3425.got.cif
#   From: 2010.05.17/outbox.cif.g08.bks.cpg/sg61_2_cif.got.tgz:3425.got - 2010.06.03 15:17:17.
