data_PCOD9460371
_publ_section_title
;
Structure prediction by ZEFSAII (Michael W. Deem and Ramdas Pophale) SiO2 
 PCOD9460371
Probable space group: P B C A
;
_chemical_formula_sum "Si O2"
_cell_formula_units_Z 56
_cell_length_a 15.766322
_cell_length_b 15.807288
_cell_length_c 8.559812
_cell_angle_alpha 90.000000
_cell_angle_beta 90.000000
_cell_angle_gamma 90.000000
_cell_volume 2133.300250
_symmetry_space_group_name_H-M "P B C A"
_symmetry_group_IT_number 61
_symmetry_cell_setting 'orthorhombic'
loop_
_space_group_symop_operation_xyz
x,y,z
1/2-x,-y,1/2+z
1/2+x,1/2-y,-z
-x,1/2+y,1/2-z
-x,-y,-z
1/2+x,y,1/2-z
1/2-x,1/2+y,z
x,1/2-y,1/2+z
loop_
_atom_site_type_symbol
_atom_site_label
_atom_site_fract_x
_atom_site_fract_y
_atom_site_fract_z
Si Si1 0.772209 0.792230 0.287701
Si Si2 0.012537 0.031028 0.729573
Si Si3 0.672827 0.461193 0.714760
Si Si4 0.935555 0.157212 0.335803
Si Si5 0.331443 0.557969 0.926467
Si Si6 0.155512 0.784811 0.954970
Si Si7 0.087255 0.326144 0.009511
O O1 0.811004 0.859651 0.172721
O O2 0.726120 0.726815 0.177487
O O3 0.698729 0.831757 0.399465
O O4 0.849099 0.765519 0.399349
O O5 0.070992 0.035613 0.885188
O O6 0.036903 0.114261 0.631541
O O7 0.047527 0.943019 0.651705
O O8 0.910926 0.021753 0.732492
O O9 0.761542 0.494489 0.646672
O O10 0.641398 0.391118 0.593527
O O11 0.686060 0.432128 0.891791
O O12 0.869076 0.195658 0.461504
O O13 0.917306 0.176420 0.153468
O O14 0.018770 0.209377 0.389665
#
# Coordination Sequence:
#
# PCOD9460371 Si02
#       7
#     8   8   8   8   8   8   8
#     4  10  24  43  63  96 130 169 229 270 321 402
#     4  10  23  44  68 101 136 170 219 279 339 398
#     4  11  23  39  63 106 133 169 210 265 349 392
#     4  10  22  42  66  91 131 172 219 270 324 403
#     4  11  24  39  69 102 131 175 212 276 343 385
#     4  10  24  42  65  93 124 186 220 266 326 386
#     4  10  23  43  67 100 132 171 215 284 340 386
#
# _framework density 26.250406000000002
#
# number of rings (size 3 to 8) (size 9 to 14) (size 15 to 20)
#    0.000    1.714    0.000    3.857   10.000    2.286 
#    0.000    4.286    0.000    0.000    0.000    0.000 
#    0.000    0.000    0.000    0.000    0.000    0.000 
#
# Total GULP energy -313140.210502 kJ/mol
# GULP energy per Si atom -5591.789473 kJ/mol
# Density = 2.619066 g / cm^3
# Si number density = 26.250406 Si / 1000 Ang^3
#
#
#
# Elastic Constant Matrix: (Units=GPa)
#
#
# Indices 1 2 3 4 5 6 
#
# 1 95.9264 20.0456 28.1326 0.0000 0.0000 0.0000
# 2 20.0456 50.4067 29.2742 0.0000 0.0000 0.0000
# 3 28.1326 29.2742 115.7232 0.0000 0.0000 0.0000
# 4 0.0000 0.0000 0.0000 20.3237 0.0000 0.0000
# 5 0.0000 0.0000 0.0000 0.0000 59.7661 0.0000
# 6 0.0000 0.0000 0.0000 0.0000 0.0000 29.1763
#
#
#
# Elastic Compliance Matrix: (Units=1/GPa)
#
#
# Indices 1 2 3 4 5 6 
#
# 1 0.011737 -0.003529 -0.001961 0.000000 0.000000 0.000000
# 2 -0.003529 0.024316 -0.005293 0.000000 0.000000 0.000000
# 3 -0.001961 -0.005293 0.010457 0.000000 0.000000 0.000000
# 4 0.000000 0.000000 0.000000 0.049204 0.000000 0.000000
# 5 0.000000 0.000000 0.000000 0.000000 0.016732 0.000000
# 6 0.000000 0.000000 0.000000 0.000000 0.000000 0.034274
#
#
# Mechanical properties :
#
#
# Convention : Reuss Voigt Hill
#
# Bulk Modulus (GPa) = 40.08894 46.32900 43.20897
# Shear Modulus (GPa) = 28.31246 34.16013 31.23629
#
# Velocity S-wave (km/s) = 3.28770 3.61129 3.45329
# Velocity P-wave (km/s) = 5.45131 5.92248 5.69177
#
# Compressibility (1/GPa) = 0.02494454
#
# Stress axis : x y z
#
# Youngs Moduli (GPa) = 85.20001 41.12490 95.62993
#
# Poissons Ratio (x) = 0.14513 0.18749
# Poissons Ratio (y) = 0.30066 0.50620
# Poissons Ratio (z) = 0.16704 0.21769
#
# Static dielectric constant tensor:
#      x y z
#    x 2.166970 0.000000 0.000000 
#    y 0.000000 2.091100 0.000000 
#    z 0.000000 0.000000 2.027300 
# 
# From -- ./inp_files/3072.got.cif
#   From: 2010.05.17/outbox.cif.g08.bks.cpg/sg61_2_cif.got.tgz:3072.got - 2010.06.03 15:17:17.
