data_PCOD9460294
_publ_section_title
;
Structure prediction by ZEFSAII (Michael W. Deem and Ramdas Pophale) SiO2 
 PCOD9460294
Probable space group: P B C A
;
_chemical_formula_sum "Si O2"
_cell_formula_units_Z 64
_cell_length_a 7.652267
_cell_length_b 31.243240
_cell_length_c 11.721263
_cell_angle_alpha 90.000000
_cell_angle_beta 90.000000
_cell_angle_gamma 90.000000
_cell_volume 2802.338481
_symmetry_space_group_name_H-M "P B C A"
_symmetry_group_IT_number 61
_symmetry_cell_setting 'orthorhombic'
loop_
_space_group_symop_operation_xyz
x,y,z
1/2-x,-y,1/2+z
1/2+x,1/2-y,-z
-x,1/2+y,1/2-z
-x,-y,-z
1/2+x,y,1/2-z
1/2-x,1/2+y,z
x,1/2-y,1/2+z
loop_
_atom_site_type_symbol
_atom_site_label
_atom_site_fract_x
_atom_site_fract_y
_atom_site_fract_z
Si Si1 0.241343 0.625164 0.085110
Si Si2 0.345607 0.591047 0.693565
Si Si3 0.723644 0.548410 0.005541
Si Si4 0.387781 0.200927 0.920546
Si Si5 0.143519 0.872057 0.842583
Si Si6 0.593252 0.659944 0.815800
Si Si7 0.815629 0.547347 0.573442
Si Si8 0.223434 0.794281 0.992491
O O1 0.444709 0.630948 0.114961
O O2 0.145910 0.625128 0.206284
O O3 0.175091 0.663228 0.004294
O O4 0.233770 0.580787 0.015813
O O5 0.369394 0.557970 0.591197
O O6 0.466558 0.625349 0.757854
O O7 0.224678 0.625650 0.629368
O O8 0.271975 0.564263 0.799973
O O9 0.528225 0.548904 0.946419
O O10 0.724485 0.584914 0.102407
O O11 0.741956 0.501110 0.055349
O O12 0.341871 0.186879 0.792101
O O13 0.596816 0.204769 0.936320
O O14 0.309598 0.246900 0.948580
O O15 0.232873 0.828964 0.891027
O O16 0.566989 0.692087 0.919893
#
# Coordination Sequence:
#
# PCOD9460294 Si02
#       8
#     8   8   8   8   8   8   8   8
#     4  11  24  43  67  94 139 179 222 275 342 402
#     4  12  21  43  71  98 131 182 227 286 342 407
#     4  10  22  41  66  98 137 176 228 281 345 406
#     4  12  27  44  70 101 134 175 227 281 343 414
#     4  11  23  44  65  94 136 183 220 278 339 402
#     4  12  24  44  72  97 133 175 228 282 340 406
#     4  10  22  40  67  99 134 180 225 284 341 406
#     4  12  27  45  70 101 134 175 227 283 343 416
#
# _framework density 22.838069000000001
#
# number of rings (size 3 to 8) (size 9 to 14) (size 15 to 20)
#    0.000    0.750    5.000    2.250    5.250    0.000 
#    0.000    0.625    0.000    0.000    0.000    0.000 
#    0.000    0.000    0.000    0.000    0.000    0.000 
#
# Total GULP energy -357579.132279 kJ/mol
# GULP energy per Si atom -5587.173942 kJ/mol
# Density = 2.278609 g / cm^3
# Si number density = 22.838069 Si / 1000 Ang^3
#
#
#
# Elastic Constant Matrix: (Units=GPa)
#
#
# Indices 1 2 3 4 5 6 
#
# 1 45.2108 29.5941 13.7368 0.0000 0.0000 0.0000
# 2 29.5941 216.5938 91.3143 0.0000 0.0000 0.0000
# 3 13.7368 91.3143 166.8236 0.0000 0.0000 0.0000
# 4 0.0000 0.0000 0.0000 49.1040 0.0000 0.0000
# 5 0.0000 0.0000 0.0000 0.0000 28.2075 0.0000
# 6 0.0000 0.0000 0.0000 0.0000 0.0000 29.8628
#
#
#
# Elastic Compliance Matrix: (Units=1/GPa)
#
#
# Indices 1 2 3 4 5 6 
#
# 1 0.024298 -0.003219 -0.000239 0.000000 0.000000 0.000000
# 2 -0.003219 0.006429 -0.003254 0.000000 0.000000 0.000000
# 3 -0.000239 -0.003254 0.007795 0.000000 0.000000 0.000000
# 4 0.000000 0.000000 0.000000 0.020365 0.000000 0.000000
# 5 0.000000 0.000000 0.000000 0.000000 0.035452 0.000000
# 6 0.000000 0.000000 0.000000 0.000000 0.000000 0.033486
#
#
# Mechanical properties :
#
#
# Convention : Reuss Voigt Hill
#
# Bulk Modulus (GPa) = 39.84290 77.54650 58.69470
# Shear Modulus (GPa) = 33.41921 41.03374 37.22647
#
# Velocity S-wave (km/s) = 3.82948 4.24338 4.04173
# Velocity P-wave (km/s) = 6.08579 7.61820 6.89470
#
# Compressibility (1/GPa) = 0.02509857
#
# Stress axis : x y z
#
# Youngs Moduli (GPa) = 41.15486 155.55610 128.28764
#
# Poissons Ratio (x) = 0.50080 0.03061
# Poissons Ratio (y) = 0.13249 0.41741
# Poissons Ratio (z) = 0.00982 0.50613
#
# Static dielectric constant tensor:
#      x y z
#    x 2.077300 0.000000 0.000000 
#    y 0.000000 1.815460 0.000000 
#    z 0.000000 0.000000 1.851790 
# 
# From -- ./inp_files/4967.got.cif
#   From: 2010.05.17/outbox.cif.g08.bks.cpg/sg61_3_cif.got.tgz:4967.got - 2010.06.03 15:17:17.
