data_PCOD9460694
_publ_section_title
;
Structure prediction by ZEFSAII (Michael W. Deem and Ramdas Pophale) SiO2 
 PCOD9460694
Probable space group: P B C A
;
_chemical_formula_sum "Si O2"
_cell_formula_units_Z 60
_cell_length_a 29.093437
_cell_length_b 8.649678
_cell_length_c 11.763847
_cell_angle_alpha 90.000000
_cell_angle_beta 90.000000
_cell_angle_gamma 90.000000
_cell_volume 2960.358710
_symmetry_space_group_name_H-M "P B C A"
_symmetry_group_IT_number 61
_symmetry_cell_setting 'orthorhombic'
loop_
_space_group_symop_operation_xyz
x,y,z
1/2-x,-y,1/2+z
1/2+x,1/2-y,-z
-x,1/2+y,1/2-z
-x,-y,-z
1/2+x,y,1/2-z
1/2-x,1/2+y,z
x,1/2-y,1/2+z
loop_
_atom_site_type_symbol
_atom_site_label
_atom_site_fract_x
_atom_site_fract_y
_atom_site_fract_z
Si Si1 0.187050 0.974555 0.134392
Si Si2 0.539928 0.229793 0.833073
Si Si3 0.910779 0.154276 0.880094
Si Si4 0.457771 0.495780 0.328235
Si Si5 0.000000 0.500000 0.500000
Si Si6 0.097118 0.001956 0.549913
Si Si7 0.311324 0.509560 0.401823
Si Si8 0.253267 0.735864 0.018676
O O1 0.137004 0.928364 0.085829
O O2 0.223788 0.839717 0.105858
O O3 0.180899 0.994854 0.268593
O O4 0.210021 0.126409 0.080876
O O5 0.543495 0.330733 0.719371
O O6 0.506695 0.084817 0.810767
O O7 0.587154 0.151459 0.873150
O O8 0.518637 0.347730 0.925356
O O9 0.953619 0.097892 0.956840
O O10 0.903232 0.338290 0.886094
O O11 0.923777 0.102686 0.752081
O O12 0.443817 0.493873 0.458162
O O13 0.142483 0.019924 0.475119
O O14 0.282916 0.365047 0.449093
O O15 0.280297 0.656076 0.431844
#
# Coordination Sequence:
#
# PCOD9460694 Si02
#       8
#     8   8   8   8   4   8   8   8
#     4  11  22  44  69  99 135 172 223 276 341 409
#     4  11  25  41  65  95 131 179 232 275 333 396
#     4  11  23  43  66  98 132 179 224 280 336 410
#     4  11  24  43  65  92 134 178 225 279 335 395
#     4  10  24  40  66  92 134 176 224 276 338 398
#     4  12  24  42  66  95 135 173 224 284 335 399
#     4  11  23  42  67  99 131 174 219 272 347 404
#     4  10  24  42  70  96 137 171 216 283 337 413
#
# _framework density 20.267814000000001
#
# number of rings (size 3 to 8) (size 9 to 14) (size 15 to 20)
#    0.000    1.067    4.000    2.000    7.467    0.000 
#    0.000    0.000    5.867    0.000    0.000    0.000 
#    0.000    0.000    0.000    0.000    0.000    0.000 
#
# Total GULP energy -334333.635484 kJ/mol
# GULP energy per Si atom -5572.227258 kJ/mol
# Density = 2.022168 g / cm^3
# Si number density = 20.267814 Si / 1000 Ang^3
#
#
#
# Elastic Constant Matrix: (Units=GPa)
#
#
# Indices 1 2 3 4 5 6 
#
# 1 85.6077 34.0313 21.4421 0.0000 0.0000 0.0000
# 2 34.0313 92.7920 20.1710 0.0000 0.0000 0.0000
# 3 21.4421 20.1710 35.8844 0.0000 0.0000 0.0000
# 4 0.0000 0.0000 0.0000 12.4950 0.0000 0.0000
# 5 0.0000 0.0000 0.0000 0.0000 30.2571 0.0000
# 6 0.0000 0.0000 0.0000 0.0000 0.0000 19.4923
#
#
#
# Elastic Compliance Matrix: (Units=1/GPa)
#
#
# Indices 1 2 3 4 5 6 
#
# 1 0.014956 -0.004035 -0.006668 0.000000 0.000000 0.000000
# 2 -0.004035 0.013366 -0.005102 0.000000 0.000000 0.000000
# 3 -0.006668 -0.005102 0.034719 0.000000 0.000000 0.000000
# 4 0.000000 0.000000 0.000000 0.080032 0.000000 0.000000
# 5 0.000000 0.000000 0.000000 0.000000 0.033050 0.000000
# 6 0.000000 0.000000 0.000000 0.000000 0.000000 0.051302
#
#
# Mechanical properties :
#
#
# Convention : Reuss Voigt Hill
#
# Bulk Modulus (GPa) = 31.81652 40.61922 36.21787
# Shear Modulus (GPa) = 18.55205 21.69156 20.12180
#
# Velocity S-wave (km/s) = 3.02875 3.27501 3.15428
# Velocity P-wave (km/s) = 5.28803 5.86393 5.58341
#
# Compressibility (1/GPa) = 0.03143022
#
# Stress axis : x y z
#
# Youngs Moduli (GPa) = 66.86498 74.81795 28.80237
#
# Poissons Ratio (x) = 0.30192 0.19206
# Poissons Ratio (y) = 0.26983 0.14694
# Poissons Ratio (z) = 0.44586 0.38170
#
# Static dielectric constant tensor:
#      x y z
#    x 1.741310 0.000000 0.000000 
#    y 0.000000 2.150330 0.000000 
#    z 0.000000 0.000000 1.705730 
# 
# From -- ./inp_files/2378.got.cif
#   From: 2010.05.17/outbox.cif.g08.bks.cpg/sg61_2_cif.got.tgz:2378.got - 2010.06.03 15:17:17.
