data_PCOD9460966
_publ_section_title
;
Structure prediction by ZEFSAII (Michael W. Deem and Ramdas Pophale) SiO2 
 PCOD9460966
Probable space group: P B C A
;
_chemical_formula_sum "Si O2"
_cell_formula_units_Z 40
_cell_length_a 25.721101
_cell_length_b 4.926866
_cell_length_c 13.817642
_cell_angle_alpha 90.000000
_cell_angle_beta 90.000000
_cell_angle_gamma 90.000000
_cell_volume 1751.032641
_symmetry_space_group_name_H-M "P B C A"
_symmetry_group_IT_number 61
_symmetry_cell_setting 'orthorhombic'
loop_
_space_group_symop_operation_xyz
x,y,z
1/2-x,-y,1/2+z
1/2+x,1/2-y,-z
-x,1/2+y,1/2-z
-x,-y,-z
1/2+x,y,1/2-z
1/2-x,1/2+y,z
x,1/2-y,1/2+z
loop_
_atom_site_type_symbol
_atom_site_label
_atom_site_fract_x
_atom_site_fract_y
_atom_site_fract_z
Si Si1 0.716506 0.151781 0.389006
Si Si2 0.355489 0.930932 0.795340
Si Si3 0.644231 0.574825 0.059691
Si Si4 0.467695 0.049981 0.765390
Si Si5 0.464286 0.246945 0.474877
O O1 0.731672 0.467259 0.393241
O O2 0.687804 0.107729 0.286511
O O3 0.683762 0.046731 0.480981
O O4 0.366669 0.675116 0.866207
O O5 0.409507 0.976280 0.735458
O O6 0.340490 0.177704 0.868199
O O7 0.595011 0.688166 0.997045
O O8 0.457822 0.221149 0.861128
O O9 0.499104 0.775641 0.791301
O O10 0.500000 0.000000 0.000000
O O11 0.500000 0.000000 0.500000
#
# Coordination Sequence:
#
# PCOD9460966 Si02
#       5
#     8   8   8   8   8
#     4  12  28  46  74 107 131 187 249 293 359 415
#     4  11  25  47  69 100 147 182 230 294 354 422
#     4  11  25  47  69 101 146 183 230 295 356 421
#     4  11  23  40  64  99 135 182 224 272 345 413
#     4  11  23  40  64  99 135 182 224 272 347 416
#
# _framework density 22.843661999999998
#
# number of rings (size 3 to 8) (size 9 to 14) (size 15 to 20)
#    0.000    0.800    0.000    8.400    5.600    4.800 
#    0.000    0.000    0.000    0.000    0.000    0.000 
#    0.000    0.000    0.000    0.000    0.000    0.000 
#
# Total GULP energy -223173.160204 kJ/mol
# GULP energy per Si atom -5579.329005 kJ/mol
# Density = 2.279167 g / cm^3
# Si number density = 22.843662 Si / 1000 Ang^3
#
#
#
# Elastic Constant Matrix: (Units=GPa)
#
#
# Indices 1 2 3 4 5 6 
#
# 1 70.2244 2.0269 24.5508 0.0000 0.0000 0.0000
# 2 2.0269 124.0440 3.4487 0.0000 0.0000 0.0000
# 3 24.5508 3.4487 68.3435 0.0000 0.0000 0.0000
# 4 0.0000 0.0000 0.0000 46.1340 0.0000 0.0000
# 5 0.0000 0.0000 0.0000 0.0000 35.6294 0.0000
# 6 0.0000 0.0000 0.0000 0.0000 0.0000 32.8822
#
#
#
# Elastic Compliance Matrix: (Units=1/GPa)
#
#
# Indices 1 2 3 4 5 6 
#
# 1 0.016287 -0.000104 -0.005845 0.000000 0.000000 0.000000
# 2 -0.000104 0.008074 -0.000370 0.000000 0.000000 0.000000
# 3 -0.005845 -0.000370 0.016750 0.000000 0.000000 0.000000
# 4 0.000000 0.000000 0.000000 0.021676 0.000000 0.000000
# 5 0.000000 0.000000 0.000000 0.000000 0.028067 0.000000
# 6 0.000000 0.000000 0.000000 0.000000 0.000000 0.030412
#
#
# Mechanical properties :
#
#
# Convention : Reuss Voigt Hill
#
# Bulk Modulus (GPa) = 35.12172 35.85164 35.48668
# Shear Modulus (GPa) = 34.86892 38.43480 36.65186
#
# Velocity S-wave (km/s) = 3.91118 4.10630 4.00992
# Velocity P-wave (km/s) = 5.98369 6.18148 6.08339
#
# Compressibility (1/GPa) = 0.02847241
#
# Stress axis : x y z
#
# Youngs Moduli (GPa) = 61.40014 123.85990 59.69984
#
# Poissons Ratio (x) = 0.01283 0.34897
# Poissons Ratio (y) = 0.00636 0.02210
# Poissons Ratio (z) = 0.35891 0.04585
#
# Static dielectric constant tensor:
#      x y z
#    x 2.110770 0.000000 0.000000 
#    y 0.000000 1.808240 0.000000 
#    z 0.000000 0.000000 1.849680 
# 
# From -- ./inp_files/6655.got.cif
#   From: 2010.05.17/outbox.cif.g08.bks.cpg/sg61_4_cif.got.tgz:6655.got - 2010.06.03 15:17:17.
