data_PCOD9460734
_publ_section_title
;
Structure prediction by ZEFSAII (Michael W. Deem and Ramdas Pophale) SiO2 
 PCOD9460734
Probable space group: P B C A
;
_chemical_formula_sum "Si O2"
_cell_formula_units_Z 40
_cell_length_a 22.523009
_cell_length_b 7.631069
_cell_length_c 9.286139
_cell_angle_alpha 90.000000
_cell_angle_beta 90.000000
_cell_angle_gamma 90.000000
_cell_volume 1596.051758
_symmetry_space_group_name_H-M "P B C A"
_symmetry_group_IT_number 61
_symmetry_cell_setting 'orthorhombic'
loop_
_space_group_symop_operation_xyz
x,y,z
1/2-x,-y,1/2+z
1/2+x,1/2-y,-z
-x,1/2+y,1/2-z
-x,-y,-z
1/2+x,y,1/2-z
1/2-x,1/2+y,z
x,1/2-y,1/2+z
loop_
_atom_site_type_symbol
_atom_site_label
_atom_site_fract_x
_atom_site_fract_y
_atom_site_fract_z
Si Si1 0.289126 0.742649 0.475132
Si Si2 0.351982 0.878490 0.716865
Si Si3 0.838131 0.377855 0.031880
Si Si4 0.960776 0.873258 0.201231
Si Si5 0.540219 0.742184 0.063163
O O1 0.329473 0.886078 0.554533
O O2 0.302015 0.730350 0.305749
O O3 0.219440 0.761277 0.490545
O O4 0.317729 0.563041 0.534142
O O5 0.411259 0.765668 0.745094
O O6 0.350443 0.062867 0.801099
O O7 0.901099 0.309181 0.984210
O O8 0.009935 0.877545 0.326931
O O9 0.942521 0.068892 0.155264
O O10 0.991493 0.803072 0.056225
#
# Coordination Sequence:
#
# PCOD9460734 Si02
#       5
#     8   8   8   8   8
#     4  10  25  43  69  98 140 185 235 284 347 414
#     4  10  24  43  70 100 140 185 227 292 345 420
#     4  10  26  43  71 101 141 182 235 290 349 415
#     4  11  25  46  74 107 144 181 236 292 356 429
#     4  11  26  45  74 107 142 186 233 292 361 419
#
# _framework density 25.061843
#
# number of rings (size 3 to 8) (size 9 to 14) (size 15 to 20)
#    1.200    0.400    0.000    2.400    8.400    4.800 
#    0.000    0.000    0.000    0.000    0.000    0.000 
#    0.000    0.000    0.000    0.000    0.000    0.000 
#
# Total GULP energy -223510.551022 kJ/mol
# GULP energy per Si atom -5587.763776 kJ/mol
# Density = 2.500480 g / cm^3
# Si number density = 25.061843 Si / 1000 Ang^3
#
#
#
# Elastic Constant Matrix: (Units=GPa)
#
#
# Indices 1 2 3 4 5 6 
#
# 1 145.6205 54.8796 2.9155 0.0000 0.0000 0.0000
# 2 54.8796 90.1888 13.9230 0.0000 0.0000 0.0000
# 3 2.9155 13.9230 55.1053 0.0000 0.0000 0.0000
# 4 0.0000 0.0000 0.0000 13.3122 0.0000 0.0000
# 5 0.0000 0.0000 0.0000 0.0000 5.3712 0.0000
# 6 0.0000 0.0000 0.0000 0.0000 0.0000 34.9276
#
#
#
# Elastic Compliance Matrix: (Units=1/GPa)
#
#
# Indices 1 2 3 4 5 6 
#
# 1 0.008957 -0.005595 0.000940 0.000000 0.000000 0.000000
# 2 -0.005595 0.015033 -0.003502 0.000000 0.000000 0.000000
# 3 0.000940 -0.003502 0.018982 0.000000 0.000000 0.000000
# 4 0.000000 0.000000 0.000000 0.075119 0.000000 0.000000
# 5 0.000000 0.000000 0.000000 0.000000 0.186178 0.000000
# 6 0.000000 0.000000 0.000000 0.000000 0.000000 0.028631
#
#
# Mechanical properties :
#
#
# Convention : Reuss Voigt Hill
#
# Bulk Modulus (GPa) = 37.51379 48.26121 42.88750
# Shear Modulus (GPa) = 13.96253 25.33532 19.64892
#
# Velocity S-wave (km/s) = 2.36291 3.18293 2.80307
# Velocity P-wave (km/s) = 4.73766 5.72772 5.25605
#
# Compressibility (1/GPa) = 0.02665686
#
# Stress axis : x y z
#
# Youngs Moduli (GPa) = 111.64337 66.51882 52.68079
#
# Poissons Ratio (x) = 0.37220 -0.04951
# Poissons Ratio (y) = 0.62470 0.18451
# Poissons Ratio (z) = -0.10493 0.23297
#
# Static dielectric constant tensor:
#      x y z
#    x 1.975800 0.000000 0.000000 
#    y 0.000000 2.059730 0.000000 
#    z 0.000000 0.000000 1.970950 
# 
# From -- ./inp_files/4154.got.cif
#   From: 2010.05.17/outbox.cif.g08.bks.cpg/sg61_3_cif.got.tgz:4154.got - 2010.06.03 15:17:17.
