data_PCOD9460834
_publ_section_title
;
Structure prediction by ZEFSAII (Michael W. Deem and Ramdas Pophale) SiO2 
 PCOD9460834
Probable space group: P B C A
;
_chemical_formula_sum "Si O2"
_cell_formula_units_Z 60
_cell_length_a 22.500498
_cell_length_b 7.928000
_cell_length_c 13.441786
_cell_angle_alpha 90.000000
_cell_angle_beta 90.000000
_cell_angle_gamma 90.000000
_cell_volume 2397.798857
_symmetry_space_group_name_H-M "P B C A"
_symmetry_group_IT_number 61
_symmetry_cell_setting 'orthorhombic'
loop_
_space_group_symop_operation_xyz
x,y,z
1/2-x,-y,1/2+z
1/2+x,1/2-y,-z
-x,1/2+y,1/2-z
-x,-y,-z
1/2+x,y,1/2-z
1/2-x,1/2+y,z
x,1/2-y,1/2+z
loop_
_atom_site_type_symbol
_atom_site_label
_atom_site_fract_x
_atom_site_fract_y
_atom_site_fract_z
Si Si1 0.284340 0.178479 0.339955
Si Si2 0.164112 0.354716 0.971468
Si Si3 0.563357 0.489513 0.663895
Si Si4 0.500000 0.000000 0.500000
Si Si5 0.176381 0.505791 0.714222
Si Si6 0.466906 0.874866 0.281995
Si Si7 0.636064 0.538691 0.996166
Si Si8 0.332518 0.889905 0.201231
O O1 0.225078 0.150812 0.407699
O O2 0.204703 0.855874 0.286430
O O3 0.337897 0.153188 0.417939
O O4 0.297436 0.035497 0.257628
O O5 0.110567 0.465590 0.924967
O O6 0.142354 0.159839 0.974204
O O7 0.173029 0.413555 0.083689
O O8 0.607051 0.510177 0.756859
O O9 0.530885 0.310700 0.671377
O O10 0.510475 0.617224 0.686214
O O11 0.481927 0.990138 0.377246
O O12 0.432787 0.066407 0.524277
O O13 0.178076 0.560072 0.600104
O O14 0.189070 0.303718 0.720646
O O15 0.400186 0.900385 0.240179
#
# Coordination Sequence:
#
# PCOD9460834 Si02
#       8
#     8   8   8   4   8   8   8   8
#     4  12  27  52  85 120 161 220 284 338 418 512
#     4  11  27  52  79 118 171 223 275 349 427 505
#     4  11  24  46  74 117 157 212 271 342 414 496
#     4  12  20  46  78 106 158 216 264 334 426 490
#     4  10  25  49  79 117 161 210 270 335 413 486
#     4  11  24  43  83 111 159 209 268 346 410 492
#     4  11  24  51  75 120 163 215 270 347 424 484
#     4  10  25  54  82 121 168 215 273 351 416 494
#
# _framework density 25.022952
#
# number of rings (size 3 to 8) (size 9 to 14) (size 15 to 20)
#    0.000    1.067    4.000    0.800    3.733    2.667 
#    7.200    1.333    0.000    2.400    0.000    0.000 
#    0.000    0.000    0.000    0.000    0.000    0.000 
#
# Total GULP energy -334532.790776 kJ/mol
# GULP energy per Si atom -5575.546513 kJ/mol
# Density = 2.496600 g / cm^3
# Si number density = 25.022952 Si / 1000 Ang^3
#
#
#
# Elastic Constant Matrix: (Units=GPa)
#
#
# Indices 1 2 3 4 5 6 
#
# 1 122.2263 41.6527 76.7927 0.0000 0.0000 0.0000
# 2 41.6527 94.8234 69.5814 0.0000 0.0000 0.0000
# 3 76.7927 69.5814 214.4113 0.0000 0.0000 0.0000
# 4 0.0000 0.0000 0.0000 31.2418 0.0000 0.0000
# 5 0.0000 0.0000 0.0000 0.0000 21.8005 0.0000
# 6 0.0000 0.0000 0.0000 0.0000 0.0000 22.3380
#
#
#
# Elastic Compliance Matrix: (Units=1/GPa)
#
#
# Indices 1 2 3 4 5 6 
#
# 1 0.011007 -0.002549 -0.003115 0.000000 0.000000 0.000000
# 2 -0.002549 0.014433 -0.003771 0.000000 0.000000 0.000000
# 3 -0.003115 -0.003771 0.007003 0.000000 0.000000 0.000000
# 4 0.000000 0.000000 0.000000 0.032008 0.000000 0.000000
# 5 0.000000 0.000000 0.000000 0.000000 0.045870 0.000000
# 6 0.000000 0.000000 0.000000 0.000000 0.000000 0.044767
#
#
# Mechanical properties :
#
#
# Convention : Reuss Voigt Hill
#
# Bulk Modulus (GPa) = 73.67443 89.72385 81.69914
# Shear Modulus (GPa) = 28.01378 31.30501 29.65939
#
# Velocity S-wave (km/s) = 3.34956 3.54086 3.44654
# Velocity P-wave (km/s) = 6.66829 7.25613 6.96841
#
# Compressibility (1/GPa) = 0.01357323
#
# Stress axis : x y z
#
# Youngs Moduli (GPa) = 90.84739 69.28717 142.79022
#
# Poissons Ratio (x) = 0.17664 0.44480
# Poissons Ratio (y) = 0.23160 0.53841
# Poissons Ratio (z) = 0.28300 0.26126
#
# Static dielectric constant tensor:
#      x y z
#    x 2.008740 0.000000 0.000000 
#    y 0.000000 2.009530 0.000000 
#    z 0.000000 0.000000 2.044910 
# 
# From -- ./inp_files/8420.got.cif
#   From: 2010.05.17/outbox.cif.g08.bks.cpg/sg61_5_cif.got.tgz:8420.got - 2010.06.03 15:17:17.
