data_PCOD9460669
_publ_section_title
;
Structure prediction by ZEFSAII (Michael W. Deem and Ramdas Pophale) SiO2 
 PCOD9460669
Probable space group: P B C A
;
_chemical_formula_sum "Si O2"
_cell_formula_units_Z 24
_cell_length_a 5.359567
_cell_length_b 9.621503
_cell_length_c 16.126919
_cell_angle_alpha 90.000000
_cell_angle_beta 90.000000
_cell_angle_gamma 90.000000
_cell_volume 831.618283
_symmetry_space_group_name_H-M "P B C A"
_symmetry_group_IT_number 61
_symmetry_cell_setting 'orthorhombic'
loop_
_space_group_symop_operation_xyz
x,y,z
1/2-x,-y,1/2+z
1/2+x,1/2-y,-z
-x,1/2+y,1/2-z
-x,-y,-z
1/2+x,y,1/2-z
1/2-x,1/2+y,z
x,1/2-y,1/2+z
loop_
_atom_site_type_symbol
_atom_site_label
_atom_site_fract_x
_atom_site_fract_y
_atom_site_fract_z
Si Si1 0.045266 0.696610 0.662433
Si Si2 0.535587 0.122698 0.327361
Si Si3 0.747094 0.523628 0.552045
O O1 0.005121 0.782411 0.746891
O O2 0.267468 0.785261 0.619920
O O3 0.722198 0.917100 0.627973
O O4 0.814104 0.662703 0.601866
O O5 0.637548 0.963083 0.314597
O O6 0.500000 0.500000 0.500000
O O7 0.000000 0.500000 0.500000
#
# Coordination Sequence:
#
# PCOD9460669 Si02
#       3
#     8   8   8
#     4  10  23  46  89 133 188 246 339 407 494 578
#     4  10  23  46  89 133 188 246 339 407 494 578
#     4  10  26  52  86 128 194 248 315 392 505 596
#
# _framework density 28.859394999999999
#
# number of rings (size 3 to 8) (size 9 to 14) (size 15 to 20)
#    2.000    0.000    0.000    2.000    0.000    5.333 
#    0.000    6.667    0.000   10.000    0.000    0.000 
#    0.000    0.000    0.000    0.000    0.000    0.000 
#
# Total GULP energy -133998.264602 kJ/mol
# GULP energy per Si atom -5583.261025 kJ/mol
# Density = 2.879371 g / cm^3
# Si number density = 28.859395 Si / 1000 Ang^3
#
#
#
# Elastic Constant Matrix: (Units=GPa)
#
#
# Indices 1 2 3 4 5 6 
#
# 1 243.4441 38.7360 76.3995 0.0000 0.0000 0.0000
# 2 38.7360 211.0741 16.1274 0.0000 0.0000 0.0000
# 3 76.3995 16.1274 121.4105 0.0000 0.0000 0.0000
# 4 0.0000 0.0000 0.0000 42.7408 0.0000 0.0000
# 5 0.0000 0.0000 0.0000 0.0000 74.8751 0.0000
# 6 0.0000 0.0000 0.0000 0.0000 0.0000 57.3786
#
#
#
# Elastic Compliance Matrix: (Units=1/GPa)
#
#
# Indices 1 2 3 4 5 6 
#
# 1 0.005223 -0.000715 -0.003192 0.000000 0.000000 0.000000
# 2 -0.000715 0.004884 -0.000199 0.000000 0.000000 0.000000
# 3 -0.003192 -0.000199 0.010271 0.000000 0.000000 0.000000
# 4 0.000000 0.000000 0.000000 0.023397 0.000000 0.000000
# 5 0.000000 0.000000 0.000000 0.000000 0.013356 0.000000
# 6 0.000000 0.000000 0.000000 0.000000 0.000000 0.017428
#
#
# Mechanical properties :
#
#
# Convention : Reuss Voigt Hill
#
# Bulk Modulus (GPa) = 82.18564 93.16161 87.67362
# Shear Modulus (GPa) = 57.58645 64.64329 61.11487
#
# Velocity S-wave (km/s) = 4.47185 4.73793 4.60681
# Velocity P-wave (km/s) = 7.42988 7.89189 7.66437
#
# Compressibility (1/GPa) = 0.01216758
#
# Stress axis : x y z
#
# Youngs Moduli (GPa) = 191.45699 204.74876 97.35734
#
# Poissons Ratio (x) = 0.14633 0.31074
# Poissons Ratio (y) = 0.13683 0.01938
# Poissons Ratio (z) = 0.61109 0.04076
#
# Static dielectric constant tensor:
#      x y z
#    x 2.854850 0.000000 0.000000 
#    y 0.000000 2.399400 0.000000 
#    z 0.000000 0.000000 2.559000 
# 
# From -- ./inp_files/6798.got.cif
#   From: 2010.05.17/outbox.cif.g08.bks.cpg/sg61_4_cif.got.tgz:6798.got - 2010.06.03 15:17:17.
