data_PCOD9460003
_publ_section_title
;
Structure prediction by ZEFSAII (Michael W. Deem and Ramdas Pophale) SiO2 
 PCOD9460003
Probable space group: P B C A
;
_chemical_formula_sum "Si O2"
_cell_formula_units_Z 64
_cell_length_a 12.289696
_cell_length_b 27.597460
_cell_length_c 7.777143
_cell_angle_alpha 90.000000
_cell_angle_beta 90.000000
_cell_angle_gamma 90.000000
_cell_volume 2637.729991
_symmetry_space_group_name_H-M "P B C A"
_symmetry_group_IT_number 61
_symmetry_cell_setting 'orthorhombic'
loop_
_space_group_symop_operation_xyz
x,y,z
1/2-x,-y,1/2+z
1/2+x,1/2-y,-z
-x,1/2+y,1/2-z
-x,-y,-z
1/2+x,y,1/2-z
1/2-x,1/2+y,z
x,1/2-y,1/2+z
loop_
_atom_site_type_symbol
_atom_site_label
_atom_site_fract_x
_atom_site_fract_y
_atom_site_fract_z
Si Si1 0.200518 0.817416 0.700049
Si Si2 0.885189 0.256006 0.085010
Si Si3 0.644220 0.558316 0.957332
Si Si4 0.926682 0.921426 0.859553
Si Si5 0.322960 0.414741 0.553299
Si Si6 0.904689 0.147729 0.768489
Si Si7 0.931747 0.819953 0.960015
Si Si8 0.657869 0.007352 0.118140
O O1 0.114154 0.786790 0.590054
O O2 0.201679 0.787048 0.876179
O O3 0.176049 0.874675 0.705512
O O4 0.305992 0.810854 0.577482
O O5 0.865935 0.298728 0.223161
O O6 0.998278 0.226838 0.083109
O O7 0.521983 0.555710 0.027663
O O8 0.729084 0.534627 0.085739
O O9 0.659811 0.614447 0.904529
O O10 0.658831 0.527196 0.784206
O O11 0.918347 0.949042 0.679503
O O12 0.952983 0.865181 0.833383
O O13 0.809631 0.922580 0.959076
O O14 0.385858 0.384385 0.403589
O O15 0.364709 0.469988 0.536593
O O16 0.023175 0.158201 0.857609
#
# Coordination Sequence:
#
# PCOD9460003 Si02
#       8
#     8   8   8   8   8   8   8   8
#     4  10  23  38  66  91 128 168 217 264 332 389
#     4  11  21  41  63  94 126 168 213 271 322 386
#     4  10  22  39  67  89 128 171 217 263 325 395
#     4  10  21  40  65  94 126 179 212 267 334 396
#     4   9  20  38  61  91 125 167 212 265 324 388
#     4   9  20  39  60  89 126 163 206 266 322 375
#     4  10  22  39  63  95 127 167 219 266 327 389
#     4  11  20  38  66  92 126 170 212 267 325 389
#
# _framework density 24.263287999999999
#
# number of rings (size 3 to 8) (size 9 to 14) (size 15 to 20)
#    0.000    2.000    2.500    0.375    1.750    4.000 
#    0.000    0.625    0.000    0.000    0.000    0.000 
#    0.000    0.000    0.000    0.000    0.000    0.000 
#
# Total GULP energy -356364.306631 kJ/mol
# GULP energy per Si atom -5568.192291 kJ/mol
# Density = 2.420806 g / cm^3
# Si number density = 24.263288 Si / 1000 Ang^3
#
#
#
# Elastic Constant Matrix: (Units=GPa)
#
#
# Indices 1 2 3 4 5 6 
#
# 1 51.1589 -12.8981 9.3734 0.0000 0.0000 0.0000
# 2 -12.8981 159.5555 -5.8501 0.0000 0.0000 0.0000
# 3 9.3734 -5.8501 40.9321 0.0000 0.0000 0.0000
# 4 0.0000 0.0000 0.0000 36.7298 0.0000 0.0000
# 5 0.0000 0.0000 0.0000 0.0000 30.5924 0.0000
# 6 0.0000 0.0000 0.0000 0.0000 0.0000 42.2353
#
#
#
# Elastic Compliance Matrix: (Units=1/GPa)
#
#
# Indices 1 2 3 4 5 6 
#
# 1 0.020760 0.001512 -0.004538 0.000000 0.000000 0.000000
# 2 0.001512 0.006411 0.000570 0.000000 0.000000 0.000000
# 3 -0.004538 0.000570 0.025551 0.000000 0.000000 0.000000
# 4 0.000000 0.000000 0.000000 0.027226 0.000000 0.000000
# 5 0.000000 0.000000 0.000000 0.000000 0.032688 0.000000
# 6 0.000000 0.000000 0.000000 0.000000 0.000000 0.023677
#
#
# Mechanical properties :
#
#
# Convention : Reuss Voigt Hill
#
# Bulk Modulus (GPa) = 20.91643 25.87741 23.39692
# Shear Modulus (GPa) = 31.81464 39.31294 35.56379
#
# Velocity S-wave (km/s) = 3.62501 4.02962 3.83266
# Velocity P-wave (km/s) = 5.11471 5.68672 5.40829
#
# Compressibility (1/GPa) = 0.04780931
#
# Stress axis : x y z
#
# Youngs Moduli (GPa) = 48.17068 155.99360 39.13692
#
# Poissons Ratio (x) = -0.23583 0.17760
# Poissons Ratio (y) = -0.07282 -0.02231
# Poissons Ratio (z) = 0.21859 -0.08892
#
# Static dielectric constant tensor:
#      x y z
#    x 1.948170 0.000000 0.000000 
#    y 0.000000 1.957610 0.000000 
#    z 0.000000 0.000000 2.077940 
# 
# From -- ./inp_files/2465.got.cif
#   From: 2010.05.17/outbox.cif.g08.bks.cpg/sg61_2_cif.got.tgz:2465.got - 2010.06.03 15:17:17.
