data_PCOD9460768
_publ_section_title
;
Structure prediction by ZEFSAII (Michael W. Deem and Ramdas Pophale) SiO2 
 PCOD9460768
Probable space group: P B C A
;
_chemical_formula_sum "Si O2"
_cell_formula_units_Z 60
_cell_length_a 10.373852
_cell_length_b 10.234465
_cell_length_c 21.243961
_cell_angle_alpha 90.000000
_cell_angle_beta 90.000000
_cell_angle_gamma 90.000000
_cell_volume 2255.488870
_symmetry_space_group_name_H-M "P B C A"
_symmetry_group_IT_number 61
_symmetry_cell_setting 'orthorhombic'
loop_
_space_group_symop_operation_xyz
x,y,z
1/2-x,-y,1/2+z
1/2+x,1/2-y,-z
-x,1/2+y,1/2-z
-x,-y,-z
1/2+x,y,1/2-z
1/2-x,1/2+y,z
x,1/2-y,1/2+z
loop_
_atom_site_type_symbol
_atom_site_label
_atom_site_fract_x
_atom_site_fract_y
_atom_site_fract_z
Si Si1 0.849506 0.694555 0.122706
Si Si2 0.155515 0.741656 0.985855
Si Si3 0.516310 0.937644 0.361296
Si Si4 0.491632 0.450150 0.401053
Si Si5 0.500000 0.000000 0.500000
Si Si6 0.093158 0.624568 0.762627
Si Si7 0.266517 0.769043 0.111536
Si Si8 0.841188 0.715509 0.257835
O O1 0.742245 0.694183 0.069141
O O2 0.967742 0.604354 0.099478
O O3 0.807583 0.643266 0.192215
O O4 0.891465 0.844378 0.131539
O O5 0.085648 0.616687 0.957461
O O6 0.245460 0.701185 0.044357
O O7 0.059324 0.853748 0.009136
O O8 0.536285 0.979942 0.288013
O O9 0.636330 0.839332 0.367746
O O10 0.511185 0.027968 0.422113
O O11 0.428700 0.404842 0.335364
O O12 0.631627 0.386158 0.399603
O O13 0.240554 0.661628 0.749457
O O14 0.990071 0.742275 0.751954
O O15 0.309235 0.678955 0.169918
#
# Coordination Sequence:
#
# PCOD9460768 Si02
#       8
#     8   8   8   8   4   8   8   8
#     4  11  24  41  72 102 139 185 236 302 361 442
#     4  11  25  43  72 102 144 190 245 302 365 452
#     4   9  21  46  67  99 140 184 241 300 366 441
#     4  11  24  44  68 106 139 188 245 299 378 438
#     4  10  24  46  64 102 136 196 236 292 372 434
#     4   9  18  39  68  95 138 179 240 299 360 436
#     4   9  22  44  68  97 139 186 238 302 356 435
#     4   9  18  41  67  96 137 181 233 295 357 427
#
# _framework density 26.601770999999999
#
# number of rings (size 3 to 8) (size 9 to 14) (size 15 to 20)
#    0.000    2.133    1.333    0.000    5.600    0.533 
#   12.000   10.667    0.000    0.000    0.000    0.000 
#    0.000    0.000    0.000    0.000    0.000    0.000 
#
# Total GULP energy -334480.853206 kJ/mol
# GULP energy per Si atom -5574.680887 kJ/mol
# Density = 2.654122 g / cm^3
# Si number density = 26.601771 Si / 1000 Ang^3
#
#
#
# Elastic Constant Matrix: (Units=GPa)
#
#
# Indices 1 2 3 4 5 6 
#
# 1 83.6506 23.3844 26.4516 0.0000 0.0000 0.0000
# 2 23.3844 71.8669 26.8847 0.0000 0.0000 0.0000
# 3 26.4516 26.8847 233.2758 0.0000 0.0000 0.0000
# 4 0.0000 0.0000 0.0000 28.6807 0.0000 0.0000
# 5 0.0000 0.0000 0.0000 0.0000 50.2750 0.0000
# 6 0.0000 0.0000 0.0000 0.0000 0.0000 21.2797
#
#
#
# Elastic Compliance Matrix: (Units=1/GPa)
#
#
# Indices 1 2 3 4 5 6 
#
# 1 0.013398 -0.003962 -0.001063 0.000000 0.000000 0.000000
# 2 -0.003962 0.015713 -0.001362 0.000000 0.000000 0.000000
# 3 -0.001063 -0.001362 0.004564 0.000000 0.000000 0.000000
# 4 0.000000 0.000000 0.000000 0.034867 0.000000 0.000000
# 5 0.000000 0.000000 0.000000 0.000000 0.019891 0.000000
# 6 0.000000 0.000000 0.000000 0.000000 0.000000 0.046993
#
#
# Mechanical properties :
#
#
# Convention : Reuss Voigt Hill
#
# Bulk Modulus (GPa) = 47.84037 60.24833 54.04435
# Shear Modulus (GPa) = 32.22354 40.85192 36.53773
#
# Velocity S-wave (km/s) = 3.48419 3.92303 3.71011
# Velocity P-wave (km/s) = 5.84885 6.57401 6.22201
#
# Compressibility (1/GPa) = 0.02090285
#
# Stress axis : x y z
#
# Youngs Moduli (GPa) = 74.63758 63.64087 219.09677
#
# Poissons Ratio (x) = 0.25215 0.23282
# Poissons Ratio (y) = 0.29572 0.29834
# Poissons Ratio (z) = 0.07931 0.08666
#
# Static dielectric constant tensor:
#      x y z
#    x 2.071850 0.000000 0.000000 
#    y 0.000000 2.109230 0.000000 
#    z 0.000000 0.000000 2.211260 
# 
# From -- ./inp_files/10347.got.cif
#   From: 2010.05.17/outbox.cif.g08.bks.cpg/sg61_6_cif.got.tgz:10347.got - 2010.06.03 15:17:17.
