data_PCOD9460269
_publ_section_title
;
Structure prediction by ZEFSAII (Michael W. Deem and Ramdas Pophale) SiO2 
 PCOD9460269
Probable space group: P B C A
;
_chemical_formula_sum "Si O2"
_cell_formula_units_Z 56
_cell_length_a 13.598851
_cell_length_b 32.030014
_cell_length_c 5.355808
_cell_angle_alpha 90.000000
_cell_angle_beta 90.000000
_cell_angle_gamma 90.000000
_cell_volume 2332.836724
_symmetry_space_group_name_H-M "P B C A"
_symmetry_group_IT_number 61
_symmetry_cell_setting 'orthorhombic'
loop_
_space_group_symop_operation_xyz
x,y,z
1/2-x,-y,1/2+z
1/2+x,1/2-y,-z
-x,1/2+y,1/2-z
-x,-y,-z
1/2+x,y,1/2-z
1/2-x,1/2+y,z
x,1/2-y,1/2+z
loop_
_atom_site_type_symbol
_atom_site_label
_atom_site_fract_x
_atom_site_fract_y
_atom_site_fract_z
Si Si1 0.238189 0.557143 0.860506
Si Si2 0.620911 0.008230 0.368444
Si Si3 0.513619 0.737221 0.331239
Si Si4 0.703640 0.271382 0.158221
Si Si5 0.690170 0.853758 0.310057
Si Si6 0.543603 0.946304 0.787158
Si Si7 0.938072 0.352686 0.806787
O O1 0.220150 0.515112 0.707153
O O2 0.234884 0.599705 0.706030
O O3 0.342323 0.549258 0.987930
O O4 0.141401 0.556330 0.042132
O O5 0.553617 0.026809 0.147542
O O6 0.570925 0.971170 0.531883
O O7 0.568199 0.746071 0.588916
O O8 0.414581 0.764551 0.347124
O O9 0.494191 0.688195 0.304150
O O10 0.735925 0.239562 0.377539
O O11 0.733635 0.317125 0.248504
O O12 0.639361 0.847544 0.578532
O O13 0.612898 0.852544 0.079221
O O14 0.515126 0.897879 0.760395
#
# Coordination Sequence:
#
# PCOD9460269 Si02
#       7
#     8   8   8   8   8   8   8
#     4  11  22  41  65  97 135 176 227 285 337 410
#     4  11  21  40  66  94 129 179 220 276 341 403
#     4  10  22  40  63  88 126 165 213 267 326 396
#     4  10  22  41  63  91 126 168 212 268 326 397
#     4  11  24  40  67  96 132 170 219 275 338 397
#     4  10  23  40  64  93 132 173 227 274 337 407
#     4  11  23  42  64  97 130 170 217 278 333 398
#
# _framework density 24.005106999999999
#
# number of rings (size 3 to 8) (size 9 to 14) (size 15 to 20)
#    0.000    1.429    2.857    2.143    0.000    5.714 
#    0.000    4.286    0.000    0.000    0.000    0.000 
#    0.000    0.000    0.000    0.000    0.000    0.000 
#
# Total GULP energy -312537.437742 kJ/mol
# GULP energy per Si atom -5581.025674 kJ/mol
# Density = 2.395047 g / cm^3
# Si number density = 24.005107 Si / 1000 Ang^3
#
#
#
# Elastic Constant Matrix: (Units=GPa)
#
#
# Indices 1 2 3 4 5 6 
#
# 1 38.3420 12.6123 -18.4054 0.0000 0.0000 0.0000
# 2 12.6123 125.0601 -11.8923 0.0000 0.0000 0.0000
# 3 -18.4054 -11.8923 85.1755 0.0000 0.0000 0.0000
# 4 0.0000 0.0000 0.0000 31.7348 0.0000 0.0000
# 5 0.0000 0.0000 0.0000 0.0000 27.4203 0.0000
# 6 0.0000 0.0000 0.0000 0.0000 0.0000 37.1319
#
#
#
# Elastic Compliance Matrix: (Units=1/GPa)
#
#
# Indices 1 2 3 4 5 6 
#
# 1 0.029808 -0.002426 0.006103 0.000000 0.000000 0.000000
# 2 -0.002426 0.008301 0.000635 0.000000 0.000000 0.000000
# 3 0.006103 0.000635 0.013148 0.000000 0.000000 0.000000
# 4 0.000000 0.000000 0.000000 0.031511 0.000000 0.000000
# 5 0.000000 0.000000 0.000000 0.000000 0.036469 0.000000
# 6 0.000000 0.000000 0.000000 0.000000 0.000000 0.026931
#
#
# Mechanical properties :
#
#
# Convention : Reuss Voigt Hill
#
# Bulk Modulus (GPa) = 16.69994 23.68963 20.19478
# Shear Modulus (GPa) = 31.74481 37.00828 34.37654
#
# Velocity S-wave (km/s) = 3.64045 3.93069 3.78835
# Velocity P-wave (km/s) = 4.96412 5.52181 5.25037
#
# Compressibility (1/GPa) = 0.05988046
#
# Stress axis : x y z
#
# Youngs Moduli (GPa) = 33.54749 120.46492 76.05840
#
# Poissons Ratio (x) = 0.29223 -0.46415
# Poissons Ratio (y) = 0.08138 -0.04828
# Poissons Ratio (z) = -0.20473 -0.07647
#
# Static dielectric constant tensor:
#      x y z
#    x 2.009840 0.000000 0.000000 
#    y 0.000000 1.885580 0.000000 
#    z 0.000000 0.000000 2.082330 
# 
# From -- ./inp_files/608.got.cif
#   From: 2010.05.17/outbox.cif.g08.bks.cpg/sg61_1_cif.got.tgz:608.got - 2010.06.03 15:17:17.
