data_PCOD9460782
_publ_section_title
;
Structure prediction by ZEFSAII (Michael W. Deem and Ramdas Pophale) SiO2 
 PCOD9460782
Probable space group: P B C A
;
_chemical_formula_sum "Si O2"
_cell_formula_units_Z 56
_cell_length_a 15.753135
_cell_length_b 8.025702
_cell_length_c 19.655420
_cell_angle_alpha 90.000000
_cell_angle_beta 90.000000
_cell_angle_gamma 90.000000
_cell_volume 2485.034103
_symmetry_space_group_name_H-M "P B C A"
_symmetry_group_IT_number 61
_symmetry_cell_setting 'orthorhombic'
loop_
_space_group_symop_operation_xyz
x,y,z
1/2-x,-y,1/2+z
1/2+x,1/2-y,-z
-x,1/2+y,1/2-z
-x,-y,-z
1/2+x,y,1/2-z
1/2-x,1/2+y,z
x,1/2-y,1/2+z
loop_
_atom_site_type_symbol
_atom_site_label
_atom_site_fract_x
_atom_site_fract_y
_atom_site_fract_z
Si Si1 0.348743 0.773357 0.570322
Si Si2 0.575862 0.073322 0.299595
Si Si3 0.470333 0.273113 0.004265
Si Si4 0.179084 0.898132 0.564925
Si Si5 0.836552 0.263228 0.786253
Si Si6 0.432295 0.974743 0.393426
Si Si7 0.659630 0.132219 0.725949
O O1 0.361565 0.884165 0.637323
O O2 0.439938 0.755490 0.534190
O O3 0.269169 0.852627 0.530915
O O4 0.322416 0.587266 0.588354
O O5 0.592469 0.224683 0.248029
O O6 0.598694 0.889707 0.272503
O O7 0.484583 0.072816 0.335391
O O8 0.419637 0.408505 0.958813
O O9 0.402787 0.129924 0.017475
O O10 0.501344 0.340009 0.077263
O O11 0.171748 0.784595 0.632266
O O12 0.750051 0.202906 0.749747
O O13 0.853729 0.451740 0.760903
O O14 0.352801 0.897744 0.354691
#
# Coordination Sequence:
#
# PCOD9460782 Si02
#       7
#     8   8   8   8   8   8   8
#     4  11  23  39  70 104 133 182 245 293 347 428
#     4  11  22  42  67 100 135 178 226 286 351 424
#     4  10  24  47  66  97 145 189 239 290 360 424
#     4  12  21  41  71 102 135 188 243 293 350 428
#     4  12  22  41  69  99 139 176 230 289 350 425
#     4  10  25  43  68  96 140 178 232 295 353 422
#     4  12  24  43  66 104 135 176 227 291 358 424
#
# _framework density 22.534901999999999
#
# number of rings (size 3 to 8) (size 9 to 14) (size 15 to 20)
#    0.000    0.857    5.714    1.286    6.000    0.000 
#    2.571    1.429    0.000    0.000    0.000    0.000 
#    0.000    0.000    0.000    0.000    0.000    0.000 
#
# Total GULP energy -312507.699383 kJ/mol
# GULP energy per Si atom -5580.494632 kJ/mol
# Density = 2.248361 g / cm^3
# Si number density = 22.534902 Si / 1000 Ang^3
#
#
#
# Elastic Constant Matrix: (Units=GPa)
#
#
# Indices 1 2 3 4 5 6 
#
# 1 70.7430 21.0285 35.9130 0.0000 0.0000 0.0000
# 2 21.0285 131.7259 14.7198 0.0000 0.0000 0.0000
# 3 35.9130 14.7198 67.6235 0.0000 0.0000 0.0000
# 4 0.0000 0.0000 0.0000 9.3808 0.0000 0.0000
# 5 0.0000 0.0000 0.0000 0.0000 33.2120 0.0000
# 6 0.0000 0.0000 0.0000 0.0000 0.0000 15.3127
#
#
#
# Elastic Compliance Matrix: (Units=1/GPa)
#
#
# Indices 1 2 3 4 5 6 
#
# 1 0.019876 -0.002043 -0.010111 0.000000 0.000000 0.000000
# 2 -0.002043 0.007991 -0.000654 0.000000 0.000000 0.000000
# 3 -0.010111 -0.000654 0.020300 0.000000 0.000000 0.000000
# 4 0.000000 0.000000 0.000000 0.106600 0.000000 0.000000
# 5 0.000000 0.000000 0.000000 0.000000 0.030110 0.000000
# 6 0.000000 0.000000 0.000000 0.000000 0.000000 0.065305
#
#
# Mechanical properties :
#
#
# Convention : Reuss Voigt Hill
#
# Bulk Modulus (GPa) = 44.34606 45.93498 45.14052
# Shear Modulus (GPa) = 17.64823 24.80984 21.22904
#
# Velocity S-wave (km/s) = 2.80152 3.32166 3.07262
# Velocity P-wave (km/s) = 5.49420 5.92785 5.71514
#
# Compressibility (1/GPa) = 0.02254992
#
# Stress axis : x y z
#
# Youngs Moduli (GPa) = 50.31260 125.14388 49.26177
#
# Poissons Ratio (x) = 0.25568 0.49807
# Poissons Ratio (y) = 0.10279 0.03223
# Poissons Ratio (z) = 0.50870 0.08189
#
# Static dielectric constant tensor:
#      x y z
#    x 1.904400 0.000000 0.000000 
#    y 0.000000 1.864230 0.000000 
#    z 0.000000 0.000000 1.842630 
# 
# From -- ./inp_files/10468.got.cif
#   From: 2010.05.17/outbox.cif.g08.bks.cpg/sg61_6_cif.got.tgz:10468.got - 2010.06.03 15:17:17.
