data_PCOD9460102
_publ_section_title
;
Structure prediction by ZEFSAII (Michael W. Deem and Ramdas Pophale) SiO2 
 PCOD9460102
Probable space group: P B C A
;
_chemical_formula_sum "Si O2"
_cell_formula_units_Z 56
_cell_length_a 13.691985
_cell_length_b 11.249356
_cell_length_c 13.017063
_cell_angle_alpha 90.000000
_cell_angle_beta 90.000000
_cell_angle_gamma 90.000000
_cell_volume 2004.966323
_symmetry_space_group_name_H-M "P B C A"
_symmetry_group_IT_number 61
_symmetry_cell_setting 'orthorhombic'
loop_
_space_group_symop_operation_xyz
x,y,z
1/2-x,-y,1/2+z
1/2+x,1/2-y,-z
-x,1/2+y,1/2-z
-x,-y,-z
1/2+x,y,1/2-z
1/2-x,1/2+y,z
x,1/2-y,1/2+z
loop_
_atom_site_type_symbol
_atom_site_label
_atom_site_fract_x
_atom_site_fract_y
_atom_site_fract_z
Si Si1 0.338207 0.811351 0.806120
Si Si2 0.488975 0.986114 0.361650
Si Si3 0.206895 0.048462 0.061938
Si Si4 0.265196 0.697725 0.541138
Si Si5 0.541575 0.699732 0.011625
Si Si6 0.496838 0.674309 0.692620
Si Si7 0.718049 0.582292 0.675986
O O1 0.316640 0.812286 0.929906
O O2 0.446958 0.783092 0.757645
O O3 0.285987 0.686194 0.779128
O O4 0.294081 0.816613 0.600194
O O5 0.599063 0.008287 0.401549
O O6 0.474297 0.866182 0.428871
O O7 0.465553 0.947718 0.247529
O O8 0.433978 0.101028 0.400510
O O9 0.201201 0.053252 0.282827
O O10 0.270614 0.933210 0.090300
O O11 0.148085 0.727711 0.529561
O O12 0.259899 0.936036 0.441074
O O13 0.483026 0.800831 0.072178
O O14 0.613588 0.649247 0.690642
#
# Coordination Sequence:
#
# PCOD9460102 Si02
#       7
#     8   8   8   8   8   8   8
#     4  10  22  36  70 104 141 204 251 319 398 478
#     4  10  24  38  76 107 136 211 271 306 404 497
#     4   9  18  39  66 101 135 191 245 309 387 463
#     4   9  18  36  68  93 137 193 236 312 390 439
#     4  10  21  42  66 103 146 191 257 330 387 465
#     4  12  23  41  71 111 153 198 267 329 397 481
#     4  10  22  42  68 105 148 202 256 325 406 456
#
# _framework density 27.930643
#
# number of rings (size 3 to 8) (size 9 to 14) (size 15 to 20)
#    0.000    2.000    2.857    0.857   14.000    1.143 
#    0.000    5.714    0.000   11.143    0.000    0.000 
#    0.000    0.000    0.000    0.000    0.000    0.000 
#
# Total GULP energy -311977.156236 kJ/mol
# GULP energy per Si atom -5571.020647 kJ/mol
# Density = 2.786707 g / cm^3
# Si number density = 27.930643 Si / 1000 Ang^3
#
#
#
# Elastic Constant Matrix: (Units=GPa)
#
#
# Indices 1 2 3 4 5 6 
#
# 1 129.3041 73.6416 29.8225 0.0000 0.0000 0.0000
# 2 73.6416 222.2895 72.5971 0.0000 0.0000 0.0000
# 3 29.8225 72.5971 91.2857 0.0000 0.0000 0.0000
# 4 0.0000 0.0000 0.0000 77.3090 0.0000 0.0000
# 5 0.0000 0.0000 0.0000 0.0000 36.4126 0.0000
# 6 0.0000 0.0000 0.0000 0.0000 0.0000 59.1170
#
#
#
# Elastic Compliance Matrix: (Units=1/GPa)
#
#
# Indices 1 2 3 4 5 6 
#
# 1 0.009577 -0.002906 -0.000818 0.000000 0.000000 0.000000
# 2 -0.002906 0.006959 -0.004585 0.000000 0.000000 0.000000
# 3 -0.000818 -0.004585 0.014868 0.000000 0.000000 0.000000
# 4 0.000000 0.000000 0.000000 0.012935 0.000000 0.000000
# 5 0.000000 0.000000 0.000000 0.000000 0.027463 0.000000
# 6 0.000000 0.000000 0.000000 0.000000 0.000000 0.016916
#
#
# Mechanical properties :
#
#
# Convention : Reuss Voigt Hill
#
# Bulk Modulus (GPa) = 67.62712 88.33351 77.98032
# Shear Modulus (GPa) = 45.34605 52.35558 48.85082
#
# Velocity S-wave (km/s) = 4.03367 4.33423 4.18665
# Velocity P-wave (km/s) = 6.77931 7.53273 7.16593
#
# Compressibility (1/GPa) = 0.01478697
#
# Stress axis : x y z
#
# Youngs Moduli (GPa) = 104.41460 143.70826 67.25876
#
# Poissons Ratio (x) = 0.41756 0.05502
# Poissons Ratio (y) = 0.30339 0.30836
# Poissons Ratio (z) = 0.08541 0.65886
#
# Static dielectric constant tensor:
#      x y z
#    x 2.282330 0.000000 0.000000 
#    y 0.000000 2.192330 0.000000 
#    z 0.000000 0.000000 2.378880 
# 
# From -- ./inp_files/8233.got.cif
#   From: 2010.05.17/outbox.cif.g08.bks.cpg/sg61_5_cif.got.tgz:8233.got - 2010.06.03 15:17:17.
