data_PCOD9460764
_publ_section_title
;
Structure prediction by ZEFSAII (Michael W. Deem and Ramdas Pophale) SiO2 
 PCOD9460764
Probable space group: P B C A
;
_chemical_formula_sum "Si O2"
_cell_formula_units_Z 40
_cell_length_a 11.931257
_cell_length_b 9.215424
_cell_length_c 13.536291
_cell_angle_alpha 90.000000
_cell_angle_beta 90.000000
_cell_angle_gamma 90.000000
_cell_volume 1488.336747
_symmetry_space_group_name_H-M "P B C A"
_symmetry_group_IT_number 61
_symmetry_cell_setting 'orthorhombic'
loop_
_space_group_symop_operation_xyz
x,y,z
1/2-x,-y,1/2+z
1/2+x,1/2-y,-z
-x,1/2+y,1/2-z
-x,-y,-z
1/2+x,y,1/2-z
1/2-x,1/2+y,z
x,1/2-y,1/2+z
loop_
_atom_site_type_symbol
_atom_site_label
_atom_site_fract_x
_atom_site_fract_y
_atom_site_fract_z
Si Si1 0.776997 0.911836 0.642084
Si Si2 0.308641 0.747793 0.675262
Si Si3 0.492164 0.430810 0.343969
Si Si4 0.991505 0.713524 0.056840
Si Si5 0.347836 0.466890 0.052376
O O1 0.740234 0.819466 0.735439
O O2 0.690492 0.969331 0.562167
O O3 0.861495 0.809534 0.579594
O O4 0.865282 0.030788 0.685712
O O5 0.420311 0.665228 0.716263
O O6 0.242258 0.631481 0.611407
O O7 0.348558 0.878111 0.604157
O O8 0.480324 0.347654 0.448334
O O9 0.543399 0.589819 0.370341
O O10 0.040145 0.872555 0.064875
#
# Coordination Sequence:
#
# PCOD9460764 Si02
#       5
#     8   8   8   8   8
#     4  10  24  45  72 100 147 179 235 299 352 417
#     4  12  25  42  71 100 141 188 235 290 352 423
#     4   9  19  45  68  93 137 188 223 294 347 409
#     4   9  20  44  74  90 142 187 219 297 351 418
#     4  12  25  45  69 109 140 188 238 289 359 422
#
# _framework density 26.875639
#
# number of rings (size 3 to 8) (size 9 to 14) (size 15 to 20)
#    1.200    0.400    2.000    2.400    2.800    4.000 
#    0.000    0.000    0.000    0.000    0.000    0.000 
#    0.000    0.000    0.000    0.000    0.000    0.000 
#
# Total GULP energy -223894.979583 kJ/mol
# GULP energy per Si atom -5597.374490 kJ/mol
# Density = 2.681447 g / cm^3
# Si number density = 26.875639 Si / 1000 Ang^3
#
#
#
# Elastic Constant Matrix: (Units=GPa)
#
#
# Indices 1 2 3 4 5 6 
#
# 1 90.9004 47.4904 26.3653 0.0000 0.0000 0.0000
# 2 47.4904 178.4766 33.7653 0.0000 0.0000 0.0000
# 3 26.3653 33.7653 105.9020 0.0000 0.0000 0.0000
# 4 0.0000 0.0000 0.0000 29.8230 0.0000 0.0000
# 5 0.0000 0.0000 0.0000 0.0000 26.8057 0.0000
# 6 0.0000 0.0000 0.0000 0.0000 0.0000 65.6884
#
#
#
# Elastic Compliance Matrix: (Units=1/GPa)
#
#
# Indices 1 2 3 4 5 6 
#
# 1 0.013293 -0.003098 -0.002322 0.000000 0.000000 0.000000
# 2 -0.003098 0.006685 -0.001360 0.000000 0.000000 0.000000
# 3 -0.002322 -0.001360 0.010454 0.000000 0.000000 0.000000
# 4 0.000000 0.000000 0.000000 0.033531 0.000000 0.000000
# 5 0.000000 0.000000 0.000000 0.000000 0.037305 0.000000
# 6 0.000000 0.000000 0.000000 0.000000 0.000000 0.015223
#
#
# Mechanical properties :
#
#
# Convention : Reuss Voigt Hill
#
# Bulk Modulus (GPa) = 59.26749 65.61344 62.44047
# Shear Modulus (GPa) = 36.85273 42.30729 39.58001
#
# Velocity S-wave (km/s) = 3.70703 3.97191 3.84175
# Velocity P-wave (km/s) = 6.35792 6.74548 6.55456
#
# Compressibility (1/GPa) = 0.01687266
#
# Stress axis : x y z
#
# Youngs Moduli (GPa) = 75.22813 149.59815 95.65416
#
# Poissons Ratio (x) = 0.46343 0.22208
# Poissons Ratio (y) = 0.23305 0.13009
# Poissons Ratio (z) = 0.17466 0.20346
#
# Static dielectric constant tensor:
#      x y z
#    x 2.150200 0.000000 0.000000 
#    y 0.000000 2.073910 0.000000 
#    z 0.000000 0.000000 2.099700 
# 
# From -- ./inp_files/7727.got.cif
#   From: 2010.05.17/outbox.cif.g08.bks.cpg/sg61_4_cif.got.tgz:7727.got - 2010.06.03 15:17:17.
