data_PCOD9460866
_publ_section_title
;
Structure prediction by ZEFSAII (Michael W. Deem and Ramdas Pophale) SiO2 
 PCOD9460866
Probable space group: P B C A
;
_chemical_formula_sum "Si O2"
_cell_formula_units_Z 64
_cell_length_a 18.209743
_cell_length_b 19.924411
_cell_length_c 9.019477
_cell_angle_alpha 90.000000
_cell_angle_beta 90.000000
_cell_angle_gamma 90.000000
_cell_volume 3272.432248
_symmetry_space_group_name_H-M "P B C A"
_symmetry_group_IT_number 61
_symmetry_cell_setting 'orthorhombic'
loop_
_space_group_symop_operation_xyz
x,y,z
1/2-x,-y,1/2+z
1/2+x,1/2-y,-z
-x,1/2+y,1/2-z
-x,-y,-z
1/2+x,y,1/2-z
1/2-x,1/2+y,z
x,1/2-y,1/2+z
loop_
_atom_site_type_symbol
_atom_site_label
_atom_site_fract_x
_atom_site_fract_y
_atom_site_fract_z
Si Si1 0.527470 0.927110 0.049095
Si Si2 0.191356 0.792092 0.586527
Si Si3 0.914266 0.509272 0.541831
Si Si4 0.591684 0.616425 0.251034
Si Si5 0.265459 0.675097 0.776816
Si Si6 0.561683 0.805229 0.466414
Si Si7 0.852019 0.075140 0.794678
Si Si8 0.070626 0.353247 0.294926
O O1 0.603247 0.934037 0.142396
O O2 0.472028 0.887242 0.156746
O O3 0.542404 0.890372 0.895594
O O4 0.500000 0.000000 0.000000
O O5 0.168651 0.852517 0.694695
O O6 0.230287 0.733996 0.679138
O O7 0.238736 0.813154 0.445346
O O8 0.113663 0.759409 0.533452
O O9 0.898994 0.455458 0.671844
O O10 0.864653 0.488207 0.401683
O O11 0.908625 0.584848 0.596582
O O12 0.000000 0.500000 0.500000
O O13 0.555900 0.666851 0.132390
O O14 0.229220 0.603760 0.729598
O O15 0.352004 0.678050 0.754405
O O16 0.605566 0.864344 0.379757
O O17 0.484686 0.803453 0.381045
#
# Coordination Sequence:
#
# PCOD9460866 Si02
#       8
#     8   8   8   8   8   8   8   8
#     4  11  19  34  64  96 121 153 208 266 300 371
#     4  11  22  43  67  86 122 173 218 251 307 398
#     4  11  18  38  66  89 124 165 201 263 313 379
#     4  11  19  35  70  92 112 161 223 246 305 372
#     4  11  24  44  61  89 129 166 206 269 322 378
#     4   9  20  38  65  89 113 168 216 250 303 376
#     4   9  19  36  60  84 120 165 201 238 315 376
#     4  11  23  41  61  95 134 159 202 276 326 355
#
# _framework density 19.557320000000001
#
# number of rings (size 3 to 8) (size 9 to 14) (size 15 to 20)
#    0.000    1.500    7.500    0.000    0.000    0.000 
#    9.000    0.000    0.000    0.000    0.000    0.000 
#    0.000    0.000    0.000    0.000    0.000    0.000 
#
# Total GULP energy -357270.326807 kJ/mol
# GULP energy per Si atom -5582.348856 kJ/mol
# Density = 1.951281 g / cm^3
# Si number density = 19.557320 Si / 1000 Ang^3
#
#
#
# Elastic Constant Matrix: (Units=GPa)
#
#
# Indices 1 2 3 4 5 6 
#
# 1 92.2582 2.4537 25.6265 0.0000 0.0000 0.0000
# 2 2.4537 31.2874 3.0690 0.0000 0.0000 0.0000
# 3 25.6265 3.0690 102.8173 0.0000 0.0000 0.0000
# 4 0.0000 0.0000 0.0000 26.7453 0.0000 0.0000
# 5 0.0000 0.0000 0.0000 0.0000 20.0705 0.0000
# 6 0.0000 0.0000 0.0000 0.0000 0.0000 15.9055
#
#
#
# Elastic Compliance Matrix: (Units=1/GPa)
#
#
# Indices 1 2 3 4 5 6 
#
# 1 0.011658 -0.000631 -0.002887 0.000000 0.000000 0.000000
# 2 -0.000631 0.032090 -0.000801 0.000000 0.000000 0.000000
# 3 -0.002887 -0.000801 0.010469 0.000000 0.000000 0.000000
# 4 0.000000 0.000000 0.000000 0.037390 0.000000 0.000000
# 5 0.000000 0.000000 0.000000 0.000000 0.049824 0.000000
# 6 0.000000 0.000000 0.000000 0.000000 0.000000 0.062871
#
#
# Mechanical properties :
#
#
# Convention : Reuss Voigt Hill
#
# Bulk Modulus (GPa) = 21.93940 32.07347 27.00643
# Shear Modulus (GPa) = 21.91706 25.55850 23.73778
#
# Velocity S-wave (km/s) = 3.35125 3.61896 3.48768
# Velocity P-wave (km/s) = 5.12024 5.82218 5.48246
#
# Compressibility (1/GPa) = 0.04558010
#
# Stress axis : x y z
#
# Youngs Moduli (GPa) = 85.77953 31.16261 95.51651
#
# Poissons Ratio (x) = 0.01967 0.27574
# Poissons Ratio (y) = 0.05413 0.07647
# Poissons Ratio (z) = 0.24763 0.02495
#
# Static dielectric constant tensor:
#      x y z
#    x 1.676790 0.000000 0.000000 
#    y 0.000000 1.737670 0.000000 
#    z 0.000000 0.000000 1.703480 
# 
# From -- ./inp_files/3709.got.cif
#   From: 2010.05.17/outbox.cif.g08.bks.cpg/sg61_2_cif.got.tgz:3709.got - 2010.06.03 15:17:17.
