data_PCOD9460594
_publ_section_title
;
Structure prediction by ZEFSAII (Michael W. Deem and Ramdas Pophale) SiO2 
 PCOD9460594
Probable space group: P B C A
;
_chemical_formula_sum "Si O2"
_cell_formula_units_Z 40
_cell_length_a 16.388739
_cell_length_b 9.509284
_cell_length_c 11.558612
_cell_angle_alpha 90.000000
_cell_angle_beta 90.000000
_cell_angle_gamma 90.000000
_cell_volume 1801.353893
_symmetry_space_group_name_H-M "P B C A"
_symmetry_group_IT_number 61
_symmetry_cell_setting 'orthorhombic'
loop_
_space_group_symop_operation_xyz
x,y,z
1/2-x,-y,1/2+z
1/2+x,1/2-y,-z
-x,1/2+y,1/2-z
-x,-y,-z
1/2+x,y,1/2-z
1/2-x,1/2+y,z
x,1/2-y,1/2+z
loop_
_atom_site_type_symbol
_atom_site_label
_atom_site_fract_x
_atom_site_fract_y
_atom_site_fract_z
Si Si1 0.917422 0.922347 0.536979
Si Si2 0.860799 0.418384 0.265828
Si Si3 0.818057 0.208168 0.087612
Si Si4 0.018379 0.843418 0.040150
Si Si5 0.246064 0.966053 0.537286
O O1 0.844108 0.966527 0.452006
O O2 0.941046 0.758716 0.540386
O O3 0.889879 0.981397 0.661949
O O4 0.000000 0.000000 0.500000
O O5 0.814018 0.285638 0.209440
O O6 0.937557 0.356591 0.336077
O O7 0.803908 0.501216 0.355571
O O8 0.911865 0.214171 0.046439
O O9 0.767605 0.305499 0.998118
O O10 0.786626 0.051229 0.070601
O O11 0.000000 0.000000 0.000000
#
# Coordination Sequence:
#
# PCOD9460594 Si02
#       5
#     8   8   8   8   8
#     4  11  23  47  71 102 143 186 236 300 348 417
#     4  10  24  45  72 101 141 189 230 287 369 413
#     4  10  23  46  65 104 140 178 236 289 339 430
#     4  11  25  44  70 102 147 180 242 293 344 427
#     4  10  23  43  70  98 143 178 237 281 350 425
#
# _framework density 22.205518999999999
#
# number of rings (size 3 to 8) (size 9 to 14) (size 15 to 20)
#    0.000    1.600    4.000    0.000    8.400    6.400 
#    3.600    0.000    0.000    0.000    0.000    0.000 
#    0.000    0.000    0.000    0.000    0.000    0.000 
#
# Total GULP energy -223651.890756 kJ/mol
# GULP energy per Si atom -5591.297269 kJ/mol
# Density = 2.215498 g / cm^3
# Si number density = 22.205519 Si / 1000 Ang^3
#
#
#
# Elastic Constant Matrix: (Units=GPa)
#
#
# Indices 1 2 3 4 5 6 
#
# 1 75.7684 5.3463 3.8672 0.0000 0.0000 0.0000
# 2 5.3463 94.7841 6.6876 0.0000 0.0000 0.0000
# 3 3.8672 6.6876 70.4927 0.0000 0.0000 0.0000
# 4 0.0000 0.0000 0.0000 28.6930 0.0000 0.0000
# 5 0.0000 0.0000 0.0000 0.0000 41.8844 0.0000
# 6 0.0000 0.0000 0.0000 0.0000 0.0000 43.5795
#
#
#
# Elastic Compliance Matrix: (Units=1/GPa)
#
#
# Indices 1 2 3 4 5 6 
#
# 1 0.013281 -0.000702 -0.000662 0.000000 0.000000 0.000000
# 2 -0.000702 0.010659 -0.000973 0.000000 0.000000 0.000000
# 3 -0.000662 -0.000973 0.014314 0.000000 0.000000 0.000000
# 4 0.000000 0.000000 0.000000 0.034852 0.000000 0.000000
# 5 0.000000 0.000000 0.000000 0.000000 0.023875 0.000000
# 6 0.000000 0.000000 0.000000 0.000000 0.000000 0.022947
#
#
# Mechanical properties :
#
#
# Convention : Reuss Voigt Hill
#
# Bulk Modulus (GPa) = 29.77928 30.31636 30.04782
# Shear Modulus (GPa) = 36.82007 37.84099 37.33053
#
# Velocity S-wave (km/s) = 4.07646 4.13258 4.10462
# Velocity P-wave (km/s) = 5.96628 6.03765 6.00207
#
# Compressibility (1/GPa) = 0.03358040
#
# Stress axis : x y z
#
# Youngs Moduli (GPa) = 75.29286 93.82147 69.85941
#
# Poissons Ratio (x) = 0.06590 0.04624
# Poissons Ratio (y) = 0.05289 0.06795
# Poissons Ratio (z) = 0.04984 0.09125
#
# Static dielectric constant tensor:
#      x y z
#    x 1.841590 0.000000 0.000000 
#    y 0.000000 1.833520 0.000000 
#    z 0.000000 0.000000 1.825700 
# 
# From -- ./inp_files/6090.got.cif
#   From: 2010.05.17/outbox.cif.g08.bks.cpg/sg61_4_cif.got.tgz:6090.got - 2010.06.03 15:17:17.
