data_PCOD9460863
_publ_section_title
;
Structure prediction by ZEFSAII (Michael W. Deem and Ramdas Pophale) SiO2 
 PCOD9460863
Probable space group: P B C A
;
_chemical_formula_sum "Si O2"
_cell_formula_units_Z 36
_cell_length_a 7.743233
_cell_length_b 8.645015
_cell_length_c 19.053231
_cell_angle_alpha 90.000000
_cell_angle_beta 90.000000
_cell_angle_gamma 90.000000
_cell_volume 1275.430246
_symmetry_space_group_name_H-M "P B C A"
_symmetry_group_IT_number 61
_symmetry_cell_setting 'orthorhombic'
loop_
_space_group_symop_operation_xyz
x,y,z
1/2-x,-y,1/2+z
1/2+x,1/2-y,-z
-x,1/2+y,1/2-z
-x,-y,-z
1/2+x,y,1/2-z
1/2-x,1/2+y,z
x,1/2-y,1/2+z
loop_
_atom_site_type_symbol
_atom_site_label
_atom_site_fract_x
_atom_site_fract_y
_atom_site_fract_z
Si Si1 0.821967 0.742770 0.678310
Si Si2 0.956189 0.670916 0.850760
Si Si3 0.621649 0.008164 0.300411
Si Si4 0.000000 0.000000 0.000000
Si Si5 0.318777 0.295766 0.468290
O O1 0.630031 0.678120 0.698449
O O2 0.777572 0.789435 0.598803
O O3 0.962129 0.606407 0.681637
O O4 0.870361 0.881602 0.730342
O O5 0.802719 0.572962 0.818625
O O6 0.026109 0.619754 0.925577
O O7 0.903686 0.850546 0.856362
O O8 0.098597 0.832093 0.016656
O O9 0.185440 0.085639 0.997111
#
# Coordination Sequence:
#
# PCOD9460863 Si02
#       5
#     8   8   8   4   8
#     4  10  29  51  77 129 176 222 278 352 398 558
#     4  10  29  49  78 123 177 221 278 349 410 538
#     4  12  27  47  86 116 181 239 263 333 453 501
#     4  12  26  56  96 116 160 238 278 398 438 500
#     4  10  28  55  85 125 173 211 307 362 441 506
#
# _framework density 28.225769
#
# number of rings (size 3 to 8) (size 9 to 14) (size 15 to 20)
#    1.333    0.000    0.000    1.333    6.222   11.556 
#    0.000    0.000    0.000    0.000    0.000    0.000 
#    0.000    0.000    0.000    0.000    0.000    0.000 
#
# Total GULP energy -200616.109052 kJ/mol
# GULP energy per Si atom -5572.669696 kJ/mol
# Density = 2.816153 g / cm^3
# Si number density = 28.225769 Si / 1000 Ang^3
#
#
#
# Elastic Constant Matrix: (Units=GPa)
#
#
# Indices 1 2 3 4 5 6 
#
# 1 238.5503 110.2908 29.8511 0.0000 0.0000 0.0000
# 2 110.2908 163.0437 8.1775 0.0000 0.0000 0.0000
# 3 29.8511 8.1775 81.9580 0.0000 0.0000 0.0000
# 4 0.0000 0.0000 0.0000 3.0162 0.0000 0.0000
# 5 0.0000 0.0000 0.0000 0.0000 44.9280 0.0000
# 6 0.0000 0.0000 0.0000 0.0000 0.0000 90.0761
#
#
#
# Elastic Compliance Matrix: (Units=1/GPa)
#
#
# Indices 1 2 3 4 5 6 
#
# 1 0.006382 -0.004222 -0.001903 0.000000 0.000000 0.000000
# 2 -0.004222 0.008957 0.000644 0.000000 0.000000 0.000000
# 3 -0.001903 0.000644 0.012830 0.000000 0.000000 0.000000
# 4 0.000000 0.000000 0.000000 0.331546 0.000000 0.000000
# 5 0.000000 0.000000 0.000000 0.000000 0.022258 0.000000
# 6 0.000000 0.000000 0.000000 0.000000 0.000000 0.011102
#
#
# Mechanical properties :
#
#
# Convention : Reuss Voigt Hill
#
# Bulk Modulus (GPa) = 58.11527 86.68788 72.40158
# Shear Modulus (GPa) = 12.20191 49.95290 31.07741
#
# Velocity S-wave (km/s) = 2.08143 4.21142 3.32178
# Velocity P-wave (km/s) = 5.13913 7.37747 6.35758
#
# Compressibility (1/GPa) = 0.01720718
#
# Stress axis : x y z
#
# Youngs Moduli (GPa) = 156.69150 111.64776 77.94035
#
# Poissons Ratio (x) = 0.47133 0.14834
# Poissons Ratio (y) = 0.66149 -0.05019
# Poissons Ratio (z) = 0.29822 -0.07190
#
# Static dielectric constant tensor:
#      x y z
#    x 2.105750 0.000000 0.000000 
#    y 0.000000 2.063960 0.000000 
#    z 0.000000 0.000000 3.048880 
# 
# From -- ./inp_files/11322.got.cif
#   From: 2010.05.17/outbox.cif.g08.bks.cpg/sg61_6_cif.got.tgz:11322.got - 2010.06.03 15:17:17.
