data_PCOD9460109
_publ_section_title
;
Structure prediction by ZEFSAII (Michael W. Deem and Ramdas Pophale) SiO2 
 PCOD9460109
Probable space group: P B C A
;
_chemical_formula_sum "Si O2"
_cell_formula_units_Z 40
_cell_length_a 8.722097
_cell_length_b 8.298884
_cell_length_c 22.590549
_cell_angle_alpha 90.000000
_cell_angle_beta 90.000000
_cell_angle_gamma 90.000000
_cell_volume 1635.186872
_symmetry_space_group_name_H-M "P B C A"
_symmetry_group_IT_number 61
_symmetry_cell_setting 'orthorhombic'
loop_
_space_group_symop_operation_xyz
x,y,z
1/2-x,-y,1/2+z
1/2+x,1/2-y,-z
-x,1/2+y,1/2-z
-x,-y,-z
1/2+x,y,1/2-z
1/2-x,1/2+y,z
x,1/2-y,1/2+z
loop_
_atom_site_type_symbol
_atom_site_label
_atom_site_fract_x
_atom_site_fract_y
_atom_site_fract_z
Si Si1 0.308001 0.210039 0.060315
Si Si2 0.947788 0.510203 0.386632
Si Si3 0.018996 0.825360 0.445055
Si Si4 0.555828 0.521880 0.681608
Si Si5 0.872259 0.118590 0.221464
O O1 0.430466 0.330713 0.089370
O O2 0.160325 0.313239 0.039775
O O3 0.219753 0.091762 0.105293
O O4 0.382221 0.137460 0.001984
O O5 0.050735 0.637968 0.424265
O O6 0.014643 0.518036 0.321539
O O7 0.044075 0.939346 0.388268
O O8 0.409272 0.442880 0.713085
O O9 0.700970 0.413411 0.699252
O O10 0.584786 0.696587 0.710993
#
# Coordination Sequence:
#
# PCOD9460109 Si02
#       5
#     8   8   8   8   8
#     4  10  21  42  67  95 142 175 228 278 349 408
#     4   9  23  41  65  96 137 177 225 281 346 405
#     4   9  23  40  68 102 133 178 231 282 345 411
#     4  11  25  46  70 102 135 184 231 285 349 410
#     4  11  25  46  70  99 140 178 235 287 345 418
#
# _framework density 24.462036000000001
#
# number of rings (size 3 to 8) (size 9 to 14) (size 15 to 20)
#    1.200    0.800    0.000    1.800    5.600    4.000 
#    3.600    0.000    0.000    0.000    0.000    0.000 
#    0.000    0.000    0.000    0.000    0.000    0.000 
#
# Total GULP energy -223576.749165 kJ/mol
# GULP energy per Si atom -5589.418729 kJ/mol
# Density = 2.440636 g / cm^3
# Si number density = 24.462036 Si / 1000 Ang^3
#
#
#
# Elastic Constant Matrix: (Units=GPa)
#
#
# Indices 1 2 3 4 5 6 
#
# 1 83.3345 -9.0404 47.6367 0.0000 0.0000 0.0000
# 2 -9.0404 52.6480 16.0705 0.0000 0.0000 0.0000
# 3 47.6367 16.0705 111.2804 0.0000 0.0000 0.0000
# 4 0.0000 0.0000 0.0000 21.2227 0.0000 0.0000
# 5 0.0000 0.0000 0.0000 0.0000 52.2856 0.0000
# 6 0.0000 0.0000 0.0000 0.0000 0.0000 22.3208
#
#
#
# Elastic Compliance Matrix: (Units=1/GPa)
#
#
# Indices 1 2 3 4 5 6 
#
# 1 0.017269 0.005463 -0.008181 0.000000 0.000000 0.000000
# 2 0.005463 0.021598 -0.005458 0.000000 0.000000 0.000000
# 3 -0.008181 -0.005458 0.013277 0.000000 0.000000 0.000000
# 4 0.000000 0.000000 0.000000 0.047119 0.000000 0.000000
# 5 0.000000 0.000000 0.000000 0.000000 0.019126 0.000000
# 6 0.000000 0.000000 0.000000 0.000000 0.000000 0.044801
#
#
# Mechanical properties :
#
#
# Convention : Reuss Voigt Hill
#
# Bulk Modulus (GPa) = 27.93967 39.62183 33.78075
# Shear Modulus (GPa) = 26.11327 32.00556 29.05941
#
# Velocity S-wave (km/s) = 3.27081 3.62107 3.45039
# Velocity P-wave (km/s) = 5.07057 5.80649 5.45096
#
# Compressibility (1/GPa) = 0.03579141
#
# Stress axis : x y z
#
# Youngs Moduli (GPa) = 57.90643 46.30062 75.31953
#
# Poissons Ratio (x) = -0.25293 0.61623
# Poissons Ratio (y) = -0.31633 0.41106
# Poissons Ratio (z) = 0.47376 0.25269
#
# Static dielectric constant tensor:
#      x y z
#    x 1.921760 0.000000 0.000000 
#    y 0.000000 2.036850 0.000000 
#    z 0.000000 0.000000 1.924880 
# 
# From -- ./inp_files/10801.got.cif
#   From: 2010.05.17/outbox.cif.g08.bks.cpg/sg61_6_cif.got.tgz:10801.got - 2010.06.03 15:17:17.
