data_PCOD9460009
_publ_section_title
;
Structure prediction by ZEFSAII (Michael W. Deem and Ramdas Pophale) SiO2 
 PCOD9460009
Probable space group: P B C A
;
_chemical_formula_sum "Si O2"
_cell_formula_units_Z 48
_cell_length_a 11.474278
_cell_length_b 13.160742
_cell_length_c 14.464861
_cell_angle_alpha 90.000000
_cell_angle_beta 90.000000
_cell_angle_gamma 90.000000
_cell_volume 2184.338839
_symmetry_space_group_name_H-M "P B C A"
_symmetry_group_IT_number 61
_symmetry_cell_setting 'orthorhombic'
loop_
_space_group_symop_operation_xyz
x,y,z
1/2-x,-y,1/2+z
1/2+x,1/2-y,-z
-x,1/2+y,1/2-z
-x,-y,-z
1/2+x,y,1/2-z
1/2-x,1/2+y,z
x,1/2-y,1/2+z
loop_
_atom_site_type_symbol
_atom_site_label
_atom_site_fract_x
_atom_site_fract_y
_atom_site_fract_z
Si Si1 0.166990 0.317600 0.601152
Si Si2 0.751548 0.894561 0.458332
Si Si3 0.008668 0.354738 0.435827
Si Si4 0.069927 0.643794 0.074753
Si Si5 0.888578 0.002076 0.806105
Si Si6 0.396196 0.028355 0.900759
O O1 0.167769 0.197674 0.578091
O O2 0.304049 0.334732 0.615379
O O3 0.102906 0.380008 0.682644
O O4 0.110931 0.369528 0.509164
O O5 0.619905 0.858218 0.484962
O O6 0.718904 0.964398 0.371279
O O7 0.809734 0.955960 0.540960
O O8 0.011855 0.238866 0.401099
O O9 0.995951 0.437994 0.355226
O O10 0.014491 0.537652 0.104596
O O11 0.087223 0.627034 0.964132
O O12 0.863312 0.042400 0.704614
#
# Coordination Sequence:
#
# PCOD9460009 Si02
#       6
#     8   8   8   8   8   8
#     4  11  19  43  63  89 132 168 211 271 320 394
#     4   9  21  40  62  94 130 169 219 268 332 377
#     4   9  20  40  65  93 125 171 216 265 321 389
#     4  10  21  40  66  86 131 171 206 269 334 378
#     4  10  23  40  63 100 123 171 226 264 322 394
#     4  11  21  44  64  95 128 173 216 272 331 391
#
# _framework density 21.974613000000002
#
# number of rings (size 3 to 8) (size 9 to 14) (size 15 to 20)
#    1.000    1.000    3.333    0.500    0.000    0.000 
#   15.000    0.000    0.000    0.000    0.000    0.000 
#    0.000    0.000    0.000    0.000    0.000    0.000 
#
# Total GULP energy -267218.793840 kJ/mol
# GULP energy per Si atom -5567.058205 kJ/mol
# Density = 2.192460 g / cm^3
# Si number density = 21.974613 Si / 1000 Ang^3
#
#
#
# Elastic Constant Matrix: (Units=GPa)
#
#
# Indices 1 2 3 4 5 6 
#
# 1 32.3333 -0.5720 -12.1889 0.0000 0.0000 0.0000
# 2 -0.5720 76.7647 10.4287 0.0000 0.0000 0.0000
# 3 -12.1889 10.4287 66.9450 0.0000 0.0000 0.0000
# 4 0.0000 0.0000 0.0000 10.7227 0.0000 0.0000
# 5 0.0000 0.0000 0.0000 0.0000 13.1945 0.0000
# 6 0.0000 0.0000 0.0000 0.0000 0.0000 33.8028
#
#
#
# Elastic Compliance Matrix: (Units=1/GPa)
#
#
# Indices 1 2 3 4 5 6 
#
# 1 0.033233 -0.000587 0.006142 0.000000 0.000000 0.000000
# 2 -0.000587 0.013319 -0.002182 0.000000 0.000000 0.000000
# 3 0.006142 -0.002182 0.016396 0.000000 0.000000 0.000000
# 4 0.000000 0.000000 0.000000 0.093260 0.000000 0.000000
# 5 0.000000 0.000000 0.000000 0.000000 0.075789 0.000000
# 6 0.000000 0.000000 0.000000 0.000000 0.000000 0.029583
#
#
# Mechanical properties :
#
#
# Convention : Reuss Voigt Hill
#
# Bulk Modulus (GPa) = 14.34817 19.04205 16.69511
# Shear Modulus (GPa) = 17.98141 23.43566 20.70854
#
# Velocity S-wave (km/s) = 2.86366 3.26926 3.07316
# Velocity P-wave (km/s) = 4.18063 4.78905 4.49515
#
# Compressibility (1/GPa) = 0.06969530
#
# Stress axis : x y z
#
# Youngs Moduli (GPa) = 30.09057 75.08163 60.99109
#
# Poissons Ratio (x) = 0.04406 -0.37462
# Poissons Ratio (y) = 0.01766 0.13306
# Poissons Ratio (z) = -0.18482 0.16380
#
# Static dielectric constant tensor:
#      x y z
#    x 1.840150 0.000000 0.000000 
#    y 0.000000 1.932940 0.000000 
#    z 0.000000 0.000000 1.806940 
# 
# From -- ./inp_files/7475.got.cif
#   From: 2010.05.17/outbox.cif.g08.bks.cpg/sg61_4_cif.got.tgz:7475.got - 2010.06.03 15:17:17.
