data_PCOD9460763
_publ_section_title
;
Structure prediction by ZEFSAII (Michael W. Deem and Ramdas Pophale) SiO2 
 PCOD9460763
Probable space group: P B C A
;
_chemical_formula_sum "Si O2"
_cell_formula_units_Z 40
_cell_length_a 16.756160
_cell_length_b 7.943154
_cell_length_c 9.678963
_cell_angle_alpha 90.000000
_cell_angle_beta 90.000000
_cell_angle_gamma 90.000000
_cell_volume 1288.238609
_symmetry_space_group_name_H-M "P B C A"
_symmetry_group_IT_number 61
_symmetry_cell_setting 'orthorhombic'
loop_
_space_group_symop_operation_xyz
x,y,z
1/2-x,-y,1/2+z
1/2+x,1/2-y,-z
-x,1/2+y,1/2-z
-x,-y,-z
1/2+x,y,1/2-z
1/2-x,1/2+y,z
x,1/2-y,1/2+z
loop_
_atom_site_type_symbol
_atom_site_label
_atom_site_fract_x
_atom_site_fract_y
_atom_site_fract_z
Si Si1 0.701043 0.897480 0.434137
Si Si2 0.627043 0.876477 0.731373
Si Si3 0.566943 0.105103 0.323394
Si Si4 0.884133 0.919532 0.474002
Si Si5 0.997445 0.266047 0.905124
O O1 0.652744 0.872200 0.575824
O O2 0.680813 0.750957 0.322340
O O3 0.789733 0.916459 0.494124
O O4 0.661519 0.059581 0.362585
O O5 0.532032 0.822481 0.739005
O O6 0.627628 0.062434 0.795241
O O7 0.557935 0.245390 0.453459
O O8 0.580238 0.124069 0.149583
O O9 0.527970 0.926091 0.376245
O O10 0.933887 0.098848 0.470599
#
# Coordination Sequence:
#
# PCOD9460763 Si02
#       5
#     8   8   8   8   8
#     4  12  28  43  73 104 145 181 238 289 351 417
#     4  12  27  46  72 106 138 184 236 287 350 419
#     4  10  24  45  71  99 138 184 230 291 347 410
#     4  10  26  44  71  99 144 182 231 283 351 412
#     4  10  24  45  74  97 142 181 233 284 350 413
#
# _framework density 31.050148
#
# number of rings (size 3 to 8) (size 9 to 14) (size 15 to 20)
#    1.200    0.000    0.000    4.200    8.400    4.800 
#    0.000    0.000    0.000    0.000    0.000    0.000 
#    0.000    0.000    0.000    0.000    0.000    0.000 
#
# Total GULP energy -223680.335484 kJ/mol
# GULP energy per Si atom -5592.008387 kJ/mol
# Density = 3.097948 g / cm^3
# Si number density = 31.050148 Si / 1000 Ang^3
#
#
#
# Elastic Constant Matrix: (Units=GPa)
#
#
# Indices 1 2 3 4 5 6 
#
# 1 310.0489 117.1001 136.1819 0.0000 0.0000 0.0000
# 2 117.1001 259.4693 142.1695 0.0000 0.0000 0.0000
# 3 136.1819 142.1695 330.0398 0.0000 0.0000 0.0000
# 4 0.0000 0.0000 0.0000 104.4655 0.0000 0.0000
# 5 0.0000 0.0000 0.0000 0.0000 73.1716 0.0000
# 6 0.0000 0.0000 0.0000 0.0000 0.0000 50.7733
#
#
#
# Elastic Compliance Matrix: (Units=1/GPa)
#
#
# Indices 1 2 3 4 5 6 
#
# 1 0.004226 -0.001246 -0.001207 0.000000 0.000000 0.000000
# 2 -0.001246 0.005412 -0.001817 0.000000 0.000000 0.000000
# 3 -0.001207 -0.001817 0.004311 0.000000 0.000000 0.000000
# 4 0.000000 0.000000 0.000000 0.009573 0.000000 0.000000
# 5 0.000000 0.000000 0.000000 0.000000 0.013667 0.000000
# 6 0.000000 0.000000 0.000000 0.000000 0.000000 0.019695
#
#
# Mechanical properties :
#
#
# Convention : Reuss Voigt Hill
#
# Bulk Modulus (GPa) = 184.89428 187.82901 186.36165
# Shear Modulus (GPa) = 74.37558 79.28918 76.83238
#
# Velocity S-wave (km/s) = 4.89953 5.05878 4.97979
# Velocity P-wave (km/s) = 9.57515 9.73371 9.65476
#
# Compressibility (1/GPa) = 0.00540850
#
# Stress axis : x y z
#
# Youngs Moduli (GPa) = 236.62968 184.77540 231.97506
#
# Poissons Ratio (x) = 0.23020 0.28001
# Poissons Ratio (y) = 0.29480 0.42155
# Poissons Ratio (z) = 0.28563 0.33578
#
# Static dielectric constant tensor:
#      x y z
#    x 2.690560 0.000000 0.000000 
#    y 0.000000 2.338480 0.000000 
#    z 0.000000 0.000000 2.810630 
# 
# From -- ./inp_files/6397.got.cif
#   From: 2010.05.17/outbox.cif.g08.bks.cpg/sg61_4_cif.got.tgz:6397.got - 2010.06.03 15:17:17.
