data_PCOD9460561
_publ_section_title
;
Structure prediction by ZEFSAII (Michael W. Deem and Ramdas Pophale) SiO2 
 PCOD9460561
Probable space group: P B C A
;
_chemical_formula_sum "Si O2"
_cell_formula_units_Z 64
_cell_length_a 5.166437
_cell_length_b 17.375903
_cell_length_c 28.062767
_cell_angle_alpha 90.000000
_cell_angle_beta 90.000000
_cell_angle_gamma 90.000000
_cell_volume 2519.236917
_symmetry_space_group_name_H-M "P B C A"
_symmetry_group_IT_number 61
_symmetry_cell_setting 'orthorhombic'
loop_
_space_group_symop_operation_xyz
x,y,z
1/2-x,-y,1/2+z
1/2+x,1/2-y,-z
-x,1/2+y,1/2-z
-x,-y,-z
1/2+x,y,1/2-z
1/2-x,1/2+y,z
x,1/2-y,1/2+z
loop_
_atom_site_type_symbol
_atom_site_label
_atom_site_fract_x
_atom_site_fract_y
_atom_site_fract_z
Si Si1 0.062999 0.444470 0.651265
Si Si2 0.103134 0.428468 0.155993
Si Si3 0.633613 0.835307 0.419115
Si Si4 0.252387 0.543716 0.923829
Si Si5 0.757745 0.156491 0.428278
Si Si6 0.744442 0.331149 0.218730
Si Si7 0.762779 0.844556 0.718304
Si Si8 0.753804 0.407253 0.517563
O O1 0.234117 0.504919 0.681583
O O2 0.216074 0.376144 0.625077
O O3 0.828580 0.406609 0.680000
O O4 0.960614 0.497635 0.608254
O O5 0.270012 0.359250 0.133472
O O6 0.856386 0.394135 0.182870
O O7 0.997056 0.467951 0.108056
O O8 0.688329 0.746911 0.426696
O O9 0.765559 0.881306 0.463105
O O10 0.340919 0.867721 0.424320
O O11 0.259206 0.499098 0.973306
O O12 0.503210 0.134423 0.458890
O O13 0.006859 0.120235 0.452964
O O14 0.953771 0.339181 0.261928
O O15 0.768669 0.243522 0.199979
O O16 0.050018 0.852312 0.739234
#
# Coordination Sequence:
#
# PCOD9460561 Si02
#       8
#     8   8   8   8   8   8   8   8
#     4  10  23  43  62  93 131 171 216 271 329 391
#     4  11  24  42  65  96 132 175 220 266 336 398
#     4  11  25  40  67  98 131 177 226 275 333 392
#     4  10  24  43  63  96 134 178 220 273 329 400
#     4  11  24  43  66  96 131 176 225 278 326 392
#     4  10  24  45  67  96 131 167 211 270 326 392
#     4  10  23  42  67  96 125 165 214 267 330 392
#     4  11  24  44  66  95 135 177 222 280 329 392
#
# _framework density 25.404517999999999
#
# number of rings (size 3 to 8) (size 9 to 14) (size 15 to 20)
#    0.000    1.500    1.250    1.875    8.750    1.500 
#    2.250    0.000    0.000    0.000    0.000    0.000 
#    0.000    0.000    0.000    0.000    0.000    0.000 
#
# Total GULP energy -358318.820067 kJ/mol
# GULP energy per Si atom -5598.731564 kJ/mol
# Density = 2.534670 g / cm^3
# Si number density = 25.404518 Si / 1000 Ang^3
#
#
#
# Elastic Constant Matrix: (Units=GPa)
#
#
# Indices 1 2 3 4 5 6 
#
# 1 88.6666 13.3184 8.0321 0.0000 0.0000 0.0000
# 2 13.3184 131.3871 31.7010 0.0000 0.0000 0.0000
# 3 8.0321 31.7010 60.4250 0.0000 0.0000 0.0000
# 4 0.0000 0.0000 0.0000 26.5862 0.0000 0.0000
# 5 0.0000 0.0000 0.0000 0.0000 40.7581 0.0000
# 6 0.0000 0.0000 0.0000 0.0000 0.0000 30.1336
#
#
#
# Elastic Compliance Matrix: (Units=1/GPa)
#
#
# Indices 1 2 3 4 5 6 
#
# 1 0.011511 -0.000913 -0.001051 0.000000 0.000000 0.000000
# 2 -0.000913 0.008787 -0.004488 0.000000 0.000000 0.000000
# 3 -0.001051 -0.004488 0.019044 0.000000 0.000000 0.000000
# 4 0.000000 0.000000 0.000000 0.037614 0.000000 0.000000
# 5 0.000000 0.000000 0.000000 0.000000 0.024535 0.000000
# 6 0.000000 0.000000 0.000000 0.000000 0.000000 0.033186
#
#
# Mechanical properties :
#
#
# Convention : Reuss Voigt Hill
#
# Bulk Modulus (GPa) = 37.82723 42.95353 40.39038
# Shear Modulus (GPa) = 31.97088 34.65738 33.31413
#
# Velocity S-wave (km/s) = 3.55134 3.69754 3.62518
# Velocity P-wave (km/s) = 5.63368 5.93074 5.78412
#
# Compressibility (1/GPa) = 0.02643598
#
# Stress axis : x y z
#
# Youngs Moduli (GPa) = 86.87656 113.80937 52.51028
#
# Poissons Ratio (x) = 0.10393 0.05519
# Poissons Ratio (y) = 0.07934 0.23569
# Poissons Ratio (z) = 0.09130 0.51082
#
# Static dielectric constant tensor:
#      x y z
#    x 2.092670 0.000000 0.000000 
#    y 0.000000 1.971200 0.000000 
#    z 0.000000 0.000000 2.011420 
# 
# From -- ./inp_files/845.got.cif
#   From: 2010.05.17/outbox.cif.g08.bks.cpg/sg61_1_cif.got.tgz:845.got - 2010.06.03 15:17:17.
