data_PCOD9460684
_publ_section_title
;
Structure prediction by ZEFSAII (Michael W. Deem and Ramdas Pophale) SiO2 
 PCOD9460684
Probable space group: P B C A
;
_chemical_formula_sum "Si O2"
_cell_formula_units_Z 40
_cell_length_a 14.405501
_cell_length_b 10.328428
_cell_length_c 10.638310
_cell_angle_alpha 90.000000
_cell_angle_beta 90.000000
_cell_angle_gamma 90.000000
_cell_volume 1582.833505
_symmetry_space_group_name_H-M "P B C A"
_symmetry_group_IT_number 61
_symmetry_cell_setting 'orthorhombic'
loop_
_space_group_symop_operation_xyz
x,y,z
1/2-x,-y,1/2+z
1/2+x,1/2-y,-z
-x,1/2+y,1/2-z
-x,-y,-z
1/2+x,y,1/2-z
1/2-x,1/2+y,z
x,1/2-y,1/2+z
loop_
_atom_site_type_symbol
_atom_site_label
_atom_site_fract_x
_atom_site_fract_y
_atom_site_fract_z
Si Si1 0.886023 0.602897 0.435388
Si Si2 0.976365 0.011095 0.693597
Si Si3 0.226225 0.742174 0.680027
Si Si4 0.180019 0.005581 0.810092
Si Si5 0.956414 0.286435 0.983554
O O1 0.980777 0.662773 0.489335
O O2 0.817407 0.719354 0.399140
O O3 0.833286 0.523177 0.541974
O O4 0.085742 0.473319 0.688782
O O5 0.080485 0.032534 0.744671
O O6 0.942617 0.133981 0.613109
O O7 0.985082 0.886270 0.603014
O O8 0.251254 0.612106 0.753026
O O9 0.137023 0.749965 0.589179
O O10 0.210956 0.861582 0.775879
#
# Coordination Sequence:
#
# PCOD9460684 Si02
#       5
#     8   8   8   8   8
#     4  12  25  46  83 113 158 212 271 330 412 490
#     4  10  23  48  77 108 155 207 266 327 403 480
#     4  11  27  48  80 117 165 205 275 339 397 491
#     4  11  26  49  75 117 158 214 267 334 400 483
#     4  10  24  47  80 113 158 212 261 334 405 476
#
# _framework density 25.271135000000001
#
# number of rings (size 3 to 8) (size 9 to 14) (size 15 to 20)
#    0.000    1.200    2.000    1.800    2.800    8.000 
#    0.000    0.000    0.000    0.000    0.000    0.000 
#    0.000    0.000    0.000    0.000    0.000    0.000 
#
# Total GULP energy -224714.166259 kJ/mol
# GULP energy per Si atom -5617.854156 kJ/mol
# Density = 2.521362 g / cm^3
# Si number density = 25.271135 Si / 1000 Ang^3
#
#
#
# Elastic Constant Matrix: (Units=GPa)
#
#
# Indices 1 2 3 4 5 6 
#
# 1 137.9353 58.5126 45.4209 0.0000 0.0000 0.0000
# 2 58.5126 139.2433 54.6644 0.0000 0.0000 0.0000
# 3 45.4209 54.6644 122.8893 0.0000 0.0000 0.0000
# 4 0.0000 0.0000 0.0000 32.6674 0.0000 0.0000
# 5 0.0000 0.0000 0.0000 0.0000 40.2720 0.0000
# 6 0.0000 0.0000 0.0000 0.0000 0.0000 41.4430
#
#
#
# Elastic Compliance Matrix: (Units=1/GPa)
#
#
# Indices 1 2 3 4 5 6 
#
# 1 0.009227 -0.003076 -0.002042 0.000000 0.000000 0.000000
# 2 -0.003076 0.009726 -0.003190 0.000000 0.000000 0.000000
# 3 -0.002042 -0.003190 0.010311 0.000000 0.000000 0.000000
# 4 0.000000 0.000000 0.000000 0.030612 0.000000 0.000000
# 5 0.000000 0.000000 0.000000 0.000000 0.024831 0.000000
# 6 0.000000 0.000000 0.000000 0.000000 0.000000 0.024130
#
#
# Mechanical properties :
#
#
# Convention : Reuss Voigt Hill
#
# Bulk Modulus (GPa) = 79.05635 79.69594 79.37614
# Shear Modulus (GPa) = 38.55994 38.97448 38.76721
#
# Velocity S-wave (km/s) = 3.91045 3.93141 3.92095
# Velocity P-wave (km/s) = 7.19305 7.22584 7.20947
#
# Compressibility (1/GPa) = 0.01264921
#
# Stress axis : x y z
#
# Youngs Moduli (GPa) = 108.37825 102.81359 96.98250
#
# Poissons Ratio (x) = 0.31621 0.19806
# Poissons Ratio (y) = 0.33333 0.30935
# Poissons Ratio (z) = 0.22134 0.32795
#
# Static dielectric constant tensor:
#      x y z
#    x 1.971490 0.000000 0.000000 
#    y 0.000000 1.958830 0.000000 
#    z 0.000000 0.000000 1.967990 
# 
# From -- ./inp_files/6396.got.cif
#   From: 2010.05.17/outbox.cif.g08.bks.cpg/sg61_4_cif.got.tgz:6396.got - 2010.06.03 15:17:17.
