data_PCOD9460825
_publ_section_title
;
Structure prediction by ZEFSAII (Michael W. Deem and Ramdas Pophale) SiO2 
 PCOD9460825
Probable space group: P B C A
;
_chemical_formula_sum "Si O2"
_cell_formula_units_Z 32
_cell_length_a 12.692179
_cell_length_b 9.915717
_cell_length_c 9.957018
_cell_angle_alpha 90.000000
_cell_angle_beta 90.000000
_cell_angle_gamma 90.000000
_cell_volume 1253.111178
_symmetry_space_group_name_H-M "P B C A"
_symmetry_group_IT_number 61
_symmetry_cell_setting 'orthorhombic'
loop_
_space_group_symop_operation_xyz
x,y,z
1/2-x,-y,1/2+z
1/2+x,1/2-y,-z
-x,1/2+y,1/2-z
-x,-y,-z
1/2+x,y,1/2-z
1/2-x,1/2+y,z
x,1/2-y,1/2+z
loop_
_atom_site_type_symbol
_atom_site_label
_atom_site_fract_x
_atom_site_fract_y
_atom_site_fract_z
Si Si1 0.936862 0.202779 0.632935
Si Si2 0.893070 0.758205 0.034138
Si Si3 0.760485 0.810381 0.768133
Si Si4 0.581512 0.506037 0.218967
O O1 0.985281 0.207841 0.483220
O O2 0.820227 0.204962 0.693549
O O3 0.970594 0.356077 0.670223
O O4 0.003481 0.085558 0.698011
O O5 0.820506 0.757636 0.899676
O O6 0.840269 0.664470 0.146371
O O7 0.891052 0.909486 0.093529
O O8 0.686825 0.940214 0.793144
#
# Coordination Sequence:
#
# PCOD9460825 Si02
#       4
#     8   8   8   8
#     4  10  25  46  76 108 154 201 250 315 381 454
#     4  12  23  49  73 113 149 201 256 313 383 454
#     4  10  28  41  80 108 154 196 257 312 383 447
#     4  10  25  47  75 109 150 200 250 318 374 454
#
# _framework density 25.536442000000001
#
# number of rings (size 3 to 8) (size 9 to 14) (size 15 to 20)
#    1.500    0.000    2.500    0.750    7.000    2.000 
#    0.000    2.500    0.000    0.000    0.000    0.000 
#    0.000    0.000    0.000    0.000    0.000    0.000 
#
# Total GULP energy -178413.584804 kJ/mol
# GULP energy per Si atom -5575.424525 kJ/mol
# Density = 2.547832 g / cm^3
# Si number density = 25.536442 Si / 1000 Ang^3
#
#
#
# Elastic Constant Matrix: (Units=GPa)
#
#
# Indices 1 2 3 4 5 6 
#
# 1 104.5283 33.5995 39.8825 0.0000 0.0000 0.0000
# 2 33.5995 99.3687 -1.7327 0.0000 0.0000 0.0000
# 3 39.8825 -1.7327 98.6659 0.0000 0.0000 0.0000
# 4 0.0000 0.0000 0.0000 33.4430 0.0000 0.0000
# 5 0.0000 0.0000 0.0000 0.0000 43.6499 0.0000
# 6 0.0000 0.0000 0.0000 0.0000 0.0000 -1.5322
#
#
#
# Elastic Compliance Matrix: (Units=1/GPa)
#
#
# Indices 1 2 3 4 5 6 
#
# 1 0.013061 -0.004510 -0.005359 0.000000 0.000000 0.000000
# 2 -0.004510 0.011624 0.002027 0.000000 0.000000 0.000000
# 3 -0.005359 0.002027 0.012337 0.000000 0.000000 0.000000
# 4 0.000000 0.000000 0.000000 0.029902 0.000000 0.000000
# 5 0.000000 0.000000 0.000000 0.000000 0.022910 0.000000
# 6 0.000000 0.000000 0.000000 0.000000 0.000000 -0.652657
#
#
# Mechanical properties :
#
#
# Convention : Reuss Voigt Hill
#
# Bulk Modulus (GPa) = 46.86282 49.56238 48.21260
# Shear Modulus (GPa) = -9.25878 30.49971 10.62047
#
# Velocity S-wave (km/s) = -1.90620 3.45970 2.04156
# Velocity P-wave (km/s) = 3.68055 5.95063 4.94755
#
# Compressibility (1/GPa) = 0.02133888
#
# Stress axis : x y z
#
# Youngs Moduli (GPa) = 76.56390 86.03070 81.05776
#
# Poissons Ratio (x) = 0.38798 0.43436
# Poissons Ratio (y) = 0.34528 -0.16431
# Poissons Ratio (z) = 0.41028 -0.17439
#
# Static dielectric constant tensor:
#      x y z
#    x 2.153860 0.000000 0.000000 
#    y 0.000000 1.967510 0.000000 
#    z 0.000000 0.000000 2.146850 
# 
# From -- ./inp_files/5007.got.cif
#   From: 2010.05.17/outbox.cif.g08.bks.cpg/sg61_3_cif.got.tgz:5007.got - 2010.06.03 15:17:17.
