data_PCOD9460511
_publ_section_title
;
Structure prediction by ZEFSAII (Michael W. Deem and Ramdas Pophale) SiO2 
 PCOD9460511
Probable space group: P B C A
;
_chemical_formula_sum "Si O2"
_cell_formula_units_Z 56
_cell_length_a 18.494359
_cell_length_b 14.696816
_cell_length_c 10.257234
_cell_angle_alpha 90.000000
_cell_angle_beta 90.000000
_cell_angle_gamma 90.000000
_cell_volume 2788.000221
_symmetry_space_group_name_H-M "P B C A"
_symmetry_group_IT_number 61
_symmetry_cell_setting 'orthorhombic'
loop_
_space_group_symop_operation_xyz
x,y,z
1/2-x,-y,1/2+z
1/2+x,1/2-y,-z
-x,1/2+y,1/2-z
-x,-y,-z
1/2+x,y,1/2-z
1/2-x,1/2+y,z
x,1/2-y,1/2+z
loop_
_atom_site_type_symbol
_atom_site_label
_atom_site_fract_x
_atom_site_fract_y
_atom_site_fract_z
Si Si1 0.369513 0.896750 0.077700
Si Si2 0.357952 0.416377 0.679165
Si Si3 0.834096 0.364468 0.117512
Si Si4 0.460747 0.264738 0.796005
Si Si5 0.186902 0.268583 0.303327
Si Si6 0.446682 0.756439 0.459269
Si Si7 0.289043 0.563601 0.330355
O O1 0.342861 0.825095 0.182914
O O2 0.431862 0.849829 0.992937
O O3 0.395660 0.988815 0.143112
O O4 0.301218 0.919489 0.984789
O O5 0.332047 0.375955 0.539611
O O6 0.409990 0.346375 0.749467
O O7 0.290939 0.441126 0.772605
O O8 0.908470 0.315714 0.155136
O O9 0.767573 0.300818 0.163102
O O10 0.825596 0.464299 0.184327
O O11 0.512548 0.293821 0.914941
O O12 0.506891 0.234279 0.671112
O O13 0.133483 0.290847 0.423979
O O14 0.181876 0.160313 0.275283
#
# Coordination Sequence:
#
# PCOD9460511 Si02
#       7
#     8   8   8   8   8   8   8
#     4  10  23  43  67  96 138 184 224 282 341 425
#     4  11  23  41  68 102 136 179 230 287 353 405
#     4  11  24  42  69  99 134 174 232 289 331 412
#     4  12  24  45  69 101 137 181 227 290 341 410
#     4  11  22  42  71  94 137 178 229 281 341 413
#     4  11  25  44  69  97 139 185 230 274 353 414
#     4  10  23  39  66 102 126 177 225 280 344 408
#
# _framework density 20.086081
#
# number of rings (size 3 to 8) (size 9 to 14) (size 15 to 20)
#    0.000    1.143    5.714    0.000    4.000    1.714 
#    2.571    0.714    0.000    0.000    0.000    0.000 
#    0.000    0.000    0.000    0.000    0.000    0.000 
#
# Total GULP energy -312420.680931 kJ/mol
# GULP energy per Si atom -5578.940731 kJ/mol
# Density = 2.004036 g / cm^3
# Si number density = 20.086081 Si / 1000 Ang^3
#
#
#
# Elastic Constant Matrix: (Units=GPa)
#
#
# Indices 1 2 3 4 5 6 
#
# 1 70.9743 19.2855 27.8179 0.0000 0.0000 0.0000
# 2 19.2855 85.0297 22.8129 0.0000 0.0000 0.0000
# 3 27.8179 22.8129 85.3544 0.0000 0.0000 0.0000
# 4 0.0000 0.0000 0.0000 26.6621 0.0000 0.0000
# 5 0.0000 0.0000 0.0000 0.0000 28.9490 0.0000
# 6 0.0000 0.0000 0.0000 0.0000 0.0000 20.9780
#
#
#
# Elastic Compliance Matrix: (Units=1/GPa)
#
#
# Indices 1 2 3 4 5 6 
#
# 1 0.016631 -0.002497 -0.004753 0.000000 0.000000 0.000000
# 2 -0.002497 0.013044 -0.002673 0.000000 0.000000 0.000000
# 3 -0.004753 -0.002673 0.013979 0.000000 0.000000 0.000000
# 4 0.000000 0.000000 0.000000 0.037506 0.000000 0.000000
# 5 0.000000 0.000000 0.000000 0.000000 0.034543 0.000000
# 6 0.000000 0.000000 0.000000 0.000000 0.000000 0.047669
#
#
# Mechanical properties :
#
#
# Convention : Reuss Voigt Hill
#
# Bulk Modulus (GPa) = 42.00006 42.35456 42.17731
# Shear Modulus (GPa) = 26.15693 26.74729 26.45211
#
# Velocity S-wave (km/s) = 3.61257 3.65311 3.63290
# Velocity P-wave (km/s) = 6.19325 6.23907 6.21620
#
# Compressibility (1/GPa) = 0.02380949
#
# Stress axis : x y z
#
# Youngs Moduli (GPa) = 60.12894 76.66401 71.53507
#
# Poissons Ratio (x) = 0.19142 0.34000
# Poissons Ratio (y) = 0.15014 0.19118
# Poissons Ratio (z) = 0.28578 0.20489
#
# Static dielectric constant tensor:
#      x y z
#    x 1.715630 0.000000 0.000000 
#    y 0.000000 1.736290 0.000000 
#    z 0.000000 0.000000 1.714820 
# 
# From -- ./inp_files/3994.got.cif
#   From: 2010.05.17/outbox.cif.g08.bks.cpg/sg61_2_cif.got.tgz:3994.got - 2010.06.03 15:17:17.
