data_PCOD9460765
_publ_section_title
;
Structure prediction by ZEFSAII (Michael W. Deem and Ramdas Pophale) SiO2 
 PCOD9460765
Probable space group: P B C A
;
_chemical_formula_sum "Si O2"
_cell_formula_units_Z 40
_cell_length_a 11.564794
_cell_length_b 7.660775
_cell_length_c 18.017504
_cell_angle_alpha 90.000000
_cell_angle_beta 90.000000
_cell_angle_gamma 90.000000
_cell_volume 1596.265897
_symmetry_space_group_name_H-M "P B C A"
_symmetry_group_IT_number 61
_symmetry_cell_setting 'orthorhombic'
loop_
_space_group_symop_operation_xyz
x,y,z
1/2-x,-y,1/2+z
1/2+x,1/2-y,-z
-x,1/2+y,1/2-z
-x,-y,-z
1/2+x,y,1/2-z
1/2-x,1/2+y,z
x,1/2-y,1/2+z
loop_
_atom_site_type_symbol
_atom_site_label
_atom_site_fract_x
_atom_site_fract_y
_atom_site_fract_z
Si Si1 0.104976 0.280678 0.377919
Si Si2 0.391277 0.146720 0.543679
Si Si3 0.131487 0.627487 0.896634
Si Si4 0.925724 0.722059 0.793890
Si Si5 0.262216 0.065876 0.131753
O O1 0.234657 0.351203 0.377190
O O2 0.062568 0.288842 0.293558
O O3 0.021990 0.391140 0.431743
O O4 0.104140 0.078462 0.404375
O O5 0.390554 0.261117 0.470378
O O6 0.298609 0.992985 0.554077
O O7 0.340911 0.271487 0.609247
O O8 0.048540 0.709264 0.833903
O O9 0.848039 0.567121 0.828602
O O10 0.846217 0.887302 0.815922
#
# Coordination Sequence:
#
# PCOD9460765 Si02
#       5
#     8   8   8   8   8
#     4  12  28  44  72 100 144 179 236 280 348 409
#     4  11  25  46  71 101 140 183 231 287 342 407
#     4  12  28  46  71 104 140 183 232 283 345 413
#     4  11  26  45  70 101 139 182 232 284 345 407
#     4  10  24  45  73  96 141 183 232 284 345 403
#
# _framework density 25.058481
#
# number of rings (size 3 to 8) (size 9 to 14) (size 15 to 20)
#    0.000    0.800    2.000    3.000   16.800    0.800 
#    0.000    0.000    0.000    0.000    0.000    0.000 
#    0.000    0.000    0.000    0.000    0.000    0.000 
#
# Total GULP energy -224336.510409 kJ/mol
# GULP energy per Si atom -5608.412760 kJ/mol
# Density = 2.500145 g / cm^3
# Si number density = 25.058481 Si / 1000 Ang^3
#
#
#
# Elastic Constant Matrix: (Units=GPa)
#
#
# Indices 1 2 3 4 5 6 
#
# 1 174.7560 24.0485 39.9180 0.0000 0.0000 0.0000
# 2 24.0485 48.1205 -7.1015 0.0000 0.0000 0.0000
# 3 39.9180 -7.1015 98.4070 0.0000 0.0000 0.0000
# 4 0.0000 0.0000 0.0000 19.8924 0.0000 0.0000
# 5 0.0000 0.0000 0.0000 0.0000 43.3181 0.0000
# 6 0.0000 0.0000 0.0000 0.0000 0.0000 38.3229
#
#
#
# Elastic Compliance Matrix: (Units=1/GPa)
#
#
# Indices 1 2 3 4 5 6 
#
# 1 0.006977 -0.003946 -0.003115 0.000000 0.000000 0.000000
# 2 -0.003946 0.023237 0.003278 0.000000 0.000000 0.000000
# 3 -0.003115 0.003278 0.011662 0.000000 0.000000 0.000000
# 4 0.000000 0.000000 0.000000 0.050271 0.000000 0.000000
# 5 0.000000 0.000000 0.000000 0.000000 0.023085 0.000000
# 6 0.000000 0.000000 0.000000 0.000000 0.000000 0.026094
#
#
# Mechanical properties :
#
#
# Convention : Reuss Voigt Hill
#
# Bulk Modulus (GPa) = 29.14708 48.33482 38.74095
# Shear Modulus (GPa) = 31.18588 37.93456 34.56022
#
# Velocity S-wave (km/s) = 3.53161 3.89503 3.71776
# Velocity P-wave (km/s) = 5.31851 6.28960 5.82433
#
# Compressibility (1/GPa) = 0.03430875
#
# Stress axis : x y z
#
# Youngs Moduli (GPa) = 143.33134 43.03460 85.74903
#
# Poissons Ratio (x) = 0.16983 0.26710
# Poissons Ratio (y) = 0.56564 -0.28106
# Poissons Ratio (z) = 0.44646 -0.14106
#
# Static dielectric constant tensor:
#      x y z
#    x 1.962420 0.000000 0.000000 
#    y 0.000000 2.080770 0.000000 
#    z 0.000000 0.000000 1.934430 
# 
# From -- ./inp_files/3274.got.cif
#   From: 2010.05.17/outbox.cif.g08.bks.cpg/sg61_2_cif.got.tgz:3274.got - 2010.06.03 15:17:17.
