data_PCOD9460634
_publ_section_title
;
Structure prediction by ZEFSAII (Michael W. Deem and Ramdas Pophale) SiO2 
 PCOD9460634
Probable space group: P B C A
;
_chemical_formula_sum "Si O2"
_cell_formula_units_Z 32
_cell_length_a 13.473995
_cell_length_b 9.150390
_cell_length_c 9.536503
_cell_angle_alpha 90.000000
_cell_angle_beta 90.000000
_cell_angle_gamma 90.000000
_cell_volume 1175.777476
_symmetry_space_group_name_H-M "P B C A"
_symmetry_group_IT_number 61
_symmetry_cell_setting 'orthorhombic'
loop_
_space_group_symop_operation_xyz
x,y,z
1/2-x,-y,1/2+z
1/2+x,1/2-y,-z
-x,1/2+y,1/2-z
-x,-y,-z
1/2+x,y,1/2-z
1/2-x,1/2+y,z
x,1/2-y,1/2+z
loop_
_atom_site_type_symbol
_atom_site_label
_atom_site_fract_x
_atom_site_fract_y
_atom_site_fract_z
Si Si1 0.869099 0.012529 0.176919
Si Si2 0.447232 0.585969 0.330839
Si Si3 0.710334 0.111876 0.384614
Si Si4 0.608473 0.803459 0.024286
O O1 0.779769 0.005321 0.288656
O O2 0.889379 0.184218 0.143263
O O3 0.973972 0.980586 0.250775
O O4 0.842400 0.944359 0.026691
O O5 0.374203 0.662874 0.222529
O O6 0.385276 0.470635 0.422972
O O7 0.509711 0.692057 0.430663
O O8 0.792234 0.225975 0.436421
#
# Coordination Sequence:
#
# PCOD9460634 Si02
#       4
#     8   8   8   8
#     4  11  25  44  74 101 142 184 230 294 345 414
#     4  10  23  45  68 101 141 180 235 287 336 430
#     4  11  23  45  69 104 139 179 234 291 340 423
#     4  10  24  46  68 103 146 177 229 290 350 410
#
# _framework density 27.216034000000001
#
# number of rings (size 3 to 8) (size 9 to 14) (size 15 to 20)
#    0.000    1.500    2.500    0.750    7.000    2.000 
#    4.500    0.000    0.000    0.000    0.000    0.000 
#    0.000    0.000    0.000    0.000    0.000    0.000 
#
# Total GULP energy -179144.219166 kJ/mol
# GULP energy per Si atom -5598.256849 kJ/mol
# Density = 2.715409 g / cm^3
# Si number density = 27.216034 Si / 1000 Ang^3
#
#
#
# Elastic Constant Matrix: (Units=GPa)
#
#
# Indices 1 2 3 4 5 6 
#
# 1 139.6994 19.2180 44.4607 0.0000 0.0000 0.0000
# 2 19.2180 63.9532 28.5409 0.0000 0.0000 0.0000
# 3 44.4607 28.5409 152.5422 0.0000 0.0000 0.0000
# 4 0.0000 0.0000 0.0000 34.5893 0.0000 0.0000
# 5 0.0000 0.0000 0.0000 0.0000 79.0280 0.0000
# 6 0.0000 0.0000 0.0000 0.0000 0.0000 18.3949
#
#
#
# Elastic Compliance Matrix: (Units=1/GPa)
#
#
# Indices 1 2 3 4 5 6 
#
# 1 0.008018 -0.001491 -0.002058 0.000000 0.000000 0.000000
# 2 -0.001491 0.017338 -0.002809 0.000000 0.000000 0.000000
# 3 -0.002058 -0.002809 0.007681 0.000000 0.000000 0.000000
# 4 0.000000 0.000000 0.000000 0.028911 0.000000 0.000000
# 5 0.000000 0.000000 0.000000 0.000000 0.012654 0.000000
# 6 0.000000 0.000000 0.000000 0.000000 0.000000 0.054363
#
#
# Mechanical properties :
#
#
# Convention : Reuss Voigt Hill
#
# Bulk Modulus (GPa) = 49.21120 60.07044 54.64082
# Shear Modulus (GPa) = 33.68010 44.00080 38.84045
#
# Velocity S-wave (km/s) = 3.52164 4.02521 3.78182
# Velocity P-wave (km/s) = 5.88701 6.61232 6.26018
#
# Compressibility (1/GPa) = 0.02032058
#
# Stress axis : x y z
#
# Youngs Moduli (GPa) = 124.71394 57.67583 130.19010
#
# Poissons Ratio (x) = 0.08600 0.26794
# Poissons Ratio (y) = 0.18595 0.36576
# Poissons Ratio (z) = 0.25667 0.16204
#
# Static dielectric constant tensor:
#      x y z
#    x 2.086640 0.000000 0.000000 
#    y 0.000000 2.080170 0.000000 
#    z 0.000000 0.000000 2.125900 
# 
# From -- ./inp_files/2517.got.cif
#   From: 2010.05.17/outbox.cif.g08.bks.cpg/sg61_2_cif.got.tgz:2517.got - 2010.06.03 15:17:17.
