data_PCOD9460802
_publ_section_title
;
Structure prediction by ZEFSAII (Michael W. Deem and Ramdas Pophale) SiO2 
 PCOD9460802
Probable space group: P B C A
;
_chemical_formula_sum "Si O2"
_cell_formula_units_Z 64
_cell_length_a 14.546222
_cell_length_b 17.333769
_cell_length_c 12.260937
_cell_angle_alpha 90.000000
_cell_angle_beta 90.000000
_cell_angle_gamma 90.000000
_cell_volume 3091.483101
_symmetry_space_group_name_H-M "P B C A"
_symmetry_group_IT_number 61
_symmetry_cell_setting 'orthorhombic'
loop_
_space_group_symop_operation_xyz
x,y,z
1/2-x,-y,1/2+z
1/2+x,1/2-y,-z
-x,1/2+y,1/2-z
-x,-y,-z
1/2+x,y,1/2-z
1/2-x,1/2+y,z
x,1/2-y,1/2+z
loop_
_atom_site_type_symbol
_atom_site_label
_atom_site_fract_x
_atom_site_fract_y
_atom_site_fract_z
Si Si1 0.455476 0.441346 0.414711
Si Si2 0.395544 0.961305 0.263961
Si Si3 0.025205 0.926141 0.931094
Si Si4 0.652705 0.159336 0.375302
Si Si5 0.810501 0.316458 0.046143
Si Si6 0.204010 0.044296 0.315337
Si Si7 0.297962 0.678498 0.737894
Si Si8 0.786877 0.360699 0.486424
O O1 0.500000 0.500000 0.500000
O O2 0.541690 0.432144 0.335331
O O3 0.405437 0.364706 0.462181
O O4 0.371155 0.482830 0.353006
O O5 0.369187 0.875078 0.305836
O O6 0.452670 0.032022 0.316486
O O7 0.295180 0.001455 0.271694
O O8 0.947987 0.860844 0.921457
O O9 0.115168 0.898157 0.993288
O O10 0.000000 0.000000 0.000000
O O11 0.730847 0.147430 0.468351
O O12 0.669177 0.096894 0.281839
O O13 0.663026 0.242772 0.315794
O O14 0.781734 0.309030 0.173243
O O15 0.808039 0.229068 0.004907
O O16 0.225441 0.099189 0.419707
O O17 0.258513 0.632517 0.632500
#
# Coordination Sequence:
#
# PCOD9460802 Si02
#       8
#     8   8   8   8   8   8   8   8
#     4  12  25  42  68 103 138 182 233 284 343 421
#     4  11  24  41  68 100 131 177 224 277 341 411
#     4  11  25  42  66 102 134 173 231 278 347 416
#     4  11  24  44  70  98 141 185 227 292 352 416
#     4  11  24  46  68  99 135 185 234 283 355 413
#     4  11  22  45  69 100 141 176 229 289 348 414
#     4  11  23  45  69  96 138 182 229 282 351 416
#     4  10  25  43  67  97 132 182 223 291 343 406
#
# _framework density 20.702038000000002
#
# number of rings (size 3 to 8) (size 9 to 14) (size 15 to 20)
#    0.000    1.000    3.750    2.250    7.000    0.000 
#    0.000    0.000    0.000    0.000    0.000    0.000 
#    0.000    0.000    0.000    0.000    0.000    0.000 
#
# Total GULP energy -356345.461467 kJ/mol
# GULP energy per Si atom -5567.897835 kJ/mol
# Density = 2.065492 g / cm^3
# Si number density = 20.702038 Si / 1000 Ang^3
#
#
#
# Elastic Constant Matrix: (Units=GPa)
#
#
# Indices 1 2 3 4 5 6 
#
# 1 66.2715 6.9637 16.7435 0.0000 0.0000 0.0000
# 2 6.9637 69.0949 20.5195 0.0000 0.0000 0.0000
# 3 16.7435 20.5195 56.3572 0.0000 0.0000 0.0000
# 4 0.0000 0.0000 0.0000 24.2077 0.0000 0.0000
# 5 0.0000 0.0000 0.0000 0.0000 25.1303 0.0000
# 6 0.0000 0.0000 0.0000 0.0000 0.0000 39.2227
#
#
#
# Elastic Compliance Matrix: (Units=1/GPa)
#
#
# Indices 1 2 3 4 5 6 
#
# 1 0.016317 -0.000230 -0.004764 0.000000 0.000000 0.000000
# 2 -0.000230 0.016231 -0.005841 0.000000 0.000000 0.000000
# 3 -0.004764 -0.005841 0.021286 0.000000 0.000000 0.000000
# 4 0.000000 0.000000 0.000000 0.041309 0.000000 0.000000
# 5 0.000000 0.000000 0.000000 0.000000 0.039793 0.000000
# 6 0.000000 0.000000 0.000000 0.000000 0.000000 0.025495
#
#
# Mechanical properties :
#
#
# Convention : Reuss Voigt Hill
#
# Bulk Modulus (GPa) = 31.09085 31.13079 31.11082
# Shear Modulus (GPa) = 25.93052 27.54526 26.73789
#
# Velocity S-wave (km/s) = 3.54299 3.65164 3.59772
# Velocity P-wave (km/s) = 5.63808 5.73145 5.68495
#
# Compressibility (1/GPa) = 0.03216380
#
# Stress axis : x y z
#
# Youngs Moduli (GPa) = 61.28487 61.61149 46.97882
#
# Poissons Ratio (x) = 0.01415 0.22381
# Poissons Ratio (y) = 0.01408 0.27442
# Poissons Ratio (z) = 0.29197 0.35989
#
# Static dielectric constant tensor:
#      x y z
#    x 1.724220 0.000000 0.000000 
#    y 0.000000 1.844250 0.000000 
#    z 0.000000 0.000000 1.867700 
# 
# From -- ./inp_files/5978.got.cif
#   From: 2010.05.17/outbox.cif.g08.bks.cpg/sg61_3_cif.got.tgz:5978.got - 2010.06.03 15:17:17.
