data_PCOD9460906
_publ_section_title
;
Structure prediction by ZEFSAII (Michael W. Deem and Ramdas Pophale) SiO2 
 PCOD9460906
Probable space group: P B C A
;
_chemical_formula_sum "Si O2"
_cell_formula_units_Z 64
_cell_length_a 14.792401
_cell_length_b 20.245266
_cell_length_c 9.258623
_cell_angle_alpha 90.000000
_cell_angle_beta 90.000000
_cell_angle_gamma 90.000000
_cell_volume 2772.736243
_symmetry_space_group_name_H-M "P B C A"
_symmetry_group_IT_number 61
_symmetry_cell_setting 'orthorhombic'
loop_
_space_group_symop_operation_xyz
x,y,z
1/2-x,-y,1/2+z
1/2+x,1/2-y,-z
-x,1/2+y,1/2-z
-x,-y,-z
1/2+x,y,1/2-z
1/2-x,1/2+y,z
x,1/2-y,1/2+z
loop_
_atom_site_type_symbol
_atom_site_label
_atom_site_fract_x
_atom_site_fract_y
_atom_site_fract_z
Si Si1 0.578878 0.825487 0.817372
Si Si2 0.603374 0.379152 0.203229
Si Si3 0.846154 0.748694 0.516129
Si Si4 0.650528 0.471223 0.430613
Si Si5 0.971635 0.199174 0.633568
Si Si6 0.774134 0.834270 0.766672
Si Si7 0.477483 0.955196 0.794925
Si Si8 0.346054 0.539170 0.067734
O O1 0.565138 0.754670 0.741778
O O2 0.670514 0.853089 0.751961
O O3 0.501074 0.877429 0.777560
O O4 0.585616 0.820768 0.992363
O O5 0.660386 0.403670 0.340408
O O6 0.505530 0.362608 0.271635
O O7 0.635369 0.312361 0.124762
O O8 0.617488 0.434875 0.083850
O O9 0.939309 0.769547 0.440929
O O10 0.810449 0.806718 0.616989
O O11 0.782233 0.723426 0.387850
O O12 0.597245 0.461480 0.579335
O O13 0.573731 0.513548 0.343603
O O14 0.750441 0.501608 0.447484
O O15 0.822864 0.896220 0.836828
O O16 0.429950 0.989702 0.658060
#
# Coordination Sequence:
#
# PCOD9460906 Si02
#       8
#     8   8   8   8   8   8   8   8
#     4  12  23  41  64 101 136 174 222 275 345 406
#     4  11  23  40  68  95 133 177 225 279 341 398
#     4  11  21  41  63  96 131 175 220 274 338 407
#     4  11  24  46  68  98 131 182 234 276 338 404
#     4  12  22  40  67  97 134 176 220 278 346 405
#     4  11  23  39  64  96 137 171 222 278 333 410
#     4  11  24  43  71  94 137 180 223 284 335 402
#     4  11  24  44  67  97 134 177 230 283 332 407
#
# _framework density 23.081893000000001
#
# number of rings (size 3 to 8) (size 9 to 14) (size 15 to 20)
#    0.000    0.750    5.000    3.750    0.000    0.500 
#    0.000    0.000    0.000    0.000    0.000    0.000 
#    0.000    0.000    0.000    0.000    0.000    0.000 
#
# Total GULP energy -357731.632229 kJ/mol
# GULP energy per Si atom -5589.556754 kJ/mol
# Density = 2.302936 g / cm^3
# Si number density = 23.081893 Si / 1000 Ang^3
#
#
#
# Elastic Constant Matrix: (Units=GPa)
#
#
# Indices 1 2 3 4 5 6 
#
# 1 82.0076 14.9186 34.3992 0.0000 0.0000 0.0000
# 2 14.9186 46.3166 20.8631 0.0000 0.0000 0.0000
# 3 34.3992 20.8631 111.4184 0.0000 0.0000 0.0000
# 4 0.0000 0.0000 0.0000 39.0216 0.0000 0.0000
# 5 0.0000 0.0000 0.0000 0.0000 13.3739 0.0000
# 6 0.0000 0.0000 0.0000 0.0000 0.0000 24.4099
#
#
#
# Elastic Compliance Matrix: (Units=1/GPa)
#
#
# Indices 1 2 3 4 5 6 
#
# 1 0.014349 -0.002868 -0.003893 0.000000 0.000000 0.000000
# 2 -0.002868 0.024153 -0.003637 0.000000 0.000000 0.000000
# 3 -0.003893 -0.003637 0.010858 0.000000 0.000000 0.000000
# 4 0.000000 0.000000 0.000000 0.025627 0.000000 0.000000
# 5 0.000000 0.000000 0.000000 0.000000 0.074772 0.000000
# 6 0.000000 0.000000 0.000000 0.000000 0.000000 0.040967
#
#
# Mechanical properties :
#
#
# Convention : Reuss Voigt Hill
#
# Bulk Modulus (GPa) = 35.01014 42.23381 38.62197
# Shear Modulus (GPa) = 22.62003 26.66520 24.64261
#
# Velocity S-wave (km/s) = 3.13388 3.40257 3.27099
# Velocity P-wave (km/s) = 5.31936 5.81152 5.57088
#
# Compressibility (1/GPa) = 0.02856316
#
# Stress axis : x y z
#
# Youngs Moduli (GPa) = 69.69264 41.40327 92.09699
#
# Poissons Ratio (x) = 0.11875 0.35853
# Poissons Ratio (y) = 0.19989 0.33496
# Poissons Ratio (z) = 0.27131 0.15059
#
# Static dielectric constant tensor:
#      x y z
#    x 1.864980 0.000000 0.000000 
#    y 0.000000 1.931070 0.000000 
#    z 0.000000 0.000000 1.878900 
# 
# From -- ./inp_files/3714.got.cif
#   From: 2010.05.17/outbox.cif.g08.bks.cpg/sg61_2_cif.got.tgz:3714.got - 2010.06.03 15:17:17.
