data_PCOD9460850
_publ_section_title
;
Structure prediction by ZEFSAII (Michael W. Deem and Ramdas Pophale) SiO2 
 PCOD9460850
Probable space group: P B C A
;
_chemical_formula_sum "Si O2"
_cell_formula_units_Z 36
_cell_length_a 8.916361
_cell_length_b 7.947980
_cell_length_c 18.109838
_cell_angle_alpha 90.000000
_cell_angle_beta 90.000000
_cell_angle_gamma 90.000000
_cell_volume 1283.390956
_symmetry_space_group_name_H-M "P B C A"
_symmetry_group_IT_number 61
_symmetry_cell_setting 'orthorhombic'
loop_
_space_group_symop_operation_xyz
x,y,z
1/2-x,-y,1/2+z
1/2+x,1/2-y,-z
-x,1/2+y,1/2-z
-x,-y,-z
1/2+x,y,1/2-z
1/2-x,1/2+y,z
x,1/2-y,1/2+z
loop_
_atom_site_type_symbol
_atom_site_label
_atom_site_fract_x
_atom_site_fract_y
_atom_site_fract_z
Si Si1 0.000000 0.000000 0.500000
Si Si2 0.281990 0.967874 0.628906
Si Si3 0.493485 0.280520 0.605430
Si Si4 0.433116 0.241302 0.378079
Si Si5 0.793050 0.961707 0.700989
O O1 0.903263 0.832924 0.538422
O O2 0.095417 0.855571 0.448570
O O3 0.123291 0.941801 0.586706
O O4 0.393901 0.810853 0.622348
O O5 0.240286 0.966066 0.715235
O O6 0.385201 0.124281 0.607321
O O7 0.584830 0.317567 0.679550
O O8 0.380694 0.365780 0.312780
O O9 0.342566 0.072271 0.355709
#
# Coordination Sequence:
#
# PCOD9460850 Si02
#       5
#     4   8   8   8   8
#     4  10  26  48  62  94 130 180 234 266 340 412
#     4  12  23  42  69 102 135 180 228 294 366 417
#     4  11  25  42  70  98 140 183 230 292 346 432
#     4  11  25  42  69  97 141 184 230 293 347 432
#     4  11  22  41  67 105 137 176 231 293 363 422
#
# _framework density 28.050689999999999
#
# number of rings (size 3 to 8) (size 9 to 14) (size 15 to 20)
#    0.000    0.889    0.000    8.000    0.000    8.000 
#    0.000    0.000    0.000    0.000    0.000    0.000 
#    0.000    0.000    0.000    0.000    0.000    0.000 
#
# Total GULP energy -200684.604873 kJ/mol
# GULP energy per Si atom -5574.572358 kJ/mol
# Density = 2.798685 g / cm^3
# Si number density = 28.050690 Si / 1000 Ang^3
#
#
#
# Elastic Constant Matrix: (Units=GPa)
#
#
# Indices 1 2 3 4 5 6 
#
# 1 144.5665 48.1242 24.7717 0.0000 0.0000 0.0000
# 2 48.1242 100.7127 12.5085 0.0000 0.0000 0.0000
# 3 24.7717 12.5085 155.2488 0.0000 0.0000 0.0000
# 4 0.0000 0.0000 0.0000 37.4874 0.0000 0.0000
# 5 0.0000 0.0000 0.0000 0.0000 33.1387 0.0000
# 6 0.0000 0.0000 0.0000 0.0000 0.0000 56.9208
#
#
#
# Elastic Compliance Matrix: (Units=1/GPa)
#
#
# Indices 1 2 3 4 5 6 
#
# 1 0.008384 -0.003879 -0.001025 0.000000 0.000000 0.000000
# 2 -0.003879 0.011824 -0.000334 0.000000 0.000000 0.000000
# 3 -0.001025 -0.000334 0.006632 0.000000 0.000000 0.000000
# 4 0.000000 0.000000 0.000000 0.026676 0.000000 0.000000
# 5 0.000000 0.000000 0.000000 0.000000 0.030176 0.000000
# 6 0.000000 0.000000 0.000000 0.000000 0.000000 0.017568
#
#
# Mechanical properties :
#
#
# Convention : Reuss Voigt Hill
#
# Bulk Modulus (GPa) = 61.10893 63.48185 62.29539
# Shear Modulus (GPa) = 42.66550 46.51763 44.59156
#
# Velocity S-wave (km/s) = 3.90425 4.07669 3.99140
# Velocity P-wave (km/s) = 6.49282 6.69623 6.59531
#
# Compressibility (1/GPa) = 0.01636422
#
# Stress axis : x y z
#
# Youngs Moduli (GPa) = 119.27276 84.57254 150.78959
#
# Poissons Ratio (x) = 0.32805 0.15460
# Poissons Ratio (y) = 0.46265 0.05033
# Poissons Ratio (z) = 0.12229 0.02823
#
# Static dielectric constant tensor:
#      x y z
#    x 2.339200 0.000000 0.000000 
#    y 0.000000 2.376620 0.000000 
#    z 0.000000 0.000000 2.560980 
# 
# From -- ./inp_files/1679.got.cif
#   From: 2010.05.17/outbox.cif.g08.bks.cpg/sg61_1_cif.got.tgz:1679.got - 2010.06.03 15:17:17.
