data_PCOD9460928
_publ_section_title
;
Structure prediction by ZEFSAII (Michael W. Deem and Ramdas Pophale) SiO2 
 PCOD9460928
Probable space group: P B C A
;
_chemical_formula_sum "Si O2"
_cell_formula_units_Z 52
_cell_length_a 7.176018
_cell_length_b 7.505145
_cell_length_c 35.030619
_cell_angle_alpha 90.000000
_cell_angle_beta 90.000000
_cell_angle_gamma 90.000000
_cell_volume 1886.645996
_symmetry_space_group_name_H-M "P B C A"
_symmetry_group_IT_number 61
_symmetry_cell_setting 'orthorhombic'
loop_
_space_group_symop_operation_xyz
x,y,z
1/2-x,-y,1/2+z
1/2+x,1/2-y,-z
-x,1/2+y,1/2-z
-x,-y,-z
1/2+x,y,1/2-z
1/2-x,1/2+y,z
x,1/2-y,1/2+z
loop_
_atom_site_type_symbol
_atom_site_label
_atom_site_fract_x
_atom_site_fract_y
_atom_site_fract_z
Si Si1 0.161685 0.696115 0.288371
Si Si2 0.030274 0.716409 0.628008
Si Si3 0.489201 0.264251 0.447803
Si Si4 0.548885 0.825187 0.291895
Si Si5 0.500000 0.000000 0.000000
Si Si6 0.610512 0.629873 0.956278
Si Si7 0.106784 0.882476 0.366581
O O1 0.381945 0.681363 0.296003
O O2 0.053518 0.512299 0.286525
O O3 0.078372 0.800454 0.324552
O O4 0.156457 0.783062 0.246433
O O5 0.143401 0.674778 0.666742
O O6 0.125755 0.663851 0.589092
O O7 0.832633 0.612767 0.630446
O O8 0.980610 0.924502 0.627277
O O9 0.666918 0.379528 0.467139
O O10 0.350123 0.402554 0.466920
O O11 0.463783 0.268208 0.402629
O O12 0.523572 0.064670 0.460673
O O13 0.522898 0.804521 0.974151
#
# Coordination Sequence:
#
# PCOD9460928 Si02
#       7
#     8   8   8   8   4   8   8
#     4  11  22  39  62  94 131 172 219 270 324 387
#     4  11  22  42  66  98 132 174 219 269 329 394
#     4  12  25  48  71  99 135 174 221 276 330 397
#     4  11  22  39  62  94 131 172 219 270 324 387
#     4  12  26  48  68 104 132 172 218 274 344 382
#     4  12  25  48  71  99 135 174 221 276 330 397
#     4  11  22  42  66  98 132 174 219 269 329 394
#
# _framework density 27.562139999999999
#
# number of rings (size 3 to 8) (size 9 to 14) (size 15 to 20)
#    0.000    0.615    3.077    7.846    0.000    2.462 
#    5.538    6.154    0.000    0.000    0.000    0.000 
#    0.000    0.000    0.000    0.000    0.000    0.000 
#
# Total GULP energy -290871.675306 kJ/mol
# GULP energy per Si atom -5593.686064 kJ/mol
# Density = 2.749941 g / cm^3
# Si number density = 27.562140 Si / 1000 Ang^3
#
#
#
# Elastic Constant Matrix: (Units=GPa)
#
#
# Indices 1 2 3 4 5 6 
#
# 1 91.4395 34.4073 30.0973 0.0000 0.0000 0.0000
# 2 34.4073 205.9922 90.9730 0.0000 0.0000 0.0000
# 3 30.0973 90.9730 263.6425 0.0000 0.0000 0.0000
# 4 0.0000 0.0000 0.0000 55.6161 0.0000 0.0000
# 5 0.0000 0.0000 0.0000 0.0000 39.9017 0.0000
# 6 0.0000 0.0000 0.0000 0.0000 0.0000 9.5079
#
#
#
# Elastic Compliance Matrix: (Units=1/GPa)
#
#
# Indices 1 2 3 4 5 6 
#
# 1 0.011807 -0.001624 -0.000787 0.000000 0.000000 0.000000
# 2 -0.001624 0.005951 -0.001868 0.000000 0.000000 0.000000
# 3 -0.000787 -0.001868 0.004527 0.000000 0.000000 0.000000
# 4 0.000000 0.000000 0.000000 0.017980 0.000000 0.000000
# 5 0.000000 0.000000 0.000000 0.000000 0.025062 0.000000
# 6 0.000000 0.000000 0.000000 0.000000 0.000000 0.105176
#
#
# Mechanical properties :
#
#
# Convention : Reuss Voigt Hill
#
# Bulk Modulus (GPa) = 72.85692 96.89216 84.87454
# Shear Modulus (GPa) = 27.22759 48.04491 37.63625
#
# Velocity S-wave (km/s) = 3.14644 4.17963 3.69928
# Velocity P-wave (km/s) = 6.30009 7.65002 7.00764
#
# Compressibility (1/GPa) = 0.01372553
#
# Stress axis : x y z
#
# Youngs Moduli (GPa) = 84.69868 168.04384 220.87438
#
# Poissons Ratio (x) = 0.27296 0.17390
# Poissons Ratio (y) = 0.13758 0.41259
# Poissons Ratio (z) = 0.06669 0.31390
#
# Static dielectric constant tensor:
#      x y z
#    x 2.247110 0.000000 0.000000 
#    y 0.000000 2.094800 0.000000 
#    z 0.000000 0.000000 2.258230 
# 
# From -- ./inp_files/11759.got.cif
#   From: 2010.05.17/outbox.cif.g08.bks.cpg/sg61_6_cif.got.tgz:11759.got - 2010.06.03 15:17:17.
