data_PCOD9460665
_publ_section_title
;
Structure prediction by ZEFSAII (Michael W. Deem and Ramdas Pophale) SiO2 
 PCOD9460665
Probable space group: P B C A
;
_chemical_formula_sum "Si O2"
_cell_formula_units_Z 56
_cell_length_a 8.012593
_cell_length_b 19.737506
_cell_length_c 14.164574
_cell_angle_alpha 90.000000
_cell_angle_beta 90.000000
_cell_angle_gamma 90.000000
_cell_volume 2240.107582
_symmetry_space_group_name_H-M "P B C A"
_symmetry_group_IT_number 61
_symmetry_cell_setting 'orthorhombic'
loop_
_space_group_symop_operation_xyz
x,y,z
1/2-x,-y,1/2+z
1/2+x,1/2-y,-z
-x,1/2+y,1/2-z
-x,-y,-z
1/2+x,y,1/2-z
1/2-x,1/2+y,z
x,1/2-y,1/2+z
loop_
_atom_site_type_symbol
_atom_site_label
_atom_site_fract_x
_atom_site_fract_y
_atom_site_fract_z
Si Si1 0.605656 0.674680 0.387476
Si Si2 0.176694 0.933689 0.944642
Si Si3 0.242882 0.371924 0.147099
Si Si4 0.298603 0.190880 0.323344
Si Si5 0.380250 0.666408 0.825959
Si Si6 0.067855 0.241403 0.553419
Si Si7 0.796349 0.579508 0.499294
O O1 0.602911 0.674819 0.274293
O O2 0.085230 0.715640 0.409286
O O3 0.769325 0.717038 0.418580
O O4 0.647599 0.600722 0.429600
O O5 0.255029 0.882753 0.866575
O O6 0.972895 0.928938 0.943300
O O7 0.223229 0.914923 0.053481
O O8 0.228854 0.011672 0.940553
O O9 0.181779 0.390367 0.251122
O O10 0.420081 0.335072 0.166052
O O11 0.088600 0.325025 0.116147
O O12 0.193317 0.259595 0.299301
O O13 0.036186 0.213002 0.448764
O O14 0.317716 0.640726 0.926746
#
# Coordination Sequence:
#
# PCOD9460665 Si02
#       7
#     8   8   8   8   8   8   8
#     4  12  27  43  73 105 150 185 236 304 360 434
#     4  10  24  46  70  99 145 196 241 288 359 430
#     4  11  25  43  71 107 144 186 232 302 360 430
#     4  12  25  42  73 111 145 184 242 300 356 432
#     4  11  24  41  75 106 142 183 242 295 363 420
#     4  12  26  43  69 110 142 181 235 298 370 417
#     4  10  23  46  71  98 144 198 236 291 359 428
#
# _framework density 24.998799999999999
#
# number of rings (size 3 to 8) (size 9 to 14) (size 15 to 20)
#    0.000    0.857    4.286    1.714    2.000    3.429 
#    0.000    0.714    0.000    0.000    0.000    0.000 
#    0.000    0.000    0.000    0.000    0.000    0.000 
#
# Total GULP energy -312729.623420 kJ/mol
# GULP energy per Si atom -5584.457561 kJ/mol
# Density = 2.494190 g / cm^3
# Si number density = 24.998800 Si / 1000 Ang^3
#
#
#
# Elastic Constant Matrix: (Units=GPa)
#
#
# Indices 1 2 3 4 5 6 
#
# 1 50.4360 22.2950 -1.3916 0.0000 0.0000 0.0000
# 2 22.2950 117.5984 37.2379 0.0000 0.0000 0.0000
# 3 -1.3916 37.2379 149.7728 0.0000 0.0000 0.0000
# 4 0.0000 0.0000 0.0000 31.5866 0.0000 0.0000
# 5 0.0000 0.0000 0.0000 0.0000 40.2040 0.0000
# 6 0.0000 0.0000 0.0000 0.0000 0.0000 23.1435
#
#
#
# Elastic Compliance Matrix: (Units=1/GPa)
#
#
# Indices 1 2 3 4 5 6 
#
# 1 0.021886 -0.004574 0.001341 0.000000 0.000000 0.000000
# 2 -0.004574 0.010186 -0.002575 0.000000 0.000000 0.000000
# 3 0.001341 -0.002575 0.007329 0.000000 0.000000 0.000000
# 4 0.000000 0.000000 0.000000 0.031659 0.000000 0.000000
# 5 0.000000 0.000000 0.000000 0.000000 0.024873 0.000000
# 6 0.000000 0.000000 0.000000 0.000000 0.000000 0.043209
#
#
# Mechanical properties :
#
#
# Convention : Reuss Voigt Hill
#
# Bulk Modulus (GPa) = 35.99082 48.23220 42.11151
# Shear Modulus (GPa) = 31.24605 36.29789 33.77197
#
# Velocity S-wave (km/s) = 3.53923 3.81463 3.67951
# Velocity P-wave (km/s) = 5.57941 6.22395 5.91047
#
# Compressibility (1/GPa) = 0.02778486
#
# Stress axis : x y z
#
# Youngs Moduli (GPa) = 45.69155 98.17378 136.43562
#
# Poissons Ratio (x) = 0.44902 -0.18289
# Poissons Ratio (y) = 0.20898 0.35133
# Poissons Ratio (z) = -0.06125 0.25280
#
# Static dielectric constant tensor:
#      x y z
#    x 2.160730 0.000000 0.000000 
#    y 0.000000 2.038140 0.000000 
#    z 0.000000 0.000000 2.011940 
# 
# From -- ./inp_files/7171.got.cif
#   From: 2010.05.17/outbox.cif.g08.bks.cpg/sg61_4_cif.got.tgz:7171.got - 2010.06.03 15:17:17.
