data_PCOD9460520
_publ_section_title
;
Structure prediction by ZEFSAII (Michael W. Deem and Ramdas Pophale) SiO2 
 PCOD9460520
Probable space group: P B C A
;
_chemical_formula_sum "Si O2"
_cell_formula_units_Z 48
_cell_length_a 9.882592
_cell_length_b 11.056829
_cell_length_c 21.821099
_cell_angle_alpha 90.000000
_cell_angle_beta 90.000000
_cell_angle_gamma 90.000000
_cell_volume 2384.394321
_symmetry_space_group_name_H-M "P B C A"
_symmetry_group_IT_number 61
_symmetry_cell_setting 'orthorhombic'
loop_
_space_group_symop_operation_xyz
x,y,z
1/2-x,-y,1/2+z
1/2+x,1/2-y,-z
-x,1/2+y,1/2-z
-x,-y,-z
1/2+x,y,1/2-z
1/2-x,1/2+y,z
x,1/2-y,1/2+z
loop_
_atom_site_type_symbol
_atom_site_label
_atom_site_fract_x
_atom_site_fract_y
_atom_site_fract_z
Si Si1 0.595636 0.929583 0.228327
Si Si2 0.184696 0.544304 0.191017
Si Si3 0.751564 0.781993 0.131217
Si Si4 0.449168 0.276729 0.157873
Si Si5 0.659999 0.963940 0.566585
Si Si6 0.647487 0.540780 0.926833
O O1 0.653696 0.822156 0.186367
O O2 0.541603 0.884792 0.293868
O O3 0.722475 0.011263 0.250540
O O4 0.464867 0.987332 0.196760
O O5 0.157796 0.685476 0.185755
O O6 0.254836 0.503791 0.127400
O O7 0.696381 0.667152 0.093973
O O8 0.898346 0.733830 0.152019
O O9 0.780218 0.912604 0.097452
O O10 0.393819 0.323532 0.093182
O O11 0.702499 0.966374 0.495248
O O12 0.497052 0.973205 0.572450
#
# Coordination Sequence:
#
# PCOD9460520 Si02
#       6
#     8   8   8   8   8   8
#     4  11  24  41  62 101 133 174 220 277 340 391
#     4  11  24  41  68  96 134 174 227 275 332 404
#     4  11  23  43  68 100 133 179 221 280 334 398
#     4  10  23  40  66  92 134 175 226 272 332 403
#     4  10  23  44  70  94 140 174 224 275 336 395
#     4   9  23  45  63  98 130 182 217 275 336 397
#
# _framework density 20.130897999999998
#
# number of rings (size 3 to 8) (size 9 to 14) (size 15 to 20)
#    0.000    1.667    1.667    1.000    7.000    2.667 
#    6.000    1.667    0.000    0.000    0.000    0.000 
#    0.000    0.000    0.000    0.000    0.000    0.000 
#
# Total GULP energy -267522.093119 kJ/mol
# GULP energy per Si atom -5573.376940 kJ/mol
# Density = 2.008508 g / cm^3
# Si number density = 20.130898 Si / 1000 Ang^3
#
#
#
# Elastic Constant Matrix: (Units=GPa)
#
#
# Indices 1 2 3 4 5 6 
#
# 1 90.5701 34.1208 40.5267 0.0000 0.0000 0.0000
# 2 34.1208 73.7229 41.3992 0.0000 0.0000 0.0000
# 3 40.5267 41.3992 111.2150 0.0000 0.0000 0.0000
# 4 0.0000 0.0000 0.0000 28.4106 0.0000 0.0000
# 5 0.0000 0.0000 0.0000 0.0000 27.4716 0.0000
# 6 0.0000 0.0000 0.0000 0.0000 0.0000 18.1589
#
#
#
# Elastic Compliance Matrix: (Units=1/GPa)
#
#
# Indices 1 2 3 4 5 6 
#
# 1 0.014370 -0.004691 -0.003490 0.000000 0.000000 0.000000
# 2 -0.004691 0.018680 -0.005244 0.000000 0.000000 0.000000
# 3 -0.003490 -0.005244 0.012216 0.000000 0.000000 0.000000
# 4 0.000000 0.000000 0.000000 0.035198 0.000000 0.000000
# 5 0.000000 0.000000 0.000000 0.000000 0.036401 0.000000
# 6 0.000000 0.000000 0.000000 0.000000 0.000000 0.055069
#
#
# Mechanical properties :
#
#
# Convention : Reuss Voigt Hill
#
# Bulk Modulus (GPa) = 54.30325 56.40016 55.35171
# Shear Modulus (GPa) = 24.39926 25.43897 24.91912
#
# Velocity S-wave (km/s) = 3.48520 3.55868 3.52213
# Velocity P-wave (km/s) = 6.57489 6.70546 6.64049
#
# Compressibility (1/GPa) = 0.01841510
#
# Stress axis : x y z
#
# Youngs Moduli (GPa) = 69.58860 53.53235 81.86236
#
# Poissons Ratio (x) = 0.25111 0.28573
# Poissons Ratio (y) = 0.32643 0.42931
# Poissons Ratio (z) = 0.24289 0.28074
#
# Static dielectric constant tensor:
#      x y z
#    x 1.722330 0.000000 0.000000 
#    y 0.000000 1.748600 0.000000 
#    z 0.000000 0.000000 1.703310 
# 
# From -- ./inp_files/10830.got.cif
#   From: 2010.05.17/outbox.cif.g08.bks.cpg/sg61_6_cif.got.tgz:10830.got - 2010.06.03 15:17:17.
