data_PCOD9460839
_publ_section_title
;
Structure prediction by ZEFSAII (Michael W. Deem and Ramdas Pophale) SiO2 
 PCOD9460839
Probable space group: P B C A
;
_chemical_formula_sum "Si O2"
_cell_formula_units_Z 60
_cell_length_a 17.960136
_cell_length_b 7.904587
_cell_length_c 18.100641
_cell_angle_alpha 90.000000
_cell_angle_beta 90.000000
_cell_angle_gamma 90.000000
_cell_volume 2569.701983
_symmetry_space_group_name_H-M "P B C A"
_symmetry_group_IT_number 61
_symmetry_cell_setting 'orthorhombic'
loop_
_space_group_symop_operation_xyz
x,y,z
1/2-x,-y,1/2+z
1/2+x,1/2-y,-z
-x,1/2+y,1/2-z
-x,-y,-z
1/2+x,y,1/2-z
1/2-x,1/2+y,z
x,1/2-y,1/2+z
loop_
_atom_site_type_symbol
_atom_site_label
_atom_site_fract_x
_atom_site_fract_y
_atom_site_fract_z
Si Si1 0.903259 0.578295 0.173209
Si Si2 0.338436 0.057980 0.428918
Si Si3 0.529852 0.367843 0.258918
Si Si4 0.000000 0.000000 0.000000
Si Si5 0.206363 0.973863 0.209114
Si Si6 0.822492 0.830745 0.535241
Si Si7 0.889188 0.814539 0.893177
Si Si8 0.847340 0.119546 0.239816
O O1 0.952136 0.748945 0.187827
O O2 0.828998 0.579766 0.222575
O O3 0.874820 0.558072 0.089633
O O4 0.950320 0.425143 0.209393
O O5 0.419459 0.081645 0.464805
O O6 0.263693 0.120347 0.469738
O O7 0.332707 0.135530 0.347156
O O8 0.328646 0.854260 0.426834
O O9 0.571627 0.274669 0.325073
O O10 0.570304 0.546732 0.245256
O O11 0.952076 0.926296 0.931883
O O12 0.174562 0.786134 0.215563
O O13 0.177169 0.067127 0.136582
O O14 0.293446 0.978273 0.224080
O O15 0.858378 0.812886 0.454800
#
# Coordination Sequence:
#
# PCOD9460839 Si02
#       8
#     8   8   8   4   8   8   8   8
#     4  11  23  42  65 104 135 188 239 313 361 455
#     4  11  24  44  72 105 137 197 244 310 371 463
#     4  11  25  41  69 100 145 175 245 303 379 428
#     4  10  26  44  70  98 154 186 240 296 386 450
#     4  11  24  40  69 102 138 178 247 310 367 435
#     4  11  24  45  71  97 146 189 252 294 374 463
#     4  10  26  47  66 104 145 192 238 308 376 460
#     4  12  23  42  73 103 136 184 245 310 371 447
#
# _framework density 23.349011000000001
#
# number of rings (size 3 to 8) (size 9 to 14) (size 15 to 20)
#    0.000    1.067    2.667    3.200    5.600    6.933 
#    0.000    1.333    0.000    0.000    0.000    0.000 
#    0.000    0.000    0.000    0.000    0.000    0.000 
#
# Total GULP energy -334343.090976 kJ/mol
# GULP energy per Si atom -5572.384850 kJ/mol
# Density = 2.329587 g / cm^3
# Si number density = 23.349011 Si / 1000 Ang^3
#
#
#
# Elastic Constant Matrix: (Units=GPa)
#
#
# Indices 1 2 3 4 5 6 
#
# 1 134.1967 1.1088 41.3150 0.0000 0.0000 0.0000
# 2 1.1088 25.2297 2.8690 0.0000 0.0000 0.0000
# 3 41.3150 2.8690 90.9526 0.0000 0.0000 0.0000
# 4 0.0000 0.0000 0.0000 30.0411 0.0000 0.0000
# 5 0.0000 0.0000 0.0000 0.0000 29.3891 0.0000
# 6 0.0000 0.0000 0.0000 0.0000 0.0000 31.0383
#
#
#
# Elastic Compliance Matrix: (Units=1/GPa)
#
#
# Indices 1 2 3 4 5 6 
#
# 1 0.008663 0.000067 -0.003937 0.000000 0.000000 0.000000
# 2 0.000067 0.039779 -0.001285 0.000000 0.000000 0.000000
# 3 -0.003937 -0.001285 0.012824 0.000000 0.000000 0.000000
# 4 0.000000 0.000000 0.000000 0.033288 0.000000 0.000000
# 5 0.000000 0.000000 0.000000 0.000000 0.034026 0.000000
# 6 0.000000 0.000000 0.000000 0.000000 0.000000 0.032218
#
#
# Mechanical properties :
#
#
# Convention : Reuss Voigt Hill
#
# Bulk Modulus (GPa) = 19.62516 37.88497 28.75507
# Shear Modulus (GPa) = 26.58232 31.76610 29.17421
#
# Velocity S-wave (km/s) = 3.37779 3.69248 3.53864
# Velocity P-wave (km/s) = 4.86169 5.86856 5.38869
#
# Compressibility (1/GPa) = 0.05095500
#
# Stress axis : x y z
#
# Youngs Moduli (GPa) = 115.42797 25.13885 77.97970
#
# Poissons Ratio (x) = -0.00168 0.30704
# Poissons Ratio (y) = -0.00773 0.10022
# Poissons Ratio (z) = 0.45449 0.03231
#
# Static dielectric constant tensor:
#      x y z
#    x 1.916090 0.000000 0.000000 
#    y 0.000000 1.945590 0.000000 
#    z 0.000000 0.000000 1.850210 
# 
# From -- ./inp_files/9670.got.cif
#   From: 2010.05.17/outbox.cif.g08.bks.cpg/sg61_5_cif.got.tgz:9670.got - 2010.06.03 15:17:17.
