data_PCOD9460151
_publ_section_title
;
Structure prediction by ZEFSAII (Michael W. Deem and Ramdas Pophale) SiO2 
 PCOD9460151
Probable space group: P B C A
;
_chemical_formula_sum "Si O2"
_cell_formula_units_Z 52
_cell_length_a 12.310366
_cell_length_b 8.454961
_cell_length_c 20.449227
_cell_angle_alpha 90.000000
_cell_angle_beta 90.000000
_cell_angle_gamma 90.000000
_cell_volume 2128.430481
_symmetry_space_group_name_H-M "P B C A"
_symmetry_group_IT_number 61
_symmetry_cell_setting 'orthorhombic'
loop_
_space_group_symop_operation_xyz
x,y,z
1/2-x,-y,1/2+z
1/2+x,1/2-y,-z
-x,1/2+y,1/2-z
-x,-y,-z
1/2+x,y,1/2-z
1/2-x,1/2+y,z
x,1/2-y,1/2+z
loop_
_atom_site_type_symbol
_atom_site_label
_atom_site_fract_x
_atom_site_fract_y
_atom_site_fract_z
Si Si1 0.799156 0.605528 0.214438
Si Si2 0.155731 0.380263 0.374750
Si Si3 0.216974 0.067758 0.012862
Si Si4 0.374203 0.634810 0.587922
Si Si5 0.805378 0.150516 0.809653
Si Si6 0.552099 0.673512 0.931732
Si Si7 0.500000 0.500000 0.500000
O O1 0.864553 0.722600 0.167406
O O2 0.722125 0.498971 0.169719
O O3 0.723984 0.717917 0.258038
O O4 0.856050 0.493918 0.268392
O O5 0.221698 0.357222 0.441934
O O6 0.041001 0.439026 0.402572
O O7 0.170623 0.195957 0.064040
O O8 0.335321 0.994469 0.030740
O O9 0.135371 0.920439 0.021968
O O10 0.307204 0.598825 0.653233
O O11 0.497808 0.592297 0.576419
O O12 0.878057 0.215133 0.868034
O O13 0.494851 0.819936 0.966085
#
# Coordination Sequence:
#
# PCOD9460151 Si02
#       7
#     8   8   8   8   8   8   4
#     4  10  23  42  66  88 129 180 226 262 332 394
#     4  11  23  41  63  95 130 170 217 281 321 412
#     4  11  22  43  65  98 133 177 209 281 355 402
#     4  11  22  39  70  93 136 169 222 276 337 404
#     4  10  21  44  65  92 127 183 221 269 332 396
#     4  11  24  42  67  97 138 164 227 279 340 404
#     4  12  24  38  60 110 128 170 218 276 338 416
#
# _framework density 24.431146999999999
#
# number of rings (size 3 to 8) (size 9 to 14) (size 15 to 20)
#    0.000    1.231    1.538    6.000    0.000    1.231 
#    2.769    0.000    0.000    0.000    0.000    0.000 
#    0.000    0.000    0.000    0.000    0.000    0.000 
#
# Total GULP energy -289583.469213 kJ/mol
# GULP energy per Si atom -5568.912869 kJ/mol
# Density = 2.437554 g / cm^3
# Si number density = 24.431147 Si / 1000 Ang^3
#
#
#
# Elastic Constant Matrix: (Units=GPa)
#
#
# Indices 1 2 3 4 5 6 
#
# 1 49.3146 -0.7761 13.9072 0.0000 0.0000 0.0000
# 2 -0.7761 82.3062 31.7787 0.0000 0.0000 0.0000
# 3 13.9072 31.7787 125.7409 0.0000 0.0000 0.0000
# 4 0.0000 0.0000 0.0000 46.4167 0.0000 0.0000
# 5 0.0000 0.0000 0.0000 0.0000 18.7066 0.0000
# 6 0.0000 0.0000 0.0000 0.0000 0.0000 27.4855
#
#
#
# Elastic Compliance Matrix: (Units=1/GPa)
#
#
# Indices 1 2 3 4 5 6 
#
# 1 0.021040 0.001215 -0.002634 0.000000 0.000000 0.000000
# 2 0.001215 0.013534 -0.003555 0.000000 0.000000 0.000000
# 3 -0.002634 -0.003555 0.009143 0.000000 0.000000 0.000000
# 4 0.000000 0.000000 0.000000 0.021544 0.000000 0.000000
# 5 0.000000 0.000000 0.000000 0.000000 0.053457 0.000000
# 6 0.000000 0.000000 0.000000 0.000000 0.000000 0.036383
#
#
# Mechanical properties :
#
#
# Convention : Reuss Voigt Hill
#
# Bulk Modulus (GPa) = 29.61284 38.57570 34.09427
# Shear Modulus (GPa) = 28.36014 32.68521 30.52267
#
# Velocity S-wave (km/s) = 3.41078 3.66163 3.53843
# Velocity P-wave (km/s) = 5.25913 5.80522 5.53891
#
# Compressibility (1/GPa) = 0.03376914
#
# Stress axis : x y z
#
# Youngs Moduli (GPa) = 47.52859 73.88932 109.37764
#
# Poissons Ratio (x) = -0.08981 0.28813
# Poissons Ratio (y) = -0.05777 0.38882
# Poissons Ratio (z) = 0.12520 0.26266
#
# Static dielectric constant tensor:
#      x y z
#    x 0.869710 0.000000 0.000000 
#    y 0.000000 1.982030 0.000000 
#    z 0.000000 0.000000 1.915960 
# 
# From -- ./inp_files/3906.got.cif
#   From: 2010.05.17/outbox.cif.g08.bks.cpg/sg61_2_cif.got.tgz:3906.got - 2010.06.03 15:17:17.
