data_PCOD9460298
_publ_section_title
;
Structure prediction by ZEFSAII (Michael W. Deem and Ramdas Pophale) SiO2 
 PCOD9460298
Probable space group: P B C A
;
_chemical_formula_sum "Si O2"
_cell_formula_units_Z 48
_cell_length_a 7.095453
_cell_length_b 9.626280
_cell_length_c 27.327005
_cell_angle_alpha 90.000000
_cell_angle_beta 90.000000
_cell_angle_gamma 90.000000
_cell_volume 1866.511430
_symmetry_space_group_name_H-M "P B C A"
_symmetry_group_IT_number 61
_symmetry_cell_setting 'orthorhombic'
loop_
_space_group_symop_operation_xyz
x,y,z
1/2-x,-y,1/2+z
1/2+x,1/2-y,-z
-x,1/2+y,1/2-z
-x,-y,-z
1/2+x,y,1/2-z
1/2-x,1/2+y,z
x,1/2-y,1/2+z
loop_
_atom_site_type_symbol
_atom_site_label
_atom_site_fract_x
_atom_site_fract_y
_atom_site_fract_z
Si Si1 0.185035 0.738368 0.158516
Si Si2 0.610622 0.677342 0.941295
Si Si3 0.117113 0.013914 0.319343
Si Si4 0.796623 0.342714 0.092780
Si Si5 0.827014 0.900567 0.532314
Si Si6 0.956034 0.978156 0.793026
O O1 0.242306 0.767573 0.102333
O O2 0.500553 0.638210 0.343861
O O3 0.329627 0.651789 0.191128
O O4 0.132765 0.883248 0.183609
O O5 0.428289 0.617002 0.912707
O O6 0.510295 0.802635 0.970414
O O7 0.713732 0.586984 0.981859
O O8 0.122753 0.879524 0.354241
O O9 0.334488 0.049500 0.311484
O O10 0.035752 0.996251 0.265110
O O11 0.800833 0.188889 0.070904
O O12 0.883431 0.456140 0.056534
#
# Coordination Sequence:
#
# PCOD9460298 Si02
#       6
#     8   8   8   8   8   8
#     4  12  28  51  72 117 148 198 254 304 379 446
#     4  10  23  44  68 102 143 184 248 298 371 437
#     4  12  25  50  74 108 153 195 245 306 374 436
#     4  10  22  44  70  96 143 190 233 304 364 435
#     4  10  22  40  68  99 134 188 235 300 361 438
#     4  12  29  46  82 109 149 198 252 309 368 456
#
# _framework density 25.716424
#
# number of rings (size 3 to 8) (size 9 to 14) (size 15 to 20)
#    1.000    0.000    5.000    0.500    2.333    4.667 
#    3.000    0.000    0.000    0.000    0.000    0.000 
#    0.000    0.000    0.000    0.000    0.000    0.000 
#
# Total GULP energy -268808.606834 kJ/mol
# GULP energy per Si atom -5600.179309 kJ/mol
# Density = 2.565789 g / cm^3
# Si number density = 25.716424 Si / 1000 Ang^3
#
#
#
# Elastic Constant Matrix: (Units=GPa)
#
#
# Indices 1 2 3 4 5 6 
#
# 1 85.3389 19.2451 18.3570 0.0000 0.0000 0.0000
# 2 19.2451 105.0007 32.4055 0.0000 0.0000 0.0000
# 3 18.3570 32.4055 164.2125 0.0000 0.0000 0.0000
# 4 0.0000 0.0000 0.0000 34.1790 0.0000 0.0000
# 5 0.0000 0.0000 0.0000 0.0000 25.3218 0.0000
# 6 0.0000 0.0000 0.0000 0.0000 0.0000 39.6174
#
#
#
# Elastic Compliance Matrix: (Units=1/GPa)
#
#
# Indices 1 2 3 4 5 6 
#
# 1 0.012374 -0.001961 -0.000996 0.000000 0.000000 0.000000
# 2 -0.001961 0.010452 -0.001843 0.000000 0.000000 0.000000
# 3 -0.000996 -0.001843 0.006565 0.000000 0.000000 0.000000
# 4 0.000000 0.000000 0.000000 0.029258 0.000000 0.000000
# 5 0.000000 0.000000 0.000000 0.000000 0.039492 0.000000
# 6 0.000000 0.000000 0.000000 0.000000 0.000000 0.025241
#
#
# Mechanical properties :
#
#
# Convention : Reuss Voigt Hill
#
# Bulk Modulus (GPa) = 50.52924 54.95193 52.74058
# Shear Modulus (GPa) = 35.82179 38.79324 37.30751
#
# Velocity S-wave (km/s) = 3.73628 3.88816 3.81297
# Velocity P-wave (km/s) = 6.18905 6.44762 6.31966
#
# Compressibility (1/GPa) = 0.01979052
#
# Stress axis : x y z
#
# Youngs Moduli (GPa) = 80.81161 95.67539 152.32663
#
# Poissons Ratio (x) = 0.18758 0.15178
# Poissons Ratio (y) = 0.15843 0.28080
# Poissons Ratio (z) = 0.08052 0.17637
#
# Static dielectric constant tensor:
#      x y z
#    x 2.081760 0.000000 0.000000 
#    y 0.000000 1.954130 0.000000 
#    z 0.000000 0.000000 2.029070 
# 
# From -- ./inp_files/11693.got.cif
#   From: 2010.05.17/outbox.cif.g08.bks.cpg/sg61_6_cif.got.tgz:11693.got - 2010.06.03 15:17:17.
