data_PCOD9460082
_publ_section_title
;
Structure prediction by ZEFSAII (Michael W. Deem and Ramdas Pophale) SiO2 
 PCOD9460082
Probable space group: P B C A
;
_chemical_formula_sum "Si O2"
_cell_formula_units_Z 48
_cell_length_a 14.928180
_cell_length_b 11.244080
_cell_length_c 14.110607
_cell_angle_alpha 90.000000
_cell_angle_beta 90.000000
_cell_angle_gamma 90.000000
_cell_volume 2368.516891
_symmetry_space_group_name_H-M "P B C A"
_symmetry_group_IT_number 61
_symmetry_cell_setting 'orthorhombic'
loop_
_space_group_symop_operation_xyz
x,y,z
1/2-x,-y,1/2+z
1/2+x,1/2-y,-z
-x,1/2+y,1/2-z
-x,-y,-z
1/2+x,y,1/2-z
1/2-x,1/2+y,z
x,1/2-y,1/2+z
loop_
_atom_site_type_symbol
_atom_site_label
_atom_site_fract_x
_atom_site_fract_y
_atom_site_fract_z
Si Si1 0.836682 0.679832 0.706811
Si Si2 0.875472 0.206177 0.710305
Si Si3 0.904721 0.448296 0.610018
Si Si4 0.433606 0.389122 0.086207
Si Si5 0.544722 0.342330 0.585746
Si Si6 0.544110 0.419609 0.378973
O O1 0.730894 0.693413 0.705457
O O2 0.854943 0.566440 0.640864
O O3 0.883230 0.797663 0.662700
O O4 0.888114 0.640508 0.803689
O O5 0.894691 0.342571 0.683774
O O6 0.897045 0.156719 0.814636
O O7 0.944961 0.135631 0.641879
O O8 0.872845 0.410267 0.505196
O O9 0.008116 0.491973 0.603102
O O10 0.496947 0.280030 0.056220
O O11 0.577316 0.396066 0.485949
O O12 0.475652 0.439247 0.627896
#
# Coordination Sequence:
#
# PCOD9460082 Si02
#       6
#     8   8   8   8   8   8
#     4  11  26  43  67 101 132 177 224 278 331 402
#     4  12  24  41  67  99 131 173 220 277 333 391
#     4  10  22  44  64  93 132 171 225 266 331 402
#     4  10  21  41  71  92 127 179 214 274 328 392
#     4  10  22  44  67  94 131 173 221 272 330 392
#     4  11  23  43  69  94 135 177 219 273 335 392
#
# _framework density 20.265847000000001
#
# number of rings (size 3 to 8) (size 9 to 14) (size 15 to 20)
#    0.000    1.333    5.000    1.000    2.333    1.333 
#    3.000    0.000    0.000    0.000    0.000    0.000 
#    0.000    0.000    0.000    0.000    0.000    0.000 
#
# Total GULP energy -267491.691814 kJ/mol
# GULP energy per Si atom -5572.743579 kJ/mol
# Density = 2.021972 g / cm^3
# Si number density = 20.265847 Si / 1000 Ang^3
#
#
#
# Elastic Constant Matrix: (Units=GPa)
#
#
# Indices 1 2 3 4 5 6 
#
# 1 54.8284 22.5866 39.1481 0.0000 0.0000 0.0000
# 2 22.5866 94.8360 41.5915 0.0000 0.0000 0.0000
# 3 39.1481 41.5915 141.0706 0.0000 0.0000 0.0000
# 4 0.0000 0.0000 0.0000 45.4168 0.0000 0.0000
# 5 0.0000 0.0000 0.0000 0.0000 -1.3877 0.0000
# 6 0.0000 0.0000 0.0000 0.0000 0.0000 5.7044
#
#
#
# Elastic Compliance Matrix: (Units=1/GPa)
#
#
# Indices 1 2 3 4 5 6 
#
# 1 0.023537 -0.003148 -0.005603 0.000000 0.000000 0.000000
# 2 -0.003148 0.012531 -0.002821 0.000000 0.000000 0.000000
# 3 -0.005603 -0.002821 0.009475 0.000000 0.000000 0.000000
# 4 0.000000 0.000000 0.000000 0.022018 0.000000 0.000000
# 5 0.000000 0.000000 0.000000 0.000000 -0.720641 0.000000
# 6 0.000000 0.000000 0.000000 0.000000 0.000000 0.175302
#
#
# Mechanical properties :
#
#
# Convention : Reuss Voigt Hill
#
# Bulk Modulus (GPa) = 44.64630 55.26526 49.95578
# Shear Modulus (GPa) = -11.18153 22.44063 5.62955
#
# Velocity S-wave (km/s) = -2.35147 3.33124 1.66850
# Velocity P-wave (km/s) = 3.83479 6.49042 5.33063
#
# Compressibility (1/GPa) = 0.02239827
#
# Stress axis : x y z
#
# Youngs Moduli (GPa) = 42.48719 79.79904 105.53721
#
# Poissons Ratio (x) = 0.25122 0.59137
# Poissons Ratio (y) = 0.13376 0.29772
# Poissons Ratio (z) = 0.23807 0.22511
#
# Static dielectric constant tensor:
#      x y z
#    x 1.827050 0.000000 0.000000 
#    y 0.000000 1.722020 0.000000 
#    z 0.000000 0.000000 1.786230 
# 
# From -- ./inp_files/7806.got.cif
#   From: 2010.05.17/outbox.cif.g08.bks.cpg/sg61_4_cif.got.tgz:7806.got - 2010.06.03 15:17:17.
