data_PCOD9460093
_publ_section_title
;
Structure prediction by ZEFSAII (Michael W. Deem and Ramdas Pophale) SiO2 
 PCOD9460093
Probable space group: P B C A
;
_chemical_formula_sum "Si O2"
_cell_formula_units_Z 64
_cell_length_a 11.592666
_cell_length_b 13.019166
_cell_length_c 17.372582
_cell_angle_alpha 90.000000
_cell_angle_beta 90.000000
_cell_angle_gamma 90.000000
_cell_volume 2621.988957
_symmetry_space_group_name_H-M "P B C A"
_symmetry_group_IT_number 61
_symmetry_cell_setting 'orthorhombic'
loop_
_space_group_symop_operation_xyz
x,y,z
1/2-x,-y,1/2+z
1/2+x,1/2-y,-z
-x,1/2+y,1/2-z
-x,-y,-z
1/2+x,y,1/2-z
1/2-x,1/2+y,z
x,1/2-y,1/2+z
loop_
_atom_site_type_symbol
_atom_site_label
_atom_site_fract_x
_atom_site_fract_y
_atom_site_fract_z
Si Si1 0.082402 0.823556 0.756656
Si Si2 0.801326 0.996875 0.185466
Si Si3 0.670963 0.847081 0.070727
Si Si4 0.735264 0.085244 0.849393
Si Si5 0.473532 0.133268 0.659756
Si Si6 0.429872 0.077792 0.087595
Si Si7 0.116586 0.219456 0.451544
Si Si8 0.064619 0.247774 0.624966
O O1 0.076404 0.705057 0.728455
O O2 0.075790 0.880828 0.674856
O O3 0.974500 0.833678 0.814989
O O4 0.183703 0.880740 0.803710
O O5 0.735482 0.939829 0.115891
O O6 0.746744 0.963668 0.266231
O O7 0.931213 0.948385 0.185880
O O8 0.551970 0.819993 0.113470
O O9 0.753175 0.747366 0.068753
O O10 0.640595 0.870447 0.981996
O O11 0.862092 0.089846 0.884472
O O12 0.676249 0.195145 0.838344
O O13 0.638428 0.028622 0.900371
O O14 0.539993 0.210910 0.604373
O O15 0.561235 0.105444 0.060397
O O16 0.098166 0.265203 0.536863
#
# Coordination Sequence:
#
# PCOD9460093 Si02
#       8
#     8   8   8   8   8   8   8   8
#     4  10  21  42  64  99 126 174 231 273 339 410
#     4  10  22  42  64  97 131 174 229 286 344 409
#     4  10  22  44  65  95 139 179 223 294 342 409
#     4  11  23  40  67  95 136 180 221 289 343 413
#     4  10  21  43  64  92 139 172 221 289 342 404
#     4   9  22  43  64  97 131 179 229 271 354 408
#     4   9  22  40  64  92 131 173 226 280 335 415
#     4  11  23  39  64  95 130 177 229 273 350 399
#
# _framework density 24.408951999999999
#
# number of rings (size 3 to 8) (size 9 to 14) (size 15 to 20)
#    0.000    2.000    1.250    0.750    5.250    4.000 
#    4.500    2.500    0.000    0.000    0.000    0.000 
#    0.000    0.000    0.000    0.000    0.000    0.000 
#
# Total GULP energy -356745.243340 kJ/mol
# GULP energy per Si atom -5574.144427 kJ/mol
# Density = 2.435340 g / cm^3
# Si number density = 24.408952 Si / 1000 Ang^3
#
#
#
# Elastic Constant Matrix: (Units=GPa)
#
#
# Indices 1 2 3 4 5 6 
#
# 1 -16.9703 -93.7950 -233.3625 0.0000 0.0000 0.0000
# 2 -93.7950 -66.8724 -194.1110 0.0000 0.0000 0.0000
# 3 -233.3625 -194.1110 -310.4455 0.0000 0.0000 0.0000
# 4 0.0000 0.0000 0.0000 9.6658 0.0000 0.0000
# 5 0.0000 0.0000 0.0000 0.0000 -38.2728 0.0000
# 6 0.0000 0.0000 0.0000 0.0000 0.0000 16.5624
#
#
#
# Elastic Compliance Matrix: (Units=1/GPa)
#
#
# Indices 1 2 3 4 5 6 
#
# 1 0.009208 -0.008805 -0.001416 0.000000 0.000000 0.000000
# 2 -0.008805 0.026770 -0.010119 0.000000 0.000000 0.000000
# 3 -0.001416 -0.010119 0.004170 0.000000 0.000000 0.000000
# 4 0.000000 0.000000 0.000000 0.103458 0.000000 0.000000
# 5 0.000000 0.000000 0.000000 0.000000 -0.026128 0.000000
# 6 0.000000 0.000000 0.000000 0.000000 0.000000 0.060378
#
#
# Mechanical properties :
#
#
# Convention : Reuss Voigt Hill
#
# Bulk Modulus (GPa) = -1876.37294 -159.64725 -1018.01009
# Shear Modulus (GPa) = 22.89816 6.05643 14.47730
#
# Velocity S-wave (km/s) = 3.06617 1.57690 2.43804
# Velocity P-wave (km/s) = 27.52920 7.88871 20.24955
#
# Compressibility (1/GPa) = -0.00053294
#
# Stress axis : x y z
#
# Youngs Moduli (GPa) = 108.60627 37.35527 239.79847
#
# Poissons Ratio (x) = 0.32893 0.33946
# Poissons Ratio (y) = 0.95633 2.42659
# Poissons Ratio (z) = 0.15374 0.37801
#
# Static dielectric constant tensor:
#      x y z
#    x 1.958540 0.000000 0.000000 
#    y 0.000000 2.134990 0.000000 
#    z 0.000000 0.000000 1.925580 
# 
# From -- ./inp_files/9306.got.cif
#   From: 2010.05.17/outbox.cif.g08.bks.cpg/sg61_5_cif.got.tgz:9306.got - 2010.06.03 15:17:17.
