data_PCOD9460578
_publ_section_title
;
Structure prediction by ZEFSAII (Michael W. Deem and Ramdas Pophale) SiO2 
 PCOD9460578
Probable space group: P B C A
;
_chemical_formula_sum "Si O2"
_cell_formula_units_Z 48
_cell_length_a 8.961747
_cell_length_b 22.276920
_cell_length_c 9.614341
_cell_angle_alpha 90.000000
_cell_angle_beta 90.000000
_cell_angle_gamma 90.000000
_cell_volume 1919.408200
_symmetry_space_group_name_H-M "P B C A"
_symmetry_group_IT_number 61
_symmetry_cell_setting 'orthorhombic'
loop_
_space_group_symop_operation_xyz
x,y,z
1/2-x,-y,1/2+z
1/2+x,1/2-y,-z
-x,1/2+y,1/2-z
-x,-y,-z
1/2+x,y,1/2-z
1/2-x,1/2+y,z
x,1/2-y,1/2+z
loop_
_atom_site_type_symbol
_atom_site_label
_atom_site_fract_x
_atom_site_fract_y
_atom_site_fract_z
Si Si1 0.845831 0.602890 0.139618
Si Si2 0.761102 0.703640 0.328664
Si Si3 0.517082 0.786367 0.249289
Si Si4 0.984268 0.443702 0.102245
Si Si5 0.274857 0.639348 0.894532
Si Si6 0.551499 0.524462 0.150733
O O1 0.783934 0.667592 0.185164
O O2 0.707011 0.557887 0.129269
O O3 0.951935 0.572914 0.259433
O O4 0.927329 0.605426 0.989568
O O5 0.601788 0.735871 0.340511
O O6 0.893178 0.751800 0.339573
O O7 0.780897 0.653129 0.443590
O O8 0.655295 0.813787 0.167679
O O9 0.431518 0.839741 0.329576
O O10 0.050549 0.467540 0.245434
O O11 0.814771 0.422505 0.122615
O O12 0.000000 0.500000 0.000000
O O13 0.500000 0.500000 0.000000
#
# Coordination Sequence:
#
# PCOD9460578 Si02
#       6
#     8   8   8   8   8   8
#     4  11  23  42  70  99 135 184 234 291 354 429
#     4  11  21  42  66  95 129 175 231 285 351 427
#     4  10  24  40  63  95 130 173 226 292 353 421
#     4  10  23  43  65  96 136 178 228 285 346 424
#     4  11  23  41  64  93 132 177 226 286 355 422
#     4  11  24  42  66 100 140 185 233 291 358 429
#
# _framework density 25.007707
#
# number of rings (size 3 to 8) (size 9 to 14) (size 15 to 20)
#    0.000    1.333    0.000    6.000    0.000    8.000 
#    0.000    5.000    0.000    0.000    0.000    0.000 
#    0.000    0.000    0.000    0.000    0.000    0.000 
#
# Total GULP energy -268532.212253 kJ/mol
# GULP energy per Si atom -5594.421089 kJ/mol
# Density = 2.495079 g / cm^3
# Si number density = 25.007707 Si / 1000 Ang^3
#
#
#
# Elastic Constant Matrix: (Units=GPa)
#
#
# Indices 1 2 3 4 5 6 
#
# 1 131.0184 20.0262 36.9661 0.0000 0.0000 0.0000
# 2 20.0262 93.0155 11.3127 0.0000 0.0000 0.0000
# 3 36.9661 11.3127 128.4560 0.0000 0.0000 0.0000
# 4 0.0000 0.0000 0.0000 16.1829 0.0000 0.0000
# 5 0.0000 0.0000 0.0000 0.0000 38.4505 0.0000
# 6 0.0000 0.0000 0.0000 0.0000 0.0000 52.7947
#
#
#
# Elastic Compliance Matrix: (Units=1/GPa)
#
#
# Indices 1 2 3 4 5 6 
#
# 1 0.008523 -0.001553 -0.002316 0.000000 0.000000 0.000000
# 2 -0.001553 0.011150 -0.000535 0.000000 0.000000 0.000000
# 3 -0.002316 -0.000535 0.008498 0.000000 0.000000 0.000000
# 4 0.000000 0.000000 0.000000 0.061794 0.000000 0.000000
# 5 0.000000 0.000000 0.000000 0.000000 0.026007 0.000000
# 6 0.000000 0.000000 0.000000 0.000000 0.000000 0.018941
#
#
# Mechanical properties :
#
#
# Convention : Reuss Voigt Hill
#
# Bulk Modulus (GPa) = 51.64369 54.34444 52.99407
# Shear Modulus (GPa) = 33.29389 40.43128 36.86259
#
# Velocity S-wave (km/s) = 3.65272 4.02525 3.84350
# Velocity P-wave (km/s) = 6.20369 6.58648 6.39795
#
# Compressibility (1/GPa) = 0.01936345
#
# Stress axis : x y z
#
# Youngs Moduli (GPa) = 117.32409 89.68279 117.66977
#
# Poissons Ratio (x) = 0.13931 0.27252
# Poissons Ratio (y) = 0.18225 0.06295
# Poissons Ratio (z) = 0.27172 0.04798
#
# Static dielectric constant tensor:
#      x y z
#    x 2.049530 0.000000 0.000000 
#    y 0.000000 2.137070 0.000000 
#    z 0.000000 0.000000 1.965250 
# 
# From -- ./inp_files/1883.got.cif
#   From: 2010.05.17/outbox.cif.g08.bks.cpg/sg61_1_cif.got.tgz:1883.got - 2010.06.03 15:17:17.
