data_PCOD9460714
_publ_section_title
;
Structure prediction by ZEFSAII (Michael W. Deem and Ramdas Pophale) SiO2 
 PCOD9460714
Probable space group: P B C A
;
_chemical_formula_sum "Si O2"
_cell_formula_units_Z 40
_cell_length_a 17.509337
_cell_length_b 18.571138
_cell_length_c 5.145622
_cell_angle_alpha 90.000000
_cell_angle_beta 90.000000
_cell_angle_gamma 90.000000
_cell_volume 1673.193229
_symmetry_space_group_name_H-M "P B C A"
_symmetry_group_IT_number 61
_symmetry_cell_setting 'orthorhombic'
loop_
_space_group_symop_operation_xyz
x,y,z
1/2-x,-y,1/2+z
1/2+x,1/2-y,-z
-x,1/2+y,1/2-z
-x,-y,-z
1/2+x,y,1/2-z
1/2-x,1/2+y,z
x,1/2-y,1/2+z
loop_
_atom_site_type_symbol
_atom_site_label
_atom_site_fract_x
_atom_site_fract_y
_atom_site_fract_z
Si Si1 0.880209 0.459889 0.088997
Si Si2 0.964714 0.888616 0.565150
Si Si3 0.190484 0.899344 0.913157
Si Si4 0.546601 0.799127 0.567935
Si Si5 0.675510 0.297630 0.426566
O O1 0.917450 0.537766 0.058079
O O2 0.839241 0.452159 0.362980
O O3 0.821121 0.437753 0.862985
O O4 0.953159 0.405593 0.065665
O O5 0.909960 0.828024 0.448631
O O6 0.986956 0.862277 0.856531
O O7 0.038872 0.743520 0.695694
O O8 0.130298 0.833585 0.917308
O O9 0.269874 0.863596 0.992034
O O10 0.688565 0.264767 0.141844
#
# Coordination Sequence:
#
# PCOD9460714 Si02
#       5
#     8   8   8   8   8
#     4  10  24  43  67  93 125 171 214 260 312 382
#     4  10  24  42  65  96 130 163 214 266 318 373
#     4  11  23  42  65  91 126 169 215 258 314 382
#     4  11  21  36  60  87 120 163 204 250 308 372
#     4  12  26  43  65  96 131 165 207 266 320 374
#
# _framework density 23.906382000000001
#
# number of rings (size 3 to 8) (size 9 to 14) (size 15 to 20)
#    0.000    1.200    0.000    6.000    0.000   15.200 
#    0.000    0.000    0.000    0.000    0.000    0.000 
#    0.000    0.000    0.000    0.000    0.000    0.000 
#
# Total GULP energy -224090.575784 kJ/mol
# GULP energy per Si atom -5602.264395 kJ/mol
# Density = 2.385197 g / cm^3
# Si number density = 23.906382 Si / 1000 Ang^3
#
#
#
# Elastic Constant Matrix: (Units=GPa)
#
#
# Indices 1 2 3 4 5 6 
#
# 1 87.1128 10.7989 -5.2859 0.0000 0.0000 0.0000
# 2 10.7989 55.2793 15.7072 0.0000 0.0000 0.0000
# 3 -5.2859 15.7072 78.8953 0.0000 0.0000 0.0000
# 4 0.0000 0.0000 0.0000 24.6828 0.0000 0.0000
# 5 0.0000 0.0000 0.0000 0.0000 10.8916 0.0000
# 6 0.0000 0.0000 0.0000 0.0000 0.0000 50.4489
#
#
#
# Elastic Compliance Matrix: (Units=1/GPa)
#
#
# Indices 1 2 3 4 5 6 
#
# 1 0.011895 -0.002703 0.001335 0.000000 0.000000 0.000000
# 2 -0.002703 0.019789 -0.004121 0.000000 0.000000 0.000000
# 3 0.001335 -0.004121 0.013585 0.000000 0.000000 0.000000
# 4 0.000000 0.000000 0.000000 0.040514 0.000000 0.000000
# 5 0.000000 0.000000 0.000000 0.000000 0.091814 0.000000
# 6 0.000000 0.000000 0.000000 0.000000 0.000000 0.019822
#
#
# Mechanical properties :
#
#
# Convention : Reuss Voigt Hill
#
# Bulk Modulus (GPa) = 29.16170 29.30307 29.23239
# Shear Modulus (GPa) = 22.74511 30.54247 26.64379
#
# Velocity S-wave (km/s) = 3.08786 3.57821 3.34204
# Velocity P-wave (km/s) = 4.99379 5.41807 5.21025
#
# Compressibility (1/GPa) = 0.03429156
#
# Stress axis : x y z
#
# Youngs Moduli (GPa) = 84.06554 50.53324 73.61110
#
# Poissons Ratio (x) = 0.13660 -0.09828
# Poissons Ratio (y) = 0.22724 0.30334
# Poissons Ratio (z) = -0.11224 0.20824
#
# Static dielectric constant tensor:
#      x y z
#    x 1.911270 0.000000 0.000000 
#    y 0.000000 1.925730 0.000000 
#    z 0.000000 0.000000 1.878410 
# 
# From -- ./inp_files/720.got.cif
#   From: 2010.05.17/outbox.cif.g08.bks.cpg/sg61_1_cif.got.tgz:720.got - 2010.06.03 15:17:17.
