data_PCOD9460633
_publ_section_title
;
Structure prediction by ZEFSAII (Michael W. Deem and Ramdas Pophale) SiO2 
 PCOD9460633
Probable space group: P B C A
;
_chemical_formula_sum "Si O2"
_cell_formula_units_Z 40
_cell_length_a 9.826814
_cell_length_b 24.234367
_cell_length_c 6.626630
_cell_angle_alpha 90.000000
_cell_angle_beta 90.000000
_cell_angle_gamma 90.000000
_cell_volume 1578.109516
_symmetry_space_group_name_H-M "P B C A"
_symmetry_group_IT_number 61
_symmetry_cell_setting 'orthorhombic'
loop_
_space_group_symop_operation_xyz
x,y,z
1/2-x,-y,1/2+z
1/2+x,1/2-y,-z
-x,1/2+y,1/2-z
-x,-y,-z
1/2+x,y,1/2-z
1/2-x,1/2+y,z
x,1/2-y,1/2+z
loop_
_atom_site_type_symbol
_atom_site_label
_atom_site_fract_x
_atom_site_fract_y
_atom_site_fract_z
Si Si1 0.806596 0.721444 0.616760
Si Si2 0.205719 0.532803 0.359553
Si Si3 0.604010 0.741892 0.357125
Si Si4 0.451453 0.459193 0.258404
Si Si5 0.647364 0.874499 0.956788
O O1 0.782829 0.751650 0.364569
O O2 0.639207 0.741899 0.613964
O O3 0.765121 0.656683 0.583233
O O4 0.967072 0.723635 0.622309
O O5 0.354412 0.505281 0.365462
O O6 0.141027 0.555647 0.564567
O O7 0.094179 0.485587 0.303804
O O8 0.207824 0.580886 0.195316
O O9 0.577357 0.675772 0.339027
O O10 0.456299 0.406466 0.400458
#
# Coordination Sequence:
#
# PCOD9460633 Si02
#       5
#     8   8   8   8   8
#     4  10  23  45  67  98 141 184 244 301 355 439
#     4  11  24  46  71 104 144 180 237 293 354 437
#     4  10  23  45  67  98 143 180 246 296 358 431
#     4  11  24  46  71 104 145 179 235 297 351 436
#     4  10  25  44  73 102 142 191 234 293 380 409
#
# _framework density 25.346782999999999
#
# number of rings (size 3 to 8) (size 9 to 14) (size 15 to 20)
#    1.200    0.400    2.000    1.800    0.000    4.800 
#    0.000    0.000    0.000    0.000    0.000    0.000 
#    0.000    0.000    0.000    0.000    0.000    0.000 
#
# Total GULP energy -223067.823435 kJ/mol
# GULP energy per Si atom -5576.695586 kJ/mol
# Density = 2.528909 g / cm^3
# Si number density = 25.346783 Si / 1000 Ang^3
#
#
#
# Elastic Constant Matrix: (Units=GPa)
#
#
# Indices 1 2 3 4 5 6 
#
# 1 70.8159 -29.1048 7.7845 0.0000 0.0000 0.0000
# 2 -29.1048 104.9762 16.1906 0.0000 0.0000 0.0000
# 3 7.7845 16.1906 139.4786 0.0000 0.0000 0.0000
# 4 0.0000 0.0000 0.0000 25.0880 0.0000 0.0000
# 5 0.0000 0.0000 0.0000 0.0000 50.1676 0.0000
# 6 0.0000 0.0000 0.0000 0.0000 0.0000 25.0621
#
#
#
# Elastic Compliance Matrix: (Units=1/GPa)
#
#
# Indices 1 2 3 4 5 6 
#
# 1 0.016221 0.004722 -0.001453 0.000000 0.000000 0.000000
# 2 0.004722 0.011074 -0.001549 0.000000 0.000000 0.000000
# 3 -0.001453 -0.001549 0.007430 0.000000 0.000000 0.000000
# 4 0.000000 0.000000 0.000000 0.039860 0.000000 0.000000
# 5 0.000000 0.000000 0.000000 0.000000 0.019933 0.000000
# 6 0.000000 0.000000 0.000000 0.000000 0.000000 0.039901
#
#
# Mechanical properties :
#
#
# Convention : Reuss Voigt Hill
#
# Bulk Modulus (GPa) = 26.20260 33.89017 30.04638
# Shear Modulus (GPa) = 34.79408 41.42357 38.10882
#
# Velocity S-wave (km/s) = 3.70905 4.04700 3.88170
# Velocity P-wave (km/s) = 5.35750 5.93610 5.65420
#
# Compressibility (1/GPa) = 0.03816415
#
# Stress axis : x y z
#
# Youngs Moduli (GPa) = 61.64695 90.30224 134.58083
#
# Poissons Ratio (x) = -0.42637 0.19560
# Poissons Ratio (y) = -0.29107 0.20846
# Poissons Ratio (z) = 0.08960 0.13988
#
# Static dielectric constant tensor:
#      x y z
#    x 1.921890 0.000000 0.000000 
#    y 0.000000 1.893230 0.000000 
#    z 0.000000 0.000000 2.458440 
# 
# From -- ./inp_files/1809.got.cif
#   From: 2010.05.17/outbox.cif.g08.bks.cpg/sg61_1_cif.got.tgz:1809.got - 2010.06.03 15:17:17.
