data_PCOD9460401
_publ_section_title
;
Structure prediction by ZEFSAII (Michael W. Deem and Ramdas Pophale) SiO2 
 PCOD9460401
Probable space group: P B C A
;
_chemical_formula_sum "Si O2"
_cell_formula_units_Z 64
_cell_length_a 12.950597
_cell_length_b 10.865290
_cell_length_c 19.851862
_cell_angle_alpha 90.000000
_cell_angle_beta 90.000000
_cell_angle_gamma 90.000000
_cell_volume 2793.395048
_symmetry_space_group_name_H-M "P B C A"
_symmetry_group_IT_number 61
_symmetry_cell_setting 'orthorhombic'
loop_
_space_group_symop_operation_xyz
x,y,z
1/2-x,-y,1/2+z
1/2+x,1/2-y,-z
-x,1/2+y,1/2-z
-x,-y,-z
1/2+x,y,1/2-z
1/2-x,1/2+y,z
x,1/2-y,1/2+z
loop_
_atom_site_type_symbol
_atom_site_label
_atom_site_fract_x
_atom_site_fract_y
_atom_site_fract_z
Si Si1 0.925915 0.701833 0.145221
Si Si2 0.294215 0.700955 0.735038
Si Si3 0.590765 0.619681 0.831419
Si Si4 0.319735 0.176852 0.003448
Si Si5 0.466160 0.971282 0.203403
Si Si6 0.467567 0.667068 0.566583
Si Si7 0.667390 0.374474 0.885434
Si Si8 0.202727 0.081062 0.472693
O O1 0.835872 0.761200 0.191725
O O2 0.999009 0.607664 0.185988
O O3 0.870568 0.625358 0.087454
O O4 0.009374 0.803865 0.124257
O O5 0.175988 0.689917 0.713728
O O6 0.348062 0.570726 0.715260
O O7 0.336699 0.807567 0.686304
O O8 0.521207 0.559849 0.773134
O O9 0.646967 0.517591 0.876529
O O10 0.438353 0.158788 0.984791
O O11 0.287003 0.312212 0.979495
O O12 0.263707 0.060468 0.966098
O O13 0.275085 0.160512 0.078539
O O14 0.499356 0.886611 0.139366
O O15 0.422297 0.804547 0.573007
O O16 0.370444 0.589428 0.538853
#
# Coordination Sequence:
#
# PCOD9460401 Si02
#       8
#     8   8   8   8   8   8   8   8
#     4  11  24  42  67 100 132 175 229 271 343 410
#     4  10  24  41  65  98 132 174 218 283 343 404
#     4  11  25  41  69  98 134 178 221 290 342 401
#     4  11  25  43  68  97 135 182 220 285 342 408
#     4  10  22  43  64  94 132 171 223 275 338 408
#     4  10  23  44  68  93 136 178 222 281 338 412
#     4  10  24  43  66 104 133 170 238 275 345 411
#     4  11  26  43  67 102 131 179 234 271 347 414
#
# _framework density 22.911187999999999
#
# number of rings (size 3 to 8) (size 9 to 14) (size 15 to 20)
#    0.000    1.500    2.500    0.375   10.500    1.000 
#    0.000    3.750    0.000    0.000    0.000    0.000 
#    0.000    0.000    0.000    0.000    0.000    0.000 
#
# Total GULP energy -357420.167061 kJ/mol
# GULP energy per Si atom -5584.690110 kJ/mol
# Density = 2.285904 g / cm^3
# Si number density = 22.911188 Si / 1000 Ang^3
#
#
#
# Elastic Constant Matrix: (Units=GPa)
#
#
# Indices 1 2 3 4 5 6 
#
# 1 57.9777 9.4690 1.4514 0.0000 0.0000 0.0000
# 2 9.4690 72.2271 -4.7264 0.0000 0.0000 0.0000
# 3 1.4514 -4.7264 51.1947 0.0000 0.0000 0.0000
# 4 0.0000 0.0000 0.0000 28.5273 0.0000 0.0000
# 5 0.0000 0.0000 0.0000 0.0000 24.8677 0.0000
# 6 0.0000 0.0000 0.0000 0.0000 0.0000 25.0410
#
#
#
# Elastic Compliance Matrix: (Units=1/GPa)
#
#
# Indices 1 2 3 4 5 6 
#
# 1 0.017652 -0.002361 -0.000718 0.000000 0.000000 0.000000
# 2 -0.002361 0.014245 0.001382 0.000000 0.000000 0.000000
# 3 -0.000718 0.001382 0.019681 0.000000 0.000000 0.000000
# 4 0.000000 0.000000 0.000000 0.035054 0.000000 0.000000
# 5 0.000000 0.000000 0.000000 0.000000 0.040213 0.000000
# 6 0.000000 0.000000 0.000000 0.000000 0.000000 0.039934
#
#
# Mechanical properties :
#
#
# Convention : Reuss Voigt Hill
#
# Bulk Modulus (GPa) = 20.75416 21.53194 21.14305
# Shear Modulus (GPa) = 26.84773 27.36757 27.10765
#
# Velocity S-wave (km/s) = 3.42690 3.45991 3.44344
# Velocity P-wave (km/s) = 4.97356 5.03783 5.00580
#
# Compressibility (1/GPa) = 0.04818311
#
# Stress axis : x y z
#
# Youngs Moduli (GPa) = 56.65199 70.19911 50.80978
#
# Poissons Ratio (x) = 0.16575 0.03650
# Poissons Ratio (y) = 0.13376 -0.07022
# Poissons Ratio (z) = 0.04070 -0.09702
#
# Static dielectric constant tensor:
#      x y z
#    x 1.832120 0.000000 0.000000 
#    y 0.000000 1.911430 0.000000 
#    z 0.000000 0.000000 1.847040 
# 
# From -- ./inp_files/11023.got.cif
#   From: 2010.05.17/outbox.cif.g08.bks.cpg/sg61_6_cif.got.tgz:11023.got - 2010.06.03 15:17:17.
