data_PCOD9460719
_publ_section_title
;
Structure prediction by ZEFSAII (Michael W. Deem and Ramdas Pophale) SiO2 
 PCOD9460719
Probable space group: P B C A
;
_chemical_formula_sum "Si O2"
_cell_formula_units_Z 64
_cell_length_a 32.247140
_cell_length_b 5.477035
_cell_length_c 15.363483
_cell_angle_alpha 90.000000
_cell_angle_beta 90.000000
_cell_angle_gamma 90.000000
_cell_volume 2713.478617
_symmetry_space_group_name_H-M "P B C A"
_symmetry_group_IT_number 61
_symmetry_cell_setting 'orthorhombic'
loop_
_space_group_symop_operation_xyz
x,y,z
1/2-x,-y,1/2+z
1/2+x,1/2-y,-z
-x,1/2+y,1/2-z
-x,-y,-z
1/2+x,y,1/2-z
1/2-x,1/2+y,z
x,1/2-y,1/2+z
loop_
_atom_site_type_symbol
_atom_site_label
_atom_site_fract_x
_atom_site_fract_y
_atom_site_fract_z
Si Si1 0.911250 0.508335 0.731509
Si Si2 0.642207 0.365833 0.644437
Si Si3 0.561897 0.012792 0.044106
Si Si4 0.732130 0.699231 0.891624
Si Si5 0.858134 0.380092 0.330848
Si Si6 0.977960 0.027719 0.106661
Si Si7 0.234171 0.325839 0.909534
Si Si8 0.070286 0.171573 0.117397
O O1 0.878861 0.600244 0.658789
O O2 0.886310 0.337214 0.795326
O O3 0.953690 0.401928 0.694851
O O4 0.925531 0.746801 0.783320
O O5 0.605527 0.512709 0.595621
O O6 0.651993 0.469522 0.741516
O O7 0.684656 0.354170 0.591308
O O8 0.538938 0.257505 0.082500
O O9 0.536634 0.761445 0.049515
O O10 0.569034 0.096596 0.945568
O O11 0.748614 0.445143 0.853171
O O12 0.683221 0.703856 0.877861
O O13 0.746332 0.691361 0.993091
O O14 0.887367 0.526555 0.397757
O O15 0.027129 0.032075 0.109782
O O16 0.253588 0.568003 0.867222
#
# Coordination Sequence:
#
# PCOD9460719 Si02
#       8
#     8   8   8   8   8   8   8   8
#     4  10  25  44  69 103 143 194 234 298 354 441
#     4  10  24  45  68  97 143 182 236 284 364 423
#     4  11  25  45  71 103 144 191 241 300 349 429
#     4  10  25  46  69 100 138 174 231 297 354 426
#     4  11  25  45  69 106 141 190 238 295 365 423
#     4  11  25  47  69 105 149 191 247 288 362 422
#     4  10  24  42  70  99 129 175 228 285 352 423
#     4  11  27  40  75 104 145 194 243 303 357 428
#
# _framework density 23.585961000000001
#
# number of rings (size 3 to 8) (size 9 to 14) (size 15 to 20)
#    0.000    1.500    1.250    0.750   14.000    2.000 
#    0.000    0.000    0.000    0.000    0.000    0.000 
#    0.000    0.000    0.000    0.000    0.000    0.000 
#
# Total GULP energy -357588.516329 kJ/mol
# GULP energy per Si atom -5587.320568 kJ/mol
# Density = 2.353228 g / cm^3
# Si number density = 23.585961 Si / 1000 Ang^3
#
#
#
# Elastic Constant Matrix: (Units=GPa)
#
#
# Indices 1 2 3 4 5 6 
#
# 1 868.0609 290.7434 -50.0579 0.0000 0.0000 0.0000
# 2 290.7434 206.2327 -26.5800 0.0000 0.0000 0.0000
# 3 -50.0579 -26.5800 73.4302 0.0000 0.0000 0.0000
# 4 0.0000 0.0000 0.0000 19.3265 0.0000 0.0000
# 5 0.0000 0.0000 0.0000 0.0000 42.0665 0.0000
# 6 0.0000 0.0000 0.0000 0.0000 0.0000 22.4639
#
#
#
# Elastic Compliance Matrix: (Units=1/GPa)
#
#
# Indices 1 2 3 4 5 6 
#
# 1 0.002193 -0.003041 0.000394 0.000000 0.000000 0.000000
# 2 -0.003041 0.009303 0.001294 0.000000 0.000000 0.000000
# 3 0.000394 0.001294 0.014356 0.000000 0.000000 0.000000
# 4 0.000000 0.000000 0.000000 0.051742 0.000000 0.000000
# 5 0.000000 0.000000 0.000000 0.000000 0.023772 0.000000
# 6 0.000000 0.000000 0.000000 0.000000 0.000000 0.044516
#
#
# Mechanical properties :
#
#
# Convention : Reuss Voigt Hill
#
# Bulk Modulus (GPa) = 43.20221 175.10384 109.15303
# Shear Modulus (GPa) = 31.98899 79.01261 55.50080
#
# Velocity S-wave (km/s) = 3.68676 5.79418 4.85617
# Velocity P-wave (km/s) = 6.03983 10.91629 8.82170
#
# Compressibility (1/GPa) = 0.02314697
#
# Stress axis : x y z
#
# Youngs Moduli (GPa) = 455.91300 107.48744 69.65874
#
# Poissons Ratio (x) = 0.32691 -0.02747
# Poissons Ratio (y) = 1.38661 -0.09016
# Poissons Ratio (z) = -0.17979 -0.13912
#
# Static dielectric constant tensor:
#      x y z
#    x 1.853680 0.000000 0.000000 
#    y 0.000000 3.230100 0.000000 
#    z 0.000000 0.000000 1.914240 
# 
# From -- ./inp_files/9909.got.cif
#   From: 2010.05.17/outbox.cif.g08.bks.cpg/sg61_5_cif.got.tgz:9909.got - 2010.06.03 15:17:17.
