data_PCOD9460626
_publ_section_title
;
Structure prediction by ZEFSAII (Michael W. Deem and Ramdas Pophale) SiO2 
 PCOD9460626
Probable space group: P B C A
;
_chemical_formula_sum "Si O2"
_cell_formula_units_Z 64
_cell_length_a 10.841058
_cell_length_b 9.460785
_cell_length_c 28.321489
_cell_angle_alpha 90.000000
_cell_angle_beta 90.000000
_cell_angle_gamma 90.000000
_cell_volume 2904.791223
_symmetry_space_group_name_H-M "P B C A"
_symmetry_group_IT_number 61
_symmetry_cell_setting 'orthorhombic'
loop_
_space_group_symop_operation_xyz
x,y,z
1/2-x,-y,1/2+z
1/2+x,1/2-y,-z
-x,1/2+y,1/2-z
-x,-y,-z
1/2+x,y,1/2-z
1/2-x,1/2+y,z
x,1/2-y,1/2+z
loop_
_atom_site_type_symbol
_atom_site_label
_atom_site_fract_x
_atom_site_fract_y
_atom_site_fract_z
Si Si1 0.754948 0.550453 0.905330
Si Si2 0.190866 0.699763 0.155805
Si Si3 0.005928 0.597704 0.954746
Si Si4 0.033533 0.462289 0.798123
Si Si5 0.911282 0.093363 0.138121
Si Si6 0.202131 0.613850 0.875724
Si Si7 0.060364 0.409296 0.540234
Si Si8 0.916669 0.759572 0.782851
O O1 0.687448 0.693469 0.888799
O O2 0.744441 0.441543 0.862823
O O3 0.899564 0.569027 0.915628
O O4 0.694334 0.474264 0.950103
O O5 0.067151 0.644401 0.179485
O O6 0.286028 0.767669 0.192248
O O7 0.960357 0.748777 0.973761
O O8 0.137075 0.591850 0.927259
O O9 0.000000 0.500000 0.000000
O O10 0.973634 0.603477 0.774157
O O11 0.116179 0.530373 0.838792
O O12 0.103512 0.362789 0.761183
O O13 0.836742 0.946972 0.136003
O O14 0.810962 0.218736 0.131837
O O15 0.995100 0.086837 0.091417
O O16 0.992914 0.150300 0.181913
O O17 0.000000 0.500000 0.500000
#
# Coordination Sequence:
#
# PCOD9460626 Si02
#       8
#     8   8   8   8   8   8   8   8
#     4  12  23  46  73  96 132 178 229 283 335 402
#     4  12  23  46  73  96 132 178 227 280 334 398
#     4  11  25  44  67  98 136 173 221 281 336 402
#     4  11  26  43  68 100 133 175 222 276 337 399
#     4  10  23  45  63  89 134 171 211 270 323 392
#     4  10  23  45  63  91 132 173 215 263 329 392
#     4  11  26  43  67 101 132 172 227 276 337 404
#     4  11  25  44  66  99 134 170 224 276 331 401
#
# _framework density 22.032565000000002
#
# number of rings (size 3 to 8) (size 9 to 14) (size 15 to 20)
#    0.000    1.000    5.000    0.750    7.000    3.000 
#    0.000    0.000    0.000    0.000    0.000    0.000 
#    0.000    0.000    0.000    0.000    0.000    0.000 
#
# Total GULP energy -357238.101965 kJ/mol
# GULP energy per Si atom -5581.845343 kJ/mol
# Density = 2.198242 g / cm^3
# Si number density = 22.032565 Si / 1000 Ang^3
#
#
#
# Elastic Constant Matrix: (Units=GPa)
#
#
# Indices 1 2 3 4 5 6 
#
# 1 29.4662 9.3417 -12.0288 0.0000 0.0000 0.0000
# 2 9.3417 95.8044 26.8955 0.0000 0.0000 0.0000
# 3 -12.0288 26.8955 52.1870 0.0000 0.0000 0.0000
# 4 0.0000 0.0000 0.0000 29.1241 0.0000 0.0000
# 5 0.0000 0.0000 0.0000 0.0000 12.9775 0.0000
# 6 0.0000 0.0000 0.0000 0.0000 0.0000 30.1964
#
#
#
# Elastic Compliance Matrix: (Units=1/GPa)
#
#
# Indices 1 2 3 4 5 6 
#
# 1 0.042112 -0.007987 0.013823 0.000000 0.000000 0.000000
# 2 -0.007987 0.013718 -0.008911 0.000000 0.000000 0.000000
# 3 0.013823 -0.008911 0.026940 0.000000 0.000000 0.000000
# 4 0.000000 0.000000 0.000000 0.034336 0.000000 0.000000
# 5 0.000000 0.000000 0.000000 0.000000 0.077057 0.000000
# 6 0.000000 0.000000 0.000000 0.000000 0.000000 0.033117
#
#
# Mechanical properties :
#
#
# Convention : Reuss Voigt Hill
#
# Bulk Modulus (GPa) = 13.05129 25.09714 19.07421
# Shear Modulus (GPa) = 19.30728 24.67621 21.99174
#
# Velocity S-wave (km/s) = 2.96346 3.35025 3.16277
# Velocity P-wave (km/s) = 4.20071 5.13627 4.69187
#
# Compressibility (1/GPa) = 0.07662078
#
# Stress axis : x y z
#
# Youngs Moduli (GPa) = 23.74621 72.89535 37.11907
#
# Poissons Ratio (x) = 0.58220 -0.51309
# Poissons Ratio (y) = 0.18965 0.33076
# Poissons Ratio (z) = -0.32824 0.64956
#
# Static dielectric constant tensor:
#      x y z
#    x 1.886560 0.000000 0.000000 
#    y 0.000000 1.677980 0.000000 
#    z 0.000000 0.000000 1.782750 
# 
# From -- ./inp_files/11780.got.cif
#   From: 2010.05.17/outbox.cif.g08.bks.cpg/sg61_6_cif.got.tgz:11780.got - 2010.06.03 15:17:17.
