data_PCOD9460946
_publ_section_title
;
Structure prediction by ZEFSAII (Michael W. Deem and Ramdas Pophale) SiO2 
 PCOD9460946
Probable space group: P B C A
;
_chemical_formula_sum "Si O2"
_cell_formula_units_Z 40
_cell_length_a 13.709560
_cell_length_b 12.462050
_cell_length_c 9.603195
_cell_angle_alpha 90.000000
_cell_angle_beta 90.000000
_cell_angle_gamma 90.000000
_cell_volume 1640.698396
_symmetry_space_group_name_H-M "P B C A"
_symmetry_group_IT_number 61
_symmetry_cell_setting 'orthorhombic'
loop_
_space_group_symop_operation_xyz
x,y,z
1/2-x,-y,1/2+z
1/2+x,1/2-y,-z
-x,1/2+y,1/2-z
-x,-y,-z
1/2+x,y,1/2-z
1/2-x,1/2+y,z
x,1/2-y,1/2+z
loop_
_atom_site_type_symbol
_atom_site_label
_atom_site_fract_x
_atom_site_fract_y
_atom_site_fract_z
Si Si1 0.926716 0.426954 0.590823
Si Si2 0.416921 0.168563 0.695284
Si Si3 0.707961 0.621675 0.307138
Si Si4 0.109235 0.501400 0.941182
Si Si5 0.589236 0.187025 0.229615
O O1 0.894513 0.348899 0.466829
O O2 0.829785 0.455946 0.679698
O O3 0.000000 0.500000 0.500000
O O4 0.002776 0.382701 0.703785
O O5 0.350798 0.270362 0.730884
O O6 0.390941 0.072053 0.799141
O O7 0.532501 0.201168 0.708446
O O8 0.675321 0.560229 0.445506
O O9 0.816905 0.666373 0.323419
O O10 0.125230 0.375386 0.908724
O O11 0.000000 0.500000 0.000000
#
# Coordination Sequence:
#
# PCOD9460946 Si02
#       5
#     8   8   8   8   8
#     4  11  22  44  67  94 133 181 223 276 337 403
#     4  11  24  46  69  96 142 177 226 284 340 405
#     4  11  25  43  66 103 137 174 233 280 335 403
#     4  12  23  48  70  96 141 182 223 286 340 405
#     4  11  26  42  71 103 134 182 229 280 346 401
#
# _framework density 24.379860999999998
#
# number of rings (size 3 to 8) (size 9 to 14) (size 15 to 20)
#    0.000    0.800    6.000    2.400    2.800    3.200 
#    3.600    0.000    0.000    0.000    0.000    0.000 
#    0.000    0.000    0.000    0.000    0.000    0.000 
#
# Total GULP energy -222850.392084 kJ/mol
# GULP energy per Si atom -5571.259802 kJ/mol
# Density = 2.432437 g / cm^3
# Si number density = 24.379861 Si / 1000 Ang^3
#
#
#
# Elastic Constant Matrix: (Units=GPa)
#
#
# Indices 1 2 3 4 5 6 
#
# 1 98.7899 -9.4873 8.1170 0.0000 0.0000 0.0000
# 2 -9.4873 31.5937 9.8909 0.0000 0.0000 0.0000
# 3 8.1170 9.8909 117.5599 0.0000 0.0000 0.0000
# 4 0.0000 0.0000 0.0000 28.6172 0.0000 0.0000
# 5 0.0000 0.0000 0.0000 0.0000 30.9620 0.0000
# 6 0.0000 0.0000 0.0000 0.0000 0.0000 15.7164
#
#
#
# Elastic Compliance Matrix: (Units=1/GPa)
#
#
# Indices 1 2 3 4 5 6 
#
# 1 0.010541 0.003485 -0.001021 0.000000 0.000000 0.000000
# 2 0.003485 0.033660 -0.003073 0.000000 0.000000 0.000000
# 3 -0.001021 -0.003073 0.008835 0.000000 0.000000 0.000000
# 4 0.000000 0.000000 0.000000 0.034944 0.000000 0.000000
# 5 0.000000 0.000000 0.000000 0.000000 0.032298 0.000000
# 6 0.000000 0.000000 0.000000 0.000000 0.000000 0.063628
#
#
# Mechanical properties :
#
#
# Convention : Reuss Voigt Hill
#
# Bulk Modulus (GPa) = 19.29780 29.44277 24.37028
# Shear Modulus (GPa) = 24.70399 31.02064 27.86231
#
# Velocity S-wave (km/s) = 3.18668 3.57092 3.38426
# Velocity P-wave (km/s) = 4.63385 5.39490 5.02879
#
# Compressibility (1/GPa) = 0.05181938
#
# Stress axis : x y z
#
# Youngs Moduli (GPa) = 94.86708 29.70858 113.18208
#
# Poissons Ratio (x) = -0.10354 0.11556
# Poissons Ratio (y) = -0.33061 0.34777
# Poissons Ratio (z) = 0.09686 0.09128
#
# Static dielectric constant tensor:
#      x y z
#    x 2.076590 0.000000 0.000000 
#    y 0.000000 2.089690 0.000000 
#    z 0.000000 0.000000 2.168450 
# 
# From -- ./inp_files/2653.got.cif
#   From: 2010.05.17/outbox.cif.g08.bks.cpg/sg61_2_cif.got.tgz:2653.got - 2010.06.03 15:17:17.
