data_PCOD9460739
_publ_section_title
;
Structure prediction by ZEFSAII (Michael W. Deem and Ramdas Pophale) SiO2 
 PCOD9460739
Probable space group: P B C A
;
_chemical_formula_sum "Si O2"
_cell_formula_units_Z 40
_cell_length_a 7.528284
_cell_length_b 14.091973
_cell_length_c 16.869133
_cell_angle_alpha 90.000000
_cell_angle_beta 90.000000
_cell_angle_gamma 90.000000
_cell_volume 1789.618905
_symmetry_space_group_name_H-M "P B C A"
_symmetry_group_IT_number 61
_symmetry_cell_setting 'orthorhombic'
loop_
_space_group_symop_operation_xyz
x,y,z
1/2-x,-y,1/2+z
1/2+x,1/2-y,-z
-x,1/2+y,1/2-z
-x,-y,-z
1/2+x,y,1/2-z
1/2-x,1/2+y,z
x,1/2-y,1/2+z
loop_
_atom_site_type_symbol
_atom_site_label
_atom_site_fract_x
_atom_site_fract_y
_atom_site_fract_z
Si Si1 0.682486 0.851961 0.281646
Si Si2 0.089929 0.442385 0.681202
Si Si3 0.890136 0.716738 0.181470
Si Si4 0.613579 0.459493 0.397281
Si Si5 0.757793 0.561440 0.070055
O O1 0.593611 0.955710 0.273876
O O2 0.560922 0.780610 0.330042
O O3 0.853027 0.875302 0.335687
O O4 0.742510 0.793746 0.205973
O O5 0.282433 0.448491 0.638754
O O6 0.084090 0.357338 0.744462
O O7 0.928348 0.448060 0.617876
O O8 0.908676 0.481949 0.088304
O O9 0.835528 0.657705 0.106007
O O10 0.730516 0.435989 0.475345
#
# Coordination Sequence:
#
# PCOD9460739 Si02
#       5
#     8   8   8   8   8
#     4  10  26  41  65 103 134 177 227 275 340 402
#     4  10  24  43  73  94 142 175 223 281 333 401
#     4  12  23  43  68 103 135 176 228 278 342 400
#     4   9  24  44  70  99 135 177 229 272 339 409
#     4  11  22  46  72  98 134 185 218 284 339 391
#
# _framework density 22.351125
#
# number of rings (size 3 to 8) (size 9 to 14) (size 15 to 20)
#    1.200    0.400    2.000    1.800    5.600    0.000 
#    3.600    2.000    0.000    0.000    0.000    0.000 
#    0.000    0.000    0.000    0.000    0.000    0.000 
#
# Total GULP energy -223085.898002 kJ/mol
# GULP energy per Si atom -5577.147450 kJ/mol
# Density = 2.230025 g / cm^3
# Si number density = 22.351125 Si / 1000 Ang^3
#
#
#
# Elastic Constant Matrix: (Units=GPa)
#
#
# Indices 1 2 3 4 5 6 
#
# 1 76.6078 9.8383 0.9074 0.0000 0.0000 0.0000
# 2 9.8383 96.9996 6.9956 0.0000 0.0000 0.0000
# 3 0.9074 6.9956 28.0186 0.0000 0.0000 0.0000
# 4 0.0000 0.0000 0.0000 24.3332 0.0000 0.0000
# 5 0.0000 0.0000 0.0000 0.0000 14.8903 0.0000
# 6 0.0000 0.0000 0.0000 0.0000 0.0000 44.0036
#
#
#
# Elastic Compliance Matrix: (Units=1/GPa)
#
#
# Indices 1 2 3 4 5 6 
#
# 1 0.013226 -0.001335 -0.000095 0.000000 0.000000 0.000000
# 2 -0.001335 0.010633 -0.002612 0.000000 0.000000 0.000000
# 3 -0.000095 -0.002612 0.036346 0.000000 0.000000 0.000000
# 4 0.000000 0.000000 0.000000 0.041096 0.000000 0.000000
# 5 0.000000 0.000000 0.000000 0.000000 0.067158 0.000000
# 6 0.000000 0.000000 0.000000 0.000000 0.000000 0.022725
#
#
# Mechanical properties :
#
#
# Convention : Reuss Voigt Hill
#
# Bulk Modulus (GPa) = 19.18570 26.34541 22.76556
# Shear Modulus (GPa) = 23.07970 28.90441 25.99205
#
# Velocity S-wave (km/s) = 3.21689 3.60001 3.41383
# Velocity P-wave (km/s) = 4.73289 5.39377 5.07410
#
# Compressibility (1/GPa) = 0.05212214
#
# Stress axis : x y z
#
# Youngs Moduli (GPa) = 75.60853 94.04658 27.51354
#
# Poissons Ratio (x) = 0.12552 0.00262
# Poissons Ratio (y) = 0.10091 0.07185
# Poissons Ratio (z) = 0.00719 0.24561
#
# Static dielectric constant tensor:
#      x y z
#    x 1.948010 0.000000 0.000000 
#    y 0.000000 1.779290 0.000000 
#    z 0.000000 0.000000 1.851720 
# 
# From -- ./inp_files/6971.got.cif
#   From: 2010.05.17/outbox.cif.g08.bks.cpg/sg61_4_cif.got.tgz:6971.got - 2010.06.03 15:17:17.
