data_PCOD9460994
_publ_section_title
;
Structure prediction by ZEFSAII (Michael W. Deem and Ramdas Pophale) SiO2 
 PCOD9460994
Probable space group: P B C A
;
_chemical_formula_sum "Si O2"
_cell_formula_units_Z 32
_cell_length_a 13.971321
_cell_length_b 8.651566
_cell_length_c 9.846175
_cell_angle_alpha 90.000000
_cell_angle_beta 90.000000
_cell_angle_gamma 90.000000
_cell_volume 1190.144644
_symmetry_space_group_name_H-M "P B C A"
_symmetry_group_IT_number 61
_symmetry_cell_setting 'orthorhombic'
loop_
_space_group_symop_operation_xyz
x,y,z
1/2-x,-y,1/2+z
1/2+x,1/2-y,-z
-x,1/2+y,1/2-z
-x,-y,-z
1/2+x,y,1/2-z
1/2-x,1/2+y,z
x,1/2-y,1/2+z
loop_
_atom_site_type_symbol
_atom_site_label
_atom_site_fract_x
_atom_site_fract_y
_atom_site_fract_z
Si Si1 0.799361 0.059400 0.936063
Si Si2 0.897800 0.238043 0.623589
Si Si3 0.693708 0.353575 0.200847
Si Si4 0.059936 0.089178 0.275851
O O1 0.789402 0.974131 0.079614
O O2 0.866814 0.205650 0.974577
O O3 0.800260 0.588930 0.856987
O O4 0.861249 0.952217 0.838234
O O5 0.795827 0.232512 0.698458
O O6 0.944050 0.067435 0.636244
O O7 0.965064 0.362483 0.696642
O O8 0.605816 0.244042 0.160840
#
# Coordination Sequence:
#
# PCOD9460994 Si02
#       4
#     8   8   8   8
#     4  11  24  47  71 103 146 192 239 297 363 434
#     4  11  23  43  69 103 143 187 236 295 360 428
#     4  11  25  48  75 106 144 189 239 299 364 434
#     4  11  25  44  72 106 147 190 238 301 366 434
#
# _framework density 26.887488999999999
#
# number of rings (size 3 to 8) (size 9 to 14) (size 15 to 20)
#    0.000    1.000    0.000    6.750    0.000    4.000 
#    0.000   15.000    0.000    0.000    0.000    0.000 
#    0.000    0.000    0.000    0.000    0.000    0.000 
#
# Total GULP energy -179056.086941 kJ/mol
# GULP energy per Si atom -5595.502717 kJ/mol
# Density = 2.682629 g / cm^3
# Si number density = 26.887489 Si / 1000 Ang^3
#
#
#
# Elastic Constant Matrix: (Units=GPa)
#
#
# Indices 1 2 3 4 5 6 
#
# 1 59.4333 -8.7904 -13.6415 0.0000 0.0000 0.0000
# 2 -8.7904 121.7039 52.3060 0.0000 0.0000 0.0000
# 3 -13.6415 52.3060 98.7974 0.0000 0.0000 0.0000
# 4 0.0000 0.0000 0.0000 38.1639 0.0000 0.0000
# 5 0.0000 0.0000 0.0000 0.0000 33.1431 0.0000
# 6 0.0000 0.0000 0.0000 0.0000 0.0000 41.0850
#
#
#
# Elastic Compliance Matrix: (Units=1/GPa)
#
#
# Indices 1 2 3 4 5 6 
#
# 1 0.017384 0.000290 0.002247 0.000000 0.000000 0.000000
# 2 0.000290 0.010642 -0.005594 0.000000 0.000000 0.000000
# 3 0.002247 -0.005594 0.013394 0.000000 0.000000 0.000000
# 4 0.000000 0.000000 0.000000 0.026203 0.000000 0.000000
# 5 0.000000 0.000000 0.000000 0.000000 0.030172 0.000000
# 6 0.000000 0.000000 0.000000 0.000000 0.000000 0.024340
#
#
# Mechanical properties :
#
#
# Convention : Reuss Voigt Hill
#
# Bulk Modulus (GPa) = 28.32452 37.74255 33.03354
# Shear Modulus (GPa) = 35.70991 39.14909 37.42950
#
# Velocity S-wave (km/s) = 3.64830 3.81994 3.73510
# Velocity P-wave (km/s) = 5.32016 5.78996 5.56002
#
# Compressibility (1/GPa) = 0.03530510
#
# Stress axis : x y z
#
# Youngs Moduli (GPa) = 57.52356 93.96898 74.66267
#
# Poissons Ratio (x) = -0.02725 -0.16775
# Poissons Ratio (y) = -0.01668 0.41766
# Poissons Ratio (z) = -0.12924 0.52566
#
# Static dielectric constant tensor:
#      x y z
#    x 2.059020 0.000000 0.000000 
#    y 0.000000 2.340370 0.000000 
#    z 0.000000 0.000000 2.230790 
# 
# From -- ./inp_files/2079.got.cif
#   From: 2010.05.17/outbox.cif.g08.bks.cpg/sg61_2_cif.got.tgz:2079.got - 2010.06.03 15:17:17.
