data_PCOD9460837
_publ_section_title
;
Structure prediction by ZEFSAII (Michael W. Deem and Ramdas Pophale) SiO2 
 PCOD9460837
Probable space group: P B C A
;
_chemical_formula_sum "Si O2"
_cell_formula_units_Z 36
_cell_length_a 19.719756
_cell_length_b 13.795429
_cell_length_c 5.218314
_cell_angle_alpha 90.000000
_cell_angle_beta 90.000000
_cell_angle_gamma 90.000000
_cell_volume 1419.603154
_symmetry_space_group_name_H-M "P B C A"
_symmetry_group_IT_number 61
_symmetry_cell_setting 'orthorhombic'
loop_
_space_group_symop_operation_xyz
x,y,z
1/2-x,-y,1/2+z
1/2+x,1/2-y,-z
-x,1/2+y,1/2-z
-x,-y,-z
1/2+x,y,1/2-z
1/2-x,1/2+y,z
x,1/2-y,1/2+z
loop_
_atom_site_type_symbol
_atom_site_label
_atom_site_fract_x
_atom_site_fract_y
_atom_site_fract_z
Si Si1 0.646031 0.527032 0.689514
Si Si2 0.823305 0.363112 0.696514
Si Si3 0.823675 0.803291 0.593817
Si Si4 0.524140 0.805371 0.708033
Si Si5 0.500000 0.000000 0.000000
O O1 0.687121 0.585507 0.470882
O O2 0.656243 0.413773 0.639374
O O3 0.567732 0.549085 0.629097
O O4 0.665954 0.556864 0.974167
O O5 0.758133 0.303206 0.612878
O O6 0.893540 0.305130 0.703946
O O7 0.847964 0.764956 0.322379
O O8 0.500598 0.765822 0.434779
O O9 0.500479 0.913210 0.778643
#
# Coordination Sequence:
#
# PCOD9460837 Si02
#       5
#     8   8   8   8   4
#     4  11  24  42  65  92 129 175 217 264 330 396
#     4  11  22  42  66  93 126 168 220 270 327 395
#     4  12  24  40  65  97 131 163 209 273 335 397
#     4  11  23  40  65  94 126 170 220 270 325 388
#     4  10  26  44  66  96 136 178 224 276 326 398
#
# _framework density 25.359197999999999
#
# number of rings (size 3 to 8) (size 9 to 14) (size 15 to 20)
#    0.000    0.889    0.000    8.000    0.000    9.778 
#    0.000    0.000    0.000    0.000    0.000    0.000 
#    0.000    0.000    0.000    0.000    0.000    0.000 
#
# Total GULP energy -200986.219138 kJ/mol
# GULP energy per Si atom -5582.950532 kJ/mol
# Density = 2.530148 g / cm^3
# Si number density = 25.359198 Si / 1000 Ang^3
#
#
#
# Elastic Constant Matrix: (Units=GPa)
#
#
# Indices 1 2 3 4 5 6 
#
# 1 83.7941 -8.6755 9.7806 0.0000 0.0000 0.0000
# 2 -8.6755 94.5214 47.4322 0.0000 0.0000 0.0000
# 3 9.7806 47.4322 89.1193 0.0000 0.0000 0.0000
# 4 0.0000 0.0000 0.0000 53.8716 0.0000 0.0000
# 5 0.0000 0.0000 0.0000 0.0000 16.7113 0.0000
# 6 0.0000 0.0000 0.0000 0.0000 0.0000 38.7439
#
#
#
# Elastic Compliance Matrix: (Units=1/GPa)
#
#
# Indices 1 2 3 4 5 6 
#
# 1 0.012509 0.002507 -0.002707 0.000000 0.000000 0.000000
# 2 0.002507 0.014937 -0.008225 0.000000 0.000000 0.000000
# 3 -0.002707 -0.008225 0.015896 0.000000 0.000000 0.000000
# 4 0.000000 0.000000 0.000000 0.018563 0.000000 0.000000
# 5 0.000000 0.000000 0.000000 0.000000 0.059840 0.000000
# 6 0.000000 0.000000 0.000000 0.000000 0.000000 0.025811
#
#
# Mechanical properties :
#
#
# Convention : Reuss Voigt Hill
#
# Bulk Modulus (GPa) = 37.74829 40.50104 39.12466
# Shear Modulus (GPa) = 28.86226 36.45852 32.66039
#
# Velocity S-wave (km/s) = 3.37729 3.79579 3.59264
# Velocity P-wave (km/s) = 5.48870 5.93434 5.71587
#
# Compressibility (1/GPa) = 0.02649126
#
# Stress axis : x y z
#
# Youngs Moduli (GPa) = 79.93935 66.94710 62.91019
#
# Poissons Ratio (x) = -0.16781 0.17029
# Poissons Ratio (y) = -0.20037 0.51744
# Poissons Ratio (z) = 0.21639 0.55065
#
# Static dielectric constant tensor:
#      x y z
#    x 2.064950 0.000000 0.000000 
#    y 0.000000 1.953770 0.000000 
#    z 0.000000 0.000000 1.956080 
# 
# From -- ./inp_files/910.got.cif
#   From: 2010.05.17/outbox.cif.g08.bks.cpg/sg61_1_cif.got.tgz:910.got - 2010.06.03 15:17:17.
