data_PCOD9460777
_publ_section_title
;
Structure prediction by ZEFSAII (Michael W. Deem and Ramdas Pophale) SiO2 
 PCOD9460777
Probable space group: P B C A
;
_chemical_formula_sum "Si O2"
_cell_formula_units_Z 48
_cell_length_a 19.593677
_cell_length_b 9.895710
_cell_length_c 10.809455
_cell_angle_alpha 90.000000
_cell_angle_beta 90.000000
_cell_angle_gamma 90.000000
_cell_volume 2095.881392
_symmetry_space_group_name_H-M "P B C A"
_symmetry_group_IT_number 61
_symmetry_cell_setting 'orthorhombic'
loop_
_space_group_symop_operation_xyz
x,y,z
1/2-x,-y,1/2+z
1/2+x,1/2-y,-z
-x,1/2+y,1/2-z
-x,-y,-z
1/2+x,y,1/2-z
1/2-x,1/2+y,z
x,1/2-y,1/2+z
loop_
_atom_site_type_symbol
_atom_site_label
_atom_site_fract_x
_atom_site_fract_y
_atom_site_fract_z
Si Si1 0.328240 0.593106 0.458972
Si Si2 0.485843 0.082907 0.374167
Si Si3 0.740544 0.148992 0.479353
Si Si4 0.553230 0.517908 0.387341
Si Si5 0.372983 0.570440 0.193804
Si Si6 0.614281 0.708293 0.953914
O O1 0.261398 0.497395 0.468898
O O2 0.307948 0.749412 0.445459
O O3 0.377253 0.559724 0.574593
O O4 0.369551 0.550398 0.338729
O O5 0.470172 0.992441 0.253354
O O6 0.558643 0.151588 0.343505
O O7 0.422377 0.174952 0.415407
O O8 0.500000 0.000000 0.500000
O O9 0.698176 0.131536 0.353298
O O10 0.811720 0.226024 0.467467
O O11 0.500000 0.500000 0.500000
O O12 0.569055 0.678378 0.387862
O O13 0.379223 0.427035 0.125302
#
# Coordination Sequence:
#
# PCOD9460777 Si02
#       6
#     8   8   8   8   8   8
#     4  11  26  45  77 104 147 197 254 317 382 470
#     4  10  24  46  73 106 147 193 251 321 380 461
#     4  11  25  47  69 107 147 196 251 312 382 467
#     4  11  24  45  74 110 146 195 251 317 387 465
#     4  11  24  47  70 110 146 194 257 316 385 461
#     4  10  25  45  72 103 149 201 247 312 392 452
#
# _framework density 22.902059999999999
#
# number of rings (size 3 to 8) (size 9 to 14) (size 15 to 20)
#    0.000    1.333    3.333    0.000    9.333    1.333 
#    6.000    0.000    0.000    0.000    0.000    0.000 
#    0.000    0.000    0.000    0.000    0.000    0.000 
#
# Total GULP energy -267992.778250 kJ/mol
# GULP energy per Si atom -5583.182880 kJ/mol
# Density = 2.284993 g / cm^3
# Si number density = 22.902060 Si / 1000 Ang^3
#
#
#
# Elastic Constant Matrix: (Units=GPa)
#
#
# Indices 1 2 3 4 5 6 
#
# 1 117.7827 19.1399 46.2408 0.0000 0.0000 0.0000
# 2 19.1399 59.8738 13.5715 0.0000 0.0000 0.0000
# 3 46.2408 13.5715 137.4877 0.0000 0.0000 0.0000
# 4 0.0000 0.0000 0.0000 15.6312 0.0000 0.0000
# 5 0.0000 0.0000 0.0000 0.0000 37.1806 0.0000
# 6 0.0000 0.0000 0.0000 0.0000 0.0000 37.5905
#
#
#
# Elastic Compliance Matrix: (Units=1/GPa)
#
#
# Indices 1 2 3 4 5 6 
#
# 1 0.010142 -0.002525 -0.003162 0.000000 0.000000 0.000000
# 2 -0.002525 0.017713 -0.000899 0.000000 0.000000 0.000000
# 3 -0.003162 -0.000899 0.008425 0.000000 0.000000 0.000000
# 4 0.000000 0.000000 0.000000 0.063975 0.000000 0.000000
# 5 0.000000 0.000000 0.000000 0.000000 0.026896 0.000000
# 6 0.000000 0.000000 0.000000 0.000000 0.000000 0.026602
#
#
# Mechanical properties :
#
#
# Convention : Reuss Voigt Hill
#
# Bulk Modulus (GPa) = 43.27530 52.56096 47.91813
# Shear Modulus (GPa) = 28.63229 33.82659 31.22944
#
# Velocity S-wave (km/s) = 3.53966 3.84736 3.69671
# Velocity P-wave (km/s) = 5.97013 6.53731 6.26014
#
# Compressibility (1/GPa) = 0.02310787
#
# Stress axis : x y z
#
# Youngs Moduli (GPa) = 98.60129 56.45602 118.68747
#
# Poissons Ratio (x) = 0.14257 0.37525
# Poissons Ratio (y) = 0.24901 0.10671
# Poissons Ratio (z) = 0.31175 0.05076
#
# Static dielectric constant tensor:
#      x y z
#    x 1.902500 0.000000 0.000000 
#    y 0.000000 1.914130 0.000000 
#    z 0.000000 0.000000 1.838570 
# 
# From -- ./inp_files/6133.got.cif
#   From: 2010.05.17/outbox.cif.g08.bks.cpg/sg61_4_cif.got.tgz:6133.got - 2010.06.03 15:17:17.
