data_PCOD9460382
_publ_section_title
;
Structure prediction by ZEFSAII (Michael W. Deem and Ramdas Pophale) SiO2 
 PCOD9460382
Probable space group: P B C A
;
_chemical_formula_sum "Si O2"
_cell_formula_units_Z 56
_cell_length_a 5.390899
_cell_length_b 13.481303
_cell_length_c 29.635514
_cell_angle_alpha 90.000000
_cell_angle_beta 90.000000
_cell_angle_gamma 90.000000
_cell_volume 2153.800776
_symmetry_space_group_name_H-M "P B C A"
_symmetry_group_IT_number 61
_symmetry_cell_setting 'orthorhombic'
loop_
_space_group_symop_operation_xyz
x,y,z
1/2-x,-y,1/2+z
1/2+x,1/2-y,-z
-x,1/2+y,1/2-z
-x,-y,-z
1/2+x,y,1/2-z
1/2-x,1/2+y,z
x,1/2-y,1/2+z
loop_
_atom_site_type_symbol
_atom_site_label
_atom_site_fract_x
_atom_site_fract_y
_atom_site_fract_z
Si Si1 0.283966 0.328081 0.899845
Si Si2 0.993229 0.701337 0.676369
Si Si3 0.956734 0.102497 0.275465
Si Si4 0.491935 0.104310 0.527448
Si Si5 0.793357 0.482656 0.146696
Si Si6 0.997178 0.117417 0.486663
Si Si7 0.346831 0.661665 0.603055
O O1 0.164478 0.262985 0.860514
O O2 0.366329 0.432827 0.878675
O O3 0.061800 0.355458 0.935076
O O4 0.517969 0.261378 0.915182
O O5 0.020703 0.778360 0.716830
O O6 0.857811 0.595318 0.677397
O O7 0.260576 0.686081 0.653734
O O8 0.183735 0.077489 0.242043
O O9 0.018578 0.043317 0.321275
O O10 0.248779 0.155667 0.508378
O O11 0.401280 0.116367 0.579027
O O12 0.749488 0.149303 0.512139
O O13 0.500000 0.000000 0.500000
O O14 0.948182 0.424012 0.108246
O O15 0.000000 0.000000 0.500000
#
# Coordination Sequence:
#
# PCOD9460382 Si02
#       7
#     8   8   8   8   8   8   8
#     4  10  24  45  73 109 155 205 262 330 392 471
#     4  10  26  45  76 110 155 202 262 317 393 476
#     4  11  28  50  77 115 162 200 251 322 396 474
#     4  10  23  41  71 105 145 197 257 322 383 450
#     4  10  24  46  78 113 149 211 264 318 397 489
#     4  10  22  42  69 104 143 196 257 317 384 445
#     4  11  25  45  76 113 158 207 268 335 398 480
#
# _framework density 26.000548999999999
#
# number of rings (size 3 to 8) (size 9 to 14) (size 15 to 20)
#    0.000    1.714    0.000    1.714   18.000    2.286 
#    2.571    0.000    0.000    0.000    0.000    4.000 
#    0.000    0.000    0.000    0.000    0.000    0.000 
#
# Total GULP energy -312619.272952 kJ/mol
# GULP energy per Si atom -5582.487017 kJ/mol
# Density = 2.594137 g / cm^3
# Si number density = 26.000549 Si / 1000 Ang^3
#
#
#
# Elastic Constant Matrix: (Units=GPa)
#
#
# Indices 1 2 3 4 5 6 
#
# 1 148.8071 44.2915 21.1033 0.0000 0.0000 0.0000
# 2 44.2915 179.4569 28.6439 0.0000 0.0000 0.0000
# 3 21.1033 28.6439 56.3556 0.0000 0.0000 0.0000
# 4 0.0000 0.0000 0.0000 39.8796 0.0000 0.0000
# 5 0.0000 0.0000 0.0000 0.0000 50.8581 0.0000
# 6 0.0000 0.0000 0.0000 0.0000 0.0000 22.4976
#
#
#
# Elastic Compliance Matrix: (Units=1/GPa)
#
#
# Indices 1 2 3 4 5 6 
#
# 1 0.007459 -0.001518 -0.002021 0.000000 0.000000 0.000000
# 2 -0.001518 0.006373 -0.002671 0.000000 0.000000 0.000000
# 3 -0.002021 -0.002671 0.019859 0.000000 0.000000 0.000000
# 4 0.000000 0.000000 0.000000 0.025075 0.000000 0.000000
# 5 0.000000 0.000000 0.000000 0.000000 0.019663 0.000000
# 6 0.000000 0.000000 0.000000 0.000000 0.000000 0.044449
#
#
# Mechanical properties :
#
#
# Convention : Reuss Voigt Hill
#
# Bulk Modulus (GPa) = 47.01446 63.63300 55.32373
# Shear Modulus (GPa) = 35.11502 42.01910 38.56706
#
# Velocity S-wave (km/s) = 3.67897 4.02442 3.85556
# Velocity P-wave (km/s) = 6.01396 6.79128 6.41441
#
# Compressibility (1/GPa) = 0.02127005
#
# Stress axis : x y z
#
# Youngs Moduli (GPa) = 134.07228 156.90241 50.35521
#
# Poissons Ratio (x) = 0.23821 0.10179
# Poissons Ratio (y) = 0.20355 0.13449
# Poissons Ratio (z) = 0.27101 0.41907
#
# Static dielectric constant tensor:
#      x y z
#    x 2.076890 0.000000 0.000000 
#    y 0.000000 2.067480 0.000000 
#    z 0.000000 0.000000 1.906850 
# 
# From -- ./inp_files/11600.got.cif
#   From: 2010.05.17/outbox.cif.g08.bks.cpg/sg61_6_cif.got.tgz:11600.got - 2010.06.03 15:17:17.
