data_PCOD9460755
_publ_section_title
;
Structure prediction by ZEFSAII (Michael W. Deem and Ramdas Pophale) SiO2 
 PCOD9460755
Probable space group: P B C A
;
_chemical_formula_sum "Si O2"
_cell_formula_units_Z 40
_cell_length_a 7.434305
_cell_length_b 13.919549
_cell_length_c 16.710113
_cell_angle_alpha 90.000000
_cell_angle_beta 90.000000
_cell_angle_gamma 90.000000
_cell_volume 1729.198800
_symmetry_space_group_name_H-M "P B C A"
_symmetry_group_IT_number 61
_symmetry_cell_setting 'orthorhombic'
loop_
_space_group_symop_operation_xyz
x,y,z
1/2-x,-y,1/2+z
1/2+x,1/2-y,-z
-x,1/2+y,1/2-z
-x,-y,-z
1/2+x,y,1/2-z
1/2-x,1/2+y,z
x,1/2-y,1/2+z
loop_
_atom_site_type_symbol
_atom_site_label
_atom_site_fract_x
_atom_site_fract_y
_atom_site_fract_z
Si Si1 0.801395 0.598549 0.213199
Si Si2 0.127436 0.188744 0.810065
Si Si3 0.884515 0.529956 0.830656
Si Si4 0.936743 0.212576 0.105493
Si Si5 0.209816 0.822025 0.071769
O O1 0.893207 0.702601 0.222847
O O2 0.746833 0.551411 0.296053
O O3 0.627377 0.622533 0.158956
O O4 0.926620 0.523911 0.166771
O O5 0.123181 0.110790 0.740093
O O6 0.318939 0.199365 0.855577
O O7 0.963155 0.175088 0.870548
O O8 0.815493 0.579015 0.910918
O O9 0.143533 0.241346 0.095893
O O10 0.855698 0.194615 0.017598
#
# Coordination Sequence:
#
# PCOD9460755 Si02
#       5
#     8   8   8   8   8
#     4  10  26  42  69 106 138 187 238 284 361 413
#     4  10  25  45  71 103 142 186 232 296 347 418
#     4  12  24  44  72 104 143 185 240 293 352 422
#     4  10  24  44  73 101 143 188 235 285 359 422
#     4  12  23  47  75 103 143 189 233 294 353 419
#
# _framework density 23.132100999999999
#
# number of rings (size 3 to 8) (size 9 to 14) (size 15 to 20)
#    1.200    0.000    4.000    1.200    5.600    0.800 
#    0.000    1.000    0.000    0.000    0.000    0.000 
#    0.000    0.000    0.000    0.000    0.000    0.000 
#
# Total GULP energy -223661.227609 kJ/mol
# GULP energy per Si atom -5591.530690 kJ/mol
# Density = 2.307945 g / cm^3
# Si number density = 23.132101 Si / 1000 Ang^3
#
#
#
# Elastic Constant Matrix: (Units=GPa)
#
#
# Indices 1 2 3 4 5 6 
#
# 1 82.1272 -2.2100 15.2161 0.0000 0.0000 0.0000
# 2 -2.2100 93.9266 6.1456 0.0000 0.0000 0.0000
# 3 15.2161 6.1456 46.6687 0.0000 0.0000 0.0000
# 4 0.0000 0.0000 0.0000 20.7768 0.0000 0.0000
# 5 0.0000 0.0000 0.0000 0.0000 20.9492 0.0000
# 6 0.0000 0.0000 0.0000 0.0000 0.0000 43.2010
#
#
#
# Elastic Compliance Matrix: (Units=1/GPa)
#
#
# Indices 1 2 3 4 5 6 
#
# 1 0.012991 0.000588 -0.004313 0.000000 0.000000 0.000000
# 2 0.000588 0.010766 -0.001609 0.000000 0.000000 0.000000
# 3 -0.004313 -0.001609 0.023046 0.000000 0.000000 0.000000
# 4 0.000000 0.000000 0.000000 0.048131 0.000000 0.000000
# 5 0.000000 0.000000 0.000000 0.000000 0.047735 0.000000
# 6 0.000000 0.000000 0.000000 0.000000 0.000000 0.023148
#
#
# Mechanical properties :
#
#
# Convention : Reuss Voigt Hill
#
# Bulk Modulus (GPa) = 27.67512 29.00288 28.33900
# Shear Modulus (GPa) = 26.52108 30.55679 28.53894
#
# Velocity S-wave (km/s) = 3.38968 3.63846 3.51627
# Velocity P-wave (km/s) = 5.22588 5.49694 5.36312
#
# Compressibility (1/GPa) = 0.03613353
#
# Stress axis : x y z
#
# Youngs Moduli (GPa) = 76.97545 92.88723 43.39174
#
# Poissons Ratio (x) = -0.05461 0.18715
# Poissons Ratio (y) = -0.04525 0.06983
# Poissons Ratio (z) = 0.33200 0.14949
#
# Static dielectric constant tensor:
#      x y z
#    x 1.917750 0.000000 0.000000 
#    y 0.000000 1.889810 0.000000 
#    z 0.000000 0.000000 1.845850 
# 
# From -- ./inp_files/10062.got.cif
#   From: 2010.05.17/outbox.cif.g08.bks.cpg/sg61_6_cif.got.tgz:10062.got - 2010.06.03 15:17:17.
