data_PCOD9460593
_publ_section_title
;
Structure prediction by ZEFSAII (Michael W. Deem and Ramdas Pophale) SiO2 
 PCOD9460593
Probable space group: P B C A
;
_chemical_formula_sum "Si O2"
_cell_formula_units_Z 40
_cell_length_a 13.847567
_cell_length_b 25.789547
_cell_length_c 4.783764
_cell_angle_alpha 90.000000
_cell_angle_beta 90.000000
_cell_angle_gamma 90.000000
_cell_volume 1708.389663
_symmetry_space_group_name_H-M "P B C A"
_symmetry_group_IT_number 61
_symmetry_cell_setting 'orthorhombic'
loop_
_space_group_symop_operation_xyz
x,y,z
1/2-x,-y,1/2+z
1/2+x,1/2-y,-z
-x,1/2+y,1/2-z
-x,-y,-z
1/2+x,y,1/2-z
1/2-x,1/2+y,z
x,1/2-y,1/2+z
loop_
_atom_site_type_symbol
_atom_site_label
_atom_site_fract_x
_atom_site_fract_y
_atom_site_fract_z
Si Si1 0.150742 0.284228 0.430370
Si Si2 0.946572 0.411966 0.627799
Si Si3 0.270207 0.372123 0.224780
Si Si4 0.791319 0.470854 0.895306
Si Si5 0.939614 0.877465 0.346930
O O1 0.146049 0.231717 0.250711
O O2 0.248134 0.315912 0.354971
O O3 0.067252 0.322928 0.321510
O O4 0.862636 0.379958 0.466719
O O5 0.894667 0.463173 0.746540
O O6 0.026797 0.418168 0.388616
O O7 0.991382 0.381913 0.890213
O O8 0.273240 0.414582 0.470001
O O9 0.170904 0.384630 0.061532
O O10 0.718536 0.491070 0.658698
#
# Coordination Sequence:
#
# PCOD9460593 Si02
#       5
#     8   8   8   8   8
#     4  10  23  43  70 100 136 180 228 289 347 410
#     4  12  22  45  69 103 131 189 225 282 337 419
#     4  10  26  43  76  92 151 179 227 292 351 396
#     4  12  24  43  71 101 139 187 230 290 345 404
#     4  10  25  40  73  96 138 179 227 276 355 396
#
# _framework density 23.413862999999999
#
# number of rings (size 3 to 8) (size 9 to 14) (size 15 to 20)
#    1.200    0.000    4.000    1.200    5.600    0.000 
#    0.000   12.000    0.000    0.000    0.000    0.000 
#    0.000    0.000    0.000    0.000    0.000    0.000 
#
# Total GULP energy -223332.344352 kJ/mol
# GULP energy per Si atom -5583.308609 kJ/mol
# Density = 2.336057 g / cm^3
# Si number density = 23.413863 Si / 1000 Ang^3
#
#
#
# Elastic Constant Matrix: (Units=GPa)
#
#
# Indices 1 2 3 4 5 6 
#
# 1 55.6627 13.0236 -2.5607 0.0000 0.0000 0.0000
# 2 13.0236 78.7185 31.0583 0.0000 0.0000 0.0000
# 3 -2.5607 31.0583 97.7043 0.0000 0.0000 0.0000
# 4 0.0000 0.0000 0.0000 50.1350 0.0000 0.0000
# 5 0.0000 0.0000 0.0000 0.0000 28.1058 0.0000
# 6 0.0000 0.0000 0.0000 0.0000 0.0000 18.8649
#
#
#
# Elastic Compliance Matrix: (Units=1/GPa)
#
#
# Indices 1 2 3 4 5 6 
#
# 1 0.018934 -0.003806 0.001706 0.000000 0.000000 0.000000
# 2 -0.003806 0.015290 -0.004960 0.000000 0.000000 0.000000
# 3 0.001706 -0.004960 0.011856 0.000000 0.000000 0.000000
# 4 0.000000 0.000000 0.000000 0.019946 0.000000 0.000000
# 5 0.000000 0.000000 0.000000 0.000000 0.035580 0.000000
# 6 0.000000 0.000000 0.000000 0.000000 0.000000 0.053009
#
#
# Mechanical properties :
#
#
# Convention : Reuss Voigt Hill
#
# Bulk Modulus (GPa) = 31.28805 35.01422 33.15113
# Shear Modulus (GPa) = 27.87241 32.12543 29.99892
#
# Velocity S-wave (km/s) = 3.45399 3.70816 3.58333
# Velocity P-wave (km/s) = 5.41284 5.77243 5.59552
#
# Compressibility (1/GPa) = 0.03196109
#
# Stress axis : x y z
#
# Youngs Moduli (GPa) = 52.81435 65.40159 84.34249
#
# Poissons Ratio (x) = 0.24890 -0.14389
# Poissons Ratio (y) = 0.20099 0.41835
# Poissons Ratio (z) = -0.09010 0.32440
#
# Static dielectric constant tensor:
#      x y z
#    x 1.913750 0.000000 0.000000 
#    y 0.000000 1.901720 0.000000 
#    z 0.000000 0.000000 1.867900 
# 
# From -- ./inp_files/552.got.cif
#   From: 2010.05.17/outbox.cif.g08.bks.cpg/sg61_1_cif.got.tgz:552.got - 2010.06.03 15:17:17.
