data_PCOD9460068
_publ_section_title
;
Structure prediction by ZEFSAII (Michael W. Deem and Ramdas Pophale) SiO2 
 PCOD9460068
Probable space group: P B C A
;
_chemical_formula_sum "Si O2"
_cell_formula_units_Z 32
_cell_length_a 8.783304
_cell_length_b 10.313276
_cell_length_c 14.163117
_cell_angle_alpha 90.000000
_cell_angle_beta 90.000000
_cell_angle_gamma 90.000000
_cell_volume 1282.960831
_symmetry_space_group_name_H-M "P B C A"
_symmetry_group_IT_number 61
_symmetry_cell_setting 'orthorhombic'
loop_
_space_group_symop_operation_xyz
x,y,z
1/2-x,-y,1/2+z
1/2+x,1/2-y,-z
-x,1/2+y,1/2-z
-x,-y,-z
1/2+x,y,1/2-z
1/2-x,1/2+y,z
x,1/2-y,1/2+z
loop_
_atom_site_type_symbol
_atom_site_label
_atom_site_fract_x
_atom_site_fract_y
_atom_site_fract_z
Si Si1 0.640608 0.703845 0.692053
Si Si2 0.346324 0.679942 0.165309
Si Si3 0.365001 0.806368 0.969458
Si Si4 0.404014 0.486072 0.620709
O O1 0.750596 0.707413 0.782010
O O2 0.512373 0.814202 0.708771
O O3 0.744975 0.752591 0.605295
O O4 0.538058 0.578226 0.663636
O O5 0.242375 0.556496 0.179850
O O6 0.375698 0.704147 0.054575
O O7 0.518394 0.852133 0.916649
O O8 0.335566 0.937678 0.029529
#
# Coordination Sequence:
#
# PCOD9460068 Si02
#       4
#     8   8   8   8
#     4  11  25  42  66  97 133 174 221 272 325 396
#     4  11  23  41  66  97 131 174 222 267 325 396
#     4  10  21  41  67  93 128 171 217 269 327 390
#     4  10  23  45  67  94 136 174 216 277 331 383
#
# _framework density 24.942304
#
# number of rings (size 3 to 8) (size 9 to 14) (size 15 to 20)
#    0.000    1.500    0.000    6.000    0.000    9.000 
#    0.000    7.500    0.000    0.000    0.000    0.000 
#    0.000    0.000    0.000    0.000    0.000    0.000 
#
# Total GULP energy -178519.502089 kJ/mol
# GULP energy per Si atom -5578.734440 kJ/mol
# Density = 2.488553 g / cm^3
# Si number density = 24.942304 Si / 1000 Ang^3
#
#
#
# Elastic Constant Matrix: (Units=GPa)
#
#
# Indices 1 2 3 4 5 6 
#
# 1 51.7278 -0.1499 4.5311 0.0000 0.0000 0.0000
# 2 -0.1499 56.7661 12.5229 0.0000 0.0000 0.0000
# 3 4.5311 12.5229 96.3561 0.0000 0.0000 0.0000
# 4 0.0000 0.0000 0.0000 25.8465 0.0000 0.0000
# 5 0.0000 0.0000 0.0000 0.0000 42.4027 0.0000
# 6 0.0000 0.0000 0.0000 0.0000 0.0000 51.8973
#
#
#
# Elastic Compliance Matrix: (Units=1/GPa)
#
#
# Indices 1 2 3 4 5 6 
#
# 1 0.019416 0.000260 -0.000947 0.000000 0.000000 0.000000
# 2 0.000260 0.018140 -0.002370 0.000000 0.000000 0.000000
# 3 -0.000947 -0.002370 0.010731 0.000000 0.000000 0.000000
# 4 0.000000 0.000000 0.000000 0.038690 0.000000 0.000000
# 5 0.000000 0.000000 0.000000 0.000000 0.023583 0.000000
# 6 0.000000 0.000000 0.000000 0.000000 0.000000 0.019269
#
#
# Mechanical properties :
#
#
# Convention : Reuss Voigt Hill
#
# Bulk Modulus (GPa) = 23.71180 26.51758 25.11469
# Shear Modulus (GPa) = 33.33364 36.55903 34.94633
#
# Velocity S-wave (km/s) = 3.65969 3.83266 3.74717
# Velocity P-wave (km/s) = 5.23307 5.49912 5.36775
#
# Compressibility (1/GPa) = 0.04217309
#
# Stress axis : x y z
#
# Youngs Moduli (GPa) = 51.50484 55.12795 93.19079
#
# Poissons Ratio (x) = -0.01434 0.08824
# Poissons Ratio (y) = -0.01340 0.22084
# Poissons Ratio (z) = 0.04877 0.13064
#
# Static dielectric constant tensor:
#      x y z
#    x 1.912070 0.000000 0.000000 
#    y 0.000000 2.045770 0.000000 
#    z 0.000000 0.000000 1.988640 
# 
# From -- ./inp_files/2000.got.cif
#   From: 2010.05.17/outbox.cif.g08.bks.cpg/sg61_1_cif.got.tgz:2000.got - 2010.06.03 15:17:17.
