data_PCOD9460856
_publ_section_title
;
Structure prediction by ZEFSAII (Michael W. Deem and Ramdas Pophale) SiO2 
 PCOD9460856
Probable space group: P B C A
;
_chemical_formula_sum "Si O2"
_cell_formula_units_Z 56
_cell_length_a 10.448773
_cell_length_b 19.573619
_cell_length_c 11.999097
_cell_angle_alpha 90.000000
_cell_angle_beta 90.000000
_cell_angle_gamma 90.000000
_cell_volume 2454.058939
_symmetry_space_group_name_H-M "P B C A"
_symmetry_group_IT_number 61
_symmetry_cell_setting 'orthorhombic'
loop_
_space_group_symop_operation_xyz
x,y,z
1/2-x,-y,1/2+z
1/2+x,1/2-y,-z
-x,1/2+y,1/2-z
-x,-y,-z
1/2+x,y,1/2-z
1/2-x,1/2+y,z
x,1/2-y,1/2+z
loop_
_atom_site_type_symbol
_atom_site_label
_atom_site_fract_x
_atom_site_fract_y
_atom_site_fract_z
Si Si1 0.180755 0.667941 0.529460
Si Si2 0.942629 0.405822 0.068593
Si Si3 0.941111 0.198894 0.190950
Si Si4 0.810719 0.633335 0.280713
Si Si5 0.780797 0.685665 0.521586
Si Si6 0.829185 0.951638 0.582511
Si Si7 0.516750 0.340312 0.217305
O O1 0.070490 0.685507 0.439929
O O2 0.275870 0.733483 0.513345
O O3 0.235643 0.595318 0.491072
O O4 0.116654 0.659123 0.648728
O O5 0.863254 0.336682 0.052623
O O6 0.841286 0.467658 0.072765
O O7 0.018109 0.397834 0.186506
O O8 0.035808 0.423495 0.966623
O O9 0.797662 0.186617 0.236992
O O10 0.008813 0.269155 0.218649
O O11 0.041341 0.148029 0.247345
O O12 0.805568 0.639771 0.412520
O O13 0.787975 0.565906 0.208999
O O14 0.870702 0.666496 0.625974
#
# Coordination Sequence:
#
# PCOD9460856 Si02
#       7
#     8   8   8   8   8   8   8
#     4  11  24  42  71 106 141 179 239 294 358 426
#     4  11  27  49  70 101 143 197 237 299 362 442
#     4  11  22  40  66 104 142 178 225 293 361 418
#     4  11  23  42  71 103 140 184 232 293 361 431
#     4  12  25  43  73 109 140 183 242 299 366 428
#     4  10  26  49  71  98 144 193 238 289 370 434
#     4  12  25  41  70 108 139 182 235 297 359 432
#
# _framework density 22.819337999999998
#
# number of rings (size 3 to 8) (size 9 to 14) (size 15 to 20)
#    0.000    0.857    4.286    2.571    6.000    1.143 
#    7.714    1.429    0.000    0.000    0.000    0.000 
#    0.000    0.000    0.000    0.000    0.000    0.000 
#
# Total GULP energy -312270.375737 kJ/mol
# GULP energy per Si atom -5576.256710 kJ/mol
# Density = 2.276740 g / cm^3
# Si number density = 22.819338 Si / 1000 Ang^3
#
#
#
# Elastic Constant Matrix: (Units=GPa)
#
#
# Indices 1 2 3 4 5 6 
#
# 1 53.7137 -5.1806 23.9678 0.0000 0.0000 0.0000
# 2 -5.1806 20.4573 19.3295 0.0000 0.0000 0.0000
# 3 23.9678 19.3295 119.0949 0.0000 0.0000 0.0000
# 4 0.0000 0.0000 0.0000 0.4940 0.0000 0.0000
# 5 0.0000 0.0000 0.0000 0.0000 31.7234 0.0000
# 6 0.0000 0.0000 0.0000 0.0000 0.0000 22.5165
#
#
#
# Elastic Compliance Matrix: (Units=1/GPa)
#
#
# Indices 1 2 3 4 5 6 
#
# 1 0.022655 0.011865 -0.006485 0.000000 0.000000 0.000000
# 2 0.011865 0.063950 -0.012767 0.000000 0.000000 0.000000
# 3 -0.006485 -0.012767 0.011774 0.000000 0.000000 0.000000
# 4 0.000000 0.000000 0.000000 2.024284 0.000000 0.000000
# 5 0.000000 0.000000 0.000000 0.000000 0.031523 0.000000
# 6 0.000000 0.000000 0.000000 0.000000 0.000000 0.044412
#
#
# Mechanical properties :
#
#
# Convention : Reuss Voigt Hill
#
# Bulk Modulus (GPa) = 11.96108 29.94436 20.95272
# Shear Modulus (GPa) = 2.23091 21.29006 11.76048
#
# Velocity S-wave (km/s) = 0.98983 3.05779 2.27265
# Velocity P-wave (km/s) = 2.56113 5.06139 4.01105
#
# Compressibility (1/GPa) = 0.08360451
#
# Stress axis : x y z
#
# Youngs Moduli (GPa) = 44.13983 15.63720 84.93342
#
# Poissons Ratio (x) = -0.18553 0.55080
# Poissons Ratio (y) = -0.52371 1.08435
# Poissons Ratio (z) = 0.28625 0.19964
#
# Static dielectric constant tensor:
#      x y z
#    x 1.961960 0.000000 0.000000 
#    y 0.000000 1.823000 0.000000 
#    z 0.000000 0.000000 1.795100 
# 
# From -- ./inp_files/5323.got.cif
#   From: 2010.05.17/outbox.cif.g08.bks.cpg/sg61_3_cif.got.tgz:5323.got - 2010.06.03 15:17:17.
