data_PCOD9460264
_publ_section_title
;
Structure prediction by ZEFSAII (Michael W. Deem and Ramdas Pophale) SiO2 
 PCOD9460264
Probable space group: P B C A
;
_chemical_formula_sum "Si O2"
_cell_formula_units_Z 40
_cell_length_a 23.496907
_cell_length_b 5.459510
_cell_length_c 13.347767
_cell_angle_alpha 90.000000
_cell_angle_beta 90.000000
_cell_angle_gamma 90.000000
_cell_volume 1712.272890
_symmetry_space_group_name_H-M "P B C A"
_symmetry_group_IT_number 61
_symmetry_cell_setting 'orthorhombic'
loop_
_space_group_symop_operation_xyz
x,y,z
1/2-x,-y,1/2+z
1/2+x,1/2-y,-z
-x,1/2+y,1/2-z
-x,-y,-z
1/2+x,y,1/2-z
1/2-x,1/2+y,z
x,1/2-y,1/2+z
loop_
_atom_site_type_symbol
_atom_site_label
_atom_site_fract_x
_atom_site_fract_y
_atom_site_fract_z
Si Si1 0.397851 0.543459 0.288034
Si Si2 0.081634 0.397046 0.573362
Si Si3 0.450520 0.052178 0.363698
Si Si4 0.159629 0.472645 0.990283
Si Si5 0.758058 0.245591 0.890185
O O1 0.381691 0.552235 0.172129
O O2 0.432996 0.293393 0.303841
O O3 0.348940 0.524369 0.371978
O O4 0.432517 0.795298 0.312298
O O5 0.082192 0.550872 0.470745
O O6 0.100570 0.126072 0.537155
O O7 0.017056 0.426401 0.611820
O O8 0.208007 0.278061 0.025932
O O9 0.184923 0.707811 0.046460
O O10 0.748440 0.495619 0.831044
#
# Coordination Sequence:
#
# PCOD9460264 Si02
#       5
#     8   8   8   8   8
#     4  11  23  39  61  88 121 160 203 247 302 369
#     4  10  22  40  62  91 117 165 204 245 305 367
#     4  10  24  40  58  88 129 156 197 258 301 354
#     4   9  21  37  61  82 117 152 194 243 296 349
#     4   8  18  36  58  76 116 150 182 250 300 332
#
# _framework density 23.360762000000001
#
# number of rings (size 3 to 8) (size 9 to 14) (size 15 to 20)
#    1.200    1.200    0.000    1.200    5.600   10.400 
#    0.000    2.000    0.000    0.000    0.000    0.000 
#    0.000    0.000    0.000    0.000    0.000    0.000 
#
# Total GULP energy -222855.977350 kJ/mol
# GULP energy per Si atom -5571.399434 kJ/mol
# Density = 2.330759 g / cm^3
# Si number density = 23.360762 Si / 1000 Ang^3
#
#
#
# Elastic Constant Matrix: (Units=GPa)
#
#
# Indices 1 2 3 4 5 6 
#
# 1 69.7019 23.4781 7.8442 0.0000 0.0000 0.0000
# 2 23.4781 150.9037 34.1050 0.0000 0.0000 0.0000
# 3 7.8442 34.1050 138.8749 0.0000 0.0000 0.0000
# 4 0.0000 0.0000 0.0000 16.8404 0.0000 0.0000
# 5 0.0000 0.0000 0.0000 0.0000 20.2165 0.0000
# 6 0.0000 0.0000 0.0000 0.0000 0.0000 23.5348
#
#
#
# Elastic Compliance Matrix: (Units=1/GPa)
#
#
# Indices 1 2 3 4 5 6 
#
# 1 0.015152 -0.002291 -0.000293 0.000000 0.000000 0.000000
# 2 -0.002291 0.007363 -0.001679 0.000000 0.000000 0.000000
# 3 -0.000293 -0.001679 0.007630 0.000000 0.000000 0.000000
# 4 0.000000 0.000000 0.000000 0.059381 0.000000 0.000000
# 5 0.000000 0.000000 0.000000 0.000000 0.049464 0.000000
# 6 0.000000 0.000000 0.000000 0.000000 0.000000 0.042490
#
#
# Mechanical properties :
#
#
# Convention : Reuss Voigt Hill
#
# Bulk Modulus (GPa) = 46.25823 54.48167 50.36995
# Shear Modulus (GPa) = 25.35351 31.72188 28.53769
#
# Velocity S-wave (km/s) = 3.29797 3.68898 3.49894
# Velocity P-wave (km/s) = 5.86061 6.44339 6.15890
#
# Compressibility (1/GPa) = 0.02161777
#
# Stress axis : x y z
#
# Youngs Moduli (GPa) = 65.99998 135.82177 131.06944
#
# Poissons Ratio (x) = 0.31118 0.03843
# Poissons Ratio (y) = 0.15121 0.22003
# Poissons Ratio (z) = 0.01935 0.22800
#
# Static dielectric constant tensor:
#      x y z
#    x 1.918230 0.000000 0.000000 
#    y 0.000000 1.989160 0.000000 
#    z 0.000000 0.000000 1.819990 
# 
# From -- ./inp_files/8620.got.cif
#   From: 2010.05.17/outbox.cif.g08.bks.cpg/sg61_5_cif.got.tgz:8620.got - 2010.06.03 15:17:17.
