data_PCOD9460648
_publ_section_title
;
Structure prediction by ZEFSAII (Michael W. Deem and Ramdas Pophale) SiO2 
 PCOD9460648
Probable space group: P B C A
;
_chemical_formula_sum "Si O2"
_cell_formula_units_Z 48
_cell_length_a 6.934864
_cell_length_b 9.988434
_cell_length_c 26.428067
_cell_angle_alpha 90.000000
_cell_angle_beta 90.000000
_cell_angle_gamma 90.000000
_cell_volume 1830.630745
_symmetry_space_group_name_H-M "P B C A"
_symmetry_group_IT_number 61
_symmetry_cell_setting 'orthorhombic'
loop_
_space_group_symop_operation_xyz
x,y,z
1/2-x,-y,1/2+z
1/2+x,1/2-y,-z
-x,1/2+y,1/2-z
-x,-y,-z
1/2+x,y,1/2-z
1/2-x,1/2+y,z
x,1/2-y,1/2+z
loop_
_atom_site_type_symbol
_atom_site_label
_atom_site_fract_x
_atom_site_fract_y
_atom_site_fract_z
Si Si1 0.140970 0.292928 0.151444
Si Si2 0.224556 0.075248 0.973686
Si Si3 0.451757 0.126359 0.196667
Si Si4 0.046998 0.927918 0.213473
Si Si5 0.781913 0.034588 0.636413
Si Si6 0.165974 0.338349 0.036152
O O1 0.232810 0.164310 0.178674
O O2 0.250730 0.407183 0.184102
O O3 0.916610 0.333634 0.147144
O O4 0.213693 0.296986 0.093324
O O5 0.170102 0.040262 0.916623
O O6 0.159297 0.212350 0.998959
O O7 0.199518 0.952408 0.012133
O O8 0.453979 0.097921 0.963626
O O9 0.509090 0.270614 0.221551
O O10 0.531734 0.018842 0.237212
O O11 0.569557 0.088098 0.145453
O O12 0.883793 0.980277 0.176790
#
# Coordination Sequence:
#
# PCOD9460648 Si02
#       6
#     8   8   8   8   8   8
#     4   9  25  50  74 107 154 193 247 306 377 438
#     4  10  25  43  76 111 148 190 247 296 375 448
#     4  10  26  50  73 108 150 191 256 308 374 444
#     4  10  26  51  76 105 152 193 254 311 372 450
#     4  11  25  49  75 112 147 203 243 317 371 454
#     4  10  23  45  75 107 152 192 239 307 363 445
#
# _framework density 26.220466999999999
#
# number of rings (size 3 to 8) (size 9 to 14) (size 15 to 20)
#    1.000    1.000    0.000    0.000   14.000    3.333 
#    6.000    0.000    0.000    0.000    0.000    0.000 
#    0.000    0.000    0.000    0.000    0.000    0.000 
#
# Total GULP energy -268237.783855 kJ/mol
# GULP energy per Si atom -5588.287164 kJ/mol
# Density = 2.616079 g / cm^3
# Si number density = 26.220467 Si / 1000 Ang^3
#
#
#
# Elastic Constant Matrix: (Units=GPa)
#
#
# Indices 1 2 3 4 5 6 
#
# 1 87.2291 -14.3588 35.1335 0.0000 0.0000 0.0000
# 2 -14.3588 95.9307 18.9644 0.0000 0.0000 0.0000
# 3 35.1335 18.9644 148.9439 0.0000 0.0000 0.0000
# 4 0.0000 0.0000 0.0000 7.9296 0.0000 0.0000
# 5 0.0000 0.0000 0.0000 0.0000 40.2525 0.0000
# 6 0.0000 0.0000 0.0000 0.0000 0.0000 53.1531
#
#
#
# Elastic Compliance Matrix: (Units=1/GPa)
#
#
# Indices 1 2 3 4 5 6 
#
# 1 0.013307 0.002680 -0.003480 0.000000 0.000000 0.000000
# 2 0.002680 0.011233 -0.002062 0.000000 0.000000 0.000000
# 3 -0.003480 -0.002062 0.007797 0.000000 0.000000 0.000000
# 4 0.000000 0.000000 0.000000 0.126110 0.000000 0.000000
# 5 0.000000 0.000000 0.000000 0.000000 0.024843 0.000000
# 6 0.000000 0.000000 0.000000 0.000000 0.000000 0.018814
#
#
# Mechanical properties :
#
#
# Convention : Reuss Voigt Hill
#
# Bulk Modulus (GPa) = 37.57720 45.73130 41.65425
# Shear Modulus (GPa) = 23.07341 39.75802 31.41571
#
# Velocity S-wave (km/s) = 2.96966 3.89819 3.46517
# Velocity P-wave (km/s) = 5.11086 6.14330 5.65071
#
# Compressibility (1/GPa) = 0.02661188
#
# Stress axis : x y z
#
# Youngs Moduli (GPa) = 75.14926 89.02343 128.24757
#
# Poissons Ratio (x) = -0.23856 0.44631
# Poissons Ratio (y) = -0.20138 0.26449
# Poissons Ratio (z) = 0.26152 0.18360
#
# Static dielectric constant tensor:
#      x y z
#    x 2.179270 0.000000 0.000000 
#    y 0.000000 2.221220 0.000000 
#    z 0.000000 0.000000 2.391510 
# 
# From -- ./inp_files/11337.got.cif
#   From: 2010.05.17/outbox.cif.g08.bks.cpg/sg61_6_cif.got.tgz:11337.got - 2010.06.03 15:17:17.
