data_PCOD9460676
_publ_section_title
;
Structure prediction by ZEFSAII (Michael W. Deem and Ramdas Pophale) SiO2 
 PCOD9460676
Probable space group: P B C A
;
_chemical_formula_sum "Si O2"
_cell_formula_units_Z 40
_cell_length_a 12.334418
_cell_length_b 9.057420
_cell_length_c 13.705653
_cell_angle_alpha 90.000000
_cell_angle_beta 90.000000
_cell_angle_gamma 90.000000
_cell_volume 1531.168201
_symmetry_space_group_name_H-M "P B C A"
_symmetry_group_IT_number 61
_symmetry_cell_setting 'orthorhombic'
loop_
_space_group_symop_operation_xyz
x,y,z
1/2-x,-y,1/2+z
1/2+x,1/2-y,-z
-x,1/2+y,1/2-z
-x,-y,-z
1/2+x,y,1/2-z
1/2-x,1/2+y,z
x,1/2-y,1/2+z
loop_
_atom_site_type_symbol
_atom_site_label
_atom_site_fract_x
_atom_site_fract_y
_atom_site_fract_z
Si Si1 0.499852 0.598836 0.639565
Si Si2 0.693280 0.218795 0.336433
Si Si3 0.864151 0.072919 0.946327
Si Si4 0.704696 0.802694 0.642204
Si Si5 0.946007 0.788743 0.578794
O O1 0.407019 0.680691 0.701220
O O2 0.617870 0.671154 0.653047
O O3 0.462001 0.641193 0.529549
O O4 0.511600 0.423322 0.647558
O O5 0.647813 0.088472 0.403195
O O6 0.773646 0.324431 0.395483
O O7 0.762049 0.145408 0.249396
O O8 0.023068 0.851623 0.081589
O O9 0.844945 0.087961 0.062029
O O10 0.820985 0.758528 0.598254
#
# Coordination Sequence:
#
# PCOD9460676 Si02
#       5
#     8   8   8   8   8
#     4  10  24  48  75 110 148 193 248 311 371 451
#     4  12  27  47  73 109 151 197 256 304 372 449
#     4  11  27  49  73 110 151 199 248 314 365 450
#     4  11  27  44  79 109 148 198 248 309 381 437
#     4  10  23  47  76 106 152 192 241 313 384 436
#
# _framework density 26.123844999999999
#
# number of rings (size 3 to 8) (size 9 to 14) (size 15 to 20)
#    0.000    1.200    2.000    1.200   11.200    4.800 
#    0.000    0.000    0.000    0.000    0.000    0.000 
#    0.000    0.000    0.000    0.000    0.000    0.000 
#
# Total GULP energy -224407.113031 kJ/mol
# GULP energy per Si atom -5610.177826 kJ/mol
# Density = 2.606439 g / cm^3
# Si number density = 26.123845 Si / 1000 Ang^3
#
#
#
# Elastic Constant Matrix: (Units=GPa)
#
#
# Indices 1 2 3 4 5 6 
#
# 1 199.6673 75.1044 24.3964 0.0000 0.0000 0.0000
# 2 75.1044 149.0745 47.1381 0.0000 0.0000 0.0000
# 3 24.3964 47.1381 91.1114 0.0000 0.0000 0.0000
# 4 0.0000 0.0000 0.0000 21.1592 0.0000 0.0000
# 5 0.0000 0.0000 0.0000 0.0000 31.4817 0.0000
# 6 0.0000 0.0000 0.0000 0.0000 0.0000 40.2340
#
#
#
# Elastic Compliance Matrix: (Units=1/GPa)
#
#
# Indices 1 2 3 4 5 6 
#
# 1 0.006180 -0.003097 -0.000053 0.000000 0.000000 0.000000
# 2 -0.003097 0.009572 -0.004123 0.000000 0.000000 0.000000
# 3 -0.000053 -0.004123 0.013123 0.000000 0.000000 0.000000
# 4 0.000000 0.000000 0.000000 0.047261 0.000000 0.000000
# 5 0.000000 0.000000 0.000000 0.000000 0.031765 0.000000
# 6 0.000000 0.000000 0.000000 0.000000 0.000000 0.024855
#
#
# Mechanical properties :
#
#
# Convention : Reuss Voigt Hill
#
# Bulk Modulus (GPa) = 69.78492 81.45902 75.62197
# Shear Modulus (GPa) = 32.87850 38.12260 35.50055
#
# Velocity S-wave (km/s) = 3.55147 3.82423 3.69037
# Velocity P-wave (km/s) = 6.60215 7.12385 6.86795
#
# Compressibility (1/GPa) = 0.01432974
#
# Stress axis : x y z
#
# Youngs Moduli (GPa) = 161.82382 104.47256 76.20352
#
# Poissons Ratio (x) = 0.32352 0.00400
# Poissons Ratio (y) = 0.50112 0.31419
# Poissons Ratio (z) = 0.00850 0.43074
#
# Static dielectric constant tensor:
#      x y z
#    x 1.996450 0.000000 0.000000 
#    y 0.000000 1.982360 0.000000 
#    z 0.000000 0.000000 2.171610 
# 
# From -- ./inp_files/7721.got.cif
#   From: 2010.05.17/outbox.cif.g08.bks.cpg/sg61_4_cif.got.tgz:7721.got - 2010.06.03 15:17:17.
