data_PCOD9460795
_publ_section_title
;
Structure prediction by ZEFSAII (Michael W. Deem and Ramdas Pophale) SiO2 
 PCOD9460795
Probable space group: P B C A
;
_chemical_formula_sum "Si O2"
_cell_formula_units_Z 64
_cell_length_a 10.185368
_cell_length_b 31.440499
_cell_length_c 8.481089
_cell_angle_alpha 90.000000
_cell_angle_beta 90.000000
_cell_angle_gamma 90.000000
_cell_volume 2715.925018
_symmetry_space_group_name_H-M "P B C A"
_symmetry_group_IT_number 61
_symmetry_cell_setting 'orthorhombic'
loop_
_space_group_symop_operation_xyz
x,y,z
1/2-x,-y,1/2+z
1/2+x,1/2-y,-z
-x,1/2+y,1/2-z
-x,-y,-z
1/2+x,y,1/2-z
1/2-x,1/2+y,z
x,1/2-y,1/2+z
loop_
_atom_site_type_symbol
_atom_site_label
_atom_site_fract_x
_atom_site_fract_y
_atom_site_fract_z
Si Si1 0.864557 0.740351 0.243662
Si Si2 0.259274 0.689100 0.988201
Si Si3 0.470107 0.688516 0.534006
Si Si4 0.597212 0.574907 0.240050
Si Si5 0.153773 0.099630 0.044871
Si Si6 0.154857 0.955015 0.332381
Si Si7 0.426205 0.903899 0.050533
Si Si8 0.772448 0.025205 0.996140
O O1 0.763712 0.713351 0.346045
O O2 0.950112 0.770456 0.356648
O O3 0.795337 0.774503 0.133613
O O4 0.941813 0.706502 0.139068
O O5 0.351670 0.648716 0.993244
O O6 0.116684 0.672064 0.952708
O O7 0.391321 0.645694 0.569315
O O8 0.736650 0.594296 0.311210
O O9 0.493114 0.589430 0.103312
O O10 0.504211 0.584388 0.389485
O O11 0.644022 0.531033 0.155824
O O12 0.219092 0.072159 0.901269
O O13 0.155483 0.981521 0.168787
O O14 0.030216 0.923925 0.327278
O O15 0.158612 0.991462 0.467399
O O16 0.292779 0.929631 0.041030
#
# Coordination Sequence:
#
# PCOD9460795 Si02
#       8
#     8   8   8   8   8   8   8   8
#     4  10  25  39  65  99 132 180 221 286 348 410
#     4  11  22  43  65  95 136 175 231 279 346 416
#     4  11  22  43  68  96 140 176 229 285 345 410
#     4  11  23  45  71 102 133 186 226 281 348 404
#     4  11  24  45  73 101 141 181 235 287 345 421
#     4  11  26  46  68 103 138 184 226 295 345 420
#     4  11  24  44  71 100 141 180 236 287 346 416
#     4  12  27  45  71 101 140 182 235 287 353 418
#
# _framework density 23.564713999999999
#
# number of rings (size 3 to 8) (size 9 to 14) (size 15 to 20)
#    0.000    1.000    3.750    3.375    3.500    0.500 
#    0.000    0.000    0.000    0.000    0.000    0.000 
#    0.000    0.000    0.000    0.000    0.000    0.000 
#
# Total GULP energy -356717.767752 kJ/mol
# GULP energy per Si atom -5573.715121 kJ/mol
# Density = 2.351108 g / cm^3
# Si number density = 23.564714 Si / 1000 Ang^3
#
#
#
# Elastic Constant Matrix: (Units=GPa)
#
#
# Indices 1 2 3 4 5 6 
#
# 1 57.3662 -0.3939 -11.3324 0.0000 0.0000 0.0000
# 2 -0.3939 75.1348 -14.1049 0.0000 0.0000 0.0000
# 3 -11.3324 -14.1049 73.5450 0.0000 0.0000 0.0000
# 4 0.0000 0.0000 0.0000 194.7390 0.0000 0.0000
# 5 0.0000 0.0000 0.0000 0.0000 2.5381 0.0000
# 6 0.0000 0.0000 0.0000 0.0000 0.0000 39.3410
#
#
#
# Elastic Compliance Matrix: (Units=1/GPa)
#
#
# Indices 1 2 3 4 5 6 
#
# 1 0.018009 0.000638 0.002897 0.000000 0.000000 0.000000
# 2 0.000638 0.013829 0.002751 0.000000 0.000000 0.000000
# 3 0.002897 0.002751 0.014571 0.000000 0.000000 0.000000
# 4 0.000000 0.000000 0.000000 0.005135 0.000000 0.000000
# 5 0.000000 0.000000 0.000000 0.000000 0.393997 0.000000
# 6 0.000000 0.000000 0.000000 0.000000 0.000000 0.025419
#
#
# Mechanical properties :
#
#
# Convention : Reuss Voigt Hill
#
# Bulk Modulus (GPa) = 16.95453 17.15373 17.05413
# Shear Modulus (GPa) = 10.45921 62.78209 36.62065
#
# Velocity S-wave (km/s) = 2.10906 5.16723 3.94642
# Velocity P-wave (km/s) = 3.62510 6.54947 5.29325
#
# Compressibility (1/GPa) = 0.05898129
#
# Stress axis : x y z
#
# Youngs Moduli (GPa) = 55.52901 72.31113 68.62911
#
# Poissons Ratio (x) = -0.04616 -0.19884
# Poissons Ratio (y) = -0.03545 -0.18877
# Poissons Ratio (z) = -0.16089 -0.19890
#
# Static dielectric constant tensor:
#      x y z
#    x 1.923580 0.000000 0.000000 
#    y 0.000000 1.876480 0.000000 
#    z 0.000000 0.000000 2.026880 
# 
# From -- ./inp_files/2449.got.cif
#   From: 2010.05.17/outbox.cif.g08.bks.cpg/sg61_2_cif.got.tgz:2449.got - 2010.06.03 15:17:17.
