data_PCOD9460222
_publ_section_title
;
Structure prediction by ZEFSAII (Michael W. Deem and Ramdas Pophale) SiO2 
 PCOD9460222
Probable space group: P B C A
;
_chemical_formula_sum "Si O2"
_cell_formula_units_Z 56
_cell_length_a 18.960658
_cell_length_b 14.233814
_cell_length_c 8.789758
_cell_angle_alpha 90.000000
_cell_angle_beta 90.000000
_cell_angle_gamma 90.000000
_cell_volume 2372.201681
_symmetry_space_group_name_H-M "P B C A"
_symmetry_group_IT_number 61
_symmetry_cell_setting 'orthorhombic'
loop_
_space_group_symop_operation_xyz
x,y,z
1/2-x,-y,1/2+z
1/2+x,1/2-y,-z
-x,1/2+y,1/2-z
-x,-y,-z
1/2+x,y,1/2-z
1/2-x,1/2+y,z
x,1/2-y,1/2+z
loop_
_atom_site_type_symbol
_atom_site_label
_atom_site_fract_x
_atom_site_fract_y
_atom_site_fract_z
Si Si1 0.299377 0.019889 0.241659
Si Si2 0.606072 0.765785 0.333974
Si Si3 0.722370 0.377802 0.020719
Si Si4 0.294536 0.185776 0.415898
Si Si5 0.962901 0.514662 0.738203
Si Si6 0.991599 0.326392 0.070463
Si Si7 0.062205 0.125099 0.070126
O O1 0.274657 0.059056 0.080643
O O2 0.262380 0.088192 0.366183
O O3 0.280745 0.916856 0.305779
O O4 0.383872 0.026319 0.260112
O O5 0.668267 0.719089 0.239123
O O6 0.642619 0.827708 0.463333
O O7 0.554220 0.693362 0.419898
O O8 0.564325 0.821777 0.207523
O O9 0.646108 0.386013 0.940944
O O10 0.745467 0.269569 0.028638
O O11 0.964509 0.586025 0.593159
O O12 0.970881 0.575923 0.892187
O O13 0.022341 0.437428 0.697248
O O14 0.041219 0.234515 0.085339
#
# Coordination Sequence:
#
# PCOD9460222 Si02
#       7
#     8   8   8   8   8   8   8
#     4  11  26  47  70 104 143 190 246 292 371 443
#     4  10  22  38  72 100 130 186 228 283 347 433
#     4  11  27  44  72 103 141 196 238 305 364 430
#     4  11  23  45  69  95 143 187 238 277 360 434
#     4  10  22  44  72  99 146 186 233 301 363 432
#     4  11  21  41  71 105 137 178 237 293 363 415
#     4  10  23  43  67 104 140 190 234 294 367 420
#
# _framework density 23.606760000000001
#
# number of rings (size 3 to 8) (size 9 to 14) (size 15 to 20)
#    0.000    1.429    2.857    1.714    6.000    4.571 
#    2.571    1.429    0.000    0.000    0.000    0.000 
#    0.000    0.000    0.000    0.000    0.000    0.000 
#
# Total GULP energy -312893.672632 kJ/mol
# GULP energy per Si atom -5587.387011 kJ/mol
# Density = 2.355303 g / cm^3
# Si number density = 23.606760 Si / 1000 Ang^3
#
#
#
# Elastic Constant Matrix: (Units=GPa)
#
#
# Indices 1 2 3 4 5 6 
#
# 1 72.8163 33.7804 -0.1299 0.0000 0.0000 0.0000
# 2 33.7804 98.0590 10.9998 0.0000 0.0000 0.0000
# 3 -0.1299 10.9998 48.5769 0.0000 0.0000 0.0000
# 4 0.0000 0.0000 0.0000 48.4785 0.0000 0.0000
# 5 0.0000 0.0000 0.0000 0.0000 33.5421 0.0000
# 6 0.0000 0.0000 0.0000 0.0000 0.0000 23.5909
#
#
#
# Elastic Compliance Matrix: (Units=1/GPa)
#
#
# Indices 1 2 3 4 5 6 
#
# 1 0.016433 -0.005813 0.001360 0.000000 0.000000 0.000000
# 2 -0.005813 0.012520 -0.002851 0.000000 0.000000 0.000000
# 3 0.001360 -0.002851 0.021235 0.000000 0.000000 0.000000
# 4 0.000000 0.000000 0.000000 0.020628 0.000000 0.000000
# 5 0.000000 0.000000 0.000000 0.000000 0.029813 0.000000
# 6 0.000000 0.000000 0.000000 0.000000 0.000000 0.042389
#
#
# Mechanical properties :
#
#
# Convention : Reuss Voigt Hill
#
# Bulk Modulus (GPa) = 28.10531 34.30586 31.20559
# Shear Modulus (GPa) = 29.50096 32.77575 31.13835
#
# Velocity S-wave (km/s) = 3.53892 3.73017 3.63580
# Velocity P-wave (km/s) = 5.35071 5.75465 5.55635
#
# Compressibility (1/GPa) = 0.03558046
#
# Stress axis : x y z
#
# Youngs Moduli (GPa) = 60.85488 79.86964 47.09187
#
# Poissons Ratio (x) = 0.46432 -0.06406
# Poissons Ratio (y) = 0.35378 0.13424
# Poissons Ratio (z) = -0.08278 0.22768
#
# Static dielectric constant tensor:
#      x y z
#    x 1.884170 0.000000 0.000000 
#    y 0.000000 2.037970 0.000000 
#    z 0.000000 0.000000 1.907280 
# 
# From -- ./inp_files/3988.got.cif
#   From: 2010.05.17/outbox.cif.g08.bks.cpg/sg61_2_cif.got.tgz:3988.got - 2010.06.03 15:17:17.
