data_PCOD9460800
_publ_section_title
;
Structure prediction by ZEFSAII (Michael W. Deem and Ramdas Pophale) SiO2 
 PCOD9460800
Probable space group: P B C A
;
_chemical_formula_sum "Si O2"
_cell_formula_units_Z 40
_cell_length_a 9.563679
_cell_length_b 7.481731
_cell_length_c 21.545959
_cell_angle_alpha 90.000000
_cell_angle_beta 90.000000
_cell_angle_gamma 90.000000
_cell_volume 1541.675282
_symmetry_space_group_name_H-M "P B C A"
_symmetry_group_IT_number 61
_symmetry_cell_setting 'orthorhombic'
loop_
_space_group_symop_operation_xyz
x,y,z
1/2-x,-y,1/2+z
1/2+x,1/2-y,-z
-x,1/2+y,1/2-z
-x,-y,-z
1/2+x,y,1/2-z
1/2-x,1/2+y,z
x,1/2-y,1/2+z
loop_
_atom_site_type_symbol
_atom_site_label
_atom_site_fract_x
_atom_site_fract_y
_atom_site_fract_z
Si Si1 0.597401 0.843568 0.927107
Si Si2 0.551168 0.200376 0.245320
Si Si3 0.405030 0.319512 0.434800
Si Si4 0.300247 0.130446 0.802946
Si Si5 0.386145 0.541696 0.119979
O O1 0.722618 0.949349 0.894678
O O2 0.565723 0.661803 0.890222
O O3 0.470569 0.981492 0.933952
O O4 0.651749 0.791182 0.996190
O O5 0.645354 0.369628 0.224593
O O6 0.390789 0.250515 0.254712
O O7 0.594139 0.127724 0.312782
O O8 0.609376 0.050367 0.199267
O O9 0.307487 0.303741 0.374013
O O10 0.525365 0.171721 0.424588
#
# Coordination Sequence:
#
# PCOD9460800 Si02
#       5
#     8   8   8   8   8
#     4  11  22  41  68  96 127 179 227 281 347 422
#     4  11  25  42  69 101 132 184 228 282 347 420
#     4  10  25  43  62 100 134 175 230 289 346 411
#     4  11  25  45  68  99 141 177 231 286 351 410
#     4  11  22  41  70  91 133 177 230 279 353 420
#
# _framework density 25.945799000000001
#
# number of rings (size 3 to 8) (size 9 to 14) (size 15 to 20)
#    0.000    1.200    2.000    3.000    8.400    1.600 
#    0.000    0.000    0.000    0.000    0.000    0.000 
#    0.000    0.000    0.000    0.000    0.000    0.000 
#
# Total GULP energy -224077.464917 kJ/mol
# GULP energy per Si atom -5601.936623 kJ/mol
# Density = 2.588675 g / cm^3
# Si number density = 25.945799 Si / 1000 Ang^3
#
#
#
# Elastic Constant Matrix: (Units=GPa)
#
#
# Indices 1 2 3 4 5 6 
#
# 1 66.5168 2.5150 33.6403 0.0000 0.0000 0.0000
# 2 2.5150 126.5842 -10.6069 0.0000 0.0000 0.0000
# 3 33.6403 -10.6069 98.9967 0.0000 0.0000 0.0000
# 4 0.0000 0.0000 0.0000 34.1526 0.0000 0.0000
# 5 0.0000 0.0000 0.0000 0.0000 26.5572 0.0000
# 6 0.0000 0.0000 0.0000 0.0000 0.0000 26.6495
#
#
#
# Elastic Compliance Matrix: (Units=1/GPa)
#
#
# Indices 1 2 3 4 5 6 
#
# 1 0.018253 -0.000890 -0.006298 0.000000 0.000000 0.000000
# 2 -0.000890 0.008015 0.001161 0.000000 0.000000 0.000000
# 3 -0.006298 0.001161 0.012366 0.000000 0.000000 0.000000
# 4 0.000000 0.000000 0.000000 0.029280 0.000000 0.000000
# 5 0.000000 0.000000 0.000000 0.000000 0.037655 0.000000
# 6 0.000000 0.000000 0.000000 0.000000 0.000000 0.037524
#
#
# Mechanical properties :
#
#
# Convention : Reuss Voigt Hill
#
# Bulk Modulus (GPa) = 37.62300 38.13272 37.87786
# Shear Modulus (GPa) = 30.48668 35.24180 32.86424
#
# Velocity S-wave (km/s) = 3.43157 3.68949 3.56286
# Velocity P-wave (km/s) = 5.49845 5.73400 5.61746
#
# Compressibility (1/GPa) = 0.02657949
#
# Stress axis : x y z
#
# Youngs Moduli (GPa) = 54.78687 124.76792 80.86781
#
# Poissons Ratio (x) = 0.11109 0.50929
# Poissons Ratio (y) = 0.04878 -0.09391
# Poissons Ratio (z) = 0.34504 -0.14489
#
# Static dielectric constant tensor:
#      x y z
#    x 1.955270 0.000000 0.000000 
#    y 0.000000 2.195660 0.000000 
#    z 0.000000 0.000000 2.013810 
# 
# From -- ./inp_files/1757.got.cif
#   From: 2010.05.17/outbox.cif.g08.bks.cpg/sg61_1_cif.got.tgz:1757.got - 2010.06.03 15:17:17.
