data_PCOD9460953
_publ_section_title
;
Structure prediction by ZEFSAII (Michael W. Deem and Ramdas Pophale) SiO2 
 PCOD9460953
Probable space group: P B C A
;
_chemical_formula_sum "Si O2"
_cell_formula_units_Z 32
_cell_length_a 13.838068
_cell_length_b 9.263946
_cell_length_c 10.187621
_cell_angle_alpha 90.000000
_cell_angle_beta 90.000000
_cell_angle_gamma 90.000000
_cell_volume 1306.003243
_symmetry_space_group_name_H-M "P B C A"
_symmetry_group_IT_number 61
_symmetry_cell_setting 'orthorhombic'
loop_
_space_group_symop_operation_xyz
x,y,z
1/2-x,-y,1/2+z
1/2+x,1/2-y,-z
-x,1/2+y,1/2-z
-x,-y,-z
1/2+x,y,1/2-z
1/2-x,1/2+y,z
x,1/2-y,1/2+z
loop_
_atom_site_type_symbol
_atom_site_label
_atom_site_fract_x
_atom_site_fract_y
_atom_site_fract_z
Si Si1 0.321844 0.676247 0.228759
Si Si2 0.813423 0.968189 0.131922
Si Si3 0.353288 0.188021 0.575045
Si Si4 0.042929 0.706730 0.315938
O O1 0.282103 0.533668 0.300064
O O2 0.319190 0.800592 0.342210
O O3 0.429951 0.680613 0.175701
O O4 0.241853 0.732660 0.126046
O O5 0.823856 0.032944 0.985663
O O6 0.901374 0.053489 0.204383
O O7 0.427734 0.193475 0.694654
O O8 0.408095 0.260340 0.451105
#
# Coordination Sequence:
#
# PCOD9460953 Si02
#       4
#     8   8   8   8
#     4  11  22  45  70  99 143 182 223 296 341 410
#     4   9  24  40  66 103 132 182 226 280 342 417
#     4   9  22  44  65 106 135 180 241 274 358 409
#     4   9  22  41  67  99 137 179 229 283 343 414
#
# _framework density 24.502234999999999
#
# number of rings (size 3 to 8) (size 9 to 14) (size 15 to 20)
#    1.500    1.000    0.000    0.000    3.500    9.000 
#    0.000    5.000    0.000    0.000    0.000    0.000 
#    0.000    0.000    0.000    0.000    0.000    0.000 
#
# Total GULP energy -178918.608162 kJ/mol
# GULP energy per Si atom -5591.206505 kJ/mol
# Density = 2.444647 g / cm^3
# Si number density = 24.502235 Si / 1000 Ang^3
#
#
#
# Elastic Constant Matrix: (Units=GPa)
#
#
# Indices 1 2 3 4 5 6 
#
# 1 206.6510 10.6675 60.7867 0.0000 0.0000 0.0000
# 2 10.6675 69.9357 2.4092 0.0000 0.0000 0.0000
# 3 60.7867 2.4092 158.9480 0.0000 0.0000 0.0000
# 4 0.0000 0.0000 0.0000 24.4327 0.0000 0.0000
# 5 0.0000 0.0000 0.0000 0.0000 22.8991 0.0000
# 6 0.0000 0.0000 0.0000 0.0000 0.0000 28.3451
#
#
#
# Elastic Compliance Matrix: (Units=1/GPa)
#
#
# Indices 1 2 3 4 5 6 
#
# 1 0.005493 -0.000766 -0.002089 0.000000 0.000000 0.000000
# 2 -0.000766 0.014413 0.000074 0.000000 0.000000 0.000000
# 3 -0.002089 0.000074 0.007089 0.000000 0.000000 0.000000
# 4 0.000000 0.000000 0.000000 0.040929 0.000000 0.000000
# 5 0.000000 0.000000 0.000000 0.000000 0.043670 0.000000
# 6 0.000000 0.000000 0.000000 0.000000 0.000000 0.035280
#
#
# Mechanical properties :
#
#
# Convention : Reuss Voigt Hill
#
# Bulk Modulus (GPa) = 46.65438 64.80685 55.73061
# Shear Modulus (GPa) = 31.33233 39.24678 35.28956
#
# Velocity S-wave (km/s) = 3.57985 4.00655 3.79919
# Velocity P-wave (km/s) = 6.01409 6.92170 6.48380
#
# Compressibility (1/GPa) = 0.02143422
#
# Stress axis : x y z
#
# Youngs Moduli (GPa) = 182.04535 69.38128 141.05988
#
# Poissons Ratio (x) = 0.05314 0.29469
# Poissons Ratio (y) = 0.13943 -0.01050
# Poissons Ratio (z) = 0.38032 -0.00517
#
# Static dielectric constant tensor:
#      x y z
#    x 1.892000 0.000000 0.000000 
#    y 0.000000 2.001960 0.000000 
#    z 0.000000 0.000000 2.009970 
# 
# From -- ./inp_files/5003.got.cif
#   From: 2010.05.17/outbox.cif.g08.bks.cpg/sg61_3_cif.got.tgz:5003.got - 2010.06.03 15:17:17.
