data_PCOD9460840
_publ_section_title
;
Structure prediction by ZEFSAII (Michael W. Deem and Ramdas Pophale) SiO2 
 PCOD9460840
Probable space group: P B C A
;
_chemical_formula_sum "Si O2"
_cell_formula_units_Z 40
_cell_length_a 10.000249
_cell_length_b 29.985004
_cell_length_c 4.971733
_cell_angle_alpha 90.000000
_cell_angle_beta 90.000000
_cell_angle_gamma 90.000000
_cell_volume 1490.811459
_symmetry_space_group_name_H-M "P B C A"
_symmetry_group_IT_number 61
_symmetry_cell_setting 'orthorhombic'
loop_
_space_group_symop_operation_xyz
x,y,z
1/2-x,-y,1/2+z
1/2+x,1/2-y,-z
-x,1/2+y,1/2-z
-x,-y,-z
1/2+x,y,1/2-z
1/2-x,1/2+y,z
x,1/2-y,1/2+z
loop_
_atom_site_type_symbol
_atom_site_label
_atom_site_fract_x
_atom_site_fract_y
_atom_site_fract_z
Si Si1 0.177966 0.357661 0.330900
Si Si2 0.944504 0.347074 0.945829
Si Si3 0.160149 0.505335 0.794538
Si Si4 0.261784 0.779853 0.695780
Si Si5 0.505951 0.927783 0.574426
O O1 0.152692 0.319603 0.558032
O O2 0.121667 0.404269 0.435593
O O3 0.090184 0.347762 0.072443
O O4 0.887451 0.300903 0.829055
O O5 0.837436 0.355755 0.188868
O O6 0.905221 0.451843 0.349034
O O7 0.280124 0.491720 0.590570
O O8 0.053234 0.465508 0.770747
O O9 0.073749 0.611610 0.255581
O O10 0.279543 0.738461 0.493271
#
# Coordination Sequence:
#
# PCOD9460840 Si02
#       5
#     8   8   8   8   8
#     4  10  26  44  79 109 155 205 262 322 387 477
#     4  10  26  46  77 113 154 208 263 323 391 471
#     4  11  28  48  76 113 159 205 266 328 399 481
#     4  10  26  49  75 115 157 208 260 329 393 469
#     4  11  26  46  77 110 159 208 262 326 399 476
#
# _framework density 26.831026000000001
#
# number of rings (size 3 to 8) (size 9 to 14) (size 15 to 20)
#    1.200    0.400    0.000    1.200   14.000    4.800 
#    0.000    0.000    0.000    0.000    0.000    0.000 
#    0.000    0.000    0.000    0.000    0.000    0.000 
#
# Total GULP energy -224171.157024 kJ/mol
# GULP energy per Si atom -5604.278926 kJ/mol
# Density = 2.676996 g / cm^3
# Si number density = 26.831026 Si / 1000 Ang^3
#
#
#
# Elastic Constant Matrix: (Units=GPa)
#
#
# Indices 1 2 3 4 5 6 
#
# 1 37.2742 22.1434 36.2704 0.0000 0.0000 0.0000
# 2 22.1434 140.2849 17.6045 0.0000 0.0000 0.0000
# 3 36.2704 17.6045 114.0056 0.0000 0.0000 0.0000
# 4 0.0000 0.0000 0.0000 30.5972 0.0000 0.0000
# 5 0.0000 0.0000 0.0000 0.0000 39.5292 0.0000
# 6 0.0000 0.0000 0.0000 0.0000 0.0000 56.0966
#
#
#
# Elastic Compliance Matrix: (Units=1/GPa)
#
#
# Indices 1 2 3 4 5 6 
#
# 1 0.042113 -0.005064 -0.012616 0.000000 0.000000 0.000000
# 2 -0.005064 0.007878 0.000395 0.000000 0.000000 0.000000
# 3 -0.012616 0.000395 0.012724 0.000000 0.000000 0.000000
# 4 0.000000 0.000000 0.000000 0.032683 0.000000 0.000000
# 5 0.000000 0.000000 0.000000 0.000000 0.025298 0.000000
# 6 0.000000 0.000000 0.000000 0.000000 0.000000 0.017826
#
#
# Mechanical properties :
#
#
# Convention : Reuss Voigt Hill
#
# Bulk Modulus (GPa) = 35.53123 49.28904 42.41014
# Shear Modulus (GPa) = 27.40099 39.61437 33.50768
#
# Velocity S-wave (km/s) = 3.19916 3.84661 3.53773
# Velocity P-wave (km/s) = 5.18820 6.17565 5.70334
#
# Compressibility (1/GPa) = 0.02814425
#
# Stress axis : x y z
#
# Youngs Moduli (GPa) = 23.74560 126.93274 78.58963
#
# Poissons Ratio (x) = 0.64281 0.99150
# Poissons Ratio (y) = 0.12025 -0.03101
# Poissons Ratio (z) = 0.29958 -0.05009
#
# Static dielectric constant tensor:
#      x y z
#    x 2.176470 0.000000 0.000000 
#    y 0.000000 2.087470 0.000000 
#    z 0.000000 0.000000 2.068080 
# 
# From -- ./inp_files/228.got.cif
#   From: 2010.05.17/outbox.cif.g08.bks.cpg/sg61_1_cif.got.tgz:228.got - 2010.06.03 15:17:17.
