data_PCOD9460015
_publ_section_title
;
Structure prediction by ZEFSAII (Michael W. Deem and Ramdas Pophale) SiO2 
 PCOD9460015
Probable space group: P B C A
;
_chemical_formula_sum "Si O2"
_cell_formula_units_Z 64
_cell_length_a 8.156113
_cell_length_b 11.758199
_cell_length_c 28.384597
_cell_angle_alpha 90.000000
_cell_angle_beta 90.000000
_cell_angle_gamma 90.000000
_cell_volume 2722.116906
_symmetry_space_group_name_H-M "P B C A"
_symmetry_group_IT_number 61
_symmetry_cell_setting 'orthorhombic'
loop_
_space_group_symop_operation_xyz
x,y,z
1/2-x,-y,1/2+z
1/2+x,1/2-y,-z
-x,1/2+y,1/2-z
-x,-y,-z
1/2+x,y,1/2-z
1/2-x,1/2+y,z
x,1/2-y,1/2+z
loop_
_atom_site_type_symbol
_atom_site_label
_atom_site_fract_x
_atom_site_fract_y
_atom_site_fract_z
Si Si1 0.727629 0.508849 0.521716
Si Si2 0.918910 0.341181 0.825483
Si Si3 0.111772 0.372865 0.284581
Si Si4 0.767597 0.678021 0.885844
Si Si5 0.601299 0.045341 0.342000
Si Si6 0.548935 0.317723 0.479479
Si Si7 0.957072 0.583414 0.444138
Si Si8 0.522207 0.908094 0.183579
O O1 0.627025 0.390443 0.521699
O O2 0.604640 0.607038 0.536525
O O3 0.891660 0.502516 0.551772
O O4 0.792200 0.537161 0.468691
O O5 0.863305 0.275400 0.872673
O O6 0.735700 0.386445 0.811010
O O7 0.010114 0.242560 0.796411
O O8 0.021773 0.457219 0.829378
O O9 0.298072 0.366192 0.301951
O O10 0.032287 0.483936 0.309818
O O11 0.094579 0.393457 0.229138
O O12 0.686718 0.560771 0.868507
O O13 0.811582 0.686528 0.939806
O O14 0.937377 0.665651 0.856669
O O15 0.550535 0.113894 0.389091
O O16 0.496494 0.187379 0.479351
#
# Coordination Sequence:
#
# PCOD9460015 Si02
#       8
#     8   8   8   8   8   8   8   8
#     4  10  24  38  64  96 132 166 222 280 322 408
#     4  10  22  44  66  94 130 176 214 272 340 394
#     4  11  25  43  65  98 132 174 230 281 332 404
#     4  10  21  40  66  94 131 174 219 272 333 396
#     4  10  21  40  66  94 131 174 219 272 333 396
#     4  11  21  41  63  95 130 175 216 270 341 395
#     4  11  21  41  63  95 130 175 216 270 341 395
#     4  11  25  43  65  98 132 174 230 281 332 404
#
# _framework density 23.511113000000002
#
# number of rings (size 3 to 8) (size 9 to 14) (size 15 to 20)
#    0.000    1.500    2.500    3.000    1.750    5.000 
#    0.000    0.000    0.000    0.000    0.000    0.000 
#    0.000    0.000    0.000    0.000    0.000    0.000 
#
# Total GULP energy -357036.529907 kJ/mol
# GULP energy per Si atom -5578.695780 kJ/mol
# Density = 2.345760 g / cm^3
# Si number density = 23.511113 Si / 1000 Ang^3
#
#
#
# Elastic Constant Matrix: (Units=GPa)
#
#
# Indices 1 2 3 4 5 6 
#
# 1 66.2535 32.4022 6.0901 0.0000 0.0000 0.0000
# 2 32.4022 121.1985 19.8700 0.0000 0.0000 0.0000
# 3 6.0901 19.8700 45.9628 0.0000 0.0000 0.0000
# 4 0.0000 0.0000 0.0000 23.8058 0.0000 0.0000
# 5 0.0000 0.0000 0.0000 0.0000 23.0683 0.0000
# 6 0.0000 0.0000 0.0000 0.0000 0.0000 40.6793
#
#
#
# Elastic Compliance Matrix: (Units=1/GPa)
#
#
# Indices 1 2 3 4 5 6 
#
# 1 0.017368 -0.004591 -0.000316 0.000000 0.000000 0.000000
# 2 -0.004591 0.010094 -0.003755 0.000000 0.000000 0.000000
# 3 -0.000316 -0.003755 0.023422 0.000000 0.000000 0.000000
# 4 0.000000 0.000000 0.000000 0.042007 0.000000 0.000000
# 5 0.000000 0.000000 0.000000 0.000000 0.043350 0.000000
# 6 0.000000 0.000000 0.000000 0.000000 0.000000 0.024583
#
#
# Mechanical properties :
#
#
# Convention : Reuss Voigt Hill
#
# Bulk Modulus (GPa) = 29.79920 38.90439 34.35180
# Shear Modulus (GPa) = 26.40812 29.18083 27.79448
#
# Velocity S-wave (km/s) = 3.35508 3.52682 3.44202
# Velocity P-wave (km/s) = 5.26410 5.75915 5.51718
#
# Compressibility (1/GPa) = 0.03355795
#
# Stress axis : x y z
#
# Youngs Moduli (GPa) = 57.57661 99.06744 42.69463
#
# Poissons Ratio (x) = 0.45487 0.01351
# Poissons Ratio (y) = 0.26436 0.16033
# Poissons Ratio (z) = 0.01822 0.37204
#
# Static dielectric constant tensor:
#      x y z
#    x 1.921630 0.000000 0.000000 
#    y 0.000000 1.999130 0.000000 
#    z 0.000000 0.000000 1.914420 
# 
# From -- ./inp_files/11738.got.cif
#   From: 2010.05.17/outbox.cif.g08.bks.cpg/sg61_6_cif.got.tgz:11738.got - 2010.06.03 15:17:17.
