data_PCOD9460762
_publ_section_title
;
Structure prediction by ZEFSAII (Michael W. Deem and Ramdas Pophale) SiO2 
 PCOD9460762
Probable space group: P B C A
;
_chemical_formula_sum "Si O2"
_cell_formula_units_Z 56
_cell_length_a 15.214424
_cell_length_b 12.068478
_cell_length_c 13.658806
_cell_angle_alpha 90.000000
_cell_angle_beta 90.000000
_cell_angle_gamma 90.000000
_cell_volume 2507.960862
_symmetry_space_group_name_H-M "P B C A"
_symmetry_group_IT_number 61
_symmetry_cell_setting 'orthorhombic'
loop_
_space_group_symop_operation_xyz
x,y,z
1/2-x,-y,1/2+z
1/2+x,1/2-y,-z
-x,1/2+y,1/2-z
-x,-y,-z
1/2+x,y,1/2-z
1/2-x,1/2+y,z
x,1/2-y,1/2+z
loop_
_atom_site_type_symbol
_atom_site_label
_atom_site_fract_x
_atom_site_fract_y
_atom_site_fract_z
Si Si1 0.158817 0.286506 0.426720
Si Si2 0.150093 0.729148 0.366564
Si Si3 0.465860 0.231863 0.055327
Si Si4 0.392326 0.864016 0.215062
Si Si5 0.153859 0.911755 0.684532
Si Si6 0.919180 0.408376 0.277253
Si Si7 0.154381 0.367174 0.634199
O O1 0.252998 0.226550 0.415841
O O2 0.142041 0.344939 0.324097
O O3 0.156792 0.371875 0.516965
O O4 0.070742 0.213978 0.444316
O O5 0.078007 0.743172 0.451232
O O6 0.130356 0.624684 0.295552
O O7 0.142821 0.835606 0.293771
O O8 0.416996 0.130984 0.107794
O O9 0.442562 0.334772 0.127237
O O10 0.488678 0.917119 0.220380
O O11 0.394701 0.744780 0.165561
O O12 0.331939 0.957995 0.168475
O O13 0.245409 0.850678 0.666452
O O14 0.883389 0.525988 0.311768
#
# Coordination Sequence:
#
# PCOD9460762 Si02
#       7
#     8   8   8   8   8   8   8
#     4  11  24  43  73 102 138 186 237 290 355 422
#     4  11  22  47  70 104 141 189 233 291 365 419
#     4  10  24  45  70 107 136 180 244 290 351 424
#     4  11  26  46  68 108 140 188 237 290 361 420
#     4  11  25  43  73  98 146 184 233 294 352 425
#     4  10  26  43  74  98 146 184 236 296 354 420
#     4  12  25  46  69 105 143 183 239 290 356 428
#
# _framework density 22.328897999999999
#
# number of rings (size 3 to 8) (size 9 to 14) (size 15 to 20)
#    0.000    1.143    2.857    1.714   12.000    1.143 
#    2.571    1.429    0.000    0.000    0.000    0.000 
#    0.000    0.000    0.000    0.000    0.000    0.000 
#
# Total GULP energy -313029.195169 kJ/mol
# GULP energy per Si atom -5589.807057 kJ/mol
# Density = 2.227808 g / cm^3
# Si number density = 22.328898 Si / 1000 Ang^3
#
#
#
# Elastic Constant Matrix: (Units=GPa)
#
#
# Indices 1 2 3 4 5 6 
#
# 1 114.5693 8.6436 26.8375 0.0000 0.0000 0.0000
# 2 8.6436 82.8609 13.3934 0.0000 0.0000 0.0000
# 3 26.8375 13.3934 88.5097 0.0000 0.0000 0.0000
# 4 0.0000 0.0000 0.0000 1.3960 0.0000 0.0000
# 5 0.0000 0.0000 0.0000 0.0000 36.1469 0.0000
# 6 0.0000 0.0000 0.0000 0.0000 0.0000 24.6497
#
#
#
# Elastic Compliance Matrix: (Units=1/GPa)
#
#
# Indices 1 2 3 4 5 6 
#
# 1 0.009419 -0.000534 -0.002775 0.000000 0.000000 0.000000
# 2 -0.000534 0.012401 -0.001715 0.000000 0.000000 0.000000
# 3 -0.002775 -0.001715 0.012399 0.000000 0.000000 0.000000
# 4 0.000000 0.000000 0.000000 0.716321 0.000000 0.000000
# 5 0.000000 0.000000 0.000000 0.000000 0.027665 0.000000
# 6 0.000000 0.000000 0.000000 0.000000 0.000000 0.040568
#
#
# Mechanical properties :
#
#
# Convention : Reuss Voigt Hill
#
# Bulk Modulus (GPa) = 41.37078 42.63208 42.00143
# Shear Modulus (GPa) = 5.97459 28.24289 17.10874
#
# Velocity S-wave (km/s) = 1.63754 3.56034 2.77106
# Velocity P-wave (km/s) = 4.70569 6.00297 5.39347
#
# Compressibility (1/GPa) = 0.02417165
#
# Stress axis : x y z
#
# Youngs Moduli (GPa) = 106.17202 80.63690 80.65092
#
# Poissons Ratio (x) = 0.04306 0.22381
# Poissons Ratio (y) = 0.05669 0.13829
# Poissons Ratio (z) = 0.29464 0.13827
#
# Static dielectric constant tensor:
#      x y z
#    x 1.869070 0.000000 0.000000 
#    y 0.000000 1.806610 0.000000 
#    z 0.000000 0.000000 1.830840 
# 
# From -- ./inp_files/7837.got.cif
#   From: 2010.05.17/outbox.cif.g08.bks.cpg/sg61_4_cif.got.tgz:7837.got - 2010.06.03 15:17:17.
