data_PCOD9460710
_publ_section_title
;
Structure prediction by ZEFSAII (Michael W. Deem and Ramdas Pophale) SiO2 
 PCOD9460710
Probable space group: P B C A
;
_chemical_formula_sum "Si O2"
_cell_formula_units_Z 40
_cell_length_a 26.493523
_cell_length_b 5.676789
_cell_length_c 9.874021
_cell_angle_alpha 90.000000
_cell_angle_beta 90.000000
_cell_angle_gamma 90.000000
_cell_volume 1485.034392
_symmetry_space_group_name_H-M "P B C A"
_symmetry_group_IT_number 61
_symmetry_cell_setting 'orthorhombic'
loop_
_space_group_symop_operation_xyz
x,y,z
1/2-x,-y,1/2+z
1/2+x,1/2-y,-z
-x,1/2+y,1/2-z
-x,-y,-z
1/2+x,y,1/2-z
1/2-x,1/2+y,z
x,1/2-y,1/2+z
loop_
_atom_site_type_symbol
_atom_site_label
_atom_site_fract_x
_atom_site_fract_y
_atom_site_fract_z
Si Si1 0.722705 0.685124 0.617131
Si Si2 0.047887 0.872848 0.618955
Si Si3 0.638213 0.398083 0.705238
Si Si4 0.969350 0.621107 0.361257
Si Si5 0.158777 0.483655 0.091056
O O1 0.745313 0.943077 0.638650
O O2 0.670698 0.639380 0.699479
O O3 0.703773 0.647931 0.461533
O O4 0.035979 0.619956 0.555820
O O5 0.017486 0.872833 0.761131
O O6 0.035797 0.131593 0.562573
O O7 0.107852 0.879873 0.626133
O O8 0.580922 0.395043 0.761135
O O9 0.667588 0.209604 0.795811
O O10 0.643083 0.335085 0.546315
#
# Coordination Sequence:
#
# PCOD9460710 Si02
#       5
#     8   8   8   8   8
#     4  10  24  42  63  90 121 160 208 258 310 360
#     4   9  18  35  60  91 126 161 199 246 302 365
#     4   9  21  41  64  94 123 165 202 257 304 370
#     4   9  18  35  60  91 126 161 199 246 302 365
#     4   9  21  41  64  94 123 165 202 257 304 370
#
# _framework density 26.935400999999999
#
# number of rings (size 3 to 8) (size 9 to 14) (size 15 to 20)
#    1.200    1.600    0.000    0.000    0.000    8.800 
#    0.000    0.000    0.000   32.400    0.000    0.000 
#    0.000    0.000    0.000    0.000    0.000    0.000 
#
# Total GULP energy -223284.722777 kJ/mol
# GULP energy per Si atom -5582.118069 kJ/mol
# Density = 2.687409 g / cm^3
# Si number density = 26.935401 Si / 1000 Ang^3
#
#
#
# Elastic Constant Matrix: (Units=GPa)
#
#
# Indices 1 2 3 4 5 6 
#
# 1 115.3183 58.5004 48.9527 0.0000 0.0000 0.0000
# 2 58.5004 180.8561 43.5004 0.0000 0.0000 0.0000
# 3 48.9527 43.5004 89.5482 0.0000 0.0000 0.0000
# 4 0.0000 0.0000 0.0000 46.1197 0.0000 0.0000
# 5 0.0000 0.0000 0.0000 0.0000 38.8845 0.0000
# 6 0.0000 0.0000 0.0000 0.0000 0.0000 63.3615
#
#
#
# Elastic Compliance Matrix: (Units=1/GPa)
#
#
# Indices 1 2 3 4 5 6 
#
# 1 0.012344 -0.002683 -0.005445 0.000000 0.000000 0.000000
# 2 -0.002683 0.006844 -0.001858 0.000000 0.000000 0.000000
# 3 -0.005445 -0.001858 0.015046 0.000000 0.000000 0.000000
# 4 0.000000 0.000000 0.000000 0.021683 0.000000 0.000000
# 5 0.000000 0.000000 0.000000 0.000000 0.025717 0.000000
# 6 0.000000 0.000000 0.000000 0.000000 0.000000 0.015782
#
#
# Mechanical properties :
#
#
# Convention : Reuss Voigt Hill
#
# Bulk Modulus (GPa) = 70.11267 76.40330 73.25798
# Shear Modulus (GPa) = 40.93591 45.32443 43.13017
#
# Velocity S-wave (km/s) = 3.90267 4.10653 4.00590
# Velocity P-wave (km/s) = 6.81133 7.13525 6.97517
#
# Compressibility (1/GPa) = 0.01426276
#
# Stress axis : x y z
#
# Youngs Moduli (GPa) = 81.01032 146.11194 66.46286
#
# Poissons Ratio (x) = 0.39206 0.36186
# Poissons Ratio (y) = 0.21738 0.12348
# Poissons Ratio (z) = 0.44107 0.27145
#
# Static dielectric constant tensor:
#      x y z
#    x 2.216040 0.000000 0.000000 
#    y 0.000000 2.122580 0.000000 
#    z 0.000000 0.000000 2.209030 
# 
# From -- ./inp_files/6729.got.cif
#   From: 2010.05.17/outbox.cif.g08.bks.cpg/sg61_4_cif.got.tgz:6729.got - 2010.06.03 15:17:17.
