data_PCOD9460644
_publ_section_title
;
Structure prediction by ZEFSAII (Michael W. Deem and Ramdas Pophale) SiO2 
 PCOD9460644
Probable space group: P B C A
;
_chemical_formula_sum "Si O2"
_cell_formula_units_Z 40
_cell_length_a 5.104797
_cell_length_b 10.254051
_cell_length_c 27.873181
_cell_angle_alpha 90.000000
_cell_angle_beta 90.000000
_cell_angle_gamma 90.000000
_cell_volume 1459.017445
_symmetry_space_group_name_H-M "P B C A"
_symmetry_group_IT_number 61
_symmetry_cell_setting 'orthorhombic'
loop_
_space_group_symop_operation_xyz
x,y,z
1/2-x,-y,1/2+z
1/2+x,1/2-y,-z
-x,1/2+y,1/2-z
-x,-y,-z
1/2+x,y,1/2-z
1/2-x,1/2+y,z
x,1/2-y,1/2+z
loop_
_atom_site_type_symbol
_atom_site_label
_atom_site_fract_x
_atom_site_fract_y
_atom_site_fract_z
Si Si1 0.522236 0.838047 0.941859
Si Si2 0.640793 0.816314 0.281084
Si Si3 0.744544 0.915341 0.042171
Si Si4 0.987642 0.156356 0.637799
Si Si5 0.921511 0.881977 0.660383
O O1 0.475371 0.684868 0.947052
O O2 0.603188 0.865719 0.887492
O O3 0.259584 0.930179 0.947709
O O4 0.683478 0.890793 0.986597
O O5 0.380712 0.852043 0.252960
O O6 0.582386 0.662956 0.293239
O O7 0.739631 0.859153 0.333875
O O8 0.528443 0.859845 0.080342
O O9 0.821186 0.282348 0.653810
O O10 0.831675 0.029379 0.657220
#
# Coordination Sequence:
#
# PCOD9460644 Si02
#       5
#     8   8   8   8   8
#     4   9  19  36  60  96 139 182 231 286 353 430
#     4  12  26  48  70 104 140 188 242 300 360 426
#     4   9  19  36  60  96 139 182 231 286 353 430
#     4  10  23  45  72 105 145 190 242 304 369 437
#     4  10  23  45  72 105 145 190 242 304 369 437
#
# _framework density 27.415707999999999
#
# number of rings (size 3 to 8) (size 9 to 14) (size 15 to 20)
#    0.000    2.000    2.000    0.000    2.800    4.000 
#    0.000    0.000    0.000    0.000    0.000    0.000 
#    0.000    0.000    0.000    0.000    0.000    0.000 
#
# Total GULP energy -223293.779890 kJ/mol
# GULP energy per Si atom -5582.344497 kJ/mol
# Density = 2.735331 g / cm^3
# Si number density = 27.415708 Si / 1000 Ang^3
#
#
#
# Elastic Constant Matrix: (Units=GPa)
#
#
# Indices 1 2 3 4 5 6 
#
# 1 134.8197 30.2953 52.3613 0.0000 0.0000 0.0000
# 2 30.2953 123.4508 -0.9879 0.0000 0.0000 0.0000
# 3 52.3613 -0.9879 157.0315 0.0000 0.0000 0.0000
# 4 0.0000 0.0000 0.0000 45.6526 0.0000 0.0000
# 5 0.0000 0.0000 0.0000 0.0000 35.2198 0.0000
# 6 0.0000 0.0000 0.0000 0.0000 0.0000 16.8923
#
#
#
# Elastic Compliance Matrix: (Units=1/GPa)
#
#
# Indices 1 2 3 4 5 6 
#
# 1 0.009111 -0.002260 -0.003052 0.000000 0.000000 0.000000
# 2 -0.002260 0.008662 0.000808 0.000000 0.000000 0.000000
# 3 -0.003052 0.000808 0.007391 0.000000 0.000000 0.000000
# 4 0.000000 0.000000 0.000000 0.021905 0.000000 0.000000
# 5 0.000000 0.000000 0.000000 0.000000 0.028393 0.000000
# 6 0.000000 0.000000 0.000000 0.000000 0.000000 0.059199
#
#
# Mechanical properties :
#
#
# Convention : Reuss Voigt Hill
#
# Bulk Modulus (GPa) = 61.90133 64.29326 63.09730
# Shear Modulus (GPa) = 33.54520 41.79515 37.67017
#
# Velocity S-wave (km/s) = 3.50176 3.90872 3.71082
# Velocity P-wave (km/s) = 6.24320 6.62366 6.43624
#
# Compressibility (1/GPa) = 0.01615474
#
# Stress axis : x y z
#
# Youngs Moduli (GPa) = 109.76263 115.45321 135.30093
#
# Poissons Ratio (x) = 0.26095 0.41295
# Poissons Ratio (y) = 0.24808 -0.10934
# Poissons Ratio (z) = 0.33500 -0.09330
#
# Static dielectric constant tensor:
#      x y z
#    x 2.268260 0.000000 0.000000 
#    y 0.000000 2.230180 0.000000 
#    z 0.000000 0.000000 2.140680 
# 
# From -- ./inp_files/244.got.cif
#   From: 2010.05.17/outbox.cif.g08.bks.cpg/sg61_1_cif.got.tgz:244.got - 2010.06.03 15:17:17.
