data_PCOD9460333
_publ_section_title
;
Structure prediction by ZEFSAII (Michael W. Deem and Ramdas Pophale) SiO2 
 PCOD9460333
Probable space group: P B C A
;
_chemical_formula_sum "Si O2"
_cell_formula_units_Z 48
_cell_length_a 20.156393
_cell_length_b 9.465233
_cell_length_c 9.602136
_cell_angle_alpha 90.000000
_cell_angle_beta 90.000000
_cell_angle_gamma 90.000000
_cell_volume 1831.943096
_symmetry_space_group_name_H-M "P B C A"
_symmetry_group_IT_number 61
_symmetry_cell_setting 'orthorhombic'
loop_
_space_group_symop_operation_xyz
x,y,z
1/2-x,-y,1/2+z
1/2+x,1/2-y,-z
-x,1/2+y,1/2-z
-x,-y,-z
1/2+x,y,1/2-z
1/2-x,1/2+y,z
x,1/2-y,1/2+z
loop_
_atom_site_type_symbol
_atom_site_label
_atom_site_fract_x
_atom_site_fract_y
_atom_site_fract_z
Si Si1 0.812433 0.770996 0.857755
Si Si2 0.129831 0.948535 0.897180
Si Si3 0.066641 0.239183 0.995894
Si Si4 0.277484 0.278597 0.382965
Si Si5 0.614657 0.564920 0.785562
Si Si6 0.495000 0.400791 0.744076
O O1 0.870767 0.682819 0.933023
O O2 0.756007 0.810388 0.969996
O O3 0.776272 0.691096 0.735391
O O4 0.849488 0.910088 0.797798
O O5 0.203260 0.888411 0.873483
O O6 0.082749 0.904734 0.769105
O O7 0.104512 0.108563 0.920845
O O8 0.117178 0.882815 0.053815
O O9 0.022457 0.326123 0.891671
O O10 0.021653 0.174100 0.115990
O O11 0.344068 0.354860 0.331710
O O12 0.537317 0.546362 0.747839
#
# Coordination Sequence:
#
# PCOD9460333 Si02
#       6
#     8   8   8   8   8   8
#     4  10  23  39  65  91 128 162 211 259 316 381
#     4  10  23  40  65  92 129 169 209 263 321 379
#     4  10  22  44  63  94 124 174 209 266 320 377
#     4  12  23  41  65  96 127 166 213 264 314 386
#     4  10  23  41  62  94 124 172 204 265 328 364
#     4  10  22  41  68  87 129 166 214 259 318 380
#
# _framework density 26.201688999999998
#
# number of rings (size 3 to 8) (size 9 to 14) (size 15 to 20)
#    0.000    2.000    1.667    4.000    9.333    1.333 
#    3.000    0.833    0.000    0.000    0.000    0.000 
#    0.000    0.000    0.000    0.000    0.000    0.000 
#
# Total GULP energy -268426.292399 kJ/mol
# GULP energy per Si atom -5592.214425 kJ/mol
# Density = 2.614205 g / cm^3
# Si number density = 26.201689 Si / 1000 Ang^3
#
#
#
# Elastic Constant Matrix: (Units=GPa)
#
#
# Indices 1 2 3 4 5 6 
#
# 1 54.0996 6.5932 -24.5267 0.0000 0.0000 0.0000
# 2 6.5932 47.4733 14.1334 0.0000 0.0000 0.0000
# 3 -24.5267 14.1334 61.6711 0.0000 0.0000 0.0000
# 4 0.0000 0.0000 0.0000 26.2845 0.0000 0.0000
# 5 0.0000 0.0000 0.0000 0.0000 44.2397 0.0000
# 6 0.0000 0.0000 0.0000 0.0000 0.0000 39.6513
#
#
#
# Elastic Compliance Matrix: (Units=1/GPa)
#
#
# Indices 1 2 3 4 5 6 
#
# 1 0.024406 -0.006739 0.011251 0.000000 0.000000 0.000000
# 2 -0.006739 0.024468 -0.008288 0.000000 0.000000 0.000000
# 3 0.011251 -0.008288 0.022589 0.000000 0.000000 0.000000
# 4 0.000000 0.000000 0.000000 0.038045 0.000000 0.000000
# 5 0.000000 0.000000 0.000000 0.000000 0.022604 0.000000
# 6 0.000000 0.000000 0.000000 0.000000 0.000000 0.025220
#
#
# Mechanical properties :
#
#
# Convention : Reuss Voigt Hill
#
# Bulk Modulus (GPa) = 15.64662 17.29375 16.47018
# Shear Modulus (GPa) = 26.85464 33.17137 30.01301
#
# Velocity S-wave (km/s) = 3.20491 3.56195 3.38814
# Velocity P-wave (km/s) = 4.43620 4.85090 4.64818
#
# Compressibility (1/GPa) = 0.06391156
#
# Stress axis : x y z
#
# Youngs Moduli (GPa) = 40.97270 40.87024 44.26965
#
# Poissons Ratio (x) = 0.27543 -0.49807
# Poissons Ratio (y) = 0.27612 0.36689
# Poissons Ratio (z) = -0.46098 0.33871
#
# Static dielectric constant tensor:
#      x y z
#    x 2.058930 0.000000 0.000000 
#    y 0.000000 2.232120 0.000000 
#    z 0.000000 0.000000 2.040610 
# 
# From -- ./inp_files/6418.got.cif
#   From: 2010.05.17/outbox.cif.g08.bks.cpg/sg61_4_cif.got.tgz:6418.got - 2010.06.03 15:17:17.
