data_PCOD9460572
_publ_section_title
;
Structure prediction by ZEFSAII (Michael W. Deem and Ramdas Pophale) SiO2 
 PCOD9460572
Probable space group: P B C A
;
_chemical_formula_sum "Si O2"
_cell_formula_units_Z 60
_cell_length_a 9.009400
_cell_length_b 23.670786
_cell_length_c 11.009711
_cell_angle_alpha 90.000000
_cell_angle_beta 90.000000
_cell_angle_gamma 90.000000
_cell_volume 2347.926337
_symmetry_space_group_name_H-M "P B C A"
_symmetry_group_IT_number 61
_symmetry_cell_setting 'orthorhombic'
loop_
_space_group_symop_operation_xyz
x,y,z
1/2-x,-y,1/2+z
1/2+x,1/2-y,-z
-x,1/2+y,1/2-z
-x,-y,-z
1/2+x,y,1/2-z
1/2-x,1/2+y,z
x,1/2-y,1/2+z
loop_
_atom_site_type_symbol
_atom_site_label
_atom_site_fract_x
_atom_site_fract_y
_atom_site_fract_z
Si Si1 0.290332 0.590707 0.647547
Si Si2 0.787866 0.638848 0.336411
Si Si3 0.202111 0.989026 0.349490
Si Si4 0.629143 0.276617 0.620670
Si Si5 0.862540 0.200085 0.547672
Si Si6 0.970240 0.340236 0.300673
Si Si7 0.000000 0.500000 0.000000
Si Si8 0.038030 0.561653 0.268137
O O1 0.200820 0.545549 0.728118
O O2 0.404262 0.618079 0.746134
O O3 0.155834 0.633047 0.611012
O O4 0.383131 0.555674 0.549950
O O5 0.848012 0.683702 0.236991
O O6 0.753646 0.669314 0.460762
O O7 0.638381 0.611042 0.285028
O O8 0.906097 0.588812 0.342046
O O9 0.351278 0.023612 0.345518
O O10 0.041146 0.024455 0.340520
O O11 0.153864 0.960354 0.471750
O O12 0.790713 0.261489 0.568418
O O13 0.521194 0.301880 0.518486
O O14 0.547238 0.217909 0.657418
O O15 0.878217 0.174709 0.679778
#
# Coordination Sequence:
#
# PCOD9460572 Si02
#       8
#     8   8   8   8   8   8   4   8
#     4  12  26  49  77 109 154 197 262 320 388 463
#     4  11  24  45  70 110 147 193 254 314 371 467
#     4  11  23  48  69 109 142 193 250 317 369 459
#     4  12  27  48  71 112 155 200 255 324 373 483
#     4  12  27  44  76 103 151 205 248 306 401 445
#     4  12  27  50  73 111 158 202 258 325 384 479
#     4  12  26  44  82 100 150 200 240 314 398 436
#     4  10  23  42  72  96 149 181 242 317 362 434
#
# _framework density 25.554466000000001
#
# number of rings (size 3 to 8) (size 9 to 14) (size 15 to 20)
#    0.000    0.533    5.333    1.600    5.600    1.067 
#    0.000    1.333    0.000    0.000    0.000    0.000 
#    0.000    0.000    0.000    0.000    0.000    0.000 
#
# Total GULP energy -335234.789858 kJ/mol
# GULP energy per Si atom -5587.246498 kJ/mol
# Density = 2.549630 g / cm^3
# Si number density = 25.554466 Si / 1000 Ang^3
#
#
#
# Elastic Constant Matrix: (Units=GPa)
#
#
# Indices 1 2 3 4 5 6 
#
# 1 145.1154 41.4157 37.9989 0.0000 0.0000 0.0000
# 2 41.4157 72.3097 21.5409 0.0000 0.0000 0.0000
# 3 37.9989 21.5409 68.4671 0.0000 0.0000 0.0000
# 4 0.0000 0.0000 0.0000 22.3408 0.0000 0.0000
# 5 0.0000 0.0000 0.0000 0.0000 54.1563 0.0000
# 6 0.0000 0.0000 0.0000 0.0000 0.0000 59.8646
#
#
#
# Elastic Compliance Matrix: (Units=1/GPa)
#
#
# Indices 1 2 3 4 5 6 
#
# 1 0.009027 -0.004058 -0.003733 0.000000 0.000000 0.000000
# 2 -0.004058 0.017084 -0.003123 0.000000 0.000000 0.000000
# 3 -0.003733 -0.003123 0.017660 0.000000 0.000000 0.000000
# 4 0.000000 0.000000 0.000000 0.044761 0.000000 0.000000
# 5 0.000000 0.000000 0.000000 0.000000 0.018465 0.000000
# 6 0.000000 0.000000 0.000000 0.000000 0.000000 0.016704
#
#
# Mechanical properties :
#
#
# Convention : Reuss Voigt Hill
#
# Bulk Modulus (GPa) = 45.57286 54.20038 49.88662
# Shear Modulus (GPa) = 32.71329 39.60143 36.15736
#
# Velocity S-wave (km/s) = 3.58179 3.94088 3.76561
# Velocity P-wave (km/s) = 5.91421 6.47790 6.20246
#
# Compressibility (1/GPa) = 0.02194288
#
# Stress axis : x y z
#
# Youngs Moduli (GPa) = 110.78193 58.53458 56.62560
#
# Poissons Ratio (x) = 0.23754 0.21139
# Poissons Ratio (y) = 0.44956 0.17683
# Poissons Ratio (z) = 0.41356 0.18279
#
# Static dielectric constant tensor:
#      x y z
#    x 2.071860 0.000000 0.000000 
#    y 0.000000 2.164460 0.000000 
#    z 0.000000 0.000000 2.015750 
# 
# From -- ./inp_files/4920.got.cif
#   From: 2010.05.17/outbox.cif.g08.bks.cpg/sg61_3_cif.got.tgz:4920.got - 2010.06.03 15:17:17.
