data_PCOD9460831
_publ_section_title
;
Structure prediction by ZEFSAII (Michael W. Deem and Ramdas Pophale) SiO2 
 PCOD9460831
Probable space group: P B C A
;
_chemical_formula_sum "Si O2"
_cell_formula_units_Z 40
_cell_length_a 8.620141
_cell_length_b 16.796650
_cell_length_c 9.734334
_cell_angle_alpha 90.000000
_cell_angle_beta 90.000000
_cell_angle_gamma 90.000000
_cell_volume 1409.429268
_symmetry_space_group_name_H-M "P B C A"
_symmetry_group_IT_number 61
_symmetry_cell_setting 'orthorhombic'
loop_
_space_group_symop_operation_xyz
x,y,z
1/2-x,-y,1/2+z
1/2+x,1/2-y,-z
-x,1/2+y,1/2-z
-x,-y,-z
1/2+x,y,1/2-z
1/2-x,1/2+y,z
x,1/2-y,1/2+z
loop_
_atom_site_type_symbol
_atom_site_label
_atom_site_fract_x
_atom_site_fract_y
_atom_site_fract_z
Si Si1 0.011848 0.620295 0.004293
Si Si2 0.989188 0.066503 0.188862
Si Si3 0.685797 0.714996 0.693623
Si Si4 0.322638 0.815223 0.561717
Si Si5 0.262548 0.543052 0.683496
O O1 0.903756 0.560244 0.920340
O O2 0.026729 0.697594 0.895572
O O3 0.965440 0.606154 0.162988
O O4 0.199302 0.613566 0.019685
O O5 0.016187 0.141280 0.090321
O O6 0.103355 0.996882 0.140132
O O7 0.829798 0.021021 0.208636
O O8 0.811942 0.736166 0.576208
O O9 0.722220 0.775776 0.815736
O O10 0.719273 0.629445 0.760073
#
# Coordination Sequence:
#
# PCOD9460831 Si02
#       5
#     8   8   8   8   8
#     4  10  25  48  72 108 161 187 262 315 377 461
#     4  12  24  47  79 111 155 203 252 322 386 461
#     4  10  25  50  73 111 152 203 256 319 384 458
#     4  10  25  50  73 111 152 203 256 319 384 458
#     4  12  24  47  79 111 155 203 252 322 386 461
#
# _framework density 28.380282999999999
#
# number of rings (size 3 to 8) (size 9 to 14) (size 15 to 20)
#    1.200    0.000    4.000    0.600    5.600    2.400 
#    0.000    0.000    0.000    0.000    0.000    0.000 
#    0.000    0.000    0.000    0.000    0.000    0.000 
#
# Total GULP energy -223038.038789 kJ/mol
# GULP energy per Si atom -5575.950970 kJ/mol
# Density = 2.831569 g / cm^3
# Si number density = 28.380283 Si / 1000 Ang^3
#
#
#
# Elastic Constant Matrix: (Units=GPa)
#
#
# Indices 1 2 3 4 5 6 
#
# 1 32.4908 31.8152 2.6893 0.0000 0.0000 0.0000
# 2 31.8152 141.3133 41.6563 0.0000 0.0000 0.0000
# 3 2.6893 41.6563 105.0501 0.0000 0.0000 0.0000
# 4 0.0000 0.0000 0.0000 37.2901 0.0000 0.0000
# 5 0.0000 0.0000 0.0000 0.0000 49.6815 0.0000
# 6 0.0000 0.0000 0.0000 0.0000 0.0000 23.4644
#
#
#
# Elastic Compliance Matrix: (Units=1/GPa)
#
#
# Indices 1 2 3 4 5 6 
#
# 1 0.040249 -0.009917 0.002902 0.000000 0.000000 0.000000
# 2 -0.009917 0.010457 -0.003893 0.000000 0.000000 0.000000
# 3 0.002902 -0.003893 0.010989 0.000000 0.000000 0.000000
# 4 0.000000 0.000000 0.000000 0.026817 0.000000 0.000000
# 5 0.000000 0.000000 0.000000 0.000000 0.020128 0.000000
# 6 0.000000 0.000000 0.000000 0.000000 0.000000 0.042618
#
#
# Mechanical properties :
#
#
# Convention : Reuss Voigt Hill
#
# Bulk Modulus (GPa) = 25.07604 47.90843 36.49223
# Shear Modulus (GPa) = 26.82916 35.60008 31.21462
#
# Velocity S-wave (km/s) = 3.07798 3.54559 3.32003
# Velocity P-wave (km/s) = 4.63539 5.80337 5.25195
#
# Compressibility (1/GPa) = 0.03987870
#
# Stress axis : x y z
#
# Youngs Moduli (GPa) = 24.84563 95.63304 91.00408
#
# Poissons Ratio (x) = 0.94839 -0.26410
# Poissons Ratio (y) = 0.24639 0.35424
# Poissons Ratio (z) = -0.07210 0.37226
#
# Static dielectric constant tensor:
#      x y z
#    x 2.264160 0.000000 0.000000 
#    y 0.000000 2.308310 0.000000 
#    z 0.000000 0.000000 2.308440 
# 
# From -- ./inp_files/4808.got.cif
#   From: 2010.05.17/outbox.cif.g08.bks.cpg/sg61_3_cif.got.tgz:4808.got - 2010.06.03 15:17:17.
