data_PCOD9460809
_publ_section_title
;
Structure prediction by ZEFSAII (Michael W. Deem and Ramdas Pophale) SiO2 
 PCOD9460809
Probable space group: P B C A
;
_chemical_formula_sum "Si O2"
_cell_formula_units_Z 64
_cell_length_a 13.927630
_cell_length_b 8.792349
_cell_length_c 22.037252
_cell_angle_alpha 90.000000
_cell_angle_beta 90.000000
_cell_angle_gamma 90.000000
_cell_volume 2698.606594
_symmetry_space_group_name_H-M "P B C A"
_symmetry_group_IT_number 61
_symmetry_cell_setting 'orthorhombic'
loop_
_space_group_symop_operation_xyz
x,y,z
1/2-x,-y,1/2+z
1/2+x,1/2-y,-z
-x,1/2+y,1/2-z
-x,-y,-z
1/2+x,y,1/2-z
1/2-x,1/2+y,z
x,1/2-y,1/2+z
loop_
_atom_site_type_symbol
_atom_site_label
_atom_site_fract_x
_atom_site_fract_y
_atom_site_fract_z
Si Si1 0.512167 0.533722 0.720388
Si Si2 0.885498 0.871491 0.612601
Si Si3 0.119368 0.829641 0.781732
Si Si4 0.281225 0.310595 0.391271
Si Si5 0.281052 0.253049 0.099354
Si Si6 0.616209 0.633992 0.011645
Si Si7 0.312703 0.525989 0.679417
Si Si8 0.901829 0.712369 0.488535
O O1 0.544050 0.419625 0.666332
O O2 0.587310 0.660811 0.738424
O O3 0.474326 0.434359 0.775942
O O4 0.415074 0.605524 0.691864
O O5 0.825613 0.722203 0.631051
O O6 0.914298 0.834409 0.543283
O O7 0.815870 0.018284 0.609951
O O8 0.155123 0.795502 0.847963
O O9 0.195438 0.920290 0.739549
O O10 0.302707 0.234642 0.455759
O O11 0.263355 0.351159 0.159582
O O12 0.312816 0.087873 0.121999
O O13 0.364120 0.326874 0.058630
O O14 0.179318 0.249646 0.061854
O O15 0.626573 0.452785 0.016901
O O16 0.511070 0.685147 0.034227
#
# Coordination Sequence:
#
# PCOD9460809 Si02
#       8
#     8   8   8   8   8   8   8   8
#     4   9  22  47  68  99 133 178 238 283 356 417
#     4  11  23  41  66  97 136 180 224 284 345 415
#     4   9  23  46  65 101 131 181 232 291 346 420
#     4  11  24  41  66  97 135 173 234 280 347 413
#     4  12  23  46  67 103 147 181 244 293 353 435
#     4  11  25  43  65 103 141 183 235 287 354 418
#     4  10  25  44  69 101 138 190 228 297 357 410
#     4  11  25  42  67 103 140 190 226 288 357 416
#
# _framework density 23.715944
#
# number of rings (size 3 to 8) (size 9 to 14) (size 15 to 20)
#    0.750    0.750    2.500    1.500    5.250    4.500 
#    6.750    0.000    0.000    0.000    0.000    0.000 
#    0.000    0.000    0.000    0.000    0.000    0.000 
#
# Total GULP energy -356925.724719 kJ/mol
# GULP energy per Si atom -5576.964449 kJ/mol
# Density = 2.366197 g / cm^3
# Si number density = 23.715944 Si / 1000 Ang^3
#
#
#
# Elastic Constant Matrix: (Units=GPa)
#
#
# Indices 1 2 3 4 5 6 
#
# 1 48.3340 6.2790 27.1175 0.0000 0.0000 0.0000
# 2 6.2790 65.1010 21.1619 0.0000 0.0000 0.0000
# 3 27.1175 21.1619 54.9570 0.0000 0.0000 0.0000
# 4 0.0000 0.0000 0.0000 35.7582 0.0000 0.0000
# 5 0.0000 0.0000 0.0000 0.0000 28.1924 0.0000
# 6 0.0000 0.0000 0.0000 0.0000 0.0000 32.4131
#
#
#
# Elastic Compliance Matrix: (Units=1/GPa)
#
#
# Indices 1 2 3 4 5 6 
#
# 1 0.028861 0.002110 -0.015053 0.000000 0.000000 0.000000
# 2 0.002110 0.017713 -0.007861 0.000000 0.000000 0.000000
# 3 -0.015053 -0.007861 0.028651 0.000000 0.000000 0.000000
# 4 0.000000 0.000000 0.000000 0.027966 0.000000 0.000000
# 5 0.000000 0.000000 0.000000 0.000000 0.035471 0.000000
# 6 0.000000 0.000000 0.000000 0.000000 0.000000 0.030852
#
#
# Mechanical properties :
#
#
# Convention : Reuss Voigt Hill
#
# Bulk Modulus (GPa) = 29.74915 30.83431 30.29173
# Shear Modulus (GPa) = 22.48940 26.86166 24.67553
#
# Velocity S-wave (km/s) = 3.08276 3.36912 3.22912
# Velocity P-wave (km/s) = 5.02418 5.30701 5.16753
#
# Compressibility (1/GPa) = 0.03361441
#
# Stress axis : x y z
#
# Youngs Moduli (GPa) = 34.64914 56.45654 34.90292
#
# Poissons Ratio (x) = -0.11910 0.52540
# Poissons Ratio (y) = -0.07310 0.27439
# Poissons Ratio (z) = 0.52158 0.44383
#
# Static dielectric constant tensor:
#      x y z
#    x 1.948070 0.000000 0.000000 
#    y 0.000000 1.882850 0.000000 
#    z 0.000000 0.000000 1.906980 
# 
# From -- ./inp_files/11070.got.cif
#   From: 2010.05.17/outbox.cif.g08.bks.cpg/sg61_6_cif.got.tgz:11070.got - 2010.06.03 15:17:17.
