data_PCOD9460736
_publ_section_title
;
Structure prediction by ZEFSAII (Michael W. Deem and Ramdas Pophale) SiO2 
 PCOD9460736
Probable space group: P B C A
;
_chemical_formula_sum "Si O2"
_cell_formula_units_Z 56
_cell_length_a 32.688286
_cell_length_b 5.222552
_cell_length_c 13.674759
_cell_angle_alpha 90.000000
_cell_angle_beta 90.000000
_cell_angle_gamma 90.000000
_cell_volume 2334.503896
_symmetry_space_group_name_H-M "P B C A"
_symmetry_group_IT_number 61
_symmetry_cell_setting 'orthorhombic'
loop_
_space_group_symop_operation_xyz
x,y,z
1/2-x,-y,1/2+z
1/2+x,1/2-y,-z
-x,1/2+y,1/2-z
-x,-y,-z
1/2+x,y,1/2-z
1/2-x,1/2+y,z
x,1/2-y,1/2+z
loop_
_atom_site_type_symbol
_atom_site_label
_atom_site_fract_x
_atom_site_fract_y
_atom_site_fract_z
Si Si1 0.417286 0.374511 0.639280
Si Si2 0.372670 0.037471 0.513158
Si Si3 0.224402 0.561182 0.963601
Si Si4 0.501964 0.491042 0.682365
Si Si5 0.667912 0.341066 0.370409
Si Si6 0.340512 0.696357 0.334850
Si Si7 0.090174 0.854443 0.342160
O O1 0.461686 0.484670 0.615270
O O2 0.377019 0.535428 0.612832
O O3 0.416614 0.353222 0.757331
O O4 0.410342 0.098540 0.587271
O O5 0.337214 0.952347 0.590603
O O6 0.359623 0.836397 0.428834
O O7 0.384630 0.261157 0.435642
O O8 0.239265 0.852057 0.958628
O O9 0.194207 0.491740 0.874910
O O10 0.199952 0.490627 0.062458
O O11 0.503387 0.221825 0.739969
O O12 0.545802 0.536339 0.632418
O O13 0.677118 0.356911 0.255485
O O14 0.379837 0.555108 0.291494
#
# Coordination Sequence:
#
# PCOD9460736 Si02
#       7
#     8   8   8   8   8   8   8
#     4  11  23  43  73 104 148 198 248 301 363 427
#     4  11  23  41  68 106 138 186 246 300 349 436
#     4  11  29  48  73 109 149 181 241 310 373 447
#     4  10  24  43  70 105 156 200 246 307 362 421
#     4  11  24  44  76 103 144 193 245 297 370 439
#     4  11  24  44  76 103 144 193 245 297 370 439
#     4  11  23  43  73 104 148 198 248 301 363 427
#
# _framework density 23.987964999999999
#
# number of rings (size 3 to 8) (size 9 to 14) (size 15 to 20)
#    0.000    1.143    2.857    2.571   12.000    1.714 
#    0.000    1.429    0.000    0.000    0.000    0.000 
#    0.000    0.000    0.000    0.000    0.000    0.000 
#
# Total GULP energy -312033.314525 kJ/mol
# GULP energy per Si atom -5572.023474 kJ/mol
# Density = 2.393337 g / cm^3
# Si number density = 23.987965 Si / 1000 Ang^3
#
#
#
# Elastic Constant Matrix: (Units=GPa)
#
#
# Indices 1 2 3 4 5 6 
#
# 1 85.4383 25.1854 4.2337 0.0000 0.0000 0.0000
# 2 25.1854 43.2164 9.2560 0.0000 0.0000 0.0000
# 3 4.2337 9.2560 115.6657 0.0000 0.0000 0.0000
# 4 0.0000 0.0000 0.0000 20.4043 0.0000 0.0000
# 5 0.0000 0.0000 0.0000 0.0000 6.1555 0.0000
# 6 0.0000 0.0000 0.0000 0.0000 0.0000 44.5437
#
#
#
# Elastic Compliance Matrix: (Units=1/GPa)
#
#
# Indices 1 2 3 4 5 6 
#
# 1 0.014134 -0.008268 0.000144 0.000000 0.000000 0.000000
# 2 -0.008268 0.028379 -0.001968 0.000000 0.000000 0.000000
# 3 0.000144 -0.001968 0.008798 0.000000 0.000000 0.000000
# 4 0.000000 0.000000 0.000000 0.049009 0.000000 0.000000
# 5 0.000000 0.000000 0.000000 0.000000 0.162456 0.000000
# 6 0.000000 0.000000 0.000000 0.000000 0.000000 0.022450
#
#
# Mechanical properties :
#
#
# Convention : Reuss Voigt Hill
#
# Bulk Modulus (GPa) = 32.12617 35.74118 33.93367
# Shear Modulus (GPa) = 15.83346 27.93040 21.88193
#
# Velocity S-wave (km/s) = 2.57195 3.41596 3.02355
# Velocity P-wave (km/s) = 4.71610 5.52181 5.13478
#
# Compressibility (1/GPa) = 0.03112727
#
# Stress axis : x y z
#
# Youngs Moduli (GPa) = 70.74914 35.23689 113.66420
#
# Poissons Ratio (x) = 0.29134 -0.01640
# Poissons Ratio (y) = 0.58496 0.22373
# Poissons Ratio (z) = -0.01021 0.06936
#
# Static dielectric constant tensor:
#      x y z
#    x 1.933440 0.000000 0.000000 
#    y 0.000000 2.042470 0.000000 
#    z 0.000000 0.000000 1.975050 
# 
# From -- ./inp_files/8654.got.cif
#   From: 2010.05.17/outbox.cif.g08.bks.cpg/sg61_5_cif.got.tgz:8654.got - 2010.06.03 15:17:17.
