data_PCOD9460283
_publ_section_title
;
Structure prediction by ZEFSAII (Michael W. Deem and Ramdas Pophale) SiO2 
 PCOD9460283
Probable space group: P B C A
;
_chemical_formula_sum "Si O2"
_cell_formula_units_Z 56
_cell_length_a 19.862518
_cell_length_b 9.867593
_cell_length_c 11.515983
_cell_angle_alpha 90.000000
_cell_angle_beta 90.000000
_cell_angle_gamma 90.000000
_cell_volume 2257.077893
_symmetry_space_group_name_H-M "P B C A"
_symmetry_group_IT_number 61
_symmetry_cell_setting 'orthorhombic'
loop_
_space_group_symop_operation_xyz
x,y,z
1/2-x,-y,1/2+z
1/2+x,1/2-y,-z
-x,1/2+y,1/2-z
-x,-y,-z
1/2+x,y,1/2-z
1/2-x,1/2+y,z
x,1/2-y,1/2+z
loop_
_atom_site_type_symbol
_atom_site_label
_atom_site_fract_x
_atom_site_fract_y
_atom_site_fract_z
Si Si1 0.899443 0.469597 0.978663
Si Si2 0.216336 0.257972 0.727438
Si Si3 0.882483 0.052853 0.058215
Si Si4 0.424643 0.855316 0.235387
Si Si5 0.155071 0.835765 0.330455
Si Si6 0.556900 0.799264 0.368535
Si Si7 0.751483 0.494700 0.411895
O O1 0.922881 0.593446 0.898132
O O2 0.943666 0.345071 0.932397
O O3 0.819997 0.446438 0.951803
O O4 0.889044 0.460035 0.116882
O O5 0.137634 0.245845 0.750330
O O6 0.264595 0.186161 0.821431
O O7 0.232886 0.413592 0.701319
O O8 0.233153 0.161167 0.616940
O O9 0.938798 0.077272 0.959460
O O10 0.814940 0.994945 0.997395
O O11 0.866421 0.204681 0.097310
O O12 0.904995 0.974161 0.173139
O O13 0.496023 0.803948 0.278418
O O14 0.126462 0.812470 0.201847
#
# Coordination Sequence:
#
# PCOD9460283 Si02
#       7
#     8   8   8   8   8   8   8
#     4  10  22  40  65  93 130 172 230 278 350 406
#     4  11  22  42  68 102 135 172 228 289 343 400
#     4  11  22  41  72  96 133 181 236 283 347 420
#     4  11  24  40  63  99 138 172 228 288 334 424
#     4  11  20  43  71  92 131 184 224 287 355 412
#     4  11  22  42  64  93 134 188 220 275 360 417
#     4  11  21  42  69 103 129 173 227 291 339 410
#
# _framework density 24.810839999999999
#
# number of rings (size 3 to 8) (size 9 to 14) (size 15 to 20)
#    0.000    1.143    4.286    3.000    0.000    1.714 
#    5.143    1.429    0.000    0.000    0.000    0.000 
#    0.000    0.000    0.000    0.000    0.000    0.000 
#
# Total GULP energy -312620.766805 kJ/mol
# GULP energy per Si atom -5582.513693 kJ/mol
# Density = 2.475437 g / cm^3
# Si number density = 24.810840 Si / 1000 Ang^3
#
#
#
# Elastic Constant Matrix: (Units=GPa)
#
#
# Indices 1 2 3 4 5 6 
#
# 1 103.3058 10.0405 -0.9039 0.0000 0.0000 0.0000
# 2 10.0405 61.7297 6.4582 0.0000 0.0000 0.0000
# 3 -0.9039 6.4582 51.9179 0.0000 0.0000 0.0000
# 4 0.0000 0.0000 0.0000 24.2616 0.0000 0.0000
# 5 0.0000 0.0000 0.0000 0.0000 42.2699 0.0000
# 6 0.0000 0.0000 0.0000 0.0000 0.0000 19.2149
#
#
#
# Elastic Compliance Matrix: (Units=1/GPa)
#
#
# Indices 1 2 3 4 5 6 
#
# 1 0.009843 -0.001640 0.000375 0.000000 0.000000 0.000000
# 2 -0.001640 0.016687 -0.002104 0.000000 0.000000 0.000000
# 3 0.000375 -0.002104 0.019529 0.000000 0.000000 0.000000
# 4 0.000000 0.000000 0.000000 0.041217 0.000000 0.000000
# 5 0.000000 0.000000 0.000000 0.000000 0.023658 0.000000
# 6 0.000000 0.000000 0.000000 0.000000 0.000000 0.052043
#
#
# Mechanical properties :
#
#
# Convention : Reuss Voigt Hill
#
# Bulk Modulus (GPa) = 25.43193 27.57144 26.50169
# Shear Modulus (GPa) = 27.34907 30.57318 28.96113
#
# Velocity S-wave (km/s) = 3.32370 3.51415 3.42025
# Velocity P-wave (km/s) = 5.00019 5.25380 5.12856
#
# Compressibility (1/GPa) = 0.03932064
#
# Stress axis : x y z
#
# Youngs Moduli (GPa) = 101.59811 59.92832 51.20465
#
# Poissons Ratio (x) = 0.09830 -0.01922
# Poissons Ratio (y) = 0.16664 0.10775
# Poissons Ratio (z) = -0.03814 0.12610
#
# Static dielectric constant tensor:
#      x y z
#    x 1.938460 0.000000 0.000000 
#    y 0.000000 1.972950 0.000000 
#    z 0.000000 0.000000 2.151690 
# 
# From -- ./inp_files/6451.got.cif
#   From: 2010.05.17/outbox.cif.g08.bks.cpg/sg61_4_cif.got.tgz:6451.got - 2010.06.03 15:17:17.
