data_PCOD9460208
_publ_section_title
;
Structure prediction by ZEFSAII (Michael W. Deem and Ramdas Pophale) SiO2 
 PCOD9460208
Probable space group: P B C A
;
_chemical_formula_sum "Si O2"
_cell_formula_units_Z 56
_cell_length_a 31.156276
_cell_length_b 5.632527
_cell_length_c 12.837399
_cell_angle_alpha 90.000000
_cell_angle_beta 90.000000
_cell_angle_gamma 90.000000
_cell_volume 2252.816739
_symmetry_space_group_name_H-M "P B C A"
_symmetry_group_IT_number 61
_symmetry_cell_setting 'orthorhombic'
loop_
_space_group_symop_operation_xyz
x,y,z
1/2-x,-y,1/2+z
1/2+x,1/2-y,-z
-x,1/2+y,1/2-z
-x,-y,-z
1/2+x,y,1/2-z
1/2-x,1/2+y,z
x,1/2-y,1/2+z
loop_
_atom_site_type_symbol
_atom_site_label
_atom_site_fract_x
_atom_site_fract_y
_atom_site_fract_z
Si Si1 0.525048 0.113586 0.751061
Si Si2 0.645837 0.131577 0.017963
Si Si3 0.088102 0.513248 0.422754
Si Si4 0.225736 0.634692 0.665696
Si Si5 0.256077 0.856857 0.940847
Si Si6 0.633463 0.865578 0.226048
Si Si7 0.082410 0.825615 0.600330
O O1 0.496808 0.870497 0.735045
O O2 0.554501 0.125791 0.647737
O O3 0.553623 0.030794 0.849638
O O4 0.617815 0.363214 0.000475
O O5 0.635484 0.067313 0.138530
O O6 0.696327 0.151699 0.012060
O O7 0.626939 0.938831 0.939858
O O8 0.121720 0.636958 0.344012
O O9 0.064284 0.703781 0.496530
O O10 0.248685 0.380611 0.687688
O O11 0.223742 0.639435 0.538447
O O12 0.179098 0.640621 0.717746
O O13 0.248551 0.608347 0.884033
O O14 0.594802 0.859343 0.308731
#
# Coordination Sequence:
#
# PCOD9460208 Si02
#       7
#     8   8   8   8   8   8   8
#     4  11  28  50  77 111 153 182 234 300 368 448
#     4  11  25  43  73 101 149 192 255 305 359 439
#     4  10  26  45  74 107 141 190 247 291 368 441
#     4  10  22  38  62  93 134 184 239 288 358 407
#     4  10  23  41  64  98 139 188 243 300 358 410
#     4  10  24  43  66 101 142 191 242 303 359 432
#     4  10  24  46  74 105 141 196 239 293 367 442
#
# _framework density 24.857768
#
# number of rings (size 3 to 8) (size 9 to 14) (size 15 to 20)
#    0.000    1.714    0.000    1.714   18.000    3.429 
#    0.000    0.000    0.000    0.000    0.000    0.000 
#    0.000    0.000    0.000    0.000    0.000    0.000 
#
# Total GULP energy -313057.912685 kJ/mol
# GULP energy per Si atom -5590.319869 kJ/mol
# Density = 2.480119 g / cm^3
# Si number density = 24.857768 Si / 1000 Ang^3
#
#
#
# Elastic Constant Matrix: (Units=GPa)
#
#
# Indices 1 2 3 4 5 6 
#
# 1 76.9383 35.3859 0.9293 0.0000 0.0000 0.0000
# 2 35.3859 143.9517 30.6165 0.0000 0.0000 0.0000
# 3 0.9293 30.6165 45.2371 0.0000 0.0000 0.0000
# 4 0.0000 0.0000 0.0000 35.4398 0.0000 0.0000
# 5 0.0000 0.0000 0.0000 0.0000 32.0277 0.0000
# 6 0.0000 0.0000 0.0000 0.0000 0.0000 41.3616
#
#
#
# Elastic Compliance Matrix: (Units=1/GPa)
#
#
# Indices 1 2 3 4 5 6 
#
# 1 0.014900 -0.004202 0.002538 0.000000 0.000000 0.000000
# 2 -0.004202 0.009300 -0.006208 0.000000 0.000000 0.000000
# 3 0.002538 -0.006208 0.026255 0.000000 0.000000 0.000000
# 4 0.000000 0.000000 0.000000 0.028217 0.000000 0.000000
# 5 0.000000 0.000000 0.000000 0.000000 0.031223 0.000000
# 6 0.000000 0.000000 0.000000 0.000000 0.000000 0.024177
#
#
# Mechanical properties :
#
#
# Convention : Reuss Voigt Hill
#
# Bulk Modulus (GPa) = 28.80992 44.44341 36.62666
# Shear Modulus (GPa) = 30.98152 35.04551 33.01352
#
# Velocity S-wave (km/s) = 3.53420 3.75886 3.64826
# Velocity P-wave (km/s) = 5.31688 6.06272 5.70201
#
# Compressibility (1/GPa) = 0.03471027
#
# Stress axis : x y z
#
# Youngs Moduli (GPa) = 67.11609 107.52507 38.08769
#
# Poissons Ratio (x) = 0.45186 -0.09667
# Poissons Ratio (y) = 0.28205 0.23645
# Poissons Ratio (z) = -0.17035 0.66752
#
# Static dielectric constant tensor:
#      x y z
#    x 1.941020 0.000000 0.000000 
#    y 0.000000 2.037110 0.000000 
#    z 0.000000 0.000000 1.971990 
# 
# From -- ./inp_files/610.got.cif
#   From: 2010.05.17/outbox.cif.g08.bks.cpg/sg61_1_cif.got.tgz:610.got - 2010.06.03 15:17:17.
