data_PCOD9460772
_publ_section_title
;
Structure prediction by ZEFSAII (Michael W. Deem and Ramdas Pophale) SiO2 
 PCOD9460772
Probable space group: P B C A
;
_chemical_formula_sum "Si O2"
_cell_formula_units_Z 56
_cell_length_a 13.232047
_cell_length_b 8.254602
_cell_length_c 20.654696
_cell_angle_alpha 90.000000
_cell_angle_beta 90.000000
_cell_angle_gamma 90.000000
_cell_volume 2256.014988
_symmetry_space_group_name_H-M "P B C A"
_symmetry_group_IT_number 61
_symmetry_cell_setting 'orthorhombic'
loop_
_space_group_symop_operation_xyz
x,y,z
1/2-x,-y,1/2+z
1/2+x,1/2-y,-z
-x,1/2+y,1/2-z
-x,-y,-z
1/2+x,y,1/2-z
1/2-x,1/2+y,z
x,1/2-y,1/2+z
loop_
_atom_site_type_symbol
_atom_site_label
_atom_site_fract_x
_atom_site_fract_y
_atom_site_fract_z
Si Si1 0.683444 0.896501 0.933223
Si Si2 0.640522 0.386303 0.832359
Si Si3 0.662602 0.173479 0.606613
Si Si4 0.753046 0.852399 0.243139
Si Si5 0.996419 0.578624 0.158116
Si Si6 0.699509 0.614434 0.022244
Si Si7 0.943353 0.219703 0.204631
O O1 0.791549 0.881444 0.896540
O O2 0.599509 0.939121 0.881363
O O3 0.652331 0.728674 0.967481
O O4 0.703764 0.031268 0.987311
O O5 0.667321 0.223430 0.792768
O O6 0.684663 0.526808 0.785918
O O7 0.519289 0.389615 0.839030
O O8 0.691107 0.102572 0.676817
O O9 0.580579 0.312750 0.617154
O O10 0.760090 0.264223 0.576825
O O11 0.639105 0.030438 0.555948
O O12 0.675621 0.713139 0.219228
O O13 0.014696 0.677496 0.223996
O O14 0.955552 0.401831 0.176941
#
# Coordination Sequence:
#
# PCOD9460772 Si02
#       7
#     8   8   8   8   8   8   8
#     4  11  24  44  67  98 134 180 227 279 334 401
#     4  12  24  41  69  99 140 175 215 281 347 405
#     4  11  24  46  70  99 134 181 231 278 334 401
#     4  12  23  41  67 100 135 173 218 277 345 403
#     4  12  25  41  67 100 140 177 225 280 339 412
#     4  10  24  46  68  91 133 185 233 276 329 393
#     4  12  24  41  62 106 140 173 216 271 356 414
#
# _framework density 24.82253
#
# number of rings (size 3 to 8) (size 9 to 14) (size 15 to 20)
#    0.000    0.571    4.286    4.286    0.000    2.286 
#    0.000    5.714    0.000    0.000    0.000    0.000 
#    0.000    0.000    0.000    0.000    0.000    0.000 
#
# Total GULP energy -313236.952881 kJ/mol
# GULP energy per Si atom -5593.517016 kJ/mol
# Density = 2.476603 g / cm^3
# Si number density = 24.822530 Si / 1000 Ang^3
#
#
#
# Elastic Constant Matrix: (Units=GPa)
#
#
# Indices 1 2 3 4 5 6 
#
# 1 55.3535 -8.7359 -5.8331 0.0000 0.0000 0.0000
# 2 -8.7359 95.6922 36.2681 0.0000 0.0000 0.0000
# 3 -5.8331 36.2681 92.7419 0.0000 0.0000 0.0000
# 4 0.0000 0.0000 0.0000 40.3522 0.0000 0.0000
# 5 0.0000 0.0000 0.0000 0.0000 29.0649 0.0000
# 6 0.0000 0.0000 0.0000 0.0000 0.0000 27.3712
#
#
#
# Elastic Compliance Matrix: (Units=1/GPa)
#
#
# Indices 1 2 3 4 5 6 
#
# 1 0.018357 0.001454 0.000586 0.000000 0.000000 0.000000
# 2 0.001454 0.012384 -0.004751 0.000000 0.000000 0.000000
# 3 0.000586 -0.004751 0.012678 0.000000 0.000000 0.000000
# 4 0.000000 0.000000 0.000000 0.024782 0.000000 0.000000
# 5 0.000000 0.000000 0.000000 0.000000 0.034406 0.000000
# 6 0.000000 0.000000 0.000000 0.000000 0.000000 0.036535
#
#
# Mechanical properties :
#
#
# Convention : Reuss Voigt Hill
#
# Bulk Modulus (GPa) = 26.31930 31.90954 29.11442
# Shear Modulus (GPa) = 31.80081 34.16356 32.98218
#
# Velocity S-wave (km/s) = 3.58317 3.71389 3.64912
# Velocity P-wave (km/s) = 5.26733 5.59228 5.43224
#
# Compressibility (1/GPa) = 0.03799492
#
# Stress axis : x y z
#
# Youngs Moduli (GPa) = 54.47549 80.75131 78.87937
#
# Poissons Ratio (x) = -0.11739 -0.04623
# Poissons Ratio (y) = -0.07919 0.37479
# Poissons Ratio (z) = -0.03193 0.38368
#
# Static dielectric constant tensor:
#      x y z
#    x 1.954720 0.000000 0.000000 
#    y 0.000000 2.008030 0.000000 
#    z 0.000000 0.000000 1.908140 
# 
# From -- ./inp_files/10473.got.cif
#   From: 2010.05.17/outbox.cif.g08.bks.cpg/sg61_6_cif.got.tgz:10473.got - 2010.06.03 15:17:17.
