data_PCOD9460660
_publ_section_title
;
Structure prediction by ZEFSAII (Michael W. Deem and Ramdas Pophale) SiO2 
 PCOD9460660
Probable space group: P B C A
;
_chemical_formula_sum "Si O2"
_cell_formula_units_Z 40
_cell_length_a 9.715952
_cell_length_b 13.700012
_cell_length_c 13.945753
_cell_angle_alpha 90.000000
_cell_angle_beta 90.000000
_cell_angle_gamma 90.000000
_cell_volume 1856.300480
_symmetry_space_group_name_H-M "P B C A"
_symmetry_group_IT_number 61
_symmetry_cell_setting 'orthorhombic'
loop_
_space_group_symop_operation_xyz
x,y,z
1/2-x,-y,1/2+z
1/2+x,1/2-y,-z
-x,1/2+y,1/2-z
-x,-y,-z
1/2+x,y,1/2-z
1/2-x,1/2+y,z
x,1/2-y,1/2+z
loop_
_atom_site_type_symbol
_atom_site_label
_atom_site_fract_x
_atom_site_fract_y
_atom_site_fract_z
Si Si1 0.059261 0.680577 0.225903
Si Si2 0.137401 0.458422 0.448636
Si Si3 0.076970 0.461501 0.906741
Si Si4 0.670396 0.407924 0.853452
Si Si5 0.453015 0.091742 0.720180
O O1 0.207649 0.633120 0.210660
O O2 0.973292 0.642646 0.133029
O O3 0.972060 0.638468 0.315226
O O4 0.078258 0.795573 0.232301
O O5 0.260533 0.532304 0.426129
O O6 0.193008 0.388859 0.533978
O O7 0.087027 0.414442 0.348316
O O8 0.000000 0.500000 0.500000
O O9 0.036503 0.536627 0.821242
O O10 0.000000 0.500000 0.000000
O O11 0.659726 0.524345 0.834473
#
# Coordination Sequence:
#
# PCOD9460660 Si02
#       5
#     8   8   8   8   8
#     4  11  25  43  73 107 142 199 238 298 367 437
#     4  10  23  46  69  98 140 189 231 304 363 423
#     4  11  24  44  73 102 144 187 246 305 366 430
#     4  10  24  45  69 102 147 186 242 302 362 426
#     4  10  26  43  73 102 147 186 248 294 368 436
#
# _framework density 21.548234999999998
#
# number of rings (size 3 to 8) (size 9 to 14) (size 15 to 20)
#    0.000    1.600    2.000    0.000   19.600    1.600 
#    7.200    0.000    0.000    0.000    0.000    0.000 
#    0.000    0.000    0.000    0.000    0.000    0.000 
#
# Total GULP energy -223230.463193 kJ/mol
# GULP energy per Si atom -5580.761580 kJ/mol
# Density = 2.149919 g / cm^3
# Si number density = 21.548235 Si / 1000 Ang^3
#
#
#
# Elastic Constant Matrix: (Units=GPa)
#
#
# Indices 1 2 3 4 5 6 
#
# 1 112.2004 30.9903 27.4200 0.0000 0.0000 0.0000
# 2 30.9903 127.5721 15.1484 0.0000 0.0000 0.0000
# 3 27.4200 15.1484 136.1730 0.0000 0.0000 0.0000
# 4 0.0000 0.0000 0.0000 7.6102 0.0000 0.0000
# 5 0.0000 0.0000 0.0000 0.0000 34.5651 0.0000
# 6 0.0000 0.0000 0.0000 0.0000 0.0000 22.3609
#
#
#
# Elastic Compliance Matrix: (Units=1/GPa)
#
#
# Indices 1 2 3 4 5 6 
#
# 1 0.009952 -0.002209 -0.001758 0.000000 0.000000 0.000000
# 2 -0.002209 0.008434 -0.000493 0.000000 0.000000 0.000000
# 3 -0.001758 -0.000493 0.007753 0.000000 0.000000 0.000000
# 4 0.000000 0.000000 0.000000 0.131403 0.000000 0.000000
# 5 0.000000 0.000000 0.000000 0.000000 0.028931 0.000000
# 6 0.000000 0.000000 0.000000 0.000000 0.000000 0.044721
#
#
# Mechanical properties :
#
#
# Convention : Reuss Voigt Hill
#
# Bulk Modulus (GPa) = 58.08011 58.11810 58.09910
# Shear Modulus (GPa) = 20.33725 33.06636 26.70180
#
# Velocity S-wave (km/s) = 3.07547 3.92155 3.52400
# Velocity P-wave (km/s) = 6.29471 6.89453 6.60143
#
# Compressibility (1/GPa) = 0.01721760
#
# Stress axis : x y z
#
# Youngs Moduli (GPa) = 100.47799 118.56927 128.98991
#
# Poissons Ratio (x) = 0.26191 0.22680
# Poissons Ratio (y) = 0.22195 0.06365
# Poissons Ratio (z) = 0.17667 0.05851
#
# Static dielectric constant tensor:
#      x y z
#    x 1.841080 0.000000 0.000000 
#    y 0.000000 1.758890 0.000000 
#    z 0.000000 0.000000 1.872320 
# 
# From -- ./inp_files/6974.got.cif
#   From: 2010.05.17/outbox.cif.g08.bks.cpg/sg61_4_cif.got.tgz:6974.got - 2010.06.03 15:17:17.
