data_PCOD9460756
_publ_section_title
;
Structure prediction by ZEFSAII (Michael W. Deem and Ramdas Pophale) SiO2 
 PCOD9460756
Probable space group: P B C A
;
_chemical_formula_sum "Si O2"
_cell_formula_units_Z 40
_cell_length_a 9.259120
_cell_length_b 10.814460
_cell_length_c 15.421003
_cell_angle_alpha 90.000000
_cell_angle_beta 90.000000
_cell_angle_gamma 90.000000
_cell_volume 1544.141777
_symmetry_space_group_name_H-M "P B C A"
_symmetry_group_IT_number 61
_symmetry_cell_setting 'orthorhombic'
loop_
_space_group_symop_operation_xyz
x,y,z
1/2-x,-y,1/2+z
1/2+x,1/2-y,-z
-x,1/2+y,1/2-z
-x,-y,-z
1/2+x,y,1/2-z
1/2-x,1/2+y,z
x,1/2-y,1/2+z
loop_
_atom_site_type_symbol
_atom_site_label
_atom_site_fract_x
_atom_site_fract_y
_atom_site_fract_z
Si Si1 0.079389 0.560277 0.134207
Si Si2 0.989876 0.579909 0.698108
Si Si3 0.728764 0.748073 0.761319
Si Si4 0.578098 0.648665 0.090747
Si Si5 0.870468 0.831608 0.493216
O O1 0.994703 0.507411 0.217442
O O2 0.214867 0.631693 0.177476
O O3 0.114149 0.447455 0.071048
O O4 0.972247 0.644099 0.077065
O O5 0.872682 0.683589 0.726456
O O6 0.939672 0.493980 0.618925
O O7 0.141060 0.645680 0.685146
O O8 0.633059 0.781575 0.677253
O O9 0.435391 0.712144 0.053769
O O10 0.707216 0.673120 0.024271
#
# Coordination Sequence:
#
# PCOD9460756 Si02
#       5
#     8   8   8   8   8
#     4  10  24  44  73 103 152 193 247 302 385 435
#     4  11  24  46  76 108 142 203 253 304 372 462
#     4  11  24  47  74 107 144 202 249 310 362 468
#     4  11  26  45  78 108 154 192 253 304 381 447
#     4  11  24  48  74 114 148 194 246 320 371 447
#
# _framework density 25.904357999999998
#
# number of rings (size 3 to 8) (size 9 to 14) (size 15 to 20)
#    0.000    1.200    2.000    2.400    5.600    6.400 
#    0.000    4.000    0.000    0.000    0.000    0.000 
#    0.000    0.000    0.000    0.000    0.000    0.000 
#
# Total GULP energy -224377.045945 kJ/mol
# GULP energy per Si atom -5609.426149 kJ/mol
# Density = 2.584540 g / cm^3
# Si number density = 25.904358 Si / 1000 Ang^3
#
#
#
# Elastic Constant Matrix: (Units=GPa)
#
#
# Indices 1 2 3 4 5 6 
#
# 1 100.4274 52.9175 42.6817 0.0000 0.0000 0.0000
# 2 52.9175 107.4531 54.2767 0.0000 0.0000 0.0000
# 3 42.6817 54.2767 134.3730 0.0000 0.0000 0.0000
# 4 0.0000 0.0000 0.0000 54.9007 0.0000 0.0000
# 5 0.0000 0.0000 0.0000 0.0000 55.2072 0.0000
# 6 0.0000 0.0000 0.0000 0.0000 0.0000 -5.7736
#
#
#
# Elastic Compliance Matrix: (Units=1/GPa)
#
#
# Indices 1 2 3 4 5 6 
#
# 1 0.013891 -0.005795 -0.002072 0.000000 0.000000 0.000000
# 2 -0.005795 0.014109 -0.003858 0.000000 0.000000 0.000000
# 3 -0.002072 -0.003858 0.009659 0.000000 0.000000 0.000000
# 4 0.000000 0.000000 0.000000 0.018215 0.000000 0.000000
# 5 0.000000 0.000000 0.000000 0.000000 0.018114 0.000000
# 6 0.000000 0.000000 0.000000 0.000000 0.000000 -0.173202
#
#
# Mechanical properties :
#
#
# Convention : Reuss Voigt Hill
#
# Bulk Modulus (GPa) = 70.37654 71.33393 70.85523
# Shear Modulus (GPa) = -70.39359 33.69202 -18.35078
#
# Velocity S-wave (km/s) = -5.21856 3.61034 -2.66448
# Velocity P-wave (km/s) = 3.01403 6.70646 4.23628
#
# Compressibility (1/GPa) = 0.01420928
#
# Stress axis : x y z
#
# Youngs Moduli (GPa) = 71.98791 70.87681 103.53503
#
# Poissons Ratio (x) = 0.41070 0.21450
# Poissons Ratio (y) = 0.41714 0.39948
# Poissons Ratio (z) = 0.14914 0.27347
#
# Static dielectric constant tensor:
#      x y z
#    x 1.991420 0.000000 0.000000 
#    y 0.000000 2.062870 0.000000 
#    z 0.000000 0.000000 2.023730 
# 
# From -- ./inp_files/7357.got.cif
#   From: 2010.05.17/outbox.cif.g08.bks.cpg/sg61_4_cif.got.tgz:7357.got - 2010.06.03 15:17:17.
