data_PCOD9460877
_publ_section_title
;
Structure prediction by ZEFSAII (Michael W. Deem and Ramdas Pophale) SiO2 
 PCOD9460877
Probable space group: P B C A
;
_chemical_formula_sum "Si O2"
_cell_formula_units_Z 64
_cell_length_a 9.093307
_cell_length_b 29.813630
_cell_length_c 11.460007
_cell_angle_alpha 90.000000
_cell_angle_beta 90.000000
_cell_angle_gamma 90.000000
_cell_volume 3106.859357
_symmetry_space_group_name_H-M "P B C A"
_symmetry_group_IT_number 61
_symmetry_cell_setting 'orthorhombic'
loop_
_space_group_symop_operation_xyz
x,y,z
1/2-x,-y,1/2+z
1/2+x,1/2-y,-z
-x,1/2+y,1/2-z
-x,-y,-z
1/2+x,y,1/2-z
1/2-x,1/2+y,z
x,1/2-y,1/2+z
loop_
_atom_site_type_symbol
_atom_site_label
_atom_site_fract_x
_atom_site_fract_y
_atom_site_fract_z
Si Si1 0.959428 0.629358 0.081994
Si Si2 0.102370 0.768962 0.854288
Si Si3 0.019116 0.870098 0.839181
Si Si4 0.699709 0.472123 0.185719
Si Si5 0.729612 0.940777 0.578259
Si Si6 0.776347 0.588418 0.471952
Si Si7 0.944726 0.735412 0.096134
Si Si8 0.119891 0.506199 0.623042
O O1 0.845393 0.594250 0.025952
O O2 0.949850 0.682381 0.061490
O O3 0.930095 0.626463 0.220326
O O4 0.122190 0.610974 0.057480
O O5 0.099966 0.822994 0.847418
O O6 0.272217 0.753460 0.875221
O O7 0.033280 0.756657 0.722612
O O8 0.010903 0.757283 0.975103
O O9 0.133230 0.910438 0.837491
O O10 0.906592 0.877160 0.944576
O O11 0.795264 0.515007 0.138884
O O12 0.532484 0.488023 0.188014
O O13 0.756592 0.464976 0.312801
O O14 0.721069 0.430205 0.102737
O O15 0.610711 0.965208 0.495409
O O16 0.814892 0.543110 0.398689
#
# Coordination Sequence:
#
# PCOD9460877 Si02
#       8
#     8   8   8   8   8   8   8   8
#     4  11  24  36  67  97 120 154 213 256 308 371
#     4  11  25  44  73 100 137 170 214 267 333 396
#     4  11  20  40  65  92 120 161 203 257 311 360
#     4  11  23  38  57  82 120 165 206 252 310 363
#     4  11  21  40  58  86 123 155 205 258 301 361
#     4  11  23  38  59  88 121 160 205 258 304 363
#     4  11  25  46  70 104 134 172 213 269 330 400
#     4  11  23  38  57  81 122 164 206 252 309 364
#
# _framework density 20.599578999999999
#
# number of rings (size 3 to 8) (size 9 to 14) (size 15 to 20)
#    0.000    1.000    3.750    3.750   10.500    1.000 
#    0.000    2.500    0.000    0.000    0.000    0.000 
#    0.000    0.000    0.000    0.000    0.000    0.000 
#
# Total GULP energy -356302.003107 kJ/mol
# GULP energy per Si atom -5567.218799 kJ/mol
# Density = 2.055269 g / cm^3
# Si number density = 20.599579 Si / 1000 Ang^3
#
#
#
# Elastic Constant Matrix: (Units=GPa)
#
#
# Indices 1 2 3 4 5 6 
#
# 1 100.4683 16.2531 28.5165 0.0000 0.0000 0.0000
# 2 16.2531 51.7707 15.2867 0.0000 0.0000 0.0000
# 3 28.5165 15.2867 63.2183 0.0000 0.0000 0.0000
# 4 0.0000 0.0000 0.0000 28.9428 0.0000 0.0000
# 5 0.0000 0.0000 0.0000 0.0000 34.2003 0.0000
# 6 0.0000 0.0000 0.0000 0.0000 0.0000 29.1899
#
#
#
# Elastic Compliance Matrix: (Units=1/GPa)
#
#
# Indices 1 2 3 4 5 6 
#
# 1 0.011657 -0.002269 -0.004710 0.000000 0.000000 0.000000
# 2 -0.002269 0.021243 -0.004113 0.000000 0.000000 0.000000
# 3 -0.004710 -0.004113 0.018937 0.000000 0.000000 0.000000
# 4 0.000000 0.000000 0.000000 0.034551 0.000000 0.000000
# 5 0.000000 0.000000 0.000000 0.000000 0.029240 0.000000
# 6 0.000000 0.000000 0.000000 0.000000 0.000000 0.034258
#
#
# Mechanical properties :
#
#
# Convention : Reuss Voigt Hill
#
# Bulk Modulus (GPa) = 33.72282 37.28555 35.50418
# Shear Modulus (GPa) = 27.47940 28.82666 28.15303
#
# Velocity S-wave (km/s) = 3.65633 3.74489 3.70087
# Velocity P-wave (km/s) = 5.85074 6.06946 5.96110
#
# Compressibility (1/GPa) = 0.02965351
#
# Stress axis : x y z
#
# Youngs Moduli (GPa) = 85.78360 47.07476 52.80594
#
# Poissons Ratio (x) = 0.10681 0.24870
# Poissons Ratio (y) = 0.19465 0.21720
# Poissons Ratio (z) = 0.40401 0.19363
#
# Static dielectric constant tensor:
#      x y z
#    x 1.794700 0.000000 0.000000 
#    y 0.000000 1.724490 0.000000 
#    z 0.000000 0.000000 1.897710 
# 
# From -- ./inp_files/4950.got.cif
#   From: 2010.05.17/outbox.cif.g08.bks.cpg/sg61_3_cif.got.tgz:4950.got - 2010.06.03 15:17:17.
