data_PCOD9460019
_publ_section_title
;
Structure prediction by ZEFSAII (Michael W. Deem and Ramdas Pophale) SiO2 
 PCOD9460019
Probable space group: P B C A
;
_chemical_formula_sum "Si O2"
_cell_formula_units_Z 64
_cell_length_a 8.119594
_cell_length_b 24.333087
_cell_length_c 14.634891
_cell_angle_alpha 90.000000
_cell_angle_beta 90.000000
_cell_angle_gamma 90.000000
_cell_volume 2891.485475
_symmetry_space_group_name_H-M "P B C A"
_symmetry_group_IT_number 61
_symmetry_cell_setting 'orthorhombic'
loop_
_space_group_symop_operation_xyz
x,y,z
1/2-x,-y,1/2+z
1/2+x,1/2-y,-z
-x,1/2+y,1/2-z
-x,-y,-z
1/2+x,y,1/2-z
1/2-x,1/2+y,z
x,1/2-y,1/2+z
loop_
_atom_site_type_symbol
_atom_site_label
_atom_site_fract_x
_atom_site_fract_y
_atom_site_fract_z
Si Si1 0.236153 0.921059 0.954234
Si Si2 0.865118 0.895287 0.932361
Si Si3 0.691280 0.063814 0.839193
Si Si4 0.694967 0.197989 0.109251
Si Si5 0.015973 0.840777 0.769925
Si Si6 0.146224 0.181710 0.892492
Si Si7 0.925999 0.361601 0.238274
Si Si8 0.559250 0.947327 0.842022
O O1 0.273646 0.855060 0.953372
O O2 0.375825 0.945078 0.885976
O O3 0.041746 0.927015 0.931675
O O4 0.266505 0.942812 0.055039
O O5 0.699625 0.929600 0.915417
O O6 0.878986 0.852957 0.847066
O O7 0.858980 0.862534 0.027033
O O8 0.571230 0.115589 0.824819
O O9 0.846087 0.083276 0.780691
O O10 0.609885 0.007137 0.807911
O O11 0.544385 0.186303 0.177215
O O12 0.849237 0.194801 0.178324
O O13 0.666977 0.257338 0.067268
O O14 0.069724 0.901714 0.737334
O O15 0.298912 0.169708 0.825595
O O16 0.992012 0.173387 0.824132
#
# Coordination Sequence:
#
# PCOD9460019 Si02
#       8
#     8   8   8   8   8   8   8   8
#     4  10  23  44  62 101 137 161 229 285 312 416
#     4  11  23  43  68  98 137 166 229 273 326 410
#     4  11  23  44  64  98 128 179 219 276 340 395
#     4  10  21  40  67  91 132 172 216 273 342 384
#     4  10  21  42  61 101 129 164 226 278 313 415
#     4  11  22  45  65  98 128 185 214 277 346 389
#     4  10  24  42  66  90 139 165 232 274 321 422
#     4  11  24  42  72  94 135 180 213 278 350 384
#
# _framework density 22.133953000000002
#
# number of rings (size 3 to 8) (size 9 to 14) (size 15 to 20)
#    0.000    1.500    2.500    1.875    1.750    0.500 
#   20.250    0.000    0.000    0.000    0.000    0.000 
#    0.000    0.000    0.000    0.000    0.000    0.000 
#
# Total GULP energy -357377.255285 kJ/mol
# GULP energy per Si atom -5584.019614 kJ/mol
# Density = 2.208358 g / cm^3
# Si number density = 22.133953 Si / 1000 Ang^3
#
#
#
# Elastic Constant Matrix: (Units=GPa)
#
#
# Indices 1 2 3 4 5 6 
#
# 1 71.5248 4.6042 12.3698 0.0000 0.0000 0.0000
# 2 4.6042 53.2560 0.5886 0.0000 0.0000 0.0000
# 3 12.3698 0.5886 60.2418 0.0000 0.0000 0.0000
# 4 0.0000 0.0000 0.0000 -10.6918 0.0000 0.0000
# 5 0.0000 0.0000 0.0000 0.0000 9.3158 0.0000
# 6 0.0000 0.0000 0.0000 0.0000 0.0000 14.7496
#
#
#
# Elastic Compliance Matrix: (Units=1/GPa)
#
#
# Indices 1 2 3 4 5 6 
#
# 1 0.014576 -0.001227 -0.002981 0.000000 0.000000 0.000000
# 2 -0.001227 0.018883 0.000067 0.000000 0.000000 0.000000
# 3 -0.002981 0.000067 0.017211 0.000000 0.000000 0.000000
# 4 0.000000 0.000000 0.000000 -0.093529 0.000000 0.000000
# 5 0.000000 0.000000 0.000000 0.000000 0.107345 0.000000
# 6 0.000000 0.000000 0.000000 0.000000 0.000000 0.067798
#
#
# Mechanical properties :
#
#
# Convention : Reuss Voigt Hill
#
# Bulk Modulus (GPa) = 23.59146 24.46088 24.02617
# Shear Modulus (GPa) = 32.32188 13.83871 23.08030
#
# Velocity S-wave (km/s) = 3.82551 2.50316 3.23268
# Velocity P-wave (km/s) = 5.49494 4.40792 4.98117
#
# Compressibility (1/GPa) = 0.04238821
#
# Stress axis : x y z
#
# Youngs Moduli (GPa) = 68.60739 52.95888 58.10170
#
# Poissons Ratio (x) = 0.06499 0.17320
# Poissons Ratio (y) = 0.08419 -0.00392
# Poissons Ratio (z) = 0.20451 -0.00357
#
# Static dielectric constant tensor:
#      x y z
#    x 1.892850 0.000000 0.000000 
#    y 0.000000 1.818110 0.000000 
#    z 0.000000 0.000000 1.769810 
# 
# From -- ./inp_files/4353.got.cif
#   From: 2010.05.17/outbox.cif.g08.bks.cpg/sg61_3_cif.got.tgz:4353.got - 2010.06.03 15:17:17.
