data_PCOD9460922
_publ_section_title
;
Structure prediction by ZEFSAII (Michael W. Deem and Ramdas Pophale) SiO2 
 PCOD9460922
Probable space group: P B C A
;
_chemical_formula_sum "Si O2"
_cell_formula_units_Z 48
_cell_length_a 16.573030
_cell_length_b 9.215874
_cell_length_c 13.462221
_cell_angle_alpha 90.000000
_cell_angle_beta 90.000000
_cell_angle_gamma 90.000000
_cell_volume 2056.151736
_symmetry_space_group_name_H-M "P B C A"
_symmetry_group_IT_number 61
_symmetry_cell_setting 'orthorhombic'
loop_
_space_group_symop_operation_xyz
x,y,z
1/2-x,-y,1/2+z
1/2+x,1/2-y,-z
-x,1/2+y,1/2-z
-x,-y,-z
1/2+x,y,1/2-z
1/2-x,1/2+y,z
x,1/2-y,1/2+z
loop_
_atom_site_type_symbol
_atom_site_label
_atom_site_fract_x
_atom_site_fract_y
_atom_site_fract_z
Si Si1 0.986694 0.616271 0.290074
Si Si2 0.859311 0.693482 0.918300
Si Si3 0.782864 0.393550 0.848443
Si Si4 0.010157 0.352237 0.941494
Si Si5 0.079188 0.594237 0.472692
Si Si6 0.349282 0.406797 0.172197
O O1 0.927124 0.736140 0.343228
O O2 0.996722 0.645269 0.175196
O O3 0.935371 0.466571 0.294437
O O4 0.068695 0.596446 0.354334
O O5 0.836362 0.525387 0.893951
O O6 0.779024 0.790647 0.911843
O O7 0.902226 0.705730 0.024625
O O8 0.832816 0.259731 0.803373
O O9 0.719986 0.489005 0.783301
O O10 0.000000 0.500000 0.000000
O O11 0.941885 0.253094 0.988812
O O12 0.149538 0.559440 0.551319
O O13 0.000000 0.500000 0.500000
#
# Coordination Sequence:
#
# PCOD9460922 Si02
#       6
#     8   8   8   8   8   8
#     4   9  20  37  57  83 116 148 189 240 288 345
#     4   9  19  36  57  82 114 148 189 236 285 341
#     4   9  17  34  59  81 112 152 188 237 281 335
#     4  11  22  37  58  88 117 149 190 237 293 342
#     4   9  19  35  56  82 113 152 190 234 288 342
#     4   9  17  33  57  84 115 149 190 234 285 337
#
# _framework density 23.344581000000002
#
# number of rings (size 3 to 8) (size 9 to 14) (size 15 to 20)
#    0.000    2.667    0.000    2.000    0.000    5.333 
#    0.000    8.333    0.000   12.000    0.000    0.000 
#    0.000    0.000    0.000    0.000    0.000    0.000 
#
# Total GULP energy -267219.103763 kJ/mol
# GULP energy per Si atom -5567.064662 kJ/mol
# Density = 2.329145 g / cm^3
# Si number density = 23.344581 Si / 1000 Ang^3
#
#
#
# Elastic Constant Matrix: (Units=GPa)
#
#
# Indices 1 2 3 4 5 6 
#
# 1 58.6110 28.1668 9.3174 0.0000 0.0000 0.0000
# 2 28.1668 178.3907 15.0305 0.0000 0.0000 0.0000
# 3 9.3174 15.0305 107.3932 0.0000 0.0000 0.0000
# 4 0.0000 0.0000 0.0000 14.8852 0.0000 0.0000
# 5 0.0000 0.0000 0.0000 0.0000 15.0137 0.0000
# 6 0.0000 0.0000 0.0000 0.0000 0.0000 44.2774
#
#
#
# Elastic Compliance Matrix: (Units=1/GPa)
#
#
# Indices 1 2 3 4 5 6 
#
# 1 0.018619 -0.002837 -0.001218 0.000000 0.000000 0.000000
# 2 -0.002837 0.006105 -0.000608 0.000000 0.000000 0.000000
# 3 -0.001218 -0.000608 0.009502 0.000000 0.000000 0.000000
# 4 0.000000 0.000000 0.000000 0.067181 0.000000 0.000000
# 5 0.000000 0.000000 0.000000 0.000000 0.066606 0.000000
# 6 0.000000 0.000000 0.000000 0.000000 0.000000 0.022585
#
#
# Mechanical properties :
#
#
# Convention : Reuss Voigt Hill
#
# Bulk Modulus (GPa) = 40.16278 49.93603 45.04941
# Shear Modulus (GPa) = 24.01253 34.29394 29.15323
#
# Velocity S-wave (km/s) = 3.21068 3.83695 3.53770
# Velocity P-wave (km/s) = 5.56653 6.40835 6.00222
#
# Compressibility (1/GPa) = 0.02489867
#
# Stress axis : x y z
#
# Youngs Moduli (GPa) = 53.70925 163.80307 105.23652
#
# Poissons Ratio (x) = 0.46473 0.12821
# Poissons Ratio (y) = 0.15238 0.06401
# Poissons Ratio (z) = 0.06543 0.09964
#
# Static dielectric constant tensor:
#      x y z
#    x 2.023600 0.000000 0.000000 
#    y 0.000000 1.365820 0.000000 
#    z 0.000000 0.000000 1.883370 
# 
# From -- ./inp_files/6597.got.cif
#   From: 2010.05.17/outbox.cif.g08.bks.cpg/sg61_4_cif.got.tgz:6597.got - 2010.06.03 15:17:17.
