data_PCOD9460605
_publ_section_title
;
Structure prediction by ZEFSAII (Michael W. Deem and Ramdas Pophale) SiO2 
 PCOD9460605
Probable space group: P B C A
;
_chemical_formula_sum "Si O2"
_cell_formula_units_Z 32
_cell_length_a 19.757597
_cell_length_b 5.225026
_cell_length_c 12.911390
_cell_angle_alpha 90.000000
_cell_angle_beta 90.000000
_cell_angle_gamma 90.000000
_cell_volume 1332.893893
_symmetry_space_group_name_H-M "P B C A"
_symmetry_group_IT_number 61
_symmetry_cell_setting 'orthorhombic'
loop_
_space_group_symop_operation_xyz
x,y,z
1/2-x,-y,1/2+z
1/2+x,1/2-y,-z
-x,1/2+y,1/2-z
-x,-y,-z
1/2+x,y,1/2-z
1/2-x,1/2+y,z
x,1/2-y,1/2+z
loop_
_atom_site_type_symbol
_atom_site_label
_atom_site_fract_x
_atom_site_fract_y
_atom_site_fract_z
Si Si1 0.066697 0.608881 0.614881
Si Si2 0.379865 0.289257 0.899026
Si Si3 0.790950 0.189587 0.415978
Si Si4 0.926024 0.772608 0.712129
O O1 0.066468 0.638609 0.491124
O O2 0.138470 0.744045 0.638719
O O3 0.073015 0.326362 0.664805
O O4 0.002346 0.726370 0.671932
O O5 0.381008 0.540000 0.828635
O O6 0.401629 0.033995 0.841313
O O7 0.311703 0.230222 0.963062
O O8 0.736874 0.410419 0.392488
#
# Coordination Sequence:
#
# PCOD9460605 Si02
#       4
#     8   8   8   8
#     4  10  26  40  72  96 141 164 217 279 327 398
#     4  10  25  40  70  91 137 172 211 275 328 382
#     4  10  23  44  65  91 132 179 219 266 324 386
#     4  12  22  44  65 108 125 171 221 267 347 386
#
# _framework density 24.007911
#
# number of rings (size 3 to 8) (size 9 to 14) (size 15 to 20)
#    1.500    0.000    0.000    4.500    0.000   10.000 
#    0.000    7.500    0.000    0.000    0.000    0.000 
#    0.000    0.000    0.000    0.000    0.000    0.000 
#
# Total GULP energy -178821.799710 kJ/mol
# GULP energy per Si atom -5588.181241 kJ/mol
# Density = 2.395327 g / cm^3
# Si number density = 24.007911 Si / 1000 Ang^3
#
#
#
# Elastic Constant Matrix: (Units=GPa)
#
#
# Indices 1 2 3 4 5 6 
#
# 1 35.5787 -10.6821 -5.2211 0.0000 0.0000 0.0000
# 2 -10.6821 116.7092 44.7959 0.0000 0.0000 0.0000
# 3 -5.2211 44.7959 85.7118 0.0000 0.0000 0.0000
# 4 0.0000 0.0000 0.0000 44.0027 0.0000 0.0000
# 5 0.0000 0.0000 0.0000 0.0000 23.6380 0.0000
# 6 0.0000 0.0000 0.0000 0.0000 0.0000 38.3776
#
#
#
# Elastic Compliance Matrix: (Units=1/GPa)
#
#
# Indices 1 2 3 4 5 6 
#
# 1 0.028916 0.002465 0.000473 0.000000 0.000000 0.000000
# 2 0.002465 0.010929 -0.005561 0.000000 0.000000 0.000000
# 3 0.000473 -0.005561 0.014602 0.000000 0.000000 0.000000
# 4 0.000000 0.000000 0.000000 0.022726 0.000000 0.000000
# 5 0.000000 0.000000 0.000000 0.000000 0.042305 0.000000
# 6 0.000000 0.000000 0.000000 0.000000 0.000000 0.026057
#
#
# Mechanical properties :
#
#
# Convention : Reuss Voigt Hill
#
# Bulk Modulus (GPa) = 20.32497 32.86501 26.59499
# Shear Modulus (GPa) = 29.90759 35.14413 32.52586
#
# Velocity S-wave (km/s) = 3.53333 3.83019 3.68475
# Velocity P-wave (km/s) = 5.01301 5.76883 5.40415
#
# Compressibility (1/GPa) = 0.04920057
#
# Stress axis : x y z
#
# Youngs Moduli (GPa) = 34.58265 91.50344 68.48170
#
# Poissons Ratio (x) = -0.22556 -0.03240
# Poissons Ratio (y) = -0.08525 0.38086
# Poissons Ratio (z) = -0.01636 0.50889
#
# Static dielectric constant tensor:
#      x y z
#    x 1.926520 0.000000 0.000000 
#    y 0.000000 1.886220 0.000000 
#    z 0.000000 0.000000 2.020660 
# 
# From -- ./inp_files/6388.got.cif
#   From: 2010.05.17/outbox.cif.g08.bks.cpg/sg61_4_cif.got.tgz:6388.got - 2010.06.03 15:17:17.
