data_PCOD9460582
_publ_section_title
;
Structure prediction by ZEFSAII (Michael W. Deem and Ramdas Pophale) SiO2 
 PCOD9460582
Probable space group: P B C A
;
_chemical_formula_sum "Si O2"
_cell_formula_units_Z 40
_cell_length_a 13.572445
_cell_length_b 11.586037
_cell_length_c 9.742893
_cell_angle_alpha 90.000000
_cell_angle_beta 90.000000
_cell_angle_gamma 90.000000
_cell_volume 1532.078205
_symmetry_space_group_name_H-M "P B C A"
_symmetry_group_IT_number 61
_symmetry_cell_setting 'orthorhombic'
loop_
_space_group_symop_operation_xyz
x,y,z
1/2-x,-y,1/2+z
1/2+x,1/2-y,-z
-x,1/2+y,1/2-z
-x,-y,-z
1/2+x,y,1/2-z
1/2-x,1/2+y,z
x,1/2-y,1/2+z
loop_
_atom_site_type_symbol
_atom_site_label
_atom_site_fract_x
_atom_site_fract_y
_atom_site_fract_z
Si Si1 0.813924 0.250064 0.363000
Si Si2 0.341427 0.450312 0.820266
Si Si3 0.588229 0.298625 0.441861
Si Si4 0.999081 0.121067 0.844539
Si Si5 0.831885 0.020935 0.486738
O O1 0.701060 0.265103 0.403186
O O2 0.882676 0.361853 0.361927
O O3 0.824514 0.183414 0.216616
O O4 0.859380 0.154771 0.469891
O O5 0.451642 0.494675 0.848967
O O6 0.314093 0.505981 0.673688
O O7 0.264966 0.501807 0.926110
O O8 0.529523 0.322807 0.301716
O O9 0.548162 0.198673 0.538128
O O10 0.592802 0.420042 0.527503
#
# Coordination Sequence:
#
# PCOD9460582 Si02
#       5
#     8   8   8   8   8
#     4  10  23  43  66  98 133 171 220 273 331 385
#     4   9  19  42  66 100 128 173 223 269 331 386
#     4  11  23  42  68  96 133 174 220 274 329 394
#     4  11  23  43  67  97 133 175 221 270 331 398
#     4   9  20  40  67  96 130 174 217 271 332 383
#
# _framework density 26.108326000000002
#
# number of rings (size 3 to 8) (size 9 to 14) (size 15 to 20)
#    1.200    0.800    2.000    1.200    0.000    4.000 
#    3.600    2.000    0.000    0.000    0.000    0.000 
#    0.000    0.000    0.000    0.000    0.000    0.000 
#
# Total GULP energy -223636.928906 kJ/mol
# GULP energy per Si atom -5590.923223 kJ/mol
# Density = 2.604890 g / cm^3
# Si number density = 26.108326 Si / 1000 Ang^3
#
#
#
# Elastic Constant Matrix: (Units=GPa)
#
#
# Indices 1 2 3 4 5 6 
#
# 1 118.2161 4.8061 12.7264 0.0000 0.0000 0.0000
# 2 4.8061 60.5322 12.6181 0.0000 0.0000 0.0000
# 3 12.7264 12.6181 76.3394 0.0000 0.0000 0.0000
# 4 0.0000 0.0000 0.0000 31.3431 0.0000 0.0000
# 5 0.0000 0.0000 0.0000 0.0000 36.1534 0.0000
# 6 0.0000 0.0000 0.0000 0.0000 0.0000 46.4511
#
#
#
# Elastic Compliance Matrix: (Units=1/GPa)
#
#
# Indices 1 2 3 4 5 6 
#
# 1 0.008623 -0.000399 -0.001372 0.000000 0.000000 0.000000
# 2 -0.000399 0.017128 -0.002765 0.000000 0.000000 0.000000
# 3 -0.001372 -0.002765 0.013785 0.000000 0.000000 0.000000
# 4 0.000000 0.000000 0.000000 0.031905 0.000000 0.000000
# 5 0.000000 0.000000 0.000000 0.000000 0.027660 0.000000
# 6 0.000000 0.000000 0.000000 0.000000 0.000000 0.021528
#
#
# Mechanical properties :
#
#
# Convention : Reuss Voigt Hill
#
# Bulk Modulus (GPa) = 32.82332 35.04320 33.93326
# Shear Modulus (GPa) = 35.75150 37.78531 36.76841
#
# Velocity S-wave (km/s) = 3.70449 3.80840 3.75681
# Velocity P-wave (km/s) = 5.55850 5.72625 5.64300
#
# Compressibility (1/GPa) = 0.03046615
#
# Stress axis : x y z
#
# Youngs Moduli (GPa) = 115.96956 58.38369 72.54252
#
# Poissons Ratio (x) = 0.02328 0.09950
# Poissons Ratio (y) = 0.04624 0.20055
# Poissons Ratio (z) = 0.15907 0.16141
#
# Static dielectric constant tensor:
#      x y z
#    x 2.014650 0.000000 0.000000 
#    y 0.000000 2.147210 0.000000 
#    z 0.000000 0.000000 2.060100 
# 
# From -- ./inp_files/2659.got.cif
#   From: 2010.05.17/outbox.cif.g08.bks.cpg/sg61_2_cif.got.tgz:2659.got - 2010.06.03 15:17:17.
