data_PCOD9460188
_publ_section_title
;
Structure prediction by ZEFSAII (Michael W. Deem and Ramdas Pophale) SiO2 
 PCOD9460188
Probable space group: P B C A
;
_chemical_formula_sum "Si O2"
_cell_formula_units_Z 48
_cell_length_a 28.997536
_cell_length_b 14.203927
_cell_length_c 5.096377
_cell_angle_alpha 90.000000
_cell_angle_beta 90.000000
_cell_angle_gamma 90.000000
_cell_volume 2099.090074
_symmetry_space_group_name_H-M "P B C A"
_symmetry_group_IT_number 61
_symmetry_cell_setting 'orthorhombic'
loop_
_space_group_symop_operation_xyz
x,y,z
1/2-x,-y,1/2+z
1/2+x,1/2-y,-z
-x,1/2+y,1/2-z
-x,-y,-z
1/2+x,y,1/2-z
1/2-x,1/2+y,z
x,1/2-y,1/2+z
loop_
_atom_site_type_symbol
_atom_site_label
_atom_site_fract_x
_atom_site_fract_y
_atom_site_fract_z
Si Si1 0.450237 0.428619 0.695910
Si Si2 0.270584 0.451477 0.955893
Si Si3 0.696948 0.188912 0.088912
Si Si4 0.916078 0.808170 0.984933
Si Si5 0.639425 0.466292 0.280631
Si Si6 0.989562 0.116144 0.806663
O O1 0.402048 0.472077 0.601008
O O2 0.471092 0.358424 0.480444
O O3 0.486346 0.514594 0.745612
O O4 0.447976 0.387550 0.987486
O O5 0.259675 0.488010 0.246776
O O6 0.249515 0.347681 0.932080
O O7 0.322581 0.471104 0.867724
O O8 0.689303 0.273273 0.881496
O O9 0.666461 0.101639 0.982968
O O10 0.907007 0.722996 0.189008
O O11 0.886933 0.897236 0.078135
O O12 0.969264 0.830227 0.048373
#
# Coordination Sequence:
#
# PCOD9460188 Si02
#       6
#     8   8   8   8   8   8
#     4   9  18  32  54  77 104 142 187 235 277 331
#     4  10  22  39  59  84 117 158 199 242 298 366
#     4  11  22  38  59  85 120 154 188 241 310 361
#     4  11  22  35  56  86 122 155 190 243 302 347
#     4  10  22  37  60  90 116 148 203 252 289 346
#     4   9  18  33  50  76 111 147 181 221 284 348
#
# _framework density 22.867049000000002
#
# number of rings (size 3 to 8) (size 9 to 14) (size 15 to 20)
#    0.000    2.000    0.000    4.000    0.000   10.667 
#    0.000    0.000    0.000    6.000    0.000    0.000 
#    0.000    0.000    0.000    0.000    0.000    0.000 
#
# Total GULP energy -268177.776615 kJ/mol
# GULP energy per Si atom -5587.037013 kJ/mol
# Density = 2.281500 g / cm^3
# Si number density = 22.867049 Si / 1000 Ang^3
#
#
#
# Elastic Constant Matrix: (Units=GPa)
#
#
# Indices 1 2 3 4 5 6 
#
# 1 103.3006 34.1636 31.2460 0.0000 0.0000 0.0000
# 2 34.1636 35.7252 9.8387 0.0000 0.0000 0.0000
# 3 31.2460 9.8387 75.9759 0.0000 0.0000 0.0000
# 4 0.0000 0.0000 0.0000 12.5135 0.0000 0.0000
# 5 0.0000 0.0000 0.0000 0.0000 27.9256 0.0000
# 6 0.0000 0.0000 0.0000 0.0000 0.0000 54.0590
#
#
#
# Elastic Compliance Matrix: (Units=1/GPa)
#
#
# Indices 1 2 3 4 5 6 
#
# 1 0.015595 -0.013634 -0.004648 0.000000 0.000000 0.000000
# 2 -0.013634 0.040945 0.000305 0.000000 0.000000 0.000000
# 3 -0.004648 0.000305 0.015034 0.000000 0.000000 0.000000
# 4 0.000000 0.000000 0.000000 0.079913 0.000000 0.000000
# 5 0.000000 0.000000 0.000000 0.000000 0.035809 0.000000
# 6 0.000000 0.000000 0.000000 0.000000 0.000000 0.018498
#
#
# Mechanical properties :
#
#
# Convention : Reuss Voigt Hill
#
# Bulk Modulus (GPa) = 28.07375 40.61091 34.34233
# Shear Modulus (GPa) = 19.71425 28.21654 23.96540
#
# Velocity S-wave (km/s) = 2.93938 3.51656 3.24084
# Velocity P-wave (km/s) = 4.88094 5.85546 5.39027
#
# Compressibility (1/GPa) = 0.03562046
#
# Stress axis : x y z
#
# Youngs Moduli (GPa) = 64.12165 24.42294 66.51470
#
# Poissons Ratio (x) = 0.33297 0.30918
# Poissons Ratio (y) = 0.87420 -0.02026
# Poissons Ratio (z) = 0.29805 -0.00744
#
# Static dielectric constant tensor:
#      x y z
#    x 1.909100 0.000000 0.000000 
#    y 0.000000 1.889970 0.000000 
#    z 0.000000 0.000000 1.853470 
# 
# From -- ./inp_files/1336.got.cif
#   From: 2010.05.17/outbox.cif.g08.bks.cpg/sg61_1_cif.got.tgz:1336.got - 2010.06.03 15:17:17.
