data_PCOD9460282
_publ_section_title
;
Structure prediction by ZEFSAII (Michael W. Deem and Ramdas Pophale) SiO2 
 PCOD9460282
Probable space group: P B C A
;
_chemical_formula_sum "Si O2"
_cell_formula_units_Z 64
_cell_length_a 13.919477
_cell_length_b 16.713965
_cell_length_c 14.349711
_cell_angle_alpha 90.000000
_cell_angle_beta 90.000000
_cell_angle_gamma 90.000000
_cell_volume 3338.455262
_symmetry_space_group_name_H-M "P B C A"
_symmetry_group_IT_number 61
_symmetry_cell_setting 'orthorhombic'
loop_
_space_group_symop_operation_xyz
x,y,z
1/2-x,-y,1/2+z
1/2+x,1/2-y,-z
-x,1/2+y,1/2-z
-x,-y,-z
1/2+x,y,1/2-z
1/2-x,1/2+y,z
x,1/2-y,1/2+z
loop_
_atom_site_type_symbol
_atom_site_label
_atom_site_fract_x
_atom_site_fract_y
_atom_site_fract_z
Si Si1 0.521216 0.195398 0.557150
Si Si2 0.380965 0.738342 0.261422
Si Si3 0.943252 0.291690 0.629317
Si Si4 0.564587 0.932982 0.311476
Si Si5 0.299531 0.590258 0.986622
Si Si6 0.285011 0.925471 0.693227
Si Si7 0.620924 0.970842 0.660150
Si Si8 0.796551 0.329150 0.187544
O O1 0.570720 0.249797 0.636401
O O2 0.461349 0.236246 0.476060
O O3 0.452883 0.130122 0.605918
O O4 0.606617 0.146857 0.506014
O O5 0.468836 0.741548 0.189998
O O6 0.330465 0.653880 0.239273
O O7 0.300549 0.808385 0.255319
O O8 0.931660 0.387249 0.637708
O O9 0.845336 0.255357 0.667463
O O10 0.622809 0.883217 0.234975
O O11 0.631976 0.009341 0.325926
O O12 0.457706 0.968039 0.297176
O O13 0.337019 0.509266 0.935492
O O14 0.233970 0.630165 0.908214
O O15 0.249811 0.588409 0.087173
O O16 0.204842 0.957664 0.764349
#
# Coordination Sequence:
#
# PCOD9460282 Si02
#       8
#     8   8   8   8   8   8   8   8
#     4  10  22  40  65  92 124 168 213 263 310 384
#     4  11  23  41  63  94 128 163 211 261 319 368
#     4  12  22  40  66  94 126 166 216 260 320 377
#     4  11  22  41  65  89 126 167 210 257 310 374
#     4  10  22  41  62  94 127 164 214 259 313 382
#     4  12  22  41  69  92 128 168 208 266 318 373
#     4  11  23  40  67  95 124 169 218 258 315 383
#     4  11  24  40  63  93 130 166 205 264 319 374
#
# _framework density 19.170544
#
# number of rings (size 3 to 8) (size 9 to 14) (size 15 to 20)
#    0.000    1.000    6.250    0.750    0.000    4.000 
#    0.000    1.875    0.000    0.000    0.000    0.000 
#    0.000    0.000    0.000    0.000    0.000    0.000 
#
# Total GULP energy -356922.778972 kJ/mol
# GULP energy per Si atom -5576.918421 kJ/mol
# Density = 1.912691 g / cm^3
# Si number density = 19.170544 Si / 1000 Ang^3
#
#
#
# Elastic Constant Matrix: (Units=GPa)
#
#
# Indices 1 2 3 4 5 6 
#
# 1 76.1008 23.1674 35.3580 0.0000 0.0000 0.0000
# 2 23.1674 71.9989 34.1997 0.0000 0.0000 0.0000
# 3 35.3580 34.1997 89.5708 0.0000 0.0000 0.0000
# 4 0.0000 0.0000 0.0000 19.3352 0.0000 0.0000
# 5 0.0000 0.0000 0.0000 0.0000 23.6889 0.0000
# 6 0.0000 0.0000 0.0000 0.0000 0.0000 36.1907
#
#
#
# Elastic Compliance Matrix: (Units=1/GPa)
#
#
# Indices 1 2 3 4 5 6 
#
# 1 0.016513 -0.002708 -0.005484 0.000000 0.000000 0.000000
# 2 -0.002708 0.017410 -0.005578 0.000000 0.000000 0.000000
# 3 -0.005484 -0.005578 0.015459 0.000000 0.000000 0.000000
# 4 0.000000 0.000000 0.000000 0.051719 0.000000 0.000000
# 5 0.000000 0.000000 0.000000 0.000000 0.042214 0.000000
# 6 0.000000 0.000000 0.000000 0.000000 0.000000 0.027631
#
#
# Mechanical properties :
#
#
# Convention : Reuss Voigt Hill
#
# Bulk Modulus (GPa) = 45.78704 47.01343 46.40023
# Shear Modulus (GPa) = 24.29899 25.50599 24.90249
#
# Velocity S-wave (km/s) = 3.56408 3.65153 3.60807
# Velocity P-wave (km/s) = 6.39319 6.50809 6.45089
#
# Compressibility (1/GPa) = 0.02184024
#
# Stress axis : x y z
#
# Youngs Moduli (GPa) = 60.55769 57.43707 64.68607
#
# Poissons Ratio (x) = 0.15556 0.35477
# Poissons Ratio (y) = 0.16401 0.36085
# Poissons Ratio (z) = 0.33213 0.32041
#
# Static dielectric constant tensor:
#      x y z
#    x 1.665070 0.000000 0.000000 
#    y 0.000000 1.695950 0.000000 
#    z 0.000000 0.000000 1.668570 
# 
# From -- ./inp_files/5984.got.cif
#   From: 2010.05.17/outbox.cif.g08.bks.cpg/sg61_3_cif.got.tgz:5984.got - 2010.06.03 15:17:17.
