data_PCOD9460231
_publ_section_title
;
Structure prediction by ZEFSAII (Michael W. Deem and Ramdas Pophale) SiO2 
 PCOD9460231
Probable space group: P B C A
;
_chemical_formula_sum "Si O2"
_cell_formula_units_Z 64
_cell_length_a 29.972863
_cell_length_b 8.803715
_cell_length_c 12.115518
_cell_angle_alpha 90.000000
_cell_angle_beta 90.000000
_cell_angle_gamma 90.000000
_cell_volume 3196.952552
_symmetry_space_group_name_H-M "P B C A"
_symmetry_group_IT_number 61
_symmetry_cell_setting 'orthorhombic'
loop_
_space_group_symop_operation_xyz
x,y,z
1/2-x,-y,1/2+z
1/2+x,1/2-y,-z
-x,1/2+y,1/2-z
-x,-y,-z
1/2+x,y,1/2-z
1/2-x,1/2+y,z
x,1/2-y,1/2+z
loop_
_atom_site_type_symbol
_atom_site_label
_atom_site_fract_x
_atom_site_fract_y
_atom_site_fract_z
Si Si1 0.991069 0.226985 0.600465
Si Si2 0.317941 0.067249 0.507944
Si Si3 0.248539 0.171845 0.334297
Si Si4 0.323946 0.800254 0.011627
Si Si5 0.244665 0.078728 0.682286
Si Si6 0.419031 0.425757 0.023895
Si Si7 0.043927 0.452678 0.750944
Si Si8 0.923534 0.768602 0.549176
O O1 0.953939 0.303500 0.521942
O O2 0.006182 0.355593 0.688147
O O3 0.034253 0.186308 0.526444
O O4 0.974134 0.083053 0.668598
O O5 0.292191 0.127938 0.401473
O O6 0.287078 0.119542 0.608668
O O7 0.368166 0.125409 0.512841
O O8 0.319062 0.883239 0.512360
O O9 0.204822 0.139699 0.407382
O O10 0.246956 0.347881 0.303099
O O11 0.250566 0.096732 0.213815
O O12 0.299938 0.875321 0.117248
O O13 0.376604 0.826667 0.999861
O O14 0.428677 0.471265 0.150802
O O15 0.423741 0.584577 0.956059
O O16 0.070718 0.335596 0.828597
#
# Coordination Sequence:
#
# PCOD9460231 Si02
#       8
#     8   8   8   8   8   8   8   8
#     4  11  22  42  63  94 126 158 213 263 315 380
#     4  10  22  40  59  91 122 159 204 256 300 378
#     4  11  22  39  63  86 122 161 203 248 314 356
#     4  10  22  39  61  91 121 158 211 249 303 379
#     4  11  22  39  63  87 123 163 202 254 306 366
#     4  10  23  42  61  91 128 156 210 264 311 375
#     4  11  22  39  67  88 119 173 196 257 329 369
#     4  10  22  40  64  90 120 164 211 257 306 383
#
# _framework density 20.019065999999999
#
# number of rings (size 3 to 8) (size 9 to 14) (size 15 to 20)
#    0.000    1.500    2.500    3.375    1.750    2.000 
#    4.500    0.000    0.000    0.000    0.000    0.000 
#    0.000    0.000    0.000    0.000    0.000    0.000 
#
# Total GULP energy -357239.350434 kJ/mol
# GULP energy per Si atom -5581.864851 kJ/mol
# Density = 1.997350 g / cm^3
# Si number density = 20.019066 Si / 1000 Ang^3
#
#
#
# Elastic Constant Matrix: (Units=GPa)
#
#
# Indices 1 2 3 4 5 6 
#
# 1 171.1912 37.4581 67.2953 0.0000 0.0000 0.0000
# 2 37.4581 36.5115 36.6626 0.0000 0.0000 0.0000
# 3 67.2953 36.6626 106.4887 0.0000 0.0000 0.0000
# 4 0.0000 0.0000 0.0000 45.4641 0.0000 0.0000
# 5 0.0000 0.0000 0.0000 0.0000 5.1914 0.0000
# 6 0.0000 0.0000 0.0000 0.0000 0.0000 24.8433
#
#
#
# Elastic Compliance Matrix: (Units=1/GPa)
#
#
# Indices 1 2 3 4 5 6 
#
# 1 0.008325 -0.004980 -0.003547 0.000000 0.000000 0.000000
# 2 -0.004980 0.044839 -0.012290 0.000000 0.000000 0.000000
# 3 -0.003547 -0.012290 0.015863 0.000000 0.000000 0.000000
# 4 0.000000 0.000000 0.000000 0.021995 0.000000 0.000000
# 5 0.000000 0.000000 0.000000 0.000000 0.192627 0.000000
# 6 0.000000 0.000000 0.000000 0.000000 0.000000 0.040252
#
#
# Mechanical properties :
#
#
# Convention : Reuss Voigt Hill
#
# Bulk Modulus (GPa) = 36.50466 66.33593 51.42030
# Shear Modulus (GPa) = 13.34517 26.61810 19.98164
#
# Velocity S-wave (km/s) = 2.58471 3.65038 3.16275
# Velocity P-wave (km/s) = 5.21365 7.13970 6.25130
#
# Compressibility (1/GPa) = 0.02739376
#
# Stress axis : x y z
#
# Youngs Moduli (GPa) = 120.11688 22.30211 63.03824
#
# Poissons Ratio (x) = 0.11106 0.22357
# Poissons Ratio (y) = 0.59815 0.77477
# Poissons Ratio (z) = 0.42601 0.27410
#
# Static dielectric constant tensor:
#      x y z
#    x 1.672680 0.000000 0.000000 
#    y 0.000000 1.699290 0.000000 
#    z 0.000000 0.000000 1.717770 
# 
# From -- ./inp_files/2464.got.cif
#   From: 2010.05.17/outbox.cif.g08.bks.cpg/sg61_2_cif.got.tgz:2464.got - 2010.06.03 15:17:17.
