data_PCOD9460439
_publ_section_title
;
Structure prediction by ZEFSAII (Michael W. Deem and Ramdas Pophale) SiO2 
 PCOD9460439
Probable space group: P B C A
;
_chemical_formula_sum "Si O2"
_cell_formula_units_Z 40
_cell_length_a 9.840677
_cell_length_b 16.697992
_cell_length_c 9.160064
_cell_angle_alpha 90.000000
_cell_angle_beta 90.000000
_cell_angle_gamma 90.000000
_cell_volume 1505.177556
_symmetry_space_group_name_H-M "P B C A"
_symmetry_group_IT_number 61
_symmetry_cell_setting 'orthorhombic'
loop_
_space_group_symop_operation_xyz
x,y,z
1/2-x,-y,1/2+z
1/2+x,1/2-y,-z
-x,1/2+y,1/2-z
-x,-y,-z
1/2+x,y,1/2-z
1/2-x,1/2+y,z
x,1/2-y,1/2+z
loop_
_atom_site_type_symbol
_atom_site_label
_atom_site_fract_x
_atom_site_fract_y
_atom_site_fract_z
Si Si1 0.504806 0.300985 0.869665
Si Si2 0.610488 0.901049 0.375144
Si Si3 0.210774 0.887617 0.660856
Si Si4 0.781627 0.994527 0.578693
Si Si5 0.584267 0.380822 0.367489
O O1 0.654876 0.334568 0.843994
O O2 0.404143 0.338288 0.747628
O O3 0.516791 0.205686 0.874655
O O4 0.454381 0.331111 0.027612
O O5 0.507496 0.927313 0.249789
O O6 0.757737 0.871288 0.316642
O O7 0.644591 0.969029 0.492746
O O8 0.183295 0.921313 0.498027
O O9 0.248324 0.966510 0.758525
O O10 0.109540 0.069858 0.484410
#
# Coordination Sequence:
#
# PCOD9460439 Si02
#       5
#     8   8   8   8   8
#     4  11  25  43  68 102 143 177 238 289 346 410
#     4   9  23  41  69  94 135 182 222 289 343 406
#     4  11  25  45  69 104 143 187 231 291 343 423
#     4   9  25  44  68 101 142 183 235 273 362 401
#     4  10  22  44  68  97 134 183 229 282 349 408
#
# _framework density 26.574939000000001
#
# number of rings (size 3 to 8) (size 9 to 14) (size 15 to 20)
#    1.200    0.800    0.000    1.200    8.400    4.000 
#    3.600    0.000    0.000    0.000    0.000    0.000 
#    0.000    0.000    0.000    0.000    0.000    0.000 
#
# Total GULP energy -223927.635578 kJ/mol
# GULP energy per Si atom -5598.190889 kJ/mol
# Density = 2.651445 g / cm^3
# Si number density = 26.574939 Si / 1000 Ang^3
#
#
#
# Elastic Constant Matrix: (Units=GPa)
#
#
# Indices 1 2 3 4 5 6 
#
# 1 138.8711 26.0290 13.9005 0.0000 0.0000 0.0000
# 2 26.0290 134.0798 22.8292 0.0000 0.0000 0.0000
# 3 13.9005 22.8292 138.5096 0.0000 0.0000 0.0000
# 4 0.0000 0.0000 0.0000 39.2890 0.0000 0.0000
# 5 0.0000 0.0000 0.0000 0.0000 44.5037 0.0000
# 6 0.0000 0.0000 0.0000 0.0000 0.0000 46.9274
#
#
#
# Elastic Compliance Matrix: (Units=1/GPa)
#
#
# Indices 1 2 3 4 5 6 
#
# 1 0.007510 -0.001368 -0.000528 0.000000 0.000000 0.000000
# 2 -0.001368 0.007923 -0.001169 0.000000 0.000000 0.000000
# 3 -0.000528 -0.001169 0.007465 0.000000 0.000000 0.000000
# 4 0.000000 0.000000 0.000000 0.025452 0.000000 0.000000
# 5 0.000000 0.000000 0.000000 0.000000 0.022470 0.000000
# 6 0.000000 0.000000 0.000000 0.000000 0.000000 0.021310
#
#
# Mechanical properties :
#
#
# Convention : Reuss Voigt Hill
#
# Bulk Modulus (GPa) = 59.63480 59.66420 59.64950
# Shear Modulus (GPa) = 48.14662 49.39081 48.76871
#
# Velocity S-wave (km/s) = 4.26106 4.31577 4.28850
# Velocity P-wave (km/s) = 6.83358 6.88001 6.85683
#
# Compressibility (1/GPa) = 0.01676873
#
# Stress axis : x y z
#
# Youngs Moduli (GPa) = 133.15210 126.21832 133.95258
#
# Poissons Ratio (x) = 0.17267 0.07076
# Poissons Ratio (y) = 0.18215 0.15653
# Poissons Ratio (z) = 0.07034 0.14749
#
# Static dielectric constant tensor:
#      x y z
#    x 2.139140 0.000000 0.000000 
#    y 0.000000 2.096410 0.000000 
#    z 0.000000 0.000000 2.115860 
# 
# From -- ./inp_files/4805.got.cif
#   From: 2010.05.17/outbox.cif.g08.bks.cpg/sg61_3_cif.got.tgz:4805.got - 2010.06.03 15:17:17.
