data_PCOD9460062
_publ_section_title
;
Structure prediction by ZEFSAII (Michael W. Deem and Ramdas Pophale) SiO2 
 PCOD9460062
Probable space group: P B C A
;
_chemical_formula_sum "Si O2"
_cell_formula_units_Z 56
_cell_length_a 8.609447
_cell_length_b 19.631106
_cell_length_c 14.072658
_cell_angle_alpha 90.000000
_cell_angle_beta 90.000000
_cell_angle_gamma 90.000000
_cell_volume 2378.461677
_symmetry_space_group_name_H-M "P B C A"
_symmetry_group_IT_number 61
_symmetry_cell_setting 'orthorhombic'
loop_
_space_group_symop_operation_xyz
x,y,z
1/2-x,-y,1/2+z
1/2+x,1/2-y,-z
-x,1/2+y,1/2-z
-x,-y,-z
1/2+x,y,1/2-z
1/2-x,1/2+y,z
x,1/2-y,1/2+z
loop_
_atom_site_type_symbol
_atom_site_label
_atom_site_fract_x
_atom_site_fract_y
_atom_site_fract_z
Si Si1 0.160390 0.782687 0.543072
Si Si2 0.227548 0.505461 0.933442
Si Si3 0.379175 0.078559 0.275511
Si Si4 0.185714 0.086001 0.104413
Si Si5 0.843509 0.227940 0.154746
Si Si6 0.323166 0.706151 0.694321
Si Si7 0.053416 0.108135 0.548512
O O1 0.293358 0.839862 0.557856
O O2 0.180653 0.730410 0.457444
O O3 0.177120 0.740525 0.639101
O O4 0.013210 0.827755 0.511689
O O5 0.336613 0.536426 0.015931
O O6 0.156959 0.438240 0.981667
O O7 0.302262 0.481931 0.835595
O O8 0.093340 0.561876 0.921173
O O9 0.344302 0.070130 0.163762
O O10 0.553596 0.081751 0.315988
O O11 0.312438 0.153524 0.302598
O O12 0.729763 0.285602 0.198030
O O13 0.018996 0.251033 0.178623
O O14 0.359264 0.635789 0.641758
#
# Coordination Sequence:
#
# PCOD9460062 Si02
#       7
#     8   8   8   8   8   8   8
#     4  10  21  41  66  94 138 170 225 283 343 411
#     4  10  23  45  68  95 137 182 236 277 348 405
#     4  12  23  43  70  99 130 186 230 279 349 413
#     4  11  25  44  67 101 137 171 235 287 332 426
#     4  11  23  40  68  98 134 180 220 289 345 415
#     4  11  22  43  64 102 134 171 228 274 354 406
#     4   9  22  42  67  97 136 180 221 289 339 402
#
# _framework density 23.544630999999999
#
# number of rings (size 3 to 8) (size 9 to 14) (size 15 to 20)
#    0.000    1.429    2.857    1.286    6.000    3.429 
#   10.286    0.000    0.000    0.000    0.000    0.000 
#    0.000    0.000    0.000    0.000    0.000    0.000 
#
# Total GULP energy -312921.904092 kJ/mol
# GULP energy per Si atom -5587.891144 kJ/mol
# Density = 2.349104 g / cm^3
# Si number density = 23.544631 Si / 1000 Ang^3
#
#
#
# Elastic Constant Matrix: (Units=GPa)
#
#
# Indices 1 2 3 4 5 6 
#
# 1 50.0324 6.5219 -0.4830 0.0000 0.0000 0.0000
# 2 6.5219 61.3724 7.1379 0.0000 0.0000 0.0000
# 3 -0.4830 7.1379 73.0723 0.0000 0.0000 0.0000
# 4 0.0000 0.0000 0.0000 39.6241 0.0000 0.0000
# 5 0.0000 0.0000 0.0000 0.0000 26.8289 0.0000
# 6 0.0000 0.0000 0.0000 0.0000 0.0000 30.7915
#
#
#
# Elastic Compliance Matrix: (Units=1/GPa)
#
#
# Indices 1 2 3 4 5 6 
#
# 1 0.020277 -0.002195 0.000348 0.000000 0.000000 0.000000
# 2 -0.002195 0.016719 -0.001648 0.000000 0.000000 0.000000
# 3 0.000348 -0.001648 0.013848 0.000000 0.000000 0.000000
# 4 0.000000 0.000000 0.000000 0.025237 0.000000 0.000000
# 5 0.000000 0.000000 0.000000 0.000000 0.037273 0.000000
# 6 0.000000 0.000000 0.000000 0.000000 0.000000 0.032477
#
#
# Mechanical properties :
#
#
# Convention : Reuss Voigt Hill
#
# Bulk Modulus (GPa) = 22.80248 23.42562 23.11405
# Shear Modulus (GPa) = 29.86180 30.86891 30.36535
#
# Velocity S-wave (km/s) = 3.56519 3.62481 3.59513
# Velocity P-wave (km/s) = 5.16268 5.24310 5.20304
#
# Compressibility (1/GPa) = 0.04385489
#
# Stress axis : x y z
#
# Youngs Moduli (GPa) = 49.31799 59.81256 72.21085
#
# Poissons Ratio (x) = 0.13130 -0.02516
# Poissons Ratio (y) = 0.10827 0.11898
# Poissons Ratio (z) = -0.01719 0.09855
#
# Static dielectric constant tensor:
#      x y z
#    x 1.967810 0.000000 0.000000 
#    y 0.000000 1.875870 0.000000 
#    z 0.000000 0.000000 1.851450 
# 
# From -- ./inp_files/3978.got.cif
#   From: 2010.05.17/outbox.cif.g08.bks.cpg/sg61_2_cif.got.tgz:3978.got - 2010.06.03 15:17:17.
