data_PCOD9460016
_publ_section_title
;
Structure prediction by ZEFSAII (Michael W. Deem and Ramdas Pophale) SiO2 
 PCOD9460016
Probable space group: P B C A
;
_chemical_formula_sum "Si O2"
_cell_formula_units_Z 56
_cell_length_a 5.359136
_cell_length_b 14.335707
_cell_length_c 28.880781
_cell_angle_alpha 90.000000
_cell_angle_beta 90.000000
_cell_angle_gamma 90.000000
_cell_volume 2218.823862
_symmetry_space_group_name_H-M "P B C A"
_symmetry_group_IT_number 61
_symmetry_cell_setting 'orthorhombic'
loop_
_space_group_symop_operation_xyz
x,y,z
1/2-x,-y,1/2+z
1/2+x,1/2-y,-z
-x,1/2+y,1/2-z
-x,-y,-z
1/2+x,y,1/2-z
1/2-x,1/2+y,z
x,1/2-y,1/2+z
loop_
_atom_site_type_symbol
_atom_site_label
_atom_site_fract_x
_atom_site_fract_y
_atom_site_fract_z
Si Si1 0.216083 0.336499 0.560433
Si Si2 0.746404 0.977590 0.471244
Si Si3 0.344703 0.273407 0.145521
Si Si4 0.823641 0.982506 0.723418
Si Si5 0.918458 0.324944 0.043863
Si Si6 0.667802 0.610961 0.639278
Si Si7 0.696379 0.224333 0.260521
O O1 0.225902 0.446820 0.569507
O O2 0.375262 0.284441 0.598733
O O3 0.301588 0.324780 0.506965
O O4 0.953910 0.280859 0.561436
O O5 0.802867 0.871100 0.459350
O O6 0.500000 0.000000 0.500000
O O7 0.000000 0.000000 0.500000
O O8 0.604454 0.323751 0.156399
O O9 0.251816 0.204661 0.186009
O O10 0.110596 0.345079 0.142729
O O11 0.575383 0.013640 0.750608
O O12 0.821910 0.019226 0.670875
O O13 0.816164 0.869789 0.730273
O O14 0.790004 0.388931 0.083234
O O15 0.438478 0.277486 0.256791
#
# Coordination Sequence:
#
# PCOD9460016 Si02
#       7
#     8   8   8   8   8   8   8
#     4  10  21  40  66  94 133 177 218 269 330 393
#     4  10  22  38  60  92 125 169 224 270 316 382
#     4  11  24  40  64  97 129 167 219 271 328 402
#     4  10  22  41  64  91 124 167 213 268 336 400
#     4  10  21  40  67  96 136 181 224 277 340 400
#     4  11  24  40  64  99 130 168 221 275 331 404
#     4  10  22  41  63  89 122 165 210 262 330 395
#
# _framework density 25.238596999999999
#
# number of rings (size 3 to 8) (size 9 to 14) (size 15 to 20)
#    0.000    1.714    0.000    3.429    0.000   12.571 
#    0.000    7.143    0.000    0.000    0.000    0.000 
#    0.000    0.000    0.000    0.000    0.000    0.000 
#
# Total GULP energy -312660.310321 kJ/mol
# GULP energy per Si atom -5583.219827 kJ/mol
# Density = 2.518115 g / cm^3
# Si number density = 25.238597 Si / 1000 Ang^3
#
#
#
# Elastic Constant Matrix: (Units=GPa)
#
#
# Indices 1 2 3 4 5 6 
#
# 1 173.3145 8.6623 17.1752 0.0000 0.0000 0.0000
# 2 8.6623 70.8691 -4.1635 0.0000 0.0000 0.0000
# 3 17.1752 -4.1635 99.7020 0.0000 0.0000 0.0000
# 4 0.0000 0.0000 0.0000 46.8779 0.0000 0.0000
# 5 0.0000 0.0000 0.0000 0.0000 36.1690 0.0000
# 6 0.0000 0.0000 0.0000 0.0000 0.0000 21.3059
#
#
#
# Elastic Compliance Matrix: (Units=1/GPa)
#
#
# Indices 1 2 3 4 5 6 
#
# 1 0.005913 -0.000785 -0.001051 0.000000 0.000000 0.000000
# 2 -0.000785 0.014249 0.000730 0.000000 0.000000 0.000000
# 3 -0.001051 0.000730 0.010242 0.000000 0.000000 0.000000
# 4 0.000000 0.000000 0.000000 0.021332 0.000000 0.000000
# 5 0.000000 0.000000 0.000000 0.000000 0.027648 0.000000
# 6 0.000000 0.000000 0.000000 0.000000 0.000000 0.046935
#
#
# Mechanical properties :
#
#
# Convention : Reuss Voigt Hill
#
# Bulk Modulus (GPa) = 35.47037 43.02596 39.24816
# Shear Modulus (GPa) = 36.25071 42.35136 39.30103
#
# Velocity S-wave (km/s) = 3.79399 4.10083 3.95039
# Velocity P-wave (km/s) = 5.76863 6.28547 6.03258
#
# Compressibility (1/GPa) = 0.02819255
#
# Stress axis : x y z
#
# Youngs Moduli (GPa) = 169.11140 70.17884 97.64189
#
# Poissons Ratio (x) = 0.05506 0.10266
# Poissons Ratio (y) = 0.13267 -0.07130
# Poissons Ratio (z) = 0.17781 -0.05124
#
# Static dielectric constant tensor:
#      x y z
#    x 2.094170 0.000000 0.000000 
#    y 0.000000 2.075480 0.000000 
#    z 0.000000 0.000000 2.049300 
# 
# From -- ./inp_files/11596.got.cif
#   From: 2010.05.17/outbox.cif.g08.bks.cpg/sg61_6_cif.got.tgz:11596.got - 2010.06.03 15:17:17.
