data_PCOD9460699
_publ_section_title
;
Structure prediction by ZEFSAII (Michael W. Deem and Ramdas Pophale) SiO2 
 PCOD9460699
Probable space group: P B C A
;
_chemical_formula_sum "Si O2"
_cell_formula_units_Z 56
_cell_length_a 12.455529
_cell_length_b 12.059654
_cell_length_c 18.933041
_cell_angle_alpha 90.000000
_cell_angle_beta 90.000000
_cell_angle_gamma 90.000000
_cell_volume 2843.920163
_symmetry_space_group_name_H-M "P B C A"
_symmetry_group_IT_number 61
_symmetry_cell_setting 'orthorhombic'
loop_
_space_group_symop_operation_xyz
x,y,z
1/2-x,-y,1/2+z
1/2+x,1/2-y,-z
-x,1/2+y,1/2-z
-x,-y,-z
1/2+x,y,1/2-z
1/2-x,1/2+y,z
x,1/2-y,1/2+z
loop_
_atom_site_type_symbol
_atom_site_label
_atom_site_fract_x
_atom_site_fract_y
_atom_site_fract_z
Si Si1 0.997241 0.780421 0.676850
Si Si2 0.440009 0.391652 0.412473
Si Si3 0.681134 0.977184 0.493253
Si Si4 0.937292 0.159466 0.166162
Si Si5 0.487578 0.563596 0.903046
Si Si6 0.620253 0.928798 0.925577
Si Si7 0.707716 0.086127 0.125213
O O1 0.017517 0.810828 0.757487
O O2 0.092476 0.834876 0.630610
O O3 0.986966 0.651253 0.659430
O O4 0.887783 0.834641 0.648123
O O5 0.442316 0.270020 0.380639
O O6 0.418295 0.391162 0.496394
O O7 0.548680 0.463885 0.403996
O O8 0.345188 0.463427 0.374943
O O9 0.586859 0.912580 0.454426
O O10 0.755187 0.901219 0.543457
O O11 0.619246 0.058814 0.548231
O O12 0.757005 0.037721 0.437524
O O13 0.814718 0.112695 0.169100
O O14 0.999671 0.059634 0.128103
#
# Coordination Sequence:
#
# PCOD9460699 Si02
#       7
#     8   8   8   8   8   8   8
#     4  11  25  40  64  96 133 171 217 272 327 412
#     4   9  20  42  66  95 123 168 227 263 315 393
#     4   9  20  43  66  96 128 163 215 283 321 384
#     4  11  25  42  65  93 136 181 208 269 333 395
#     4  10  24  41  62 101 130 163 226 271 327 394
#     4   9  20  40  66  93 121 167 221 271 321 382
#     4   9  22  42  67  91 125 178 212 260 339 381
#
# _framework density 19.691129
#
# number of rings (size 3 to 8) (size 9 to 14) (size 15 to 20)
#    0.000    2.286    0.000    0.857   16.000    1.143 
#    5.143    0.000    0.000    0.000    0.000    0.000 
#    0.000    0.000    0.000    0.000    0.000    0.000 
#
# Total GULP energy -312407.677523 kJ/mol
# GULP energy per Si atom -5578.708527 kJ/mol
# Density = 1.964631 g / cm^3
# Si number density = 19.691129 Si / 1000 Ang^3
#
#
#
# Elastic Constant Matrix: (Units=GPa)
#
#
# Indices 1 2 3 4 5 6 
#
# 1 91.0296 15.0160 33.7163 0.0000 0.0000 0.0000
# 2 15.0160 102.0128 35.8062 0.0000 0.0000 0.0000
# 3 33.7163 35.8062 63.0085 0.0000 0.0000 0.0000
# 4 0.0000 0.0000 0.0000 30.8407 0.0000 0.0000
# 5 0.0000 0.0000 0.0000 0.0000 26.1357 0.0000
# 6 0.0000 0.0000 0.0000 0.0000 0.0000 4.6479
#
#
#
# Elastic Compliance Matrix: (Units=1/GPa)
#
#
# Indices 1 2 3 4 5 6 
#
# 1 0.013741 0.000697 -0.007749 0.000000 0.000000 0.000000
# 2 0.000697 0.012281 -0.007352 0.000000 0.000000 0.000000
# 3 -0.007749 -0.007352 0.024195 0.000000 0.000000 0.000000
# 4 0.000000 0.000000 0.000000 0.032425 0.000000 0.000000
# 5 0.000000 0.000000 0.000000 0.000000 0.038262 0.000000
# 6 0.000000 0.000000 0.000000 0.000000 0.000000 0.215152
#
#
# Mechanical properties :
#
#
# Convention : Reuss Voigt Hill
#
# Bulk Modulus (GPa) = 46.70855 47.23644 46.97250
# Shear Modulus (GPa) = 13.44094 23.75902 18.59998
#
# Velocity S-wave (km/s) = 2.61547 3.47736 3.07675
# Velocity P-wave (km/s) = 5.73525 6.33747 6.04386
#
# Compressibility (1/GPa) = 0.02140935
#
# Stress axis : x y z
#
# Youngs Moduli (GPa) = 72.77746 81.42972 41.33046
#
# Poissons Ratio (x) = -0.05678 0.32027
# Poissons Ratio (y) = -0.05075 0.30385
# Poissons Ratio (z) = 0.56395 0.59866
#
# Static dielectric constant tensor:
#      x y z
#    x 1.722730 0.000000 0.000000 
#    y 0.000000 1.691950 0.000000 
#    z 0.000000 0.000000 1.679220 
# 
# From -- ./inp_files/10298.got.cif
#   From: 2010.05.17/outbox.cif.g08.bks.cpg/sg61_6_cif.got.tgz:10298.got - 2010.06.03 15:17:17.
