data_PCOD9460793
_publ_section_title
;
Structure prediction by ZEFSAII (Michael W. Deem and Ramdas Pophale) SiO2 
 PCOD9460793
Probable space group: P B C A
;
_chemical_formula_sum "Si O2"
_cell_formula_units_Z 60
_cell_length_a 8.881617
_cell_length_b 23.613717
_cell_length_c 11.168220
_cell_angle_alpha 90.000000
_cell_angle_beta 90.000000
_cell_angle_gamma 90.000000
_cell_volume 2342.288336
_symmetry_space_group_name_H-M "P B C A"
_symmetry_group_IT_number 61
_symmetry_cell_setting 'orthorhombic'
loop_
_space_group_symop_operation_xyz
x,y,z
1/2-x,-y,1/2+z
1/2+x,1/2-y,-z
-x,1/2+y,1/2-z
-x,-y,-z
1/2+x,y,1/2-z
1/2-x,1/2+y,z
x,1/2-y,1/2+z
loop_
_atom_site_type_symbol
_atom_site_label
_atom_site_fract_x
_atom_site_fract_y
_atom_site_fract_z
Si Si1 0.844171 0.894628 0.585216
Si Si2 0.673999 0.325189 0.910660
Si Si3 0.670862 0.608302 0.845997
Si Si4 0.854248 0.738524 0.098238
Si Si5 0.184033 0.079683 0.902912
Si Si6 0.463667 0.414942 0.786029
Si Si7 0.627143 0.737182 0.769931
Si Si8 0.000000 0.500000 0.500000
O O1 0.781977 0.908218 0.453405
O O2 0.868218 0.827044 0.576168
O O3 0.709460 0.904608 0.681226
O O4 0.988990 0.922256 0.648291
O O5 0.553545 0.359136 0.832149
O O6 0.801570 0.290709 0.840392
O O7 0.594520 0.277633 0.991100
O O8 0.733333 0.371188 0.007006
O O9 0.728691 0.583441 0.720871
O O10 0.502218 0.587629 0.885519
O O11 0.668041 0.676144 0.825941
O O12 0.687650 0.756884 0.136513
O O13 0.950119 0.757477 0.213499
O O14 0.175162 0.018972 0.962270
O O15 0.516375 0.465071 0.872335
#
# Coordination Sequence:
#
# PCOD9460793 Si02
#       8
#     8   8   8   8   8   8   8   4
#     4  12  24  44  68 103 141 178 229 282 340 420
#     4  11  22  38  64  94 144 185 223 268 341 402
#     4  12  23  45  68 103 141 176 228 285 339 415
#     4  12  24  37  62  97 145 191 222 272 335 419
#     4  11  25  47  71 101 135 184 232 292 350 409
#     4  11  25  47  70 100 136 183 233 292 348 409
#     4  12  23  37  61  98 140 190 222 268 337 414
#     4  10  24  52  78  90 136 182 226 308 368 398
#
# _framework density 25.615974000000001
#
# number of rings (size 3 to 8) (size 9 to 14) (size 15 to 20)
#    0.000    0.533    8.000    0.800    0.000    2.133 
#    2.400    0.667    0.000    0.000    0.000    0.000 
#    0.000    0.000    0.000    0.000    0.000    0.000 
#
# Total GULP energy -335007.392150 kJ/mol
# GULP energy per Si atom -5583.456536 kJ/mol
# Density = 2.555767 g / cm^3
# Si number density = 25.615974 Si / 1000 Ang^3
#
#
#
# Elastic Constant Matrix: (Units=GPa)
#
#
# Indices 1 2 3 4 5 6 
#
# 1 59.4905 0.1429 26.9035 0.0000 0.0000 0.0000
# 2 0.1429 103.8275 21.9940 0.0000 0.0000 0.0000
# 3 26.9035 21.9940 84.3588 0.0000 0.0000 0.0000
# 4 0.0000 0.0000 0.0000 21.1817 0.0000 0.0000
# 5 0.0000 0.0000 0.0000 0.0000 30.7982 0.0000
# 6 0.0000 0.0000 0.0000 0.0000 0.0000 26.4655
#
#
#
# Elastic Compliance Matrix: (Units=1/GPa)
#
#
# Indices 1 2 3 4 5 6 
#
# 1 0.019830 0.001389 -0.006686 0.000000 0.000000 0.000000
# 2 0.001389 0.010292 -0.003126 0.000000 0.000000 0.000000
# 3 -0.006686 -0.003126 0.014802 0.000000 0.000000 0.000000
# 4 0.000000 0.000000 0.000000 0.047211 0.000000 0.000000
# 5 0.000000 0.000000 0.000000 0.000000 0.032469 0.000000
# 6 0.000000 0.000000 0.000000 0.000000 0.000000 0.037785
#
#
# Mechanical properties :
#
#
# Convention : Reuss Voigt Hill
#
# Bulk Modulus (GPa) = 35.61732 38.41752 37.01742
# Shear Modulus (GPa) = 26.51202 28.93151 27.72177
#
# Velocity S-wave (km/s) = 3.22060 3.36435 3.29326
# Velocity P-wave (km/s) = 5.26918 5.48834 5.37987
#
# Compressibility (1/GPa) = 0.02807622
#
# Stress axis : x y z
#
# Youngs Moduli (GPa) = 50.42917 97.16583 67.56044
#
# Poissons Ratio (x) = -0.13497 0.45172
# Poissons Ratio (y) = -0.07005 0.21121
# Poissons Ratio (z) = 0.33718 0.30376
#
# Static dielectric constant tensor:
#      x y z
#    x 2.035600 0.000000 0.000000 
#    y 0.000000 1.716850 0.000000 
#    z 0.000000 0.000000 2.019930 
# 
# From -- ./inp_files/4904.got.cif
#   From: 2010.05.17/outbox.cif.g08.bks.cpg/sg61_3_cif.got.tgz:4904.got - 2010.06.03 15:17:17.
