data_PCOD9460304
_publ_section_title
;
Structure prediction by ZEFSAII (Michael W. Deem and Ramdas Pophale) SiO2 
 PCOD9460304
Probable space group: P B C A
;
_chemical_formula_sum "Si O2"
_cell_formula_units_Z 48
_cell_length_a 13.521448
_cell_length_b 28.116449
_cell_length_c 4.953537
_cell_angle_alpha 90.000000
_cell_angle_beta 90.000000
_cell_angle_gamma 90.000000
_cell_volume 1883.211440
_symmetry_space_group_name_H-M "P B C A"
_symmetry_group_IT_number 61
_symmetry_cell_setting 'orthorhombic'
loop_
_space_group_symop_operation_xyz
x,y,z
1/2-x,-y,1/2+z
1/2+x,1/2-y,-z
-x,1/2+y,1/2-z
-x,-y,-z
1/2+x,y,1/2-z
1/2-x,1/2+y,z
x,1/2-y,1/2+z
loop_
_atom_site_type_symbol
_atom_site_label
_atom_site_fract_x
_atom_site_fract_y
_atom_site_fract_z
Si Si1 0.334210 0.432398 0.155232
Si Si2 0.551895 0.066939 0.463120
Si Si3 0.359679 0.986301 0.037981
Si Si4 0.943924 0.716273 0.038727
Si Si5 0.688301 0.148910 0.687950
Si Si6 0.832090 0.218375 0.395611
O O1 0.112955 0.385477 0.470494
O O2 0.359225 0.459657 0.435664
O O3 0.273500 0.384432 0.190762
O O4 0.252925 0.467472 0.024230
O O5 0.580583 0.045407 0.177434
O O6 0.436508 0.075469 0.505269
O O7 0.590542 0.028028 0.680955
O O8 0.931385 0.760882 0.833130
O O9 0.872539 0.676548 0.918232
O O10 0.058164 0.699108 0.038262
O O11 0.746622 0.183781 0.489481
O O12 0.824181 0.234796 0.086875
#
# Coordination Sequence:
#
# PCOD9460304 Si02
#       6
#     8   8   8   8   8   8
#     4  11  24  45  69  98 134 173 222 271 325 386
#     4  11  26  44  68  97 134 174 217 272 326 386
#     4  11  25  45  68  96 131 179 222 265 324 388
#     4  10  22  41  62  88 124 166 210 259 321 385
#     4  11  23  40  64  98 128 165 214 271 323 384
#     4  10  22  41  65  89 123 169 212 260 319 385
#
# _framework density 25.488377
#
# number of rings (size 3 to 8) (size 9 to 14) (size 15 to 20)
#    0.000    1.333    0.000    5.000    0.000    9.333 
#    0.000    6.667    0.000    0.000    0.000    0.000 
#    0.000    0.000    0.000    0.000    0.000    0.000 
#
# Total GULP energy -269484.204842 kJ/mol
# GULP energy per Si atom -5614.254268 kJ/mol
# Density = 2.543036 g / cm^3
# Si number density = 25.488377 Si / 1000 Ang^3
#
#
#
# Elastic Constant Matrix: (Units=GPa)
#
#
# Indices 1 2 3 4 5 6 
#
# 1 213.4789 60.8091 28.5377 0.0000 0.0000 0.0000
# 2 60.8091 76.5118 -4.2402 0.0000 0.0000 0.0000
# 3 28.5377 -4.2402 77.0094 0.0000 0.0000 0.0000
# 4 0.0000 0.0000 0.0000 10.1742 0.0000 0.0000
# 5 0.0000 0.0000 0.0000 0.0000 38.5682 0.0000
# 6 0.0000 0.0000 0.0000 0.0000 0.0000 38.3981
#
#
#
# Elastic Compliance Matrix: (Units=1/GPa)
#
#
# Indices 1 2 3 4 5 6 
#
# 1 0.006584 -0.005384 -0.002736 0.000000 0.000000 0.000000
# 2 -0.005384 0.017513 0.002960 0.000000 0.000000 0.000000
# 3 -0.002736 0.002960 0.014162 0.000000 0.000000 0.000000
# 4 0.000000 0.000000 0.000000 0.098288 0.000000 0.000000
# 5 0.000000 0.000000 0.000000 0.000000 0.025928 0.000000
# 6 0.000000 0.000000 0.000000 0.000000 0.000000 0.026043
#
#
# Mechanical properties :
#
#
# Convention : Reuss Voigt Hill
#
# Bulk Modulus (GPa) = 35.79429 59.69036 47.74232
# Shear Modulus (GPa) = 24.02085 36.22100 30.12093
#
# Velocity S-wave (km/s) = 3.07322 3.77381 3.44139
# Velocity P-wave (km/s) = 5.16399 6.51601 5.87899
#
# Compressibility (1/GPa) = 0.02793742
#
# Stress axis : x y z
#
# Youngs Moduli (GPa) = 151.88880 57.10010 70.60970
#
# Poissons Ratio (x) = 0.30744 0.19320
# Poissons Ratio (y) = 0.81780 -0.20897
# Poissons Ratio (z) = 0.41560 -0.16899
#
# Static dielectric constant tensor:
#      x y z
#    x 2.014600 0.000000 0.000000 
#    y 0.000000 2.009170 0.000000 
#    z 0.000000 0.000000 2.004710 
# 
# From -- ./inp_files/522.got.cif
#   From: 2010.05.17/outbox.cif.g08.bks.cpg/sg61_1_cif.got.tgz:522.got - 2010.06.03 15:17:17.
