data_PCOD9460437
_publ_section_title
;
Structure prediction by ZEFSAII (Michael W. Deem and Ramdas Pophale) SiO2 
 PCOD9460437
Probable space group: P B C A
;
_chemical_formula_sum "Si O2"
_cell_formula_units_Z 64
_cell_length_a 17.748702
_cell_length_b 16.709818
_cell_length_c 8.926517
_cell_angle_alpha 90.000000
_cell_angle_beta 90.000000
_cell_angle_gamma 90.000000
_cell_volume 2647.404811
_symmetry_space_group_name_H-M "P B C A"
_symmetry_group_IT_number 61
_symmetry_cell_setting 'orthorhombic'
loop_
_space_group_symop_operation_xyz
x,y,z
1/2-x,-y,1/2+z
1/2+x,1/2-y,-z
-x,1/2+y,1/2-z
-x,-y,-z
1/2+x,y,1/2-z
1/2-x,1/2+y,z
x,1/2-y,1/2+z
loop_
_atom_site_type_symbol
_atom_site_label
_atom_site_fract_x
_atom_site_fract_y
_atom_site_fract_z
Si Si1 0.576337 0.637378 0.511100
Si Si2 0.708665 0.897030 0.210644
Si Si3 0.688700 0.791808 0.773389
Si Si4 0.351511 0.684421 0.145564
Si Si5 0.075901 0.321125 0.952388
Si Si6 0.638124 0.598979 0.009501
Si Si7 0.009757 0.825872 0.192699
Si Si8 0.379818 0.569238 0.881947
O O1 0.641411 0.583163 0.591240
O O2 0.618765 0.682850 0.377829
O O3 0.490720 0.612014 0.466291
O O4 0.550657 0.693138 0.651391
O O5 0.702638 0.801111 0.236734
O O6 0.690203 0.933117 0.373985
O O7 0.793717 0.917762 0.168540
O O8 0.761883 0.816421 0.868731
O O9 0.680037 0.840151 0.619003
O O10 0.366177 0.662072 0.318577
O O11 0.382155 0.771827 0.087404
O O12 0.387051 0.617888 0.037875
O O13 0.028735 0.250184 0.875485
O O14 0.569455 0.639700 0.923441
O O15 0.608474 0.524332 0.102326
O O16 0.945045 0.892228 0.217892
#
# Coordination Sequence:
#
# PCOD9460437 Si02
#       8
#     8   8   8   8   8   8   8   8
#     4  11  22  39  67 101 138 173 232 289 342 415
#     4  11  24  43  70 101 139 184 234 293 350 416
#     4  12  24  42  67 107 130 176 238 291 350 416
#     4  11  25  40  68  97 141 176 230 285 358 404
#     4  11  22  41  67 103 137 177 228 296 343 412
#     4  11  27  43  75  97 141 190 234 291 362 428
#     4  10  22  44  67  98 139 188 231 285 353 421
#     4  11  25  46  68  99 146 187 237 288 359 437
#
# _framework density 24.174619
#
# number of rings (size 3 to 8) (size 9 to 14) (size 15 to 20)
#    0.000    1.000    2.500    4.875    7.000    0.000 
#    0.000    0.625    2.750    0.000    0.000    0.000 
#    0.000    0.000    0.000    0.000    0.000    0.000 
#
# Total GULP energy -357410.645350 kJ/mol
# GULP energy per Si atom -5584.541334 kJ/mol
# Density = 2.411960 g / cm^3
# Si number density = 24.174619 Si / 1000 Ang^3
#
#
#
# Elastic Constant Matrix: (Units=GPa)
#
#
# Indices 1 2 3 4 5 6 
#
# 1 103.3893 -11.7819 32.2571 0.0000 0.0000 0.0000
# 2 -11.7819 25.7977 -6.3787 0.0000 0.0000 0.0000
# 3 32.2571 -6.3787 83.3737 0.0000 0.0000 0.0000
# 4 0.0000 0.0000 0.0000 15.1334 0.0000 0.0000
# 5 0.0000 0.0000 0.0000 0.0000 50.3457 0.0000
# 6 0.0000 0.0000 0.0000 0.0000 0.0000 13.4775
#
#
#
# Elastic Compliance Matrix: (Units=1/GPa)
#
#
# Indices 1 2 3 4 5 6 
#
# 1 0.011431 0.004207 -0.004101 0.000000 0.000000 0.000000
# 2 0.004207 0.041059 0.001514 0.000000 0.000000 0.000000
# 3 -0.004101 0.001514 0.013697 0.000000 0.000000 0.000000
# 4 0.000000 0.000000 0.000000 0.066079 0.000000 0.000000
# 5 0.000000 0.000000 0.000000 0.000000 0.019863 0.000000
# 6 0.000000 0.000000 0.000000 0.000000 0.000000 0.074198
#
#
# Mechanical properties :
#
#
# Convention : Reuss Voigt Hill
#
# Bulk Modulus (GPa) = 14.40399 26.75042 20.57721
# Shear Modulus (GPa) = 20.30637 29.02227 24.66432
#
# Velocity S-wave (km/s) = 2.90140 3.46862 3.19761
# Velocity P-wave (km/s) = 4.14673 5.20877 4.70780
#
# Compressibility (1/GPa) = 0.06942519
#
# Stress axis : x y z
#
# Youngs Moduli (GPa) = 87.48156 24.35548 73.01087
#
# Poissons Ratio (x) = -0.10245 0.29940
# Poissons Ratio (y) = -0.36800 -0.11052
# Poissons Ratio (z) = 0.35874 -0.03687
#
# Static dielectric constant tensor:
#      x y z
#    x 2.020300 0.000000 0.000000 
#    y 0.000000 1.908120 0.000000 
#    z 0.000000 0.000000 1.985720 
# 
# From -- ./inp_files/3693.got.cif
#   From: 2010.05.17/outbox.cif.g08.bks.cpg/sg61_2_cif.got.tgz:3693.got - 2010.06.03 15:17:17.
