data_PCOD9460625
_publ_section_title
;
Structure prediction by ZEFSAII (Michael W. Deem and Ramdas Pophale) SiO2 
 PCOD9460625
Probable space group: P B C A
;
_chemical_formula_sum "Si O2"
_cell_formula_units_Z 40
_cell_length_a 8.324734
_cell_length_b 13.224018
_cell_length_c 14.603839
_cell_angle_alpha 90.000000
_cell_angle_beta 90.000000
_cell_angle_gamma 90.000000
_cell_volume 1607.684533
_symmetry_space_group_name_H-M "P B C A"
_symmetry_group_IT_number 61
_symmetry_cell_setting 'orthorhombic'
loop_
_space_group_symop_operation_xyz
x,y,z
1/2-x,-y,1/2+z
1/2+x,1/2-y,-z
-x,1/2+y,1/2-z
-x,-y,-z
1/2+x,y,1/2-z
1/2-x,1/2+y,z
x,1/2-y,1/2+z
loop_
_atom_site_type_symbol
_atom_site_label
_atom_site_fract_x
_atom_site_fract_y
_atom_site_fract_z
Si Si1 0.193963 0.493287 0.782597
Si Si2 0.884598 0.102398 0.064707
Si Si3 0.043459 0.813580 0.658894
Si Si4 0.720099 0.783816 0.173054
Si Si5 0.760508 0.958302 0.929812
O O1 0.347085 0.462456 0.844020
O O2 0.152003 0.604346 0.818085
O O3 0.229764 0.494321 0.675328
O O4 0.065429 0.406300 0.803694
O O5 0.858380 0.216694 0.094307
O O6 0.755006 0.057633 0.993185
O O7 0.068720 0.087524 0.039182
O O8 0.175405 0.772240 0.730691
O O9 0.910776 0.724843 0.652695
O O10 0.132156 0.867540 0.573897
#
# Coordination Sequence:
#
# PCOD9460625 Si02
#       5
#     8   8   8   8   8
#     4  11  23  42  68  95 134 182 225 283 347 403
#     4  10  23  45  63 100 132 175 235 278 338 415
#     4  11  22  41  67  93 134 176 225 281 339 402
#     4  11  23  39  64  98 130 173 232 271 337 412
#     4  11  21  44  69  90 140 181 216 292 342 397
#
# _framework density 24.880503999999998
#
# number of rings (size 3 to 8) (size 9 to 14) (size 15 to 20)
#    0.000    1.200    6.000    0.000    5.600    3.200 
#    3.600    2.000    0.000    0.000    0.000    0.000 
#    0.000    0.000    0.000    0.000    0.000    0.000 
#
# Total GULP energy -223502.203065 kJ/mol
# GULP energy per Si atom -5587.555077 kJ/mol
# Density = 2.482387 g / cm^3
# Si number density = 24.880504 Si / 1000 Ang^3
#
#
#
# Elastic Constant Matrix: (Units=GPa)
#
#
# Indices 1 2 3 4 5 6 
#
# 1 80.4512 -6.7524 -6.4916 0.0000 0.0000 0.0000
# 2 -6.7524 118.4084 32.6034 0.0000 0.0000 0.0000
# 3 -6.4916 32.6034 86.0909 0.0000 0.0000 0.0000
# 4 0.0000 0.0000 0.0000 49.1305 0.0000 0.0000
# 5 0.0000 0.0000 0.0000 0.0000 20.1866 0.0000
# 6 0.0000 0.0000 0.0000 0.0000 0.0000 -15.1680
#
#
#
# Elastic Compliance Matrix: (Units=1/GPa)
#
#
# Indices 1 2 3 4 5 6 
#
# 1 0.012533 0.000507 0.000753 0.000000 0.000000 0.000000
# 2 0.000507 0.009449 -0.003540 0.000000 0.000000 0.000000
# 3 0.000753 -0.003540 0.013013 0.000000 0.000000 0.000000
# 4 0.000000 0.000000 0.000000 0.020354 0.000000 0.000000
# 5 0.000000 0.000000 0.000000 0.000000 0.049538 0.000000
# 6 0.000000 0.000000 0.000000 0.000000 0.000000 -0.065928
#
#
# Mechanical properties :
#
#
# Convention : Reuss Voigt Hill
#
# Bulk Modulus (GPa) = 32.85620 35.96324 34.40972
# Shear Modulus (GPa) = 93.17247 28.53590 60.85418
#
# Velocity S-wave (km/s) = 6.12611 3.39029 4.95093
# Velocity P-wave (km/s) = 7.95445 5.45996 6.82219
#
# Compressibility (1/GPa) = 0.03043566
#
# Stress axis : x y z
#
# Youngs Moduli (GPa) = 79.78790 105.83063 76.84566
#
# Poissons Ratio (x) = -0.05370 -0.05786
# Poissons Ratio (y) = -0.04049 0.27205
# Poissons Ratio (z) = -0.06007 0.37466
#
# Static dielectric constant tensor:
#      x y z
#    x 2.024780 0.000000 0.000000 
#    y 0.000000 2.019990 0.000000 
#    z 0.000000 0.000000 2.005810 
# 
# From -- ./inp_files/2691.got.cif
#   From: 2010.05.17/outbox.cif.g08.bks.cpg/sg61_2_cif.got.tgz:2691.got - 2010.06.03 15:17:17.
