data_PCOD9460070
_publ_section_title
;
Structure prediction by ZEFSAII (Michael W. Deem and Ramdas Pophale) SiO2 
 PCOD9460070
Probable space group: P B C A
;
_chemical_formula_sum "Si O2"
_cell_formula_units_Z 48
_cell_length_a 8.724361
_cell_length_b 8.510722
_cell_length_c 26.990068
_cell_angle_alpha 90.000000
_cell_angle_beta 90.000000
_cell_angle_gamma 90.000000
_cell_volume 2004.029043
_symmetry_space_group_name_H-M "P B C A"
_symmetry_group_IT_number 61
_symmetry_cell_setting 'orthorhombic'
loop_
_space_group_symop_operation_xyz
x,y,z
1/2-x,-y,1/2+z
1/2+x,1/2-y,-z
-x,1/2+y,1/2-z
-x,-y,-z
1/2+x,y,1/2-z
1/2-x,1/2+y,z
x,1/2-y,1/2+z
loop_
_atom_site_type_symbol
_atom_site_label
_atom_site_fract_x
_atom_site_fract_y
_atom_site_fract_z
Si Si1 0.400333 0.624881 0.890673
Si Si2 0.355004 0.189860 0.334931
Si Si3 0.750973 0.042269 0.014770
Si Si4 0.577062 0.698046 0.459962
Si Si5 0.915576 0.569685 0.801973
Si Si6 0.883184 0.233361 0.774706
O O1 0.289400 0.751322 0.865594
O O2 0.414347 0.475604 0.854790
O O3 0.554516 0.708873 0.909032
O O4 0.316470 0.557874 0.939879
O O5 0.483150 0.326970 0.339348
O O6 0.315658 0.188148 0.276362
O O7 0.875601 0.171524 0.000277
O O8 0.706844 0.933236 0.967698
O O9 0.588549 0.120603 0.029508
O O10 0.932011 0.384101 0.805954
O O11 0.742272 0.627754 0.801141
O O12 0.986172 0.624781 0.748840
#
# Coordination Sequence:
#
# PCOD9460070 Si02
#       6
#     8   8   8   8   8   8
#     4  12  21  44  64 101 133 174 217 282 342 390
#     4  10  25  38  68  97 131 172 214 276 340 382
#     4  11  23  41  71  98 129 180 232 272 323 413
#     4  11  23  41  70  97 131 177 231 270 329 408
#     4  10  22  39  68  95 130 170 229 261 330 397
#     4  10  21  41  67  96 123 175 221 269 310 416
#
# _framework density 23.951749
#
# number of rings (size 3 to 8) (size 9 to 14) (size 15 to 20)
#    1.000    0.333    3.333    2.500    2.333    0.000 
#    0.000    1.667    0.000    0.000    0.000    0.000 
#    0.000    0.000    0.000    0.000    0.000    0.000 
#
# Total GULP energy -268361.413789 kJ/mol
# GULP energy per Si atom -5590.862787 kJ/mol
# Density = 2.389723 g / cm^3
# Si number density = 23.951749 Si / 1000 Ang^3
#
#
#
# Elastic Constant Matrix: (Units=GPa)
#
#
# Indices 1 2 3 4 5 6 
#
# 1 60.7075 19.0780 17.2356 0.0000 0.0000 0.0000
# 2 19.0780 76.4454 17.9336 0.0000 0.0000 0.0000
# 3 17.2356 17.9336 58.4084 0.0000 0.0000 0.0000
# 4 0.0000 0.0000 0.0000 45.3327 0.0000 0.0000
# 5 0.0000 0.0000 0.0000 0.0000 35.6096 0.0000
# 6 0.0000 0.0000 0.0000 0.0000 0.0000 37.8375
#
#
#
# Elastic Compliance Matrix: (Units=1/GPa)
#
#
# Indices 1 2 3 4 5 6 
#
# 1 0.018888 -0.003671 -0.004447 0.000000 0.000000 0.000000
# 2 -0.003671 0.014810 -0.003464 0.000000 0.000000 0.000000
# 3 -0.004447 -0.003464 0.019497 0.000000 0.000000 0.000000
# 4 0.000000 0.000000 0.000000 0.022059 0.000000 0.000000
# 5 0.000000 0.000000 0.000000 0.000000 0.028082 0.000000
# 6 0.000000 0.000000 0.000000 0.000000 0.000000 0.026429
#
#
# Mechanical properties :
#
#
# Convention : Reuss Voigt Hill
#
# Bulk Modulus (GPa) = 33.29771 33.78397 33.54084
# Shear Modulus (GPa) = 30.68636 33.17690 31.93163
#
# Velocity S-wave (km/s) = 3.58323 3.72581 3.65521
# Velocity P-wave (km/s) = 5.57239 5.71353 5.64341
#
# Compressibility (1/GPa) = 0.03003209
#
# Stress axis : x y z
#
# Youngs Moduli (GPa) = 52.94231 67.52218 51.29107
#
# Poissons Ratio (x) = 0.24786 0.22808
# Poissons Ratio (y) = 0.19434 0.17767
# Poissons Ratio (z) = 0.23542 0.23390
#
# Static dielectric constant tensor:
#      x y z
#    x 1.886050 0.000000 0.000000 
#    y 0.000000 1.904010 0.000000 
#    z 0.000000 0.000000 1.940500 
# 
# From -- ./inp_files/11675.got.cif
#   From: 2010.05.17/outbox.cif.g08.bks.cpg/sg61_6_cif.got.tgz:11675.got - 2010.06.03 15:17:17.
