data_PCOD9460568
_publ_section_title
;
Structure prediction by ZEFSAII (Michael W. Deem and Ramdas Pophale) SiO2 
 PCOD9460568
Probable space group: P B C A
;
_chemical_formula_sum "Si O2"
_cell_formula_units_Z 40
_cell_length_a 8.446177
_cell_length_b 15.773509
_cell_length_c 11.635673
_cell_angle_alpha 90.000000
_cell_angle_beta 90.000000
_cell_angle_gamma 90.000000
_cell_volume 1550.172413
_symmetry_space_group_name_H-M "P B C A"
_symmetry_group_IT_number 61
_symmetry_cell_setting 'orthorhombic'
loop_
_space_group_symop_operation_xyz
x,y,z
1/2-x,-y,1/2+z
1/2+x,1/2-y,-z
-x,1/2+y,1/2-z
-x,-y,-z
1/2+x,y,1/2-z
1/2-x,1/2+y,z
x,1/2-y,1/2+z
loop_
_atom_site_type_symbol
_atom_site_label
_atom_site_fract_x
_atom_site_fract_y
_atom_site_fract_z
Si Si1 0.051073 0.714667 0.952422
Si Si2 0.958524 0.425595 0.879403
Si Si3 0.994433 0.877561 0.083957
Si Si4 0.831615 0.602544 0.807339
Si Si5 0.675669 0.621689 0.134272
O O1 0.170762 0.777550 0.889446
O O2 0.920261 0.683487 0.861828
O O3 0.113458 0.633280 0.020749
O O4 0.982254 0.778759 0.048963
O O5 0.904582 0.522601 0.875750
O O6 0.891059 0.392595 0.759284
O O7 0.148148 0.413497 0.880774
O O8 0.148806 0.890640 0.163469
O O9 0.858980 0.906568 0.171086
O O10 0.050475 0.914702 0.960272
#
# Coordination Sequence:
#
# PCOD9460568 Si02
#       5
#     8   8   8   8   8
#     4  10  23  42  70  98 140 188 232 280 347 424
#     4  12  24  48  75 106 143 184 236 300 351 411
#     4  10  26  45  69 103 141 187 237 279 362 419
#     4  12  24  48  75 106 143 184 236 300 351 411
#     4  10  26  45  69 103 141 187 237 279 362 419
#
# _framework density 25.803584000000001
#
# number of rings (size 3 to 8) (size 9 to 14) (size 15 to 20)
#    1.200    0.000    2.000    3.000    0.000   10.400 
#    3.600    0.000    0.000    0.000    0.000    0.000 
#    0.000    0.000    0.000    0.000    0.000    0.000 
#
# Total GULP energy -223918.737524 kJ/mol
# GULP energy per Si atom -5597.968438 kJ/mol
# Density = 2.574485 g / cm^3
# Si number density = 25.803584 Si / 1000 Ang^3
#
#
#
# Elastic Constant Matrix: (Units=GPa)
#
#
# Indices 1 2 3 4 5 6 
#
# 1 53.1434 35.6420 45.0900 0.0000 0.0000 0.0000
# 2 35.6420 117.5377 27.3582 0.0000 0.0000 0.0000
# 3 45.0900 27.3582 147.5867 0.0000 0.0000 0.0000
# 4 0.0000 0.0000 0.0000 51.8412 0.0000 0.0000
# 5 0.0000 0.0000 0.0000 0.0000 28.5011 0.0000
# 6 0.0000 0.0000 0.0000 0.0000 0.0000 21.6159
#
#
#
# Elastic Compliance Matrix: (Units=1/GPa)
#
#
# Indices 1 2 3 4 5 6 
#
# 1 0.030535 -0.007408 -0.007956 0.000000 0.000000 0.000000
# 2 -0.007408 0.010689 0.000282 0.000000 0.000000 0.000000
# 3 -0.007956 0.000282 0.009154 0.000000 0.000000 0.000000
# 4 0.000000 0.000000 0.000000 0.019290 0.000000 0.000000
# 5 0.000000 0.000000 0.000000 0.000000 0.035086 0.000000
# 6 0.000000 0.000000 0.000000 0.000000 0.000000 0.046262
#
#
# Mechanical properties :
#
#
# Convention : Reuss Voigt Hill
#
# Bulk Modulus (GPa) = 49.46923 59.38314 54.42619
# Shear Modulus (GPa) = 26.60733 34.40348 30.50540
#
# Velocity S-wave (km/s) = 3.21463 3.65538 3.44207
# Velocity P-wave (km/s) = 5.74383 6.39368 6.07745
#
# Compressibility (1/GPa) = 0.02021459
#
# Stress axis : x y z
#
# Youngs Moduli (GPa) = 32.74886 93.55751 109.24087
#
# Poissons Ratio (x) = 0.69305 0.86911
# Poissons Ratio (y) = 0.24259 -0.03079
# Poissons Ratio (z) = 0.26055 -0.02637
#
# Static dielectric constant tensor:
#      x y z
#    x 2.014690 0.000000 0.000000 
#    y 0.000000 2.088300 0.000000 
#    z 0.000000 0.000000 2.015400 
# 
# From -- ./inp_files/4789.got.cif
#   From: 2010.05.17/outbox.cif.g08.bks.cpg/sg61_3_cif.got.tgz:4789.got - 2010.06.03 15:17:17.
