data_PCOD9460537
_publ_section_title
;
Structure prediction by ZEFSAII (Michael W. Deem and Ramdas Pophale) SiO2 
 PCOD9460537
Probable space group: P B C A
;
_chemical_formula_sum "Si O2"
_cell_formula_units_Z 64
_cell_length_a 27.242600
_cell_length_b 7.422756
_cell_length_c 12.344869
_cell_angle_alpha 90.000000
_cell_angle_beta 90.000000
_cell_angle_gamma 90.000000
_cell_volume 2496.319816
_symmetry_space_group_name_H-M "P B C A"
_symmetry_group_IT_number 61
_symmetry_cell_setting 'orthorhombic'
loop_
_space_group_symop_operation_xyz
x,y,z
1/2-x,-y,1/2+z
1/2+x,1/2-y,-z
-x,1/2+y,1/2-z
-x,-y,-z
1/2+x,y,1/2-z
1/2-x,1/2+y,z
x,1/2-y,1/2+z
loop_
_atom_site_type_symbol
_atom_site_label
_atom_site_fract_x
_atom_site_fract_y
_atom_site_fract_z
Si Si1 0.567668 0.553230 0.618136
Si Si2 0.789890 0.224922 0.811297
Si Si3 0.571315 0.517081 0.148305
Si Si4 0.465688 0.002548 0.653754
Si Si5 0.077481 0.123772 0.610712
Si Si6 0.310172 0.885495 0.104718
Si Si7 0.131255 0.896405 0.036169
Si Si8 0.672559 0.560305 0.600605
O O1 0.565702 0.768565 0.631788
O O2 0.533241 0.490217 0.715502
O O3 0.560900 0.486980 0.495436
O O4 0.622449 0.480140 0.650318
O O5 0.810204 0.426298 0.828003
O O6 0.795752 0.156556 0.690104
O O7 0.733769 0.227685 0.847077
O O8 0.822620 0.086764 0.883705
O O9 0.518951 0.431620 0.115941
O O10 0.578247 0.476128 0.273817
O O11 0.615432 0.475354 0.064629
O O12 0.455423 0.799669 0.617559
O O13 0.418627 0.111985 0.608394
O O14 0.134496 0.184215 0.600567
O O15 0.298231 0.931615 0.979217
O O16 0.148385 0.711121 0.978069
#
# Coordination Sequence:
#
# PCOD9460537 Si02
#       8
#     8   8   8   8   8   8   8   8
#     4  10  23  45  70  92 141 189 232 297 358 426
#     4  11  22  43  70  99 136 183 230 288 354 424
#     4  11  25  43  71  98 137 193 243 292 368 429
#     4  12  25  42  69 103 138 188 238 302 362 426
#     4  11  27  48  66 107 147 180 245 305 360 432
#     4  10  24  40  68 100 129 179 229 284 352 421
#     4  10  23  41  67  96 138 181 232 289 352 428
#     4   9  20  42  67  95 128 183 226 281 359 416
#
# _framework density 25.637739
#
# number of rings (size 3 to 8) (size 9 to 14) (size 15 to 20)
#    0.000    1.500    1.250    3.375    8.750    5.000 
#    0.000    2.500    0.000    0.000    0.000    0.000 
#    0.000    0.000    0.000    0.000    0.000    0.000 
#
# Total GULP energy -357861.426853 kJ/mol
# GULP energy per Si atom -5591.584795 kJ/mol
# Density = 2.557939 g / cm^3
# Si number density = 25.637739 Si / 1000 Ang^3
#
#
#
# Elastic Constant Matrix: (Units=GPa)
#
#
# Indices 1 2 3 4 5 6 
#
# 1 82.5839 22.2225 14.4575 0.0000 0.0000 0.0000
# 2 22.2225 64.9424 43.2915 0.0000 0.0000 0.0000
# 3 14.4575 43.2915 141.6323 0.0000 0.0000 0.0000
# 4 0.0000 0.0000 0.0000 36.6596 0.0000 0.0000
# 5 0.0000 0.0000 0.0000 0.0000 33.8174 0.0000
# 6 0.0000 0.0000 0.0000 0.0000 0.0000 25.2498
#
#
#
# Elastic Compliance Matrix: (Units=1/GPa)
#
#
# Indices 1 2 3 4 5 6 
#
# 1 0.013337 -0.004592 0.000042 0.000000 0.000000 0.000000
# 2 -0.004592 0.020920 -0.005926 0.000000 0.000000 0.000000
# 3 0.000042 -0.005926 0.008867 0.000000 0.000000 0.000000
# 4 0.000000 0.000000 0.000000 0.027278 0.000000 0.000000
# 5 0.000000 0.000000 0.000000 0.000000 0.029571 0.000000
# 6 0.000000 0.000000 0.000000 0.000000 0.000000 0.039604
#
#
# Mechanical properties :
#
#
# Convention : Reuss Voigt Hill
#
# Bulk Modulus (GPa) = 45.09883 49.90019 47.49951
# Shear Modulus (GPa) = 29.77627 33.09118 31.43373
#
# Velocity S-wave (km/s) = 3.41166 3.59656 3.50533
# Velocity P-wave (km/s) = 5.75745 6.06241 5.91190
#
# Compressibility (1/GPa) = 0.02217353
#
# Stress axis : x y z
#
# Youngs Moduli (GPa) = 74.97851 47.80201 112.77189
#
# Poissons Ratio (x) = 0.21950 -0.00475
# Poissons Ratio (y) = 0.34429 0.66824
# Poissons Ratio (z) = -0.00316 0.28325
#
# Static dielectric constant tensor:
#      x y z
#    x 2.046210 0.000000 0.000000 
#    y 0.000000 2.072600 0.000000 
#    z 0.000000 0.000000 2.048150 
# 
# From -- ./inp_files/6761.got.cif
#   From: 2010.05.17/outbox.cif.g08.bks.cpg/sg61_4_cif.got.tgz:6761.got - 2010.06.03 15:17:17.
