data_PCOD9460374
_publ_section_title
;
Structure prediction by ZEFSAII (Michael W. Deem and Ramdas Pophale) SiO2 
 PCOD9460374
Probable space group: P B C A
;
_chemical_formula_sum "Si O2"
_cell_formula_units_Z 60
_cell_length_a 12.067807
_cell_length_b 18.351998
_cell_length_c 11.248663
_cell_angle_alpha 90.000000
_cell_angle_beta 90.000000
_cell_angle_gamma 90.000000
_cell_volume 2491.223058
_symmetry_space_group_name_H-M "P B C A"
_symmetry_group_IT_number 61
_symmetry_cell_setting 'orthorhombic'
loop_
_space_group_symop_operation_xyz
x,y,z
1/2-x,-y,1/2+z
1/2+x,1/2-y,-z
-x,1/2+y,1/2-z
-x,-y,-z
1/2+x,y,1/2-z
1/2-x,1/2+y,z
x,1/2-y,1/2+z
loop_
_atom_site_type_symbol
_atom_site_label
_atom_site_fract_x
_atom_site_fract_y
_atom_site_fract_z
Si Si1 0.150874 0.424005 0.502296
Si Si2 0.500000 0.500000 0.500000
Si Si3 0.676432 0.545924 0.325300
Si Si4 0.515016 0.642122 0.581067
Si Si5 0.594221 0.913470 0.578536
Si Si6 0.296107 0.789761 0.175536
Si Si7 0.199449 0.581122 0.784658
Si Si8 0.712548 0.739150 0.073795
O O1 0.244691 0.403092 0.597392
O O2 0.136156 0.512348 0.486010
O O3 0.203702 0.398811 0.378315
O O4 0.029227 0.396992 0.532745
O O5 0.610455 0.497692 0.419422
O O6 0.485515 0.592610 0.468362
O O7 0.597497 0.570828 0.219764
O O8 0.768408 0.496000 0.262623
O O9 0.415303 0.672417 0.658586
O O10 0.582662 0.576442 0.648462
O O11 0.606921 0.705448 0.570321
O O12 0.669645 0.843174 0.567069
O O13 0.204304 0.854605 0.189950
O O14 0.277074 0.747477 0.299927
O O15 0.279582 0.750816 0.048710
#
# Coordination Sequence:
#
# PCOD9460374 Si02
#       8
#     8   4   8   8   8   8   8   8
#     4  10  22  42  68 105 149 189 253 322 376 442
#     4  12  24  44  74 110 144 192 258 312 384 448
#     4  11  23  39  70 107 145 189 251 317 375 450
#     4  11  26  45  76 107 147 199 253 309 388 463
#     4  10  25  42  69 107 149 199 252 313 384 456
#     4  11  26  49  73 102 149 199 246 314 375 456
#     4  10  22  42  69  98 141 190 235 307 378 444
#     4  11  28  49  72 108 151 202 253 308 390 461
#
# _framework density 24.084557
#
# number of rings (size 3 to 8) (size 9 to 14) (size 15 to 20)
#    0.000    1.333    2.667    0.800    3.733    8.533 
#    0.000    0.000    0.000    0.000    0.000    0.000 
#    0.000    0.000    0.000    0.000    0.000    0.000 
#
# Total GULP energy -334144.972891 kJ/mol
# GULP energy per Si atom -5569.082882 kJ/mol
# Density = 2.402974 g / cm^3
# Si number density = 24.084557 Si / 1000 Ang^3
#
#
#
# Elastic Constant Matrix: (Units=GPa)
#
#
# Indices 1 2 3 4 5 6 
#
# 1 83.7977 18.1379 33.9012 0.0000 0.0000 0.0000
# 2 18.1379 62.9053 25.1987 0.0000 0.0000 0.0000
# 3 33.9012 25.1987 137.2264 0.0000 0.0000 0.0000
# 4 0.0000 0.0000 0.0000 14.8147 0.0000 0.0000
# 5 0.0000 0.0000 0.0000 0.0000 14.0356 0.0000
# 6 0.0000 0.0000 0.0000 0.0000 0.0000 19.3988
#
#
#
# Elastic Compliance Matrix: (Units=1/GPa)
#
#
# Indices 1 2 3 4 5 6 
#
# 1 0.013701 -0.002801 -0.002870 0.000000 0.000000 0.000000
# 2 -0.002801 0.017732 -0.002564 0.000000 0.000000 0.000000
# 3 -0.002870 -0.002564 0.008467 0.000000 0.000000 0.000000
# 4 0.000000 0.000000 0.000000 0.067501 0.000000 0.000000
# 5 0.000000 0.000000 0.000000 0.000000 0.071247 0.000000
# 6 0.000000 0.000000 0.000000 0.000000 0.000000 0.051550
#
#
# Mechanical properties :
#
#
# Convention : Reuss Voigt Hill
#
# Bulk Modulus (GPa) = 42.68168 48.71167 45.69667
# Shear Modulus (GPa) = 19.64810 23.42926 21.53868
#
# Velocity S-wave (km/s) = 2.85931 3.12234 2.99372
# Velocity P-wave (km/s) = 5.35359 5.76783 5.56457
#
# Compressibility (1/GPa) = 0.02342926
#
# Stress axis : x y z
#
# Youngs Moduli (GPa) = 72.98748 56.39649 118.10250
#
# Poissons Ratio (x) = 0.15795 0.33901
# Poissons Ratio (y) = 0.20441 0.30283
# Poissons Ratio (z) = 0.20951 0.14461
#
# Static dielectric constant tensor:
#      x y z
#    x 1.867690 0.000000 0.000000 
#    y 0.000000 1.978370 0.000000 
#    z 0.000000 0.000000 1.778220 
# 
# From -- ./inp_files/5426.got.cif
#   From: 2010.05.17/outbox.cif.g08.bks.cpg/sg61_3_cif.got.tgz:5426.got - 2010.06.03 15:17:17.
