data_PCOD9460095
_publ_section_title
;
Structure prediction by ZEFSAII (Michael W. Deem and Ramdas Pophale) SiO2 
 PCOD9460095
Probable space group: P B C A
;
_chemical_formula_sum "Si O2"
_cell_formula_units_Z 52
_cell_length_a 9.096258
_cell_length_b 8.535764
_cell_length_c 25.567828
_cell_angle_alpha 90.000000
_cell_angle_beta 90.000000
_cell_angle_gamma 90.000000
_cell_volume 1985.175949
_symmetry_space_group_name_H-M "P B C A"
_symmetry_group_IT_number 61
_symmetry_cell_setting 'orthorhombic'
loop_
_space_group_symop_operation_xyz
x,y,z
1/2-x,-y,1/2+z
1/2+x,1/2-y,-z
-x,1/2+y,1/2-z
-x,-y,-z
1/2+x,y,1/2-z
1/2-x,1/2+y,z
x,1/2-y,1/2+z
loop_
_atom_site_type_symbol
_atom_site_label
_atom_site_fract_x
_atom_site_fract_y
_atom_site_fract_z
Si Si1 0.557631 0.669287 0.339843
Si Si2 0.000000 0.000000 0.500000
Si Si3 0.270240 0.719572 0.994615
Si Si4 0.068575 0.668208 0.282445
Si Si5 0.711700 0.530161 0.665164
Si Si6 0.091548 0.545078 0.430812
Si Si7 0.151647 0.012015 0.139071
O O1 0.539788 0.701617 0.277771
O O2 0.405084 0.594470 0.356620
O O3 0.678782 0.540356 0.352692
O O4 0.616535 0.829162 0.363187
O O5 0.126945 0.866508 0.519628
O O6 0.877444 0.860013 0.487395
O O7 0.377961 0.582489 0.974707
O O8 0.183667 0.802150 0.945512
O O9 0.127927 0.816964 0.315006
O O10 0.198377 0.540276 0.286162
O O11 0.929161 0.597070 0.312216
O O12 0.833258 0.535588 0.620296
O O13 0.926689 0.581336 0.412390
#
# Coordination Sequence:
#
# PCOD9460095 Si02
#       7
#     8   4   8   8   8   8   8
#     4  12  22  36  53  81 120 160 215 282 318 366
#     4  10  24  44  76 112 138 176 212 270 320 418
#     4  10  22  46  74 102 139 169 216 262 336 403
#     4  11  21  36  55  79 113 164 213 273 329 374
#     4  11  22  37  60  84 115 160 222 261 325 394
#     4  10  21  42  65  90 125 173 202 257 322 405
#     4  11  24  37  55  84 119 159 214 258 322 381
#
# _framework density 26.19415
#
# number of rings (size 3 to 8) (size 9 to 14) (size 15 to 20)
#    0.000    1.231    0.000    8.308    0.000    2.462 
#    0.000   10.769    0.000    0.000    0.000    0.000 
#    0.000    0.000    0.000    0.000    0.000    0.000 
#
# Total GULP energy -290065.700463 kJ/mol
# GULP energy per Si atom -5578.186547 kJ/mol
# Density = 2.613453 g / cm^3
# Si number density = 26.194150 Si / 1000 Ang^3
#
#
#
# Elastic Constant Matrix: (Units=GPa)
#
#
# Indices 1 2 3 4 5 6 
#
# 1 119.0554 28.1800 10.1485 0.0000 0.0000 0.0000
# 2 28.1800 70.9778 1.0232 0.0000 0.0000 0.0000
# 3 10.1485 1.0232 59.9189 0.0000 0.0000 0.0000
# 4 0.0000 0.0000 0.0000 21.8672 0.0000 0.0000
# 5 0.0000 0.0000 0.0000 0.0000 25.6114 0.0000
# 6 0.0000 0.0000 0.0000 0.0000 0.0000 48.4227
#
#
#
# Elastic Compliance Matrix: (Units=1/GPa)
#
#
# Indices 1 2 3 4 5 6 
#
# 1 0.009409 -0.003714 -0.001530 0.000000 0.000000 0.000000
# 2 -0.003714 0.015558 0.000363 0.000000 0.000000 0.000000
# 3 -0.001530 0.000363 0.016942 0.000000 0.000000 0.000000
# 4 0.000000 0.000000 0.000000 0.045731 0.000000 0.000000
# 5 0.000000 0.000000 0.000000 0.000000 0.039045 0.000000
# 6 0.000000 0.000000 0.000000 0.000000 0.000000 0.020651
#
#
# Mechanical properties :
#
#
# Convention : Reuss Voigt Hill
#
# Bulk Modulus (GPa) = 31.10586 36.51729 33.81158
# Shear Modulus (GPa) = 29.79506 33.22030 31.50768
#
# Velocity S-wave (km/s) = 3.37630 3.56509 3.47198
# Velocity P-wave (km/s) = 5.20577 5.56037 5.38599
#
# Compressibility (1/GPa) = 0.03214829
#
# Stress axis : x y z
#
# Youngs Moduli (GPa) = 106.28283 64.27552 59.02423
#
# Poissons Ratio (x) = 0.23869 0.09032
# Poissons Ratio (y) = 0.39468 -0.02144
# Poissons Ratio (z) = 0.16263 -0.02335
#
# Static dielectric constant tensor:
#      x y z
#    x 1.990600 0.000000 0.000000 
#    y 0.000000 2.177580 0.000000 
#    z 0.000000 0.000000 2.078670 
# 
# From -- ./inp_files/11695.got.cif
#   From: 2010.05.17/outbox.cif.g08.bks.cpg/sg61_6_cif.got.tgz:11695.got - 2010.06.03 15:17:17.
