data_PCOD9460135
_publ_section_title
;
Structure prediction by ZEFSAII (Michael W. Deem and Ramdas Pophale) SiO2 
 PCOD9460135
Probable space group: P B C A
;
_chemical_formula_sum "Si O2"
_cell_formula_units_Z 40
_cell_length_a 20.453615
_cell_length_b 5.402197
_cell_length_c 12.800864
_cell_angle_alpha 90.000000
_cell_angle_beta 90.000000
_cell_angle_gamma 90.000000
_cell_volume 1414.424524
_symmetry_space_group_name_H-M "P B C A"
_symmetry_group_IT_number 61
_symmetry_cell_setting 'orthorhombic'
loop_
_space_group_symop_operation_xyz
x,y,z
1/2-x,-y,1/2+z
1/2+x,1/2-y,-z
-x,1/2+y,1/2-z
-x,-y,-z
1/2+x,y,1/2-z
1/2-x,1/2+y,z
x,1/2-y,1/2+z
loop_
_atom_site_type_symbol
_atom_site_label
_atom_site_fract_x
_atom_site_fract_y
_atom_site_fract_z
Si Si1 0.598520 0.641649 0.570972
Si Si2 0.052711 0.229527 0.607942
Si Si3 0.170836 0.082975 0.711260
Si Si4 0.212662 0.025644 0.945364
Si Si5 0.138499 0.920222 0.189979
O O1 0.588517 0.412569 0.489167
O O2 0.523608 0.711394 0.594340
O O3 0.643848 0.875072 0.536264
O O4 0.628362 0.571066 0.684731
O O5 0.070578 0.515332 0.633592
O O6 0.089438 0.101552 0.708411
O O7 0.206148 0.061579 0.819908
O O8 0.176390 0.821294 0.659253
O O9 0.182870 0.346247 0.660529
O O10 0.265492 0.809455 0.971756
#
# Coordination Sequence:
#
# PCOD9460135 Si02
#       5
#     8   8   8   8   8
#     4  10  21  43  68 101 136 179 222 296 343 419
#     4   9  22  41  67 108 132 170 229 288 366 404
#     4   9  20  41  63  92 126 169 222 277 328 404
#     4  11  23  43  65  92 130 185 232 264 332 410
#     4   9  20  38  63  96 131 166 212 273 354 402
#
# _framework density 28.280049999999999
#
# number of rings (size 3 to 8) (size 9 to 14) (size 15 to 20)
#    1.200    1.200    0.000    2.400    5.600    0.000 
#   14.400    4.000    0.000    0.000    0.000    0.000 
#    0.000    0.000    0.000    0.000    0.000    0.000 
#
# Total GULP energy -222979.851284 kJ/mol
# GULP energy per Si atom -5574.496282 kJ/mol
# Density = 2.821568 g / cm^3
# Si number density = 28.280050 Si / 1000 Ang^3
#
#
#
# Elastic Constant Matrix: (Units=GPa)
#
#
# Indices 1 2 3 4 5 6 
#
# 1 174.4541 22.1461 5.9597 0.0000 0.0000 0.0000
# 2 22.1461 201.0728 -25.4946 0.0000 0.0000 0.0000
# 3 5.9597 -25.4946 56.3595 0.0000 0.0000 0.0000
# 4 0.0000 0.0000 0.0000 25.4831 0.0000 0.0000
# 5 0.0000 0.0000 0.0000 0.0000 53.7974 0.0000
# 6 0.0000 0.0000 0.0000 0.0000 0.0000 34.8079
#
#
#
# Elastic Compliance Matrix: (Units=1/GPa)
#
#
# Indices 1 2 3 4 5 6 
#
# 1 0.005863 -0.000768 -0.000968 0.000000 0.000000 0.000000
# 2 -0.000768 0.005377 0.002513 0.000000 0.000000 0.000000
# 3 -0.000968 0.002513 0.018983 0.000000 0.000000 0.000000
# 4 0.000000 0.000000 0.000000 0.039242 0.000000 0.000000
# 5 0.000000 0.000000 0.000000 0.000000 0.018588 0.000000
# 6 0.000000 0.000000 0.000000 0.000000 0.000000 0.028729
#
#
# Mechanical properties :
#
#
# Convention : Reuss Voigt Hill
#
# Bulk Modulus (GPa) = 31.46945 48.56763 40.01854
# Shear Modulus (GPa) = 39.73985 51.43604 45.58795
#
# Velocity S-wave (km/s) = 3.75270 4.26938 4.01935
# Velocity P-wave (km/s) = 5.47074 6.44318 5.97677
#
# Compressibility (1/GPa) = 0.03177685
#
# Stress axis : x y z
#
# Youngs Moduli (GPa) = 170.56801 185.98985 52.68009
#
# Poissons Ratio (x) = 0.14291 0.05097
# Poissons Ratio (y) = 0.13106 -0.13241
# Poissons Ratio (z) = 0.16503 -0.46747
#
# Static dielectric constant tensor:
#      x y z
#    x 2.207990 0.000000 0.000000 
#    y 0.000000 2.371260 0.000000 
#    z 0.000000 0.000000 2.272440 
# 
# From -- ./inp_files/8442.got.cif
#   From: 2010.05.17/outbox.cif.g08.bks.cpg/sg61_5_cif.got.tgz:8442.got - 2010.06.03 15:17:17.
