data_PCOD9460157
_publ_section_title
;
Structure prediction by ZEFSAII (Michael W. Deem and Ramdas Pophale) SiO2 
 PCOD9460157
Probable space group: P B C A
;
_chemical_formula_sum "Si O2"
_cell_formula_units_Z 48
_cell_length_a 16.374699
_cell_length_b 21.844484
_cell_length_c 5.254985
_cell_angle_alpha 90.000000
_cell_angle_beta 90.000000
_cell_angle_gamma 90.000000
_cell_volume 1879.691583
_symmetry_space_group_name_H-M "P B C A"
_symmetry_group_IT_number 61
_symmetry_cell_setting 'orthorhombic'
loop_
_space_group_symop_operation_xyz
x,y,z
1/2-x,-y,1/2+z
1/2+x,1/2-y,-z
-x,1/2+y,1/2-z
-x,-y,-z
1/2+x,y,1/2-z
1/2-x,1/2+y,z
x,1/2-y,1/2+z
loop_
_atom_site_type_symbol
_atom_site_label
_atom_site_fract_x
_atom_site_fract_y
_atom_site_fract_z
Si Si1 0.119671 0.778744 0.579770
Si Si2 0.723318 0.404871 0.620950
Si Si3 0.197763 0.229062 0.573379
Si Si4 0.635856 0.514419 0.319255
Si Si5 0.077179 0.414869 0.524387
Si Si6 0.525269 0.896559 0.038632
O O1 0.089872 0.730829 0.366548
O O2 0.217692 0.768670 0.589224
O O3 0.090210 0.842469 0.471578
O O4 0.720746 0.341606 0.466517
O O5 0.687899 0.460088 0.447813
O O6 0.809598 0.430141 0.715344
O O7 0.666195 0.396194 0.869472
O O8 0.151507 0.254869 0.329706
O O9 0.576426 0.540737 0.534993
O O10 0.590033 0.483825 0.081667
O O11 0.035738 0.386432 0.272788
O O12 0.022479 0.401343 0.770959
#
# Coordination Sequence:
#
# PCOD9460157 Si02
#       6
#     8   8   8   8   8   8
#     4  10  21  44  71 102 134 188 255 307 353 432
#     4  12  27  46  78 115 153 195 255 313 383 451
#     4  10  24  45  73 103 141 189 250 307 359 429
#     4  12  26  46  77 113 153 199 245 308 380 464
#     4  12  27  48  71 113 150 198 238 312 384 447
#     4  12  27  46  77 106 152 200 254 306 378 462
#
# _framework density 25.536104000000002
#
# number of rings (size 3 to 8) (size 9 to 14) (size 15 to 20)
#    0.000    0.667    3.333    4.000    4.667    4.000 
#    0.000    5.000    0.000    0.000    0.000    0.000 
#    0.000    0.000    0.000    0.000    0.000    0.000 
#
# Total GULP energy -268694.685433 kJ/mol
# GULP energy per Si atom -5597.805947 kJ/mol
# Density = 2.547798 g / cm^3
# Si number density = 25.536104 Si / 1000 Ang^3
#
#
#
# Elastic Constant Matrix: (Units=GPa)
#
#
# Indices 1 2 3 4 5 6 
#
# 1 50.7639 14.5554 4.4544 0.0000 0.0000 0.0000
# 2 14.5554 82.5079 3.7012 0.0000 0.0000 0.0000
# 3 4.4544 3.7012 168.5670 0.0000 0.0000 0.0000
# 4 0.0000 0.0000 0.0000 27.2249 0.0000 0.0000
# 5 0.0000 0.0000 0.0000 0.0000 34.3718 0.0000
# 6 0.0000 0.0000 0.0000 0.0000 0.0000 27.6493
#
#
#
# Elastic Compliance Matrix: (Units=1/GPa)
#
#
# Indices 1 2 3 4 5 6 
#
# 1 0.020786 -0.003646 -0.000469 0.000000 0.000000 0.000000
# 2 -0.003646 0.012771 -0.000184 0.000000 0.000000 0.000000
# 3 -0.000469 -0.000184 0.005949 0.000000 0.000000 0.000000
# 4 0.000000 0.000000 0.000000 0.036731 0.000000 0.000000
# 5 0.000000 0.000000 0.000000 0.000000 0.029094 0.000000
# 6 0.000000 0.000000 0.000000 0.000000 0.000000 0.036167
#
#
# Mechanical properties :
#
#
# Convention : Reuss Voigt Hill
#
# Bulk Modulus (GPa) = 32.35440 38.58452 35.46946
# Shear Modulus (GPa) = 31.17237 36.45772 33.81504
#
# Velocity S-wave (km/s) = 3.49767 3.78258 3.64291
# Velocity P-wave (km/s) = 5.38601 5.84977 5.62268
#
# Compressibility (1/GPa) = 0.03090770
#
# Stress axis : x y z
#
# Youngs Moduli (GPa) = 48.11034 78.29952 168.10111
#
# Poissons Ratio (x) = 0.28546 0.07888
# Poissons Ratio (y) = 0.17540 0.03094
# Poissons Ratio (z) = 0.02257 0.01441
#
# Static dielectric constant tensor:
#      x y z
#    x 2.039020 0.000000 0.000000 
#    y 0.000000 2.007360 0.000000 
#    z 0.000000 0.000000 2.108000 
# 
# From -- ./inp_files/760.got.cif
#   From: 2010.05.17/outbox.cif.g08.bks.cpg/sg61_1_cif.got.tgz:760.got - 2010.06.03 15:17:17.
