data_PCOD9460859
_publ_section_title
;
Structure prediction by ZEFSAII (Michael W. Deem and Ramdas Pophale) SiO2 
 PCOD9460859
Probable space group: P B C A
;
_chemical_formula_sum "Si O2"
_cell_formula_units_Z 40
_cell_length_a 7.590830
_cell_length_b 8.363753
_cell_length_c 24.233406
_cell_angle_alpha 90.000000
_cell_angle_beta 90.000000
_cell_angle_gamma 90.000000
_cell_volume 1538.526292
_symmetry_space_group_name_H-M "P B C A"
_symmetry_group_IT_number 61
_symmetry_cell_setting 'orthorhombic'
loop_
_space_group_symop_operation_xyz
x,y,z
1/2-x,-y,1/2+z
1/2+x,1/2-y,-z
-x,1/2+y,1/2-z
-x,-y,-z
1/2+x,y,1/2-z
1/2-x,1/2+y,z
x,1/2-y,1/2+z
loop_
_atom_site_type_symbol
_atom_site_label
_atom_site_fract_x
_atom_site_fract_y
_atom_site_fract_z
Si Si1 0.449446 0.466469 0.081012
Si Si2 0.014171 0.045520 0.197761
Si Si3 0.858291 0.972799 0.581564
Si Si4 0.161767 0.198929 0.305539
Si Si5 0.645196 0.209192 0.966778
O O1 0.379981 0.524564 0.141032
O O2 0.659900 0.457574 0.088214
O O3 0.334276 0.318638 0.061201
O O4 0.403199 0.607053 0.038299
O O5 0.872260 0.187185 0.188666
O O6 0.118333 0.092730 0.252038
O O7 0.916362 0.874399 0.203814
O O8 0.906040 0.882228 0.638065
O O9 0.848003 0.858195 0.528377
O O10 0.998159 0.108574 0.566065
#
# Coordination Sequence:
#
# PCOD9460859 Si02
#       5
#     8   8   8   8   8
#     4  11  28  45  76 108 151 191 256 301 382 438
#     4  11  27  46  76 105 148 197 245 318 366 456
#     4  10  27  47  74 107 152 194 249 307 375 445
#     4  11  26  46  73 104 145 189 250 301 383 430
#     4  11  27  46  77 108 147 202 244 309 374 452
#
# _framework density 25.998906000000002
#
# number of rings (size 3 to 8) (size 9 to 14) (size 15 to 20)
#    0.000    1.200    0.000    1.800   25.200    0.000 
#    0.000    0.000    0.000    0.000    0.000    0.000 
#    0.000    0.000    0.000    0.000    0.000    0.000 
#
# Total GULP energy -224582.814010 kJ/mol
# GULP energy per Si atom -5614.570350 kJ/mol
# Density = 2.593973 g / cm^3
# Si number density = 25.998906 Si / 1000 Ang^3
#
#
#
# Elastic Constant Matrix: (Units=GPa)
#
#
# Indices 1 2 3 4 5 6 
#
# 1 102.6788 20.9702 29.6439 0.0000 0.0000 0.0000
# 2 20.9702 88.4639 14.4225 0.0000 0.0000 0.0000
# 3 29.6439 14.4225 160.5308 0.0000 0.0000 0.0000
# 4 0.0000 0.0000 0.0000 42.8395 0.0000 0.0000
# 5 0.0000 0.0000 0.0000 0.0000 48.8447 0.0000
# 6 0.0000 0.0000 0.0000 0.0000 0.0000 45.9028
#
#
#
# Elastic Compliance Matrix: (Units=1/GPa)
#
#
# Indices 1 2 3 4 5 6 
#
# 1 0.010711 -0.002250 -0.001776 0.000000 0.000000 0.000000
# 2 -0.002250 0.011945 -0.000658 0.000000 0.000000 0.000000
# 3 -0.001776 -0.000658 0.006616 0.000000 0.000000 0.000000
# 4 0.000000 0.000000 0.000000 0.023343 0.000000 0.000000
# 5 0.000000 0.000000 0.000000 0.000000 0.020473 0.000000
# 6 0.000000 0.000000 0.000000 0.000000 0.000000 0.021785
#
#
# Mechanical properties :
#
#
# Convention : Reuss Voigt Hill
#
# Bulk Modulus (GPa) = 50.23647 53.52744 51.88195
# Shear Modulus (GPa) = 45.09589 46.62652 45.86120
#
# Velocity S-wave (km/s) = 4.16929 4.23945 4.20452
# Velocity P-wave (km/s) = 6.52240 6.67810 6.60071
#
# Compressibility (1/GPa) = 0.01990586
#
# Stress axis : x y z
#
# Youngs Moduli (GPa) = 93.35989 83.72034 151.14057
#
# Poissons Ratio (x) = 0.18833 0.26840
# Poissons Ratio (y) = 0.21002 0.09941
# Poissons Ratio (z) = 0.16579 0.05506
#
# Static dielectric constant tensor:
#      x y z
#    x 2.036580 0.000000 0.000000 
#    y 0.000000 2.032010 0.000000 
#    z 0.000000 0.000000 2.059310 
# 
# From -- ./inp_files/1770.got.cif
#   From: 2010.05.17/outbox.cif.g08.bks.cpg/sg61_1_cif.got.tgz:1770.got - 2010.06.03 15:17:17.
