data_PCOD9460339
_publ_section_title
;
Structure prediction by ZEFSAII (Michael W. Deem and Ramdas Pophale) SiO2 
 PCOD9460339
Probable space group: P B C A
;
_chemical_formula_sum "Si O2"
_cell_formula_units_Z 64
_cell_length_a 14.337463
_cell_length_b 11.083923
_cell_length_c 16.644829
_cell_angle_alpha 90.000000
_cell_angle_beta 90.000000
_cell_angle_gamma 90.000000
_cell_volume 2645.118592
_symmetry_space_group_name_H-M "P B C A"
_symmetry_group_IT_number 61
_symmetry_cell_setting 'orthorhombic'
loop_
_space_group_symop_operation_xyz
x,y,z
1/2-x,-y,1/2+z
1/2+x,1/2-y,-z
-x,1/2+y,1/2-z
-x,-y,-z
1/2+x,y,1/2-z
1/2-x,1/2+y,z
x,1/2-y,1/2+z
loop_
_atom_site_type_symbol
_atom_site_label
_atom_site_fract_x
_atom_site_fract_y
_atom_site_fract_z
Si Si1 0.979599 0.369990 0.537888
Si Si2 0.840184 0.618240 0.729817
Si Si3 0.609095 0.128123 0.314834
Si Si4 0.303239 0.277089 0.033058
Si Si5 0.645593 0.503520 0.666406
Si Si6 0.276618 0.976444 0.121053
Si Si7 0.373572 0.744676 0.926424
Si Si8 0.099040 0.558883 0.996556
O O1 0.021990 0.359341 0.626460
O O2 0.039617 0.272496 0.486219
O O3 0.000000 0.500000 0.500000
O O4 0.869486 0.353325 0.526542
O O5 0.857940 0.748304 0.772697
O O6 0.740581 0.562966 0.699547
O O7 0.852206 0.530783 0.807473
O O8 0.887533 0.644391 0.643753
O O9 0.588172 0.029190 0.245798
O O10 0.698539 0.076617 0.363560
O O11 0.280250 0.350988 0.112828
O O12 0.217496 0.224126 0.981796
O O13 0.371694 0.167067 0.054570
O O14 0.643132 0.373741 0.618526
O O15 0.611719 0.591954 0.596389
O O16 0.324691 0.968778 0.033937
O O17 0.000000 0.500000 0.000000
#
# Coordination Sequence:
#
# PCOD9460339 Si02
#       8
#     8   8   8   8   8   8   8   8
#     4  12  26  46  73 109 143 196 254 311 388 460
#     4  10  22  41  73 101 138 196 231 303 378 444
#     4  10  23  44  67 103 142 182 252 308 365 466
#     4  12  25  41  76 100 136 196 238 306 381 450
#     4  10  22  43  67 101 146 190 241 308 384 447
#     4  11  22  44  70  98 141 187 240 299 370 454
#     4  11  23  44  70 103 148 184 253 310 368 470
#     4  12  25  42  68 107 143 188 249 310 378 455
#
# _framework density 24.195512999999998
#
# number of rings (size 3 to 8) (size 9 to 14) (size 15 to 20)
#    0.000    1.000    3.750    3.000    3.500    0.000 
#    2.250    3.750    0.000    0.000    0.000    0.000 
#    0.000    0.000    0.000    0.000    0.000    0.000 
#
# Total GULP energy -356479.877698 kJ/mol
# GULP energy per Si atom -5569.998089 kJ/mol
# Density = 2.414044 g / cm^3
# Si number density = 24.195513 Si / 1000 Ang^3
#
#
#
# Elastic Constant Matrix: (Units=GPa)
#
#
# Indices 1 2 3 4 5 6 
#
# 1 65.3741 -19.5315 9.9891 0.0000 0.0000 0.0000
# 2 -19.5315 47.4560 -15.6392 0.0000 0.0000 0.0000
# 3 9.9891 -15.6392 116.1472 0.0000 0.0000 0.0000
# 4 0.0000 0.0000 0.0000 37.8565 0.0000 0.0000
# 5 0.0000 0.0000 0.0000 0.0000 24.0954 0.0000
# 6 0.0000 0.0000 0.0000 0.0000 0.0000 27.7662
#
#
#
# Elastic Compliance Matrix: (Units=1/GPa)
#
#
# Indices 1 2 3 4 5 6 
#
# 1 0.017476 0.007008 -0.000559 0.000000 0.000000 0.000000
# 2 0.007008 0.024861 0.002745 0.000000 0.000000 0.000000
# 3 -0.000559 0.002745 0.009027 0.000000 0.000000 0.000000
# 4 0.000000 0.000000 0.000000 0.026416 0.000000 0.000000
# 5 0.000000 0.000000 0.000000 0.000000 0.041502 0.000000
# 6 0.000000 0.000000 0.000000 0.000000 0.000000 0.036015
#
#
# Mechanical properties :
#
#
# Convention : Reuss Voigt Hill
#
# Bulk Modulus (GPa) = 14.33656 19.84602 17.09129
# Shear Modulus (GPa) = 31.21879 34.88754 33.05316
#
# Velocity S-wave (km/s) = 3.59593 3.80136 3.70007
# Velocity P-wave (km/s) = 4.81447 5.24283 5.03321
#
# Compressibility (1/GPa) = 0.06975176
#
# Stress axis : x y z
#
# Youngs Moduli (GPa) = 57.22184 40.22350 110.77323
#
# Poissons Ratio (x) = -0.28190 0.06196
# Poissons Ratio (y) = -0.40102 -0.30405
# Poissons Ratio (z) = 0.03201 -0.11041
#
# Static dielectric constant tensor:
#      x y z
#    x 2.010610 0.000000 0.000000 
#    y 0.000000 2.276880 0.000000 
#    z 0.000000 0.000000 1.938800 
# 
# From -- ./inp_files/9545.got.cif
#   From: 2010.05.17/outbox.cif.g08.bks.cpg/sg61_5_cif.got.tgz:9545.got - 2010.06.03 15:17:17.
