data_PCOD9460069
_publ_section_title
;
Structure prediction by ZEFSAII (Michael W. Deem and Ramdas Pophale) SiO2 
 PCOD9460069
Probable space group: P B C A
;
_chemical_formula_sum "Si O2"
_cell_formula_units_Z 48
_cell_length_a 13.180332
_cell_length_b 9.162331
_cell_length_c 16.929175
_cell_angle_alpha 90.000000
_cell_angle_beta 90.000000
_cell_angle_gamma 90.000000
_cell_volume 2044.410587
_symmetry_space_group_name_H-M "P B C A"
_symmetry_group_IT_number 61
_symmetry_cell_setting 'orthorhombic'
loop_
_space_group_symop_operation_xyz
x,y,z
1/2-x,-y,1/2+z
1/2+x,1/2-y,-z
-x,1/2+y,1/2-z
-x,-y,-z
1/2+x,y,1/2-z
1/2-x,1/2+y,z
x,1/2-y,1/2+z
loop_
_atom_site_type_symbol
_atom_site_label
_atom_site_fract_x
_atom_site_fract_y
_atom_site_fract_z
Si Si1 0.780170 0.736494 0.931816
Si Si2 0.527785 0.458665 0.658206
Si Si3 0.059141 0.810617 0.071886
Si Si4 0.083689 0.922451 0.895993
Si Si5 0.798691 0.491038 0.046568
Si Si6 0.560815 0.246676 0.295966
O O1 0.675566 0.662442 0.902190
O O2 0.853322 0.782476 0.861701
O O3 0.834156 0.620333 0.988542
O O4 0.743502 0.864458 0.990145
O O5 0.465270 0.351745 0.600560
O O6 0.610660 0.541520 0.605384
O O7 0.459889 0.579813 0.702677
O O8 0.582538 0.343749 0.717022
O O9 0.055602 0.840919 0.978286
O O10 0.980137 0.927264 0.105991
O O11 0.202234 0.954200 0.902983
O O12 0.044407 0.825280 0.825058
#
# Coordination Sequence:
#
# PCOD9460069 Si02
#       6
#     8   8   8   8   8   8
#     4  11  23  41  69 100 127 171 226 278 328 396
#     4  12  26  43  65  98 139 181 222 277 345 411
#     4  10  21  41  68  97 131 169 219 274 332 394
#     4  10  21  41  67  94 129 171 218 276 329 393
#     4  11  23  41  69  99 129 171 226 277 331 393
#     4  12  26  43  64  94 135 176 221 274 339 407
#
# _framework density 23.478649000000001
#
# number of rings (size 3 to 8) (size 9 to 14) (size 15 to 20)
#    0.000    1.000    0.000    9.000    0.000    3.333 
#    0.000   10.000    0.000    0.000    0.000    0.000 
#    0.000    0.000    0.000    0.000    0.000    0.000 
#
# Total GULP energy -268565.184511 kJ/mol
# GULP energy per Si atom -5595.108011 kJ/mol
# Density = 2.342521 g / cm^3
# Si number density = 23.478649 Si / 1000 Ang^3
#
#
#
# Elastic Constant Matrix: (Units=GPa)
#
#
# Indices 1 2 3 4 5 6 
#
# 1 72.2443 11.9875 31.0138 0.0000 0.0000 0.0000
# 2 11.9875 137.5416 41.6233 0.0000 0.0000 0.0000
# 3 31.0138 41.6233 70.6754 0.0000 0.0000 0.0000
# 4 0.0000 0.0000 0.0000 38.6607 0.0000 0.0000
# 5 0.0000 0.0000 0.0000 0.0000 17.3490 0.0000
# 6 0.0000 0.0000 0.0000 0.0000 0.0000 35.4384
#
#
#
# Elastic Compliance Matrix: (Units=1/GPa)
#
#
# Indices 1 2 3 4 5 6 
#
# 1 0.017157 0.000953 -0.008090 0.000000 0.000000 0.000000
# 2 0.000953 0.008900 -0.005660 0.000000 0.000000 0.000000
# 3 -0.008090 -0.005660 0.021032 0.000000 0.000000 0.000000
# 4 0.000000 0.000000 0.000000 0.025866 0.000000 0.000000
# 5 0.000000 0.000000 0.000000 0.000000 0.057640 0.000000
# 6 0.000000 0.000000 0.000000 0.000000 0.000000 0.028218
#
#
# Mechanical properties :
#
#
# Convention : Reuss Voigt Hill
#
# Bulk Modulus (GPa) = 46.52075 49.96783 48.24429
# Shear Modulus (GPa) = 26.09977 31.34541 28.72259
#
# Velocity S-wave (km/s) = 3.33774 3.65781 3.50144
# Velocity P-wave (km/s) = 5.89161 6.25843 6.07779
#
# Compressibility (1/GPa) = 0.02149578
#
# Stress axis : x y z
#
# Youngs Moduli (GPa) = 58.28617 112.35606 47.54549
#
# Poissons Ratio (x) = -0.10706 0.38464
# Poissons Ratio (y) = -0.05554 0.26910
# Poissons Ratio (z) = 0.47153 0.63592
#
# Static dielectric constant tensor:
#      x y z
#    x 1.862720 0.000000 0.000000 
#    y 0.000000 1.939910 0.000000 
#    z 0.000000 0.000000 1.900870 
# 
# From -- ./inp_files/9436.got.cif
#   From: 2010.05.17/outbox.cif.g08.bks.cpg/sg61_5_cif.got.tgz:9436.got - 2010.06.03 15:17:17.
