data_PCOD9460852
_publ_section_title
;
Structure prediction by ZEFSAII (Michael W. Deem and Ramdas Pophale) SiO2 
 PCOD9460852
Probable space group: P B C A
;
_chemical_formula_sum "Si O2"
_cell_formula_units_Z 36
_cell_length_a 8.458105
_cell_length_b 18.890289
_cell_length_c 8.079203
_cell_angle_alpha 90.000000
_cell_angle_beta 90.000000
_cell_angle_gamma 90.000000
_cell_volume 1290.863125
_symmetry_space_group_name_H-M "P B C A"
_symmetry_group_IT_number 61
_symmetry_cell_setting 'orthorhombic'
loop_
_space_group_symop_operation_xyz
x,y,z
1/2-x,-y,1/2+z
1/2+x,1/2-y,-z
-x,1/2+y,1/2-z
-x,-y,-z
1/2+x,y,1/2-z
1/2-x,1/2+y,z
x,1/2-y,1/2+z
loop_
_atom_site_type_symbol
_atom_site_label
_atom_site_fract_x
_atom_site_fract_y
_atom_site_fract_z
Si Si1 0.778533 0.599117 0.077057
Si Si2 0.426716 0.287623 0.107943
Si Si3 0.000000 0.000000 0.000000
Si Si4 0.436073 0.086621 0.841921
Si Si5 0.723607 0.156045 0.422387
O O1 0.838990 0.620637 0.257198
O O2 0.706453 0.668680 0.990243
O O3 0.634105 0.545760 0.097181
O O4 0.918404 0.571165 0.961906
O O5 0.448237 0.331572 0.276812
O O6 0.366086 0.208296 0.125666
O O7 0.588780 0.299202 0.011205
O O8 0.060807 0.960677 0.178718
O O9 0.277610 0.093420 0.953502
#
# Coordination Sequence:
#
# PCOD9460852 Si02
#       5
#     8   8   4   8   8
#     4  11  25  45  73 105 142 193 249 311 380 449
#     4  11  24  44  70 107 150 192 242 303 375 452
#     4  10  26  48  72 104 146 194 252 314 374 450
#     4  11  25  46  72 104 146 196 250 306 372 451
#     4  12  25  44  73 108 149 195 247 310 378 451
#
# _framework density 27.888318999999999
#
# number of rings (size 3 to 8) (size 9 to 14) (size 15 to 20)
#    0.000    0.889    0.000    6.667    0.000   11.556 
#    0.000    2.222    0.000    4.000    0.000    0.000 
#    0.000    0.000    0.000    0.000    0.000    0.000 
#
# Total GULP energy -201403.807689 kJ/mol
# GULP energy per Si atom -5594.550214 kJ/mol
# Density = 2.782484 g / cm^3
# Si number density = 27.888319 Si / 1000 Ang^3
#
#
#
# Elastic Constant Matrix: (Units=GPa)
#
#
# Indices 1 2 3 4 5 6 
#
# 1 95.8280 34.2564 41.0126 0.0000 0.0000 0.0000
# 2 34.2564 138.9635 36.4569 0.0000 0.0000 0.0000
# 3 41.0126 36.4569 167.0346 0.0000 0.0000 0.0000
# 4 0.0000 0.0000 0.0000 26.8058 0.0000 0.0000
# 5 0.0000 0.0000 0.0000 0.0000 51.1185 0.0000
# 6 0.0000 0.0000 0.0000 0.0000 0.0000 75.6339
#
#
#
# Elastic Compliance Matrix: (Units=1/GPa)
#
#
# Indices 1 2 3 4 5 6 
#
# 1 0.012365 -0.002388 -0.002515 0.000000 0.000000 0.000000
# 2 -0.002388 0.008095 -0.001180 0.000000 0.000000 0.000000
# 3 -0.002515 -0.001180 0.006862 0.000000 0.000000 0.000000
# 4 0.000000 0.000000 0.000000 0.037305 0.000000 0.000000
# 5 0.000000 0.000000 0.000000 0.000000 0.019562 0.000000
# 6 0.000000 0.000000 0.000000 0.000000 0.000000 0.013222
#
#
# Mechanical properties :
#
#
# Convention : Reuss Voigt Hill
#
# Bulk Modulus (GPa) = 65.98592 69.47532 67.73062
# Shear Modulus (GPa) = 43.61860 50.05167 46.83514
#
# Velocity S-wave (km/s) = 3.95909 4.24101 4.10247
# Velocity P-wave (km/s) = 6.67917 6.99625 6.83955
#
# Compressibility (1/GPa) = 0.01515475
#
# Stress axis : x y z
#
# Youngs Moduli (GPa) = 80.87022 123.53955 145.73307
#
# Poissons Ratio (x) = 0.29507 0.36649
# Poissons Ratio (y) = 0.19316 0.17200
# Poissons Ratio (z) = 0.20337 0.14581
#
# Static dielectric constant tensor:
#      x y z
#    x 2.236700 0.000000 0.000000 
#    y 0.000000 2.245160 0.000000 
#    z 0.000000 0.000000 2.127810 
# 
# From -- ./inp_files/1700.got.cif
#   From: 2010.05.17/outbox.cif.g08.bks.cpg/sg61_1_cif.got.tgz:1700.got - 2010.06.03 15:17:17.
