data_PCOD9460670
_publ_section_title
;
Structure prediction by ZEFSAII (Michael W. Deem and Ramdas Pophale) SiO2 
 PCOD9460670
Probable space group: P B C A
;
_chemical_formula_sum "Si O2"
_cell_formula_units_Z 32
_cell_length_a 6.759251
_cell_length_b 13.130170
_cell_length_c 15.101057
_cell_angle_alpha 90.000000
_cell_angle_beta 90.000000
_cell_angle_gamma 90.000000
_cell_volume 1340.220541
_symmetry_space_group_name_H-M "P B C A"
_symmetry_group_IT_number 61
_symmetry_cell_setting 'orthorhombic'
loop_
_space_group_symop_operation_xyz
x,y,z
1/2-x,-y,1/2+z
1/2+x,1/2-y,-z
-x,1/2+y,1/2-z
-x,-y,-z
1/2+x,y,1/2-z
1/2-x,1/2+y,z
x,1/2-y,1/2+z
loop_
_atom_site_type_symbol
_atom_site_label
_atom_site_fract_x
_atom_site_fract_y
_atom_site_fract_z
Si Si1 0.748248 0.958873 0.889004
Si Si2 0.868333 0.558978 0.582814
Si Si3 0.627696 0.734319 0.872180
Si Si4 0.995414 0.637544 0.814322
O O1 0.626744 0.854560 0.882188
O O2 0.642290 0.037432 0.823385
O O3 0.761433 0.981615 0.994637
O O4 0.985065 0.976078 0.872273
O O5 0.698532 0.601926 0.644123
O O6 0.006183 0.659223 0.563543
O O7 0.546968 0.695782 0.776373
O O8 0.862145 0.711793 0.873962
#
# Coordination Sequence:
#
# PCOD9460670 Si02
#       4
#     8   8   8   8
#     4  10  25  44  73 100 139 191 232 304 363 419
#     4  10  23  47  67 102 139 185 248 286 359 445
#     4  11  24  42  68 107 136 182 240 294 354 432
#     4  11  23  45  66 102 144 180 237 293 358 435
#
# _framework density 23.876667999999999
#
# number of rings (size 3 to 8) (size 9 to 14) (size 15 to 20)
#    0.000    1.500    2.500    0.750    3.500    6.000 
#    0.000    0.000    0.000    0.000    0.000    0.000 
#    0.000    0.000    0.000    0.000    0.000    0.000 
#
# Total GULP energy -178243.439046 kJ/mol
# GULP energy per Si atom -5570.107470 kJ/mol
# Density = 2.382232 g / cm^3
# Si number density = 23.876668 Si / 1000 Ang^3
#
#
#
# Elastic Constant Matrix: (Units=GPa)
#
#
# Indices 1 2 3 4 5 6 
#
# 1 124.7133 9.8872 44.3831 0.0000 0.0000 0.0000
# 2 9.8872 100.6760 31.1684 0.0000 0.0000 0.0000
# 3 44.3831 31.1684 90.9391 0.0000 0.0000 0.0000
# 4 0.0000 0.0000 0.0000 24.2024 0.0000 0.0000
# 5 0.0000 0.0000 0.0000 0.0000 29.4276 0.0000
# 6 0.0000 0.0000 0.0000 0.0000 0.0000 29.8675
#
#
#
# Elastic Compliance Matrix: (Units=1/GPa)
#
#
# Indices 1 2 3 4 5 6 
#
# 1 0.009734 0.000576 -0.004948 0.000000 0.000000 0.000000
# 2 0.000576 0.011146 -0.004101 0.000000 0.000000 0.000000
# 3 -0.004948 -0.004101 0.014817 0.000000 0.000000 0.000000
# 4 0.000000 0.000000 0.000000 0.041318 0.000000 0.000000
# 5 0.000000 0.000000 0.000000 0.000000 0.033982 0.000000
# 6 0.000000 0.000000 0.000000 0.000000 0.000000 0.033481
#
#
# Mechanical properties :
#
#
# Convention : Reuss Voigt Hill
#
# Bulk Modulus (GPa) = 53.33335 54.13397 53.73366
# Shear Modulus (GPa) = 29.81974 32.09214 30.95594
#
# Velocity S-wave (km/s) = 3.53782 3.67015 3.60459
# Velocity P-wave (km/s) = 6.25090 6.37821 6.31487
#
# Compressibility (1/GPa) = 0.01875000
#
# Stress axis : x y z
#
# Youngs Moduli (GPa) = 102.73693 89.71819 67.49060
#
# Poissons Ratio (x) = -0.05167 0.33394
# Poissons Ratio (y) = -0.05917 0.27680
# Poissons Ratio (z) = 0.50833 0.36796
#
# Static dielectric constant tensor:
#      x y z
#    x 1.959300 0.000000 0.000000 
#    y 0.000000 1.955670 0.000000 
#    z 0.000000 0.000000 1.993410 
# 
# From -- ./inp_files/8703.got.cif
#   From: 2010.05.17/outbox.cif.g08.bks.cpg/sg61_5_cif.got.tgz:8703.got - 2010.06.03 15:17:17.
