data_PCOD9460271
_publ_section_title
;
Structure prediction by ZEFSAII (Michael W. Deem and Ramdas Pophale) SiO2 
 PCOD9460271
Probable space group: P B C A
;
_chemical_formula_sum "Si O2"
_cell_formula_units_Z 48
_cell_length_a 10.951959
_cell_length_b 13.874985
_cell_length_c 15.276411
_cell_angle_alpha 90.000000
_cell_angle_beta 90.000000
_cell_angle_gamma 90.000000
_cell_volume 2321.376939
_symmetry_space_group_name_H-M "P B C A"
_symmetry_group_IT_number 61
_symmetry_cell_setting 'orthorhombic'
loop_
_space_group_symop_operation_xyz
x,y,z
1/2-x,-y,1/2+z
1/2+x,1/2-y,-z
-x,1/2+y,1/2-z
-x,-y,-z
1/2+x,y,1/2-z
1/2-x,1/2+y,z
x,1/2-y,1/2+z
loop_
_atom_site_type_symbol
_atom_site_label
_atom_site_fract_x
_atom_site_fract_y
_atom_site_fract_z
Si Si1 0.511233 0.417962 0.074463
Si Si2 0.978076 0.974766 0.743189
Si Si3 0.770289 0.421936 0.823529
Si Si4 0.772414 0.800518 0.995739
Si Si5 0.897452 0.050642 0.562109
Si Si6 0.246737 0.092227 0.541019
O O1 0.512629 0.465573 0.169925
O O2 0.381839 0.367287 0.059264
O O3 0.500000 0.500000 0.000000
O O4 0.622710 0.350284 0.053155
O O5 0.945347 0.040417 0.659755
O O6 0.849175 0.922610 0.762918
O O7 0.096961 0.910634 0.719859
O O8 0.740201 0.346782 0.899638
O O9 0.778236 0.526166 0.873802
O O10 0.816594 0.691229 0.983724
O O11 0.646748 0.841378 0.039807
O O12 0.780922 0.981679 0.538532
O O13 0.000000 0.000000 0.500000
#
# Coordination Sequence:
#
# PCOD9460271 Si02
#       6
#     8   8   8   8   8   8
#     4  11  21  42  64  90 126 169 205 258 321 371
#     4  11  21  39  69  89 127 167 213 257 318 381
#     4  10  22  40  63  93 126 169 212 259 321 373
#     4  11  22  41  66  91 129 168 210 263 315 377
#     4  11  21  40  65  88 122 168 209 254 316 370
#     4  10  23  39  65  95 123 167 215 254 319 379
#
# _framework density 20.677382000000001
#
# number of rings (size 3 to 8) (size 9 to 14) (size 15 to 20)
#    0.000    1.333    8.333    1.000    2.333    0.000 
#    0.000    8.333    3.667    0.000    0.000    0.000 
#    0.000    0.000    0.000    0.000    0.000    0.000 
#
# Total GULP energy -267208.430584 kJ/mol
# GULP energy per Si atom -5566.842304 kJ/mol
# Density = 2.063032 g / cm^3
# Si number density = 20.677382 Si / 1000 Ang^3
#
#
#
# Elastic Constant Matrix: (Units=GPa)
#
#
# Indices 1 2 3 4 5 6 
#
# 1 94.4067 -10.5469 12.5137 0.0000 0.0000 0.0000
# 2 -10.5469 47.4750 5.9152 0.0000 0.0000 0.0000
# 3 12.5137 5.9152 107.3858 0.0000 0.0000 0.0000
# 4 0.0000 0.0000 0.0000 5.3475 0.0000 0.0000
# 5 0.0000 0.0000 0.0000 0.0000 42.5263 0.0000
# 6 0.0000 0.0000 0.0000 0.0000 0.0000 14.4391
#
#
#
# Elastic Compliance Matrix: (Units=1/GPa)
#
#
# Indices 1 2 3 4 5 6 
#
# 1 0.011078 0.002640 -0.001436 0.000000 0.000000 0.000000
# 2 0.002640 0.021838 -0.001511 0.000000 0.000000 0.000000
# 3 -0.001436 -0.001511 0.009563 0.000000 0.000000 0.000000
# 4 0.000000 0.000000 0.000000 0.187004 0.000000 0.000000
# 5 0.000000 0.000000 0.000000 0.000000 0.023515 0.000000
# 6 0.000000 0.000000 0.000000 0.000000 0.000000 0.069256
#
#
# Mechanical properties :
#
#
# Convention : Reuss Voigt Hill
#
# Bulk Modulus (GPa) = 23.88624 29.44796 26.66710
# Shear Modulus (GPa) = 14.84460 28.55494 21.69977
#
# Velocity S-wave (km/s) = 2.68230 3.72018 3.24303
# Velocity P-wave (km/s) = 4.60108 5.72062 5.19112
#
# Compressibility (1/GPa) = 0.04186511
#
# Stress axis : x y z
#
# Youngs Moduli (GPa) = 90.27076 45.79089 104.57184
#
# Poissons Ratio (x) = -0.12089 0.15020
# Poissons Ratio (y) = -0.23831 0.15796
# Poissons Ratio (z) = 0.12966 0.06917
#
# Static dielectric constant tensor:
#      x y z
#    x 1.969390 0.000000 0.000000 
#    y 0.000000 1.857770 0.000000 
#    z 0.000000 0.000000 1.730650 
# 
# From -- ./inp_files/7449.got.cif
#   From: 2010.05.17/outbox.cif.g08.bks.cpg/sg61_4_cif.got.tgz:7449.got - 2010.06.03 15:17:17.
