data_PCOD9460081
_publ_section_title
;
Structure prediction by ZEFSAII (Michael W. Deem and Ramdas Pophale) SiO2 
 PCOD9460081
Probable space group: P B C A
;
_chemical_formula_sum "Si O2"
_cell_formula_units_Z 64
_cell_length_a 28.751895
_cell_length_b 7.284552
_cell_length_c 11.268577
_cell_angle_alpha 90.000000
_cell_angle_beta 90.000000
_cell_angle_gamma 90.000000
_cell_volume 2360.143439
_symmetry_space_group_name_H-M "P B C A"
_symmetry_group_IT_number 61
_symmetry_cell_setting 'orthorhombic'
loop_
_space_group_symop_operation_xyz
x,y,z
1/2-x,-y,1/2+z
1/2+x,1/2-y,-z
-x,1/2+y,1/2-z
-x,-y,-z
1/2+x,y,1/2-z
1/2-x,1/2+y,z
x,1/2-y,1/2+z
loop_
_atom_site_type_symbol
_atom_site_label
_atom_site_fract_x
_atom_site_fract_y
_atom_site_fract_z
Si Si1 0.279272 0.190680 0.920621
Si Si2 0.091132 0.013997 0.634435
Si Si3 0.941175 0.932200 0.869598
Si Si4 0.787840 0.507640 0.417087
Si Si5 0.808500 0.465395 0.783943
Si Si6 0.453857 0.503945 0.884218
Si Si7 0.329793 0.647906 0.316910
Si Si8 0.432986 0.574507 0.387957
O O1 0.291368 0.298240 0.798744
O O2 0.203642 0.487479 0.889667
O O3 0.229501 0.152392 0.984049
O O4 0.302796 0.323044 0.017426
O O5 0.084997 0.237022 0.637027
O O6 0.144483 0.948841 0.639064
O O7 0.070190 0.954217 0.760692
O O8 0.062970 0.969722 0.513006
O O9 0.939667 0.022863 0.739185
O O10 0.926531 0.030671 0.992033
O O11 0.996454 0.906588 0.887892
O O12 0.738140 0.478962 0.352317
O O13 0.824210 0.572297 0.318985
O O14 0.821547 0.638906 0.703622
O O15 0.459340 0.728936 0.883707
O O16 0.378721 0.626076 0.380467
#
# Coordination Sequence:
#
# PCOD9460081 Si02
#       8
#     8   8   8   8   8   8   8   8
#     4  12  29  44  71 106 146 200 263 332 402 472
#     4  10  21  41  71 106 146 201 257 317 392 474
#     4   9  18  36  65 105 142 184 243 304 386 474
#     4  12  27  48  71 110 153 202 270 342 402 474
#     4  12  26  50  76 108 153 209 269 331 402 475
#     4   9  18  36  66 105 141 184 241 306 385 473
#     4  12  26  50  76 108 153 209 267 336 403 475
#     4  10  21  41  72 106 144 201 256 315 394 473
#
# _framework density 27.116997000000001
#
# number of rings (size 3 to 8) (size 9 to 14) (size 15 to 20)
#    0.000    1.250    3.750    2.250    5.250    2.500 
#    0.000    2.500    0.000   12.000    0.000    0.000 
#    0.000    0.000    0.000    0.000    0.000    0.000 
#
# Total GULP energy -357661.036390 kJ/mol
# GULP energy per Si atom -5588.453694 kJ/mol
# Density = 2.705528 g / cm^3
# Si number density = 27.116997 Si / 1000 Ang^3
#
#
#
# Elastic Constant Matrix: (Units=GPa)
#
#
# Indices 1 2 3 4 5 6 
#
# 1 60.9010 38.0131 68.3157 0.0000 0.0000 0.0000
# 2 38.0131 138.2959 23.0280 0.0000 0.0000 0.0000
# 3 68.3157 23.0280 177.2919 0.0000 0.0000 0.0000
# 4 0.0000 0.0000 0.0000 26.1811 0.0000 0.0000
# 5 0.0000 0.0000 0.0000 0.0000 45.9178 0.0000
# 6 0.0000 0.0000 0.0000 0.0000 0.0000 27.9867
#
#
#
# Elastic Compliance Matrix: (Units=1/GPa)
#
#
# Indices 1 2 3 4 5 6 
#
# 1 0.035334 -0.007610 -0.012627 0.000000 0.000000 0.000000
# 2 -0.007610 0.009030 0.001759 0.000000 0.000000 0.000000
# 3 -0.012627 0.001759 0.010277 0.000000 0.000000 0.000000
# 4 0.000000 0.000000 0.000000 0.038195 0.000000 0.000000
# 5 0.000000 0.000000 0.000000 0.000000 0.021778 0.000000
# 6 0.000000 0.000000 0.000000 0.000000 0.000000 0.035731
#
#
# Mechanical properties :
#
#
# Convention : Reuss Voigt Hill
#
# Bulk Modulus (GPa) = 56.53941 70.57803 63.55872
# Shear Modulus (GPa) = 25.88053 36.49259 31.18656
#
# Velocity S-wave (km/s) = 3.09269 3.67242 3.39495
# Velocity P-wave (km/s) = 5.80073 6.63822 6.23355
#
# Compressibility (1/GPa) = 0.01768678
#
# Stress axis : x y z
#
# Youngs Moduli (GPa) = 28.30136 110.74737 97.30115
#
# Poissons Ratio (x) = 0.84275 1.22860
# Poissons Ratio (y) = 0.21536 -0.17119
# Poissons Ratio (z) = 0.35736 -0.19485
#
# Static dielectric constant tensor:
#      x y z
#    x 2.154910 0.000000 0.000000 
#    y 0.000000 2.103800 0.000000 
#    z 0.000000 0.000000 2.316830 
# 
# From -- ./inp_files/6769.got.cif
#   From: 2010.05.17/outbox.cif.g08.bks.cpg/sg61_4_cif.got.tgz:6769.got - 2010.06.03 15:17:17.
