data_PCOD9460775
_publ_section_title
;
Structure prediction by ZEFSAII (Michael W. Deem and Ramdas Pophale) SiO2 
 PCOD9460775
Probable space group: P B C A
;
_chemical_formula_sum "Si O2"
_cell_formula_units_Z 56
_cell_length_a 18.911463
_cell_length_b 23.464208
_cell_length_c 5.257936
_cell_angle_alpha 90.000000
_cell_angle_beta 90.000000
_cell_angle_gamma 90.000000
_cell_volume 2333.169673
_symmetry_space_group_name_H-M "P B C A"
_symmetry_group_IT_number 61
_symmetry_cell_setting 'orthorhombic'
loop_
_space_group_symop_operation_xyz
x,y,z
1/2-x,-y,1/2+z
1/2+x,1/2-y,-z
-x,1/2+y,1/2-z
-x,-y,-z
1/2+x,y,1/2-z
1/2-x,1/2+y,z
x,1/2-y,1/2+z
loop_
_atom_site_type_symbol
_atom_site_label
_atom_site_fract_x
_atom_site_fract_y
_atom_site_fract_z
Si Si1 0.072123 0.787325 0.376928
Si Si2 0.644928 0.122260 0.472291
Si Si3 0.794955 0.995215 0.775268
Si Si4 0.416555 0.439884 0.983697
Si Si5 0.942912 0.953948 0.318708
Si Si6 0.235500 0.787610 0.391562
Si Si7 0.491487 0.871089 0.812747
O O1 0.061797 0.757914 0.106125
O O2 0.153584 0.807484 0.398795
O O3 0.016018 0.835955 0.443944
O O4 0.671729 0.067706 0.310966
O O5 0.611465 0.093579 0.722059
O O6 0.708447 0.163507 0.544560
O O7 0.577744 0.151495 0.330915
O O8 0.762578 0.000697 0.498496
O O9 0.850535 0.045705 0.839143
O O10 0.408995 0.486144 0.756299
O O11 0.437492 0.380124 0.854705
O O12 0.486469 0.450423 0.149999
O O13 0.967239 0.934360 0.595374
O O14 0.245164 0.759743 0.113496
#
# Coordination Sequence:
#
# PCOD9460775 Si02
#       7
#     8   8   8   8   8   8   8
#     4  10  25  46  65  97 131 170 226 279 330 403
#     4  10  25  42  64 103 129 174 226 280 330 402
#     4  11  27  43  64 100 138 179 222 275 325 400
#     4   9  21  39  61  94 131 173 217 260 329 395
#     4   9  20  39  61  95 131 168 214 270 324 399
#     4  10  24  46  69  93 131 178 223 276 338 394
#     4  11  23  39  73  94 133 177 219 275 343 392
#
# _framework density 24.001684000000001
#
# number of rings (size 3 to 8) (size 9 to 14) (size 15 to 20)
#    0.000    2.000    0.000    1.286   14.000    1.143 
#    2.571    0.000    0.000    0.000    0.000    0.000 
#    0.000    0.000    0.000    0.000    0.000    0.000 
#
# Total GULP energy -313098.519572 kJ/mol
# GULP energy per Si atom -5591.044992 kJ/mol
# Density = 2.394705 g / cm^3
# Si number density = 24.001684 Si / 1000 Ang^3
#
#
#
# Elastic Constant Matrix: (Units=GPa)
#
#
# Indices 1 2 3 4 5 6 
#
# 1 95.0181 40.0769 27.2826 0.0000 0.0000 0.0000
# 2 40.0769 66.0500 13.3169 0.0000 0.0000 0.0000
# 3 27.2826 13.3169 74.5994 0.0000 0.0000 0.0000
# 4 0.0000 0.0000 0.0000 28.4261 0.0000 0.0000
# 5 0.0000 0.0000 0.0000 0.0000 41.9861 0.0000
# 6 0.0000 0.0000 0.0000 0.0000 0.0000 41.0121
#
#
#
# Elastic Compliance Matrix: (Units=1/GPa)
#
#
# Indices 1 2 3 4 5 6 
#
# 1 0.015250 -0.008432 -0.004072 0.000000 0.000000 0.000000
# 2 -0.008432 0.020368 -0.000552 0.000000 0.000000 0.000000
# 3 -0.004072 -0.000552 0.014993 0.000000 0.000000 0.000000
# 4 0.000000 0.000000 0.000000 0.035179 0.000000 0.000000
# 5 0.000000 0.000000 0.000000 0.000000 0.023817 0.000000
# 6 0.000000 0.000000 0.000000 0.000000 0.000000 0.024383
#
#
# Mechanical properties :
#
#
# Convention : Reuss Voigt Hill
#
# Bulk Modulus (GPa) = 40.81980 44.11338 42.46659
# Shear Modulus (GPa) = 29.71443 32.61761 31.16602
#
# Velocity S-wave (km/s) = 3.52236 3.69042 3.60737
# Velocity P-wave (km/s) = 5.79540 6.04799 5.92304
#
# Compressibility (1/GPa) = 0.02449791
#
# Stress axis : x y z
#
# Youngs Moduli (GPa) = 65.57346 49.09727 66.69910
#
# Poissons Ratio (x) = 0.41400 0.27160
# Poissons Ratio (y) = 0.55293 0.03682
# Poissons Ratio (z) = 0.26702 0.02710
#
# Static dielectric constant tensor:
#      x y z
#    x 1.933300 0.000000 0.000000 
#    y 0.000000 1.954960 0.000000 
#    z 0.000000 0.000000 1.932450 
# 
# From -- ./inp_files/1052.got.cif
#   From: 2010.05.17/outbox.cif.g08.bks.cpg/sg61_1_cif.got.tgz:1052.got - 2010.06.03 15:17:17.
