data_PCOD9460162
_publ_section_title
;
Structure prediction by ZEFSAII (Michael W. Deem and Ramdas Pophale) SiO2 
 PCOD9460162
Probable space group: P B C A
;
_chemical_formula_sum "Si O2"
_cell_formula_units_Z 64
_cell_length_a 11.097245
_cell_length_b 14.198496
_cell_length_c 14.978896
_cell_angle_alpha 90.000000
_cell_angle_beta 90.000000
_cell_angle_gamma 90.000000
_cell_volume 2360.137597
_symmetry_space_group_name_H-M "P B C A"
_symmetry_group_IT_number 61
_symmetry_cell_setting 'orthorhombic'
loop_
_space_group_symop_operation_xyz
x,y,z
1/2-x,-y,1/2+z
1/2+x,1/2-y,-z
-x,1/2+y,1/2-z
-x,-y,-z
1/2+x,y,1/2-z
1/2-x,1/2+y,z
x,1/2-y,1/2+z
loop_
_atom_site_type_symbol
_atom_site_label
_atom_site_fract_x
_atom_site_fract_y
_atom_site_fract_z
Si Si1 0.374214 0.751185 0.824974
Si Si2 0.204799 0.001406 0.972630
Si Si3 0.441426 0.960868 0.310702
Si Si4 0.520273 0.137202 0.916974
Si Si5 0.293415 0.286404 0.469528
Si Si6 0.239060 0.265576 0.650307
Si Si7 0.215809 0.010399 0.177628
Si Si8 0.551160 0.066909 0.113472
O O1 0.443465 0.652895 0.821097
O O2 0.309241 0.769984 0.918811
O O3 0.267232 0.737172 0.752904
O O4 0.452638 0.846799 0.815927
O O5 0.088739 0.991768 0.908418
O O6 0.229801 0.112567 0.978895
O O7 0.314515 0.963436 0.913167
O O8 0.216656 0.967163 0.075589
O O9 0.483419 0.966673 0.126804
O O10 0.320711 0.982972 0.249459
O O11 0.402752 0.199818 0.902965
O O12 0.625712 0.205676 0.887278
O O13 0.502072 0.108770 0.020446
O O14 0.328608 0.249768 0.567425
O O15 0.228948 0.378020 0.661682
O O16 0.079919 0.989033 0.211064
#
# Coordination Sequence:
#
# PCOD9460162 Si02
#       8
#     8   8   8   8   8   8   8   8
#     4  11  24  43  68 108 151 196 262 329 396 486
#     4   9  21  45  76 100 142 204 257 320 406 481
#     4  11  26  50  74 112 157 208 269 335 406 486
#     4  10  22  43  77 105 149 202 260 333 405 492
#     4   9  21  45  62 100 147 189 258 318 388 473
#     4  11  24  45  70 109 149 202 265 325 406 488
#     4  11  26  51  77 111 157 211 266 336 408 487
#     4  10  21  44  75 109 148 204 264 328 416 486
#
# _framework density 27.117063999999999
#
# number of rings (size 3 to 8) (size 9 to 14) (size 15 to 20)
#    0.000    1.750    1.250    1.125    1.750    6.000 
#   20.250    0.000    0.000    0.000    0.000    0.000 
#    0.000    0.000    0.000    0.000    0.000    0.000 
#
# Total GULP energy -356977.297217 kJ/mol
# GULP energy per Si atom -5577.770269 kJ/mol
# Density = 2.705534 g / cm^3
# Si number density = 27.117064 Si / 1000 Ang^3
#
#
#
# Elastic Constant Matrix: (Units=GPa)
#
#
# Indices 1 2 3 4 5 6 
#
# 1 113.1117 25.0110 58.4696 0.0000 0.0000 0.0000
# 2 25.0110 143.8203 25.2929 0.0000 0.0000 0.0000
# 3 58.4696 25.2929 130.8111 0.0000 0.0000 0.0000
# 4 0.0000 0.0000 0.0000 9.5313 0.0000 0.0000
# 5 0.0000 0.0000 0.0000 0.0000 40.0120 0.0000
# 6 0.0000 0.0000 0.0000 0.0000 0.0000 38.0912
#
#
#
# Elastic Compliance Matrix: (Units=1/GPa)
#
#
# Indices 1 2 3 4 5 6 
#
# 1 0.011679 -0.001152 -0.004997 0.000000 0.000000 0.000000
# 2 -0.001152 0.007312 -0.000899 0.000000 0.000000 0.000000
# 3 -0.004997 -0.000899 0.010052 0.000000 0.000000 0.000000
# 4 0.000000 0.000000 0.000000 0.104917 0.000000 0.000000
# 5 0.000000 0.000000 0.000000 0.000000 0.024993 0.000000
# 6 0.000000 0.000000 0.000000 0.000000 0.000000 0.026253
#
#
# Mechanical properties :
#
#
# Convention : Reuss Voigt Hill
#
# Bulk Modulus (GPa) = 66.90787 67.25447 67.08117
# Shear Modulus (GPa) = 24.47579 36.12488 30.30033
#
# Velocity S-wave (km/s) = 3.00758 3.65387 3.34636
# Velocity P-wave (km/s) = 6.06531 6.53118 6.30256
#
# Compressibility (1/GPa) = 0.01494592
#
# Stress axis : x y z
#
# Youngs Moduli (GPa) = 85.62504 136.77013 99.48163
#
# Poissons Ratio (x) = 0.15758 0.49715
# Poissons Ratio (y) = 0.09865 0.08941
# Poissons Ratio (z) = 0.42790 0.12292
#
# Static dielectric constant tensor:
#      x y z
#    x 2.146180 0.000000 0.000000 
#    y 0.000000 1.862650 0.000000 
#    z 0.000000 0.000000 2.323940 
# 
# From -- ./inp_files/8008.got.cif
#   From: 2010.05.17/outbox.cif.g08.bks.cpg/sg61_5_cif.got.tgz:8008.got - 2010.06.03 15:17:17.
