data_PCOD9460322
_publ_section_title
;
Structure prediction by ZEFSAII (Michael W. Deem and Ramdas Pophale) SiO2 
 PCOD9460322
Probable space group: P B C A
;
_chemical_formula_sum "Si O2"
_cell_formula_units_Z 64
_cell_length_a 19.841105
_cell_length_b 16.438931
_cell_length_c 7.985971
_cell_angle_alpha 90.000000
_cell_angle_beta 90.000000
_cell_angle_gamma 90.000000
_cell_volume 2604.756658
_symmetry_space_group_name_H-M "P B C A"
_symmetry_group_IT_number 61
_symmetry_cell_setting 'orthorhombic'
loop_
_space_group_symop_operation_xyz
x,y,z
1/2-x,-y,1/2+z
1/2+x,1/2-y,-z
-x,1/2+y,1/2-z
-x,-y,-z
1/2+x,y,1/2-z
1/2-x,1/2+y,z
x,1/2-y,1/2+z
loop_
_atom_site_type_symbol
_atom_site_label
_atom_site_fract_x
_atom_site_fract_y
_atom_site_fract_z
Si Si1 0.971305 0.615990 0.352915
Si Si2 0.849516 0.797709 0.664859
Si Si3 0.600707 0.704686 0.053786
Si Si4 0.783629 0.456145 0.113439
Si Si5 0.833588 0.867650 0.296464
Si Si6 0.541119 0.044987 0.727365
Si Si7 0.278699 0.117270 0.255109
Si Si8 0.590578 0.628300 0.688074
O O1 0.907254 0.650821 0.256724
O O2 0.955852 0.573128 0.532086
O O3 0.025264 0.687538 0.381089
O O4 0.012076 0.545164 0.257556
O O5 0.838568 0.827115 0.476807
O O6 0.863309 0.701936 0.673968
O O7 0.778117 0.813202 0.754384
O O8 0.654896 0.656150 0.164978
O O9 0.611269 0.801246 0.059366
O O10 0.603195 0.668723 0.868553
O O11 0.737943 0.396931 0.228464
O O12 0.751587 0.545119 0.128511
O O13 0.860415 0.448958 0.174639
O O14 0.782689 0.423166 0.925990
O O15 0.884366 0.943557 0.295311
O O16 0.486925 0.102391 0.818942
#
# Coordination Sequence:
#
# PCOD9460322 Si02
#       8
#     8   8   8   8   8   8   8   8
#     4  10  22  41  65  93 127 165 206 256 311 369
#     4  12  25  42  65  93 127 166 210 258 310 368
#     4  11  23  40  63  92 127 166 209 257 311 368
#     4  12  25  43  66  93 126 162 206 256 311 372
#     4  12  25  42  65  93 127 166 210 258 310 368
#     4  10  22  41  65  93 127 165 206 256 311 369
#     4  12  25  43  66  93 126 162 206 256 311 372
#     4  11  23  40  63  92 127 166 209 257 311 368
#
# _framework density 24.570433000000001
#
# number of rings (size 3 to 8) (size 9 to 14) (size 15 to 20)
#    0.000    0.750    0.000    8.250    0.000    6.500 
#    0.000    0.000    0.000    0.000    0.000    0.000 
#    0.000    0.000    0.000    0.000    0.000    0.000 
#
# Total GULP energy -358889.718132 kJ/mol
# GULP energy per Si atom -5607.651846 kJ/mol
# Density = 2.451451 g / cm^3
# Si number density = 24.570433 Si / 1000 Ang^3
#
#
#
# Elastic Constant Matrix: (Units=GPa)
#
#
# Indices 1 2 3 4 5 6 
#
# 1 82.2379 -10.0047 16.2858 0.0000 0.0000 0.0000
# 2 -10.0047 68.7408 -2.5185 0.0000 0.0000 0.0000
# 3 16.2858 -2.5185 57.3932 0.0000 0.0000 0.0000
# 4 0.0000 0.0000 0.0000 32.8213 0.0000 0.0000
# 5 0.0000 0.0000 0.0000 0.0000 22.8472 0.0000
# 6 0.0000 0.0000 0.0000 0.0000 0.0000 34.6346
#
#
#
# Elastic Compliance Matrix: (Units=1/GPa)
#
#
# Indices 1 2 3 4 5 6 
#
# 1 0.013096 0.001773 -0.003638 0.000000 0.000000 0.000000
# 2 0.001773 0.014811 0.000147 0.000000 0.000000 0.000000
# 3 -0.003638 0.000147 0.018463 0.000000 0.000000 0.000000
# 4 0.000000 0.000000 0.000000 0.030468 0.000000 0.000000
# 5 0.000000 0.000000 0.000000 0.000000 0.043769 0.000000
# 6 0.000000 0.000000 0.000000 0.000000 0.000000 0.028873
#
#
# Mechanical properties :
#
#
# Convention : Reuss Voigt Hill
#
# Bulk Modulus (GPa) = 23.29269 23.98857 23.64063
# Shear Modulus (GPa) = 29.89942 31.70124 30.80033
#
# Velocity S-wave (km/s) = 3.49217 3.59586 3.54440
# Velocity P-wave (km/s) = 5.07552 5.19852 5.13739
#
# Compressibility (1/GPa) = 0.04293193
#
# Stress axis : x y z
#
# Youngs Moduli (GPa) = 76.35916 67.51837 54.16376
#
# Poissons Ratio (x) = -0.11969 0.19706
# Poissons Ratio (y) = -0.13536 -0.00796
# Poissons Ratio (z) = 0.27782 -0.00992
#
# Static dielectric constant tensor:
#      x y z
#    x 1.911620 0.000000 0.000000 
#    y 0.000000 1.994950 0.000000 
#    z 0.000000 0.000000 1.950400 
# 
# From -- ./inp_files/4051.got.cif
#   From: 2010.05.17/outbox.cif.g08.bks.cpg/sg61_3_cif.got.tgz:4051.got - 2010.06.03 15:17:17.
