data_PCOD9460117
_publ_section_title
;
Structure prediction by ZEFSAII (Michael W. Deem and Ramdas Pophale) SiO2 
 PCOD9460117
Probable space group: P B C A
;
_chemical_formula_sum "Si O2"
_cell_formula_units_Z 48
_cell_length_a 15.358700
_cell_length_b 11.609090
_cell_length_c 10.630068
_cell_angle_alpha 90.000000
_cell_angle_beta 90.000000
_cell_angle_gamma 90.000000
_cell_volume 1895.346765
_symmetry_space_group_name_H-M "P B C A"
_symmetry_group_IT_number 61
_symmetry_cell_setting 'orthorhombic'
loop_
_space_group_symop_operation_xyz
x,y,z
1/2-x,-y,1/2+z
1/2+x,1/2-y,-z
-x,1/2+y,1/2-z
-x,-y,-z
1/2+x,y,1/2-z
1/2-x,1/2+y,z
x,1/2-y,1/2+z
loop_
_atom_site_type_symbol
_atom_site_label
_atom_site_fract_x
_atom_site_fract_y
_atom_site_fract_z
Si Si1 0.635308 0.274148 0.198644
Si Si2 0.168676 0.831663 0.220548
Si Si3 0.489796 0.240151 0.397783
Si Si4 0.398073 0.021362 0.350963
Si Si5 0.306906 0.535147 0.369615
Si Si6 0.391933 0.375139 0.577017
O O1 0.734085 0.309349 0.230633
O O2 0.578721 0.249561 0.322550
O O3 0.592616 0.384884 0.132406
O O4 0.648017 0.157266 0.124220
O O5 0.088470 0.785412 0.305135
O O6 0.165933 0.970039 0.238173
O O7 0.159683 0.744734 0.103784
O O8 0.478958 0.327078 0.513032
O O9 0.461024 0.108744 0.422230
O O10 0.296879 0.050038 0.377043
O O11 0.409981 0.052700 0.202724
O O12 0.338453 0.453917 0.481882
#
# Coordination Sequence:
#
# PCOD9460117 Si02
#       6
#     8   8   8   8   8   8
#     4  11  22  42  65  99 129 175 215 280 334 388
#     4   9  21  45  62  91 138 169 220 282 318 403
#     4  10  22  40  66  93 130 171 222 267 331 389
#     4  10  23  44  63  97 138 168 228 276 326 407
#     4  10  21  42  69  94 132 175 219 279 334 390
#     4  10  21  43  68  90 128 184 213 273 341 382
#
# _framework density 25.32518
#
# number of rings (size 3 to 8) (size 9 to 14) (size 15 to 20)
#    0.000    2.000    3.333    0.000    4.667    3.333 
#    3.000    0.833    0.000    0.000    0.000    0.000 
#    0.000    0.000    0.000    0.000    0.000    0.000 
#
# Total GULP energy -268468.218060 kJ/mol
# GULP energy per Si atom -5593.087876 kJ/mol
# Density = 2.526754 g / cm^3
# Si number density = 25.325180 Si / 1000 Ang^3
#
#
#
# Elastic Constant Matrix: (Units=GPa)
#
#
# Indices 1 2 3 4 5 6 
#
# 1 96.3203 44.5131 41.5806 0.0000 0.0000 0.0000
# 2 44.5131 160.8823 51.8567 0.0000 0.0000 0.0000
# 3 41.5806 51.8567 76.2896 0.0000 0.0000 0.0000
# 4 0.0000 0.0000 0.0000 4.8242 0.0000 0.0000
# 5 0.0000 0.0000 0.0000 0.0000 18.5930 0.0000
# 6 0.0000 0.0000 0.0000 0.0000 0.0000 10.8169
#
#
#
# Elastic Compliance Matrix: (Units=1/GPa)
#
#
# Indices 1 2 3 4 5 6 
#
# 1 0.013975 -0.001808 -0.006388 0.000000 0.000000 0.000000
# 2 -0.001808 0.008193 -0.004584 0.000000 0.000000 0.000000
# 3 -0.006388 -0.004584 0.019706 0.000000 0.000000 0.000000
# 4 0.000000 0.000000 0.000000 0.207289 0.000000 0.000000
# 5 0.000000 0.000000 0.000000 0.000000 0.053784 0.000000
# 6 0.000000 0.000000 0.000000 0.000000 0.000000 0.092448
#
#
# Mechanical properties :
#
#
# Convention : Reuss Voigt Hill
#
# Bulk Modulus (GPa) = 61.29578 67.71034 64.50306
# Shear Modulus (GPa) = 11.72626 19.88293 15.80459
#
# Velocity S-wave (km/s) = 2.15414 2.80501 2.50084
# Velocity P-wave (km/s) = 5.51753 6.10616 5.81929
#
# Compressibility (1/GPa) = 0.01631434
#
# Stress axis : x y z
#
# Youngs Moduli (GPa) = 71.55567 122.04878 50.74633
#
# Poissons Ratio (x) = 0.22061 0.32418
# Poissons Ratio (y) = 0.12934 0.23263
# Poissons Ratio (z) = 0.45712 0.55950
#
# Static dielectric constant tensor:
#      x y z
#    x 1.946380 0.000000 0.000000 
#    y 0.000000 2.026500 0.000000 
#    z 0.000000 0.000000 2.134930 
# 
# From -- ./inp_files/6151.got.cif
#   From: 2010.05.17/outbox.cif.g08.bks.cpg/sg61_4_cif.got.tgz:6151.got - 2010.06.03 15:17:17.
