data_PCOD9460323
_publ_section_title
;
Structure prediction by ZEFSAII (Michael W. Deem and Ramdas Pophale) SiO2 
 PCOD9460323
Probable space group: P B C A
;
_chemical_formula_sum "Si O2"
_cell_formula_units_Z 56
_cell_length_a 9.807902
_cell_length_b 19.180449
_cell_length_c 12.958743
_cell_angle_alpha 90.000000
_cell_angle_beta 90.000000
_cell_angle_gamma 90.000000
_cell_volume 2437.798268
_symmetry_space_group_name_H-M "P B C A"
_symmetry_group_IT_number 61
_symmetry_cell_setting 'orthorhombic'
loop_
_space_group_symop_operation_xyz
x,y,z
1/2-x,-y,1/2+z
1/2+x,1/2-y,-z
-x,1/2+y,1/2-z
-x,-y,-z
1/2+x,y,1/2-z
1/2-x,1/2+y,z
x,1/2-y,1/2+z
loop_
_atom_site_type_symbol
_atom_site_label
_atom_site_fract_x
_atom_site_fract_y
_atom_site_fract_z
Si Si1 0.217416 0.997920 0.036116
Si Si2 0.310841 0.376041 0.405698
Si Si3 0.562341 0.686875 0.223756
Si Si4 0.452799 0.465400 0.840480
Si Si5 0.818373 0.589568 0.783821
Si Si6 0.922346 0.789252 0.411557
Si Si7 0.840576 0.756876 0.628024
O O1 0.103116 0.027637 0.113482
O O2 0.303951 0.946785 0.105696
O O3 0.295942 0.061658 0.984582
O O4 0.144123 0.959321 0.940956
O O5 0.316260 0.403999 0.287895
O O6 0.436814 0.328696 0.434473
O O7 0.179900 0.325173 0.397010
O O8 0.563480 0.603479 0.228077
O O9 0.466800 0.713204 0.128678
O O10 0.484484 0.720886 0.321301
O O11 0.713489 0.715795 0.197643
O O12 0.409416 0.536237 0.782870
O O13 0.862237 0.667115 0.816150
O O14 0.832527 0.789545 0.513379
#
# Coordination Sequence:
#
# PCOD9460323 Si02
#       7
#     8   8   8   8   8   8   8
#     4  10  22  41  65  93 138 179 227 283 349 426
#     4  10  23  44  66  99 137 185 231 292 357 413
#     4  11  25  45  68 103 136 180 235 290 345 414
#     4  10  23  40  64  99 129 182 226 281 351 411
#     4  11  22  42  67  98 138 179 228 287 350 429
#     4  11  24  44  69 102 134 185 232 289 351 422
#     4  11  25  44  72 100 138 185 234 291 350 417
#
# _framework density 22.971547000000001
#
# number of rings (size 3 to 8) (size 9 to 14) (size 15 to 20)
#    0.000    1.429    1.429    2.571    4.000    2.857 
#    5.143    0.000    0.000    0.000    0.000    0.000 
#    0.000    0.000    0.000    0.000    0.000    0.000 
#
# Total GULP energy -312790.492703 kJ/mol
# GULP energy per Si atom -5585.544513 kJ/mol
# Density = 2.291926 g / cm^3
# Si number density = 22.971547 Si / 1000 Ang^3
#
#
#
# Elastic Constant Matrix: (Units=GPa)
#
#
# Indices 1 2 3 4 5 6 
#
# 1 37.5385 6.2116 22.4930 0.0000 0.0000 0.0000
# 2 6.2116 87.5163 21.7596 0.0000 0.0000 0.0000
# 3 22.4930 21.7596 71.9835 0.0000 0.0000 0.0000
# 4 0.0000 0.0000 0.0000 34.0809 0.0000 0.0000
# 5 0.0000 0.0000 0.0000 0.0000 25.9332 0.0000
# 6 0.0000 0.0000 0.0000 0.0000 0.0000 11.1794
#
#
#
# Elastic Compliance Matrix: (Units=1/GPa)
#
#
# Indices 1 2 3 4 5 6 
#
# 1 0.032781 0.000238 -0.010315 0.000000 0.000000 0.000000
# 2 0.000238 0.012357 -0.003810 0.000000 0.000000 0.000000
# 3 -0.010315 -0.003810 0.018267 0.000000 0.000000 0.000000
# 4 0.000000 0.000000 0.000000 0.029342 0.000000 0.000000
# 5 0.000000 0.000000 0.000000 0.000000 0.038561 0.000000
# 6 0.000000 0.000000 0.000000 0.000000 0.000000 0.089450
#
#
# Mechanical properties :
#
#
# Convention : Reuss Voigt Hill
#
# Bulk Modulus (GPa) = 28.06549 33.10740 30.58645
# Shear Modulus (GPa) = 19.20068 24.01031 21.60549
#
# Velocity S-wave (km/s) = 2.89424 3.23649 3.07014
# Velocity P-wave (km/s) = 4.83868 5.33012 5.09033
#
# Compressibility (1/GPa) = 0.03563095
#
# Stress axis : x y z
#
# Youngs Moduli (GPa) = 30.50573 80.92731 54.74388
#
# Poissons Ratio (x) = -0.01926 0.56469
# Poissons Ratio (y) = -0.00726 0.20856
# Poissons Ratio (z) = 0.31467 0.30831
#
# Static dielectric constant tensor:
#      x y z
#    x 1.871350 0.000000 0.000000 
#    y 0.000000 1.878060 0.000000 
#    z 0.000000 0.000000 1.885490 
# 
# From -- ./inp_files/5352.got.cif
#   From: 2010.05.17/outbox.cif.g08.bks.cpg/sg61_3_cif.got.tgz:5352.got - 2010.06.03 15:17:17.
