data_PCOD9460265
_publ_section_title
;
Structure prediction by ZEFSAII (Michael W. Deem and Ramdas Pophale) SiO2 
 PCOD9460265
Probable space group: P B C A
;
_chemical_formula_sum "Si O2"
_cell_formula_units_Z 48
_cell_length_a 12.772737
_cell_length_b 4.975666
_cell_length_c 31.734469
_cell_angle_alpha 90.000000
_cell_angle_beta 90.000000
_cell_angle_gamma 90.000000
_cell_volume 2016.816685
_symmetry_space_group_name_H-M "P B C A"
_symmetry_group_IT_number 61
_symmetry_cell_setting 'orthorhombic'
loop_
_space_group_symop_operation_xyz
x,y,z
1/2-x,-y,1/2+z
1/2+x,1/2-y,-z
-x,1/2+y,1/2-z
-x,-y,-z
1/2+x,y,1/2-z
1/2-x,1/2+y,z
x,1/2-y,1/2+z
loop_
_atom_site_type_symbol
_atom_site_label
_atom_site_fract_x
_atom_site_fract_y
_atom_site_fract_z
Si Si1 0.675161 0.259993 0.043839
Si Si2 0.896818 0.269170 0.721803
Si Si3 0.693415 0.630444 0.139713
Si Si4 0.024992 0.731514 0.193792
Si Si5 0.508457 0.996284 0.104067
Si Si6 0.319192 0.771094 0.555327
O O1 0.772420 0.052298 0.050909
O O2 0.570954 0.169643 0.068841
O O3 0.651156 0.244672 0.993916
O O4 0.806887 0.350919 0.690193
O O5 0.987922 0.467492 0.703715
O O6 0.883688 0.315577 0.771550
O O7 0.934811 0.969894 0.710945
O O8 0.710003 0.323347 0.127807
O O9 0.592203 0.779255 0.122103
O O10 0.033482 0.665273 0.144569
O O11 0.414371 0.832035 0.083242
O O12 0.220381 0.572722 0.562983
#
# Coordination Sequence:
#
# PCOD9460265 Si02
#       6
#     8   8   8   8   8   8
#     4  10  22  40  62  92 125 157 197 246 309 378
#     4   9  18  36  52  77 117 156 189 236 290 348
#     4  11  22  35  56  90 123 154 197 246 300 360
#     4   9  19  33  57  81 108 153 200 233 286 351
#     4  11  22  39  64  91 122 160 201 258 309 352
#     4  10  24  43  61  85 120 162 208 251 299 367
#
# _framework density 23.799883999999999
#
# number of rings (size 3 to 8) (size 9 to 14) (size 15 to 20)
#    0.000    2.000    0.000    3.500    0.000    8.000 
#    0.000    6.667    0.000    0.000    0.000    0.000 
#    0.000    0.000    0.000    0.000    0.000    0.000 
#
# Total GULP energy -268188.929513 kJ/mol
# GULP energy per Si atom -5587.269365 kJ/mol
# Density = 2.374571 g / cm^3
# Si number density = 23.799884 Si / 1000 Ang^3
#
#
#
# Elastic Constant Matrix: (Units=GPa)
#
#
# Indices 1 2 3 4 5 6 
#
# 1 43.1253 5.5887 30.8849 0.0000 0.0000 0.0000
# 2 5.5887 81.8962 6.7483 0.0000 0.0000 0.0000
# 3 30.8849 6.7483 112.7571 0.0000 0.0000 0.0000
# 4 0.0000 0.0000 0.0000 28.9260 0.0000 0.0000
# 5 0.0000 0.0000 0.0000 0.0000 35.5011 0.0000
# 6 0.0000 0.0000 0.0000 0.0000 0.0000 23.9236
#
#
#
# Elastic Compliance Matrix: (Units=1/GPa)
#
#
# Indices 1 2 3 4 5 6 
#
# 1 0.028991 -0.001331 -0.007861 0.000000 0.000000 0.000000
# 2 -0.001331 0.012332 -0.000374 0.000000 0.000000 0.000000
# 3 -0.007861 -0.000374 0.011044 0.000000 0.000000 0.000000
# 4 0.000000 0.000000 0.000000 0.034571 0.000000 0.000000
# 5 0.000000 0.000000 0.000000 0.000000 0.028168 0.000000
# 6 0.000000 0.000000 0.000000 0.000000 0.000000 0.041800
#
#
# Mechanical properties :
#
#
# Convention : Reuss Voigt Hill
#
# Bulk Modulus (GPa) = 30.08751 36.02470 33.05611
# Shear Modulus (GPa) = 26.72151 30.64057 28.68104
#
# Velocity S-wave (km/s) = 3.35439 3.59196 3.47521
# Velocity P-wave (km/s) = 5.26041 5.68967 5.47924
#
# Compressibility (1/GPa) = 0.03323639
#
# Stress axis : x y z
#
# Youngs Moduli (GPa) = 34.49399 81.08874 90.54535
#
# Poissons Ratio (x) = 0.10789 0.71178
# Poissons Ratio (y) = 0.04590 0.03383
# Poissons Ratio (z) = 0.27116 0.03030
#
# Static dielectric constant tensor:
#      x y z
#    x 1.921900 0.000000 0.000000 
#    y 0.000000 1.899050 0.000000 
#    z 0.000000 0.000000 2.031360 
# 
# From -- ./inp_files/11490.got.cif
#   From: 2010.05.17/outbox.cif.g08.bks.cpg/sg61_6_cif.got.tgz:11490.got - 2010.06.03 15:17:17.
