data_PCOD9460089
_publ_section_title
;
Structure prediction by ZEFSAII (Michael W. Deem and Ramdas Pophale) SiO2 
 PCOD9460089
Probable space group: P B C A
;
_chemical_formula_sum "Si O2"
_cell_formula_units_Z 20
_cell_length_a 8.293229
_cell_length_b 11.026365
_cell_length_c 7.366295
_cell_angle_alpha 90.000000
_cell_angle_beta 90.000000
_cell_angle_gamma 90.000000
_cell_volume 673.604732
_symmetry_space_group_name_H-M "P B C A"
_symmetry_group_IT_number 61
_symmetry_cell_setting 'orthorhombic'
loop_
_space_group_symop_operation_xyz
x,y,z
1/2-x,-y,1/2+z
1/2+x,1/2-y,-z
-x,1/2+y,1/2-z
-x,-y,-z
1/2+x,y,1/2-z
1/2-x,1/2+y,z
x,1/2-y,1/2+z
loop_
_atom_site_type_symbol
_atom_site_label
_atom_site_fract_x
_atom_site_fract_y
_atom_site_fract_z
Si Si1 0.678036 0.397523 0.864287
Si Si2 0.633382 0.139482 0.773954
Si Si3 0.000000 0.000000 0.500000
O O1 0.728028 0.260250 0.818601
O O2 0.802709 0.513278 0.877479
O O3 0.570936 0.430419 0.692819
O O4 0.606144 0.389048 0.065562
O O5 0.471356 0.135686 0.893659
#
# Coordination Sequence:
#
# PCOD9460089 Si02
#       3
#     8   8   4
#     4  10  21  42  63  89 127 159 208 257 302 371
#     4  10  21  42  63  89 127 159 208 257 302 371
#     4   8  24  40  60  94 124 156 218 242 320 358
#
# _framework density 29.691002999999998
#
# number of rings (size 3 to 8) (size 9 to 14) (size 15 to 20)
#    2.400    0.000    0.000    2.400    0.000    3.200 
#    0.000    4.000    0.000    0.000    0.000    0.000 
#    0.000    0.000    0.000    0.000    0.000    0.000 
#
# Total GULP energy -111411.826024 kJ/mol
# GULP energy per Si atom -5570.591301 kJ/mol
# Density = 2.962343 g / cm^3
# Si number density = 29.691003 Si / 1000 Ang^3
#
#
#
# Elastic Constant Matrix: (Units=GPa)
#
#
# Indices 1 2 3 4 5 6 
#
# 1 58.9907 81.6856 69.0975 0.0000 0.0000 0.0000
# 2 81.6856 250.1147 120.0418 0.0000 0.0000 0.0000
# 3 69.0975 120.0418 415.6780 0.0000 0.0000 0.0000
# 4 0.0000 0.0000 0.0000 72.6002 0.0000 0.0000
# 5 0.0000 0.0000 0.0000 0.0000 50.2629 0.0000
# 6 0.0000 0.0000 0.0000 0.0000 0.0000 52.4125
#
#
#
# Elastic Compliance Matrix: (Units=1/GPa)
#
#
# Indices 1 2 3 4 5 6 
#
# 1 0.033538 -0.009609 -0.002800 0.000000 0.000000 0.000000
# 2 -0.009609 0.007395 -0.000538 0.000000 0.000000 0.000000
# 3 -0.002800 -0.000538 0.003027 0.000000 0.000000 0.000000
# 4 0.000000 0.000000 0.000000 0.013774 0.000000 0.000000
# 5 0.000000 0.000000 0.000000 0.000000 0.019895 0.000000
# 6 0.000000 0.000000 0.000000 0.000000 0.000000 0.019079
#
#
# Mechanical properties :
#
#
# Convention : Reuss Voigt Hill
#
# Bulk Modulus (GPa) = 55.35807 140.71480 98.03644
# Shear Modulus (GPa) = 38.87299 65.31903 52.09601
#
# Velocity S-wave (km/s) = 3.62228 4.69546 4.19335
# Velocity P-wave (km/s) = 6.01496 8.76883 7.51905
#
# Compressibility (1/GPa) = 0.01806421
#
# Stress axis : x y z
#
# Youngs Moduli (GPa) = 29.81725 135.23022 330.41042
#
# Poissons Ratio (x) = 1.29947 0.92510
# Poissons Ratio (y) = 0.28652 0.17781
# Poissons Ratio (z) = 0.08348 0.07278
#
# Static dielectric constant tensor:
#      x y z
#    x 2.600880 0.000000 0.000000 
#    y 0.000000 2.356730 0.000000 
#    z 0.000000 0.000000 2.092380 
# 
# From -- ./inp_files/1534.got.cif
#   From: 2010.05.17/outbox.cif.g08.bks.cpg/sg61_1_cif.got.tgz:1534.got - 2010.06.03 15:17:17.
