data_PCOD9460543
_publ_section_title
;
Structure prediction by ZEFSAII (Michael W. Deem and Ramdas Pophale) SiO2 
 PCOD9460543
Probable space group: P B C A
;
_chemical_formula_sum "Si O2"
_cell_formula_units_Z 48
_cell_length_a 13.741039
_cell_length_b 11.393987
_cell_length_c 14.558101
_cell_angle_alpha 90.000000
_cell_angle_beta 90.000000
_cell_angle_gamma 90.000000
_cell_volume 2279.292282
_symmetry_space_group_name_H-M "P B C A"
_symmetry_group_IT_number 61
_symmetry_cell_setting 'orthorhombic'
loop_
_space_group_symop_operation_xyz
x,y,z
1/2-x,-y,1/2+z
1/2+x,1/2-y,-z
-x,1/2+y,1/2-z
-x,-y,-z
1/2+x,y,1/2-z
1/2-x,1/2+y,z
x,1/2-y,1/2+z
loop_
_atom_site_type_symbol
_atom_site_label
_atom_site_fract_x
_atom_site_fract_y
_atom_site_fract_z
Si Si1 0.079885 0.715217 0.615499
Si Si2 0.264276 0.586256 0.848583
Si Si3 0.560828 0.956292 0.211975
Si Si4 0.347202 0.032114 0.175155
Si Si5 0.772467 0.430736 0.493255
Si Si6 0.625629 0.311232 0.636443
O O1 0.066236 0.615941 0.694112
O O2 0.141718 0.656816 0.534563
O O3 0.972543 0.760719 0.591465
O O4 0.134335 0.830772 0.654729
O O5 0.147288 0.597941 0.850304
O O6 0.297564 0.491329 0.773168
O O7 0.313519 0.706684 0.820047
O O8 0.303972 0.542509 0.946105
O O9 0.451216 0.964160 0.174997
O O10 0.591992 0.093390 0.211769
O O11 0.278769 0.976246 0.098348
O O12 0.693196 0.368954 0.558908
#
# Coordination Sequence:
#
# PCOD9460543 Si02
#       6
#     8   8   8   8   8   8
#     4  11  23  44  67  99 135 178 225 278 340 398
#     4  11  23  43  67  98 133 176 228 274 335 403
#     4  10  23  41  70  91 131 179 219 272 337 398
#     4  11  24  45  66  97 135 177 225 276 345 400
#     4  11  25  41  68 102 134 179 223 282 338 403
#     4  10  24  44  64 103 136 170 232 277 330 407
#
# _framework density 21.059169000000001
#
# number of rings (size 3 to 8) (size 9 to 14) (size 15 to 20)
#    0.000    1.333    3.333    1.000    4.667    8.000 
#    3.000    0.000    0.000    0.000    0.000    0.000 
#    0.000    0.000    0.000    0.000    0.000    0.000 
#
# Total GULP energy -268027.917458 kJ/mol
# GULP energy per Si atom -5583.914947 kJ/mol
# Density = 2.101124 g / cm^3
# Si number density = 21.059169 Si / 1000 Ang^3
#
#
#
# Elastic Constant Matrix: (Units=GPa)
#
#
# Indices 1 2 3 4 5 6 
#
# 1 65.3199 27.4396 -8.5286 0.0000 0.0000 0.0000
# 2 27.4396 69.4011 4.6270 0.0000 0.0000 0.0000
# 3 -8.5286 4.6270 31.8497 0.0000 0.0000 0.0000
# 4 0.0000 0.0000 0.0000 33.1115 0.0000 0.0000
# 5 0.0000 0.0000 0.0000 0.0000 28.5495 0.0000
# 6 0.0000 0.0000 0.0000 0.0000 0.0000 32.0155
#
#
#
# Elastic Compliance Matrix: (Units=1/GPa)
#
#
# Indices 1 2 3 4 5 6 
#
# 1 0.019581 -0.008171 0.006430 0.000000 0.000000 0.000000
# 2 -0.008171 0.017959 -0.004797 0.000000 0.000000 0.000000
# 3 0.006430 -0.004797 0.033816 0.000000 0.000000 0.000000
# 4 0.000000 0.000000 0.000000 0.030201 0.000000 0.000000
# 5 0.000000 0.000000 0.000000 0.000000 0.035027 0.000000
# 6 0.000000 0.000000 0.000000 0.000000 0.000000 0.031235
#
#
# Mechanical properties :
#
#
# Convention : Reuss Voigt Hill
#
# Bulk Modulus (GPa) = 17.15790 23.73853 20.44821
# Shear Modulus (GPa) = 24.95989 28.27082 26.61535
#
# Velocity S-wave (km/s) = 3.44645 3.66792 3.55890
# Velocity P-wave (km/s) = 4.89923 5.40693 5.15933
#
# Compressibility (1/GPa) = 0.05828220
#
# Stress axis : x y z
#
# Youngs Moduli (GPa) = 51.06939 55.68142 29.57161
#
# Poissons Ratio (x) = 0.45495 -0.19016
# Poissons Ratio (y) = 0.41727 0.14185
# Poissons Ratio (z) = -0.32840 0.26710
#
# Static dielectric constant tensor:
#      x y z
#    x 1.779310 0.000000 0.000000 
#    y 0.000000 1.792440 0.000000 
#    z 0.000000 0.000000 1.720850 
# 
# From -- ./inp_files/7447.got.cif
#   From: 2010.05.17/outbox.cif.g08.bks.cpg/sg61_4_cif.got.tgz:7447.got - 2010.06.03 15:17:17.
