data_PCOD9460923
_publ_section_title
;
Structure prediction by ZEFSAII (Michael W. Deem and Ramdas Pophale) SiO2 
 PCOD9460923
Probable space group: P B C A
;
_chemical_formula_sum "Si O2"
_cell_formula_units_Z 40
_cell_length_a 16.500853
_cell_length_b 10.142265
_cell_length_c 8.998483
_cell_angle_alpha 90.000000
_cell_angle_beta 90.000000
_cell_angle_gamma 90.000000
_cell_volume 1505.950336
_symmetry_space_group_name_H-M "P B C A"
_symmetry_group_IT_number 61
_symmetry_cell_setting 'orthorhombic'
loop_
_space_group_symop_operation_xyz
x,y,z
1/2-x,-y,1/2+z
1/2+x,1/2-y,-z
-x,1/2+y,1/2-z
-x,-y,-z
1/2+x,y,1/2-z
1/2-x,1/2+y,z
x,1/2-y,1/2+z
loop_
_atom_site_type_symbol
_atom_site_label
_atom_site_fract_x
_atom_site_fract_y
_atom_site_fract_z
Si Si1 0.469776 0.716490 0.408338
Si Si2 0.743302 0.842612 0.296478
Si Si3 0.627386 0.155256 0.346866
Si Si4 0.383834 0.979425 0.355173
Si Si5 0.866704 0.240268 0.555943
O O1 0.435736 0.622404 0.281388
O O2 0.411313 0.727182 0.551701
O O3 0.455513 0.868977 0.347836
O O4 0.559310 0.685376 0.461009
O O5 0.796191 0.711540 0.260133
O O6 0.703988 0.797397 0.450694
O O7 0.811459 0.951890 0.261084
O O8 0.672470 0.855614 0.176049
O O9 0.647400 0.051684 0.474498
O O10 0.404232 0.132138 0.360928
#
# Coordination Sequence:
#
# PCOD9460923 Si02
#       5
#     8   8   8   8   8
#     4   9  19  36  59  81 112 154 187 234 280 342
#     4  11  22  37  59  86 117 151 189 246 283 344
#     4   9  18  39  55  78 115 153 183 220 304 331
#     4   9  22  36  58  80 117 157 183 231 296 347
#     4  12  22  37  61  88 116 144 206 238 286 335
#
# _framework density 26.561299000000002
#
# number of rings (size 3 to 8) (size 9 to 14) (size 15 to 20)
#    1.200    0.800    2.000    1.800    2.800    0.000 
#    0.000    0.000    0.000    2.400    0.000    0.000 
#    0.000    0.000    0.000    0.000    0.000    0.000 
#
# Total GULP energy -223190.942198 kJ/mol
# GULP energy per Si atom -5579.773555 kJ/mol
# Density = 2.650084 g / cm^3
# Si number density = 26.561299 Si / 1000 Ang^3
#
#
#
# Elastic Constant Matrix: (Units=GPa)
#
#
# Indices 1 2 3 4 5 6 
#
# 1 86.3753 7.3844 20.2091 0.0000 0.0000 0.0000
# 2 7.3844 19.8321 -4.1061 0.0000 0.0000 0.0000
# 3 20.2091 -4.1061 101.7888 0.0000 0.0000 0.0000
# 4 0.0000 0.0000 0.0000 5.5381 0.0000 0.0000
# 5 0.0000 0.0000 0.0000 0.0000 -113.0408 0.0000
# 6 0.0000 0.0000 0.0000 0.0000 0.0000 19.3792
#
#
#
# Elastic Compliance Matrix: (Units=1/GPa)
#
#
# Indices 1 2 3 4 5 6 
#
# 1 0.012667 -0.005281 -0.002728 0.000000 0.000000 0.000000
# 2 -0.005281 0.053050 0.003189 0.000000 0.000000 0.000000
# 3 -0.002728 0.003189 0.010495 0.000000 0.000000 0.000000
# 4 0.000000 0.000000 0.000000 0.180566 0.000000 0.000000
# 5 0.000000 0.000000 0.000000 0.000000 -0.008846 0.000000
# 6 0.000000 0.000000 0.000000 0.000000 0.000000 0.051602
#
#
# Mechanical properties :
#
#
# Convention : Reuss Voigt Hill
#
# Bulk Modulus (GPa) = 15.02178 28.33010 21.67594
# Shear Modulus (GPa) = 15.08911 -5.32410 4.88250
#
# Velocity S-wave (km/s) = 2.38604 -1.41733 1.35727
# Velocity P-wave (km/s) = 3.64125 2.83031 3.26109
#
# Compressibility (1/GPa) = 0.06656999
#
# Stress axis : x y z
#
# Youngs Moduli (GPa) = 78.94432 18.85019 95.28798
#
# Poissons Ratio (x) = 0.09955 0.25994
# Poissons Ratio (y) = 0.41693 -0.30383
# Poissons Ratio (z) = 0.21536 -0.06010
#
# Static dielectric constant tensor:
#      x y z
#    x 2.169860 0.000000 0.000000 
#    y 0.000000 2.102200 0.000000 
#    z 0.000000 0.000000 2.126820 
# 
# From -- ./inp_files/2637.got.cif
#   From: 2010.05.17/outbox.cif.g08.bks.cpg/sg61_2_cif.got.tgz:2637.got - 2010.06.03 15:17:17.
