data_PCOD9460968
_publ_section_title
;
Structure prediction by ZEFSAII (Michael W. Deem and Ramdas Pophale) SiO2 
 PCOD9460968
Probable space group: P B C A
;
_chemical_formula_sum "Si O2"
_cell_formula_units_Z 48
_cell_length_a 10.810324
_cell_length_b 21.266821
_cell_length_c 8.959646
_cell_angle_alpha 90.000000
_cell_angle_beta 90.000000
_cell_angle_gamma 90.000000
_cell_volume 2059.833595
_symmetry_space_group_name_H-M "P B C A"
_symmetry_group_IT_number 61
_symmetry_cell_setting 'orthorhombic'
loop_
_space_group_symop_operation_xyz
x,y,z
1/2-x,-y,1/2+z
1/2+x,1/2-y,-z
-x,1/2+y,1/2-z
-x,-y,-z
1/2+x,y,1/2-z
1/2-x,1/2+y,z
x,1/2-y,1/2+z
loop_
_atom_site_type_symbol
_atom_site_label
_atom_site_fract_x
_atom_site_fract_y
_atom_site_fract_z
Si Si1 0.620876 0.528877 0.917919
Si Si2 0.296553 0.713129 0.782073
Si Si3 0.930325 0.655040 0.206985
Si Si4 0.488077 0.847324 0.464725
Si Si5 0.876297 0.977658 0.583311
Si Si6 0.632096 0.726742 0.453777
O O1 0.595164 0.603398 0.932456
O O2 0.248565 0.509557 0.503050
O O3 0.625790 0.509249 0.746072
O O4 0.500000 0.500000 0.000000
O O5 0.350116 0.782672 0.815721
O O6 0.403785 0.663100 0.817576
O O7 0.230951 0.728161 0.627709
O O8 0.192831 0.695909 0.903265
O O9 0.922009 0.633811 0.380266
O O10 0.887804 0.597194 0.108022
O O11 0.068500 0.677160 0.157579
O O12 0.531281 0.777017 0.506424
O O13 0.000000 0.000000 0.500000
#
# Coordination Sequence:
#
# PCOD9460968 Si02
#       6
#     8   8   8   8   8   8
#     4  12  27  49  77 110 148 197 260 317 381 453
#     4  11  23  40  68 104 140 185 232 295 366 445
#     4  11  24  44  71 100 145 190 235 299 378 434
#     4  11  24  43  70 104 143 186 240 302 368 445
#     4  12  29  51  79 107 147 203 259 317 383 455
#     4  11  23  40  69 103 141 184 237 292 364 444
#
# _framework density 23.302854
#
# number of rings (size 3 to 8) (size 9 to 14) (size 15 to 20)
#    0.000    0.667    5.000    2.000    0.000    6.667 
#    0.000    0.000    0.000    0.000    0.000    0.000 
#    0.000    0.000    0.000    0.000    0.000    0.000 
#
# Total GULP energy -268318.099493 kJ/mol
# GULP energy per Si atom -5589.960406 kJ/mol
# Density = 2.324982 g / cm^3
# Si number density = 23.302854 Si / 1000 Ang^3
#
#
#
# Elastic Constant Matrix: (Units=GPa)
#
#
# Indices 1 2 3 4 5 6 
#
# 1 130.5740 24.4528 60.3547 0.0000 0.0000 0.0000
# 2 24.4528 70.3666 15.1729 0.0000 0.0000 0.0000
# 3 60.3547 15.1729 131.7889 0.0000 0.0000 0.0000
# 4 0.0000 0.0000 0.0000 30.9540 0.0000 0.0000
# 5 0.0000 0.0000 0.0000 0.0000 46.1926 0.0000
# 6 0.0000 0.0000 0.0000 0.0000 0.0000 31.4506
#
#
#
# Elastic Compliance Matrix: (Units=1/GPa)
#
#
# Indices 1 2 3 4 5 6 
#
# 1 0.010156 -0.002591 -0.004353 0.000000 0.000000 0.000000
# 2 -0.002591 0.015234 -0.000567 0.000000 0.000000 0.000000
# 3 -0.004353 -0.000567 0.009647 0.000000 0.000000 0.000000
# 4 0.000000 0.000000 0.000000 0.032306 0.000000 0.000000
# 5 0.000000 0.000000 0.000000 0.000000 0.021648 0.000000
# 6 0.000000 0.000000 0.000000 0.000000 0.000000 0.031796
#
#
# Mechanical properties :
#
#
# Convention : Reuss Voigt Hill
#
# Bulk Modulus (GPa) = 49.96347 59.18783 54.57565
# Shear Modulus (GPa) = 35.09281 37.23604 36.16442
#
# Velocity S-wave (km/s) = 3.88486 4.00173 3.94373
# Velocity P-wave (km/s) = 6.45061 6.84152 6.64893
#
# Compressibility (1/GPa) = 0.02001462
#
# Stress axis : x y z
#
# Youngs Moduli (GPa) = 98.46854 65.64315 103.66365
#
# Poissons Ratio (x) = 0.17005 0.45121
# Poissons Ratio (y) = 0.25509 0.05883
# Poissons Ratio (z) = 0.42860 0.03725
#
# Static dielectric constant tensor:
#      x y z
#    x 1.950310 0.000000 0.000000 
#    y 0.000000 1.868420 0.000000 
#    z 0.000000 0.000000 1.891170 
# 
# From -- ./inp_files/2279.got.cif
#   From: 2010.05.17/outbox.cif.g08.bks.cpg/sg61_2_cif.got.tgz:2279.got - 2010.06.03 15:17:17.
