data_PCOD9460406
_publ_section_title
;
Structure prediction by ZEFSAII (Michael W. Deem and Ramdas Pophale) SiO2 
 PCOD9460406
Probable space group: P B C A
;
_chemical_formula_sum "Si O2"
_cell_formula_units_Z 40
_cell_length_a 11.428762
_cell_length_b 12.075641
_cell_length_c 13.728829
_cell_angle_alpha 90.000000
_cell_angle_beta 90.000000
_cell_angle_gamma 90.000000
_cell_volume 1894.710569
_symmetry_space_group_name_H-M "P B C A"
_symmetry_group_IT_number 61
_symmetry_cell_setting 'orthorhombic'
loop_
_space_group_symop_operation_xyz
x,y,z
1/2-x,-y,1/2+z
1/2+x,1/2-y,-z
-x,1/2+y,1/2-z
-x,-y,-z
1/2+x,y,1/2-z
1/2-x,1/2+y,z
x,1/2-y,1/2+z
loop_
_atom_site_type_symbol
_atom_site_label
_atom_site_fract_x
_atom_site_fract_y
_atom_site_fract_z
Si Si1 0.584002 0.750938 0.017556
Si Si2 0.261827 0.080743 0.365271
Si Si3 0.476713 0.467308 0.389011
Si Si4 0.310953 0.402652 0.649120
Si Si5 0.890040 0.580623 0.505863
O O1 0.683144 0.665075 0.055300
O O2 0.564566 0.841359 0.102905
O O3 0.456957 0.697487 0.995496
O O4 0.629412 0.810492 0.919792
O O5 0.291855 0.129331 0.260035
O O6 0.125483 0.050348 0.357873
O O7 0.318524 0.962840 0.400529
O O8 0.500000 0.500000 0.500000
O O9 0.600247 0.493434 0.340770
O O10 0.194624 0.431192 0.587583
O O11 0.000000 0.500000 0.500000
#
# Coordination Sequence:
#
# PCOD9460406 Si02
#       5
#     8   8   8   8   8
#     4  10  24  44  69 101 139 186 226 289 340 415
#     4  11  24  45  68 101 138 180 234 282 349 412
#     4  10  22  43  67  94 142 179 222 288 344 401
#     4  11  25  43  70 101 136 184 230 286 342 416
#     4  10  23  44  68  95 138 178 228 286 342 404
#
# _framework density 21.111405000000001
#
# number of rings (size 3 to 8) (size 9 to 14) (size 15 to 20)
#    0.000    1.600    4.000    0.000   11.200    1.600 
#    7.200    0.000    0.000    0.000    0.000    0.000 
#    0.000    0.000    0.000    0.000    0.000    0.000 
#
# Total GULP energy -222763.980431 kJ/mol
# GULP energy per Si atom -5569.099511 kJ/mol
# Density = 2.106335 g / cm^3
# Si number density = 21.111405 Si / 1000 Ang^3
#
#
#
# Elastic Constant Matrix: (Units=GPa)
#
#
# Indices 1 2 3 4 5 6 
#
# 1 110.5321 33.0559 24.4778 0.0000 0.0000 0.0000
# 2 33.0559 86.3943 21.1732 0.0000 0.0000 0.0000
# 3 24.4778 21.1732 111.1430 0.0000 0.0000 0.0000
# 4 0.0000 0.0000 0.0000 19.2049 0.0000 0.0000
# 5 0.0000 0.0000 0.0000 0.0000 10.3570 0.0000
# 6 0.0000 0.0000 0.0000 0.0000 0.0000 28.4424
#
#
#
# Elastic Compliance Matrix: (Units=1/GPa)
#
#
# Indices 1 2 3 4 5 6 
#
# 1 0.010487 -0.003615 -0.001621 0.000000 0.000000 0.000000
# 2 -0.003615 0.013388 -0.001754 0.000000 0.000000 0.000000
# 3 -0.001621 -0.001754 0.009689 0.000000 0.000000 0.000000
# 4 0.000000 0.000000 0.000000 0.052070 0.000000 0.000000
# 5 0.000000 0.000000 0.000000 0.000000 0.096553 0.000000
# 6 0.000000 0.000000 0.000000 0.000000 0.000000 0.035159
#
#
# Mechanical properties :
#
#
# Convention : Reuss Voigt Hill
#
# Bulk Modulus (GPa) = 51.06510 51.72038 51.39274
# Shear Modulus (GPa) = 21.02123 26.89168 23.95645
#
# Velocity S-wave (km/s) = 3.15894 3.57290 3.37228
# Velocity P-wave (km/s) = 6.12749 6.44770 6.28963
#
# Compressibility (1/GPa) = 0.01958285
#
# Stress axis : x y z
#
# Youngs Moduli (GPa) = 95.35312 74.69341 103.21401
#
# Poissons Ratio (x) = 0.27004 0.16731
# Poissons Ratio (y) = 0.34474 0.18106
# Poissons Ratio (z) = 0.15456 0.13103
#
# Static dielectric constant tensor:
#      x y z
#    x 1.797430 0.000000 0.000000 
#    y 0.000000 1.904800 0.000000 
#    z 0.000000 0.000000 1.759080 
# 
# From -- ./inp_files/5576.got.cif
#   From: 2010.05.17/outbox.cif.g08.bks.cpg/sg61_3_cif.got.tgz:5576.got - 2010.06.03 15:17:17.
