data_PCOD9460672
_publ_section_title
;
Structure prediction by ZEFSAII (Michael W. Deem and Ramdas Pophale) SiO2 
 PCOD9460672
Probable space group: P B C A
;
_chemical_formula_sum "Si O2"
_cell_formula_units_Z 40
_cell_length_a 12.692451
_cell_length_b 13.925937
_cell_length_c 9.741656
_cell_angle_alpha 90.000000
_cell_angle_beta 90.000000
_cell_angle_gamma 90.000000
_cell_volume 1721.879324
_symmetry_space_group_name_H-M "P B C A"
_symmetry_group_IT_number 61
_symmetry_cell_setting 'orthorhombic'
loop_
_space_group_symop_operation_xyz
x,y,z
1/2-x,-y,1/2+z
1/2+x,1/2-y,-z
-x,1/2+y,1/2-z
-x,-y,-z
1/2+x,y,1/2-z
1/2-x,1/2+y,z
x,1/2-y,1/2+z
loop_
_atom_site_type_symbol
_atom_site_label
_atom_site_fract_x
_atom_site_fract_y
_atom_site_fract_z
Si Si1 0.434338 0.041435 0.872366
Si Si2 0.726216 0.169859 0.594200
Si Si3 0.392514 0.316171 0.003262
Si Si4 0.102814 0.476435 0.587871
Si Si5 0.970977 0.766027 0.261001
O O1 0.318423 0.090330 0.880341
O O2 0.419873 0.966200 0.748565
O O3 0.506021 0.128859 0.822169
O O4 0.500000 0.000000 0.000000
O O5 0.790356 0.256668 0.532219
O O6 0.649837 0.218696 0.708933
O O7 0.657691 0.112788 0.482693
O O8 0.457995 0.264056 0.123573
O O9 0.347505 0.418038 0.059098
O O10 0.471294 0.305828 0.870387
O O11 0.000000 0.500000 0.500000
#
# Coordination Sequence:
#
# PCOD9460672 Si02
#       5
#     8   8   8   8   8
#     4  10  24  44  69 107 148 188 257 305 367 459
#     4  11  24  46  75 106 154 196 246 311 386 443
#     4  10  24  45  70 104 151 187 250 310 366 446
#     4  11  23  47  74 108 147 198 250 308 373 456
#     4  10  23  47  67 105 146 188 249 301 366 454
#
# _framework density 23.230433000000001
#
# number of rings (size 3 to 8) (size 9 to 14) (size 15 to 20)
#    0.000    1.600    4.000    0.000    2.800    9.600 
#    7.200    0.000    0.000    0.000    0.000    0.000 
#    0.000    0.000    0.000    0.000    0.000    0.000 
#
# Total GULP energy -222796.896340 kJ/mol
# GULP energy per Si atom -5569.922409 kJ/mol
# Density = 2.317756 g / cm^3
# Si number density = 23.230433 Si / 1000 Ang^3
#
#
#
# Elastic Constant Matrix: (Units=GPa)
#
#
# Indices 1 2 3 4 5 6 
#
# 1 142.4257 42.8614 62.6760 0.0000 0.0000 0.0000
# 2 42.8614 44.2547 49.6495 0.0000 0.0000 0.0000
# 3 62.6760 49.6495 139.1410 0.0000 0.0000 0.0000
# 4 0.0000 0.0000 0.0000 39.7814 0.0000 0.0000
# 5 0.0000 0.0000 0.0000 0.0000 34.9479 0.0000
# 6 0.0000 0.0000 0.0000 0.0000 0.0000 31.5313
#
#
#
# Elastic Compliance Matrix: (Units=1/GPa)
#
#
# Indices 1 2 3 4 5 6 
#
# 1 0.010166 -0.007852 -0.001778 0.000000 0.000000 0.000000
# 2 -0.007852 0.043746 -0.012073 0.000000 0.000000 0.000000
# 3 -0.001778 -0.012073 0.012296 0.000000 0.000000 0.000000
# 4 0.000000 0.000000 0.000000 0.025137 0.000000 0.000000
# 5 0.000000 0.000000 0.000000 0.000000 0.028614 0.000000
# 6 0.000000 0.000000 0.000000 0.000000 0.000000 0.031715
#
#
# Mechanical properties :
#
#
# Convention : Reuss Voigt Hill
#
# Bulk Modulus (GPa) = 43.85405 70.68835 57.27120
# Shear Modulus (GPa) = 24.66945 32.62776 28.64861
#
# Velocity S-wave (km/s) = 3.26229 3.75177 3.51556
# Velocity P-wave (km/s) = 5.75403 7.01876 6.41762
#
# Compressibility (1/GPa) = 0.02280291
#
# Stress axis : x y z
#
# Youngs Moduli (GPa) = 98.36275 22.85931 81.32972
#
# Poissons Ratio (x) = 0.17949 0.14457
# Poissons Ratio (y) = 0.77235 0.98188
# Poissons Ratio (z) = 0.17485 0.27598
#
# Static dielectric constant tensor:
#      x y z
#    x 1.936000 0.000000 0.000000 
#    y 0.000000 1.852700 0.000000 
#    z 0.000000 0.000000 2.062100 
# 
# From -- ./inp_files/2156.got.cif
#   From: 2010.05.17/outbox.cif.g08.bks.cpg/sg61_2_cif.got.tgz:2156.got - 2010.06.03 15:17:17.
