data_PCOD9460700
_publ_section_title
;
Structure prediction by ZEFSAII (Michael W. Deem and Ramdas Pophale) SiO2 
 PCOD9460700
Probable space group: P B C A
;
_chemical_formula_sum "Si O2"
_cell_formula_units_Z 32
_cell_length_a 11.744293
_cell_length_b 12.684763
_cell_length_c 8.762187
_cell_angle_alpha 90.000000
_cell_angle_beta 90.000000
_cell_angle_gamma 90.000000
_cell_volume 1305.334307
_symmetry_space_group_name_H-M "P B C A"
_symmetry_group_IT_number 61
_symmetry_cell_setting 'orthorhombic'
loop_
_space_group_symop_operation_xyz
x,y,z
1/2-x,-y,1/2+z
1/2+x,1/2-y,-z
-x,1/2+y,1/2-z
-x,-y,-z
1/2+x,y,1/2-z
1/2-x,1/2+y,z
x,1/2-y,1/2+z
loop_
_atom_site_type_symbol
_atom_site_label
_atom_site_fract_x
_atom_site_fract_y
_atom_site_fract_z
Si Si1 0.895601 0.148335 0.048802
Si Si2 0.825012 0.724422 0.906658
Si Si3 0.924961 0.944739 0.190484
Si Si4 0.445799 0.637214 0.298838
O O1 0.798474 0.218076 0.979338
O O2 0.992912 0.113808 0.929166
O O3 0.952943 0.194846 0.202084
O O4 0.850623 0.033404 0.103389
O O5 0.846182 0.636542 0.777405
O O6 0.845101 0.835128 0.821009
O O7 0.910739 0.684744 0.040576
O O8 0.009158 0.017539 0.294790
#
# Coordination Sequence:
#
# PCOD9460700 Si02
#       4
#     8   8   8   8
#     4   9  23  43  67  96 136 175 224 285 334 409
#     4  12  23  42  73  93 134 192 217 275 360 395
#     4   9  22  45  65  97 142 163 233 284 327 407
#     4  10  24  41  62 106 135 169 234 284 326 410
#
# _framework density 24.514793000000001
#
# number of rings (size 3 to 8) (size 9 to 14) (size 15 to 20)
#    1.500    0.500    0.000    2.250    3.500    4.000 
#    0.000    2.500    0.000    0.000    0.000    0.000 
#    0.000    0.000    0.000    0.000    0.000    0.000 
#
# Total GULP energy -178470.433263 kJ/mol
# GULP energy per Si atom -5577.201039 kJ/mol
# Density = 2.445900 g / cm^3
# Si number density = 24.514793 Si / 1000 Ang^3
#
#
#
# Elastic Constant Matrix: (Units=GPa)
#
#
# Indices 1 2 3 4 5 6 
#
# 1 37.9076 -3.1781 -2.0337 0.0000 0.0000 0.0000
# 2 -3.1781 37.6746 -1.0354 0.0000 0.0000 0.0000
# 3 -2.0337 -1.0354 79.7066 0.0000 0.0000 0.0000
# 4 0.0000 0.0000 0.0000 45.7359 0.0000 0.0000
# 5 0.0000 0.0000 0.0000 0.0000 42.9587 0.0000
# 6 0.0000 0.0000 0.0000 0.0000 0.0000 32.2432
#
#
#
# Elastic Compliance Matrix: (Units=1/GPa)
#
#
# Indices 1 2 3 4 5 6 
#
# 1 0.026608 0.002264 0.000708 0.000000 0.000000 0.000000
# 2 0.002264 0.026745 0.000405 0.000000 0.000000 0.000000
# 3 0.000708 0.000405 0.012569 0.000000 0.000000 0.000000
# 4 0.000000 0.000000 0.000000 0.021865 0.000000 0.000000
# 5 0.000000 0.000000 0.000000 0.000000 0.023278 0.000000
# 6 0.000000 0.000000 0.000000 0.000000 0.000000 0.031014
#
#
# Mechanical properties :
#
#
# Convention : Reuss Voigt Hill
#
# Bulk Modulus (GPa) = 13.75946 15.86605 14.81276
# Shear Modulus (GPa) = 31.33811 34.95663 33.14737
#
# Velocity S-wave (km/s) = 3.57926 3.78026 3.68113
# Velocity P-wave (km/s) = 4.76512 5.05370 4.91153
#
# Compressibility (1/GPa) = 0.07267725
#
# Stress axis : x y z
#
# Youngs Moduli (GPa) = 37.58305 37.38991 79.55865
#
# Poissons Ratio (x) = -0.08465 -0.05635
# Poissons Ratio (y) = -0.08509 -0.03224
# Poissons Ratio (z) = -0.02662 -0.01515
#
# Static dielectric constant tensor:
#      x y z
#    x 2.036020 0.000000 0.000000 
#    y 0.000000 1.970450 0.000000 
#    z 0.000000 0.000000 1.967370 
# 
# From -- ./inp_files/2035.got.cif
#   From: 2010.05.17/outbox.cif.g08.bks.cpg/sg61_2_cif.got.tgz:2035.got - 2010.06.03 15:17:17.
