data_PCOD9460567
_publ_section_title
;
Structure prediction by ZEFSAII (Michael W. Deem and Ramdas Pophale) SiO2 
 PCOD9460567
Probable space group: P B C A
;
_chemical_formula_sum "Si O2"
_cell_formula_units_Z 40
_cell_length_a 13.439303
_cell_length_b 12.819329
_cell_length_c 9.301029
_cell_angle_alpha 90.000000
_cell_angle_beta 90.000000
_cell_angle_gamma 90.000000
_cell_volume 1602.407753
_symmetry_space_group_name_H-M "P B C A"
_symmetry_group_IT_number 61
_symmetry_cell_setting 'orthorhombic'
loop_
_space_group_symop_operation_xyz
x,y,z
1/2-x,-y,1/2+z
1/2+x,1/2-y,-z
-x,1/2+y,1/2-z
-x,-y,-z
1/2+x,y,1/2-z
1/2-x,1/2+y,z
x,1/2-y,1/2+z
loop_
_atom_site_type_symbol
_atom_site_label
_atom_site_fract_x
_atom_site_fract_y
_atom_site_fract_z
Si Si1 0.004731 0.167211 0.217429
Si Si2 0.128252 0.019355 0.846077
Si Si3 0.401423 0.339714 0.477701
Si Si4 0.169276 0.288944 0.520244
Si Si5 0.820751 0.546929 0.985915
O O1 0.965329 0.056856 0.155042
O O2 0.947897 0.262685 0.137989
O O3 0.119406 0.179047 0.171576
O O4 0.964634 0.169890 0.378122
O O5 0.392332 0.037795 0.936669
O O6 0.170806 0.022882 0.683959
O O7 0.115809 0.136907 0.903160
O O8 0.286901 0.309523 0.510807
O O9 0.288523 0.471326 0.951067
O O10 0.154163 0.167082 0.498498
#
# Coordination Sequence:
#
# PCOD9460567 Si02
#       5
#     8   8   8   8   8
#     4  11  24  44  68 100 136 176 230 282 343 408
#     4  10  23  44  69 103 138 177 234 283 345 407
#     4  10  25  43  64 100 135 173 228 283 336 411
#     4  11  24  41  72  95 136 185 222 274 351 408
#     4  10  23  42  69  99 137 182 223 284 349 401
#
# _framework density 24.962437000000001
#
# number of rings (size 3 to 8) (size 9 to 14) (size 15 to 20)
#    0.000    1.600    2.000    0.600    8.400    2.400 
#    0.000    0.000    0.000    0.000    0.000    0.000 
#    0.000    0.000    0.000    0.000    0.000    0.000 
#
# Total GULP energy -224215.147428 kJ/mol
# GULP energy per Si atom -5605.378686 kJ/mol
# Density = 2.490562 g / cm^3
# Si number density = 24.962437 Si / 1000 Ang^3
#
#
#
# Elastic Constant Matrix: (Units=GPa)
#
#
# Indices 1 2 3 4 5 6 
#
# 1 114.5309 26.1476 8.4887 0.0000 0.0000 0.0000
# 2 26.1476 188.1866 28.2821 0.0000 0.0000 0.0000
# 3 8.4887 28.2821 56.8932 0.0000 0.0000 0.0000
# 4 0.0000 0.0000 0.0000 32.5188 0.0000 0.0000
# 5 0.0000 0.0000 0.0000 0.0000 36.9473 0.0000
# 6 0.0000 0.0000 0.0000 0.0000 0.0000 30.3481
#
#
#
# Elastic Compliance Matrix: (Units=1/GPa)
#
#
# Indices 1 2 3 4 5 6 
#
# 1 0.009050 -0.001140 -0.000784 0.000000 0.000000 0.000000
# 2 -0.001140 0.005886 -0.002756 0.000000 0.000000 0.000000
# 3 -0.000784 -0.002756 0.019064 0.000000 0.000000 0.000000
# 4 0.000000 0.000000 0.000000 0.030751 0.000000 0.000000
# 5 0.000000 0.000000 0.000000 0.000000 0.027066 0.000000
# 6 0.000000 0.000000 0.000000 0.000000 0.000000 0.032951
#
#
# Mechanical properties :
#
#
# Convention : Reuss Voigt Hill
#
# Bulk Modulus (GPa) = 40.58304 53.93860 47.26082
# Shear Modulus (GPa) = 35.12707 39.74233 37.43470
#
# Velocity S-wave (km/s) = 3.75533 3.99442 3.87672
# Velocity P-wave (km/s) = 5.92421 6.55200 6.24600
#
# Compressibility (1/GPa) = 0.02464083
#
# Stress axis : x y z
#
# Youngs Moduli (GPa) = 110.50295 169.88220 52.45536
#
# Poissons Ratio (x) = 0.19360 0.04111
# Poissons Ratio (y) = 0.12593 0.14458
# Poissons Ratio (z) = 0.08660 0.46822
#
# Static dielectric constant tensor:
#      x y z
#    x 1.972210 0.000000 0.000000 
#    y 0.000000 1.998850 0.000000 
#    z 0.000000 0.000000 1.970220 
# 
# From -- ./inp_files/3278.got.cif
#   From: 2010.05.17/outbox.cif.g08.bks.cpg/sg61_2_cif.got.tgz:3278.got - 2010.06.03 15:17:17.
