data_PCOD9460544
_publ_section_title
;
Structure prediction by ZEFSAII (Michael W. Deem and Ramdas Pophale) SiO2 
 PCOD9460544
Probable space group: P B C A
;
_chemical_formula_sum "Si O2"
_cell_formula_units_Z 44
_cell_length_a 19.159607
_cell_length_b 4.950270
_cell_length_c 17.705202
_cell_angle_alpha 90.000000
_cell_angle_beta 90.000000
_cell_angle_gamma 90.000000
_cell_volume 1679.253916
_symmetry_space_group_name_H-M "P B C A"
_symmetry_group_IT_number 61
_symmetry_cell_setting 'orthorhombic'
loop_
_space_group_symop_operation_xyz
x,y,z
1/2-x,-y,1/2+z
1/2+x,1/2-y,-z
-x,1/2+y,1/2-z
-x,-y,-z
1/2+x,y,1/2-z
1/2-x,1/2+y,z
x,1/2-y,1/2+z
loop_
_atom_site_type_symbol
_atom_site_label
_atom_site_fract_x
_atom_site_fract_y
_atom_site_fract_z
Si Si1 0.639292 0.192592 0.530812
Si Si2 0.500000 0.000000 0.000000
Si Si3 0.206034 0.833361 0.217672
Si Si4 0.123850 0.001079 0.602754
Si Si5 0.991432 0.731248 0.302189
Si Si6 0.365048 0.310042 0.375198
O O1 0.556441 0.251462 0.520087
O O2 0.669173 0.311269 0.453124
O O3 0.657197 0.901038 0.561359
O O4 0.658042 0.396810 0.598587
O O5 0.437237 0.129424 0.051781
O O6 0.274830 0.646188 0.219217
O O7 0.164788 0.727940 0.145817
O O8 0.163620 0.755128 0.292694
O O9 0.081438 0.187194 0.661652
O O10 0.005192 0.567120 0.731746
O O11 0.050311 0.789565 0.366374
#
# Coordination Sequence:
#
# PCOD9460544 Si02
#       6
#     8   4   8   8   8   8
#     4  10  23  41  71 107 140 180 214 302 372 416
#     4   8  20  42  68 118 134 174 214 320 358 432
#     4  12  29  49  69 100 143 199 245 291 340 433
#     4  10  23  46  73 106 147 177 245 297 364 435
#     4  12  24  36  68 109 138 179 223 302 365 415
#     4  12  23  45  68 100 141 180 239 284 362 417
#
# _framework density 26.202113000000001
#
# number of rings (size 3 to 8) (size 9 to 14) (size 15 to 20)
#    1.091    0.000    3.636    2.182    2.545    5.818 
#    0.000    5.455    0.000    0.000    0.000    0.000 
#    0.000    0.000    0.000    0.000    0.000    0.000 
#
# Total GULP energy -245662.741915 kJ/mol
# GULP energy per Si atom -5583.244134 kJ/mol
# Density = 2.614248 g / cm^3
# Si number density = 26.202113 Si / 1000 Ang^3
#
#
#
# Elastic Constant Matrix: (Units=GPa)
#
#
# Indices 1 2 3 4 5 6 
#
# 1 58.8565 16.0103 12.5294 0.0000 0.0000 0.0000
# 2 16.0103 66.5675 23.6962 0.0000 0.0000 0.0000
# 3 12.5294 23.6962 77.9098 0.0000 0.0000 0.0000
# 4 0.0000 0.0000 0.0000 29.8596 0.0000 0.0000
# 5 0.0000 0.0000 0.0000 0.0000 21.1655 0.0000
# 6 0.0000 0.0000 0.0000 0.0000 0.0000 31.7318
#
#
#
# Elastic Compliance Matrix: (Units=1/GPa)
#
#
# Indices 1 2 3 4 5 6 
#
# 1 0.018405 -0.003782 -0.001809 0.000000 0.000000 0.000000
# 2 -0.003782 0.017624 -0.004752 0.000000 0.000000 0.000000
# 3 -0.001809 -0.004752 0.014572 0.000000 0.000000 0.000000
# 4 0.000000 0.000000 0.000000 0.033490 0.000000 0.000000
# 5 0.000000 0.000000 0.000000 0.000000 0.047247 0.000000
# 6 0.000000 0.000000 0.000000 0.000000 0.000000 0.031514
#
#
# Mechanical properties :
#
#
# Convention : Reuss Voigt Hill
#
# Bulk Modulus (GPa) = 33.43103 34.20063 33.81583
# Shear Modulus (GPa) = 25.83860 26.62458 26.23159
#
# Velocity S-wave (km/s) = 3.14367 3.19113 3.16749
# Velocity P-wave (km/s) = 5.09544 5.16320 5.12943
#
# Compressibility (1/GPa) = 0.02991233
#
# Stress axis : x y z
#
# Youngs Moduli (GPa) = 54.33434 56.74201 68.62647
#
# Poissons Ratio (x) = 0.21462 0.12417
# Poissons Ratio (y) = 0.20552 0.32611
# Poissons Ratio (z) = 0.09831 0.26963
#
# Static dielectric constant tensor:
#      x y z
#    x 2.062010 0.000000 0.000000 
#    y 0.000000 1.977820 0.000000 
#    z 0.000000 0.000000 2.065330 
# 
# From -- ./inp_files/10572.got.cif
#   From: 2010.05.17/outbox.cif.g08.bks.cpg/sg61_6_cif.got.tgz:10572.got - 2010.06.03 15:17:17.
