data_PCOD9460943
_publ_section_title
;
Structure prediction by ZEFSAII (Michael W. Deem and Ramdas Pophale) SiO2 
 PCOD9460943
Probable space group: P B C A
;
_chemical_formula_sum "Si O2"
_cell_formula_units_Z 40
_cell_length_a 8.394877
_cell_length_b 13.073767
_cell_length_c 14.496922
_cell_angle_alpha 90.000000
_cell_angle_beta 90.000000
_cell_angle_gamma 90.000000
_cell_volume 1591.075837
_symmetry_space_group_name_H-M "P B C A"
_symmetry_group_IT_number 61
_symmetry_cell_setting 'orthorhombic'
loop_
_space_group_symop_operation_xyz
x,y,z
1/2-x,-y,1/2+z
1/2+x,1/2-y,-z
-x,1/2+y,1/2-z
-x,-y,-z
1/2+x,y,1/2-z
1/2-x,1/2+y,z
x,1/2-y,1/2+z
loop_
_atom_site_type_symbol
_atom_site_label
_atom_site_fract_x
_atom_site_fract_y
_atom_site_fract_z
Si Si1 0.028391 0.276309 0.443321
Si Si2 0.003390 0.771423 0.770665
Si Si3 0.687529 0.349681 0.415453
Si Si4 0.248038 0.605902 0.851750
Si Si5 0.450527 0.005588 0.211172
O O1 0.030075 0.241143 0.337664
O O2 0.860672 0.331188 0.457180
O O3 0.059491 0.178875 0.506871
O O4 0.176463 0.356080 0.447548
O O5 0.142540 0.698556 0.809997
O O6 0.857954 0.738018 0.838409
O O7 0.054060 0.889142 0.766367
O O8 0.667277 0.460895 0.368622
O O9 0.401479 0.573214 0.791797
O O10 0.122748 0.514121 0.835304
#
# Coordination Sequence:
#
# PCOD9460943 Si02
#       5
#     8   8   8   8   8
#     4  12  23  46  73  97 149 184 231 295 347 410
#     4  11  24  44  74 100 140 183 231 287 356 411
#     4  11  24  45  70 104 139 188 234 292 347 417
#     4  11  22  43  69 101 137 183 224 286 342 415
#     4  11  23  40  71 101 137 178 230 280 348 415
#
# _framework density 25.140222000000001
#
# number of rings (size 3 to 8) (size 9 to 14) (size 15 to 20)
#    0.000    0.800    6.000    2.400    5.600    0.800 
#    0.000    1.000    0.000    0.000    0.000    0.000 
#    0.000    0.000    0.000    0.000    0.000    0.000 
#
# Total GULP energy -222944.197817 kJ/mol
# GULP energy per Si atom -5573.604945 kJ/mol
# Density = 2.508300 g / cm^3
# Si number density = 25.140222 Si / 1000 Ang^3
#
#
#
# Elastic Constant Matrix: (Units=GPa)
#
#
# Indices 1 2 3 4 5 6 
#
# 1 112.7542 9.9986 -4.7343 0.0000 0.0000 0.0000
# 2 9.9986 112.5056 13.8257 0.0000 0.0000 0.0000
# 3 -4.7343 13.8257 55.0707 0.0000 0.0000 0.0000
# 4 0.0000 0.0000 0.0000 10.9606 0.0000 0.0000
# 5 0.0000 0.0000 0.0000 0.0000 64.3235 0.0000
# 6 0.0000 0.0000 0.0000 0.0000 0.0000 8.4697
#
#
#
# Elastic Compliance Matrix: (Units=1/GPa)
#
#
# Indices 1 2 3 4 5 6 
#
# 1 0.008993 -0.000923 0.001005 0.000000 0.000000 0.000000
# 2 -0.000923 0.009266 -0.002406 0.000000 0.000000 0.000000
# 3 0.001005 -0.002406 0.018849 0.000000 0.000000 0.000000
# 4 0.000000 0.000000 0.000000 0.091236 0.000000 0.000000
# 5 0.000000 0.000000 0.000000 0.000000 0.015546 0.000000
# 6 0.000000 0.000000 0.000000 0.000000 0.000000 0.118067
#
#
# Mechanical properties :
#
#
# Convention : Reuss Voigt Hill
#
# Bulk Modulus (GPa) = 30.80656 35.39006 33.09831
# Shear Modulus (GPa) = 18.02292 34.16681 26.09486
#
# Velocity S-wave (km/s) = 2.68040 3.69053 3.22525
# Velocity P-wave (km/s) = 4.67545 5.68046 5.20228
#
# Compressibility (1/GPa) = 0.03246062
#
# Stress axis : x y z
#
# Youngs Moduli (GPa) = 111.19941 107.92069 53.05381
#
# Poissons Ratio (x) = 0.09958 -0.05331
# Poissons Ratio (y) = 0.10260 0.12763
# Poissons Ratio (z) = -0.11173 0.25961
#
# Static dielectric constant tensor:
#      x y z
#    x 2.133430 0.000000 0.000000 
#    y 0.000000 2.191930 0.000000 
#    z 0.000000 0.000000 2.029470 
# 
# From -- ./inp_files/6972.got.cif
#   From: 2010.05.17/outbox.cif.g08.bks.cpg/sg61_4_cif.got.tgz:6972.got - 2010.06.03 15:17:17.
