data_PCOD9460628
_publ_section_title
;
Structure prediction by ZEFSAII (Michael W. Deem and Ramdas Pophale) SiO2 
 PCOD9460628
Probable space group: P B C A
;
_chemical_formula_sum "Si O2"
_cell_formula_units_Z 64
_cell_length_a 8.007168
_cell_length_b 25.459444
_cell_length_c 13.469942
_cell_angle_alpha 90.000000
_cell_angle_beta 90.000000
_cell_angle_gamma 90.000000
_cell_volume 2745.956046
_symmetry_space_group_name_H-M "P B C A"
_symmetry_group_IT_number 61
_symmetry_cell_setting 'orthorhombic'
loop_
_space_group_symop_operation_xyz
x,y,z
1/2-x,-y,1/2+z
1/2+x,1/2-y,-z
-x,1/2+y,1/2-z
-x,-y,-z
1/2+x,y,1/2-z
1/2-x,1/2+y,z
x,1/2-y,1/2+z
loop_
_atom_site_type_symbol
_atom_site_label
_atom_site_fract_x
_atom_site_fract_y
_atom_site_fract_z
Si Si1 0.121829 0.758884 0.972491
Si Si2 0.687882 0.205300 0.864589
Si Si3 0.688689 0.326433 0.143320
Si Si4 0.985930 0.004250 0.288701
Si Si5 0.031570 0.873210 0.982011
Si Si6 0.487879 0.895095 0.108429
Si Si7 0.217178 0.930969 0.563321
Si Si8 0.826397 0.019820 0.090699
O O1 0.264414 0.720070 0.932257
O O2 0.116644 0.820083 0.941882
O O3 0.962472 0.732587 0.922996
O O4 0.151300 0.765075 0.091238
O O5 0.661600 0.201523 0.748053
O O6 0.666629 0.144412 0.896245
O O7 0.851782 0.364015 0.154158
O O8 0.542474 0.360970 0.092920
O O9 0.854128 0.043984 0.337857
O O10 0.972291 0.007898 0.170490
O O11 0.160783 0.017410 0.341403
O O12 0.945710 0.945497 0.326201
O O13 0.140390 0.924754 0.961651
O O14 0.855634 0.886032 0.925155
O O15 0.558700 0.911244 0.001255
O O16 0.300357 0.975047 0.491629
#
# Coordination Sequence:
#
# PCOD9460628 Si02
#       8
#     8   8   8   8   8   8   8   8
#     4  11  25  46  69 101 142 179 236 300 357 431
#     4  11  25  44  74 106 137 185 234 299 364 426
#     4  10  24  47  69 106 138 181 249 299 360 431
#     4  11  24  43  68 102 149 187 242 292 367 448
#     4  11  24  45  69  96 141 191 237 293 367 422
#     4   9  22  39  72 101 137 184 233 297 354 421
#     4  10  23  45  64 100 146 180 239 291 351 441
#     4  11  24  43  68 105 142 189 236 298 364 436
#
# _framework density 23.306998
#
# number of rings (size 3 to 8) (size 9 to 14) (size 15 to 20)
#    0.000    1.500    1.250    2.625   12.250    0.000 
#    6.750    0.000    0.000    0.000    0.000    0.000 
#    0.000    0.000    0.000    0.000    0.000    0.000 
#
# Total GULP energy -357581.514264 kJ/mol
# GULP energy per Si atom -5587.211160 kJ/mol
# Density = 2.325395 g / cm^3
# Si number density = 23.306998 Si / 1000 Ang^3
#
#
#
# Elastic Constant Matrix: (Units=GPa)
#
#
# Indices 1 2 3 4 5 6 
#
# 1 60.2243 5.4782 13.9677 0.0000 0.0000 0.0000
# 2 5.4782 101.2368 26.2668 0.0000 0.0000 0.0000
# 3 13.9677 26.2668 101.7970 0.0000 0.0000 0.0000
# 4 0.0000 0.0000 0.0000 20.8573 0.0000 0.0000
# 5 0.0000 0.0000 0.0000 0.0000 29.2911 0.0000
# 6 0.0000 0.0000 0.0000 0.0000 0.0000 33.0559
#
#
#
# Elastic Compliance Matrix: (Units=1/GPa)
#
#
# Indices 1 2 3 4 5 6 
#
# 1 0.017161 -0.000340 -0.002267 0.000000 0.000000 0.000000
# 2 -0.000340 0.010593 -0.002687 0.000000 0.000000 0.000000
# 3 -0.002267 -0.002687 0.010828 0.000000 0.000000 0.000000
# 4 0.000000 0.000000 0.000000 0.047945 0.000000 0.000000
# 5 0.000000 0.000000 0.000000 0.000000 0.034140 0.000000
# 6 0.000000 0.000000 0.000000 0.000000 0.000000 0.030252
#
#
# Mechanical properties :
#
#
# Convention : Reuss Voigt Hill
#
# Bulk Modulus (GPa) = 35.72152 39.40927 37.56539
# Shear Modulus (GPa) = 29.26739 31.14389 30.20564
#
# Velocity S-wave (km/s) = 3.54748 3.65944 3.60389
# Velocity P-wave (km/s) = 5.66915 5.89922 5.78533
#
# Compressibility (1/GPa) = 0.02799433
#
# Stress axis : x y z
#
# Youngs Moduli (GPa) = 58.27056 94.39893 92.35521
#
# Poissons Ratio (x) = 0.03214 0.20936
# Poissons Ratio (y) = 0.01984 0.24813
# Poissons Ratio (z) = 0.13209 0.25362
#
# Static dielectric constant tensor:
#      x y z
#    x 2.047530 0.000000 0.000000 
#    y 0.000000 1.857410 0.000000 
#    z 0.000000 0.000000 1.881860 
# 
# From -- ./inp_files/7231.got.cif
#   From: 2010.05.17/outbox.cif.g08.bks.cpg/sg61_4_cif.got.tgz:7231.got - 2010.06.03 15:17:17.
