data_PCOD9460075
_publ_section_title
;
Structure prediction by ZEFSAII (Michael W. Deem and Ramdas Pophale) SiO2 
 PCOD9460075
Probable space group: P B C A
;
_chemical_formula_sum "Si O2"
_cell_formula_units_Z 56
_cell_length_a 8.756245
_cell_length_b 21.564240
_cell_length_c 11.754724
_cell_angle_alpha 90.000000
_cell_angle_beta 90.000000
_cell_angle_gamma 90.000000
_cell_volume 2219.547776
_symmetry_space_group_name_H-M "P B C A"
_symmetry_group_IT_number 61
_symmetry_cell_setting 'orthorhombic'
loop_
_space_group_symop_operation_xyz
x,y,z
1/2-x,-y,1/2+z
1/2+x,1/2-y,-z
-x,1/2+y,1/2-z
-x,-y,-z
1/2+x,y,1/2-z
1/2-x,1/2+y,z
x,1/2-y,1/2+z
loop_
_atom_site_type_symbol
_atom_site_label
_atom_site_fract_x
_atom_site_fract_y
_atom_site_fract_z
Si Si1 0.517494 0.483592 0.310940
Si Si2 0.143023 0.348587 0.224333
Si Si3 0.241093 0.829771 0.808247
Si Si4 0.546145 0.408765 0.862853
Si Si5 0.006029 0.687688 0.004351
Si Si6 0.194666 0.560429 0.997874
Si Si7 0.084196 0.719782 0.661461
O O1 0.590988 0.418612 0.276840
O O2 0.485522 0.529601 0.209021
O O3 0.361478 0.469934 0.380995
O O4 0.629932 0.517046 0.401281
O O5 0.319025 0.340045 0.197011
O O6 0.086303 0.307509 0.328882
O O7 0.065094 0.311692 0.119393
O O8 0.331106 0.867870 0.709373
O O9 0.373785 0.817042 0.900264
O O10 0.150410 0.773528 0.745677
O O11 0.111333 0.871647 0.866885
O O12 0.628465 0.426650 0.980049
O O13 0.106137 0.625713 0.008120
O O14 0.099678 0.748629 0.038810
#
# Coordination Sequence:
#
# PCOD9460075 Si02
#       7
#     8   8   8   8   8   8   8
#     4  10  22  41  65  93 142 166 215 271 349 400
#     4  11  28  41  65  97 137 180 209 276 348 402
#     4  12  21  39  68  97 124 166 234 278 319 382
#     4  12  20  39  72  98 123 173 227 282 327 392
#     4  11  23  45  67  96 131 171 227 284 324 390
#     4  10  21  41  68  93 124 176 215 274 335 389
#     4  12  23  44  64  96 133 174 227 268 335 404
#
# _framework density 25.230364999999999
#
# number of rings (size 3 to 8) (size 9 to 14) (size 15 to 20)
#    0.000    0.857    7.143    0.000    4.000    0.000 
#    0.000    3.571    0.000    0.000    0.000    0.000 
#    0.000    0.000    0.000    0.000    0.000    0.000 
#
# Total GULP energy -313725.479602 kJ/mol
# GULP energy per Si atom -5602.240707 kJ/mol
# Density = 2.517294 g / cm^3
# Si number density = 25.230365 Si / 1000 Ang^3
#
#
#
# Elastic Constant Matrix: (Units=GPa)
#
#
# Indices 1 2 3 4 5 6 
#
# 1 79.7102 22.5482 -4.9989 0.0000 0.0000 0.0000
# 2 22.5482 87.3230 25.3187 0.0000 0.0000 0.0000
# 3 -4.9989 25.3187 42.2648 0.0000 0.0000 0.0000
# 4 0.0000 0.0000 0.0000 33.2670 0.0000 0.0000
# 5 0.0000 0.0000 0.0000 0.0000 38.2531 0.0000
# 6 0.0000 0.0000 0.0000 0.0000 0.0000 31.8935
#
#
#
# Elastic Compliance Matrix: (Units=1/GPa)
#
#
# Indices 1 2 3 4 5 6 
#
# 1 0.014270 -0.005052 0.004714 0.000000 0.000000 0.000000
# 2 -0.005052 0.015647 -0.009971 0.000000 0.000000 0.000000
# 3 0.004714 -0.009971 0.030191 0.000000 0.000000 0.000000
# 4 0.000000 0.000000 0.000000 0.030060 0.000000 0.000000
# 5 0.000000 0.000000 0.000000 0.000000 0.026142 0.000000
# 6 0.000000 0.000000 0.000000 0.000000 0.000000 0.031354
#
#
# Mechanical properties :
#
#
# Convention : Reuss Voigt Hill
#
# Bulk Modulus (GPa) = 25.32217 32.78156 29.05186
# Shear Modulus (GPa) = 27.55664 31.77806 29.66735
#
# Velocity S-wave (km/s) = 3.30843 3.55282 3.43280
# Velocity P-wave (km/s) = 4.96513 5.46362 5.22032
#
# Compressibility (1/GPa) = 0.03949109
#
# Stress axis : x y z
#
# Youngs Moduli (GPa) = 70.07693 63.90957 33.12256
#
# Poissons Ratio (x) = 0.32284 -0.15614
# Poissons Ratio (y) = 0.35399 0.33026
# Poissons Ratio (z) = -0.33034 0.63723
#
# Static dielectric constant tensor:
#      x y z
#    x 2.098440 0.000000 0.000000 
#    y 0.000000 1.942000 0.000000 
#    z 0.000000 0.000000 1.982390 
# 
# From -- ./inp_files/7164.got.cif
#   From: 2010.05.17/outbox.cif.g08.bks.cpg/sg61_4_cif.got.tgz:7164.got - 2010.06.03 15:17:17.
