data_PCOD9460441
_publ_section_title
;
Structure prediction by ZEFSAII (Michael W. Deem and Ramdas Pophale) SiO2 
 PCOD9460441
Probable space group: P B C A
;
_chemical_formula_sum "Si O2"
_cell_formula_units_Z 64
_cell_length_a 30.632628
_cell_length_b 10.678946
_cell_length_c 9.208010
_cell_angle_alpha 90.000000
_cell_angle_beta 90.000000
_cell_angle_gamma 90.000000
_cell_volume 3012.162723
_symmetry_space_group_name_H-M "P B C A"
_symmetry_group_IT_number 61
_symmetry_cell_setting 'orthorhombic'
loop_
_space_group_symop_operation_xyz
x,y,z
1/2-x,-y,1/2+z
1/2+x,1/2-y,-z
-x,1/2+y,1/2-z
-x,-y,-z
1/2+x,y,1/2-z
1/2-x,1/2+y,z
x,1/2-y,1/2+z
loop_
_atom_site_type_symbol
_atom_site_label
_atom_site_fract_x
_atom_site_fract_y
_atom_site_fract_z
Si Si1 0.181142 0.771313 0.034150
Si Si2 0.280737 0.011547 0.334357
Si Si3 0.108037 0.155550 0.389940
Si Si4 0.006492 0.117618 0.325604
Si Si5 0.845661 0.660517 0.810300
Si Si6 0.231584 0.351670 0.615989
Si Si7 0.028675 0.658519 0.858358
Si Si8 0.870252 0.386475 0.200741
O O1 0.222067 0.717376 0.122085
O O2 0.148800 0.835448 0.148710
O O3 0.202205 0.872316 0.926420
O O4 0.157057 0.669486 0.933995
O O5 0.238082 0.042596 0.239093
O O6 0.319437 0.963353 0.231517
O O7 0.271912 0.906112 0.454680
O O8 0.056394 0.148456 0.368798
O O9 0.121857 0.143220 0.556400
O O10 0.128075 0.281597 0.324013
O O11 0.128668 0.036909 0.306184
O O12 0.977632 0.143356 0.468806
O O13 0.992011 0.213374 0.200910
O O14 0.006414 0.968418 0.292734
O O15 0.807985 0.759454 0.853559
O O16 0.079572 0.655566 0.818718
#
# Coordination Sequence:
#
# PCOD9460441 Si02
#       8
#     8   8   8   8   8   8   8   8
#     4  12  25  45  63  98 129 177 225 269 333 387
#     4  12  26  42  67  93 129 176 220 277 328 390
#     4  11  25  43  69  97 135 173 220 280 329 402
#     4  10  22  44  70 101 136 177 220 276 345 410
#     4  12  25  45  64  98 130 176 226 272 335 389
#     4  12  26  44  65  94 133 176 224 270 332 392
#     4  10  22  44  69 101 136 175 221 276 342 410
#     4  11  25  43  69  96 137 172 220 279 328 400
#
# _framework density 21.247191999999998
#
# number of rings (size 3 to 8) (size 9 to 14) (size 15 to 20)
#    0.000    0.750    2.500    4.500    5.250    0.500 
#    2.250    0.000    0.000    0.000    0.000    0.000 
#    0.000    0.000    0.000    0.000    0.000    0.000 
#
# Total GULP energy -358245.124881 kJ/mol
# GULP energy per Si atom -5597.580076 kJ/mol
# Density = 2.119883 g / cm^3
# Si number density = 21.247192 Si / 1000 Ang^3
#
#
#
# Elastic Constant Matrix: (Units=GPa)
#
#
# Indices 1 2 3 4 5 6 
#
# 1 52.2818 -11.5839 -2.6326 0.0000 0.0000 0.0000
# 2 -11.5839 34.7785 -11.9395 0.0000 0.0000 0.0000
# 3 -2.6326 -11.9395 59.8501 0.0000 0.0000 0.0000
# 4 0.0000 0.0000 0.0000 40.6552 0.0000 0.0000
# 5 0.0000 0.0000 0.0000 0.0000 29.8641 0.0000
# 6 0.0000 0.0000 0.0000 0.0000 0.0000 21.2246
#
#
#
# Elastic Compliance Matrix: (Units=1/GPa)
#
#
# Indices 1 2 3 4 5 6 
#
# 1 0.020991 0.007846 0.002488 0.000000 0.000000 0.000000
# 2 0.007846 0.033800 0.007088 0.000000 0.000000 0.000000
# 3 0.002488 0.007088 0.018232 0.000000 0.000000 0.000000
# 4 0.000000 0.000000 0.000000 0.024597 0.000000 0.000000
# 5 0.000000 0.000000 0.000000 0.000000 0.033485 0.000000
# 6 0.000000 0.000000 0.000000 0.000000 0.000000 0.047115
#
#
# Mechanical properties :
#
#
# Convention : Reuss Voigt Hill
#
# Bulk Modulus (GPa) = 9.27069 10.51094 9.89081
# Shear Modulus (GPa) = 27.88139 29.88653 28.88396
#
# Velocity S-wave (km/s) = 3.62641 3.75455 3.69104
# Velocity P-wave (km/s) = 4.68052 4.87373 4.77810
#
# Compressibility (1/GPa) = 0.10786681
#
# Stress axis : x y z
#
# Youngs Moduli (GPa) = 47.63993 29.58591 54.84916
#
# Poissons Ratio (x) = -0.23213 -0.13649
# Poissons Ratio (y) = -0.37377 -0.38876
# Poissons Ratio (z) = -0.11855 -0.20970
#
# Static dielectric constant tensor:
#      x y z
#    x 1.732100 0.000000 0.000000 
#    y 0.000000 1.786190 0.000000 
#    z 0.000000 0.000000 1.758470 
# 
# From -- ./inp_files/4652.got.cif
#   From: 2010.05.17/outbox.cif.g08.bks.cpg/sg61_3_cif.got.tgz:4652.got - 2010.06.03 15:17:17.
