data_PCOD9460187
_publ_section_title
;
Structure prediction by ZEFSAII (Michael W. Deem and Ramdas Pophale) SiO2 
 PCOD9460187
Probable space group: P B C A
;
_chemical_formula_sum "Si O2"
_cell_formula_units_Z 64
_cell_length_a 17.906857
_cell_length_b 12.472725
_cell_length_c 15.378373
_cell_angle_alpha 90.000000
_cell_angle_beta 90.000000
_cell_angle_gamma 90.000000
_cell_volume 3434.718134
_symmetry_space_group_name_H-M "P B C A"
_symmetry_group_IT_number 61
_symmetry_cell_setting 'orthorhombic'
loop_
_space_group_symop_operation_xyz
x,y,z
1/2-x,-y,1/2+z
1/2+x,1/2-y,-z
-x,1/2+y,1/2-z
-x,-y,-z
1/2+x,y,1/2-z
1/2-x,1/2+y,z
x,1/2-y,1/2+z
loop_
_atom_site_type_symbol
_atom_site_label
_atom_site_fract_x
_atom_site_fract_y
_atom_site_fract_z
Si Si1 0.937797 0.273684 0.330249
Si Si2 0.386348 0.992753 0.662316
Si Si3 0.204059 0.711914 0.067325
Si Si4 0.049468 0.595489 0.319128
Si Si5 0.694922 0.843880 0.603773
Si Si6 0.100200 0.358748 0.345181
Si Si7 0.300635 0.954643 0.490303
Si Si8 0.795569 0.796080 0.764221
O O1 0.901832 0.388385 0.299705
O O2 0.879476 0.226808 0.399406
O O3 0.948837 0.181111 0.258600
O O4 0.019426 0.307387 0.364190
O O5 0.465291 0.930978 0.653927
O O6 0.351444 0.006228 0.566147
O O7 0.333200 0.911971 0.716044
O O8 0.259582 0.744707 0.145706
O O9 0.216091 0.774211 0.978357
O O10 0.230847 0.594040 0.040907
O O11 0.105454 0.645684 0.389797
O O12 0.085515 0.477114 0.303972
O O13 0.729185 0.806647 0.694267
O O14 0.725554 0.960814 0.580742
O O15 0.147498 0.374454 0.433883
O O16 0.144720 0.283929 0.278190
#
# Coordination Sequence:
#
# PCOD9460187 Si02
#       8
#     8   8   8   8   8   8   8   8
#     4  11  21  39  61  91 122 158 206 255 300 365
#     4  10  22  38  62  90 120 161 204 254 305 365
#     4  11  23  37  61  91 121 159 203 248 304 358
#     4  10  22  37  60  89 119 160 204 250 305 356
#     4  11  22  38  60  91 124 158 202 249 305 363
#     4  10  22  38  63  86 125 157 202 250 307 365
#     4  10  22  39  60  91 120 162 203 253 306 361
#     4  11  22  40  62  89 127 159 199 254 308 369
#
# _framework density 18.633261999999998
#
# number of rings (size 3 to 8) (size 9 to 14) (size 15 to 20)
#    0.000    1.500    5.000    0.000    1.750    5.500 
#    0.000    0.000    0.000    0.750    0.000    0.000 
#    0.000    0.000    0.000    0.000    0.000    0.000 
#
# Total GULP energy -356580.215473 kJ/mol
# GULP energy per Si atom -5571.565867 kJ/mol
# Density = 1.859085 g / cm^3
# Si number density = 18.633262 Si / 1000 Ang^3
#
#
#
# Elastic Constant Matrix: (Units=GPa)
#
#
# Indices 1 2 3 4 5 6 
#
# 1 62.1728 27.1087 7.8212 0.0000 0.0000 0.0000
# 2 27.1087 57.9334 14.5780 0.0000 0.0000 0.0000
# 3 7.8212 14.5780 53.0563 0.0000 0.0000 0.0000
# 4 0.0000 0.0000 0.0000 34.4906 0.0000 0.0000
# 5 0.0000 0.0000 0.0000 0.0000 22.1713 0.0000
# 6 0.0000 0.0000 0.0000 0.0000 0.0000 28.2445
#
#
#
# Elastic Compliance Matrix: (Units=1/GPa)
#
#
# Indices 1 2 3 4 5 6 
#
# 1 0.020215 -0.009356 -0.000409 0.000000 0.000000 0.000000
# 2 -0.009356 0.022874 -0.004906 0.000000 0.000000 0.000000
# 3 -0.000409 -0.004906 0.020256 0.000000 0.000000 0.000000
# 4 0.000000 0.000000 0.000000 0.028993 0.000000 0.000000
# 5 0.000000 0.000000 0.000000 0.000000 0.045103 0.000000
# 6 0.000000 0.000000 0.000000 0.000000 0.000000 0.035405
#
#
# Mechanical properties :
#
#
# Convention : Reuss Voigt Hill
#
# Bulk Modulus (GPa) = 29.40939 30.24204 29.82572
# Shear Modulus (GPa) = 23.41662 25.22492 24.32077
#
# Velocity S-wave (km/s) = 3.54886 3.68334 3.61672
# Velocity P-wave (km/s) = 5.71052 5.86128 5.78639
#
# Compressibility (1/GPa) = 0.03400274
#
# Stress axis : x y z
#
# Youngs Moduli (GPa) = 49.46763 43.71829 49.36776
#
# Poissons Ratio (x) = 0.40904 0.02020
# Poissons Ratio (y) = 0.46284 0.24218
# Poissons Ratio (z) = 0.02024 0.21447
#
# Static dielectric constant tensor:
#      x y z
#    x 1.658210 0.000000 0.000000 
#    y 0.000000 1.710570 0.000000 
#    z 0.000000 0.000000 1.627230 
# 
# From -- ./inp_files/8204.got.cif
#   From: 2010.05.17/outbox.cif.g08.bks.cpg/sg61_5_cif.got.tgz:8204.got - 2010.06.03 15:17:17.
