data_PCOD9460971
_publ_section_title
;
Structure prediction by ZEFSAII (Michael W. Deem and Ramdas Pophale) SiO2 
 PCOD9460971
Probable space group: P B C A
;
_chemical_formula_sum "Si O2"
_cell_formula_units_Z 64
_cell_length_a 13.666432
_cell_length_b 20.745309
_cell_length_c 9.417462
_cell_angle_alpha 90.000000
_cell_angle_beta 90.000000
_cell_angle_gamma 90.000000
_cell_volume 2669.985662
_symmetry_space_group_name_H-M "P B C A"
_symmetry_group_IT_number 61
_symmetry_cell_setting 'orthorhombic'
loop_
_space_group_symop_operation_xyz
x,y,z
1/2-x,-y,1/2+z
1/2+x,1/2-y,-z
-x,1/2+y,1/2-z
-x,-y,-z
1/2+x,y,1/2-z
1/2-x,1/2+y,z
x,1/2-y,1/2+z
loop_
_atom_site_type_symbol
_atom_site_label
_atom_site_fract_x
_atom_site_fract_y
_atom_site_fract_z
Si Si1 0.536711 0.821506 0.641333
Si Si2 0.170163 0.407456 0.314976
Si Si3 0.821427 0.589821 0.137590
Si Si4 0.185428 0.173206 0.095808
Si Si5 0.890248 0.455143 0.585200
Si Si6 0.613971 0.765322 0.933404
Si Si7 0.475955 0.634211 0.595172
Si Si8 0.381366 0.045133 0.735786
O O1 0.424412 0.802666 0.616235
O O2 0.551094 0.898059 0.663661
O O3 0.579760 0.783108 0.775304
O O4 0.590849 0.804835 0.493846
O O5 0.182664 0.380438 0.473234
O O6 0.121964 0.478569 0.328043
O O7 0.100280 0.359061 0.226786
O O8 0.277608 0.417142 0.248466
O O9 0.789495 0.642065 0.253392
O O10 0.722234 0.567272 0.064918
O O11 0.860766 0.527567 0.218690
O O12 0.904414 0.615286 0.033299
O O13 0.270846 0.221921 0.055021
O O14 0.924911 0.458820 0.422687
O O15 0.549043 0.811023 0.037186
O O16 0.547108 0.578230 0.651353
#
# Coordination Sequence:
#
# PCOD9460971 Si02
#       8
#     8   8   8   8   8   8   8   8
#     4  12  30  49  77 104 145 199 247 306 366 441
#     4  11  25  42  77 114 147 199 237 306 378 451
#     4  11  23  42  73 110 151 193 238 299 381 442
#     4  12  25  51  77 108 151 190 243 310 377 440
#     4  11  24  45  72 113 155 190 245 302 377 447
#     4  12  30  52  74 110 143 195 255 307 366 442
#     4  12  25  45  73 108 148 195 252 305 366 448
#     4  11  23  40  70 112 155 189 243 299 366 456
#
# _framework density 23.970167
#
# number of rings (size 3 to 8) (size 9 to 14) (size 15 to 20)
#    0.000    0.500    6.250    1.125    5.250    4.000 
#    0.000    0.000    0.000    0.000    0.000    0.000 
#    0.000    0.000    0.000    0.000    0.000    0.000 
#
# Total GULP energy -358327.008831 kJ/mol
# GULP energy per Si atom -5598.859513 kJ/mol
# Density = 2.391561 g / cm^3
# Si number density = 23.970167 Si / 1000 Ang^3
#
#
#
# Elastic Constant Matrix: (Units=GPa)
#
#
# Indices 1 2 3 4 5 6 
#
# 1 128.9957 21.6820 12.5066 0.0000 0.0000 0.0000
# 2 21.6820 18.7236 9.2195 0.0000 0.0000 0.0000
# 3 12.5066 9.2195 104.8649 0.0000 0.0000 0.0000
# 4 0.0000 0.0000 0.0000 35.0655 0.0000 0.0000
# 5 0.0000 0.0000 0.0000 0.0000 37.6028 0.0000
# 6 0.0000 0.0000 0.0000 0.0000 0.0000 13.9537
#
#
#
# Elastic Compliance Matrix: (Units=1/GPa)
#
#
# Indices 1 2 3 4 5 6 
#
# 1 0.009629 -0.011064 -0.000176 0.000000 0.000000 0.000000
# 2 -0.011064 0.068538 -0.004706 0.000000 0.000000 0.000000
# 3 -0.000176 -0.004706 0.009971 0.000000 0.000000 0.000000
# 4 0.000000 0.000000 0.000000 0.028518 0.000000 0.000000
# 5 0.000000 0.000000 0.000000 0.000000 0.026594 0.000000
# 6 0.000000 0.000000 0.000000 0.000000 0.000000 0.071665
#
#
# Mechanical properties :
#
#
# Convention : Reuss Voigt Hill
#
# Bulk Modulus (GPa) = 17.77897 37.71116 27.74506
# Shear Modulus (GPa) = 18.82851 31.26947 25.04899
#
# Velocity S-wave (km/s) = 2.80571 3.61573 3.23616
# Velocity P-wave (km/s) = 4.23430 5.76177 5.05605
#
# Compressibility (1/GPa) = 0.05624624
#
# Stress axis : x y z
#
# Youngs Moduli (GPa) = 103.85448 14.59047 100.29295
#
# Poissons Ratio (x) = 0.16143 0.01762
# Poissons Ratio (y) = 1.14902 0.47200
# Poissons Ratio (z) = 0.01824 0.06867
#
# Static dielectric constant tensor:
#      x y z
#    x 1.911580 0.000000 0.000000 
#    y 0.000000 1.917490 0.000000 
#    z 0.000000 0.000000 1.881290 
# 
# From -- ./inp_files/3213.got.cif
#   From: 2010.05.17/outbox.cif.g08.bks.cpg/sg61_2_cif.got.tgz:3213.got - 2010.06.03 15:17:17.
