data_PCOD9460956
_publ_section_title
;
Structure prediction by ZEFSAII (Michael W. Deem and Ramdas Pophale) SiO2 
 PCOD9460956
Probable space group: P B C A
;
_chemical_formula_sum "Si O2"
_cell_formula_units_Z 56
_cell_length_a 15.097180
_cell_length_b 10.892166
_cell_length_c 14.851239
_cell_angle_alpha 90.000000
_cell_angle_beta 90.000000
_cell_angle_gamma 90.000000
_cell_volume 2442.152454
_symmetry_space_group_name_H-M "P B C A"
_symmetry_group_IT_number 61
_symmetry_cell_setting 'orthorhombic'
loop_
_space_group_symop_operation_xyz
x,y,z
1/2-x,-y,1/2+z
1/2+x,1/2-y,-z
-x,1/2+y,1/2-z
-x,-y,-z
1/2+x,y,1/2-z
1/2-x,1/2+y,z
x,1/2-y,1/2+z
loop_
_atom_site_type_symbol
_atom_site_label
_atom_site_fract_x
_atom_site_fract_y
_atom_site_fract_z
Si Si1 0.662266 0.440560 0.467142
Si Si2 0.037891 0.581687 0.304670
Si Si3 0.864784 0.760148 0.810339
Si Si4 0.605320 0.254173 0.602030
Si Si5 0.177461 0.843130 0.654901
Si Si6 0.145072 0.494184 0.478244
Si Si7 0.430320 0.382099 0.144608
O O1 0.646906 0.353510 0.379399
O O2 0.609052 0.382871 0.550539
O O3 0.650267 0.580240 0.433502
O O4 0.762241 0.440070 0.505136
O O5 0.113421 0.606594 0.232369
O O6 0.092533 0.549726 0.394038
O O7 0.964999 0.687761 0.317807
O O8 0.977504 0.462828 0.279041
O O9 0.855041 0.741539 0.702355
O O10 0.783289 0.853511 0.832532
O O11 0.503882 0.213241 0.611174
O O12 0.652602 0.150763 0.540791
O O13 0.155933 0.698167 0.659767
O O14 0.088307 0.521819 0.566103
#
# Coordination Sequence:
#
# PCOD9460956 Si02
#       7
#     8   8   8   8   8   8   8
#     4  12  24  43  72 106 147 184 242 303 360 436
#     4  11  24  47  71  99 141 193 242 296 367 435
#     4  12  25  47  74 104 146 193 241 305 361 434
#     4  11  24  44  71 104 137 187 240 298 362 432
#     4  12  26  43  70 105 141 187 244 295 363 430
#     4  11  23  44  73 100 138 191 239 293 368 432
#     4  11  22  46  66  97 137 180 240 288 361 429
#
# _framework density 22.930591
#
# number of rings (size 3 to 8) (size 9 to 14) (size 15 to 20)
#    0.000    0.571    2.857    7.714    0.000    0.571 
#    0.000    0.000    0.000    0.000    0.000    0.000 
#    0.000    0.000    0.000    0.000    0.000    0.000 
#
# Total GULP energy -312730.898635 kJ/mol
# GULP energy per Si atom -5584.480333 kJ/mol
# Density = 2.287840 g / cm^3
# Si number density = 22.930591 Si / 1000 Ang^3
#
#
#
# Elastic Constant Matrix: (Units=GPa)
#
#
# Indices 1 2 3 4 5 6 
#
# 1 81.1642 4.5785 4.2665 0.0000 0.0000 0.0000
# 2 4.5785 54.9671 23.4991 0.0000 0.0000 0.0000
# 3 4.2665 23.4991 81.9965 0.0000 0.0000 0.0000
# 4 0.0000 0.0000 0.0000 42.5177 0.0000 0.0000
# 5 0.0000 0.0000 0.0000 0.0000 25.8909 0.0000
# 6 0.0000 0.0000 0.0000 0.0000 0.0000 41.7331
#
#
#
# Elastic Compliance Matrix: (Units=1/GPa)
#
#
# Indices 1 2 3 4 5 6 
#
# 1 0.012390 -0.000862 -0.000398 0.000000 0.000000 0.000000
# 2 -0.000862 0.020793 -0.005914 0.000000 0.000000 0.000000
# 3 -0.000398 -0.005914 0.013911 0.000000 0.000000 0.000000
# 4 0.000000 0.000000 0.000000 0.023520 0.000000 0.000000
# 5 0.000000 0.000000 0.000000 0.000000 0.038624 0.000000
# 6 0.000000 0.000000 0.000000 0.000000 0.000000 0.023962
#
#
# Mechanical properties :
#
#
# Convention : Reuss Voigt Hill
#
# Bulk Modulus (GPa) = 30.53738 31.42398 30.98068
# Shear Modulus (GPa) = 31.55321 34.41392 32.98356
#
# Velocity S-wave (km/s) = 3.71351 3.87820 3.79675
# Velocity P-wave (km/s) = 5.63322 5.81271 5.72367
#
# Compressibility (1/GPa) = 0.03274675
#
# Stress axis : x y z
#
# Youngs Moduli (GPa) = 80.70869 48.09347 71.88439
#
# Poissons Ratio (x) = 0.04146 0.02858
# Poissons Ratio (y) = 0.06958 0.42513
# Poissons Ratio (z) = 0.03209 0.28443
#
# Static dielectric constant tensor:
#      x y z
#    x 1.872640 0.000000 0.000000 
#    y 0.000000 1.982150 0.000000 
#    z 0.000000 0.000000 1.872680 
# 
# From -- ./inp_files/7852.got.cif
#   From: 2010.05.17/outbox.cif.g08.bks.cpg/sg61_4_cif.got.tgz:7852.got - 2010.06.03 15:17:17.
