data_PCOD9460356
_publ_section_title
;
Structure prediction by ZEFSAII (Michael W. Deem and Ramdas Pophale) SiO2 
 PCOD9460356
Probable space group: P B C A
;
_chemical_formula_sum "Si O2"
_cell_formula_units_Z 60
_cell_length_a 15.209481
_cell_length_b 9.846305
_cell_length_c 16.054039
_cell_angle_alpha 90.000000
_cell_angle_beta 90.000000
_cell_angle_gamma 90.000000
_cell_volume 2404.207750
_symmetry_space_group_name_H-M "P B C A"
_symmetry_group_IT_number 61
_symmetry_cell_setting 'orthorhombic'
loop_
_space_group_symop_operation_xyz
x,y,z
1/2-x,-y,1/2+z
1/2+x,1/2-y,-z
-x,1/2+y,1/2-z
-x,-y,-z
1/2+x,y,1/2-z
1/2-x,1/2+y,z
x,1/2-y,1/2+z
loop_
_atom_site_type_symbol
_atom_site_label
_atom_site_fract_x
_atom_site_fract_y
_atom_site_fract_z
Si Si1 0.911056 0.710271 0.395513
Si Si2 0.124625 0.585234 0.562613
Si Si3 0.733485 0.697161 0.804940
Si Si4 0.176422 0.407034 0.359719
Si Si5 0.500000 0.000000 0.000000
Si Si6 0.666391 0.662756 0.544449
Si Si7 0.088649 0.680678 0.305341
Si Si8 0.538260 0.282584 0.572755
O O1 0.905889 0.569693 0.448927
O O2 0.815598 0.744183 0.358613
O O3 0.947638 0.812384 0.470417
O O4 0.983059 0.696159 0.320950
O O5 0.186329 0.581342 0.642192
O O6 0.174646 0.690536 0.501152
O O7 0.036612 0.671657 0.581052
O O8 0.775806 0.628622 0.725069
O O9 0.651801 0.795488 0.775483
O O10 0.246260 0.419652 0.434339
O O11 0.114894 0.535265 0.344014
O O12 0.122560 0.274525 0.384541
O O13 0.598527 0.926380 0.994660
O O14 0.521076 0.064067 0.096135
O O15 0.625164 0.706642 0.631805
#
# Coordination Sequence:
#
# PCOD9460356 Si02
#       8
#     8   8   8   8   4   8   8   8
#     4  12  23  47  74  98 142 183 237 293 346 422
#     4  11  22  46  67 105 131 179 234 291 341 415
#     4  11  28  43  64 109 144 186 229 284 360 417
#     4  11  24  45  69 102 140 189 230 285 349 426
#     4  10  22  42  64 108 132 168 222 296 340 406
#     4  10  23  42  71 101 140 175 234 292 345 406
#     4  11  23  46  70 101 139 187 237 283 350 421
#     4  11  23  44  72 102 127 183 230 289 347 402
#
# _framework density 24.956244999999999
#
# number of rings (size 3 to 8) (size 9 to 14) (size 15 to 20)
#    0.000    1.067    4.000    2.800    5.600    0.000 
#   14.400    0.000    0.000    0.000    0.000    0.000 
#    0.000    0.000    0.000    0.000    0.000    0.000 
#
# Total GULP energy -334105.623926 kJ/mol
# GULP energy per Si atom -5568.427065 kJ/mol
# Density = 2.489944 g / cm^3
# Si number density = 24.956245 Si / 1000 Ang^3
#
#
#
# Elastic Constant Matrix: (Units=GPa)
#
#
# Indices 1 2 3 4 5 6 
#
# 1 107.8854 23.5847 50.1300 0.0000 0.0000 0.0000
# 2 23.5847 83.2958 -7.6218 0.0000 0.0000 0.0000
# 3 50.1300 -7.6218 53.7977 0.0000 0.0000 0.0000
# 4 0.0000 0.0000 0.0000 24.8746 0.0000 0.0000
# 5 0.0000 0.0000 0.0000 0.0000 52.2503 0.0000
# 6 0.0000 0.0000 0.0000 0.0000 0.0000 25.5101
#
#
#
# Elastic Compliance Matrix: (Units=1/GPa)
#
#
# Indices 1 2 3 4 5 6 
#
# 1 0.020113 -0.007507 -0.019805 0.000000 0.000000 0.000000
# 2 -0.007507 0.014965 0.009115 0.000000 0.000000 0.000000
# 3 -0.019805 0.009115 0.038335 0.000000 0.000000 0.000000
# 4 0.000000 0.000000 0.000000 0.040202 0.000000 0.000000
# 5 0.000000 0.000000 0.000000 0.000000 0.019139 0.000000
# 6 0.000000 0.000000 0.000000 0.000000 0.000000 0.039200
#
#
# Mechanical properties :
#
#
# Convention : Reuss Voigt Hill
#
# Bulk Modulus (GPa) = 27.01329 41.90723 34.46026
# Shear Modulus (GPa) = 22.65654 32.45271 27.55463
#
# Velocity S-wave (km/s) = 3.01632 3.61000 3.32643
# Velocity P-wave (km/s) = 4.79361 5.84849 5.34713
#
# Compressibility (1/GPa) = 0.03701882
#
# Stress axis : x y z
#
# Youngs Moduli (GPa) = 49.71917 66.82223 26.08603
#
# Poissons Ratio (x) = 0.50164 0.51664
# Poissons Ratio (y) = 0.37325 -0.23779
# Poissons Ratio (z) = 0.98470 -0.60912
#
# Static dielectric constant tensor:
#      x y z
#    x 1.973060 0.000000 0.000000 
#    y 0.000000 0.516080 0.000000 
#    z 0.000000 0.000000 2.045620 
# 
# From -- ./inp_files/9495.got.cif
#   From: 2010.05.17/outbox.cif.g08.bks.cpg/sg61_5_cif.got.tgz:9495.got - 2010.06.03 15:17:17.
