data_PCOD9460332
_publ_section_title
;
Structure prediction by ZEFSAII (Michael W. Deem and Ramdas Pophale) SiO2 
 PCOD9460332
Probable space group: P B C A
;
_chemical_formula_sum "Si O2"
_cell_formula_units_Z 64
_cell_length_a 10.396830
_cell_length_b 18.240344
_cell_length_c 16.771509
_cell_angle_alpha 90.000000
_cell_angle_beta 90.000000
_cell_angle_gamma 90.000000
_cell_volume 3180.578413
_symmetry_space_group_name_H-M "P B C A"
_symmetry_group_IT_number 61
_symmetry_cell_setting 'orthorhombic'
loop_
_space_group_symop_operation_xyz
x,y,z
1/2-x,-y,1/2+z
1/2+x,1/2-y,-z
-x,1/2+y,1/2-z
-x,-y,-z
1/2+x,y,1/2-z
1/2-x,1/2+y,z
x,1/2-y,1/2+z
loop_
_atom_site_type_symbol
_atom_site_label
_atom_site_fract_x
_atom_site_fract_y
_atom_site_fract_z
Si Si1 0.538361 0.855403 0.153907
Si Si2 0.195819 0.334858 0.437024
Si Si3 0.553445 0.795258 0.333545
Si Si4 0.185189 0.242794 0.594210
Si Si5 0.591625 0.490793 0.425684
Si Si6 0.656619 0.107144 0.303871
Si Si7 0.071040 0.621310 0.189664
Si Si8 0.637743 0.020949 0.462712
O O1 0.681523 0.843209 0.120215
O O2 0.539479 0.832603 0.246873
O O3 0.444564 0.802757 0.103197
O O4 0.475867 0.934956 0.136041
O O5 0.211455 0.272652 0.505369
O O6 0.182988 0.410738 0.484128
O O7 0.064948 0.320110 0.388313
O O8 0.694505 0.804393 0.372778
O O9 0.550312 0.706939 0.325497
O O10 0.162036 0.314104 0.650995
O O11 0.500000 0.500000 0.500000
O O12 0.595506 0.572058 0.387578
O O13 0.735623 0.469170 0.455033
O O14 0.796975 0.104688 0.263860
O O15 0.551526 0.097645 0.237588
O O16 0.623786 0.048726 0.372109
O O17 0.500000 0.000000 0.500000
#
# Coordination Sequence:
#
# PCOD9460332 Si02
#       8
#     8   8   8   8   8   8   8   8
#     4  12  24  43  68  98 140 176 233 288 346 415
#     4  11  24  42  68 100 131 177 233 284 338 417
#     4  11  24  42  68 100 137 175 230 290 341 403
#     4  10  22  41  67  97 133 173 225 284 346 402
#     4  11  25  45  65  97 135 185 228 280 353 425
#     4   9  20  40  64  92 124 168 217 270 337 402
#     4  10  22  42  64  91 135 171 217 281 340 412
#     4  10  23  44  65  91 132 169 222 278 333 419
#
# _framework density 20.122126000000002
#
# number of rings (size 3 to 8) (size 9 to 14) (size 15 to 20)
#    0.000    1.500    2.500    2.250    5.250    2.000 
#    6.750    0.000    0.000    0.000    0.000    0.000 
#    0.000    0.000    0.000    0.000    0.000    0.000 
#
# Total GULP energy -356991.965985 kJ/mol
# GULP energy per Si atom -5577.999469 kJ/mol
# Density = 2.007633 g / cm^3
# Si number density = 20.122126 Si / 1000 Ang^3
#
#
#
# Elastic Constant Matrix: (Units=GPa)
#
#
# Indices 1 2 3 4 5 6 
#
# 1 137.0426 17.4324 37.9113 0.0000 0.0000 0.0000
# 2 17.4324 51.5820 24.5472 0.0000 0.0000 0.0000
# 3 37.9113 24.5472 82.5698 0.0000 0.0000 0.0000
# 4 0.0000 0.0000 0.0000 11.3903 0.0000 0.0000
# 5 0.0000 0.0000 0.0000 0.0000 44.4533 0.0000
# 6 0.0000 0.0000 0.0000 0.0000 0.0000 29.5043
#
#
#
# Elastic Compliance Matrix: (Units=1/GPa)
#
#
# Indices 1 2 3 4 5 6 
#
# 1 0.008419 -0.001171 -0.003517 0.000000 0.000000 0.000000
# 2 -0.001171 0.022744 -0.006224 0.000000 0.000000 0.000000
# 3 -0.003517 -0.006224 0.015576 0.000000 0.000000 0.000000
# 4 0.000000 0.000000 0.000000 0.087794 0.000000 0.000000
# 5 0.000000 0.000000 0.000000 0.000000 0.022496 0.000000
# 6 0.000000 0.000000 0.000000 0.000000 0.000000 0.033893
#
#
# Mechanical properties :
#
#
# Convention : Reuss Voigt Hill
#
# Bulk Modulus (GPa) = 40.13726 47.88624 44.01175
# Shear Modulus (GPa) = 22.61912 29.82316 26.22114
#
# Velocity S-wave (km/s) = 3.35639 3.85399 3.61376
# Velocity P-wave (km/s) = 5.91697 6.60710 6.27154
#
# Compressibility (1/GPa) = 0.02491450
#
# Stress axis : x y z
#
# Youngs Moduli (GPa) = 118.77852 43.96700 64.20058
#
# Poissons Ratio (x) = 0.05150 0.22581
# Poissons Ratio (y) = 0.13914 0.39957
# Poissons Ratio (z) = 0.41778 0.27364
#
# Static dielectric constant tensor:
#      x y z
#    x 1.750330 0.000000 0.000000 
#    y 0.000000 1.756910 0.000000 
#    z 0.000000 0.000000 1.735640 
# 
# From -- ./inp_files/9048.got.cif
#   From: 2010.05.17/outbox.cif.g08.bks.cpg/sg61_5_cif.got.tgz:9048.got - 2010.06.03 15:17:17.
