data_PCOD9460978
_publ_section_title
;
Structure prediction by ZEFSAII (Michael W. Deem and Ramdas Pophale) SiO2 
 PCOD9460978
Probable space group: P B C A
;
_chemical_formula_sum "Si O2"
_cell_formula_units_Z 64
_cell_length_a 22.377211
_cell_length_b 14.750036
_cell_length_c 8.483243
_cell_angle_alpha 90.000000
_cell_angle_beta 90.000000
_cell_angle_gamma 90.000000
_cell_volume 2800.018783
_symmetry_space_group_name_H-M "P B C A"
_symmetry_group_IT_number 61
_symmetry_cell_setting 'orthorhombic'
loop_
_space_group_symop_operation_xyz
x,y,z
1/2-x,-y,1/2+z
1/2+x,1/2-y,-z
-x,1/2+y,1/2-z
-x,-y,-z
1/2+x,y,1/2-z
1/2-x,1/2+y,z
x,1/2-y,1/2+z
loop_
_atom_site_type_symbol
_atom_site_label
_atom_site_fract_x
_atom_site_fract_y
_atom_site_fract_z
Si Si1 0.500000 0.522915 0.248196
Si Si2 0.369372 0.523757 0.669586
Si Si3 0.815322 0.861357 0.823539
Si Si4 0.372154 0.796141 0.361993
Si Si5 0.000000 0.845755 0.023365
Si Si6 0.684678 0.861357 0.676461
Si Si7 0.869372 0.476243 0.169586
Si Si8 0.372154 0.203859 0.638007
O O1 0.562398 0.511087 0.334725
O O2 0.500000 0.437484 0.127799
O O3 0.437602 0.511087 0.334725
O O4 0.500000 0.617115 0.153788
O O5 0.368739 0.627681 0.724380
O O6 0.336876 0.464298 0.802967
O O7 0.341499 0.500000 0.500000
O O8 0.856530 0.799530 0.711633
O O9 0.750000 0.851711 0.750000
O O10 0.836876 0.964298 0.802967
O O11 0.826454 0.826010 0.999994
O O12 0.438618 0.796311 0.435219
O O13 0.061382 0.796311 0.064781
O O14 0.643470 0.799530 0.788367
O O15 0.673546 0.826010 0.500006
O O16 0.868739 0.372319 0.224380
#
# Coordination Sequence:
#
# PCOD9460978 Si02
#       8
#     8   8   8   8   8   8   8   8
#     4   9  17  37  65  96 129 163 212 271 345 397
#     4  11  23  41  68 100 131 174 221 277 344 409
#     4  12  26  43  65  94 133 182 227 277 329 401
#     4  11  24  44  67  98 133 173 224 282 339 401
#     4   9  18  37  69  96 125 170 210 276 348 399
#     4  12  26  43  65  94 133 182 227 277 329 401
#     4  11  23  41  68 100 131 174 221 277 344 409
#     4  11  24  44  67  98 133 173 224 282 339 401
#
# _framework density 22.856992000000002
#
# number of rings (size 3 to 8) (size 9 to 14) (size 15 to 20)
#    0.000    1.250    2.500    3.375    0.000    5.000 
#    0.000    2.500    0.000    0.000    0.000    0.000 
#    0.000    0.000    0.000    0.000    0.000    0.000 
#
# Total GULP energy -358104.756501 kJ/mol
# GULP energy per Si atom -5595.386820 kJ/mol
# Density = 2.280497 g / cm^3
# Si number density = 22.856992 Si / 1000 Ang^3
#
#
#
# Elastic Constant Matrix: (Units=GPa)
#
#
# Indices 1 2 3 4 5 6 
#
# 1 99.7063 23.6514 11.5393 0.0000 0.0000 0.0000
# 2 23.6514 60.3743 -12.6843 0.0000 0.0000 0.0000
# 3 11.5393 -12.6843 82.7521 0.0000 0.0000 0.0000
# 4 0.0000 0.0000 0.0000 30.0783 0.0000 0.0000
# 5 0.0000 0.0000 0.0000 0.0000 25.3517 0.0000
# 6 0.0000 0.0000 0.0000 0.0000 0.0000 -74.8391
#
#
#
# Elastic Compliance Matrix: (Units=1/GPa)
#
#
# Indices 1 2 3 4 5 6 
#
# 1 0.011489 -0.004998 -0.002368 0.000000 0.000000 0.000000
# 2 -0.004998 0.019289 0.003654 0.000000 0.000000 0.000000
# 3 -0.002368 0.003654 0.012975 0.000000 0.000000 0.000000
# 4 0.000000 0.000000 0.000000 0.033247 0.000000 0.000000
# 5 0.000000 0.000000 0.000000 0.000000 0.039445 0.000000
# 6 0.000000 0.000000 0.000000 0.000000 0.000000 -0.013362
#
#
# Mechanical properties :
#
#
# Convention : Reuss Voigt Hill
#
# Bulk Modulus (GPa) = 27.52792 31.98284 29.75538
# Shear Modulus (GPa) = 40.77725 10.80661 25.79193
#
# Velocity S-wave (km/s) = 4.22834 2.17674 3.36282
# Velocity P-wave (km/s) = 5.99235 4.51005 5.30324
#
# Compressibility (1/GPa) = 0.03632675
#
# Stress axis : x y z
#
# Youngs Moduli (GPa) = 87.03807 51.84285 77.07393
#
# Poissons Ratio (x) = 0.25913 0.18253
# Poissons Ratio (y) = 0.43505 -0.28160
# Poissons Ratio (z) = 0.20613 -0.18942
#
# Static dielectric constant tensor:
#      x y z
#    x 1.849850 0.000000 0.000000 
#    y 0.000000 1.780260 0.000000 
#    z 0.000000 0.000000 1.858930 
# 
# From -- ./inp_files/4338.got.cif
#   From: 2010.05.17/outbox.cif.g08.bks.cpg/sg61_3_cif.got.tgz:4338.got - 2010.06.03 15:17:17.
