data_PCOD9460228
_publ_section_title
;
Structure prediction by ZEFSAII (Michael W. Deem and Ramdas Pophale) SiO2 
 PCOD9460228
Probable space group: P B C A
;
_chemical_formula_sum "Si O2"
_cell_formula_units_Z 56
_cell_length_a 14.413852
_cell_length_b 13.551072
_cell_length_c 14.998708
_cell_angle_alpha 90.000000
_cell_angle_beta 90.000000
_cell_angle_gamma 90.000000
_cell_volume 2929.594836
_symmetry_space_group_name_H-M "P B C A"
_symmetry_group_IT_number 61
_symmetry_cell_setting 'orthorhombic'
loop_
_space_group_symop_operation_xyz
x,y,z
1/2-x,-y,1/2+z
1/2+x,1/2-y,-z
-x,1/2+y,1/2-z
-x,-y,-z
1/2+x,y,1/2-z
1/2-x,1/2+y,z
x,1/2-y,1/2+z
loop_
_atom_site_type_symbol
_atom_site_label
_atom_site_fract_x
_atom_site_fract_y
_atom_site_fract_z
Si Si1 0.765833 0.852396 0.250250
Si Si2 0.690826 0.774932 0.437298
Si Si3 0.994385 0.727740 0.006904
Si Si4 0.371318 0.436047 0.542261
Si Si5 0.053539 0.108497 0.660060
Si Si6 0.814751 0.789215 0.603819
Si Si7 0.362140 0.000423 0.839074
O O1 0.719323 0.816785 0.342070
O O2 0.876554 0.858073 0.263709
O O3 0.752806 0.777075 0.168506
O O4 0.718268 0.953412 0.221002
O O5 0.584752 0.791426 0.469844
O O6 0.695709 0.654461 0.431273
O O7 0.755030 0.815056 0.516252
O O8 0.905132 0.761725 0.060489
O O9 0.028001 0.618670 0.040723
O O10 0.972470 0.701126 0.904081
O O11 0.384094 0.530185 0.603851
O O12 0.348884 0.465911 0.441767
O O13 0.960270 0.050746 0.687704
O O14 0.851658 0.883248 0.658237
#
# Coordination Sequence:
#
# PCOD9460228 Si02
#       7
#     8   8   8   8   8   8   8
#     4  12  26  35  60  98 124 156 209 264 303 366
#     4  10  22  39  60  91 120 154 210 255 302 356
#     4   9  18  35  64  82 114 162 199 247 300 369
#     4   9  17  37  62  82 110 157 205 241 295 364
#     4  11  19  39  63  89 115 167 215 244 306 386
#     4  12  21  42  62  89 125 163 200 252 320 361
#     4  11  21  39  60  88 119 162 210 249 302 374
#
# _framework density 19.115271
#
# number of rings (size 3 to 8) (size 9 to 14) (size 15 to 20)
#    0.857    0.571    5.714    0.857    4.000    0.000 
#    0.000    0.000    0.000    0.857    0.000    0.000 
#    0.000    0.000    0.000    0.000    0.000    0.000 
#
# Total GULP energy -311843.524204 kJ/mol
# GULP energy per Si atom -5568.634361 kJ/mol
# Density = 1.907176 g / cm^3
# Si number density = 19.115271 Si / 1000 Ang^3
#
#
#
# Elastic Constant Matrix: (Units=GPa)
#
#
# Indices 1 2 3 4 5 6 
#
# 1 93.8322 5.5990 20.1296 0.0000 0.0000 0.0000
# 2 5.5990 17.4498 -4.8979 0.0000 0.0000 0.0000
# 3 20.1296 -4.8979 48.6886 0.0000 0.0000 0.0000
# 4 0.0000 0.0000 0.0000 18.4106 0.0000 0.0000
# 5 0.0000 0.0000 0.0000 0.0000 29.2226 0.0000
# 6 0.0000 0.0000 0.0000 0.0000 0.0000 25.6191
#
#
#
# Elastic Compliance Matrix: (Units=1/GPa)
#
#
# Indices 1 2 3 4 5 6 
#
# 1 0.012183 -0.005477 -0.005588 0.000000 0.000000 0.000000
# 2 -0.005477 0.061435 0.008445 0.000000 0.000000 0.000000
# 3 -0.005588 0.008445 0.023698 0.000000 0.000000 0.000000
# 4 0.000000 0.000000 0.000000 0.054317 0.000000 0.000000
# 5 0.000000 0.000000 0.000000 0.000000 0.034220 0.000000
# 6 0.000000 0.000000 0.000000 0.000000 0.000000 0.039033
#
#
# Mechanical properties :
#
#
# Convention : Reuss Voigt Hill
#
# Bulk Modulus (GPa) = 10.86068 22.40356 16.63212
# Shear Modulus (GPa) = 19.17034 23.92645 21.54839
#
# Velocity S-wave (km/s) = 3.17027 3.54177 3.36115
# Velocity P-wave (km/s) = 4.36976 5.33584 4.87678
#
# Compressibility (1/GPa) = 0.09207526
#
# Stress axis : x y z
#
# Youngs Moduli (GPa) = 82.08218 16.27733 42.19690
#
# Poissons Ratio (x) = 0.08916 0.23579
# Poissons Ratio (y) = 0.44960 -0.35634
# Poissons Ratio (z) = 0.45866 -0.13746
#
# Static dielectric constant tensor:
#      x y z
#    x 1.697790 0.000000 0.000000 
#    y 0.000000 1.653530 0.000000 
#    z 0.000000 0.000000 1.659450 
# 
# From -- ./inp_files/7908.got.cif
#   From: 2010.05.17/outbox.cif.g08.bks.cpg/sg61_4_cif.got.tgz:7908.got - 2010.06.03 15:17:17.
