data_PCOD9460029
_publ_section_title
;
Structure prediction by ZEFSAII (Michael W. Deem and Ramdas Pophale) SiO2 
 PCOD9460029
Probable space group: P B C A
;
_chemical_formula_sum "Si O2"
_cell_formula_units_Z 48
_cell_length_a 15.650395
_cell_length_b 8.219858
_cell_length_c 14.452735
_cell_angle_alpha 90.000000
_cell_angle_beta 90.000000
_cell_angle_gamma 90.000000
_cell_volume 1859.257996
_symmetry_space_group_name_H-M "P B C A"
_symmetry_group_IT_number 61
_symmetry_cell_setting 'orthorhombic'
loop_
_space_group_symop_operation_xyz
x,y,z
1/2-x,-y,1/2+z
1/2+x,1/2-y,-z
-x,1/2+y,1/2-z
-x,-y,-z
1/2+x,y,1/2-z
1/2-x,1/2+y,z
x,1/2-y,1/2+z
loop_
_atom_site_type_symbol
_atom_site_label
_atom_site_fract_x
_atom_site_fract_y
_atom_site_fract_z
Si Si1 0.241899 0.788987 0.291636
Si Si2 0.086549 0.175160 0.577581
Si Si3 0.354955 0.536421 0.214443
Si Si4 0.407718 0.194051 0.398136
Si Si5 0.903818 0.839072 0.097505
Si Si6 0.527982 0.884020 0.808187
O O1 0.272396 0.608424 0.267009
O O2 0.181286 0.783815 0.382052
O O3 0.334448 0.854073 0.321951
O O4 0.186689 0.858332 0.204528
O O5 0.121071 0.327811 0.638646
O O6 0.124835 0.202878 0.476422
O O7 0.985251 0.204774 0.560962
O O8 0.086497 0.004658 0.631373
O O9 0.436932 0.529436 0.281800
O O10 0.434950 0.152153 0.292366
O O11 0.406193 0.018026 0.446902
O O12 0.993442 0.778529 0.141022
#
# Coordination Sequence:
#
# PCOD9460029 Si02
#       6
#     8   8   8   8   8   8
#     4  11  21  41  63  89 128 179 222 267 331 407
#     4  11  23  41  64 100 131 164 221 284 335 386
#     4  10  22  39  64  90 124 176 223 262 328 408
#     4  11  21  40  66  91 126 172 226 267 324 411
#     4  11  24  41  63  98 136 169 215 283 344 387
#     4  10  21  40  68  91 123 172 223 264 327 404
#
# _framework density 25.816749999999999
#
# number of rings (size 3 to 8) (size 9 to 14) (size 15 to 20)
#    0.000    1.333    3.333    4.000    2.333    0.000 
#    3.000    0.000    0.000    0.000    0.000    0.000 
#    0.000    0.000    0.000    0.000    0.000    0.000 
#
# Total GULP energy -267765.435863 kJ/mol
# GULP energy per Si atom -5578.446580 kJ/mol
# Density = 2.575799 g / cm^3
# Si number density = 25.816750 Si / 1000 Ang^3
#
#
#
# Elastic Constant Matrix: (Units=GPa)
#
#
# Indices 1 2 3 4 5 6 
#
# 1 68.1234 4.7041 13.8070 0.0000 0.0000 0.0000
# 2 4.7041 53.5509 0.3652 0.0000 0.0000 0.0000
# 3 13.8070 0.3652 62.0170 0.0000 0.0000 0.0000
# 4 0.0000 0.0000 0.0000 29.3213 0.0000 0.0000
# 5 0.0000 0.0000 0.0000 0.0000 18.9330 0.0000
# 6 0.0000 0.0000 0.0000 0.0000 0.0000 36.5148
#
#
#
# Elastic Compliance Matrix: (Units=1/GPa)
#
#
# Indices 1 2 3 4 5 6 
#
# 1 0.015468 -0.001335 -0.003436 0.000000 0.000000 0.000000
# 2 -0.001335 0.018790 0.000187 0.000000 0.000000 0.000000
# 3 -0.003436 0.000187 0.016888 0.000000 0.000000 0.000000
# 4 0.000000 0.000000 0.000000 0.034105 0.000000 0.000000
# 5 0.000000 0.000000 0.000000 0.000000 0.052818 0.000000
# 6 0.000000 0.000000 0.000000 0.000000 0.000000 0.027386
#
#
# Mechanical properties :
#
#
# Convention : Reuss Voigt Hill
#
# Bulk Modulus (GPa) = 23.82249 24.60489 24.21369
# Shear Modulus (GPa) = 26.50882 27.94146 27.22514
#
# Velocity S-wave (km/s) = 3.20786 3.29340 3.25091
# Velocity P-wave (km/s) = 4.79250 4.90033 4.84672
#
# Compressibility (1/GPa) = 0.04197714
#
# Stress axis : x y z
#
# Youngs Moduli (GPa) = 64.65045 53.22026 59.21211
#
# Poissons Ratio (x) = 0.07107 0.20344
# Poissons Ratio (y) = 0.08633 -0.01105
# Poissons Ratio (z) = 0.22212 -0.00993
#
# Static dielectric constant tensor:
#      x y z
#    x 2.019390 0.000000 0.000000 
#    y 0.000000 2.195370 0.000000 
#    z 0.000000 0.000000 2.016310 
# 
# From -- ./inp_files/3523.got.cif
#   From: 2010.05.17/outbox.cif.g08.bks.cpg/sg61_2_cif.got.tgz:3523.got - 2010.06.03 15:17:17.
