data_PCOD9460292
_publ_section_title
;
Structure prediction by ZEFSAII (Michael W. Deem and Ramdas Pophale) SiO2 
 PCOD9460292
Probable space group: P B C A
;
_chemical_formula_sum "Si O2"
_cell_formula_units_Z 24
_cell_length_a 5.836389
_cell_length_b 9.754178
_cell_length_c 14.685206
_cell_angle_alpha 90.000000
_cell_angle_beta 90.000000
_cell_angle_gamma 90.000000
_cell_volume 836.016694
_symmetry_space_group_name_H-M "P B C A"
_symmetry_group_IT_number 61
_symmetry_cell_setting 'orthorhombic'
loop_
_space_group_symop_operation_xyz
x,y,z
1/2-x,-y,1/2+z
1/2+x,1/2-y,-z
-x,1/2+y,1/2-z
-x,-y,-z
1/2+x,y,1/2-z
1/2-x,1/2+y,z
x,1/2-y,1/2+z
loop_
_atom_site_type_symbol
_atom_site_label
_atom_site_fract_x
_atom_site_fract_y
_atom_site_fract_z
Si Si1 0.005666 0.829492 0.887358
Si Si2 0.753595 0.917331 0.052208
Si Si3 0.485459 0.839292 0.276649
O O1 0.037570 0.673667 0.921981
O O2 0.985669 0.803816 0.779972
O O3 0.217652 0.927064 0.915535
O O4 0.807403 0.897540 0.946628
O O5 0.950003 0.843523 0.115217
O O6 0.736798 0.899898 0.254980
#
# Coordination Sequence:
#
# PCOD9460292 Si02
#       3
#     8   8   8
#     4  10  22  41  66  98 137 182 231 285 345 411
#     4  10  22  41  66  98 137 182 231 285 345 411
#     4  10  22  40  66  96 132 172 220 274 332 396
#
# _framework density 28.707559
#
# number of rings (size 3 to 8) (size 9 to 14) (size 15 to 20)
#    0.000    2.000    0.000    2.000    0.000   12.000 
#    0.000    6.667    0.000    0.000    0.000    0.000 
#    0.000    0.000    0.000    0.000    0.000    0.000 
#
# Total GULP energy -133789.086109 kJ/mol
# GULP energy per Si atom -5574.545255 kJ/mol
# Density = 2.864222 g / cm^3
# Si number density = 28.707559 Si / 1000 Ang^3
#
#
#
# Elastic Constant Matrix: (Units=GPa)
#
#
# Indices 1 2 3 4 5 6 
#
# 1 153.7302 53.7433 29.8300 0.0000 0.0000 0.0000
# 2 53.7433 109.1297 54.1831 0.0000 0.0000 0.0000
# 3 29.8300 54.1831 111.6418 0.0000 0.0000 0.0000
# 4 0.0000 0.0000 0.0000 53.7292 0.0000 0.0000
# 5 0.0000 0.0000 0.0000 0.0000 56.7607 0.0000
# 6 0.0000 0.0000 0.0000 0.0000 0.0000 25.7287
#
#
#
# Elastic Compliance Matrix: (Units=1/GPa)
#
#
# Indices 1 2 3 4 5 6 
#
# 1 0.007865 -0.003728 -0.000292 0.000000 0.000000 0.000000
# 2 -0.003728 0.013840 -0.005721 0.000000 0.000000 0.000000
# 3 -0.000292 -0.005721 0.011812 0.000000 0.000000 0.000000
# 4 0.000000 0.000000 0.000000 0.018612 0.000000 0.000000
# 5 0.000000 0.000000 0.000000 0.000000 0.017618 0.000000
# 6 0.000000 0.000000 0.000000 0.000000 0.000000 0.038867
#
#
# Mechanical properties :
#
#
# Convention : Reuss Voigt Hill
#
# Bulk Modulus (GPa) = 71.25332 72.22385 71.73858
# Shear Modulus (GPa) = 37.65814 43.02674 40.34244
#
# Velocity S-wave (km/s) = 3.62579 3.87563 3.75279
# Velocity P-wave (km/s) = 6.51174 6.72610 6.61979
#
# Compressibility (1/GPa) = 0.01403443
#
# Stress axis : x y z
#
# Youngs Moduli (GPa) = 127.14630 72.25534 84.66208
#
# Poissons Ratio (x) = 0.26939 0.02472
# Poissons Ratio (y) = 0.47404 0.48433
# Poissons Ratio (z) = 0.03713 0.41335
#
# Static dielectric constant tensor:
#      x y z
#    x 2.248260 0.000000 0.000000 
#    y 0.000000 2.186780 0.000000 
#    z 0.000000 0.000000 2.282750 
# 
# From -- ./inp_files/135.got.cif
#   From: 2010.05.17/outbox.cif.g08.bks.cpg/sg61_1_cif.got.tgz:135.got - 2010.06.03 15:17:17.
