data_PCOD9460285
_publ_section_title
;
Structure prediction by ZEFSAII (Michael W. Deem and Ramdas Pophale) SiO2 
 PCOD9460285
Probable space group: P B C A
;
_chemical_formula_sum "Si O2"
_cell_formula_units_Z 56
_cell_length_a 13.795285
_cell_length_b 23.590834
_cell_length_c 7.176457
_cell_angle_alpha 90.000000
_cell_angle_beta 90.000000
_cell_angle_gamma 90.000000
_cell_volume 2335.522517
_symmetry_space_group_name_H-M "P B C A"
_symmetry_group_IT_number 61
_symmetry_cell_setting 'orthorhombic'
loop_
_space_group_symop_operation_xyz
x,y,z
1/2-x,-y,1/2+z
1/2+x,1/2-y,-z
-x,1/2+y,1/2-z
-x,-y,-z
1/2+x,y,1/2-z
1/2-x,1/2+y,z
x,1/2-y,1/2+z
loop_
_atom_site_type_symbol
_atom_site_label
_atom_site_fract_x
_atom_site_fract_y
_atom_site_fract_z
Si Si1 0.557689 0.977819 0.730789
Si Si2 0.302769 0.077299 0.533859
Si Si3 0.556936 0.688857 0.602733
Si Si4 0.391260 0.898337 0.570060
Si Si5 0.092969 0.401086 0.138621
Si Si6 0.441744 0.321548 0.958194
Si Si7 0.681582 0.591191 0.516886
O O1 0.644460 0.973443 0.576554
O O2 0.464825 0.947692 0.638584
O O3 0.601470 0.944180 0.905417
O O4 0.538619 0.040864 0.803609
O O5 0.187088 0.081728 0.521316
O O6 0.355126 0.132388 0.438215
O O7 0.317462 0.074839 0.761062
O O8 0.464082 0.650633 0.544171
O O9 0.567029 0.755772 0.586855
O O10 0.553072 0.677063 0.820318
O O11 0.648012 0.656776 0.514860
O O12 0.377454 0.884083 0.348451
O O13 0.458012 0.844783 0.628464
O O14 0.280042 0.913535 0.603152
#
# Coordination Sequence:
#
# PCOD9460285 Si02
#       7
#     8   8   8   8   8   8   8
#     4  11  23  41  71  96 135 187 224 282 348 422
#     4   9  22  42  63 100 137 178 227 279 350 408
#     4  10  22  40  65  95 130 173 223 284 335 395
#     4   9  21  42  63  98 138 179 225 283 352 407
#     4  10  22  41  66 103 137 175 230 286 348 412
#     4   9  20  40  66  89 134 174 218 283 337 399
#     4  10  23  42  65  99 134 176 231 281 344 424
#
# _framework density 23.977504
#
# number of rings (size 3 to 8) (size 9 to 14) (size 15 to 20)
#    0.000    2.286    0.000    1.286    8.000    2.857 
#    2.571    0.000    0.000    0.000    0.000    0.000 
#    0.000    0.000    0.000    0.000    0.000    0.000 
#
# Total GULP energy -312100.863839 kJ/mol
# GULP energy per Si atom -5573.229711 kJ/mol
# Density = 2.392293 g / cm^3
# Si number density = 23.977504 Si / 1000 Ang^3
#
#
#
# Elastic Constant Matrix: (Units=GPa)
#
#
# Indices 1 2 3 4 5 6 
#
# 1 127.7819 16.2458 21.8120 0.0000 0.0000 0.0000
# 2 16.2458 88.9988 0.1396 0.0000 0.0000 0.0000
# 3 21.8120 0.1396 111.7934 0.0000 0.0000 0.0000
# 4 0.0000 0.0000 0.0000 19.6592 0.0000 0.0000
# 5 0.0000 0.0000 0.0000 0.0000 17.8634 0.0000
# 6 0.0000 0.0000 0.0000 0.0000 0.0000 20.7911
#
#
#
# Elastic Compliance Matrix: (Units=1/GPa)
#
#
# Indices 1 2 3 4 5 6 
#
# 1 0.008294 -0.001511 -0.001616 0.000000 0.000000 0.000000
# 2 -0.001511 0.011512 0.000281 0.000000 0.000000 0.000000
# 3 -0.001616 0.000281 0.009260 0.000000 0.000000 0.000000
# 4 0.000000 0.000000 0.000000 0.050867 0.000000 0.000000
# 5 0.000000 0.000000 0.000000 0.000000 0.055980 0.000000
# 6 0.000000 0.000000 0.000000 0.000000 0.000000 0.048097
#
#
# Mechanical properties :
#
#
# Convention : Reuss Voigt Hill
#
# Bulk Modulus (GPa) = 42.78796 44.99655 43.89226
# Shear Modulus (GPa) = 25.31710 31.02119 28.16914
#
# Velocity S-wave (km/s) = 3.25294 3.60079 3.43128
# Velocity P-wave (km/s) = 5.65620 6.00787 5.83469
#
# Compressibility (1/GPa) = 0.02337106
#
# Stress axis : x y z
#
# Youngs Moduli (GPa) = 120.57064 86.86914 107.99034
#
# Poissons Ratio (x) = 0.13130 0.17455
# Poissons Ratio (y) = 0.18223 -0.03029
# Poissons Ratio (z) = 0.19488 -0.02437
#
# Static dielectric constant tensor:
#      x y z
#    x 2.037200 0.000000 0.000000 
#    y 0.000000 2.197690 0.000000 
#    z 0.000000 0.000000 2.028360 
# 
# From -- ./inp_files/3075.got.cif
#   From: 2010.05.17/outbox.cif.g08.bks.cpg/sg61_2_cif.got.tgz:3075.got - 2010.06.03 15:17:17.
