data_PCOD9460163
_publ_section_title
;
Structure prediction by ZEFSAII (Michael W. Deem and Ramdas Pophale) SiO2 
 PCOD9460163
Probable space group: P B C A
;
_chemical_formula_sum "Si O2"
_cell_formula_units_Z 48
_cell_length_a 13.334092
_cell_length_b 14.543525
_cell_length_c 10.955066
_cell_angle_alpha 90.000000
_cell_angle_beta 90.000000
_cell_angle_gamma 90.000000
_cell_volume 2124.457891
_symmetry_space_group_name_H-M "P B C A"
_symmetry_group_IT_number 61
_symmetry_cell_setting 'orthorhombic'
loop_
_space_group_symop_operation_xyz
x,y,z
1/2-x,-y,1/2+z
1/2+x,1/2-y,-z
-x,1/2+y,1/2-z
-x,-y,-z
1/2+x,y,1/2-z
1/2-x,1/2+y,z
x,1/2-y,1/2+z
loop_
_atom_site_type_symbol
_atom_site_label
_atom_site_fract_x
_atom_site_fract_y
_atom_site_fract_z
Si Si1 0.204627 0.652069 0.306066
Si Si2 0.928587 0.079609 0.405367
Si Si3 0.047016 0.779594 0.379297
Si Si4 0.925149 0.450946 0.242426
Si Si5 0.117338 0.122116 0.113004
Si Si6 0.249047 0.532256 0.931517
O O1 0.117254 0.633100 0.208434
O O2 0.160639 0.740159 0.375232
O O3 0.305980 0.650832 0.223940
O O4 0.207684 0.566835 0.398873
O O5 0.963481 0.153523 0.504398
O O6 0.834860 0.024831 0.462785
O O7 0.012619 0.012073 0.355115
O O8 0.031630 0.848224 0.263131
O O9 0.968494 0.697648 0.390457
O O10 0.921554 0.518607 0.356517
O O11 0.812465 0.440540 0.189770
O O12 0.174795 0.106656 0.985522
#
# Coordination Sequence:
#
# PCOD9460163 Si02
#       6
#     8   8   8   8   8   8
#     4  10  22  43  62 102 133 164 229 279 317 405
#     4  10  21  45  64  89 136 175 219 273 338 391
#     4  11  22  41  65  96 130 178 218 271 331 398
#     4  10  21  45  64  92 137 176 215 280 339 385
#     4  10  22  44  67 102 129 175 229 270 338 398
#     4   9  20  40  66  90 130 173 216 274 329 389
#
# _framework density 22.594000000000001
#
# number of rings (size 3 to 8) (size 9 to 14) (size 15 to 20)
#    0.000    2.000    1.667    2.000    0.000    2.000 
#   45.000    0.000    0.000    0.000    0.000    0.000 
#    0.000    0.000    0.000    0.000    0.000    0.000 
#
# Total GULP energy -267783.508173 kJ/mol
# GULP energy per Si atom -5578.823087 kJ/mol
# Density = 2.254258 g / cm^3
# Si number density = 22.594000 Si / 1000 Ang^3
#
#
#
# Elastic Constant Matrix: (Units=GPa)
#
#
# Indices 1 2 3 4 5 6 
#
# 1 57.1557 42.9309 18.2021 0.0000 0.0000 0.0000
# 2 42.9309 115.4894 21.8889 0.0000 0.0000 0.0000
# 3 18.2021 21.8889 45.7229 0.0000 0.0000 0.0000
# 4 0.0000 0.0000 0.0000 28.8906 0.0000 0.0000
# 5 0.0000 0.0000 0.0000 0.0000 18.3939 0.0000
# 6 0.0000 0.0000 0.0000 0.0000 0.0000 34.6304
#
#
#
# Elastic Compliance Matrix: (Units=1/GPa)
#
#
# Indices 1 2 3 4 5 6 
#
# 1 0.025800 -0.008407 -0.006246 0.000000 0.000000 0.000000
# 2 -0.008407 0.012262 -0.002524 0.000000 0.000000 0.000000
# 3 -0.006246 -0.002524 0.025566 0.000000 0.000000 0.000000
# 4 0.000000 0.000000 0.000000 0.034613 0.000000 0.000000
# 5 0.000000 0.000000 0.000000 0.000000 0.054366 0.000000
# 6 0.000000 0.000000 0.000000 0.000000 0.000000 0.028876
#
#
# Mechanical properties :
#
#
# Convention : Reuss Voigt Hill
#
# Bulk Modulus (GPa) = 34.15947 42.71241 38.43594
# Shear Modulus (GPa) = 22.16369 25.40605 23.78487
#
# Velocity S-wave (km/s) = 3.13542 3.35694 3.24807
# Velocity P-wave (km/s) = 5.31596 5.82844 5.57809
#
# Compressibility (1/GPa) = 0.02927446
#
# Stress axis : x y z
#
# Youngs Moduli (GPa) = 38.76014 81.55198 39.11506
#
# Poissons Ratio (x) = 0.68558 0.24432
# Poissons Ratio (y) = 0.32584 0.09871
# Poissons Ratio (z) = 0.24210 0.20580
#
# Static dielectric constant tensor:
#      x y z
#    x 1.870170 0.000000 0.000000 
#    y 0.000000 1.900100 0.000000 
#    z 0.000000 0.000000 1.921410 
# 
# From -- ./inp_files/5775.got.cif
#   From: 2010.05.17/outbox.cif.g08.bks.cpg/sg61_3_cif.got.tgz:5775.got - 2010.06.03 15:17:17.
