data_PCOD9460218
_publ_section_title
;
Structure prediction by ZEFSAII (Michael W. Deem and Ramdas Pophale) SiO2 
 PCOD9460218
Probable space group: P B C A
;
_chemical_formula_sum "Si O2"
_cell_formula_units_Z 52
_cell_length_a 20.438878
_cell_length_b 4.920517
_cell_length_c 20.003474
_cell_angle_alpha 90.000000
_cell_angle_beta 90.000000
_cell_angle_gamma 90.000000
_cell_volume 2011.746313
_symmetry_space_group_name_H-M "P B C A"
_symmetry_group_IT_number 61
_symmetry_cell_setting 'orthorhombic'
loop_
_space_group_symop_operation_xyz
x,y,z
1/2-x,-y,1/2+z
1/2+x,1/2-y,-z
-x,1/2+y,1/2-z
-x,-y,-z
1/2+x,y,1/2-z
1/2-x,1/2+y,z
x,1/2-y,1/2+z
loop_
_atom_site_type_symbol
_atom_site_label
_atom_site_fract_x
_atom_site_fract_y
_atom_site_fract_z
Si Si1 0.295528 0.665770 0.773259
Si Si2 0.524868 0.719528 0.889744
Si Si3 0.205656 0.283187 0.119863
Si Si4 0.954221 0.325761 0.754268
Si Si5 0.606052 0.466748 0.494901
Si Si6 0.500000 0.500000 0.000000
Si Si7 0.608341 0.520547 0.640925
O O1 0.267263 0.365078 0.780947
O O2 0.319403 0.688400 0.696100
O O3 0.346061 0.794194 0.825009
O O4 0.572407 0.740869 0.827487
O O5 0.463701 0.894926 0.869023
O O6 0.556126 0.807053 0.962385
O O7 0.503171 0.428856 0.916041
O O8 0.269547 0.475578 0.112431
O O9 0.156175 0.381715 0.062746
O O10 0.982094 0.628456 0.752869
O O11 0.904362 0.253804 0.695866
O O12 0.564347 0.200931 0.511583
O O13 0.632907 0.579877 0.565329
#
# Coordination Sequence:
#
# PCOD9460218 Si02
#       7
#     8   8   8   8   8   4   8
#     4  10  24  46  69  97 135 182 241 301 358 418
#     4  10  24  40  66 100 146 194 231 296 362 449
#     4  10  25  48  75 103 137 191 249 298 357 439
#     4  10  24  40  64  97 140 184 238 283 350 437
#     4  11  25  44  71 107 150 189 243 305 373 436
#     4  10  22  38  66  96 146 184 236 298 362 434
#     4  10  23  44  66 104 139 186 235 303 362 436
#
# _framework density 25.848186999999999
#
# number of rings (size 3 to 8) (size 9 to 14) (size 15 to 20)
#    0.000    1.846    0.000    1.846   10.769    8.615 
#    5.538    0.000    0.000    0.000    0.000    0.000 
#    0.000    0.000    0.000    0.000    0.000    0.000 
#
# Total GULP energy -290181.550055 kJ/mol
# GULP energy per Si atom -5580.414424 kJ/mol
# Density = 2.578936 g / cm^3
# Si number density = 25.848187 Si / 1000 Ang^3
#
#
#
# Elastic Constant Matrix: (Units=GPa)
#
#
# Indices 1 2 3 4 5 6 
#
# 1 86.3775 22.8520 59.1264 0.0000 0.0000 0.0000
# 2 22.8520 71.6092 21.7570 0.0000 0.0000 0.0000
# 3 59.1264 21.7570 224.1526 0.0000 0.0000 0.0000
# 4 0.0000 0.0000 0.0000 36.4815 0.0000 0.0000
# 5 0.0000 0.0000 0.0000 0.0000 42.8443 0.0000
# 6 0.0000 0.0000 0.0000 0.0000 0.0000 43.8918
#
#
#
# Elastic Compliance Matrix: (Units=1/GPa)
#
#
# Indices 1 2 3 4 5 6 
#
# 1 0.015022 -0.003699 -0.003604 0.000000 0.000000 0.000000
# 2 -0.003699 0.015300 -0.000509 0.000000 0.000000 0.000000
# 3 -0.003604 -0.000509 0.005461 0.000000 0.000000 0.000000
# 4 0.000000 0.000000 0.000000 0.027411 0.000000 0.000000
# 5 0.000000 0.000000 0.000000 0.000000 0.023340 0.000000
# 6 0.000000 0.000000 0.000000 0.000000 0.000000 0.022783
#
#
# Mechanical properties :
#
#
# Convention : Reuss Voigt Hill
#
# Bulk Modulus (GPa) = 49.60416 65.51224 57.55820
# Shear Modulus (GPa) = 37.97603 43.20378 40.58990
#
# Velocity S-wave (km/s) = 3.83717 4.09276 3.96702
# Velocity P-wave (km/s) = 6.23410 6.90900 6.58021
#
# Compressibility (1/GPa) = 0.02015960
#
# Stress axis : x y z
#
# Youngs Moduli (GPa) = 66.56738 65.35991 183.10966
#
# Poissons Ratio (x) = 0.24177 0.65984
# Poissons Ratio (y) = 0.24624 0.09326
# Poissons Ratio (z) = 0.23988 0.03329
#
# Static dielectric constant tensor:
#      x y z
#    x 1.032550 0.000000 0.000000 
#    y 0.000000 -0.137360 0.000000 
#    z 0.000000 0.000000 1.663460 
# 
# From -- ./inp_files/10589.got.cif
#   From: 2010.05.17/outbox.cif.g08.bks.cpg/sg61_6_cif.got.tgz:10589.got - 2010.06.03 15:17:17.
