data_PCOD9460420
_publ_section_title
;
Structure prediction by ZEFSAII (Michael W. Deem and Ramdas Pophale) SiO2 
 PCOD9460420
Probable space group: P B C A
;
_chemical_formula_sum "Si O2"
_cell_formula_units_Z 56
_cell_length_a 10.620438
_cell_length_b 26.606314
_cell_length_c 9.200803
_cell_angle_alpha 90.000000
_cell_angle_beta 90.000000
_cell_angle_gamma 90.000000
_cell_volume 2599.877420
_symmetry_space_group_name_H-M "P B C A"
_symmetry_group_IT_number 61
_symmetry_cell_setting 'orthorhombic'
loop_
_space_group_symop_operation_xyz
x,y,z
1/2-x,-y,1/2+z
1/2+x,1/2-y,-z
-x,1/2+y,1/2-z
-x,-y,-z
1/2+x,y,1/2-z
1/2-x,1/2+y,z
x,1/2-y,1/2+z
loop_
_atom_site_type_symbol
_atom_site_label
_atom_site_fract_x
_atom_site_fract_y
_atom_site_fract_z
Si Si1 0.624913 0.672354 0.054999
Si Si2 0.923438 0.772135 0.827786
Si Si3 0.061470 0.833770 0.268611
Si Si4 0.515157 0.537546 0.277642
Si Si5 0.532102 0.065881 0.910793
Si Si6 0.242057 0.267594 0.402864
Si Si7 0.262142 0.576071 0.371458
O O1 0.664166 0.729698 0.014583
O O2 0.731181 0.634729 0.110203
O O3 0.522085 0.682455 0.181554
O O4 0.576370 0.652181 0.900161
O O5 0.871849 0.776859 0.989910
O O6 0.804365 0.769035 0.724591
O O7 0.995783 0.879321 0.350925
O O8 0.195386 0.817508 0.339563
O O9 0.985705 0.781935 0.294939
O O10 0.548983 0.556285 0.442244
O O11 0.503604 0.477588 0.295678
O O12 0.375594 0.561942 0.259366
O O13 0.628520 0.551995 0.171620
O O14 0.673717 0.060169 0.975232
#
# Coordination Sequence:
#
# PCOD9460420 Si02
#       7
#     8   8   8   8   8   8   8
#     4  11  24  38  63  97 131 182 228 283 343 420
#     4  11  23  40  60  96 136 176 230 285 339 411
#     4  11  23  42  64  97 131 183 234 276 354 415
#     4   9  22  46  68 104 135 179 228 299 351 408
#     4   9  22  45  71  93 143 175 227 298 347 412
#     4  11  23  40  64  90 137 181 226 286 340 418
#     4  10  22  43  70  98 138 175 232 281 357 416
#
# _framework density 21.539474999999999
#
# number of rings (size 3 to 8) (size 9 to 14) (size 15 to 20)
#    0.857    0.857    2.857    0.857    2.000    2.286 
#    0.000    2.857    0.000    0.000    0.000    0.000 
#    0.000    0.000    0.000    0.000    0.000    0.000 
#
# Total GULP energy -311801.578600 kJ/mol
# GULP energy per Si atom -5567.885332 kJ/mol
# Density = 2.149045 g / cm^3
# Si number density = 21.539475 Si / 1000 Ang^3
#
#
#
# Elastic Constant Matrix: (Units=GPa)
#
#
# Indices 1 2 3 4 5 6 
#
# 1 79.9144 5.9469 25.0943 0.0000 0.0000 0.0000
# 2 5.9469 52.4167 22.5241 0.0000 0.0000 0.0000
# 3 25.0943 22.5241 39.7707 0.0000 0.0000 0.0000
# 4 0.0000 0.0000 0.0000 12.2473 0.0000 0.0000
# 5 0.0000 0.0000 0.0000 0.0000 25.5025 0.0000
# 6 0.0000 0.0000 0.0000 0.0000 0.0000 30.0939
#
#
#
# Elastic Compliance Matrix: (Units=1/GPa)
#
#
# Indices 1 2 3 4 5 6 
#
# 1 0.016036 0.003342 -0.012011 0.000000 0.000000 0.000000
# 2 0.003342 0.025911 -0.016783 0.000000 0.000000 0.000000
# 3 -0.012011 -0.016783 0.042228 0.000000 0.000000 0.000000
# 4 0.000000 0.000000 0.000000 0.081651 0.000000 0.000000
# 5 0.000000 0.000000 0.000000 0.000000 0.039212 0.000000
# 6 0.000000 0.000000 0.000000 0.000000 0.000000 0.033229
#
#
# Mechanical properties :
#
#
# Convention : Reuss Voigt Hill
#
# Bulk Modulus (GPa) = 30.05695 31.02584 30.54140
# Shear Modulus (GPa) = 16.65211 21.47117 19.06164
#
# Velocity S-wave (km/s) = 2.78348 3.16068 2.97806
# Velocity P-wave (km/s) = 4.93102 5.26833 5.10247
#
# Compressibility (1/GPa) = 0.03327017
#
# Stress axis : x y z
#
# Youngs Moduli (GPa) = 62.35799 38.59416 23.68086
#
# Poissons Ratio (x) = -0.12898 0.28444
# Poissons Ratio (y) = -0.20840 0.39744
# Poissons Ratio (z) = 0.74900 0.64773
#
# Static dielectric constant tensor:
#      x y z
#    x 1.964490 0.000000 0.000000 
#    y 0.000000 1.744490 0.000000 
#    z 0.000000 0.000000 1.812460 
# 
# From -- ./inp_files/5443.got.cif
#   From: 2010.05.17/outbox.cif.g08.bks.cpg/sg61_3_cif.got.tgz:5443.got - 2010.06.03 15:17:17.
