data_PCOD9460403
_publ_section_title
;
Structure prediction by ZEFSAII (Michael W. Deem and Ramdas Pophale) SiO2 
 PCOD9460403
Probable space group: P B C A
;
_chemical_formula_sum "Si O2"
_cell_formula_units_Z 48
_cell_length_a 8.881064
_cell_length_b 10.679860
_cell_length_c 22.575409
_cell_angle_alpha 90.000000
_cell_angle_beta 90.000000
_cell_angle_gamma 90.000000
_cell_volume 2141.244136
_symmetry_space_group_name_H-M "P B C A"
_symmetry_group_IT_number 61
_symmetry_cell_setting 'orthorhombic'
loop_
_space_group_symop_operation_xyz
x,y,z
1/2-x,-y,1/2+z
1/2+x,1/2-y,-z
-x,1/2+y,1/2-z
-x,-y,-z
1/2+x,y,1/2-z
1/2-x,1/2+y,z
x,1/2-y,1/2+z
loop_
_atom_site_type_symbol
_atom_site_label
_atom_site_fract_x
_atom_site_fract_y
_atom_site_fract_z
Si Si1 0.119181 0.328558 0.302700
Si Si2 0.059184 0.912259 0.682776
Si Si3 0.810567 0.283117 0.080865
Si Si4 0.671977 0.522051 0.012925
Si Si5 0.067652 0.458784 0.063358
Si Si6 0.349324 0.462979 0.226595
O O1 0.223707 0.292602 0.357374
O O2 0.226932 0.359342 0.247597
O O3 0.002254 0.217401 0.292989
O O4 0.995865 0.438610 0.314431
O O5 0.046369 0.935376 0.612805
O O6 0.231555 0.936827 0.701086
O O7 0.936775 0.004196 0.712830
O O8 0.733491 0.391403 0.040255
O O9 0.803453 0.143355 0.054863
O O10 0.982178 0.333994 0.084212
O O11 0.500000 0.500000 0.000000
O O12 0.758378 0.555963 0.952080
O O13 0.000000 0.500000 0.000000
#
# Coordination Sequence:
#
# PCOD9460403 Si02
#       6
#     8   8   8   8   8   8
#     4  11  22  42  68  97 135 185 231 297 363 415
#     4  11  22  44  67  98 142 181 236 302 353 435
#     4  11  23  44  71 100 142 183 231 293 358 428
#     4  11  25  44  70 104 140 183 233 287 356 436
#     4  10  22  43  65  99 138 182 230 289 357 424
#     4  10  24  41  65 101 135 180 247 283 367 425
#
# _framework density 22.416872999999999
#
# number of rings (size 3 to 8) (size 9 to 14) (size 15 to 20)
#    0.000    1.333    1.667    4.000    2.333    1.333 
#    3.000    0.000    0.000    0.000    0.000    0.000 
#    0.000    0.000    0.000    0.000    0.000    0.000 
#
# Total GULP energy -267603.587879 kJ/mol
# GULP energy per Si atom -5575.074747 kJ/mol
# Density = 2.236585 g / cm^3
# Si number density = 22.416873 Si / 1000 Ang^3
#
#
#
# Elastic Constant Matrix: (Units=GPa)
#
#
# Indices 1 2 3 4 5 6 
#
# 1 154.0050 25.0836 25.5856 0.0000 0.0000 0.0000
# 2 25.0836 56.3938 -1.8386 0.0000 0.0000 0.0000
# 3 25.5856 -1.8386 42.6089 0.0000 0.0000 0.0000
# 4 0.0000 0.0000 0.0000 18.5478 0.0000 0.0000
# 5 0.0000 0.0000 0.0000 0.0000 21.9641 0.0000
# 6 0.0000 0.0000 0.0000 0.0000 0.0000 39.1105
#
#
#
# Elastic Compliance Matrix: (Units=1/GPa)
#
#
# Indices 1 2 3 4 5 6 
#
# 1 0.007907 -0.003677 -0.004907 0.000000 0.000000 0.000000
# 2 -0.003677 0.019467 0.003048 0.000000 0.000000 0.000000
# 3 -0.004907 0.003048 0.026547 0.000000 0.000000 0.000000
# 4 0.000000 0.000000 0.000000 0.053915 0.000000 0.000000
# 5 0.000000 0.000000 0.000000 0.000000 0.045529 0.000000
# 6 0.000000 0.000000 0.000000 0.000000 0.000000 0.025569
#
#
# Mechanical properties :
#
#
# Convention : Reuss Voigt Hill
#
# Bulk Modulus (GPa) = 23.33718 38.96321 31.15020
# Shear Modulus (GPa) = 24.47508 29.53630 27.00569
#
# Velocity S-wave (km/s) = 3.30785 3.63380 3.47465
# Velocity P-wave (km/s) = 5.00223 5.91819 5.47938
#
# Compressibility (1/GPa) = 0.04285008
#
# Stress axis : x y z
#
# Youngs Moduli (GPa) = 126.46372 51.36801 37.66871
#
# Poissons Ratio (x) = 0.18889 0.18484
# Poissons Ratio (y) = 0.46502 -0.11482
# Poissons Ratio (z) = 0.62054 -0.15657
#
# Static dielectric constant tensor:
#      x y z
#    x 1.860880 0.000000 0.000000 
#    y 0.000000 1.928550 0.000000 
#    z 0.000000 0.000000 1.826110 
# 
# From -- ./inp_files/10841.got.cif
#   From: 2010.05.17/outbox.cif.g08.bks.cpg/sg61_6_cif.got.tgz:10841.got - 2010.06.03 15:17:17.
