data_PCOD9460472
_publ_section_title
;
Structure prediction by ZEFSAII (Michael W. Deem and Ramdas Pophale) SiO2 
 PCOD9460472
Probable space group: P B C A
;
_chemical_formula_sum "Si O2"
_cell_formula_units_Z 48
_cell_length_a 25.922792
_cell_length_b 7.430851
_cell_length_c 9.889439
_cell_angle_alpha 90.000000
_cell_angle_beta 90.000000
_cell_angle_gamma 90.000000
_cell_volume 1904.986859
_symmetry_space_group_name_H-M "P B C A"
_symmetry_group_IT_number 61
_symmetry_cell_setting 'orthorhombic'
loop_
_space_group_symop_operation_xyz
x,y,z
1/2-x,-y,1/2+z
1/2+x,1/2-y,-z
-x,1/2+y,1/2-z
-x,-y,-z
1/2+x,y,1/2-z
1/2-x,1/2+y,z
x,1/2-y,1/2+z
loop_
_atom_site_type_symbol
_atom_site_label
_atom_site_fract_x
_atom_site_fract_y
_atom_site_fract_z
Si Si1 0.810571 0.465200 0.250932
Si Si2 0.291622 0.398234 0.645924
Si Si3 0.364963 0.369282 0.015978
Si Si4 0.525258 0.757059 0.440811
Si Si5 0.963713 0.633640 0.810962
Si Si6 0.852119 0.682369 0.692847
O O1 0.792663 0.258310 0.237144
O O2 0.767560 0.541302 0.357733
O O3 0.864173 0.435323 0.328954
O O4 0.823320 0.631872 0.155170
O O5 0.323892 0.296132 0.528826
O O6 0.321824 0.575745 0.689468
O O7 0.350644 0.537701 0.926037
O O8 0.422544 0.313920 0.984008
O O9 0.539465 0.565344 0.373512
O O10 0.504319 0.866752 0.312564
O O11 0.482379 0.744889 0.557924
O O12 0.910365 0.700526 0.745987
#
# Coordination Sequence:
#
# PCOD9460472 Si02
#       6
#     8   8   8   8   8   8
#     4  10  23  44  67 101 136 179 231 290 352 427
#     4  10  22  46  66  99 142 173 235 294 347 431
#     4  10  25  44  69 100 138 184 236 296 349 437
#     4  11  25  45  71 106 141 189 242 297 360 427
#     4  11  26  44  72 103 143 188 240 299 361 430
#     4  12  23  45  68  99 138 187 230 291 362 421
#
# _framework density 25.197025
#
# number of rings (size 3 to 8) (size 9 to 14) (size 15 to 20)
#    1.000    0.333    3.333    1.000    4.667    2.667 
#    6.000    0.000    0.000    0.000    0.000    0.000 
#    0.000    0.000    0.000    0.000    0.000    0.000 
#
# Total GULP energy -267635.459070 kJ/mol
# GULP energy per Si atom -5575.738731 kJ/mol
# Density = 2.513968 g / cm^3
# Si number density = 25.197025 Si / 1000 Ang^3
#
#
#
# Elastic Constant Matrix: (Units=GPa)
#
#
# Indices 1 2 3 4 5 6 
#
# 1 85.0043 7.3809 -5.9713 0.0000 0.0000 0.0000
# 2 7.3809 71.7936 -9.4632 0.0000 0.0000 0.0000
# 3 -5.9713 -9.4632 32.4116 0.0000 0.0000 0.0000
# 4 0.0000 0.0000 0.0000 36.2319 0.0000 0.0000
# 5 0.0000 0.0000 0.0000 0.0000 3.0901 0.0000
# 6 0.0000 0.0000 0.0000 0.0000 0.0000 30.5363
#
#
#
# Elastic Compliance Matrix: (Units=1/GPa)
#
#
# Indices 1 2 3 4 5 6 
#
# 1 0.011984 -0.000979 0.001922 0.000000 0.000000 0.000000
# 2 -0.000979 0.014566 0.004073 0.000000 0.000000 0.000000
# 3 0.001922 0.004073 0.032396 0.000000 0.000000 0.000000
# 4 0.000000 0.000000 0.000000 0.027600 0.000000 0.000000
# 5 0.000000 0.000000 0.000000 0.000000 0.323616 0.000000
# 6 0.000000 0.000000 0.000000 0.000000 0.000000 0.032748
#
#
# Mechanical properties :
#
#
# Convention : Reuss Voigt Hill
#
# Bulk Modulus (GPa) = 14.49723 19.23360 16.86541
# Shear Modulus (GPa) = 10.96800 27.12252 19.04526
#
# Velocity S-wave (km/s) = 2.08862 3.28444 2.75226
# Velocity P-wave (km/s) = 3.40331 4.69396 4.09974
#
# Compressibility (1/GPa) = 0.06897870
#
# Stress axis : x y z
#
# Youngs Moduli (GPa) = 83.44381 68.65187 30.86769
#
# Poissons Ratio (x) = 0.06719 -0.05933
# Poissons Ratio (y) = 0.08167 -0.12571
# Poissons Ratio (z) = -0.16039 -0.27959
#
# Static dielectric constant tensor:
#      x y z
#    x 1.971670 0.000000 0.000000 
#    y 0.000000 2.023510 0.000000 
#    z 0.000000 0.000000 2.058010 
# 
# From -- ./inp_files/6594.got.cif
#   From: 2010.05.17/outbox.cif.g08.bks.cpg/sg61_4_cif.got.tgz:6594.got - 2010.06.03 15:17:17.
