data_PCOD9460640
_publ_section_title
;
Structure prediction by ZEFSAII (Michael W. Deem and Ramdas Pophale) SiO2 
 PCOD9460640
Probable space group: P B C A
;
_chemical_formula_sum "Si O2"
_cell_formula_units_Z 40
_cell_length_a 19.062944
_cell_length_b 5.109992
_cell_length_c 15.205339
_cell_angle_alpha 90.000000
_cell_angle_beta 90.000000
_cell_angle_gamma 90.000000
_cell_volume 1481.174748
_symmetry_space_group_name_H-M "P B C A"
_symmetry_group_IT_number 61
_symmetry_cell_setting 'orthorhombic'
loop_
_space_group_symop_operation_xyz
x,y,z
1/2-x,-y,1/2+z
1/2+x,1/2-y,-z
-x,1/2+y,1/2-z
-x,-y,-z
1/2+x,y,1/2-z
1/2-x,1/2+y,z
x,1/2-y,1/2+z
loop_
_atom_site_type_symbol
_atom_site_label
_atom_site_fract_x
_atom_site_fract_y
_atom_site_fract_z
Si Si1 0.296736 0.782340 0.979575
Si Si2 0.908453 0.020057 0.300213
Si Si3 0.535439 0.728458 0.123427
Si Si4 0.592239 0.898123 0.444836
Si Si5 0.203907 0.320880 0.771356
O O1 0.263818 0.065192 0.998606
O O2 0.312127 0.792732 0.875073
O O3 0.363492 0.651769 0.026254
O O4 0.875478 0.211959 0.371308
O O5 0.864019 0.759203 0.283435
O O6 0.916020 0.147958 0.204374
O O7 0.985101 0.951966 0.338561
O O8 0.481166 0.500252 0.095587
O O9 0.577774 0.770120 0.033680
O O10 0.261500 0.097338 0.753074
#
# Coordination Sequence:
#
# PCOD9460640 Si02
#       5
#     8   8   8   8   8
#     4  10  23  45  71 103 140 188 236 296 355 418
#     4  12  24  44  72 101 141 183 239 291 358 428
#     4  11  25  45  66 106 136 185 231 296 358 422
#     4  11  25  45  69 100 141 184 239 290 356 429
#     4  10  24  45  72 103 142 187 236 296 357 418
#
# _framework density 27.005589000000001
#
# number of rings (size 3 to 8) (size 9 to 14) (size 15 to 20)
#    0.000    1.200    4.000    0.600    5.600    1.600 
#    3.600    0.000    0.000    0.000    0.000    0.000 
#    0.000    0.000    0.000    0.000    0.000    0.000 
#
# Total GULP energy -224581.727317 kJ/mol
# GULP energy per Si atom -5614.543183 kJ/mol
# Density = 2.694412 g / cm^3
# Si number density = 27.005589 Si / 1000 Ang^3
#
#
#
# Elastic Constant Matrix: (Units=GPa)
#
#
# Indices 1 2 3 4 5 6 
#
# 1 82.6257 14.3360 52.1805 0.0000 0.0000 0.0000
# 2 14.3360 71.7013 37.6326 0.0000 0.0000 0.0000
# 3 52.1805 37.6326 178.5908 0.0000 0.0000 0.0000
# 4 0.0000 0.0000 0.0000 37.1222 0.0000 0.0000
# 5 0.0000 0.0000 0.0000 0.0000 39.6567 0.0000
# 6 0.0000 0.0000 0.0000 0.0000 0.0000 50.9565
#
#
#
# Elastic Compliance Matrix: (Units=1/GPa)
#
#
# Indices 1 2 3 4 5 6 
#
# 1 0.014880 -0.000779 -0.004183 0.000000 0.000000 0.000000
# 2 -0.000779 0.015722 -0.003085 0.000000 0.000000 0.000000
# 3 -0.004183 -0.003085 0.007472 0.000000 0.000000 0.000000
# 4 0.000000 0.000000 0.000000 0.026938 0.000000 0.000000
# 5 0.000000 0.000000 0.000000 0.000000 0.025216 0.000000
# 6 0.000000 0.000000 0.000000 0.000000 0.000000 0.019625
#
#
# Mechanical properties :
#
#
# Convention : Reuss Voigt Hill
#
# Bulk Modulus (GPa) = 45.50084 60.13510 52.81797
# Shear Modulus (GPa) = 37.51659 40.79834 39.15746
#
# Velocity S-wave (km/s) = 3.73126 3.89104 3.81199
# Velocity P-wave (km/s) = 5.95385 6.51942 6.24304
#
# Compressibility (1/GPa) = 0.02197762
#
# Stress axis : x y z
#
# Youngs Moduli (GPa) = 67.20466 63.60577 133.83685
#
# Poissons Ratio (x) = 0.04958 0.55989
# Poissons Ratio (y) = 0.05238 0.41291
# Poissons Ratio (z) = 0.28114 0.19623
#
# Static dielectric constant tensor:
#      x y z
#    x 2.087380 0.000000 0.000000 
#    y 0.000000 2.083500 0.000000 
#    z 0.000000 0.000000 2.054420 
# 
# From -- ./inp_files/9602.got.cif
#   From: 2010.05.17/outbox.cif.g08.bks.cpg/sg61_5_cif.got.tgz:9602.got - 2010.06.03 15:17:17.
