data_PCOD9460816
_publ_section_title
;
Structure prediction by ZEFSAII (Michael W. Deem and Ramdas Pophale) SiO2 
 PCOD9460816
Probable space group: P B C A
;
_chemical_formula_sum "Si O2"
_cell_formula_units_Z 48
_cell_length_a 10.390499
_cell_length_b 9.891036
_cell_length_c 17.525024
_cell_angle_alpha 90.000000
_cell_angle_beta 90.000000
_cell_angle_gamma 90.000000
_cell_volume 1801.095781
_symmetry_space_group_name_H-M "P B C A"
_symmetry_group_IT_number 61
_symmetry_cell_setting 'orthorhombic'
loop_
_space_group_symop_operation_xyz
x,y,z
1/2-x,-y,1/2+z
1/2+x,1/2-y,-z
-x,1/2+y,1/2-z
-x,-y,-z
1/2+x,y,1/2-z
1/2-x,1/2+y,z
x,1/2-y,1/2+z
loop_
_atom_site_type_symbol
_atom_site_label
_atom_site_fract_x
_atom_site_fract_y
_atom_site_fract_z
Si Si1 0.165671 0.582870 0.283486
Si Si2 0.592088 0.819321 0.126560
Si Si3 0.598324 0.272356 0.002245
Si Si4 0.228760 0.000310 0.498242
Si Si5 0.917715 0.060958 0.784116
Si Si6 0.397835 0.308262 0.624816
O O1 0.190517 0.706046 0.341772
O O2 0.299897 0.527445 0.250452
O O3 0.088876 0.626686 0.207322
O O4 0.050559 0.494360 0.320105
O O5 0.487104 0.753838 0.072017
O O6 0.653938 0.938916 0.076075
O O7 0.533435 0.866349 0.206452
O O8 0.635666 0.427619 0.007766
O O9 0.521511 0.225444 0.075734
O O10 0.714011 0.160858 0.996153
O O11 0.172913 0.918669 0.571711
O O12 0.850222 0.160674 0.845715
#
# Coordination Sequence:
#
# PCOD9460816 Si02
#       6
#     8   8   8   8   8   8
#     4  11  26  44  74 105 149 192 250 311 381 457
#     4  10  25  45  70 104 149 195 253 312 391 456
#     4  11  25  47  72 111 149 209 253 326 384 469
#     4  11  25  43  78 101 153 199 262 313 394 459
#     4  11  26  44  74 105 149 192 250 311 381 457
#     4  10  25  45  70 104 149 195 253 312 391 456
#
# _framework density 26.650442999999999
#
# number of rings (size 3 to 8) (size 9 to 14) (size 15 to 20)
#    0.000    1.333    0.000    4.000   14.000    2.667 
#    0.000    3.333    0.000    0.000    0.000    0.000 
#    0.000    0.000    0.000    0.000    0.000    0.000 
#
# Total GULP energy -268097.503845 kJ/mol
# GULP energy per Si atom -5585.364663 kJ/mol
# Density = 2.658979 g / cm^3
# Si number density = 26.650443 Si / 1000 Ang^3
#
#
#
# Elastic Constant Matrix: (Units=GPa)
#
#
# Indices 1 2 3 4 5 6 
#
# 1 82.3354 27.9141 12.2752 0.0000 0.0000 0.0000
# 2 27.9141 74.7112 25.8305 0.0000 0.0000 0.0000
# 3 12.2752 25.8305 143.7784 0.0000 0.0000 0.0000
# 4 0.0000 0.0000 0.0000 41.0343 0.0000 0.0000
# 5 0.0000 0.0000 0.0000 0.0000 33.0802 0.0000
# 6 0.0000 0.0000 0.0000 0.0000 0.0000 44.3017
#
#
#
# Elastic Compliance Matrix: (Units=1/GPa)
#
#
# Indices 1 2 3 4 5 6 
#
# 1 0.013917 -0.005106 -0.000271 0.000000 0.000000 0.000000
# 2 -0.005106 0.016145 -0.002465 0.000000 0.000000 0.000000
# 3 -0.000271 -0.002465 0.007421 0.000000 0.000000 0.000000
# 4 0.000000 0.000000 0.000000 0.024370 0.000000 0.000000
# 5 0.000000 0.000000 0.000000 0.000000 0.030230 0.000000
# 6 0.000000 0.000000 0.000000 0.000000 0.000000 0.022573
#
#
# Mechanical properties :
#
#
# Convention : Reuss Voigt Hill
#
# Bulk Modulus (GPa) = 45.87207 48.09605 46.98406
# Shear Modulus (GPa) = 36.33608 39.33690 37.83649
#
# Velocity S-wave (km/s) = 3.69647 3.84608 3.77202
# Velocity P-wave (km/s) = 5.95554 6.14893 6.05301
#
# Compressibility (1/GPa) = 0.02179976
#
# Stress axis : x y z
#
# Youngs Moduli (GPa) = 71.85480 61.93963 134.75204
#
# Poissons Ratio (x) = 0.31627 0.03650
# Poissons Ratio (y) = 0.36690 0.33210
# Poissons Ratio (z) = 0.01946 0.15265
#
# Static dielectric constant tensor:
#      x y z
#    x 2.210620 0.000000 0.000000 
#    y 0.000000 2.245020 0.000000 
#    z 0.000000 0.000000 2.026090 
# 
# From -- ./inp_files/9176.got.cif
#   From: 2010.05.17/outbox.cif.g08.bks.cpg/sg61_5_cif.got.tgz:9176.got - 2010.06.03 15:17:17.
