data_PCOD9460397
_publ_section_title
;
Structure prediction by ZEFSAII (Michael W. Deem and Ramdas Pophale) SiO2 
 PCOD9460397
Probable space group: P B C A
;
_chemical_formula_sum "Si O2"
_cell_formula_units_Z 40
_cell_length_a 13.686926
_cell_length_b 8.685880
_cell_length_c 12.842884
_cell_angle_alpha 90.000000
_cell_angle_beta 90.000000
_cell_angle_gamma 90.000000
_cell_volume 1526.800538
_symmetry_space_group_name_H-M "P B C A"
_symmetry_group_IT_number 61
_symmetry_cell_setting 'orthorhombic'
loop_
_space_group_symop_operation_xyz
x,y,z
1/2-x,-y,1/2+z
1/2+x,1/2-y,-z
-x,1/2+y,1/2-z
-x,-y,-z
1/2+x,y,1/2-z
1/2-x,1/2+y,z
x,1/2-y,1/2+z
loop_
_atom_site_type_symbol
_atom_site_label
_atom_site_fract_x
_atom_site_fract_y
_atom_site_fract_z
Si Si1 0.954425 0.759245 0.495892
Si Si2 0.066093 0.988432 0.340047
Si Si3 0.231502 0.813995 0.207954
Si Si4 0.124592 0.524944 0.280800
Si Si5 0.133337 0.550602 0.525581
O O1 0.010468 0.860967 0.410729
O O2 0.883634 0.628964 0.450166
O O3 0.037676 0.653660 0.552068
O O4 0.908708 0.875922 0.579140
O O5 0.155750 0.910945 0.280864
O O6 0.985367 0.045444 0.257588
O O7 0.193043 0.642062 0.217351
O O8 0.219305 0.876353 0.091411
O O9 0.336916 0.855309 0.252438
O O10 0.141701 0.557911 0.401528
#
# Coordination Sequence:
#
# PCOD9460397 Si02
#       5
#     8   8   8   8   8
#     4  10  22  42  78 105 137 193 235 290 347 429
#     4  11  24  47  72 106 148 183 240 289 354 410
#     4  12  29  47  73 106 145 188 238 294 352 423
#     4  12  29  47  73 106 145 188 238 294 352 423
#     4  11  24  44  72 104 141 187 243 282 360 420
#
# _framework density 26.198577
#
# number of rings (size 3 to 8) (size 9 to 14) (size 15 to 20)
#    0.000    0.800    4.000    2.400    5.600    4.800 
#    0.000    0.000    0.000    0.000    0.000    0.000 
#    0.000    0.000    0.000    0.000    0.000    0.000 
#
# Total GULP energy -224480.795266 kJ/mol
# GULP energy per Si atom -5612.019882 kJ/mol
# Density = 2.613895 g / cm^3
# Si number density = 26.198577 Si / 1000 Ang^3
#
#
#
# Elastic Constant Matrix: (Units=GPa)
#
#
# Indices 1 2 3 4 5 6 
#
# 1 55.5725 9.7955 13.3875 0.0000 0.0000 0.0000
# 2 9.7955 129.2678 38.4409 0.0000 0.0000 0.0000
# 3 13.3875 38.4409 129.4140 0.0000 0.0000 0.0000
# 4 0.0000 0.0000 0.0000 43.7299 0.0000 0.0000
# 5 0.0000 0.0000 0.0000 0.0000 29.6167 0.0000
# 6 0.0000 0.0000 0.0000 0.0000 0.0000 49.0217
#
#
#
# Elastic Compliance Matrix: (Units=1/GPa)
#
#
# Indices 1 2 3 4 5 6 
#
# 1 0.018553 -0.000916 -0.001647 0.000000 0.000000 0.000000
# 2 -0.000916 0.008531 -0.002439 0.000000 0.000000 0.000000
# 3 -0.001647 -0.002439 0.008622 0.000000 0.000000 0.000000
# 4 0.000000 0.000000 0.000000 0.022868 0.000000 0.000000
# 5 0.000000 0.000000 0.000000 0.000000 0.033765 0.000000
# 6 0.000000 0.000000 0.000000 0.000000 0.000000 0.020399
#
#
# Mechanical properties :
#
#
# Convention : Reuss Voigt Hill
#
# Bulk Modulus (GPa) = 38.90931 48.61134 43.76033
# Shear Modulus (GPa) = 38.07824 41.31569 39.69696
#
# Velocity S-wave (km/s) = 3.81655 3.97548 3.89682
# Velocity P-wave (km/s) = 5.85707 6.29824 6.08166
#
# Compressibility (1/GPa) = 0.02570079
#
# Stress axis : x y z
#
# Youngs Moduli (GPa) = 53.90025 117.22453 115.98163
#
# Poissons Ratio (x) = 0.10738 0.19104
# Poissons Ratio (y) = 0.04938 0.28290
# Poissons Ratio (z) = 0.08878 0.28593
#
# Static dielectric constant tensor:
#      x y z
#    x 2.015070 0.000000 0.000000 
#    y 0.000000 2.063930 0.000000 
#    z 0.000000 0.000000 2.011800 
# 
# From -- ./inp_files/6066.got.cif
#   From: 2010.05.17/outbox.cif.g08.bks.cpg/sg61_4_cif.got.tgz:6066.got - 2010.06.03 15:17:17.
