data_PCOD9460134
_publ_section_title
;
Structure prediction by ZEFSAII (Michael W. Deem and Ramdas Pophale) SiO2 
 PCOD9460134
Probable space group: P B C A
;
_chemical_formula_sum "Si O2"
_cell_formula_units_Z 64
_cell_length_a 22.962544
_cell_length_b 8.743743
_cell_length_c 13.332022
_cell_angle_alpha 90.000000
_cell_angle_beta 90.000000
_cell_angle_gamma 90.000000
_cell_volume 2676.784491
_symmetry_space_group_name_H-M "P B C A"
_symmetry_group_IT_number 61
_symmetry_cell_setting 'orthorhombic'
loop_
_space_group_symop_operation_xyz
x,y,z
1/2-x,-y,1/2+z
1/2+x,1/2-y,-z
-x,1/2+y,1/2-z
-x,-y,-z
1/2+x,y,1/2-z
1/2-x,1/2+y,z
x,1/2-y,1/2+z
loop_
_atom_site_type_symbol
_atom_site_label
_atom_site_fract_x
_atom_site_fract_y
_atom_site_fract_z
Si Si1 0.264267 0.143111 0.312263
Si Si2 0.856904 0.518177 0.551116
Si Si3 0.185246 0.182673 0.137976
Si Si4 0.581322 0.487796 0.743088
Si Si5 0.553878 0.209608 0.062611
Si Si6 0.679627 0.929076 0.108245
Si Si7 0.366969 0.504807 0.587599
Si Si8 0.430943 0.290472 0.086630
O O1 0.243399 0.138084 0.197892
O O2 0.277433 0.316689 0.337167
O O3 0.318762 0.050437 0.358237
O O4 0.206523 0.095139 0.372771
O O5 0.816016 0.610243 0.472508
O O6 0.906812 0.639983 0.579190
O O7 0.887362 0.382533 0.486814
O O8 0.170602 0.363378 0.140130
O O9 0.129883 0.105951 0.194268
O O10 0.547076 0.376685 0.669132
O O11 0.618820 0.588577 0.665040
O O12 0.550898 0.594183 0.824097
O O13 0.489196 0.247590 0.026803
O O14 0.587694 0.103251 0.982198
O O15 0.673135 0.915225 0.991559
O O16 0.402067 0.362833 0.634306
#
# Coordination Sequence:
#
# PCOD9460134 Si02
#       8
#     8   8   8   8   8   8   8   8
#     4  11  23  43  67  96 136 186 233 290 355 424
#     4  10  22  44  70 101 142 183 236 298 350 435
#     4   9  22  42  67  97 137 185 235 283 366 430
#     4   9  22  43  58  93 140 169 231 292 333 427
#     4  10  22  41  71  98 140 188 229 293 372 416
#     4  10  23  42  63  91 129 176 228 284 353 412
#     4  10  21  43  67  99 138 178 234 299 349 432
#     4  11  21  42  69 105 135 180 241 292 357 431
#
# _framework density 23.909282999999999
#
# number of rings (size 3 to 8) (size 9 to 14) (size 15 to 20)
#    0.000    2.000    1.250    0.750    7.000    2.000 
#   11.250    2.500    0.000    0.000    0.000    0.000 
#    0.000    0.000    0.000    0.000    0.000    0.000 
#
# Total GULP energy -357524.428798 kJ/mol
# GULP energy per Si atom -5586.319200 kJ/mol
# Density = 2.385486 g / cm^3
# Si number density = 23.909283 Si / 1000 Ang^3
#
#
#
# Elastic Constant Matrix: (Units=GPa)
#
#
# Indices 1 2 3 4 5 6 
#
# 1 82.8966 39.1696 33.1744 0.0000 0.0000 0.0000
# 2 39.1696 113.4459 42.7511 0.0000 0.0000 0.0000
# 3 33.1744 42.7511 76.7631 0.0000 0.0000 0.0000
# 4 0.0000 0.0000 0.0000 18.0503 0.0000 0.0000
# 5 0.0000 0.0000 0.0000 0.0000 21.9798 0.0000
# 6 0.0000 0.0000 0.0000 0.0000 0.0000 32.8084
#
#
#
# Elastic Compliance Matrix: (Units=1/GPa)
#
#
# Indices 1 2 3 4 5 6 
#
# 1 0.015678 -0.003620 -0.004760 0.000000 0.000000 0.000000
# 2 -0.003620 0.011992 -0.005114 0.000000 0.000000 0.000000
# 3 -0.004760 -0.005114 0.017932 0.000000 0.000000 0.000000
# 4 0.000000 0.000000 0.000000 0.055401 0.000000 0.000000
# 5 0.000000 0.000000 0.000000 0.000000 0.045496 0.000000
# 6 0.000000 0.000000 0.000000 0.000000 0.000000 0.030480
#
#
# Mechanical properties :
#
#
# Convention : Reuss Voigt Hill
#
# Bulk Modulus (GPa) = 53.71952 55.92177 54.82065
# Shear Modulus (GPa) = 23.79005 25.10173 24.44589
#
# Velocity S-wave (km/s) = 3.15781 3.24369 3.20104
# Velocity P-wave (km/s) = 5.98435 6.12116 6.05314
#
# Compressibility (1/GPa) = 0.01861521
#
# Stress axis : x y z
#
# Youngs Moduli (GPa) = 63.78224 83.39057 55.76513
#
# Poissons Ratio (x) = 0.30184 0.26543
# Poissons Ratio (y) = 0.23087 0.28520
# Poissons Ratio (z) = 0.30359 0.42648
#
# Static dielectric constant tensor:
#      x y z
#    x 1.917370 0.000000 0.000000 
#    y 0.000000 1.925770 0.000000 
#    z 0.000000 0.000000 1.935550 
# 
# From -- ./inp_files/8515.got.cif
#   From: 2010.05.17/outbox.cif.g08.bks.cpg/sg61_5_cif.got.tgz:8515.got - 2010.06.03 15:17:17.
