data_PCOD9460645
_publ_section_title
;
Structure prediction by ZEFSAII (Michael W. Deem and Ramdas Pophale) SiO2 
 PCOD9460645
Probable space group: P B C A
;
_chemical_formula_sum "Si O2"
_cell_formula_units_Z 64
_cell_length_a 10.488122
_cell_length_b 9.462680
_cell_length_c 24.137586
_cell_angle_alpha 90.000000
_cell_angle_beta 90.000000
_cell_angle_gamma 90.000000
_cell_volume 2395.552640
_symmetry_space_group_name_H-M "P B C A"
_symmetry_group_IT_number 61
_symmetry_cell_setting 'orthorhombic'
loop_
_space_group_symop_operation_xyz
x,y,z
1/2-x,-y,1/2+z
1/2+x,1/2-y,-z
-x,1/2+y,1/2-z
-x,-y,-z
1/2+x,y,1/2-z
1/2-x,1/2+y,z
x,1/2-y,1/2+z
loop_
_atom_site_type_symbol
_atom_site_label
_atom_site_fract_x
_atom_site_fract_y
_atom_site_fract_z
Si Si1 0.535365 0.949264 0.299514
Si Si2 0.812995 0.522663 0.483737
Si Si3 0.062196 0.821254 0.639381
Si Si4 0.147034 0.327082 0.633708
Si Si5 0.229335 0.361183 0.273230
Si Si6 0.679516 0.738201 0.048526
Si Si7 0.065870 0.429861 0.068948
Si Si8 0.791295 0.603694 0.160467
O O1 0.545942 0.105919 0.324198
O O2 0.666481 0.916035 0.268594
O O3 0.417016 0.901607 0.261587
O O4 0.534107 0.842911 0.352423
O O5 0.854264 0.583887 0.423984
O O6 0.882988 0.391639 0.512920
O O7 0.784438 0.659271 0.520703
O O8 0.677074 0.439990 0.475621
O O9 0.208621 0.843393 0.655698
O O10 0.943570 0.892699 0.669881
O O11 0.048282 0.904007 0.581841
O O12 0.125181 0.163340 0.619226
O O13 0.255153 0.200311 0.288745
O O14 0.246890 0.445713 0.331042
O O15 0.563158 0.846463 0.059049
O O16 0.740567 0.666191 0.103084
#
# Coordination Sequence:
#
# PCOD9460645 Si02
#       8
#     8   8   8   8   8   8   8   8
#     4  11  27  47  77 107 145 190 236 314 369 447
#     4  11  24  44  66 108 139 185 253 292 370 442
#     4  10  23  45  74 100 140 188 237 295 370 428
#     4  11  24  46  71 106 143 188 241 309 365 439
#     4  11  27  49  72 110 144 189 247 295 378 442
#     4  12  24  44  71 103 145 199 239 307 365 437
#     4  11  23  44  70 101 144 189 242 302 362 442
#     4  11  25  47  70 105 148 189 239 301 364 444
#
# _framework density 26.716173000000001
#
# number of rings (size 3 to 8) (size 9 to 14) (size 15 to 20)
#    0.000    1.000    1.250    4.875    5.250    3.500 
#    4.500    0.000    0.000    0.000    0.000    0.000 
#    0.000    0.000    0.000    0.000    0.000    0.000 
#
# Total GULP energy -357902.194478 kJ/mol
# GULP energy per Si atom -5592.221789 kJ/mol
# Density = 2.665537 g / cm^3
# Si number density = 26.716173 Si / 1000 Ang^3
#
#
#
# Elastic Constant Matrix: (Units=GPa)
#
#
# Indices 1 2 3 4 5 6 
#
# 1 107.4381 10.3857 23.5291 0.0000 0.0000 0.0000
# 2 10.3857 87.0062 29.0055 0.0000 0.0000 0.0000
# 3 23.5291 29.0055 75.1939 0.0000 0.0000 0.0000
# 4 0.0000 0.0000 0.0000 51.8784 0.0000 0.0000
# 5 0.0000 0.0000 0.0000 0.0000 25.7148 0.0000
# 6 0.0000 0.0000 0.0000 0.0000 0.0000 34.9974
#
#
#
# Elastic Compliance Matrix: (Units=1/GPa)
#
#
# Indices 1 2 3 4 5 6 
#
# 1 0.009995 -0.000173 -0.003061 0.000000 0.000000 0.000000
# 2 -0.000173 0.013193 -0.005035 0.000000 0.000000 0.000000
# 3 -0.003061 -0.005035 0.016199 0.000000 0.000000 0.000000
# 4 0.000000 0.000000 0.000000 0.019276 0.000000 0.000000
# 5 0.000000 0.000000 0.000000 0.000000 0.038888 0.000000
# 6 0.000000 0.000000 0.000000 0.000000 0.000000 0.028574
#
#
# Mechanical properties :
#
#
# Convention : Reuss Voigt Hill
#
# Bulk Modulus (GPa) = 43.76493 43.94207 43.85350
# Shear Modulus (GPa) = 33.27191 36.29932 34.78561
#
# Velocity S-wave (km/s) = 3.53283 3.69006 3.61230
# Velocity P-wave (km/s) = 5.74962 5.88547 5.81795
#
# Compressibility (1/GPa) = 0.02284935
#
# Stress axis : x y z
#
# Youngs Moduli (GPa) = 100.05294 75.80039 61.73252
#
# Poissons Ratio (x) = 0.01309 0.18896
# Poissons Ratio (y) = 0.01727 0.31082
# Poissons Ratio (z) = 0.30625 0.38165
#
# Static dielectric constant tensor:
#      x y z
#    x 2.146750 0.000000 0.000000 
#    y 0.000000 2.059790 0.000000 
#    z 0.000000 0.000000 2.154830 
# 
# From -- ./inp_files/11785.got.cif
#   From: 2010.05.17/outbox.cif.g08.bks.cpg/sg61_6_cif.got.tgz:11785.got - 2010.06.03 15:17:17.
