data_PCOD9460464
_publ_section_title
;
Structure prediction by ZEFSAII (Michael W. Deem and Ramdas Pophale) SiO2 
 PCOD9460464
Probable space group: P B C A
;
_chemical_formula_sum "Si O2"
_cell_formula_units_Z 40
_cell_length_a 13.904537
_cell_length_b 13.577048
_cell_length_c 8.582949
_cell_angle_alpha 90.000000
_cell_angle_beta 90.000000
_cell_angle_gamma 90.000000
_cell_volume 1620.311138
_symmetry_space_group_name_H-M "P B C A"
_symmetry_group_IT_number 61
_symmetry_cell_setting 'orthorhombic'
loop_
_space_group_symop_operation_xyz
x,y,z
1/2-x,-y,1/2+z
1/2+x,1/2-y,-z
-x,1/2+y,1/2-z
-x,-y,-z
1/2+x,y,1/2-z
1/2-x,1/2+y,z
x,1/2-y,1/2+z
loop_
_atom_site_type_symbol
_atom_site_label
_atom_site_fract_x
_atom_site_fract_y
_atom_site_fract_z
Si Si1 0.099226 0.776402 0.871423
Si Si2 0.200290 0.218717 0.798500
Si Si3 0.867272 0.883897 0.518301
Si Si4 0.490287 0.634915 0.841998
Si Si5 0.932377 0.054730 0.347938
O O1 0.193099 0.707958 0.866760
O O2 0.014741 0.711923 0.795607
O O3 0.119474 0.862890 0.749471
O O4 0.065485 0.833760 0.025654
O O5 0.182152 0.177654 0.624195
O O6 0.117589 0.161290 0.895150
O O7 0.175257 0.333414 0.829022
O O8 0.981732 0.891858 0.559000
O O9 0.858776 0.995503 0.457419
O O10 0.482736 0.525969 0.768515
#
# Coordination Sequence:
#
# PCOD9460464 Si02
#       5
#     8   8   8   8   8
#     4  12  25  45  75 106 142 201 248 290 383 431
#     4  11  23  45  70 105 141 189 242 299 369 425
#     4  10  22  45  70 101 142 187 237 307 358 429
#     4  11  24  45  72 104 150 189 249 308 356 438
#     4  10  23  44  75 102 145 197 240 302 370 430
#
# _framework density 24.686616999999998
#
# number of rings (size 3 to 8) (size 9 to 14) (size 15 to 20)
#    0.000    1.200    2.000    4.200    2.800    0.000 
#   10.800    0.000    0.000    0.000    0.000    0.000 
#    0.000    0.000    0.000    0.000    0.000    0.000 
#
# Total GULP energy -222946.436802 kJ/mol
# GULP energy per Si atom -5573.660920 kJ/mol
# Density = 2.463043 g / cm^3
# Si number density = 24.686617 Si / 1000 Ang^3
#
#
#
# Elastic Constant Matrix: (Units=GPa)
#
#
# Indices 1 2 3 4 5 6 
#
# 1 101.0159 25.8369 31.5418 0.0000 0.0000 0.0000
# 2 25.8369 109.5585 55.2974 0.0000 0.0000 0.0000
# 3 31.5418 55.2974 84.2871 0.0000 0.0000 0.0000
# 4 0.0000 0.0000 0.0000 66.4935 0.0000 0.0000
# 5 0.0000 0.0000 0.0000 0.0000 20.5524 0.0000
# 6 0.0000 0.0000 0.0000 0.0000 0.0000 17.8240
#
#
#
# Elastic Compliance Matrix: (Units=1/GPa)
#
#
# Indices 1 2 3 4 5 6 
#
# 1 0.011255 -0.000790 -0.003693 0.000000 0.000000 0.000000
# 2 -0.000790 0.013702 -0.008694 0.000000 0.000000 0.000000
# 3 -0.003693 -0.008694 0.018950 0.000000 0.000000 0.000000
# 4 0.000000 0.000000 0.000000 0.015039 0.000000 0.000000
# 5 0.000000 0.000000 0.000000 0.000000 0.048656 0.000000
# 6 0.000000 0.000000 0.000000 0.000000 0.000000 0.056104
#
#
# Mechanical properties :
#
#
# Convention : Reuss Voigt Hill
#
# Bulk Modulus (GPa) = 56.97232 57.80153 57.38692
# Shear Modulus (GPa) = 25.52189 33.11968 29.32078
#
# Velocity S-wave (km/s) = 3.21882 3.66677 3.45007
# Velocity P-wave (km/s) = 6.07805 6.43365 6.25838
#
# Compressibility (1/GPa) = 0.01755238
#
# Stress axis : x y z
#
# Youngs Moduli (GPa) = 88.85128 72.98360 52.77090
#
# Poissons Ratio (x) = 0.05766 0.19491
# Poissons Ratio (y) = 0.07019 0.45876
# Poissons Ratio (z) = 0.32817 0.63448
#
# Static dielectric constant tensor:
#      x y z
#    x 2.002360 0.000000 0.000000 
#    y 0.000000 1.981230 0.000000 
#    z 0.000000 0.000000 2.085230 
# 
# From -- ./inp_files/2667.got.cif
#   From: 2010.05.17/outbox.cif.g08.bks.cpg/sg61_2_cif.got.tgz:2667.got - 2010.06.03 15:17:17.
