data_PCOD9460023
_publ_section_title
;
Structure prediction by ZEFSAII (Michael W. Deem and Ramdas Pophale) SiO2 
 PCOD9460023
Probable space group: P B C A
;
_chemical_formula_sum "Si O2"
_cell_formula_units_Z 48
_cell_length_a 14.445031
_cell_length_b 8.330251
_cell_length_c 15.549548
_cell_angle_alpha 90.000000
_cell_angle_beta 90.000000
_cell_angle_gamma 90.000000
_cell_volume 1871.088523
_symmetry_space_group_name_H-M "P B C A"
_symmetry_group_IT_number 61
_symmetry_cell_setting 'orthorhombic'
loop_
_space_group_symop_operation_xyz
x,y,z
1/2-x,-y,1/2+z
1/2+x,1/2-y,-z
-x,1/2+y,1/2-z
-x,-y,-z
1/2+x,y,1/2-z
1/2-x,1/2+y,z
x,1/2-y,1/2+z
loop_
_atom_site_type_symbol
_atom_site_label
_atom_site_fract_x
_atom_site_fract_y
_atom_site_fract_z
Si Si1 0.124752 0.800221 0.604411
Si Si2 0.188533 0.052566 0.053930
Si Si3 0.050577 0.047047 0.359670
Si Si4 0.742255 0.616673 0.623523
Si Si5 0.640721 0.897974 0.701791
Si Si6 0.549171 0.289488 0.819656
O O1 0.152426 0.626968 0.569228
O O2 0.020978 0.855635 0.580786
O O3 0.127691 0.805092 0.708647
O O4 0.203808 0.925185 0.577910
O O5 0.130130 0.169493 0.115063
O O6 0.187133 0.104270 0.954829
O O7 0.147417 0.981423 0.393465
O O8 0.298214 0.943286 0.292461
O O9 0.074184 0.156067 0.276772
O O10 0.795707 0.292203 0.639853
O O11 0.539415 0.904850 0.661077
O O12 0.490334 0.609159 0.671285
#
# Coordination Sequence:
#
# PCOD9460023 Si02
#       6
#     8   8   8   8   8   8
#     4  11  23  41  68  95 127 174 226 273 328 399
#     4  12  24  41  64  97 135 173 216 273 339 402
#     4  10  22  42  69 100 133 176 228 282 334 398
#     4  11  24  41  63  95 135 170 211 272 339 397
#     4  10  22  41  65  93 124 169 220 269 323 393
#     4  10  21  40  67  97 130 172 227 278 329 397
#
# _framework density 25.653517999999998
#
# number of rings (size 3 to 8) (size 9 to 14) (size 15 to 20)
#    0.000    1.333    0.000    7.000    0.000    6.667 
#    0.000    3.333    0.000    0.000    0.000    0.000 
#    0.000    0.000    0.000    0.000    0.000    0.000 
#
# Total GULP energy -268859.530874 kJ/mol
# GULP energy per Si atom -5601.240227 kJ/mol
# Density = 2.559513 g / cm^3
# Si number density = 25.653518 Si / 1000 Ang^3
#
#
#
# Elastic Constant Matrix: (Units=GPa)
#
#
# Indices 1 2 3 4 5 6 
#
# 1 99.5612 45.1720 3.5383 0.0000 0.0000 0.0000
# 2 45.1720 92.2275 5.1118 0.0000 0.0000 0.0000
# 3 3.5383 5.1118 57.5066 0.0000 0.0000 0.0000
# 4 0.0000 0.0000 0.0000 24.3885 0.0000 0.0000
# 5 0.0000 0.0000 0.0000 0.0000 35.8377 0.0000
# 6 0.0000 0.0000 0.0000 0.0000 0.0000 55.9449
#
#
#
# Elastic Compliance Matrix: (Units=1/GPa)
#
#
# Indices 1 2 3 4 5 6 
#
# 1 0.012917 -0.006314 -0.000234 0.000000 0.000000 0.000000
# 2 -0.006314 0.013982 -0.000854 0.000000 0.000000 0.000000
# 3 -0.000234 -0.000854 0.017480 0.000000 0.000000 0.000000
# 4 0.000000 0.000000 0.000000 0.041003 0.000000 0.000000
# 5 0.000000 0.000000 0.000000 0.000000 0.027904 0.000000
# 6 0.000000 0.000000 0.000000 0.000000 0.000000 0.017875
#
#
# Mechanical properties :
#
#
# Convention : Reuss Voigt Hill
#
# Bulk Modulus (GPa) = 33.81141 39.65995 36.73568
# Shear Modulus (GPa) = 32.08789 36.26578 34.17684
#
# Velocity S-wave (km/s) = 3.54053 3.76397 3.65396
# Velocity P-wave (km/s) = 5.47014 5.86373 5.67035
#
# Compressibility (1/GPa) = 0.02957582
#
# Stress axis : x y z
#
# Youngs Moduli (GPa) = 77.41777 71.51823 57.20942
#
# Poissons Ratio (x) = 0.45154 0.01336
# Poissons Ratio (y) = 0.48879 0.04888
# Poissons Ratio (z) = 0.01808 0.06111
#
# Static dielectric constant tensor:
#      x y z
#    x 1.994700 0.000000 0.000000 
#    y 0.000000 2.037550 0.000000 
#    z 0.000000 0.000000 2.046310 
# 
# From -- ./inp_files/9170.got.cif
#   From: 2010.05.17/outbox.cif.g08.bks.cpg/sg61_5_cif.got.tgz:9170.got - 2010.06.03 15:17:17.
