data_PCOD9460396
_publ_section_title
;
Structure prediction by ZEFSAII (Michael W. Deem and Ramdas Pophale) SiO2 
 PCOD9460396
Probable space group: P B C A
;
_chemical_formula_sum "Si O2"
_cell_formula_units_Z 36
_cell_length_a 8.912982
_cell_length_b 9.783003
_cell_length_c 14.143896
_cell_angle_alpha 90.000000
_cell_angle_beta 90.000000
_cell_angle_gamma 90.000000
_cell_volume 1233.287332
_symmetry_space_group_name_H-M "P B C A"
_symmetry_group_IT_number 61
_symmetry_cell_setting 'orthorhombic'
loop_
_space_group_symop_operation_xyz
x,y,z
1/2-x,-y,1/2+z
1/2+x,1/2-y,-z
-x,1/2+y,1/2-z
-x,-y,-z
1/2+x,y,1/2-z
1/2-x,1/2+y,z
x,1/2-y,1/2+z
loop_
_atom_site_type_symbol
_atom_site_label
_atom_site_fract_x
_atom_site_fract_y
_atom_site_fract_z
Si Si1 0.463384 0.789549 0.133216
Si Si2 0.000000 0.000000 0.000000
Si Si3 0.317569 0.592355 0.811009
Si Si4 0.438806 0.878408 0.807623
Si Si5 0.663988 0.722345 0.464369
O O1 0.389771 0.901249 0.203781
O O2 0.506632 0.674311 0.208838
O O3 0.589518 0.836343 0.059917
O O4 0.338765 0.713286 0.065551
O O5 0.872170 0.117100 0.971407
O O6 0.319430 0.755649 0.829059
O O7 0.166103 0.508933 0.795913
O O8 0.407440 0.537176 0.901001
O O9 0.565638 0.851741 0.885007
#
# Coordination Sequence:
#
# PCOD9460396 Si02
#       5
#     8   4   8   8   8
#     4  10  25  44  75 114 150 213 256 331 387 491
#     4  10  22  42  78 100 150 212 248 334 392 482
#     4   9  21  46  72 104 149 198 260 309 402 460
#     4   9  22  44  70 110 147 208 254 329 382 483
#     4  11  23  44  77 110 159 204 271 322 413 460
#
# _framework density 29.190279
#
# number of rings (size 3 to 8) (size 9 to 14) (size 15 to 20)
#    1.333    0.889    0.000    1.333    3.111    3.556 
#    4.000    1.111    0.000    4.000    0.000    0.000 
#    0.000    0.000    0.000    0.000    0.000    0.000 
#
# Total GULP energy -200579.891716 kJ/mol
# GULP energy per Si atom -5571.663659 kJ/mol
# Density = 2.912384 g / cm^3
# Si number density = 29.190279 Si / 1000 Ang^3
#
#
#
# Elastic Constant Matrix: (Units=GPa)
#
#
# Indices 1 2 3 4 5 6 
#
# 1 139.1094 6.7239 101.1088 0.0000 0.0000 0.0000
# 2 6.7239 42.5242 44.6300 0.0000 0.0000 0.0000
# 3 101.1088 44.6300 253.9635 0.0000 0.0000 0.0000
# 4 0.0000 0.0000 0.0000 79.7157 0.0000 0.0000
# 5 0.0000 0.0000 0.0000 0.0000 46.5474 0.0000
# 6 0.0000 0.0000 0.0000 0.0000 0.0000 18.6558
#
#
#
# Elastic Compliance Matrix: (Units=1/GPa)
#
#
# Indices 1 2 3 4 5 6 
#
# 1 0.010489 0.003340 -0.004763 0.000000 0.000000 0.000000
# 2 0.003340 0.029898 -0.006584 0.000000 0.000000 0.000000
# 3 -0.004763 -0.006584 0.006991 0.000000 0.000000 0.000000
# 4 0.000000 0.000000 0.000000 0.012545 0.000000 0.000000
# 5 0.000000 0.000000 0.000000 0.000000 0.021483 0.000000
# 6 0.000000 0.000000 0.000000 0.000000 0.000000 0.053603
#
#
# Mechanical properties :
#
#
# Convention : Reuss Voigt Hill
#
# Bulk Modulus (GPa) = 31.88319 82.28027 57.08173
# Shear Modulus (GPa) = 30.96430 47.85939 39.41185
#
# Velocity S-wave (km/s) = 3.26049 4.05355 3.67845
# Velocity P-wave (km/s) = 5.01205 7.08217 6.13505
#
# Compressibility (1/GPa) = 0.03136449
#
# Stress axis : x y z
#
# Youngs Moduli (GPa) = 95.33846 33.44727 143.04508
#
# Poissons Ratio (x) = -0.11172 0.68131
# Poissons Ratio (y) = -0.31845 0.94179
# Poissons Ratio (z) = 0.45409 0.22021
#
# Static dielectric constant tensor:
#      x y z
#    x 2.312840 0.000000 0.000000 
#    y 0.000000 1.917770 0.000000 
#    z 0.000000 0.000000 2.110300 
# 
# From -- ./inp_files/5079.got.cif
#   From: 2010.05.17/outbox.cif.g08.bks.cpg/sg61_3_cif.got.tgz:5079.got - 2010.06.03 15:17:17.
