data_PCOD9460898
_publ_section_title
;
Structure prediction by ZEFSAII (Michael W. Deem and Ramdas Pophale) SiO2 
 PCOD9460898
Probable space group: P B C A
;
_chemical_formula_sum "Si O2"
_cell_formula_units_Z 40
_cell_length_a 15.591989
_cell_length_b 22.691251
_cell_length_c 4.856807
_cell_angle_alpha 90.000000
_cell_angle_beta 90.000000
_cell_angle_gamma 90.000000
_cell_volume 1718.346748
_symmetry_space_group_name_H-M "P B C A"
_symmetry_group_IT_number 61
_symmetry_cell_setting 'orthorhombic'
loop_
_space_group_symop_operation_xyz
x,y,z
1/2-x,-y,1/2+z
1/2+x,1/2-y,-z
-x,1/2+y,1/2-z
-x,-y,-z
1/2+x,y,1/2-z
1/2-x,1/2+y,z
x,1/2-y,1/2+z
loop_
_atom_site_type_symbol
_atom_site_label
_atom_site_fract_x
_atom_site_fract_y
_atom_site_fract_z
Si Si1 0.862496 0.537140 0.572754
Si Si2 0.131058 0.597933 0.347127
Si Si3 0.863196 0.789842 0.438284
Si Si4 0.048386 0.088436 0.458099
Si Si5 0.221451 0.865256 0.333739
O O1 0.838570 0.469427 0.613457
O O2 0.785731 0.578772 0.677652
O O3 0.944836 0.547766 0.772023
O O4 0.112803 0.440572 0.731911
O O5 0.137313 0.624440 0.650276
O O6 0.040265 0.595231 0.199911
O O7 0.193476 0.635948 0.150046
O O8 0.877554 0.766721 0.746355
O O9 0.773465 0.812839 0.308879
O O10 0.922128 0.847730 0.430898
#
# Coordination Sequence:
#
# PCOD9460898 Si02
#       5
#     8   8   8   8   8
#     4  11  21  39  61  90 129 172 198 237 315 403
#     4  12  22  38  61  96 131 156 196 266 318 372
#     4  11  23  44  65  82 114 167 216 262 314 376
#     4  11  23  39  62  91 122 162 213 252 310 389
#     4  11  23  38  61  91 122 161 211 255 312 384
#
# _framework density 23.278189000000001
#
# number of rings (size 3 to 8) (size 9 to 14) (size 15 to 20)
#    0.000    0.800    0.000   10.800    0.000    0.000 
#    0.000    6.000    0.000    0.000    0.000    0.000 
#    0.000    0.000    0.000    0.000    0.000    0.000 
#
# Total GULP energy -223503.117552 kJ/mol
# GULP energy per Si atom -5587.577939 kJ/mol
# Density = 2.322521 g / cm^3
# Si number density = 23.278189 Si / 1000 Ang^3
#
#
#
# Elastic Constant Matrix: (Units=GPa)
#
#
# Indices 1 2 3 4 5 6 
#
# 1 43.4449 0.9928 10.4020 0.0000 0.0000 0.0000
# 2 0.9928 53.6330 7.2223 0.0000 0.0000 0.0000
# 3 10.4020 7.2223 90.5012 0.0000 0.0000 0.0000
# 4 0.0000 0.0000 0.0000 37.9396 0.0000 0.0000
# 5 0.0000 0.0000 0.0000 0.0000 34.3155 0.0000
# 6 0.0000 0.0000 0.0000 0.0000 0.0000 18.9052
#
#
#
# Elastic Compliance Matrix: (Units=1/GPa)
#
#
# Indices 1 2 3 4 5 6 
#
# 1 0.023669 -0.000073 -0.002715 0.000000 0.000000 0.000000
# 2 -0.000073 0.018848 -0.001496 0.000000 0.000000 0.000000
# 3 -0.002715 -0.001496 0.011481 0.000000 0.000000 0.000000
# 4 0.000000 0.000000 0.000000 0.026358 0.000000 0.000000
# 5 0.000000 0.000000 0.000000 0.000000 0.029141 0.000000
# 6 0.000000 0.000000 0.000000 0.000000 0.000000 0.052895
#
#
# Mechanical properties :
#
#
# Convention : Reuss Voigt Hill
#
# Bulk Modulus (GPa) = 22.01086 24.97926 23.49506
# Shear Modulus (GPa) = 26.86687 29.49622 28.18154
#
# Velocity S-wave (km/s) = 3.40099 3.56352 3.48320
# Velocity P-wave (km/s) = 4.98983 5.26171 5.12757
#
# Compressibility (1/GPa) = 0.04543212
#
# Stress axis : x y z
#
# Youngs Moduli (GPa) = 42.24883 53.05605 87.10066
#
# Poissons Ratio (x) = 0.00385 0.23645
# Poissons Ratio (y) = 0.00307 0.13028
# Poissons Ratio (z) = 0.11469 0.07936
#
# Static dielectric constant tensor:
#      x y z
#    x 1.928220 0.000000 0.000000 
#    y 0.000000 1.877090 0.000000 
#    z 0.000000 0.000000 1.843750 
# 
# From -- ./inp_files/431.got.cif
#   From: 2010.05.17/outbox.cif.g08.bks.cpg/sg61_1_cif.got.tgz:431.got - 2010.06.03 15:17:17.
