data_PCOD9460425
_publ_section_title
;
Structure prediction by ZEFSAII (Michael W. Deem and Ramdas Pophale) SiO2 
 PCOD9460425
Probable space group: P B C A
;
_chemical_formula_sum "Si O2"
_cell_formula_units_Z 64
_cell_length_a 28.744055
_cell_length_b 12.054544
_cell_length_c 8.781758
_cell_angle_alpha 90.000000
_cell_angle_beta 90.000000
_cell_angle_gamma 90.000000
_cell_volume 3042.848198
_symmetry_space_group_name_H-M "P B C A"
_symmetry_group_IT_number 61
_symmetry_cell_setting 'orthorhombic'
loop_
_space_group_symop_operation_xyz
x,y,z
1/2-x,-y,1/2+z
1/2+x,1/2-y,-z
-x,1/2+y,1/2-z
-x,-y,-z
1/2+x,y,1/2-z
1/2-x,1/2+y,z
x,1/2-y,1/2+z
loop_
_atom_site_type_symbol
_atom_site_label
_atom_site_fract_x
_atom_site_fract_y
_atom_site_fract_z
Si Si1 0.344435 0.791404 0.765371
Si Si2 0.979983 0.836116 0.023130
Si Si3 0.331471 0.400791 0.022864
Si Si4 0.066242 0.954776 0.124081
Si Si5 0.389884 0.005105 0.931549
Si Si6 0.569150 0.346066 0.345893
Si Si7 0.185728 0.822641 0.368069
Si Si8 0.211314 0.130835 0.984451
O O1 0.366187 0.895750 0.854754
O O2 0.385791 0.733173 0.671643
O O3 0.303874 0.834134 0.654216
O O4 0.323129 0.699670 0.875961
O O5 0.953424 0.855852 0.181371
O O6 0.033845 0.858667 0.056418
O O7 0.966307 0.717406 0.957303
O O8 0.960398 0.930513 0.909918
O O9 0.383087 0.450663 0.046882
O O10 0.316569 0.353879 0.189281
O O11 0.298080 0.500244 0.973151
O O12 0.330008 0.302003 0.902651
O O13 0.075238 0.947233 0.304075
O O14 0.349780 0.094729 0.953108
O O15 0.415111 0.961418 0.081180
O O16 0.236829 0.839609 0.436172
#
# Coordination Sequence:
#
# PCOD9460425 Si02
#       8
#     8   8   8   8   8   8   8   8
#     4  12  21  41  69  98 132 171 213 284 333 387
#     4  11  22  37  67  98 126 167 224 279 321 421
#     4  11  25  47  64  92 140 176 215 274 336 400
#     4  10  22  44  62  89 134 175 212 273 349 379
#     4  11  23  43  65  93 138 172 215 279 332 394
#     4  12  21  39  67 100 125 168 226 270 344 386
#     4  11  27  43  66  95 134 179 224 266 332 401
#     4  12  25  42  71  99 131 174 228 277 329 395
#
# _framework density 21.032927000000001
#
# number of rings (size 3 to 8) (size 9 to 14) (size 15 to 20)
#    0.000    0.750    6.250    1.500    1.750    6.500 
#    0.000    1.250    0.000    0.000    0.000    0.000 
#    0.000    0.000    0.000    0.000    0.000    0.000 
#
# Total GULP energy -358124.379473 kJ/mol
# GULP energy per Si atom -5595.693429 kJ/mol
# Density = 2.098506 g / cm^3
# Si number density = 21.032927 Si / 1000 Ang^3
#
#
#
# Elastic Constant Matrix: (Units=GPa)
#
#
# Indices 1 2 3 4 5 6 
#
# 1 40.6802 -21.7357 -0.8903 0.0000 0.0000 0.0000
# 2 -21.7357 66.1673 -3.0525 0.0000 0.0000 0.0000
# 3 -0.8903 -3.0525 36.4261 0.0000 0.0000 0.0000
# 4 0.0000 0.0000 0.0000 17.6648 0.0000 0.0000
# 5 0.0000 0.0000 0.0000 0.0000 9.3529 0.0000
# 6 0.0000 0.0000 0.0000 0.0000 0.0000 24.6430
#
#
#
# Elastic Compliance Matrix: (Units=1/GPa)
#
#
# Indices 1 2 3 4 5 6 
#
# 1 0.029903 0.009895 0.001560 0.000000 0.000000 0.000000
# 2 0.009895 0.018446 0.001788 0.000000 0.000000 0.000000
# 3 0.001560 0.001788 0.027641 0.000000 0.000000 0.000000
# 4 0.000000 0.000000 0.000000 0.056610 0.000000 0.000000
# 5 0.000000 0.000000 0.000000 0.000000 0.106919 0.000000
# 6 0.000000 0.000000 0.000000 0.000000 0.000000 0.040579
#
#
# Mechanical properties :
#
#
# Convention : Reuss Voigt Hill
#
# Bulk Modulus (GPa) = 9.75842 10.21295 9.98568
# Shear Modulus (GPa) = 17.37493 21.59562 19.48528
#
# Velocity S-wave (km/s) = 2.87728 3.20777 3.04701
# Velocity P-wave (km/s) = 3.96081 4.31115 4.13969
#
# Compressibility (1/GPa) = 0.10247557
#
# Stress axis : x y z
#
# Youngs Moduli (GPa) = 33.44138 54.21184 36.17842
#
# Poissons Ratio (x) = -0.53643 -0.05644
# Poissons Ratio (y) = -0.33090 -0.06467
# Poissons Ratio (z) = -0.05217 -0.09691
#
# Static dielectric constant tensor:
#      x y z
#    x 1.744020 0.000000 0.000000 
#    y 0.000000 1.733490 0.000000 
#    z 0.000000 0.000000 1.759290 
# 
# From -- ./inp_files/4623.got.cif
#   From: 2010.05.17/outbox.cif.g08.bks.cpg/sg61_3_cif.got.tgz:4623.got - 2010.06.03 15:17:17.
