data_PCOD9460786
_publ_section_title
;
Structure prediction by ZEFSAII (Michael W. Deem and Ramdas Pophale) SiO2 
 PCOD9460786
Probable space group: P B C A
;
_chemical_formula_sum "Si O2"
_cell_formula_units_Z 56
_cell_length_a 29.109798
_cell_length_b 5.750761
_cell_length_c 14.185275
_cell_angle_alpha 90.000000
_cell_angle_beta 90.000000
_cell_angle_gamma 90.000000
_cell_volume 2374.664557
_symmetry_space_group_name_H-M "P B C A"
_symmetry_group_IT_number 61
_symmetry_cell_setting 'orthorhombic'
loop_
_space_group_symop_operation_xyz
x,y,z
1/2-x,-y,1/2+z
1/2+x,1/2-y,-z
-x,1/2+y,1/2-z
-x,-y,-z
1/2+x,y,1/2-z
1/2-x,1/2+y,z
x,1/2-y,1/2+z
loop_
_atom_site_type_symbol
_atom_site_label
_atom_site_fract_x
_atom_site_fract_y
_atom_site_fract_z
Si Si1 0.730005 0.578238 0.890564
Si Si2 0.624936 0.881782 0.346123
Si Si3 0.566796 0.772361 0.999066
Si Si4 0.377975 0.415778 0.831257
Si Si5 0.010192 0.114756 0.383379
Si Si6 0.228817 0.575779 0.382684
Si Si7 0.562347 0.270882 0.299523
O O1 0.754366 0.337891 0.857275
O O2 0.676760 0.554468 0.865568
O O3 0.735270 0.581190 0.004018
O O4 0.607477 0.693294 0.422548
O O5 0.619210 0.806935 0.237855
O O6 0.588909 0.085986 0.361766
O O7 0.588642 0.607606 0.079157
O O8 0.550785 0.998601 0.057772
O O9 0.519767 0.704644 0.944074
O O10 0.325299 0.446183 0.860464
O O11 0.397654 0.609079 0.761701
O O12 0.028288 0.181620 0.281730
O O13 0.970292 0.928294 0.362084
O O14 0.253107 0.332923 0.349501
#
# Coordination Sequence:
#
# PCOD9460786 Si02
#       7
#     8   8   8   8   8   8   8
#     4  10  24  47  76 109 149 196 247 307 378 461
#     4  12  26  47  72 109 146 187 252 305 374 449
#     4  11  24  47  70 104 136 202 234 304 366 447
#     4  12  26  47  72 109 146 187 252 305 374 449
#     4  11  24  44  74 101 148 193 252 298 382 439
#     4  10  24  47  76 109 149 196 247 307 378 461
#     4  12  26  46  72 108 144 194 242 324 358 456
#
# _framework density 23.582277999999999
#
# number of rings (size 3 to 8) (size 9 to 14) (size 15 to 20)
#    0.000    0.857    4.286    1.714    4.000    4.571 
#    5.143    0.000    0.000    0.000    0.000    0.000 
#    0.000    0.000    0.000    0.000    0.000    0.000 
#
# Total GULP energy -312807.760566 kJ/mol
# GULP energy per Si atom -5585.852867 kJ/mol
# Density = 2.352860 g / cm^3
# Si number density = 23.582278 Si / 1000 Ang^3
#
#
#
# Elastic Constant Matrix: (Units=GPa)
#
#
# Indices 1 2 3 4 5 6 
#
# 1 92.2447 66.7738 46.1870 0.0000 0.0000 0.0000
# 2 66.7738 119.1661 42.3827 0.0000 0.0000 0.0000
# 3 46.1870 42.3827 21.8494 0.0000 0.0000 0.0000
# 4 0.0000 0.0000 0.0000 24.2002 0.0000 0.0000
# 5 0.0000 0.0000 0.0000 0.0000 42.8765 0.0000
# 6 0.0000 0.0000 0.0000 0.0000 0.0000 40.8112
#
#
#
# Elastic Compliance Matrix: (Units=1/GPa)
#
#
# Indices 1 2 3 4 5 6 
#
# 1 -0.051338 -0.031700 0.170014 0.000000 0.000000 0.000000
# 2 -0.031700 0.007487 0.052488 0.000000 0.000000 0.000000
# 3 0.170014 0.052488 -0.415435 0.000000 0.000000 0.000000
# 4 0.000000 0.000000 0.000000 0.041322 0.000000 0.000000
# 5 0.000000 0.000000 0.000000 0.000000 0.023323 0.000000
# 6 0.000000 0.000000 0.000000 0.000000 0.000000 0.024503
#
#
# Mechanical properties :
#
#
# Convention : Reuss Voigt Hill
#
# Bulk Modulus (GPa) = -12.87276 60.43855 23.78290
# Shear Modulus (GPa) = -6.42975 26.77203 10.17114
#
# Velocity S-wave (km/s) = -1.65301 3.37302 2.07904
# Velocity P-wave (km/s) = 3.01890 6.39172 3.98374
#
# Compressibility (1/GPa) = -0.07768344
#
# Stress axis : x y z
#
# Youngs Moduli (GPa) = -19.47868 133.56989 -2.40712
#
# Poissons Ratio (x) = 4.23419 0.40924
# Poissons Ratio (y) = -0.61748 0.12634
# Poissons Ratio (z) = 3.31164 -7.01080
#
# Static dielectric constant tensor:
#      x y z
#    x 1.814100 0.000000 0.000000 
#    y 0.000000 1.971300 0.000000 
#    z 0.000000 0.000000 1.922110 
# 
# From -- ./inp_files/8658.got.cif
#   From: 2010.05.17/outbox.cif.g08.bks.cpg/sg61_5_cif.got.tgz:8658.got - 2010.06.03 15:17:17.
