data_PCOD9460260
_publ_section_title
;
Structure prediction by ZEFSAII (Michael W. Deem and Ramdas Pophale) SiO2 
 PCOD9460260
Probable space group: P B C A
;
_chemical_formula_sum "Si O2"
_cell_formula_units_Z 64
_cell_length_a 16.779486
_cell_length_b 14.912892
_cell_length_c 12.722418
_cell_angle_alpha 90.000000
_cell_angle_beta 90.000000
_cell_angle_gamma 90.000000
_cell_volume 3183.539085
_symmetry_space_group_name_H-M "P B C A"
_symmetry_group_IT_number 61
_symmetry_cell_setting 'orthorhombic'
loop_
_space_group_symop_operation_xyz
x,y,z
1/2-x,-y,1/2+z
1/2+x,1/2-y,-z
-x,1/2+y,1/2-z
-x,-y,-z
1/2+x,y,1/2-z
1/2-x,1/2+y,z
x,1/2-y,1/2+z
loop_
_atom_site_type_symbol
_atom_site_label
_atom_site_fract_x
_atom_site_fract_y
_atom_site_fract_z
Si Si1 0.995258 0.646267 0.803710
Si Si2 0.950484 0.089044 0.478997
Si Si3 0.209337 0.148757 0.200062
Si Si4 0.027921 0.501285 0.377908
Si Si5 0.692197 0.352462 0.350698
Si Si6 0.710526 0.499022 0.172527
Si Si7 0.778762 0.478450 0.962438
Si Si8 0.471647 0.659430 0.270728
O O1 0.000595 0.575528 0.706771
O O2 0.904359 0.647017 0.850160
O O3 0.004895 0.743521 0.755833
O O4 0.051109 0.632974 0.905384
O O5 0.864818 0.061587 0.432182
O O6 0.999039 0.138357 0.387764
O O7 0.000000 0.000000 0.500000
O O8 0.224307 0.251542 0.163445
O O9 0.268793 0.095621 0.277809
O O10 0.213689 0.081056 0.099729
O O11 0.123902 0.154371 0.257293
O O12 0.123413 0.497827 0.377488
O O13 0.000000 0.500000 0.500000
O O14 0.003055 0.590920 0.316917
O O15 0.713542 0.419985 0.256931
O O16 0.724668 0.414217 0.444596
O O17 0.772612 0.470060 0.085625
#
# Coordination Sequence:
#
# PCOD9460260 Si02
#       8
#     8   8   8   8   8   8   8   8
#     4  10  23  41  66  93 126 165 219 265 319 391
#     4  12  21  42  70  92 125 172 220 268 315 383
#     4  10  22  40  61  92 123 162 210 261 320 385
#     4  11  23  43  63  91 134 172 210 268 329 388
#     4   9  20  41  62  84 124 166 202 256 316 382
#     4  10  22  41  59  89 124 167 204 256 318 378
#     4  11  22  41  64  92 126 165 213 263 316 379
#     4  11  23  41  66  95 123 168 217 265 325 391
#
# _framework density 20.103413
#
# number of rings (size 3 to 8) (size 9 to 14) (size 15 to 20)
#    0.000    1.500    2.500    3.000    1.750    1.000 
#   11.250    0.000    0.000    0.000    0.000    0.000 
#    0.000    0.000    0.000    0.000    0.000    0.000 
#
# Total GULP energy -356680.965772 kJ/mol
# GULP energy per Si atom -5573.140090 kJ/mol
# Density = 2.005766 g / cm^3
# Si number density = 20.103413 Si / 1000 Ang^3
#
#
#
# Elastic Constant Matrix: (Units=GPa)
#
#
# Indices 1 2 3 4 5 6 
#
# 1 30.2764 29.7466 27.4065 0.0000 0.0000 0.0000
# 2 29.7466 123.4796 28.4651 0.0000 0.0000 0.0000
# 3 27.4065 28.4651 94.3530 0.0000 0.0000 0.0000
# 4 0.0000 0.0000 0.0000 26.7691 0.0000 0.0000
# 5 0.0000 0.0000 0.0000 0.0000 31.4396 0.0000
# 6 0.0000 0.0000 0.0000 0.0000 0.0000 23.7012
#
#
#
# Elastic Compliance Matrix: (Units=1/GPa)
#
#
# Indices 1 2 3 4 5 6 
#
# 1 0.054643 -0.010215 -0.012790 0.000000 0.000000 0.000000
# 2 -0.010215 0.010614 -0.000235 0.000000 0.000000 0.000000
# 3 -0.012790 -0.000235 0.014385 0.000000 0.000000 0.000000
# 4 0.000000 0.000000 0.000000 0.037357 0.000000 0.000000
# 5 0.000000 0.000000 0.000000 0.000000 0.031807 0.000000
# 6 0.000000 0.000000 0.000000 0.000000 0.000000 0.042192
#
#
# Mechanical properties :
#
#
# Convention : Reuss Voigt Hill
#
# Bulk Modulus (GPa) = 30.15619 46.59392 38.37506
# Shear Modulus (GPa) = 20.11821 27.21471 23.66646
#
# Velocity S-wave (km/s) = 3.16687 3.68331 3.43481
# Velocity P-wave (km/s) = 5.32965 6.42779 5.90431
#
# Compressibility (1/GPa) = 0.03316069
#
# Stress axis : x y z
#
# Youngs Moduli (GPa) = 18.30047 94.21960 69.51922
#
# Poissons Ratio (x) = 0.96248 0.88918
# Poissons Ratio (y) = 0.18694 0.01632
# Poissons Ratio (z) = 0.23407 0.02212
#
# Static dielectric constant tensor:
#      x y z
#    x 1.756410 0.000000 0.000000 
#    y 0.000000 1.704470 0.000000 
#    z 0.000000 0.000000 1.719340 
# 
# From -- ./inp_files/6308.got.cif
#   From: 2010.05.17/outbox.cif.g08.bks.cpg/sg61_4_cif.got.tgz:6308.got - 2010.06.03 15:17:17.
