data_PCOD9460064
_publ_section_title
;
Structure prediction by ZEFSAII (Michael W. Deem and Ramdas Pophale) SiO2 
 PCOD9460064
Probable space group: P B C A
;
_chemical_formula_sum "Si O2"
_cell_formula_units_Z 40
_cell_length_a 7.777669
_cell_length_b 13.126967
_cell_length_c 18.937309
_cell_angle_alpha 90.000000
_cell_angle_beta 90.000000
_cell_angle_gamma 90.000000
_cell_volume 1933.446306
_symmetry_space_group_name_H-M "P B C A"
_symmetry_group_IT_number 61
_symmetry_cell_setting 'orthorhombic'
loop_
_space_group_symop_operation_xyz
x,y,z
1/2-x,-y,1/2+z
1/2+x,1/2-y,-z
-x,1/2+y,1/2-z
-x,-y,-z
1/2+x,y,1/2-z
1/2-x,1/2+y,z
x,1/2-y,1/2+z
loop_
_atom_site_type_symbol
_atom_site_label
_atom_site_fract_x
_atom_site_fract_y
_atom_site_fract_z
Si Si1 0.670447 0.376684 0.827883
Si Si2 0.522187 0.759062 0.371211
Si Si3 0.612682 0.546071 0.937050
Si Si4 0.603602 0.092873 0.033631
Si Si5 0.734388 0.622259 0.177461
O O1 0.800501 0.282445 0.838197
O O2 0.696289 0.456363 0.891411
O O3 0.723566 0.426292 0.752959
O O4 0.466933 0.354071 0.828458
O O5 0.514392 0.877889 0.385423
O O6 0.498556 0.693633 0.443737
O O7 0.359663 0.720841 0.325521
O O8 0.500000 0.500000 0.000000
O O9 0.753680 0.615904 0.975431
O O10 0.698621 0.063257 0.107631
O O11 0.500000 0.000000 0.000000
#
# Coordination Sequence:
#
# PCOD9460064 Si02
#       5
#     8   8   8   8   8
#     4  12  22  46  68  96 139 181 225 282 339 406
#     4  10  25  42  66  98 135 176 227 273 347 399
#     4  12  24  43  70 103 132 177 228 282 342 400
#     4  10  21  41  66  98 132 175 223 282 333 402
#     4  10  22  44  68  93 140 178 222 284 333 404
#
# _framework density 20.688445000000002
#
# number of rings (size 3 to 8) (size 9 to 14) (size 15 to 20)
#    1.200    0.000    6.000    0.000    2.800    0.000 
#    7.200    0.000    0.000    0.000    0.000    0.000 
#    0.000    0.000    0.000    0.000    0.000    0.000 
#
# Total GULP energy -222802.741466 kJ/mol
# GULP energy per Si atom -5570.068537 kJ/mol
# Density = 2.064136 g / cm^3
# Si number density = 20.688445 Si / 1000 Ang^3
#
#
#
# Elastic Constant Matrix: (Units=GPa)
#
#
# Indices 1 2 3 4 5 6 
#
# 1 126.4478 15.5141 26.7176 0.0000 0.0000 0.0000
# 2 15.5141 42.9994 6.5814 0.0000 0.0000 0.0000
# 3 26.7176 6.5814 104.3156 0.0000 0.0000 0.0000
# 4 0.0000 0.0000 0.0000 25.1296 0.0000 0.0000
# 5 0.0000 0.0000 0.0000 0.0000 46.2343 0.0000
# 6 0.0000 0.0000 0.0000 0.0000 0.0000 21.9649
#
#
#
# Elastic Compliance Matrix: (Units=1/GPa)
#
#
# Indices 1 2 3 4 5 6 
#
# 1 0.008687 -0.002821 -0.002047 0.000000 0.000000 0.000000
# 2 -0.002821 0.024399 -0.000817 0.000000 0.000000 0.000000
# 3 -0.002047 -0.000817 0.010162 0.000000 0.000000 0.000000
# 4 0.000000 0.000000 0.000000 0.039794 0.000000 0.000000
# 5 0.000000 0.000000 0.000000 0.000000 0.021629 0.000000
# 6 0.000000 0.000000 0.000000 0.000000 0.000000 0.045527
#
#
# Mechanical properties :
#
#
# Convention : Reuss Voigt Hill
#
# Bulk Modulus (GPa) = 31.36906 41.26545 36.31726
# Shear Modulus (GPa) = 29.03707 33.66241 31.34974
#
# Velocity S-wave (km/s) = 3.75045 4.03812 3.89694
# Velocity P-wave (km/s) = 5.82666 6.45998 6.15148
#
# Compressibility (1/GPa) = 0.03187854
#
# Stress axis : x y z
#
# Youngs Moduli (GPa) = 115.11424 40.98537 98.40485
#
# Poissons Ratio (x) = 0.11562 0.20143
# Poissons Ratio (y) = 0.32473 0.08038
# Poissons Ratio (z) = 0.23564 0.03348
#
# Static dielectric constant tensor:
#      x y z
#    x 1.788150 0.000000 0.000000 
#    y 0.000000 1.719460 0.000000 
#    z 0.000000 0.000000 1.808970 
# 
# From -- ./inp_files/8848.got.cif
#   From: 2010.05.17/outbox.cif.g08.bks.cpg/sg61_5_cif.got.tgz:8848.got - 2010.06.03 15:17:17.
