data_PCOD9460888
_publ_section_title
;
Structure prediction by ZEFSAII (Michael W. Deem and Ramdas Pophale) SiO2 
 PCOD9460888
Probable space group: P B C A
;
_chemical_formula_sum "Si O2"
_cell_formula_units_Z 40
_cell_length_a 8.512845
_cell_length_b 8.947073
_cell_length_c 17.934739
_cell_angle_alpha 90.000000
_cell_angle_beta 90.000000
_cell_angle_gamma 90.000000
_cell_volume 1366.000215
_symmetry_space_group_name_H-M "P B C A"
_symmetry_group_IT_number 61
_symmetry_cell_setting 'orthorhombic'
loop_
_space_group_symop_operation_xyz
x,y,z
1/2-x,-y,1/2+z
1/2+x,1/2-y,-z
-x,1/2+y,1/2-z
-x,-y,-z
1/2+x,y,1/2-z
1/2-x,1/2+y,z
x,1/2-y,1/2+z
loop_
_atom_site_type_symbol
_atom_site_label
_atom_site_fract_x
_atom_site_fract_y
_atom_site_fract_z
Si Si1 0.030300 0.220427 0.470111
Si Si2 0.941344 0.069744 0.612043
Si Si3 0.363012 0.258619 0.760456
Si Si4 0.760885 0.112221 0.374441
Si Si5 0.547468 0.053256 0.645728
O O1 0.109461 0.358203 0.428147
O O2 0.007774 0.198079 0.557635
O O3 0.114654 0.069058 0.438961
O O4 0.849873 0.202418 0.439172
O O5 0.094649 0.996294 0.649493
O O6 0.833044 0.132088 0.677257
O O7 0.229109 0.295813 0.700482
O O8 0.490458 0.182520 0.704055
O O9 0.391616 0.407787 0.809263
O O10 0.613218 0.013726 0.390798
#
# Coordination Sequence:
#
# PCOD9460888 Si02
#       5
#     8   8   8   8   8
#     4   8  19  37  60  83 112 157 192 249 292 351
#     4   9  18  38  60  84 117 151 193 247 303 330
#     4  11  21  35  60  89 119 155 194 258 280 350
#     4   9  20  34  61  84 116 161 196 228 293 365
#     4  11  21  36  61  89 117 160 205 229 305 352
#
# _framework density 29.282572999999999
#
# number of rings (size 3 to 8) (size 9 to 14) (size 15 to 20)
#    1.200    1.200    2.000    0.000    5.600    0.800 
#    0.000    2.000    4.400    0.000    0.000    0.000 
#    0.000    0.000    0.000    0.000    0.000    0.000 
#
# Total GULP energy -223567.864545 kJ/mol
# GULP energy per Si atom -5589.196614 kJ/mol
# Density = 2.921592 g / cm^3
# Si number density = 29.282573 Si / 1000 Ang^3
#
#
#
# Elastic Constant Matrix: (Units=GPa)
#
#
# Indices 1 2 3 4 5 6 
#
# 1 22.7597 25.6893 6.6930 0.0000 0.0000 0.0000
# 2 25.6893 187.6497 57.5281 0.0000 0.0000 0.0000
# 3 6.6930 57.5281 151.3379 0.0000 0.0000 0.0000
# 4 0.0000 0.0000 0.0000 66.2776 0.0000 0.0000
# 5 0.0000 0.0000 0.0000 0.0000 36.9660 0.0000
# 6 0.0000 0.0000 0.0000 0.0000 0.0000 51.0912
#
#
#
# Elastic Compliance Matrix: (Units=1/GPa)
#
#
# Indices 1 2 3 4 5 6 
#
# 1 0.051996 -0.007259 0.000460 0.000000 0.000000 0.000000
# 2 -0.007259 0.007046 -0.002357 0.000000 0.000000 0.000000
# 3 0.000460 -0.002357 0.007483 0.000000 0.000000 0.000000
# 4 0.000000 0.000000 0.000000 0.015088 0.000000 0.000000
# 5 0.000000 0.000000 0.000000 0.000000 0.027052 0.000000
# 6 0.000000 0.000000 0.000000 0.000000 0.000000 0.019573
#
#
# Mechanical properties :
#
#
# Convention : Reuss Voigt Hill
#
# Bulk Modulus (GPa) = 20.74191 60.17424 40.45807
# Shear Modulus (GPa) = 30.74638 48.98942 39.86790
#
# Velocity S-wave (km/s) = 3.24387 4.09466 3.69384
# Velocity P-wave (km/s) = 4.59663 6.55355 5.66030
#
# Compressibility (1/GPa) = 0.04821156
#
# Stress axis : x y z
#
# Youngs Moduli (GPa) = 19.23241 141.93439 133.62880
#
# Poissons Ratio (x) = 1.03033 -0.06146
# Poissons Ratio (y) = 0.13961 0.31499
# Poissons Ratio (z) = -0.00885 0.33456
#
# Static dielectric constant tensor:
#      x y z
#    x 2.492660 0.000000 0.000000 
#    y 0.000000 2.252820 0.000000 
#    z 0.000000 0.000000 2.213220 
# 
# From -- ./inp_files/9395.got.cif
#   From: 2010.05.17/outbox.cif.g08.bks.cpg/sg61_5_cif.got.tgz:9395.got - 2010.06.03 15:17:17.
