data_PCOD9460405
_publ_section_title
;
Structure prediction by ZEFSAII (Michael W. Deem and Ramdas Pophale) SiO2 
 PCOD9460405
Probable space group: P B C A
;
_chemical_formula_sum "Si O2"
_cell_formula_units_Z 32
_cell_length_a 14.319003
_cell_length_b 9.401908
_cell_length_c 8.722108
_cell_angle_alpha 90.000000
_cell_angle_beta 90.000000
_cell_angle_gamma 90.000000
_cell_volume 1174.222066
_symmetry_space_group_name_H-M "P B C A"
_symmetry_group_IT_number 61
_symmetry_cell_setting 'orthorhombic'
loop_
_space_group_symop_operation_xyz
x,y,z
1/2-x,-y,1/2+z
1/2+x,1/2-y,-z
-x,1/2+y,1/2-z
-x,-y,-z
1/2+x,y,1/2-z
1/2-x,1/2+y,z
x,1/2-y,1/2+z
loop_
_atom_site_type_symbol
_atom_site_label
_atom_site_fract_x
_atom_site_fract_y
_atom_site_fract_z
Si Si1 0.516009 0.726804 0.942279
Si Si2 0.941553 0.548994 0.274190
Si Si3 0.785240 0.185366 0.077775
Si Si4 0.770504 0.555157 0.776741
O O1 0.514543 0.605182 0.809906
O O2 0.475097 0.870738 0.876182
O O3 0.463313 0.652972 0.083270
O O4 0.624238 0.746408 0.990800
O O5 0.831951 0.516690 0.272136
O O6 0.732057 0.308564 0.166883
O O7 0.828017 0.069453 0.196110
O O8 0.721716 0.108139 0.950065
#
# Coordination Sequence:
#
# PCOD9460405 Si02
#       4
#     8   8   8   8
#     4  10  22  43  67 100 135 175 224 277 332 398
#     4  10  23  41  66  95 131 173 222 274 332 391
#     4  11  24  44  68  98 137 175 224 277 336 398
#     4  11  25  44  67  97 133 178 222 279 336 404
#
# _framework density 27.252082999999999
#
# number of rings (size 3 to 8) (size 9 to 14) (size 15 to 20)
#    0.000    1.500    0.000    4.500    0.000   12.000 
#    0.000    0.000    0.000    0.000    0.000    0.000 
#    0.000    0.000    0.000    0.000    0.000    0.000 
#
# Total GULP energy -179719.792911 kJ/mol
# GULP energy per Si atom -5616.243528 kJ/mol
# Density = 2.719006 g / cm^3
# Si number density = 27.252083 Si / 1000 Ang^3
#
#
#
# Elastic Constant Matrix: (Units=GPa)
#
#
# Indices 1 2 3 4 5 6 
#
# 1 49.8863 12.9376 23.3331 0.0000 0.0000 0.0000
# 2 12.9376 118.3066 74.8843 0.0000 0.0000 0.0000
# 3 23.3331 74.8843 140.6396 0.0000 0.0000 0.0000
# 4 0.0000 0.0000 0.0000 56.5773 0.0000 0.0000
# 5 0.0000 0.0000 0.0000 0.0000 42.8495 0.0000
# 6 0.0000 0.0000 0.0000 0.0000 0.0000 42.0302
#
#
#
# Elastic Compliance Matrix: (Units=1/GPa)
#
#
# Indices 1 2 3 4 5 6 
#
# 1 0.021734 -0.000142 -0.003530 0.000000 0.000000 0.000000
# 2 -0.000142 0.012751 -0.006765 0.000000 0.000000 0.000000
# 3 -0.003530 -0.006765 0.011298 0.000000 0.000000 0.000000
# 4 0.000000 0.000000 0.000000 0.017675 0.000000 0.000000
# 5 0.000000 0.000000 0.000000 0.000000 0.023337 0.000000
# 6 0.000000 0.000000 0.000000 0.000000 0.000000 0.023792
#
#
# Mechanical properties :
#
#
# Convention : Reuss Voigt Hill
#
# Bulk Modulus (GPa) = 40.14963 59.01585 49.58274
# Shear Modulus (GPa) = 35.77434 41.46991 38.62212
#
# Velocity S-wave (km/s) = 3.62708 3.90515 3.76868
# Velocity P-wave (km/s) = 5.68380 6.48353 6.09679
#
# Compressibility (1/GPa) = 0.02490683
#
# Stress axis : x y z
#
# Youngs Moduli (GPa) = 46.01181 78.42828 88.50874
#
# Poissons Ratio (x) = 0.01117 0.31243
# Poissons Ratio (y) = 0.00655 0.59880
# Poissons Ratio (z) = 0.16242 0.53060
#
# Static dielectric constant tensor:
#      x y z
#    x 2.176630 0.000000 0.000000 
#    y 0.000000 2.101340 0.000000 
#    z 0.000000 0.000000 2.150640 
# 
# From -- ./inp_files/3769.got.cif
#   From: 2010.05.17/outbox.cif.g08.bks.cpg/sg61_2_cif.got.tgz:3769.got - 2010.06.03 15:17:17.
