data_PCOD9460675
_publ_section_title
;
Structure prediction by ZEFSAII (Michael W. Deem and Ramdas Pophale) SiO2 
 PCOD9460675
Probable space group: P B C A
;
_chemical_formula_sum "Si O2"
_cell_formula_units_Z 52
_cell_length_a 7.903104
_cell_length_b 12.501711
_cell_length_c 22.712255
_cell_angle_alpha 90.000000
_cell_angle_beta 90.000000
_cell_angle_gamma 90.000000
_cell_volume 2244.023537
_symmetry_space_group_name_H-M "P B C A"
_symmetry_group_IT_number 61
_symmetry_cell_setting 'orthorhombic'
loop_
_space_group_symop_operation_xyz
x,y,z
1/2-x,-y,1/2+z
1/2+x,1/2-y,-z
-x,1/2+y,1/2-z
-x,-y,-z
1/2+x,y,1/2-z
1/2-x,1/2+y,z
x,1/2-y,1/2+z
loop_
_atom_site_type_symbol
_atom_site_label
_atom_site_fract_x
_atom_site_fract_y
_atom_site_fract_z
Si Si1 0.325822 0.359920 0.890407
Si Si2 0.263572 0.294970 0.501461
Si Si3 0.538627 0.083330 0.583660
Si Si4 0.824799 0.610988 0.905484
Si Si5 0.629616 0.232421 0.312217
Si Si6 0.000000 0.500000 0.000000
Si Si7 0.980900 0.725766 0.177356
O O1 0.316405 0.280608 0.946285
O O2 0.346695 0.480069 0.911923
O O3 0.483847 0.328531 0.848678
O O4 0.152774 0.350327 0.854276
O O5 0.099853 0.355237 0.474410
O O6 0.215404 0.218254 0.555649
O O7 0.402176 0.383790 0.517652
O O8 0.345623 0.045408 0.582972
O O9 0.540416 0.164519 0.639178
O O10 0.861480 0.648947 0.840404
O O11 0.973288 0.547454 0.934896
O O12 0.579061 0.238039 0.244410
O O13 0.822238 0.191402 0.321254
#
# Coordination Sequence:
#
# PCOD9460675 Si02
#       7
#     8   8   8   8   8   4   8
#     4  11  23  47  70 101 140 188 231 301 355 425
#     4  11  24  44  68  97 145 183 233 292 353 436
#     4  10  25  45  69 101 137 187 237 294 361 426
#     4  11  25  43  67 101 143 185 240 293 358 436
#     4  11  22  45  71  98 139 187 228 300 357 425
#     4  12  24  38  66 102 128 192 226 284 362 430
#     4  10  23  47  72  98 142 180 237 298 361 424
#
# _framework density 23.172663
#
# number of rings (size 3 to 8) (size 9 to 14) (size 15 to 20)
#    0.000    1.231    3.077    1.846    2.154    3.692 
#    5.538    0.000    0.000    0.000    0.000    0.000 
#    0.000    0.000    0.000    0.000    0.000    0.000 
#
# Total GULP energy -289928.455975 kJ/mol
# GULP energy per Si atom -5575.547230 kJ/mol
# Density = 2.311992 g / cm^3
# Si number density = 23.172663 Si / 1000 Ang^3
#
#
#
# Elastic Constant Matrix: (Units=GPa)
#
#
# Indices 1 2 3 4 5 6 
#
# 1 125.3596 22.9218 31.0594 0.0000 0.0000 0.0000
# 2 22.9218 33.4888 20.1558 0.0000 0.0000 0.0000
# 3 31.0594 20.1558 116.7885 0.0000 0.0000 0.0000
# 4 0.0000 0.0000 0.0000 18.5797 0.0000 0.0000
# 5 0.0000 0.0000 0.0000 0.0000 39.3918 0.0000
# 6 0.0000 0.0000 0.0000 0.0000 0.0000 -29.3236
#
#
#
# Elastic Compliance Matrix: (Units=1/GPa)
#
#
# Indices 1 2 3 4 5 6 
#
# 1 0.009361 -0.005478 -0.001544 0.000000 0.000000 0.000000
# 2 -0.005478 0.036528 -0.004847 0.000000 0.000000 0.000000
# 3 -0.001544 -0.004847 0.009810 0.000000 0.000000 0.000000
# 4 0.000000 0.000000 0.000000 0.053822 0.000000 0.000000
# 5 0.000000 0.000000 0.000000 0.000000 0.025386 0.000000
# 6 0.000000 0.000000 0.000000 0.000000 0.000000 -0.034102
#
#
# Mechanical properties :
#
#
# Convention : Reuss Voigt Hill
#
# Bulk Modulus (GPa) = 31.28935 47.10120 39.19528
# Shear Modulus (GPa) = 36.98314 19.16291 28.07302
#
# Velocity S-wave (km/s) = 3.99931 2.87881 3.48440
# Velocity P-wave (km/s) = 5.90406 5.60539 5.75666
#
# Compressibility (1/GPa) = 0.03195975
#
# Stress axis : x y z
#
# Youngs Moduli (GPa) = 106.82284 27.37656 101.93996
#
# Poissons Ratio (x) = 0.14997 0.15741
# Poissons Ratio (y) = 0.58518 0.49412
# Poissons Ratio (z) = 0.16495 0.13270
#
# Static dielectric constant tensor:
#      x y z
#    x 2.004630 0.000000 0.000000 
#    y 0.000000 1.870660 0.000000 
#    z 0.000000 0.000000 1.677480 
# 
# From -- ./inp_files/11343.got.cif
#   From: 2010.05.17/outbox.cif.g08.bks.cpg/sg61_6_cif.got.tgz:11343.got - 2010.06.03 15:17:17.
