data_PCOD9460735
_publ_section_title
;
Structure prediction by ZEFSAII (Michael W. Deem and Ramdas Pophale) SiO2 
 PCOD9460735
Probable space group: P B C A
;
_chemical_formula_sum "Si O2"
_cell_formula_units_Z 48
_cell_length_a 20.599895
_cell_length_b 8.712175
_cell_length_c 10.779910
_cell_angle_alpha 90.000000
_cell_angle_beta 90.000000
_cell_angle_gamma 90.000000
_cell_volume 1934.669264
_symmetry_space_group_name_H-M "P B C A"
_symmetry_group_IT_number 61
_symmetry_cell_setting 'orthorhombic'
loop_
_space_group_symop_operation_xyz
x,y,z
1/2-x,-y,1/2+z
1/2+x,1/2-y,-z
-x,1/2+y,1/2-z
-x,-y,-z
1/2+x,y,1/2-z
1/2-x,1/2+y,z
x,1/2-y,1/2+z
loop_
_atom_site_type_symbol
_atom_site_label
_atom_site_fract_x
_atom_site_fract_y
_atom_site_fract_z
Si Si1 0.402850 0.734421 0.479378
Si Si2 0.208933 0.733812 0.764325
Si Si3 0.084052 0.841049 0.186247
Si Si4 0.203736 0.033216 0.615370
Si Si5 0.477677 0.649729 0.225720
Si Si6 0.665009 0.945683 0.525262
O O1 0.348798 0.612765 0.527556
O O2 0.441359 0.681148 0.357100
O O3 0.446770 0.768109 0.603607
O O4 0.369662 0.895910 0.440776
O O5 0.149296 0.614938 0.761522
O O6 0.275213 0.654016 0.724199
O O7 0.203504 0.828042 0.888153
O O8 0.186413 0.866564 0.667684
O O9 0.051635 0.694251 0.247260
O O10 0.030115 0.970657 0.199799
O O11 0.109065 0.850616 0.046002
O O12 0.274201 0.002115 0.557355
#
# Coordination Sequence:
#
# PCOD9460735 Si02
#       6
#     8   8   8   8   8   8
#     4  11  25  45  72 106 140 193 231 295 349 421
#     4  11  25  44  71  99 144 181 235 292 352 419
#     4  10  27  47  68 108 134 190 235 293 349 420
#     4  11  24  43  68 105 136 183 238 284 358 415
#     4  11  27  47  72 100 148 181 243 286 353 416
#     4  10  24  43  70 100 142 182 235 292 352 417
#
# _framework density 24.810441999999998
#
# number of rings (size 3 to 8) (size 9 to 14) (size 15 to 20)
#    0.000    1.333    1.667    1.000   11.667    4.667 
#    0.000    0.000    0.000    0.000    0.000    0.000 
#    0.000    0.000    0.000    0.000    0.000    0.000 
#
# Total GULP energy -268021.396061 kJ/mol
# GULP energy per Si atom -5583.779085 kJ/mol
# Density = 2.475397 g / cm^3
# Si number density = 24.810442 Si / 1000 Ang^3
#
#
#
# Elastic Constant Matrix: (Units=GPa)
#
#
# Indices 1 2 3 4 5 6 
#
# 1 79.7905 -19.2532 24.9367 0.0000 0.0000 0.0000
# 2 -19.2532 29.2082 3.0107 0.0000 0.0000 0.0000
# 3 24.9367 3.0107 89.5305 0.0000 0.0000 0.0000
# 4 0.0000 0.0000 0.0000 16.7586 0.0000 0.0000
# 5 0.0000 0.0000 0.0000 0.0000 24.2005 0.0000
# 6 0.0000 0.0000 0.0000 0.0000 0.0000 43.7189
#
#
#
# Elastic Compliance Matrix: (Units=1/GPa)
#
#
# Indices 1 2 3 4 5 6 
#
# 1 0.016956 0.011704 -0.005116 0.000000 0.000000 0.000000
# 2 0.011704 0.042435 -0.004687 0.000000 0.000000 0.000000
# 3 -0.005116 -0.004687 0.012752 0.000000 0.000000 0.000000
# 4 0.000000 0.000000 0.000000 0.059671 0.000000 0.000000
# 5 0.000000 0.000000 0.000000 0.000000 0.041321 0.000000
# 6 0.000000 0.000000 0.000000 0.000000 0.000000 0.022873
#
#
# Mechanical properties :
#
#
# Convention : Reuss Voigt Hill
#
# Bulk Modulus (GPa) = 13.16738 23.99085 18.57911
# Shear Modulus (GPa) = 22.98619 29.59128 26.28873
#
# Velocity S-wave (km/s) = 3.04710 3.45729 3.25866
# Velocity P-wave (km/s) = 4.20696 5.06239 4.65437
#
# Compressibility (1/GPa) = 0.07594528
#
# Stress axis : x y z
#
# Youngs Moduli (GPa) = 58.97611 23.56532 78.41888
#
# Poissons Ratio (x) = -0.27582 0.40122
# Poissons Ratio (y) = -0.69027 0.36755
# Poissons Ratio (z) = 0.30174 0.11045
#
# Static dielectric constant tensor:
#      x y z
#    x 1.917600 0.000000 0.000000 
#    y 0.000000 1.993950 0.000000 
#    z 0.000000 0.000000 2.136570 
# 
# From -- ./inp_files/2267.got.cif
#   From: 2010.05.17/outbox.cif.g08.bks.cpg/sg61_2_cif.got.tgz:2267.got - 2010.06.03 15:17:17.
