data_PCOD9460492
_publ_section_title
;
Structure prediction by ZEFSAII (Michael W. Deem and Ramdas Pophale) SiO2 
 PCOD9460492
Probable space group: P B C A
;
_chemical_formula_sum "Si O2"
_cell_formula_units_Z 40
_cell_length_a 10.828682
_cell_length_b 16.165170
_cell_length_c 9.341605
_cell_angle_alpha 90.000000
_cell_angle_beta 90.000000
_cell_angle_gamma 90.000000
_cell_volume 1635.224465
_symmetry_space_group_name_H-M "P B C A"
_symmetry_group_IT_number 61
_symmetry_cell_setting 'orthorhombic'
loop_
_space_group_symop_operation_xyz
x,y,z
1/2-x,-y,1/2+z
1/2+x,1/2-y,-z
-x,1/2+y,1/2-z
-x,-y,-z
1/2+x,y,1/2-z
1/2-x,1/2+y,z
x,1/2-y,1/2+z
loop_
_atom_site_type_symbol
_atom_site_label
_atom_site_fract_x
_atom_site_fract_y
_atom_site_fract_z
Si Si1 0.292044 0.994018 0.957185
Si Si2 0.972466 0.562855 0.832091
Si Si3 0.111547 0.852714 0.846317
Si Si4 0.540866 0.788027 0.959388
Si Si5 0.099565 0.132083 0.959146
O O1 0.204357 0.924595 0.890976
O O2 0.418827 0.000148 0.869322
O O3 0.227467 0.083757 0.959325
O O4 0.339795 0.970706 0.116120
O O5 0.997734 0.642102 0.931646
O O6 0.974807 0.587589 0.668366
O O7 0.129068 0.774512 0.952781
O O8 0.103287 0.822671 0.683651
O O9 0.973467 0.880924 0.893451
O O10 0.421883 0.729068 0.924828
#
# Coordination Sequence:
#
# PCOD9460492 Si02
#       5
#     8   8   8   8   8
#     4  11  27  43  74 105 151 186 244 299 378 427
#     4  11  26  47  69 114 144 190 243 311 361 453
#     4  10  23  46  74 105 141 198 237 305 365 444
#     4  10  22  48  71 108 146 182 256 289 374 427
#     4  10  23  47  74 102 143 195 243 305 360 449
#
# _framework density 24.461473000000002
#
# number of rings (size 3 to 8) (size 9 to 14) (size 15 to 20)
#    1.200    0.400    2.000    0.600    8.400    3.200 
#    3.600    0.000    0.000    0.000    0.000    0.000 
#    0.000    0.000    0.000    0.000    0.000    0.000 
#
# Total GULP energy -223701.008795 kJ/mol
# GULP energy per Si atom -5592.525220 kJ/mol
# Density = 2.440580 g / cm^3
# Si number density = 24.461473 Si / 1000 Ang^3
#
#
#
# Elastic Constant Matrix: (Units=GPa)
#
#
# Indices 1 2 3 4 5 6 
#
# 1 79.9943 40.1271 16.0134 0.0000 0.0000 0.0000
# 2 40.1271 122.3896 45.6604 0.0000 0.0000 0.0000
# 3 16.0134 45.6604 129.0518 0.0000 0.0000 0.0000
# 4 0.0000 0.0000 0.0000 42.7696 0.0000 0.0000
# 5 0.0000 0.0000 0.0000 0.0000 19.4924 0.0000
# 6 0.0000 0.0000 0.0000 0.0000 0.0000 4.3722
#
#
#
# Elastic Compliance Matrix: (Units=1/GPa)
#
#
# Indices 1 2 3 4 5 6 
#
# 1 0.014964 -0.004854 -0.000139 0.000000 0.000000 0.000000
# 2 -0.004854 0.010988 -0.003285 0.000000 0.000000 0.000000
# 3 -0.000139 -0.003285 0.008929 0.000000 0.000000 0.000000
# 4 0.000000 0.000000 0.000000 0.023381 0.000000 0.000000
# 5 0.000000 0.000000 0.000000 0.000000 0.051302 0.000000
# 6 0.000000 0.000000 0.000000 0.000000 0.000000 0.228720
#
#
# Mechanical properties :
#
#
# Convention : Reuss Voigt Hill
#
# Bulk Modulus (GPa) = 54.57755 59.44859 57.01307
# Shear Modulus (GPa) = 13.85241 28.63581 21.24411
#
# Velocity S-wave (km/s) = 2.38228 3.42519 2.95018
# Velocity P-wave (km/s) = 5.47056 6.32442 5.91292
#
# Compressibility (1/GPa) = 0.01832255
#
# Stress axis : x y z
#
# Youngs Moduli (GPa) = 66.82835 91.01030 112.00085
#
# Poissons Ratio (x) = 0.44177 0.01560
# Poissons Ratio (y) = 0.32439 0.36796
# Poissons Ratio (z) = 0.00931 0.29900
#
# Static dielectric constant tensor:
#      x y z
#    x 1.945480 0.000000 0.000000 
#    y 0.000000 1.979030 0.000000 
#    z 0.000000 0.000000 1.919900 
# 
# From -- ./inp_files/2722.got.cif
#   From: 2010.05.17/outbox.cif.g08.bks.cpg/sg61_2_cif.got.tgz:2722.got - 2010.06.03 15:17:17.
