data_PCOD9460032
_publ_section_title
;
Structure prediction by ZEFSAII (Michael W. Deem and Ramdas Pophale) SiO2 
 PCOD9460032
Probable space group: P B C A
;
_chemical_formula_sum "Si O2"
_cell_formula_units_Z 56
_cell_length_a 29.190139
_cell_length_b 5.533120
_cell_length_c 13.789567
_cell_angle_alpha 90.000000
_cell_angle_beta 90.000000
_cell_angle_gamma 90.000000
_cell_volume 2227.188018
_symmetry_space_group_name_H-M "P B C A"
_symmetry_group_IT_number 61
_symmetry_cell_setting 'orthorhombic'
loop_
_space_group_symop_operation_xyz
x,y,z
1/2-x,-y,1/2+z
1/2+x,1/2-y,-z
-x,1/2+y,1/2-z
-x,-y,-z
1/2+x,y,1/2-z
1/2-x,1/2+y,z
x,1/2-y,1/2+z
loop_
_atom_site_type_symbol
_atom_site_label
_atom_site_fract_x
_atom_site_fract_y
_atom_site_fract_z
Si Si1 0.449220 0.516857 0.396052
Si Si2 0.726453 0.888097 0.135736
Si Si3 0.632471 0.461465 0.334855
Si Si4 0.102170 0.401623 0.528970
Si Si5 0.540683 0.725075 0.403957
Si Si6 0.871466 0.201198 0.148654
Si Si7 0.726608 0.858176 0.901529
O O1 0.417389 0.707523 0.452910
O O2 0.493054 0.655826 0.354225
O O3 0.466372 0.336056 0.481292
O O4 0.416853 0.356503 0.328505
O O5 0.751604 0.640842 0.168094
O O6 0.673167 0.863313 0.160673
O O7 0.728901 0.874936 0.018425
O O8 0.636967 0.216967 0.395765
O O9 0.583031 0.566229 0.366156
O O10 0.632697 0.472337 0.219412
O O11 0.674223 0.627260 0.368176
O O12 0.059895 0.505144 0.591610
O O13 0.124116 0.607455 0.461428
O O14 0.748901 0.606681 0.868611
#
# Coordination Sequence:
#
# PCOD9460032 Si02
#       7
#     8   8   8   8   8   8   8
#     4   9  19  39  67  95 130 173 230 290 363 431
#     4  10  23  42  71 101 137 186 241 304 369 437
#     4  11  25  42  65 101 142 189 240 300 364 434
#     4  10  21  40  68  98 138 185 234 299 357 442
#     4   9  19  39  67  95 129 174 232 287 361 434
#     4  11  25  42  65 102 144 188 241 303 368 437
#     4  10  23  42  71 102 137 187 245 303 369 439
#
# _framework density 25.143812
#
# number of rings (size 3 to 8) (size 9 to 14) (size 15 to 20)
#    0.000    2.000    0.000    3.000   10.000    3.429 
#    2.571    0.000    0.000    0.000    0.000    0.000 
#    0.000    0.000    0.000    0.000    0.000    0.000 
#
# Total GULP energy -313333.571991 kJ/mol
# GULP energy per Si atom -5595.242357 kJ/mol
# Density = 2.508658 g / cm^3
# Si number density = 25.143812 Si / 1000 Ang^3
#
#
#
# Elastic Constant Matrix: (Units=GPa)
#
#
# Indices 1 2 3 4 5 6 
#
# 1 133.3796 47.7812 33.2395 0.0000 0.0000 0.0000
# 2 47.7812 104.5472 39.6587 0.0000 0.0000 0.0000
# 3 33.2395 39.6587 78.3154 0.0000 0.0000 0.0000
# 4 0.0000 0.0000 0.0000 24.2260 0.0000 0.0000
# 5 0.0000 0.0000 0.0000 0.0000 -0.5047 0.0000
# 6 0.0000 0.0000 0.0000 0.0000 0.0000 39.1797
#
#
#
# Elastic Compliance Matrix: (Units=1/GPa)
#
#
# Indices 1 2 3 4 5 6 
#
# 1 0.009265 -0.003395 -0.002213 0.000000 0.000000 0.000000
# 2 -0.003395 0.013083 -0.005184 0.000000 0.000000 0.000000
# 3 -0.002213 -0.005184 0.016334 0.000000 0.000000 0.000000
# 4 0.000000 0.000000 0.000000 0.041278 0.000000 0.000000
# 5 0.000000 0.000000 0.000000 0.000000 -1.981559 0.000000
# 6 0.000000 0.000000 0.000000 0.000000 0.000000 0.025523
#
#
# Mechanical properties :
#
#
# Convention : Reuss Voigt Hill
#
# Bulk Modulus (GPa) = 58.49014 61.95569 60.22291
# Shear Modulus (GPa) = -2.70447 25.61772 11.45662
#
# Velocity S-wave (km/s) = -1.03824 3.19540 2.13690
# Velocity P-wave (km/s) = 4.67712 6.18936 5.48560
#
# Compressibility (1/GPa) = 0.01709690
#
# Stress axis : x y z
#
# Youngs Moduli (GPa) = 107.93159 76.43342 61.22326
#
# Poissons Ratio (x) = 0.25948 0.13550
# Poissons Ratio (y) = 0.36641 0.31741
# Poissons Ratio (z) = 0.23888 0.39627
#
# Static dielectric constant tensor:
#      x y z
#    x 1.988020 0.000000 0.000000 
#    y 0.000000 2.020850 0.000000 
#    z 0.000000 0.000000 1.971040 
# 
# From -- ./inp_files/8644.got.cif
#   From: 2010.05.17/outbox.cif.g08.bks.cpg/sg61_5_cif.got.tgz:8644.got - 2010.06.03 15:17:17.
