data_PCOD9460316
_publ_section_title
;
Structure prediction by ZEFSAII (Michael W. Deem and Ramdas Pophale) SiO2 
 PCOD9460316
Probable space group: P B C A
;
_chemical_formula_sum "Si O2"
_cell_formula_units_Z 56
_cell_length_a 12.257966
_cell_length_b 12.900260
_cell_length_c 14.174166
_cell_angle_alpha 90.000000
_cell_angle_beta 90.000000
_cell_angle_gamma 90.000000
_cell_volume 2241.374313
_symmetry_space_group_name_H-M "P B C A"
_symmetry_group_IT_number 61
_symmetry_cell_setting 'orthorhombic'
loop_
_space_group_symop_operation_xyz
x,y,z
1/2-x,-y,1/2+z
1/2+x,1/2-y,-z
-x,1/2+y,1/2-z
-x,-y,-z
1/2+x,y,1/2-z
1/2-x,1/2+y,z
x,1/2-y,1/2+z
loop_
_atom_site_type_symbol
_atom_site_label
_atom_site_fract_x
_atom_site_fract_y
_atom_site_fract_z
Si Si1 0.333447 0.909144 0.386019
Si Si2 0.193076 0.675855 0.722177
Si Si3 0.946861 0.963884 0.366845
Si Si4 0.530128 0.767603 0.628444
Si Si5 0.667922 0.448900 0.543660
Si Si6 0.773339 0.248747 0.486628
Si Si7 0.031325 0.005011 0.169987
O O1 0.293205 0.846141 0.293893
O O2 0.276513 0.856770 0.475906
O O3 0.459887 0.932746 0.399613
O O4 0.267265 0.016128 0.391005
O O5 0.108739 0.745894 0.781569
O O6 0.218461 0.730568 0.623839
O O7 0.135443 0.564133 0.698811
O O8 0.846989 0.988363 0.435374
O O9 0.949250 0.001634 0.260373
O O10 0.963331 0.839896 0.372880
O O11 0.056126 0.016218 0.408657
O O12 0.609578 0.765973 0.537200
O O13 0.464594 0.875280 0.639527
O O14 0.687822 0.328576 0.532265
#
# Coordination Sequence:
#
# PCOD9460316 Si02
#       7
#     8   8   8   8   8   8   8
#     4  11  23  45  64 101 134 171 234 279 332 413
#     4  10  24  45  63  98 138 177 224 274 349 410
#     4  10  23  41  67  98 130 180 228 269 347 411
#     4  10  22  41  63  95 134 168 222 280 323 399
#     4  11  21  42  66  93 131 176 225 277 333 407
#     4  11  23  42  65  94 137 175 218 282 333 400
#     4  11  22  42  70  97 139 176 224 289 338 400
#
# _framework density 24.984670999999999
#
# number of rings (size 3 to 8) (size 9 to 14) (size 15 to 20)
#    0.000    1.429    5.714    0.857    2.000    4.000 
#    2.571    0.000    0.000    0.000    0.000    0.000 
#    0.000    0.000    0.000    0.000    0.000    0.000 
#
# Total GULP energy -312910.720264 kJ/mol
# GULP energy per Si atom -5587.691433 kJ/mol
# Density = 2.492781 g / cm^3
# Si number density = 24.984671 Si / 1000 Ang^3
#
#
#
# Elastic Constant Matrix: (Units=GPa)
#
#
# Indices 1 2 3 4 5 6 
#
# 1 47.0679 15.6294 40.6576 0.0000 0.0000 0.0000
# 2 15.6294 71.5417 63.8388 0.0000 0.0000 0.0000
# 3 40.6576 63.8388 119.2234 0.0000 0.0000 0.0000
# 4 0.0000 0.0000 0.0000 25.0567 0.0000 0.0000
# 5 0.0000 0.0000 0.0000 0.0000 35.9476 0.0000
# 6 0.0000 0.0000 0.0000 0.0000 0.0000 27.8717
#
#
#
# Elastic Compliance Matrix: (Units=1/GPa)
#
#
# Indices 1 2 3 4 5 6 
#
# 1 0.031062 0.005106 -0.013327 0.000000 0.000000 0.000000
# 2 0.005106 0.027607 -0.016523 0.000000 0.000000 0.000000
# 3 -0.013327 -0.016523 0.021780 0.000000 0.000000 0.000000
# 4 0.000000 0.000000 0.000000 0.039909 0.000000 0.000000
# 5 0.000000 0.000000 0.000000 0.000000 0.027818 0.000000
# 6 0.000000 0.000000 0.000000 0.000000 0.000000 0.035879
#
#
# Mechanical properties :
#
#
# Convention : Reuss Voigt Hill
#
# Bulk Modulus (GPa) = 32.29954 53.12053 42.71004
# Shear Modulus (GPa) = 20.50324 25.62235 23.06280
#
# Velocity S-wave (km/s) = 2.86778 3.20585 3.04152
# Velocity P-wave (km/s) = 4.89094 5.91699 5.42826
#
# Compressibility (1/GPa) = 0.03096019
#
# Stress axis : x y z
#
# Youngs Moduli (GPa) = 32.19343 36.22308 45.91396
#
# Poissons Ratio (x) = -0.18495 0.61189
# Poissons Ratio (y) = -0.16438 0.75865
# Poissons Ratio (z) = 0.42904 0.59853
#
# Static dielectric constant tensor:
#      x y z
#    x 2.103600 0.000000 0.000000 
#    y 0.000000 2.139940 0.000000 
#    z 0.000000 0.000000 2.137340 
# 
# From -- ./inp_files/7844.got.cif
#   From: 2010.05.17/outbox.cif.g08.bks.cpg/sg61_4_cif.got.tgz:7844.got - 2010.06.03 15:17:17.
