data_PCOD9460225
_publ_section_title
;
Structure prediction by ZEFSAII (Michael W. Deem and Ramdas Pophale) SiO2 
 PCOD9460225
Probable space group: P B C A
;
_chemical_formula_sum "Si O2"
_cell_formula_units_Z 32
_cell_length_a 9.687738
_cell_length_b 8.293531
_cell_length_c 17.070723
_cell_angle_alpha 90.000000
_cell_angle_beta 90.000000
_cell_angle_gamma 90.000000
_cell_volume 1371.556721
_symmetry_space_group_name_H-M "P B C A"
_symmetry_group_IT_number 61
_symmetry_cell_setting 'orthorhombic'
loop_
_space_group_symop_operation_xyz
x,y,z
1/2-x,-y,1/2+z
1/2+x,1/2-y,-z
-x,1/2+y,1/2-z
-x,-y,-z
1/2+x,y,1/2-z
1/2-x,1/2+y,z
x,1/2-y,1/2+z
loop_
_atom_site_type_symbol
_atom_site_label
_atom_site_fract_x
_atom_site_fract_y
_atom_site_fract_z
Si Si1 0.786968 0.934408 0.471750
Si Si2 0.932560 0.166180 0.728873
Si Si3 0.699182 0.521742 0.290479
Si Si4 0.939846 0.236919 0.548261
O O1 0.773340 0.985562 0.381389
O O2 0.642766 0.880697 0.508112
O O3 0.899854 0.788604 0.473278
O O4 0.860152 0.076757 0.519220
O O5 0.869066 0.303006 0.784011
O O6 0.836588 0.008944 0.740930
O O7 0.927262 0.238091 0.641763
O O8 0.087188 0.106130 0.741738
#
# Coordination Sequence:
#
# PCOD9460225 Si02
#       4
#     8   8   8   8
#     4  10  22  40  60  88 120 154 197 246 295 354
#     4  11  23  40  62  91 122 159 201 247 299 358
#     4  11  23  39  62  89 122 159 201 248 300 356
#     4  10  22  39  60  87 120 155 197 243 294 351
#
# _framework density 23.331153
#
# number of rings (size 3 to 8) (size 9 to 14) (size 15 to 20)
#    0.000    1.500    0.000    4.500    0.000    9.000 
#    0.000    0.000    0.000    0.000    0.000    0.000 
#    0.000    0.000    0.000    0.000    0.000    0.000 
#
# Total GULP energy -179201.592680 kJ/mol
# GULP energy per Si atom -5600.049771 kJ/mol
# Density = 2.327805 g / cm^3
# Si number density = 23.331153 Si / 1000 Ang^3
#
#
#
# Elastic Constant Matrix: (Units=GPa)
#
#
# Indices 1 2 3 4 5 6 
#
# 1 91.8240 0.1031 22.7093 0.0000 0.0000 0.0000
# 2 0.1031 60.0987 -6.6424 0.0000 0.0000 0.0000
# 3 22.7093 -6.6424 37.3251 0.0000 0.0000 0.0000
# 4 0.0000 0.0000 0.0000 39.6046 0.0000 0.0000
# 5 0.0000 0.0000 0.0000 0.0000 10.1752 0.0000
# 6 0.0000 0.0000 0.0000 0.0000 0.0000 32.0951
#
#
#
# Elastic Compliance Matrix: (Units=1/GPa)
#
#
# Indices 1 2 3 4 5 6 
#
# 1 0.012867 -0.000905 -0.007990 0.000000 0.000000 0.000000
# 2 -0.000905 0.017037 0.003583 0.000000 0.000000 0.000000
# 3 -0.007990 0.003583 0.032290 0.000000 0.000000 0.000000
# 4 0.000000 0.000000 0.000000 0.025250 0.000000 0.000000
# 5 0.000000 0.000000 0.000000 0.000000 0.098278 0.000000
# 6 0.000000 0.000000 0.000000 0.000000 0.000000 0.031157
#
#
# Mechanical properties :
#
#
# Convention : Reuss Voigt Hill
#
# Bulk Modulus (GPa) = 19.39121 24.62086 22.00603
# Shear Modulus (GPa) = 20.43362 27.91350 24.17356
#
# Velocity S-wave (km/s) = 2.96262 3.46266 3.22235
# Velocity P-wave (km/s) = 4.47573 5.15387 4.82672
#
# Compressibility (1/GPa) = 0.05156976
#
# Stress axis : x y z
#
# Youngs Moduli (GPa) = 77.71577 58.69643 30.96898
#
# Poissons Ratio (x) = 0.05313 0.24744
# Poissons Ratio (y) = 0.07034 -0.11095
# Poissons Ratio (z) = 0.62094 -0.21028
#
# Static dielectric constant tensor:
#      x y z
#    x 1.843360 0.000000 0.000000 
#    y 0.000000 1.934770 0.000000 
#    z 0.000000 0.000000 1.808280 
# 
# From -- ./inp_files/1661.got.cif
#   From: 2010.05.17/outbox.cif.g08.bks.cpg/sg61_1_cif.got.tgz:1661.got - 2010.06.03 15:17:17.
