data_PCOD9460446
_publ_section_title
;
Structure prediction by ZEFSAII (Michael W. Deem and Ramdas Pophale) SiO2 
 PCOD9460446
Probable space group: P B C A
;
_chemical_formula_sum "Si O2"
_cell_formula_units_Z 36
_cell_length_a 11.727163
_cell_length_b 17.152220
_cell_length_c 8.259892
_cell_angle_alpha 90.000000
_cell_angle_beta 90.000000
_cell_angle_gamma 90.000000
_cell_volume 1661.451503
_symmetry_space_group_name_H-M "P B C A"
_symmetry_group_IT_number 61
_symmetry_cell_setting 'orthorhombic'
loop_
_space_group_symop_operation_xyz
x,y,z
1/2-x,-y,1/2+z
1/2+x,1/2-y,-z
-x,1/2+y,1/2-z
-x,-y,-z
1/2+x,y,1/2-z
1/2-x,1/2+y,z
x,1/2-y,1/2+z
loop_
_atom_site_type_symbol
_atom_site_label
_atom_site_fract_x
_atom_site_fract_y
_atom_site_fract_z
Si Si1 0.832587 0.086518 0.479551
Si Si2 0.000000 0.000000 0.000000
Si Si3 0.328287 0.559211 0.284300
Si Si4 0.564681 0.316886 0.503058
Si Si5 0.106109 0.152527 0.864515
O O1 0.796611 0.064071 0.296488
O O2 0.730066 0.136030 0.558850
O O3 0.947001 0.135483 0.487115
O O4 0.837120 0.006227 0.578719
O O5 0.971216 0.923554 0.112868
O O6 0.914392 0.963657 0.858508
O O7 0.355997 0.641789 0.363852
O O8 0.615399 0.328169 0.324929
O O9 0.551469 0.226671 0.545962
#
# Coordination Sequence:
#
# PCOD9460446 Si02
#       5
#     8   4   8   8   8
#     4  11  25  45  73 107 141 198 231 301 364 429
#     4  10  22  44  70 100 142 180 232 294 346 434
#     4  11  24  44  72 108 141 187 250 284 366 435
#     4  12  26  48  71 104 150 185 239 313 351 424
#     4  11  25  46  68 108 142 188 246 288 366 439
#
# _framework density 21.6678
#
# number of rings (size 3 to 8) (size 9 to 14) (size 15 to 20)
#    0.000    0.889    2.222    4.667    6.222    3.556 
#    8.000    0.000    0.000    0.000    0.000    0.000 
#    0.000    0.000    0.000    0.000    0.000    0.000 
#
# Total GULP energy -200541.400508 kJ/mol
# GULP energy per Si atom -5570.594459 kJ/mol
# Density = 2.161848 g / cm^3
# Si number density = 21.667800 Si / 1000 Ang^3
#
#
#
# Elastic Constant Matrix: (Units=GPa)
#
#
# Indices 1 2 3 4 5 6 
#
# 1 30.1766 13.2147 0.8047 0.0000 0.0000 0.0000
# 2 13.2147 64.8875 24.3918 0.0000 0.0000 0.0000
# 3 0.8047 24.3918 68.2939 0.0000 0.0000 0.0000
# 4 0.0000 0.0000 0.0000 42.9081 0.0000 0.0000
# 5 0.0000 0.0000 0.0000 0.0000 34.7820 0.0000
# 6 0.0000 0.0000 0.0000 0.0000 0.0000 24.4867
#
#
#
# Elastic Compliance Matrix: (Units=1/GPa)
#
#
# Indices 1 2 3 4 5 6 
#
# 1 0.036775 -0.008463 0.002589 0.000000 0.000000 0.000000
# 2 -0.008463 0.019749 -0.006954 0.000000 0.000000 0.000000
# 3 0.002589 -0.006954 0.017096 0.000000 0.000000 0.000000
# 4 0.000000 0.000000 0.000000 0.023306 0.000000 0.000000
# 5 0.000000 0.000000 0.000000 0.000000 0.028751 0.000000
# 6 0.000000 0.000000 0.000000 0.000000 0.000000 0.040839
#
#
# Mechanical properties :
#
#
# Convention : Reuss Voigt Hill
#
# Bulk Modulus (GPa) = 20.84849 26.68669 23.76759
# Shear Modulus (GPa) = 24.02032 28.76514 26.39273
#
# Velocity S-wave (km/s) = 3.33314 3.64751 3.49386
# Velocity P-wave (km/s) = 4.94528 5.48472 5.22197
#
# Compressibility (1/GPa) = 0.04796510
#
# Stress axis : x y z
#
# Youngs Moduli (GPa) = 27.19226 50.63619 58.49439
#
# Poissons Ratio (x) = 0.42852 -0.15146
# Poissons Ratio (y) = 0.23012 0.40675
# Poissons Ratio (z) = -0.07041 0.35211
#
# Static dielectric constant tensor:
#      x y z
#    x 1.798760 0.000000 0.000000 
#    y 0.000000 1.756850 0.000000 
#    z 0.000000 0.000000 1.813920 
# 
# From -- ./inp_files/2058.got.cif
#   From: 2010.05.17/outbox.cif.g08.bks.cpg/sg61_2_cif.got.tgz:2058.got - 2010.06.03 15:17:17.
