data_PCOD9460820
_publ_section_title
;
Structure prediction by ZEFSAII (Michael W. Deem and Ramdas Pophale) SiO2 
 PCOD9460820
Probable space group: P B C A
;
_chemical_formula_sum "Si O2"
_cell_formula_units_Z 40
_cell_length_a 22.378937
_cell_length_b 8.141091
_cell_length_c 8.904656
_cell_angle_alpha 90.000000
_cell_angle_beta 90.000000
_cell_angle_gamma 90.000000
_cell_volume 1622.330039
_symmetry_space_group_name_H-M "P B C A"
_symmetry_group_IT_number 61
_symmetry_cell_setting 'orthorhombic'
loop_
_space_group_symop_operation_xyz
x,y,z
1/2-x,-y,1/2+z
1/2+x,1/2-y,-z
-x,1/2+y,1/2-z
-x,-y,-z
1/2+x,y,1/2-z
1/2-x,1/2+y,z
x,1/2-y,1/2+z
loop_
_atom_site_type_symbol
_atom_site_label
_atom_site_fract_x
_atom_site_fract_y
_atom_site_fract_z
Si Si1 0.104934 0.054173 0.770458
Si Si2 0.427761 0.212698 0.933471
Si Si3 0.740899 0.967282 0.734686
Si Si4 0.794948 0.309624 0.025766
Si Si5 0.053792 0.353104 0.945769
O O1 0.074816 0.101696 0.613373
O O2 0.176365 0.051782 0.751252
O O3 0.091120 0.204718 0.880369
O O4 0.080415 0.879473 0.835993
O O5 0.437695 0.029062 0.860378
O O6 0.363896 0.205233 0.018914
O O7 0.486323 0.215764 0.038101
O O8 0.732769 0.854692 0.588796
O O9 0.793529 0.083039 0.679451
O O10 0.745541 0.871137 0.889490
#
# Coordination Sequence:
#
# PCOD9460820 Si02
#       5
#     8   8   8   8   8
#     4  11  26  46  70 109 142 187 244 293 364 426
#     4  10  25  46  70 104 147 190 236 298 360 430
#     4  11  25  45  70 100 140 189 236 302 357 433
#     4  11  24  46  69 102 142 185 241 295 363 425
#     4  11  25  45  76 104 144 191 238 297 362 433
#
# _framework density 24.655895999999998
#
# number of rings (size 3 to 8) (size 9 to 14) (size 15 to 20)
#    0.000    1.200    2.000    1.800    8.400    3.200 
#    3.600    0.000    0.000    0.000    0.000    0.000 
#    0.000    0.000    0.000    0.000    0.000    0.000 
#
# Total GULP energy -223446.348186 kJ/mol
# GULP energy per Si atom -5586.158705 kJ/mol
# Density = 2.459978 g / cm^3
# Si number density = 24.655896 Si / 1000 Ang^3
#
#
#
# Elastic Constant Matrix: (Units=GPa)
#
#
# Indices 1 2 3 4 5 6 
#
# 1 33.4386 36.0372 29.2823 0.0000 0.0000 0.0000
# 2 36.0372 135.8797 58.2843 0.0000 0.0000 0.0000
# 3 29.2823 58.2843 84.9747 0.0000 0.0000 0.0000
# 4 0.0000 0.0000 0.0000 46.2715 0.0000 0.0000
# 5 0.0000 0.0000 0.0000 0.0000 4.6925 0.0000
# 6 0.0000 0.0000 0.0000 0.0000 0.0000 26.4563
#
#
#
# Elastic Compliance Matrix: (Units=1/GPa)
#
#
# Indices 1 2 3 4 5 6 
#
# 1 0.048322 -0.008038 -0.011139 0.000000 0.000000 0.000000
# 2 -0.008038 0.011764 -0.005299 0.000000 0.000000 0.000000
# 3 -0.011139 -0.005299 0.019241 0.000000 0.000000 0.000000
# 4 0.000000 0.000000 0.000000 0.021612 0.000000 0.000000
# 5 0.000000 0.000000 0.000000 0.000000 0.213105 0.000000
# 6 0.000000 0.000000 0.000000 0.000000 0.000000 0.037798
#
#
# Mechanical properties :
#
#
# Convention : Reuss Voigt Hill
#
# Bulk Modulus (GPa) = 32.92046 55.72230 44.32138
# Shear Modulus (GPa) = 12.16782 24.19668 18.18225
#
# Velocity S-wave (km/s) = 2.22391 3.13609 2.71853
# Velocity P-wave (km/s) = 4.46937 5.98017 5.27910
#
# Compressibility (1/GPa) = 0.03037625
#
# Stress axis : x y z
#
# Youngs Moduli (GPa) = 20.69440 85.00297 51.97131
#
# Poissons Ratio (x) = 0.68325 0.57889
# Poissons Ratio (y) = 0.16634 0.27541
# Poissons Ratio (z) = 0.23051 0.45046
#
# Static dielectric constant tensor:
#      x y z
#    x 1.960170 0.000000 0.000000 
#    y 0.000000 2.084430 0.000000 
#    z 0.000000 0.000000 1.950410 
# 
# From -- ./inp_files/4147.got.cif
#   From: 2010.05.17/outbox.cif.g08.bks.cpg/sg61_3_cif.got.tgz:4147.got - 2010.06.03 15:17:17.
