data_PCOD9460388
_publ_section_title
;
Structure prediction by ZEFSAII (Michael W. Deem and Ramdas Pophale) SiO2 
 PCOD9460388
Probable space group: P B C A
;
_chemical_formula_sum "Si O2"
_cell_formula_units_Z 48
_cell_length_a 13.949764
_cell_length_b 10.203732
_cell_length_c 13.051618
_cell_angle_alpha 90.000000
_cell_angle_beta 90.000000
_cell_angle_gamma 90.000000
_cell_volume 1857.762781
_symmetry_space_group_name_H-M "P B C A"
_symmetry_group_IT_number 61
_symmetry_cell_setting 'orthorhombic'
loop_
_space_group_symop_operation_xyz
x,y,z
1/2-x,-y,1/2+z
1/2+x,1/2-y,-z
-x,1/2+y,1/2-z
-x,-y,-z
1/2+x,y,1/2-z
1/2-x,1/2+y,z
x,1/2-y,1/2+z
loop_
_atom_site_type_symbol
_atom_site_label
_atom_site_fract_x
_atom_site_fract_y
_atom_site_fract_z
Si Si1 0.235461 0.242644 0.744565
Si Si2 0.640266 0.023906 0.493123
Si Si3 0.570565 0.093459 0.199975
Si Si4 0.134954 0.975237 0.760281
Si Si5 0.175759 0.618545 0.937232
Si Si6 0.974801 0.291400 0.451113
O O1 0.146276 0.339327 0.724850
O O2 0.326624 0.334757 0.719049
O O3 0.262187 0.214049 0.864331
O O4 0.196482 0.097700 0.715692
O O5 0.748093 0.070577 0.479422
O O6 0.558501 0.133695 0.487898
O O7 0.640433 0.980442 0.614910
O O8 0.604070 0.902526 0.425911
O O9 0.477745 0.015248 0.236733
O O10 0.527923 0.216556 0.138507
O O11 0.635382 0.000931 0.129264
O O12 0.083397 0.688121 0.982259
#
# Coordination Sequence:
#
# PCOD9460388 Si02
#       6
#     8   8   8   8   8   8
#     4  11  22  44  69  91 131 182 217 261 350 396
#     4  10  22  42  70  93 129 184 214 272 343 407
#     4  12  24  40  69 100 130 169 230 273 329 402
#     4  11  24  43  70  95 131 182 223 272 329 409
#     4  11  21  42  67  91 131 178 211 270 342 406
#     4  11  22  41  67 100 126 167 232 272 330 400
#
# _framework density 25.837530999999998
#
# number of rings (size 3 to 8) (size 9 to 14) (size 15 to 20)
#    0.000    1.000    8.333    0.500    2.333    0.000 
#    3.000    1.667    0.000    0.000    0.000    0.000 
#    0.000    0.000    0.000    0.000    0.000    0.000 
#
# Total GULP energy -268449.066575 kJ/mol
# GULP energy per Si atom -5592.688887 kJ/mol
# Density = 2.577872 g / cm^3
# Si number density = 25.837531 Si / 1000 Ang^3
#
#
#
# Elastic Constant Matrix: (Units=GPa)
#
#
# Indices 1 2 3 4 5 6 
#
# 1 169.5825 66.9339 35.8907 0.0000 0.0000 0.0000
# 2 66.9339 128.0631 15.1603 0.0000 0.0000 0.0000
# 3 35.8907 15.1603 53.0704 0.0000 0.0000 0.0000
# 4 0.0000 0.0000 0.0000 27.0462 0.0000 0.0000
# 5 0.0000 0.0000 0.0000 0.0000 41.7198 0.0000
# 6 0.0000 0.0000 0.0000 0.0000 0.0000 62.6790
#
#
#
# Elastic Compliance Matrix: (Units=1/GPa)
#
#
# Indices 1 2 3 4 5 6 
#
# 1 0.008379 -0.003838 -0.004570 0.000000 0.000000 0.000000
# 2 -0.003838 0.009840 -0.000215 0.000000 0.000000 0.000000
# 3 -0.004570 -0.000215 0.021995 0.000000 0.000000 0.000000
# 4 0.000000 0.000000 0.000000 0.036974 0.000000 0.000000
# 5 0.000000 0.000000 0.000000 0.000000 0.023969 0.000000
# 6 0.000000 0.000000 0.000000 0.000000 0.000000 0.015954
#
#
# Mechanical properties :
#
#
# Convention : Reuss Voigt Hill
#
# Bulk Modulus (GPa) = 43.54069 65.18733 54.36401
# Shear Modulus (GPa) = 35.20752 41.80440 38.50596
#
# Velocity S-wave (km/s) = 3.69541 4.02677 3.86464
# Velocity P-wave (km/s) = 5.92422 6.84867 6.40315
#
# Compressibility (1/GPa) = 0.02296702
#
# Stress axis : x y z
#
# Youngs Moduli (GPa) = 119.34466 101.62261 45.46470
#
# Poissons Ratio (x) = 0.39007 0.20778
# Poissons Ratio (y) = 0.45810 0.00978
# Poissons Ratio (z) = 0.54542 0.02187
#
# Static dielectric constant tensor:
#      x y z
#    x 2.007170 0.000000 0.000000 
#    y 0.000000 2.036310 0.000000 
#    z 0.000000 0.000000 2.065990 
# 
# From -- ./inp_files/10273.got.cif
#   From: 2010.05.17/outbox.cif.g08.bks.cpg/sg61_6_cif.got.tgz:10273.got - 2010.06.03 15:17:17.
