data_PCOD9460689
_publ_section_title
;
Structure prediction by ZEFSAII (Michael W. Deem and Ramdas Pophale) SiO2 
 PCOD9460689
Probable space group: P B C A
;
_chemical_formula_sum "Si O2"
_cell_formula_units_Z 32
_cell_length_a 16.078047
_cell_length_b 17.056500
_cell_length_c 5.147351
_cell_angle_alpha 90.000000
_cell_angle_beta 90.000000
_cell_angle_gamma 90.000000
_cell_volume 1411.584876
_symmetry_space_group_name_H-M "P B C A"
_symmetry_group_IT_number 61
_symmetry_cell_setting 'orthorhombic'
loop_
_space_group_symop_operation_xyz
x,y,z
1/2-x,-y,1/2+z
1/2+x,1/2-y,-z
-x,1/2+y,1/2-z
-x,-y,-z
1/2+x,y,1/2-z
1/2-x,1/2+y,z
x,1/2-y,1/2+z
loop_
_atom_site_type_symbol
_atom_site_label
_atom_site_fract_x
_atom_site_fract_y
_atom_site_fract_z
Si Si1 0.003825 0.556213 0.251395
Si Si2 0.669211 0.395581 0.605179
Si Si3 0.290652 0.197889 0.669827
Si Si4 0.673286 0.576076 0.454934
O O1 0.000000 0.500000 0.500000
O O2 0.092665 0.597071 0.215407
O O3 0.922026 0.609903 0.228361
O O4 0.000000 0.500000 0.000000
O O5 0.696035 0.330730 0.394734
O O6 0.676418 0.482244 0.479487
O O7 0.741528 0.395392 0.822596
O O8 0.310275 0.246710 0.413362
O O9 0.333135 0.116666 0.763089
#
# Coordination Sequence:
#
# PCOD9460689 Si02
#       4
#     8   8   8   8
#     4  10  24  38  66 108 138 170 236 305 352 419
#     4  11  22  42  73 100 136 181 241 292 362 423
#     4  12  26  42  66  98 138 184 230 288 354 430
#     4  11  22  42  73 100 136 181 241 292 362 423
#
# _framework density 22.669553000000001
#
# number of rings (size 3 to 8) (size 9 to 14) (size 15 to 20)
#    0.000    1.000    5.000    1.500    7.000    0.000 
#    0.000    2.500    0.000    0.000    0.000    0.000 
#    0.000    0.000    0.000    0.000    0.000    0.000 
#
# Total GULP energy -178531.446689 kJ/mol
# GULP energy per Si atom -5579.107709 kJ/mol
# Density = 2.261796 g / cm^3
# Si number density = 22.669553 Si / 1000 Ang^3
#
#
#
# Elastic Constant Matrix: (Units=GPa)
#
#
# Indices 1 2 3 4 5 6 
#
# 1 130.5770 -6.8384 51.5129 0.0000 0.0000 0.0000
# 2 -6.8384 47.2426 19.5193 0.0000 0.0000 0.0000
# 3 51.5129 19.5193 158.9688 0.0000 0.0000 0.0000
# 4 0.0000 0.0000 0.0000 55.1871 0.0000 0.0000
# 5 0.0000 0.0000 0.0000 0.0000 34.1290 0.0000
# 6 0.0000 0.0000 0.0000 0.0000 0.0000 16.3816
#
#
#
# Elastic Compliance Matrix: (Units=1/GPa)
#
#
# Indices 1 2 3 4 5 6 
#
# 1 0.009089 0.002668 -0.003273 0.000000 0.000000 0.000000
# 2 0.002668 0.023082 -0.003699 0.000000 0.000000 0.000000
# 3 -0.003273 -0.003699 0.007805 0.000000 0.000000 0.000000
# 4 0.000000 0.000000 0.000000 0.018120 0.000000 0.000000
# 5 0.000000 0.000000 0.000000 0.000000 0.029301 0.000000
# 6 0.000000 0.000000 0.000000 0.000000 0.000000 0.061044
#
#
# Mechanical properties :
#
#
# Convention : Reuss Voigt Hill
#
# Bulk Modulus (GPa) = 31.87867 51.68622 41.78244
# Shear Modulus (GPa) = 29.84991 39.31251 34.58121
#
# Velocity S-wave (km/s) = 3.63263 4.16884 3.90993
# Velocity P-wave (km/s) = 5.62917 6.78392 6.23334
#
# Compressibility (1/GPa) = 0.03136894
#
# Stress axis : x y z
#
# Youngs Moduli (GPa) = 110.02068 43.32432 128.11885
#
# Poissons Ratio (x) = -0.11559 0.41932
# Poissons Ratio (y) = -0.29353 0.47387
# Poissons Ratio (z) = 0.36009 0.16024
#
# Static dielectric constant tensor:
#      x y z
#    x 1.891180 0.000000 0.000000 
#    y 0.000000 1.864870 0.000000 
#    z 0.000000 0.000000 1.911510 
# 
# From -- ./inp_files/341.got.cif
#   From: 2010.05.17/outbox.cif.g08.bks.cpg/sg61_1_cif.got.tgz:341.got - 2010.06.03 15:17:17.
