data_PCOD9460713
_publ_section_title
;
Structure prediction by ZEFSAII (Michael W. Deem and Ramdas Pophale) SiO2 
 PCOD9460713
Probable space group: P B C A
;
_chemical_formula_sum "Si O2"
_cell_formula_units_Z 64
_cell_length_a 8.523125
_cell_length_b 21.148576
_cell_length_c 14.810100
_cell_angle_alpha 90.000000
_cell_angle_beta 90.000000
_cell_angle_gamma 90.000000
_cell_volume 2669.549506
_symmetry_space_group_name_H-M "P B C A"
_symmetry_group_IT_number 61
_symmetry_cell_setting 'orthorhombic'
loop_
_space_group_symop_operation_xyz
x,y,z
1/2-x,-y,1/2+z
1/2+x,1/2-y,-z
-x,1/2+y,1/2-z
-x,-y,-z
1/2+x,y,1/2-z
1/2-x,1/2+y,z
x,1/2-y,1/2+z
loop_
_atom_site_type_symbol
_atom_site_label
_atom_site_fract_x
_atom_site_fract_y
_atom_site_fract_z
Si Si1 0.005891 0.752102 0.417200
Si Si2 0.163496 0.122110 0.512109
Si Si3 0.831759 0.056118 0.534052
Si Si4 0.677356 0.038858 0.336688
Si Si5 0.427083 0.688418 0.760312
Si Si6 0.825144 0.810747 0.050672
Si Si7 0.668537 0.604457 0.811516
Si Si8 0.803002 0.438711 0.650945
O O1 0.914212 0.811977 0.460484
O O2 0.992904 0.762111 0.310679
O O3 0.921295 0.691958 0.458706
O O4 0.180292 0.762956 0.450553
O O5 0.306338 0.109739 0.581156
O O6 0.235295 0.116103 0.413559
O O7 0.018112 0.072467 0.528976
O O8 0.765657 0.046200 0.432234
O O9 0.746677 0.120277 0.568097
O O10 0.777856 0.999954 0.600747
O O11 0.490916 0.050223 0.349855
O O12 0.748047 0.077121 0.252535
O O13 0.707702 0.968017 0.298360
O O14 0.428537 0.709025 0.863508
O O15 0.505250 0.618598 0.763376
O O16 0.257686 0.666349 0.726355
#
# Coordination Sequence:
#
# PCOD9460713 Si02
#       8
#     8   8   8   8   8   8   8   8
#     4  10  25  43  68 102 125 183 227 284 342 393
#     4  10  24  42  65  93 137 175 227 281 337 401
#     4  11  24  45  66 102 138 180 227 281 347 413
#     4  12  25  38  66  99 134 182 221 270 349 410
#     4  11  23  42  68 101 131 169 230 279 335 399
#     4  11  24  44  69  96 137 172 226 281 339 405
#     4  11  22  39  66  98 134 173 219 283 326 398
#     4  12  25  41  64  99 136 181 224 279 345 412
#
# _framework density 23.974081999999999
#
# number of rings (size 3 to 8) (size 9 to 14) (size 15 to 20)
#    0.000    1.000    2.500    3.750   10.500    0.000 
#    2.250    0.000    0.000    0.000    0.000    0.000 
#    0.000    0.000    0.000    0.000    0.000    0.000 
#
# Total GULP energy -357458.863449 kJ/mol
# GULP energy per Si atom -5585.294741 kJ/mol
# Density = 2.391952 g / cm^3
# Si number density = 23.974082 Si / 1000 Ang^3
#
#
#
# Elastic Constant Matrix: (Units=GPa)
#
#
# Indices 1 2 3 4 5 6 
#
# 1 78.4175 10.8383 37.8429 0.0000 0.0000 0.0000
# 2 10.8383 28.4994 -1.8682 0.0000 0.0000 0.0000
# 3 37.8429 -1.8682 165.3858 0.0000 0.0000 0.0000
# 4 0.0000 0.0000 0.0000 32.2338 0.0000 0.0000
# 5 0.0000 0.0000 0.0000 0.0000 26.4685 0.0000
# 6 0.0000 0.0000 0.0000 0.0000 0.0000 35.0969
#
#
#
# Elastic Compliance Matrix: (Units=1/GPa)
#
#
# Indices 1 2 3 4 5 6 
#
# 1 0.015314 -0.006058 -0.003572 0.000000 0.000000 0.000000
# 2 -0.006058 0.037511 0.001810 0.000000 0.000000 0.000000
# 3 -0.003572 0.001810 0.006884 0.000000 0.000000 0.000000
# 4 0.000000 0.000000 0.000000 0.031023 0.000000 0.000000
# 5 0.000000 0.000000 0.000000 0.000000 0.037781 0.000000
# 6 0.000000 0.000000 0.000000 0.000000 0.000000 0.028493
#
#
# Mechanical properties :
#
#
# Convention : Reuss Voigt Hill
#
# Bulk Modulus (GPa) = 22.69230 40.65876 31.67553
# Shear Modulus (GPa) = 26.69009 33.79249 30.24129
#
# Velocity S-wave (km/s) = 3.34022 3.75846 3.55549
# Velocity P-wave (km/s) = 4.93579 5.98590 5.48603
#
# Compressibility (1/GPa) = 0.04406782
#
# Stress axis : x y z
#
# Youngs Moduli (GPa) = 65.30174 26.65895 145.25726
#
# Poissons Ratio (x) = 0.16150 0.51892
# Poissons Ratio (y) = 0.39559 -0.26290
# Poissons Ratio (z) = 0.23328 -0.04825
#
# Static dielectric constant tensor:
#      x y z
#    x 1.933490 0.000000 0.000000 
#    y 0.000000 1.970180 0.000000 
#    z 0.000000 0.000000 1.910110 
# 
# From -- ./inp_files/7246.got.cif
#   From: 2010.05.17/outbox.cif.g08.bks.cpg/sg61_4_cif.got.tgz:7246.got - 2010.06.03 15:17:17.
