data_PCOD9460624
_publ_section_title
;
Structure prediction by ZEFSAII (Michael W. Deem and Ramdas Pophale) SiO2 
 PCOD9460624
Probable space group: P B C A
;
_chemical_formula_sum "Si O2"
_cell_formula_units_Z 56
_cell_length_a 12.771498
_cell_length_b 8.518843
_cell_length_c 21.269037
_cell_angle_alpha 90.000000
_cell_angle_beta 90.000000
_cell_angle_gamma 90.000000
_cell_volume 2314.036905
_symmetry_space_group_name_H-M "P B C A"
_symmetry_group_IT_number 61
_symmetry_cell_setting 'orthorhombic'
loop_
_space_group_symop_operation_xyz
x,y,z
1/2-x,-y,1/2+z
1/2+x,1/2-y,-z
-x,1/2+y,1/2-z
-x,-y,-z
1/2+x,y,1/2-z
1/2-x,1/2+y,z
x,1/2-y,1/2+z
loop_
_atom_site_type_symbol
_atom_site_label
_atom_site_fract_x
_atom_site_fract_y
_atom_site_fract_z
Si Si1 0.651032 0.260716 0.237320
Si Si2 0.666227 0.758419 0.832338
Si Si3 0.226047 0.511091 0.577924
Si Si4 0.399076 0.758270 0.018253
Si Si5 0.464634 0.408892 0.772691
Si Si6 0.822695 0.884915 0.601495
Si Si7 0.109651 0.745603 0.900876
O O1 0.750522 0.298863 0.280052
O O2 0.581550 0.417335 0.230599
O O3 0.587962 0.120699 0.271584
O O4 0.679130 0.196129 0.169211
O O5 0.719892 0.896174 0.872015
O O6 0.648337 0.624252 0.883518
O O7 0.572046 0.827267 0.792216
O O8 0.160916 0.404314 0.530324
O O9 0.321457 0.610665 0.548536
O O10 0.509953 0.756033 0.053209
O O11 0.404763 0.802966 0.945281
O O12 0.423412 0.318773 0.833984
O O13 0.707015 0.848219 0.574709
O O14 0.849868 0.067384 0.606647
#
# Coordination Sequence:
#
# PCOD9460624 Si02
#       7
#     8   8   8   8   8   8   8
#     4  12  27  44  70 111 149 195 243 311 388 450
#     4  11  23  43  67 102 147 180 235 303 373 441
#     4  10  23  44  73 106 144 191 244 308 363 449
#     4  11  26  51  75 107 151 201 258 306 377 450
#     4  12  26  43  73 104 148 188 247 307 389 452
#     4  12  27  50  74 106 156 198 253 317 371 450
#     4  12  27  49  74 108 149 198 256 311 383 448
#
# _framework density 24.200132
#
# number of rings (size 3 to 8) (size 9 to 14) (size 15 to 20)
#    0.000    0.571    2.857    4.714    8.000    0.000 
#    2.571    3.571    0.000    0.000    0.000    0.000 
#    0.000    0.000    0.000    0.000    0.000    0.000 
#
# Total GULP energy -313982.079237 kJ/mol
# GULP energy per Si atom -5606.822844 kJ/mol
# Density = 2.414505 g / cm^3
# Si number density = 24.200132 Si / 1000 Ang^3
#
#
#
# Elastic Constant Matrix: (Units=GPa)
#
#
# Indices 1 2 3 4 5 6 
#
# 1 81.7743 43.9123 4.4588 0.0000 0.0000 0.0000
# 2 43.9123 129.2850 42.2242 0.0000 0.0000 0.0000
# 3 4.4588 42.2242 87.0946 0.0000 0.0000 0.0000
# 4 0.0000 0.0000 0.0000 41.4127 0.0000 0.0000
# 5 0.0000 0.0000 0.0000 0.0000 27.9923 0.0000
# 6 0.0000 0.0000 0.0000 0.0000 0.0000 29.0421
#
#
#
# Elastic Compliance Matrix: (Units=1/GPa)
#
#
# Indices 1 2 3 4 5 6 
#
# 1 0.015261 -0.005855 0.002057 0.000000 0.000000 0.000000
# 2 -0.005855 0.011437 -0.005245 0.000000 0.000000 0.000000
# 3 0.002057 -0.005245 0.013919 0.000000 0.000000 0.000000
# 4 0.000000 0.000000 0.000000 0.024147 0.000000 0.000000
# 5 0.000000 0.000000 0.000000 0.000000 0.035724 0.000000
# 6 0.000000 0.000000 0.000000 0.000000 0.000000 0.034433
#
#
# Mechanical properties :
#
#
# Convention : Reuss Voigt Hill
#
# Bulk Modulus (GPa) = 44.38286 53.26050 48.82168
# Shear Modulus (GPa) = 31.14941 33.52665 32.33803
#
# Velocity S-wave (km/s) = 3.59159 3.72612 3.65948
# Velocity P-wave (km/s) = 5.96482 6.36931 6.17038
#
# Compressibility (1/GPa) = 0.02253122
#
# Stress axis : x y z
#
# Youngs Moduli (GPa) = 65.52684 87.43845 71.84336
#
# Poissons Ratio (x) = 0.51199 -0.14782
# Poissons Ratio (y) = 0.38369 0.37680
# Poissons Ratio (z) = -0.13482 0.45860
#
# Static dielectric constant tensor:
#      x y z
#    x 1.940470 0.000000 0.000000 
#    y 0.000000 1.898700 0.000000 
#    z 0.000000 0.000000 1.899110 
# 
# From -- ./inp_files/10457.got.cif
#   From: 2010.05.17/outbox.cif.g08.bks.cpg/sg61_6_cif.got.tgz:10457.got - 2010.06.03 15:17:17.
