data_PCOD9460238
_publ_section_title
;
Structure prediction by ZEFSAII (Michael W. Deem and Ramdas Pophale) SiO2 
 PCOD9460238
Probable space group: P B C A
;
_chemical_formula_sum "Si O2"
_cell_formula_units_Z 64
_cell_length_a 14.275468
_cell_length_b 12.344733
_cell_length_c 17.192248
_cell_angle_alpha 90.000000
_cell_angle_beta 90.000000
_cell_angle_gamma 90.000000
_cell_volume 3029.735553
_symmetry_space_group_name_H-M "P B C A"
_symmetry_group_IT_number 61
_symmetry_cell_setting 'orthorhombic'
loop_
_space_group_symop_operation_xyz
x,y,z
1/2-x,-y,1/2+z
1/2+x,1/2-y,-z
-x,1/2+y,1/2-z
-x,-y,-z
1/2+x,y,1/2-z
1/2-x,1/2+y,z
x,1/2-y,1/2+z
loop_
_atom_site_type_symbol
_atom_site_label
_atom_site_fract_x
_atom_site_fract_y
_atom_site_fract_z
Si Si1 0.185202 0.052007 0.708837
Si Si2 0.600715 0.545650 0.020018
Si Si3 0.900726 0.262180 0.919053
Si Si4 0.386101 0.124089 0.731254
Si Si5 0.463358 0.054364 0.311406
Si Si6 0.714072 0.528652 0.465016
Si Si7 0.464479 0.713315 0.659604
Si Si8 0.943032 0.612846 0.010348
O O1 0.284906 0.072868 0.748606
O O2 0.123081 0.160704 0.704361
O O3 0.111322 0.965287 0.742706
O O4 0.210621 0.019947 0.621384
O O5 0.610289 0.658664 0.974899
O O6 0.680598 0.464151 0.992793
O O7 0.500000 0.500000 0.000000
O O8 0.600440 0.555682 0.112131
O O9 0.876430 0.220466 0.832520
O O10 0.835920 0.356262 0.955139
O O11 0.005315 0.314891 0.924736
O O12 0.439453 0.159933 0.809059
O O13 0.459692 0.040787 0.691959
O O14 0.523230 0.163028 0.317457
O O15 0.660487 0.437954 0.517520
O O16 0.451223 0.682764 0.569192
O O17 0.000000 0.500000 0.000000
#
# Coordination Sequence:
#
# PCOD9460238 Si02
#       8
#     8   8   8   8   8   8   8   8
#     4  10  22  41  61  93 124 165 217 261 315 397
#     4  12  23  40  63  97 130 167 213 269 329 385
#     4  11  21  39  66  91 126 173 209 265 330 385
#     4  11  23  42  64  95 127 171 220 263 329 393
#     4  11  23  41  63  94 132 165 213 275 324 386
#     4  10  22  40  63  95 127 169 218 261 323 397
#     4  10  22  39  64  88 124 168 207 264 328 379
#     4   9  20  39  63  90 123 164 213 265 321 383
#
# _framework density 21.123957000000001
#
# number of rings (size 3 to 8) (size 9 to 14) (size 15 to 20)
#    0.000    1.500    3.750    0.750    0.000    7.000 
#    0.000    1.250    0.000    0.000    0.000    0.000 
#    0.000    0.000    0.000    0.000    0.000    0.000 
#
# Total GULP energy -357208.462838 kJ/mol
# GULP energy per Si atom -5581.382232 kJ/mol
# Density = 2.107588 g / cm^3
# Si number density = 21.123957 Si / 1000 Ang^3
#
#
#
# Elastic Constant Matrix: (Units=GPa)
#
#
# Indices 1 2 3 4 5 6 
#
# 1 116.2579 25.9238 9.0814 0.0000 0.0000 0.0000
# 2 25.9238 87.2874 7.1697 0.0000 0.0000 0.0000
# 3 9.0814 7.1697 13.9444 0.0000 0.0000 0.0000
# 4 0.0000 0.0000 0.0000 27.9881 0.0000 0.0000
# 5 0.0000 0.0000 0.0000 0.0000 26.0891 0.0000
# 6 0.0000 0.0000 0.0000 0.0000 0.0000 18.8148
#
#
#
# Elastic Compliance Matrix: (Units=1/GPa)
#
#
# Indices 1 2 3 4 5 6 
#
# 1 0.009529 -0.002423 -0.004960 0.000000 0.000000 0.000000
# 2 -0.002423 0.012578 -0.004889 0.000000 0.000000 0.000000
# 3 -0.004960 -0.004889 0.077458 0.000000 0.000000 0.000000
# 4 0.000000 0.000000 0.000000 0.035729 0.000000 0.000000
# 5 0.000000 0.000000 0.000000 0.000000 0.038330 0.000000
# 6 0.000000 0.000000 0.000000 0.000000 0.000000 0.053150
#
#
# Mechanical properties :
#
#
# Convention : Reuss Voigt Hill
#
# Bulk Modulus (GPa) = 13.32973 33.53773 23.43373
# Shear Modulus (GPa) = 18.09462 26.26604 22.18033
#
# Velocity S-wave (km/s) = 2.92994 3.53005 3.24390
# Velocity P-wave (km/s) = 4.21544 5.70316 5.01478
#
# Compressibility (1/GPa) = 0.07502028
#
# Stress axis : x y z
#
# Youngs Moduli (GPa) = 104.93985 79.50691 12.91024
#
# Poissons Ratio (x) = 0.19262 0.06404
# Poissons Ratio (y) = 0.25424 0.06312
# Poissons Ratio (z) = 0.52054 0.38872
#
# Static dielectric constant tensor:
#      x y z
#    x 1.767520 0.000000 0.000000 
#    y 0.000000 1.780770 0.000000 
#    z 0.000000 0.000000 1.804360 
# 
# From -- ./inp_files/9532.got.cif
#   From: 2010.05.17/outbox.cif.g08.bks.cpg/sg61_5_cif.got.tgz:9532.got - 2010.06.03 15:17:17.
