data_PCOD9460239
_publ_section_title
;
Structure prediction by ZEFSAII (Michael W. Deem and Ramdas Pophale) SiO2 
 PCOD9460239
Probable space group: P B C A
;
_chemical_formula_sum "Si O2"
_cell_formula_units_Z 48
_cell_length_a 12.420720
_cell_length_b 25.235311
_cell_length_c 5.840128
_cell_angle_alpha 90.000000
_cell_angle_beta 90.000000
_cell_angle_gamma 90.000000
_cell_volume 1830.533996
_symmetry_space_group_name_H-M "P B C A"
_symmetry_group_IT_number 61
_symmetry_cell_setting 'orthorhombic'
loop_
_space_group_symop_operation_xyz
x,y,z
1/2-x,-y,1/2+z
1/2+x,1/2-y,-z
-x,1/2+y,1/2-z
-x,-y,-z
1/2+x,y,1/2-z
1/2-x,1/2+y,z
x,1/2-y,1/2+z
loop_
_atom_site_type_symbol
_atom_site_label
_atom_site_fract_x
_atom_site_fract_y
_atom_site_fract_z
Si Si1 0.457033 0.225087 0.885841
Si Si2 0.294858 0.609746 0.658301
Si Si3 0.280054 0.725950 0.604805
Si Si4 0.885207 0.030481 0.753872
Si Si5 0.531458 0.611340 0.449410
Si Si6 0.426904 0.920454 0.550692
O O1 0.428954 0.244680 0.626738
O O2 0.588474 0.226103 0.888308
O O3 0.425036 0.163572 0.930805
O O4 0.247009 0.664741 0.577547
O O5 0.216120 0.560230 0.635944
O O6 0.408404 0.605255 0.532187
O O7 0.333114 0.610866 0.924213
O O8 0.251333 0.754988 0.364669
O O9 0.901773 0.058037 0.505500
O O10 0.879627 0.968450 0.797251
O O11 0.995234 0.049716 0.873269
O O12 0.509421 0.617644 0.182188
#
# Coordination Sequence:
#
# PCOD9460239 Si02
#       6
#     8   8   8   8   8   8
#     4   9  19  33  62  92 126 170 217 270 326 396
#     4  10  23  38  65  95 122 170 221 264 328 400
#     4   9  19  36  60  93 131 168 216 274 331 392
#     4  10  23  43  60  95 129 165 214 279 327 392
#     4  10  22  39  64  90 128 167 216 263 333 393
#     4  10  23  41  65  89 129 168 215 272 334 394
#
# _framework density 26.221855000000001
#
# number of rings (size 3 to 8) (size 9 to 14) (size 15 to 20)
#    0.000    2.333    0.000    0.500   16.333    1.333 
#    0.000    1.667    0.000    0.000    0.000    0.000 
#    0.000    0.000    0.000    0.000    0.000    0.000 
#
# Total GULP energy -268088.287391 kJ/mol
# GULP energy per Si atom -5585.172654 kJ/mol
# Density = 2.616217 g / cm^3
# Si number density = 26.221855 Si / 1000 Ang^3
#
#
#
# Elastic Constant Matrix: (Units=GPa)
#
#
# Indices 1 2 3 4 5 6 
#
# 1 38.0431 15.6482 16.2170 0.0000 0.0000 0.0000
# 2 15.6482 62.7679 54.0957 0.0000 0.0000 0.0000
# 3 16.2170 54.0957 103.8402 0.0000 0.0000 0.0000
# 4 0.0000 0.0000 0.0000 17.6849 0.0000 0.0000
# 5 0.0000 0.0000 0.0000 0.0000 46.3395 0.0000
# 6 0.0000 0.0000 0.0000 0.0000 0.0000 32.0859
#
#
#
# Elastic Compliance Matrix: (Units=1/GPa)
#
#
# Indices 1 2 3 4 5 6 
#
# 1 0.029402 -0.006121 -0.001403 0.000000 0.000000 0.000000
# 2 -0.006121 0.030187 -0.014770 0.000000 0.000000 0.000000
# 3 -0.001403 -0.014770 0.017544 0.000000 0.000000 0.000000
# 4 0.000000 0.000000 0.000000 0.056545 0.000000 0.000000
# 5 0.000000 0.000000 0.000000 0.000000 0.021580 0.000000
# 6 0.000000 0.000000 0.000000 0.000000 0.000000 0.031166
#
#
# Mechanical properties :
#
#
# Convention : Reuss Voigt Hill
#
# Bulk Modulus (GPa) = 30.72691 41.84144 36.28417
# Shear Modulus (GPa) = 20.67310 27.13474 23.90392
#
# Velocity S-wave (km/s) = 2.81088 3.22034 3.02255
# Velocity P-wave (km/s) = 4.71998 5.46066 5.10377
#
# Compressibility (1/GPa) = 0.03254477
#
# Stress axis : x y z
#
# Youngs Moduli (GPa) = 34.01162 33.12686 57.00013
#
# Poissons Ratio (x) = 0.20275 0.07999
# Poissons Ratio (y) = 0.20817 0.84190
# Poissons Ratio (z) = 0.04773 0.48929
#
# Static dielectric constant tensor:
#      x y z
#    x 2.105050 0.000000 0.000000 
#    y 0.000000 1.982590 0.000000 
#    z 0.000000 0.000000 2.350580 
# 
# From -- ./inp_files/537.got.cif
#   From: 2010.05.17/outbox.cif.g08.bks.cpg/sg61_1_cif.got.tgz:537.got - 2010.06.03 15:17:17.
