data_PCOD9460465
_publ_section_title
;
Structure prediction by ZEFSAII (Michael W. Deem and Ramdas Pophale) SiO2 
 PCOD9460465
Probable space group: P B C A
;
_chemical_formula_sum "Si O2"
_cell_formula_units_Z 64
_cell_length_a 27.668923
_cell_length_b 11.591495
_cell_length_c 8.758193
_cell_angle_alpha 90.000000
_cell_angle_beta 90.000000
_cell_angle_gamma 90.000000
_cell_volume 2808.964291
_symmetry_space_group_name_H-M "P B C A"
_symmetry_group_IT_number 61
_symmetry_cell_setting 'orthorhombic'
loop_
_space_group_symop_operation_xyz
x,y,z
1/2-x,-y,1/2+z
1/2+x,1/2-y,-z
-x,1/2+y,1/2-z
-x,-y,-z
1/2+x,y,1/2-z
1/2-x,1/2+y,z
x,1/2-y,1/2+z
loop_
_atom_site_type_symbol
_atom_site_label
_atom_site_fract_x
_atom_site_fract_y
_atom_site_fract_z
Si Si1 0.056655 0.499054 0.817592
Si Si2 0.611971 0.199446 0.269264
Si Si3 0.357630 0.324341 0.384678
Si Si4 0.187767 0.284376 0.985619
Si Si5 0.797660 0.540143 0.623986
Si Si6 0.951999 0.921272 0.339303
Si Si7 0.874299 0.402355 0.779610
Si Si8 0.774542 0.086467 0.831972
O O1 0.076064 0.405972 0.697262
O O2 0.099050 0.591607 0.836981
O O3 0.007157 0.566277 0.787225
O O4 0.049392 0.423331 0.974370
O O5 0.651449 0.226635 0.395138
O O6 0.577651 0.314151 0.266368
O O7 0.647702 0.160335 0.128590
O O8 0.372408 0.193804 0.349840
O O9 0.351830 0.350672 0.564244
O O10 0.311120 0.346762 0.278307
O O11 0.230808 0.350297 0.074068
O O12 0.210567 0.175555 0.897313
O O13 0.842591 0.510882 0.728235
O O14 0.751764 0.495677 0.719487
O O15 0.802904 0.478950 0.463700
O O16 0.926490 0.043660 0.303664
#
# Coordination Sequence:
#
# PCOD9460465 Si02
#       8
#     8   8   8   8   8   8   8   8
#     4  10  24  44  74 103 142 184 233 290 358 426
#     4  12  23  45  74 102 142 182 237 294 350 427
#     4  11  26  45  71 101 145 184 236 292 357 419
#     4  12  26  45  68 103 136 184 238 291 356 415
#     4  12  27  44  69  98 139 185 237 291 351 420
#     4  10  22  45  72 105 139 186 228 290 362 423
#     4  11  24  46  69 100 144 183 231 294 350 426
#     4  12  28  42  69 100 138 188 235 292 352 425
#
# _framework density 22.784199999999998
#
# number of rings (size 3 to 8) (size 9 to 14) (size 15 to 20)
#    0.000    0.750    3.750    2.250   12.250    0.000 
#    0.000    0.625    0.000    0.000    0.000    0.000 
#    0.000    0.000    0.000    0.000    0.000    0.000 
#
# Total GULP energy -357277.614872 kJ/mol
# GULP energy per Si atom -5582.462732 kJ/mol
# Density = 2.273234 g / cm^3
# Si number density = 22.784200 Si / 1000 Ang^3
#
#
#
# Elastic Constant Matrix: (Units=GPa)
#
#
# Indices 1 2 3 4 5 6 
#
# 1 136.2248 35.0188 25.6053 0.0000 0.0000 0.0000
# 2 35.0188 64.2063 -1.7791 0.0000 0.0000 0.0000
# 3 25.6053 -1.7791 50.3305 0.0000 0.0000 0.0000
# 4 0.0000 0.0000 0.0000 29.7564 0.0000 0.0000
# 5 0.0000 0.0000 0.0000 0.0000 23.0978 0.0000
# 6 0.0000 0.0000 0.0000 0.0000 0.0000 32.7806
#
#
#
# Elastic Compliance Matrix: (Units=1/GPa)
#
#
# Indices 1 2 3 4 5 6 
#
# 1 0.009701 -0.005433 -0.005128 0.000000 0.000000 0.000000
# 2 -0.005433 0.018633 0.003423 0.000000 0.000000 0.000000
# 3 -0.005128 0.003423 0.022598 0.000000 0.000000 0.000000
# 4 0.000000 0.000000 0.000000 0.033606 0.000000 0.000000
# 5 0.000000 0.000000 0.000000 0.000000 0.043294 0.000000
# 6 0.000000 0.000000 0.000000 0.000000 0.000000 0.030506
#
#
# Mechanical properties :
#
#
# Convention : Reuss Voigt Hill
#
# Bulk Modulus (GPa) = 27.28031 40.93909 34.10970
# Shear Modulus (GPa) = 27.05134 29.92139 28.48637
#
# Velocity S-wave (km/s) = 3.44944 3.62781 3.53975
# Velocity P-wave (km/s) = 5.27865 5.96282 5.63114
#
# Compressibility (1/GPa) = 0.03665648
#
# Stress axis : x y z
#
# Youngs Moduli (GPa) = 103.07887 53.66820 44.25126
#
# Poissons Ratio (x) = 0.29159 0.22690
# Poissons Ratio (y) = 0.56006 -0.15146
# Poissons Ratio (z) = 0.52854 -0.18369
#
# Static dielectric constant tensor:
#      x y z
#    x 1.842030 0.000000 0.000000 
#    y 0.000000 1.859980 0.000000 
#    z 0.000000 0.000000 1.928030 
# 
# From -- ./inp_files/4632.got.cif
#   From: 2010.05.17/outbox.cif.g08.bks.cpg/sg61_3_cif.got.tgz:4632.got - 2010.06.03 15:17:17.
