data_PCOD9460306
_publ_section_title
;
Structure prediction by ZEFSAII (Michael W. Deem and Ramdas Pophale) SiO2 
 PCOD9460306
Probable space group: P B C A
;
_chemical_formula_sum "Si O2"
_cell_formula_units_Z 48
_cell_length_a 15.441002
_cell_length_b 7.019405
_cell_length_c 17.867711
_cell_angle_alpha 90.000000
_cell_angle_beta 90.000000
_cell_angle_gamma 90.000000
_cell_volume 1936.621278
_symmetry_space_group_name_H-M "P B C A"
_symmetry_group_IT_number 61
_symmetry_cell_setting 'orthorhombic'
loop_
_space_group_symop_operation_xyz
x,y,z
1/2-x,-y,1/2+z
1/2+x,1/2-y,-z
-x,1/2+y,1/2-z
-x,-y,-z
1/2+x,y,1/2-z
1/2-x,1/2+y,z
x,1/2-y,1/2+z
loop_
_atom_site_type_symbol
_atom_site_label
_atom_site_fract_x
_atom_site_fract_y
_atom_site_fract_z
Si Si1 0.360623 0.442153 0.205162
Si Si2 0.099711 0.544824 0.018534
Si Si3 0.841401 0.502800 0.824319
Si Si4 0.169273 0.655848 0.864491
Si Si5 0.631462 0.098285 0.663879
Si Si6 0.469723 0.409538 0.076948
O O1 0.369545 0.213716 0.193174
O O2 0.262506 0.495735 0.184315
O O3 0.369976 0.461207 0.294246
O O4 0.426932 0.527069 0.144900
O O5 0.132949 0.434929 0.092010
O O6 0.101086 0.761473 0.047723
O O7 0.152258 0.550155 0.942196
O O8 0.000000 0.500000 0.000000
O O9 0.879791 0.616473 0.753486
O O10 0.272243 0.670810 0.852573
O O11 0.132932 0.871969 0.859740
O O12 0.553942 0.183191 0.615573
O O13 0.500000 0.500000 0.000000
#
# Coordination Sequence:
#
# PCOD9460306 Si02
#       6
#     8   8   8   8   8   8
#     4   9  21  41  62  88 122 160 204 251 305 366
#     4  11  25  39  59  94 125 156 208 255 306 358
#     4   9  21  41  61  88 119 158 204 246 302 370
#     4  10  22  41  62  90 123 162 206 251 308 373
#     4  10  22  42  64  87 122 164 204 248 311 366
#     4  11  23  41  62  90 123 162 206 253 309 361
#
# _framework density 24.785433999999999
#
# number of rings (size 3 to 8) (size 9 to 14) (size 15 to 20)
#    0.000    2.000    1.667    0.000    7.000    1.333 
#    0.000    0.000    0.000    0.000    0.000    0.000 
#    0.000    0.000    0.000    0.000    0.000    0.000 
#
# Total GULP energy -268272.104424 kJ/mol
# GULP energy per Si atom -5589.002175 kJ/mol
# Density = 2.472902 g / cm^3
# Si number density = 24.785434 Si / 1000 Ang^3
#
#
#
# Elastic Constant Matrix: (Units=GPa)
#
#
# Indices 1 2 3 4 5 6 
#
# 1 60.0152 -3.2803 74.1120 0.0000 0.0000 0.0000
# 2 -3.2803 52.8111 19.4175 0.0000 0.0000 0.0000
# 3 74.1120 19.4175 268.2331 0.0000 0.0000 0.0000
# 4 0.0000 0.0000 0.0000 28.9203 0.0000 0.0000
# 5 0.0000 0.0000 0.0000 0.0000 56.3068 0.0000
# 6 0.0000 0.0000 0.0000 0.0000 0.0000 28.7960
#
#
#
# Elastic Compliance Matrix: (Units=1/GPa)
#
#
# Indices 1 2 3 4 5 6 
#
# 1 0.026258 0.004416 -0.007575 0.000000 0.000000 0.000000
# 2 0.004416 0.020196 -0.002682 0.000000 0.000000 0.000000
# 3 -0.007575 -0.002682 0.006015 0.000000 0.000000 0.000000
# 4 0.000000 0.000000 0.000000 0.034578 0.000000 0.000000
# 5 0.000000 0.000000 0.000000 0.000000 0.017760 0.000000
# 6 0.000000 0.000000 0.000000 0.000000 0.000000 0.034727
#
#
# Mechanical properties :
#
#
# Convention : Reuss Voigt Hill
#
# Bulk Modulus (GPa) = 24.51758 62.39531 43.45645
# Shear Modulus (GPa) = 30.33794 42.19199 36.26497
#
# Velocity S-wave (km/s) = 3.50240 4.13036 3.82927
# Velocity P-wave (km/s) = 5.12534 6.92642 6.09280
#
# Compressibility (1/GPa) = 0.04078706
#
# Stress axis : x y z
#
# Youngs Moduli (GPa) = 38.08431 49.51513 166.24878
#
# Poissons Ratio (x) = -0.21866 1.25926
# Poissons Ratio (y) = -0.16818 0.44589
# Poissons Ratio (z) = 0.28847 0.13280
#
# Static dielectric constant tensor:
#      x y z
#    x 1.923280 0.000000 0.000000 
#    y 0.000000 2.135310 0.000000 
#    z 0.000000 0.000000 2.047640 
# 
# From -- ./inp_files/5716.got.cif
#   From: 2010.05.17/outbox.cif.g08.bks.cpg/sg61_3_cif.got.tgz:5716.got - 2010.06.03 15:17:17.
