data_PCOD9460145
_publ_section_title
;
Structure prediction by ZEFSAII (Michael W. Deem and Ramdas Pophale) SiO2 
 PCOD9460145
Probable space group: P B C A
;
_chemical_formula_sum "Si O2"
_cell_formula_units_Z 28
_cell_length_a 5.001042
_cell_length_b 12.469412
_cell_length_c 16.168573
_cell_angle_alpha 90.000000
_cell_angle_beta 90.000000
_cell_angle_gamma 90.000000
_cell_volume 1008.273071
_symmetry_space_group_name_H-M "P B C A"
_symmetry_group_IT_number 61
_symmetry_cell_setting 'orthorhombic'
loop_
_space_group_symop_operation_xyz
x,y,z
1/2-x,-y,1/2+z
1/2+x,1/2-y,-z
-x,1/2+y,1/2-z
-x,-y,-z
1/2+x,y,1/2-z
1/2-x,1/2+y,z
x,1/2-y,1/2+z
loop_
_atom_site_type_symbol
_atom_site_label
_atom_site_fract_x
_atom_site_fract_y
_atom_site_fract_z
Si Si1 0.439457 0.485085 0.192615
Si Si2 0.599425 0.729083 0.298979
Si Si3 0.900105 0.814849 0.526325
Si Si4 0.000000 0.000000 0.000000
O O1 0.165370 0.511260 0.239558
O O2 0.439115 0.355525 0.183600
O O3 0.493718 0.526471 0.100477
O O4 0.908266 0.710024 0.279338
O O5 0.490396 0.673036 0.380092
O O6 0.678365 0.719304 0.518630
O O7 0.758847 0.918115 0.489115
#
# Coordination Sequence:
#
# PCOD9460145 Si02
#       4
#     8   8   8   4
#     4  10  24  44  71 108 147 192 251 312 373 450
#     4  10  21  43  71 100 143 193 242 309 372 446
#     4  12  27  46  71 109 145 193 251 309 380 458
#     4  12  28  48  80 110 154 204 252 324 384 456
#
# _framework density 27.770254000000001
#
# number of rings (size 3 to 8) (size 9 to 14) (size 15 to 20)
#    0.000    1.143    2.857    1.714    8.000    6.857 
#    0.000    0.000    0.000    0.000    0.000    0.000 
#    0.000    0.000    0.000    0.000    0.000    0.000 
#
# Total GULP energy -156341.186951 kJ/mol
# GULP energy per Si atom -5583.613820 kJ/mol
# Density = 2.770705 g / cm^3
# Si number density = 27.770254 Si / 1000 Ang^3
#
#
#
# Elastic Constant Matrix: (Units=GPa)
#
#
# Indices 1 2 3 4 5 6 
#
# 1 187.0094 27.3943 84.2518 0.0000 0.0000 0.0000
# 2 27.3943 53.9507 30.1887 0.0000 0.0000 0.0000
# 3 84.2518 30.1887 247.8887 0.0000 0.0000 0.0000
# 4 0.0000 0.0000 0.0000 46.2416 0.0000 0.0000
# 5 0.0000 0.0000 0.0000 0.0000 51.1840 0.0000
# 6 0.0000 0.0000 0.0000 0.0000 0.0000 68.4326
#
#
#
# Elastic Compliance Matrix: (Units=1/GPa)
#
#
# Indices 1 2 3 4 5 6 
#
# 1 0.006556 -0.002234 -0.001956 0.000000 0.000000 0.000000
# 2 -0.002234 0.020652 -0.001756 0.000000 0.000000 0.000000
# 3 -0.001956 -0.001756 0.004913 0.000000 0.000000 0.000000
# 4 0.000000 0.000000 0.000000 0.021626 0.000000 0.000000
# 5 0.000000 0.000000 0.000000 0.000000 0.019537 0.000000
# 6 0.000000 0.000000 0.000000 0.000000 0.000000 0.014613
#
#
# Mechanical properties :
#
#
# Convention : Reuss Voigt Hill
#
# Bulk Modulus (GPa) = 49.43460 85.83537 67.63498
# Shear Modulus (GPa) = 46.93426 56.30589 51.62008
#
# Velocity S-wave (km/s) = 4.11553 4.50773 4.31609
# Velocity P-wave (km/s) = 6.35794 7.62030 7.01756
#
# Compressibility (1/GPa) = 0.02022875
#
# Stress axis : x y z
#
# Youngs Moduli (GPa) = 152.53474 48.42057 203.55320
#
# Poissons Ratio (x) = 0.10819 0.39817
# Poissons Ratio (y) = 0.34081 0.35738
# Poissons Ratio (z) = 0.29837 0.08501
#
# Static dielectric constant tensor:
#      x y z
#    x 2.071970 0.000000 0.000000 
#    y 0.000000 2.418680 0.000000 
#    z 0.000000 0.000000 1.978430 
# 
# From -- ./inp_files/296.got.cif
#   From: 2010.05.17/outbox.cif.g08.bks.cpg/sg61_1_cif.got.tgz:296.got - 2010.06.03 15:17:17.
