data_PCOD9460018
_publ_section_title
;
Structure prediction by ZEFSAII (Michael W. Deem and Ramdas Pophale) SiO2 
 PCOD9460018
Probable space group: P B C A
;
_chemical_formula_sum "Si O2"
_cell_formula_units_Z 56
_cell_length_a 16.141252
_cell_length_b 8.767081
_cell_length_c 19.680886
_cell_angle_alpha 90.000000
_cell_angle_beta 90.000000
_cell_angle_gamma 90.000000
_cell_volume 2785.074921
_symmetry_space_group_name_H-M "P B C A"
_symmetry_group_IT_number 61
_symmetry_cell_setting 'orthorhombic'
loop_
_space_group_symop_operation_xyz
x,y,z
1/2-x,-y,1/2+z
1/2+x,1/2-y,-z
-x,1/2+y,1/2-z
-x,-y,-z
1/2+x,y,1/2-z
1/2-x,1/2+y,z
x,1/2-y,1/2+z
loop_
_atom_site_type_symbol
_atom_site_label
_atom_site_fract_x
_atom_site_fract_y
_atom_site_fract_z
Si Si1 0.822632 0.767044 0.601103
Si Si2 0.997553 0.897575 0.099394
Si Si3 0.252370 0.085224 0.142844
Si Si4 0.477795 0.262816 0.955425
Si Si5 0.161402 0.164003 0.554079
Si Si6 0.653471 0.889598 0.139697
Si Si7 0.865108 0.334827 0.291336
O O1 0.806317 0.802972 0.521631
O O2 0.744220 0.682570 0.632268
O O3 0.904326 0.663634 0.605830
O O4 0.839810 0.928650 0.635942
O O5 0.053398 0.859005 0.163699
O O6 0.036359 0.812979 0.033332
O O7 0.993791 0.077275 0.083486
O O8 0.191979 0.200812 0.103383
O O9 0.317631 0.181337 0.186679
O O10 0.300944 0.987677 0.086257
O O11 0.198192 0.971043 0.188460
O O12 0.562117 0.165676 0.950745
O O13 0.403267 0.172886 0.921165
O O14 0.616798 0.839484 0.211838
#
# Coordination Sequence:
#
# PCOD9460018 Si02
#       7
#     8   8   8   8   8   8   8
#     4  11  25  41  67  95 129 170 213 270 323 385
#     4  10  23  43  66  95 130 168 218 271 324 376
#     4  10  22  39  67  92 126 168 217 264 318 386
#     4  10  23  42  65  95 130 166 218 273 321 377
#     4  10  21  40  66  98 122 165 217 272 317 369
#     4  12  26  43  64  95 133 172 214 263 333 393
#     4  11  24  43  64  94 132 171 213 264 327 392
#
# _framework density 20.107178999999999
#
# number of rings (size 3 to 8) (size 9 to 14) (size 15 to 20)
#    0.000    1.429    1.429    2.571    8.000    2.286 
#    5.143    0.000    0.000    0.000    0.000    0.000 
#    0.000    0.000    0.000    0.000    0.000    0.000 
#
# Total GULP energy -313357.582483 kJ/mol
# GULP energy per Si atom -5595.671116 kJ/mol
# Density = 2.006141 g / cm^3
# Si number density = 20.107179 Si / 1000 Ang^3
#
#
#
# Elastic Constant Matrix: (Units=GPa)
#
#
# Indices 1 2 3 4 5 6 
#
# 1 44.5417 -0.2544 29.2368 0.0000 0.0000 0.0000
# 2 -0.2544 19.1526 0.7096 0.0000 0.0000 0.0000
# 3 29.2368 0.7096 70.6838 0.0000 0.0000 0.0000
# 4 0.0000 0.0000 0.0000 12.0863 0.0000 0.0000
# 5 0.0000 0.0000 0.0000 0.0000 20.6537 0.0000
# 6 0.0000 0.0000 0.0000 0.0000 0.0000 20.0283
#
#
#
# Elastic Compliance Matrix: (Units=1/GPa)
#
#
# Indices 1 2 3 4 5 6 
#
# 1 0.030833 0.000882 -0.012762 0.000000 0.000000 0.000000
# 2 0.000882 0.052257 -0.000890 0.000000 0.000000 0.000000
# 3 -0.012762 -0.000890 0.019435 0.000000 0.000000 0.000000
# 4 0.000000 0.000000 0.000000 0.082738 0.000000 0.000000
# 5 0.000000 0.000000 0.000000 0.000000 0.048417 0.000000
# 6 0.000000 0.000000 0.000000 0.000000 0.000000 0.049929
#
#
# Mechanical properties :
#
#
# Convention : Reuss Voigt Hill
#
# Bulk Modulus (GPa) = 12.98936 21.52914 17.25925
# Shear Modulus (GPa) = 14.93379 17.53273 16.23326
#
# Velocity S-wave (km/s) = 2.72823 2.95611 2.84445
# Velocity P-wave (km/s) = 4.04949 4.73095 4.40342
#
# Compressibility (1/GPa) = 0.07698611
#
# Stress axis : x y z
#
# Youngs Moduli (GPa) = 32.43292 19.13625 51.45297
#
# Poissons Ratio (x) = -0.01689 0.65665
# Poissons Ratio (y) = -0.02862 0.04577
# Poissons Ratio (z) = 0.41391 0.01702
#
# Static dielectric constant tensor:
#      x y z
#    x 1.672790 0.000000 0.000000 
#    y 0.000000 1.695650 0.000000 
#    z 0.000000 0.000000 1.692500 
# 
# From -- ./inp_files/10462.got.cif
#   From: 2010.05.17/outbox.cif.g08.bks.cpg/sg61_6_cif.got.tgz:10462.got - 2010.06.03 15:17:17.
