data_PCOD9460034
_publ_section_title
;
Structure prediction by ZEFSAII (Michael W. Deem and Ramdas Pophale) SiO2 
 PCOD9460034
Probable space group: P B C A
;
_chemical_formula_sum "Si O2"
_cell_formula_units_Z 64
_cell_length_a 11.576504
_cell_length_b 15.395843
_cell_length_c 14.603506
_cell_angle_alpha 90.000000
_cell_angle_beta 90.000000
_cell_angle_gamma 90.000000
_cell_volume 2602.783430
_symmetry_space_group_name_H-M "P B C A"
_symmetry_group_IT_number 61
_symmetry_cell_setting 'orthorhombic'
loop_
_space_group_symop_operation_xyz
x,y,z
1/2-x,-y,1/2+z
1/2+x,1/2-y,-z
-x,1/2+y,1/2-z
-x,-y,-z
1/2+x,y,1/2-z
1/2-x,1/2+y,z
x,1/2-y,1/2+z
loop_
_atom_site_type_symbol
_atom_site_label
_atom_site_fract_x
_atom_site_fract_y
_atom_site_fract_z
Si Si1 0.495786 0.523643 0.371714
Si Si2 0.115578 0.110768 0.929030
Si Si3 0.005166 0.214768 0.388271
Si Si4 0.752885 0.008805 0.927047
Si Si5 0.969216 0.771004 0.833193
Si Si6 0.463422 0.534374 0.163995
Si Si7 0.340517 0.136869 0.824041
Si Si8 0.719270 0.693998 0.879034
O O1 0.457426 0.616929 0.410123
O O2 0.616559 0.499980 0.417553
O O3 0.520414 0.533716 0.263344
O O4 0.401832 0.448227 0.365627
O O5 0.062215 0.206224 0.943662
O O6 0.208545 0.131571 0.851079
O O7 0.189154 0.058009 0.003193
O O8 0.020079 0.042267 0.894490
O O9 0.031460 0.224987 0.278951
O O10 0.867726 0.228296 0.403648
O O11 0.825021 0.981241 0.835290
O O12 0.778556 0.110415 0.944894
O O13 0.982064 0.868335 0.870493
O O14 0.848080 0.728149 0.861898
O O15 0.079538 0.714458 0.861285
O O16 0.335510 0.155755 0.715427
#
# Coordination Sequence:
#
# PCOD9460034 Si02
#       8
#     8   8   8   8   8   8   8   8
#     4  11  23  42  69 100 130 177 236 286 324 402
#     4  12  25  43  63  99 142 180 217 273 355 413
#     4  10  22  39  66  96 133 171 222 283 332 397
#     4  12  24  42  70  95 134 181 226 273 353 412
#     4  10  21  40  68  99 127 167 230 282 332 384
#     4  11  23  42  70 100 130 175 233 283 330 408
#     4  11  22  40  67  92 134 173 218 284 337 395
#     4  11  19  40  69  95 127 175 226 283 332 398
#
# _framework density 24.589061000000001
#
# number of rings (size 3 to 8) (size 9 to 14) (size 15 to 20)
#    0.000    1.000    5.000    2.625    0.000    1.500 
#    2.250    2.500    0.000    0.000    0.000    0.000 
#    0.000    0.000    0.000    0.000    0.000    0.000 
#
# Total GULP energy -357882.326729 kJ/mol
# GULP energy per Si atom -5591.911355 kJ/mol
# Density = 2.453310 g / cm^3
# Si number density = 24.589061 Si / 1000 Ang^3
#
#
#
# Elastic Constant Matrix: (Units=GPa)
#
#
# Indices 1 2 3 4 5 6 
#
# 1 96.1513 49.3023 12.0932 0.0000 0.0000 0.0000
# 2 49.3023 179.4351 8.9924 0.0000 0.0000 0.0000
# 3 12.0932 8.9924 53.8637 0.0000 0.0000 0.0000
# 4 0.0000 0.0000 0.0000 25.9041 0.0000 0.0000
# 5 0.0000 0.0000 0.0000 0.0000 24.3804 0.0000
# 6 0.0000 0.0000 0.0000 0.0000 0.0000 24.4394
#
#
#
# Elastic Compliance Matrix: (Units=1/GPa)
#
#
# Indices 1 2 3 4 5 6 
#
# 1 0.012365 -0.003286 -0.002228 0.000000 0.000000 0.000000
# 2 -0.003286 0.006493 -0.000346 0.000000 0.000000 0.000000
# 3 -0.002228 -0.000346 0.019123 0.000000 0.000000 0.000000
# 4 0.000000 0.000000 0.000000 0.038604 0.000000 0.000000
# 5 0.000000 0.000000 0.000000 0.000000 0.041017 0.000000
# 6 0.000000 0.000000 0.000000 0.000000 0.000000 0.040918
#
#
# Mechanical properties :
#
#
# Convention : Reuss Voigt Hill
#
# Bulk Modulus (GPa) = 38.07747 52.24732 45.16239
# Shear Modulus (GPa) = 27.93396 32.21560 30.07478
#
# Velocity S-wave (km/s) = 3.37416 3.62354 3.50107
# Velocity P-wave (km/s) = 5.54068 6.22905 5.89492
#
# Compressibility (1/GPa) = 0.02626225
#
# Stress axis : x y z
#
# Youngs Moduli (GPa) = 80.87132 154.00610 52.29218
#
# Poissons Ratio (x) = 0.50605 0.11649
# Poissons Ratio (y) = 0.26574 0.01811
# Poissons Ratio (z) = 0.18015 0.05333
#
# Static dielectric constant tensor:
#      x y z
#    x 1.893480 0.000000 0.000000 
#    y 0.000000 1.941470 0.000000 
#    z 0.000000 0.000000 2.050280 
# 
# From -- ./inp_files/9298.got.cif
#   From: 2010.05.17/outbox.cif.g08.bks.cpg/sg61_5_cif.got.tgz:9298.got - 2010.06.03 15:17:17.
