data_PCOD9460203
_publ_section_title
;
Structure prediction by ZEFSAII (Michael W. Deem and Ramdas Pophale) SiO2 
 PCOD9460203
Probable space group: P B C A
;
_chemical_formula_sum "Si O2"
_cell_formula_units_Z 40
_cell_length_a 18.786538
_cell_length_b 5.358541
_cell_length_c 17.662990
_cell_angle_alpha 90.000000
_cell_angle_beta 90.000000
_cell_angle_gamma 90.000000
_cell_volume 1778.105545
_symmetry_space_group_name_H-M "P B C A"
_symmetry_group_IT_number 61
_symmetry_cell_setting 'orthorhombic'
loop_
_space_group_symop_operation_xyz
x,y,z
1/2-x,-y,1/2+z
1/2+x,1/2-y,-z
-x,1/2+y,1/2-z
-x,-y,-z
1/2+x,y,1/2-z
1/2-x,1/2+y,z
x,1/2-y,1/2+z
loop_
_atom_site_type_symbol
_atom_site_label
_atom_site_fract_x
_atom_site_fract_y
_atom_site_fract_z
Si Si1 0.936245 0.928235 0.662954
Si Si2 0.999496 0.250254 0.051184
Si Si3 0.729519 0.793546 0.360788
Si Si4 0.212925 0.308737 0.311163
Si Si5 0.931345 0.072996 0.836587
O O1 0.865225 0.764357 0.662030
O O2 0.942834 0.009200 0.749495
O O3 0.005200 0.762670 0.643688
O O4 0.936093 0.171443 0.609043
O O5 0.061646 0.173736 0.111001
O O6 0.000000 0.500000 0.000000
O O7 0.000000 0.000000 0.000000
O O8 0.749250 0.543633 0.402970
O O9 0.775534 0.802190 0.281446
O O10 0.646078 0.806777 0.344038
O O11 0.236721 0.581131 0.336516
#
# Coordination Sequence:
#
# PCOD9460203 Si02
#       5
#     8   8   8   8   8
#     4  12  25  40  77 110 139 182 259 309 360 437
#     4  12  28  48  66 104 150 196 232 300 378 446
#     4  10  22  38  61 102 147 175 222 308 382 413
#     4  10  22  38  61 102 147 175 222 308 382 413
#     4  12  25  40  77 110 139 182 259 309 360 437
#
# _framework density 22.495850000000001
#
# number of rings (size 3 to 8) (size 9 to 14) (size 15 to 20)
#    0.000    0.800    8.000    0.000   11.200    0.000 
#    0.000    0.000    0.000    7.200    0.000    0.000 
#    0.000    0.000    0.000    0.000    0.000    0.000 
#
# Total GULP energy -223091.187704 kJ/mol
# GULP energy per Si atom -5577.279693 kJ/mol
# Density = 2.244465 g / cm^3
# Si number density = 22.495850 Si / 1000 Ang^3
#
#
#
# Elastic Constant Matrix: (Units=GPa)
#
#
# Indices 1 2 3 4 5 6 
#
# 1 85.7314 12.5338 7.8181 0.0000 0.0000 0.0000
# 2 12.5338 150.6063 40.5496 0.0000 0.0000 0.0000
# 3 7.8181 40.5496 99.5169 0.0000 0.0000 0.0000
# 4 0.0000 0.0000 0.0000 38.4202 0.0000 0.0000
# 5 0.0000 0.0000 0.0000 0.0000 -8.3222 0.0000
# 6 0.0000 0.0000 0.0000 0.0000 0.0000 48.4502
#
#
#
# Elastic Compliance Matrix: (Units=1/GPa)
#
#
# Indices 1 2 3 4 5 6 
#
# 1 0.011839 -0.000825 -0.000594 0.000000 0.000000 0.000000
# 2 -0.000825 0.007516 -0.002997 0.000000 0.000000 0.000000
# 3 -0.000594 -0.002997 0.011317 0.000000 0.000000 0.000000
# 4 0.000000 0.000000 0.000000 0.026028 0.000000 0.000000
# 5 0.000000 0.000000 0.000000 0.000000 -0.120161 0.000000
# 6 0.000000 0.000000 0.000000 0.000000 0.000000 0.020640
#
#
# Mechanical properties :
#
#
# Convention : Reuss Voigt Hill
#
# Bulk Modulus (GPa) = 45.79183 50.85086 48.32134
# Shear Modulus (GPa) = -187.20003 34.03985 -76.58009
#
# Velocity S-wave (km/s) = -9.13214 3.89416 -5.84087
# Velocity P-wave (km/s) = 9.52863 6.54774 4.89499
#
# Compressibility (1/GPa) = 0.02183796
#
# Stress axis : x y z
#
# Youngs Moduli (GPa) = 84.46546 133.05701 88.36603
#
# Poissons Ratio (x) = 0.10983 0.05247
# Poissons Ratio (y) = 0.06972 0.26488
# Poissons Ratio (z) = 0.05015 0.39884
#
# Static dielectric constant tensor:
#      x y z
#    x 1.634690 0.000000 0.000000 
#    y 0.000000 1.967280 0.000000 
#    z 0.000000 0.000000 1.887390 
# 
# From -- ./inp_files/9607.got.cif
#   From: 2010.05.17/outbox.cif.g08.bks.cpg/sg61_5_cif.got.tgz:9607.got - 2010.06.03 15:17:17.
