data_PCOD9460876
_publ_section_title
;
Structure prediction by ZEFSAII (Michael W. Deem and Ramdas Pophale) SiO2 
 PCOD9460876
Probable space group: P B C A
;
_chemical_formula_sum "Si O2"
_cell_formula_units_Z 64
_cell_length_a 9.214419
_cell_length_b 15.898341
_cell_length_c 19.848197
_cell_angle_alpha 90.000000
_cell_angle_beta 90.000000
_cell_angle_gamma 90.000000
_cell_volume 2907.641283
_symmetry_space_group_name_H-M "P B C A"
_symmetry_group_IT_number 61
_symmetry_cell_setting 'orthorhombic'
loop_
_space_group_symop_operation_xyz
x,y,z
1/2-x,-y,1/2+z
1/2+x,1/2-y,-z
-x,1/2+y,1/2-z
-x,-y,-z
1/2+x,y,1/2-z
1/2-x,1/2+y,z
x,1/2-y,1/2+z
loop_
_atom_site_type_symbol
_atom_site_label
_atom_site_fract_x
_atom_site_fract_y
_atom_site_fract_z
Si Si1 0.960829 0.257792 0.196772
Si Si2 0.925749 0.887547 0.125729
Si Si3 0.862766 0.377208 0.474898
Si Si4 0.418820 0.954210 0.575956
Si Si5 0.229981 0.548064 0.197198
Si Si6 0.424476 0.874679 0.804995
Si Si7 0.261069 0.729953 0.413899
Si Si8 0.708466 0.362977 0.269557
O O1 0.018618 0.190542 0.249569
O O2 0.885401 0.222762 0.130356
O O3 0.834859 0.307136 0.237589
O O4 0.099014 0.315623 0.181071
O O5 0.805049 0.828173 0.090481
O O6 0.891086 0.884317 0.204036
O O7 0.952162 0.984913 0.105445
O O8 0.073998 0.845947 0.096516
O O9 0.817405 0.474305 0.460362
O O10 0.761558 0.313334 0.514148
O O11 0.004489 0.393676 0.522884
O O12 0.327360 0.915246 0.636516
O O13 0.060359 0.563615 0.185055
O O14 0.286497 0.582968 0.268640
O O15 0.262669 0.449336 0.199702
O O16 0.376746 0.824406 0.871027
#
# Coordination Sequence:
#
# PCOD9460876 Si02
#       8
#     8   8   8   8   8   8   8   8
#     4  11  20  40  59  90 127 161 196 255 323 368
#     4   9  19  39  61  83 119 162 202 248 304 372
#     4   9  21  41  64  85 117 175 212 247 307 376
#     4   9  20  41  62  85 122 166 213 246 309 368
#     4  12  24  38  62  98 124 165 207 256 320 374
#     4  12  23  37  61  93 132 159 201 259 318 370
#     4  11  22  39  63  91 124 160 211 258 309 375
#     4  11  22  37  63  93 124 160 202 259 315 377
#
# _framework density 22.010967000000001
#
# number of rings (size 3 to 8) (size 9 to 14) (size 15 to 20)
#    0.750    0.750    3.750    3.000    1.750    0.000 
#    4.500    0.625    0.000    0.000    0.000    0.000 
#    0.000    0.000    0.000    0.000    0.000    0.000 
#
# Total GULP energy -356862.856240 kJ/mol
# GULP energy per Si atom -5575.982129 kJ/mol
# Density = 2.196087 g / cm^3
# Si number density = 22.010967 Si / 1000 Ang^3
#
#
#
# Elastic Constant Matrix: (Units=GPa)
#
#
# Indices 1 2 3 4 5 6 
#
# 1 58.6288 5.7368 9.8000 0.0000 0.0000 0.0000
# 2 5.7368 32.4482 -0.1456 0.0000 0.0000 0.0000
# 3 9.8000 -0.1456 55.9563 0.0000 0.0000 0.0000
# 4 0.0000 0.0000 0.0000 32.6336 0.0000 0.0000
# 5 0.0000 0.0000 0.0000 0.0000 34.0939 0.0000
# 6 0.0000 0.0000 0.0000 0.0000 0.0000 36.8447
#
#
#
# Elastic Compliance Matrix: (Units=1/GPa)
#
#
# Indices 1 2 3 4 5 6 
#
# 1 0.017893 -0.003177 -0.003142 0.000000 0.000000 0.000000
# 2 -0.003177 0.031383 0.000638 0.000000 0.000000 0.000000
# 3 -0.003142 0.000638 0.018423 0.000000 0.000000 0.000000
# 4 0.000000 0.000000 0.000000 0.030643 0.000000 0.000000
# 5 0.000000 0.000000 0.000000 0.000000 0.029331 0.000000
# 6 0.000000 0.000000 0.000000 0.000000 0.000000 0.027141
#
#
# Mechanical properties :
#
#
# Convention : Reuss Voigt Hill
#
# Bulk Modulus (GPa) = 17.75063 19.75731 18.75397
# Shear Modulus (GPa) = 27.03364 29.49057 28.26211
#
# Velocity S-wave (km/s) = 3.50836 3.66432 3.58718
# Velocity P-wave (km/s) = 4.94908 5.18638 5.06912
#
# Compressibility (1/GPa) = 0.05633602
#
# Stress axis : x y z
#
# Youngs Moduli (GPa) = 55.88911 31.86443 54.27993
#
# Poissons Ratio (x) = 0.10125 0.17054
# Poissons Ratio (y) = 0.17759 -0.03464
# Poissons Ratio (z) = 0.17560 -0.02033
#
# Static dielectric constant tensor:
#      x y z
#    x 1.878910 0.000000 0.000000 
#    y 0.000000 1.860820 0.000000 
#    z 0.000000 0.000000 1.833970 
# 
# From -- ./inp_files/10938.got.cif
#   From: 2010.05.17/outbox.cif.g08.bks.cpg/sg61_6_cif.got.tgz:10938.got - 2010.06.03 15:17:17.
