data_PCOD9460393
_publ_section_title
;
Structure prediction by ZEFSAII (Michael W. Deem and Ramdas Pophale) SiO2 
 PCOD9460393
Probable space group: P B C A
;
_chemical_formula_sum "Si O2"
_cell_formula_units_Z 60
_cell_length_a 5.417679
_cell_length_b 15.090674
_cell_length_c 27.459114
_cell_angle_alpha 90.000000
_cell_angle_beta 90.000000
_cell_angle_gamma 90.000000
_cell_volume 2244.959066
_symmetry_space_group_name_H-M "P B C A"
_symmetry_group_IT_number 61
_symmetry_cell_setting 'orthorhombic'
loop_
_space_group_symop_operation_xyz
x,y,z
1/2-x,-y,1/2+z
1/2+x,1/2-y,-z
-x,1/2+y,1/2-z
-x,-y,-z
1/2+x,y,1/2-z
1/2-x,1/2+y,z
x,1/2-y,1/2+z
loop_
_atom_site_type_symbol
_atom_site_label
_atom_site_fract_x
_atom_site_fract_y
_atom_site_fract_z
Si Si1 0.438147 0.805162 0.767755
Si Si2 0.754847 0.979664 0.896250
Si Si3 0.500000 0.000000 0.000000
Si Si4 0.901472 0.201396 0.378944
Si Si5 0.032140 0.203217 0.556298
Si Si6 0.757592 0.078981 0.625717
Si Si7 0.755455 0.129458 0.038345
Si Si8 0.356176 0.606759 0.765117
O O1 0.672963 0.849022 0.741561
O O2 0.502364 0.791387 0.824445
O O3 0.400197 0.706535 0.744683
O O4 0.687512 0.976766 0.953314
O O5 0.506614 0.019623 0.872385
O O6 0.995956 0.033877 0.883727
O O7 0.795177 0.879193 0.878831
O O8 0.254642 0.975428 0.963217
O O9 0.759434 0.280164 0.407127
O O10 0.115214 0.165942 0.414696
O O11 0.082124 0.136113 0.511191
O O12 0.821355 0.157209 0.587735
O O13 0.966428 0.297614 0.531478
O O14 0.728345 0.116287 0.679754
O O15 0.625145 0.563092 0.761989
#
# Coordination Sequence:
#
# PCOD9460393 Si02
#       8
#     8   8   4   8   8   8   8   8
#     4  10  24  43  70 106 137 180 238 299 361 417
#     4  11  28  47  70 103 148 194 240 288 376 430
#     4  10  24  46  68 100 152 194 234 284 364 432
#     4  11  27  46  70 101 144 191 238 303 358 440
#     4  12  26  40  73 104 145 186 250 294 361 422
#     4  12  27  47  72 105 145 188 242 303 360 437
#     4  11  24  43  66 108 138 191 232 294 352 434
#     4  10  22  42  72 106 138 178 234 299 365 421
#
# _framework density 26.726544000000001
#
# number of rings (size 3 to 8) (size 9 to 14) (size 15 to 20)
#    0.000    1.067    2.667    1.600   16.800    0.533 
#    0.000    4.000    0.000    0.000    0.000    0.000 
#    0.000    0.000    0.000    0.000    0.000    0.000 
#
# Total GULP energy -334882.647451 kJ/mol
# GULP energy per Si atom -5581.377458 kJ/mol
# Density = 2.666571 g / cm^3
# Si number density = 26.726544 Si / 1000 Ang^3
#
#
#
# Elastic Constant Matrix: (Units=GPa)
#
#
# Indices 1 2 3 4 5 6 
#
# 1 170.7449 29.4380 52.3633 0.0000 0.0000 0.0000
# 2 29.4380 68.4204 4.4496 0.0000 0.0000 0.0000
# 3 52.3633 4.4496 153.2955 0.0000 0.0000 0.0000
# 4 0.0000 0.0000 0.0000 19.1661 0.0000 0.0000
# 5 0.0000 0.0000 0.0000 0.0000 8.7335 0.0000
# 6 0.0000 0.0000 0.0000 0.0000 0.0000 39.8850
#
#
#
# Elastic Compliance Matrix: (Units=1/GPa)
#
#
# Indices 1 2 3 4 5 6 
#
# 1 0.007070 -0.002890 -0.002331 0.000000 0.000000 0.000000
# 2 -0.002890 0.015825 0.000528 0.000000 0.000000 0.000000
# 3 -0.002331 0.000528 0.007304 0.000000 0.000000 0.000000
# 4 0.000000 0.000000 0.000000 0.052175 0.000000 0.000000
# 5 0.000000 0.000000 0.000000 0.000000 0.114501 0.000000
# 6 0.000000 0.000000 0.000000 0.000000 0.000000 0.025072
#
#
# Mechanical properties :
#
#
# Convention : Reuss Voigt Hill
#
# Bulk Modulus (GPa) = 48.04889 62.77362 55.41126
# Shear Modulus (GPa) = 20.98443 33.97092 27.47767
#
# Velocity S-wave (km/s) = 2.80510 3.56905 3.20988
# Velocity P-wave (km/s) = 5.33933 6.36573 5.87499
#
# Compressibility (1/GPa) = 0.02081213
#
# Stress axis : x y z
#
# Youngs Moduli (GPa) = 141.44523 63.19223 136.90609
#
# Poissons Ratio (x) = 0.18264 0.31914
# Poissons Ratio (y) = 0.40881 -0.07228
# Poissons Ratio (z) = 0.32972 -0.03336
#
# Static dielectric constant tensor:
#      x y z
#    x 2.275490 0.000000 0.000000 
#    y 0.000000 0.856050 0.000000 
#    z 0.000000 0.000000 2.037150 
# 
# From -- ./inp_files/11283.got.cif
#   From: 2010.05.17/outbox.cif.g08.bks.cpg/sg61_6_cif.got.tgz:11283.got - 2010.06.03 15:17:17.
