data_PCOD9460797
_publ_section_title
;
Structure prediction by ZEFSAII (Michael W. Deem and Ramdas Pophale) SiO2 
 PCOD9460797
Probable space group: P B C A
;
_chemical_formula_sum "Si O2"
_cell_formula_units_Z 24
_cell_length_a 13.947192
_cell_length_b 6.693893
_cell_length_c 10.071150
_cell_angle_alpha 90.000000
_cell_angle_beta 90.000000
_cell_angle_gamma 90.000000
_cell_volume 940.252745
_symmetry_space_group_name_H-M "P B C A"
_symmetry_group_IT_number 61
_symmetry_cell_setting 'orthorhombic'
loop_
_space_group_symop_operation_xyz
x,y,z
1/2-x,-y,1/2+z
1/2+x,1/2-y,-z
-x,1/2+y,1/2-z
-x,-y,-z
1/2+x,y,1/2-z
1/2-x,1/2+y,z
x,1/2-y,1/2+z
loop_
_atom_site_type_symbol
_atom_site_label
_atom_site_fract_x
_atom_site_fract_y
_atom_site_fract_z
Si Si1 0.583853 0.403969 0.850640
Si Si2 0.832167 0.684481 0.089788
Si Si3 0.880450 0.268702 0.148623
O O1 0.610971 0.264183 0.724359
O O2 0.607497 0.623335 0.792982
O O3 0.473370 0.360293 0.881906
O O4 0.649118 0.331955 0.970359
O O5 0.873643 0.465153 0.054515
O O6 0.721890 0.665596 0.133714
#
# Coordination Sequence:
#
# PCOD9460797 Si02
#       3
#     8   8   8
#     4  10  25  44  69  97 140 172 231 276 338 402
#     4  10  25  42  69  99 136 176 228 275 339 400
#     4  10  25  41  71  97 138 177 228 273 342 393
#
# _framework density 25.525051000000001
#
# number of rings (size 3 to 8) (size 9 to 14) (size 15 to 20)
#    2.000    0.000    0.000    1.000    9.333    4.000 
#    0.000    0.000    0.000    0.000    0.000    0.000 
#    0.000    0.000    0.000    0.000    0.000    0.000 
#
# Total GULP energy -134228.766763 kJ/mol
# GULP energy per Si atom -5592.865282 kJ/mol
# Density = 2.546695 g / cm^3
# Si number density = 25.525051 Si / 1000 Ang^3
#
#
#
# Elastic Constant Matrix: (Units=GPa)
#
#
# Indices 1 2 3 4 5 6 
#
# 1 177.5085 48.0320 39.1254 0.0000 0.0000 0.0000
# 2 48.0320 87.2892 47.2610 0.0000 0.0000 0.0000
# 3 39.1254 47.2610 95.6277 0.0000 0.0000 0.0000
# 4 0.0000 0.0000 0.0000 38.7619 0.0000 0.0000
# 5 0.0000 0.0000 0.0000 0.0000 27.7049 0.0000
# 6 0.0000 0.0000 0.0000 0.0000 0.0000 45.9180
#
#
#
# Elastic Compliance Matrix: (Units=1/GPa)
#
#
# Indices 1 2 3 4 5 6 
#
# 1 0.006729 -0.003020 -0.001260 0.000000 0.000000 0.000000
# 2 -0.003020 0.016997 -0.007165 0.000000 0.000000 0.000000
# 3 -0.001260 -0.007165 0.014514 0.000000 0.000000 0.000000
# 4 0.000000 0.000000 0.000000 0.025798 0.000000 0.000000
# 5 0.000000 0.000000 0.000000 0.000000 0.036095 0.000000
# 6 0.000000 0.000000 0.000000 0.000000 0.000000 0.021778
#
#
# Mechanical properties :
#
#
# Convention : Reuss Voigt Hill
#
# Bulk Modulus (GPa) = 65.14955 69.91802 67.53379
# Shear Modulus (GPa) = 33.35171 37.54409 35.44790
#
# Velocity S-wave (km/s) = 3.61865 3.83936 3.73064
# Velocity P-wave (km/s) = 6.56039 6.86335 6.71358
#
# Compressibility (1/GPa) = 0.01534930
#
# Stress axis : x y z
#
# Youngs Moduli (GPa) = 148.62075 58.83332 68.89992
#
# Poissons Ratio (x) = 0.17768 0.08684
# Poissons Ratio (y) = 0.44885 0.49365
# Poissons Ratio (z) = 0.18732 0.42152
#
# Static dielectric constant tensor:
#      x y z
#    x 1.951010 0.000000 0.000000 
#    y 0.000000 2.113080 0.000000 
#    z 0.000000 0.000000 2.010420 
# 
# From -- ./inp_files/1577.got.cif
#   From: 2010.05.17/outbox.cif.g08.bks.cpg/sg61_1_cif.got.tgz:1577.got - 2010.06.03 15:17:17.
