data_PCOD9460947
_publ_section_title
;
Structure prediction by ZEFSAII (Michael W. Deem and Ramdas Pophale) SiO2 
 PCOD9460947
Probable space group: P B C A
;
_chemical_formula_sum "Si O2"
_cell_formula_units_Z 48
_cell_length_a 10.777817
_cell_length_b 7.849745
_cell_length_c 21.126333
_cell_angle_alpha 90.000000
_cell_angle_beta 90.000000
_cell_angle_gamma 90.000000
_cell_volume 1787.353583
_symmetry_space_group_name_H-M "P B C A"
_symmetry_group_IT_number 61
_symmetry_cell_setting 'orthorhombic'
loop_
_space_group_symop_operation_xyz
x,y,z
1/2-x,-y,1/2+z
1/2+x,1/2-y,-z
-x,1/2+y,1/2-z
-x,-y,-z
1/2+x,y,1/2-z
1/2-x,1/2+y,z
x,1/2-y,1/2+z
loop_
_atom_site_type_symbol
_atom_site_label
_atom_site_fract_x
_atom_site_fract_y
_atom_site_fract_z
Si Si1 0.337341 0.785117 0.837198
Si Si2 0.016653 0.490411 0.700667
Si Si3 0.822181 0.139238 0.988613
Si Si4 0.343953 0.413414 0.422226
Si Si5 0.156603 0.148542 0.100272
Si Si6 0.324738 0.315695 0.714767
O O1 0.421783 0.620118 0.832117
O O2 0.216864 0.718453 0.874081
O O3 0.398443 0.935775 0.879024
O O4 0.283432 0.829807 0.767843
O O5 0.943057 0.419845 0.760674
O O6 0.052772 0.333829 0.654248
O O7 0.130848 0.619765 0.712324
O O8 0.703001 0.217177 0.950999
O O9 0.885771 0.020388 0.936877
O O10 0.764943 0.010276 0.039390
O O11 0.899411 0.290116 0.022682
O O12 0.277713 0.129811 0.145687
#
# Coordination Sequence:
#
# PCOD9460947 Si02
#       6
#     8   8   8   8   8   8
#     4  11  22  44  67  98 135 170 219 275 328 391
#     4  12  26  40  68 103 130 175 219 264 339 401
#     4   9  20  41  70  90 129 181 214 272 330 377
#     4   9  20  41  70  89 131 180 214 272 331 374
#     4  11  22  44  67  97 137 169 219 274 329 391
#     4  12  26  42  68 100 138 172 214 277 334 389
#
# _framework density 26.855346000000001
#
# number of rings (size 3 to 8) (size 9 to 14) (size 15 to 20)
#    0.000    1.333    3.333    2.000    4.667    0.000 
#    0.000    8.333    0.000    0.000    0.000    0.000 
#    0.000    0.000    0.000    0.000    0.000    0.000 
#
# Total GULP energy -268274.711184 kJ/mol
# GULP energy per Si atom -5589.056483 kJ/mol
# Density = 2.679422 g / cm^3
# Si number density = 26.855346 Si / 1000 Ang^3
#
#
#
# Elastic Constant Matrix: (Units=GPa)
#
#
# Indices 1 2 3 4 5 6 
#
# 1 58.0388 -3.0127 13.2441 0.0000 0.0000 0.0000
# 2 -3.0127 83.2093 27.7712 0.0000 0.0000 0.0000
# 3 13.2441 27.7712 130.8050 0.0000 0.0000 0.0000
# 4 0.0000 0.0000 0.0000 57.0733 0.0000 0.0000
# 5 0.0000 0.0000 0.0000 0.0000 15.4693 0.0000
# 6 0.0000 0.0000 0.0000 0.0000 0.0000 36.5199
#
#
#
# Elastic Compliance Matrix: (Units=1/GPa)
#
#
# Indices 1 2 3 4 5 6 
#
# 1 0.017775 0.001339 -0.002084 0.000000 0.000000 0.000000
# 2 0.001339 0.013035 -0.002903 0.000000 0.000000 0.000000
# 3 -0.002084 -0.002903 0.008472 0.000000 0.000000 0.000000
# 4 0.000000 0.000000 0.000000 0.017521 0.000000 0.000000
# 5 0.000000 0.000000 0.000000 0.000000 0.064644 0.000000
# 6 0.000000 0.000000 0.000000 0.000000 0.000000 0.027382
#
#
# Mechanical properties :
#
#
# Convention : Reuss Voigt Hill
#
# Bulk Modulus (GPa) = 31.26318 38.67314 34.96816
# Shear Modulus (GPa) = 29.97805 37.41585 33.69695
#
# Velocity S-wave (km/s) = 3.34470 3.73666 3.54610
# Velocity P-wave (km/s) = 5.15583 5.74879 5.46037
#
# Compressibility (1/GPa) = 0.03198651
#
# Stress axis : x y z
#
# Youngs Moduli (GPa) = 56.25899 76.71485 118.03123
#
# Poissons Ratio (x) = -0.10273 0.24598
# Poissons Ratio (y) = -0.07534 0.34266
# Poissons Ratio (z) = 0.11725 0.22271
#
# Static dielectric constant tensor:
#      x y z
#    x 2.154730 0.000000 0.000000 
#    y 0.000000 2.089030 0.000000 
#    z 0.000000 0.000000 2.116790 
# 
# From -- ./inp_files/4855.got.cif
#   From: 2010.05.17/outbox.cif.g08.bks.cpg/sg61_3_cif.got.tgz:4855.got - 2010.06.03 15:17:17.
