data_PCOD9460392
_publ_section_title
;
Structure prediction by ZEFSAII (Michael W. Deem and Ramdas Pophale) SiO2 
 PCOD9460392
Probable space group: P B C A
;
_chemical_formula_sum "Si O2"
_cell_formula_units_Z 64
_cell_length_a 13.085925
_cell_length_b 13.026348
_cell_length_c 15.523489
_cell_angle_alpha 90.000000
_cell_angle_beta 90.000000
_cell_angle_gamma 90.000000
_cell_volume 2646.162078
_symmetry_space_group_name_H-M "P B C A"
_symmetry_group_IT_number 61
_symmetry_cell_setting 'orthorhombic'
loop_
_space_group_symop_operation_xyz
x,y,z
1/2-x,-y,1/2+z
1/2+x,1/2-y,-z
-x,1/2+y,1/2-z
-x,-y,-z
1/2+x,y,1/2-z
1/2-x,1/2+y,z
x,1/2-y,1/2+z
loop_
_atom_site_type_symbol
_atom_site_label
_atom_site_fract_x
_atom_site_fract_y
_atom_site_fract_z
Si Si1 0.847094 0.397636 0.707274
Si Si2 0.772462 0.274090 0.297601
Si Si3 0.388800 0.054660 0.789822
Si Si4 0.813810 0.913345 0.570502
Si Si5 0.072783 0.088475 0.139137
Si Si6 0.069987 0.283315 0.481251
Si Si7 0.897159 0.629623 0.712376
Si Si8 0.369625 0.107219 0.545279
O O1 0.825747 0.335687 0.793895
O O2 0.757772 0.359834 0.643519
O O3 0.838774 0.520222 0.712122
O O4 0.961910 0.377587 0.674097
O O5 0.821058 0.344483 0.221693
O O6 0.654342 0.284987 0.273542
O O7 0.807896 0.333542 0.381373
O O8 0.498171 0.096739 0.758927
O O9 0.375510 0.003543 0.882627
O O10 0.368785 0.960569 0.721418
O O11 0.889952 0.832545 0.526878
O O12 0.720145 0.945584 0.509324
O O13 0.061356 0.984230 0.082570
O O14 0.118161 0.165478 0.067494
O O15 0.093660 0.330055 0.385627
O O16 0.949503 0.310596 0.493208
#
# Coordination Sequence:
#
# PCOD9460392 Si02
#       8
#     8   8   8   8   8   8   8   8
#     4  11  21  38  72  98 132 180 237 290 356 435
#     4  11  23  42  68 101 141 186 232 296 368 442
#     4  10  24  42  68 101 138 183 237 301 362 432
#     4  12  25  41  67 106 142 187 240 300 366 435
#     4  10  22  42  72 100 135 189 241 300 369 436
#     4  12  22  41  70 103 142 187 239 303 367 443
#     4  11  22  41  67 104 138 187 236 294 363 436
#     4  11  24  45  67 102 146 190 246 304 366 445
#
# _framework density 24.185972
#
# number of rings (size 3 to 8) (size 9 to 14) (size 15 to 20)
#    0.000    1.000    7.500    1.125    3.500    1.000 
#    2.250    0.625    0.000    0.000    0.000    0.000 
#    0.000    0.000    0.000    0.000    0.000    0.000 
#
# Total GULP energy -357097.332488 kJ/mol
# GULP energy per Si atom -5579.645820 kJ/mol
# Density = 2.413092 g / cm^3
# Si number density = 24.185972 Si / 1000 Ang^3
#
#
#
# Elastic Constant Matrix: (Units=GPa)
#
#
# Indices 1 2 3 4 5 6 
#
# 1 88.3212 29.5147 23.5266 0.0000 0.0000 0.0000
# 2 29.5147 53.5981 6.6715 0.0000 0.0000 0.0000
# 3 23.5266 6.6715 69.5836 0.0000 0.0000 0.0000
# 4 0.0000 0.0000 0.0000 34.9021 0.0000 0.0000
# 5 0.0000 0.0000 0.0000 0.0000 37.5194 0.0000
# 6 0.0000 0.0000 0.0000 0.0000 0.0000 34.6346
#
#
#
# Elastic Compliance Matrix: (Units=1/GPa)
#
#
# Indices 1 2 3 4 5 6 
#
# 1 0.015075 -0.007759 -0.004353 0.000000 0.000000 0.000000
# 2 -0.007759 0.022877 0.000430 0.000000 0.000000 0.000000
# 3 -0.004353 0.000430 0.015802 0.000000 0.000000 0.000000
# 4 0.000000 0.000000 0.000000 0.028652 0.000000 0.000000
# 5 0.000000 0.000000 0.000000 0.000000 0.026653 0.000000
# 6 0.000000 0.000000 0.000000 0.000000 0.000000 0.028873
#
#
# Mechanical properties :
#
#
# Convention : Reuss Voigt Hill
#
# Bulk Modulus (GPa) = 32.90679 36.76983 34.83831
# Shear Modulus (GPa) = 29.16735 31.53055 30.34895
#
# Velocity S-wave (km/s) = 3.47646 3.61456 3.54618
# Velocity P-wave (km/s) = 5.45433 5.71454 5.58595
#
# Compressibility (1/GPa) = 0.03038887
#
# Stress axis : x y z
#
# Youngs Moduli (GPa) = 66.33582 43.71260 63.28428
#
# Poissons Ratio (x) = 0.33918 0.27547
# Poissons Ratio (y) = 0.51473 -0.02722
# Poissons Ratio (z) = 0.28876 -0.01880
#
# Static dielectric constant tensor:
#      x y z
#    x 2.071080 0.000000 0.000000 
#    y 0.000000 1.960460 0.000000 
#    z 0.000000 0.000000 1.995250 
# 
# From -- ./inp_files/9547.got.cif
#   From: 2010.05.17/outbox.cif.g08.bks.cpg/sg61_5_cif.got.tgz:9547.got - 2010.06.03 15:17:17.
