data_PCOD9460912
_publ_section_title
;
Structure prediction by ZEFSAII (Michael W. Deem and Ramdas Pophale) SiO2 
 PCOD9460912
Probable space group: P B C A
;
_chemical_formula_sum "Si O2"
_cell_formula_units_Z 48
_cell_length_a 12.030820
_cell_length_b 11.684760
_cell_length_c 16.718300
_cell_angle_alpha 90.000000
_cell_angle_beta 90.000000
_cell_angle_gamma 90.000000
_cell_volume 2350.212543
_symmetry_space_group_name_H-M "P B C A"
_symmetry_group_IT_number 61
_symmetry_cell_setting 'orthorhombic'
loop_
_space_group_symop_operation_xyz
x,y,z
1/2-x,-y,1/2+z
1/2+x,1/2-y,-z
-x,1/2+y,1/2-z
-x,-y,-z
1/2+x,y,1/2-z
1/2-x,1/2+y,z
x,1/2-y,1/2+z
loop_
_atom_site_type_symbol
_atom_site_label
_atom_site_fract_x
_atom_site_fract_y
_atom_site_fract_z
Si Si1 0.769528 0.693863 0.057963
Si Si2 0.347989 0.817603 0.599612
Si Si3 0.523070 0.459171 0.591530
Si Si4 0.897835 0.054899 0.951991
Si Si5 0.118386 0.736045 0.159665
Si Si6 0.927628 0.203855 0.659640
O O1 0.873715 0.628082 0.094411
O O2 0.687152 0.757994 0.117962
O O3 0.813112 0.780482 0.989947
O O4 0.695635 0.598260 0.012945
O O5 0.252404 0.763819 0.654924
O O6 0.468944 0.768792 0.618786
O O7 0.351501 0.954202 0.603849
O O8 0.500000 0.500000 0.500000
O O9 0.420888 0.386206 0.625846
O O10 0.550450 0.570557 0.643336
O O11 0.926888 0.165921 0.899814
O O12 0.000000 0.000000 0.000000
O O13 0.077228 0.761721 0.248074
#
# Coordination Sequence:
#
# PCOD9460912 Si02
#       6
#     8   8   8   8   8   8
#     4  11  23  43  72 103 129 186 245 280 351 428
#     4  11  24  46  69  98 144 178 242 291 353 433
#     4  12  24  49  73 101 144 187 242 294 359 434
#     4  11  21  43  71 101 134 182 240 289 344 425
#     4  11  29  42  69 107 141 190 233 301 374 412
#     4  12  27  45  69 106 142 186 233 299 363 422
#
# _framework density 20.423684000000002
#
# number of rings (size 3 to 8) (size 9 to 14) (size 15 to 20)
#    0.000    0.667    3.333    5.000    7.000    0.000 
#    0.000    0.000    0.000    0.000    0.000    0.000 
#    0.000    0.000    0.000    0.000    0.000    0.000 
#
# Total GULP energy -268541.704238 kJ/mol
# GULP energy per Si atom -5594.618838 kJ/mol
# Density = 2.037720 g / cm^3
# Si number density = 20.423684 Si / 1000 Ang^3
#
#
#
# Elastic Constant Matrix: (Units=GPa)
#
#
# Indices 1 2 3 4 5 6 
#
# 1 89.4486 16.8992 25.6510 0.0000 0.0000 0.0000
# 2 16.8992 111.1103 14.6935 0.0000 0.0000 0.0000
# 3 25.6510 14.6935 78.7399 0.0000 0.0000 0.0000
# 4 0.0000 0.0000 0.0000 24.7623 0.0000 0.0000
# 5 0.0000 0.0000 0.0000 0.0000 24.4640 0.0000
# 6 0.0000 0.0000 0.0000 0.0000 0.0000 42.7468
#
#
#
# Elastic Compliance Matrix: (Units=1/GPa)
#
#
# Indices 1 2 3 4 5 6 
#
# 1 0.012541 -0.001402 -0.003824 0.000000 0.000000 0.000000
# 2 -0.001402 0.009384 -0.001295 0.000000 0.000000 0.000000
# 3 -0.003824 -0.001295 0.014187 0.000000 0.000000 0.000000
# 4 0.000000 0.000000 0.000000 0.040384 0.000000 0.000000
# 5 0.000000 0.000000 0.000000 0.000000 0.040876 0.000000
# 6 0.000000 0.000000 0.000000 0.000000 0.000000 0.023394
#
#
# Mechanical properties :
#
#
# Convention : Reuss Voigt Hill
#
# Bulk Modulus (GPa) = 43.34185 43.75402 43.54793
# Shear Modulus (GPa) = 30.96014 33.19829 32.07921
#
# Velocity S-wave (km/s) = 3.89767 4.03610 3.96749
# Velocity P-wave (km/s) = 6.44385 6.57189 6.50819
#
# Compressibility (1/GPa) = 0.02307239
#
# Stress axis : x y z
#
# Youngs Moduli (GPa) = 79.73848 106.55918 70.48550
#
# Poissons Ratio (x) = 0.14937 0.26953
# Poissons Ratio (y) = 0.11177 0.09125
# Poissons Ratio (z) = 0.30491 0.13795
#
# Static dielectric constant tensor:
#      x y z
#    x 1.777930 0.000000 0.000000 
#    y 0.000000 1.713120 0.000000 
#    z 0.000000 0.000000 1.711860 
# 
# From -- ./inp_files/5246.got.cif
#   From: 2010.05.17/outbox.cif.g08.bks.cpg/sg61_3_cif.got.tgz:5246.got - 2010.06.03 15:17:17.
