data_PCOD9460319
_publ_section_title
;
Structure prediction by ZEFSAII (Michael W. Deem and Ramdas Pophale) SiO2 
 PCOD9460319
Probable space group: P B C A
;
_chemical_formula_sum "Si O2"
_cell_formula_units_Z 56
_cell_length_a 15.010762
_cell_length_b 13.053197
_cell_length_c 13.780679
_cell_angle_alpha 90.000000
_cell_angle_beta 90.000000
_cell_angle_gamma 90.000000
_cell_volume 2700.164656
_symmetry_space_group_name_H-M "P B C A"
_symmetry_group_IT_number 61
_symmetry_cell_setting 'orthorhombic'
loop_
_space_group_symop_operation_xyz
x,y,z
1/2-x,-y,1/2+z
1/2+x,1/2-y,-z
-x,1/2+y,1/2-z
-x,-y,-z
1/2+x,y,1/2-z
1/2-x,1/2+y,z
x,1/2-y,1/2+z
loop_
_atom_site_type_symbol
_atom_site_label
_atom_site_fract_x
_atom_site_fract_y
_atom_site_fract_z
Si Si1 0.326959 0.890124 0.131863
Si Si2 0.252832 0.518735 0.823389
Si Si3 0.579910 0.629948 0.139336
Si Si4 0.426202 0.489439 0.215042
Si Si5 0.648808 0.905727 0.984663
Si Si6 0.489036 0.339057 0.363046
Si Si7 0.853103 0.320466 0.431274
O O1 0.408510 0.812040 0.123020
O O2 0.247940 0.857358 0.061319
O O3 0.290935 0.901908 0.242172
O O4 0.353761 0.000201 0.088346
O O5 0.332108 0.435859 0.835362
O O6 0.162637 0.474085 0.772442
O O7 0.219573 0.570006 0.926025
O O8 0.488588 0.570489 0.161790
O O9 0.568209 0.745181 0.180523
O O10 0.590100 0.655483 0.026280
O O11 0.490031 0.434268 0.291172
O O12 0.394471 0.395933 0.147787
O O13 0.557557 0.883117 0.041612
O O14 0.658901 0.801538 0.922885
#
# Coordination Sequence:
#
# PCOD9460319 Si02
#       7
#     8   8   8   8   8   8   8
#     4  11  21  41  65  95 130 172 222 265 333 387
#     4  10  22  41  66  94 128 173 215 275 321 389
#     4  11  21  44  63  92 136 170 215 277 327 387
#     4  10  22  41  64  95 129 171 222 266 332 386
#     4  10  22  43  63  91 134 170 219 270 329 389
#     4  10  23  39  61  97 128 169 220 269 327 402
#     4  10  23  39  66  94 127 177 219 268 324 398
#
# _framework density 20.739476
#
# number of rings (size 3 to 8) (size 9 to 14) (size 15 to 20)
#    0.000    1.714    2.857    0.857    2.000    2.286 
#   12.857    0.000    0.000    0.000    0.000    0.000 
#    0.000    0.000    0.000    0.000    0.000    0.000 
#
# Total GULP energy -311795.945342 kJ/mol
# GULP energy per Si atom -5567.784738 kJ/mol
# Density = 2.069227 g / cm^3
# Si number density = 20.739476 Si / 1000 Ang^3
#
#
#
# Elastic Constant Matrix: (Units=GPa)
#
#
# Indices 1 2 3 4 5 6 
#
# 1 97.6245 22.3028 8.0700 0.0000 0.0000 0.0000
# 2 22.3028 76.5328 18.5371 0.0000 0.0000 0.0000
# 3 8.0700 18.5371 29.5795 0.0000 0.0000 0.0000
# 4 0.0000 0.0000 0.0000 19.4698 0.0000 0.0000
# 5 0.0000 0.0000 0.0000 0.0000 15.9026 0.0000
# 6 0.0000 0.0000 0.0000 0.0000 0.0000 22.0029
#
#
#
# Elastic Compliance Matrix: (Units=1/GPa)
#
#
# Indices 1 2 3 4 5 6 
#
# 1 0.011008 -0.002924 -0.001171 0.000000 0.000000 0.000000
# 2 -0.002924 0.016181 -0.009343 0.000000 0.000000 0.000000
# 3 -0.001171 -0.009343 0.039982 0.000000 0.000000 0.000000
# 4 0.000000 0.000000 0.000000 0.051362 0.000000 0.000000
# 5 0.000000 0.000000 0.000000 0.000000 0.062883 0.000000
# 6 0.000000 0.000000 0.000000 0.000000 0.000000 0.045449
#
#
# Mechanical properties :
#
#
# Convention : Reuss Voigt Hill
#
# Bulk Modulus (GPa) = 24.81667 33.50629 29.16148
# Shear Modulus (GPa) = 18.71456 21.79686 20.25571
#
# Velocity S-wave (km/s) = 3.00720 3.24541 3.12857
# Velocity P-wave (km/s) = 4.90403 5.49858 5.20980
#
# Compressibility (1/GPa) = 0.04029549
#
# Stress axis : x y z
#
# Youngs Moduli (GPa) = 90.84144 61.79913 25.01150
#
# Poissons Ratio (x) = 0.18073 0.02928
# Poissons Ratio (y) = 0.26566 0.23368
# Poissons Ratio (z) = 0.10634 0.57738
#
# Static dielectric constant tensor:
#      x y z
#    x 1.783650 0.000000 0.000000 
#    y 0.000000 1.758620 0.000000 
#    z 0.000000 0.000000 1.784470 
# 
# From -- ./inp_files/7841.got.cif
#   From: 2010.05.17/outbox.cif.g08.bks.cpg/sg61_4_cif.got.tgz:7841.got - 2010.06.03 15:17:17.
