data_PCOD9460842
_publ_section_title
;
Structure prediction by ZEFSAII (Michael W. Deem and Ramdas Pophale) SiO2 
 PCOD9460842
Probable space group: P B C A
;
_chemical_formula_sum "Si O2"
_cell_formula_units_Z 56
_cell_length_a 16.660242
_cell_length_b 7.417558
_cell_length_c 17.835174
_cell_angle_alpha 90.000000
_cell_angle_beta 90.000000
_cell_angle_gamma 90.000000
_cell_volume 2204.040685
_symmetry_space_group_name_H-M "P B C A"
_symmetry_group_IT_number 61
_symmetry_cell_setting 'orthorhombic'
loop_
_space_group_symop_operation_xyz
x,y,z
1/2-x,-y,1/2+z
1/2+x,1/2-y,-z
-x,1/2+y,1/2-z
-x,-y,-z
1/2+x,y,1/2-z
1/2-x,1/2+y,z
x,1/2-y,1/2+z
loop_
_atom_site_type_symbol
_atom_site_label
_atom_site_fract_x
_atom_site_fract_y
_atom_site_fract_z
Si Si1 0.997325 0.949949 0.730117
Si Si2 0.795157 0.770361 0.094799
Si Si3 0.075849 0.762235 0.023157
Si Si4 0.631405 0.618237 0.630034
Si Si5 0.043534 0.098865 0.866855
Si Si6 0.695169 0.417574 0.930022
Si Si7 0.137241 0.452630 0.126433
O O1 0.084608 0.013334 0.700047
O O2 0.924737 0.075045 0.700032
O O3 0.002961 0.941805 0.819393
O O4 0.978901 0.764691 0.687999
O O5 0.837055 0.575696 0.098211
O O6 0.714741 0.778773 0.143064
O O7 0.861947 0.907335 0.124521
O O8 0.776277 0.832321 0.009850
O O9 0.993249 0.846229 0.053423
O O10 0.090103 0.571156 0.064232
O O11 0.142024 0.906846 0.051541
O O12 0.084112 0.721046 0.935932
O O13 0.645504 0.256875 0.892572
O O14 0.771696 0.472007 0.879708
#
# Coordination Sequence:
#
# PCOD9460842 Si02
#       7
#     8   8   8   8   8   8   8
#     4  10  26  46  67  93 142 187 235 283 346 423
#     4  11  22  41  69 101 139 173 231 285 356 415
#     4  11  23  41  68 101 132 177 225 289 353 402
#     4  11  22  43  70  99 137 182 223 298 351 409
#     4  10  26  46  66  96 137 186 232 286 347 420
#     4  12  21  38  67 101 136 169 225 286 345 412
#     4  11  22  41  65  99 141 172 222 292 337 414
#
# _framework density 25.407879000000001
#
# number of rings (size 3 to 8) (size 9 to 14) (size 15 to 20)
#    0.000    1.143    4.286    0.857    4.000    4.571 
#    2.571    0.000    0.000    0.000    0.000    0.000 
#    0.000    0.000    0.000    0.000    0.000    0.000 
#
# Total GULP energy -313730.407711 kJ/mol
# GULP energy per Si atom -5602.328709 kJ/mol
# Density = 2.535005 g / cm^3
# Si number density = 25.407879 Si / 1000 Ang^3
#
#
#
# Elastic Constant Matrix: (Units=GPa)
#
#
# Indices 1 2 3 4 5 6 
#
# 1 145.2621 42.5049 61.7866 0.0000 0.0000 0.0000
# 2 42.5049 112.4440 27.3762 0.0000 0.0000 0.0000
# 3 61.7866 27.3762 75.8608 0.0000 0.0000 0.0000
# 4 0.0000 0.0000 0.0000 38.1229 0.0000 0.0000
# 5 0.0000 0.0000 0.0000 0.0000 34.7942 0.0000
# 6 0.0000 0.0000 0.0000 0.0000 0.0000 30.6399
#
#
#
# Elastic Compliance Matrix: (Units=1/GPa)
#
#
# Indices 1 2 3 4 5 6 
#
# 1 0.010994 -0.002166 -0.008173 0.000000 0.000000 0.000000
# 2 -0.002166 0.010177 -0.001908 0.000000 0.000000 0.000000
# 3 -0.008173 -0.001908 0.020527 0.000000 0.000000 0.000000
# 4 0.000000 0.000000 0.000000 0.026231 0.000000 0.000000
# 5 0.000000 0.000000 0.000000 0.000000 0.028740 0.000000
# 6 0.000000 0.000000 0.000000 0.000000 0.000000 0.032637
#
#
# Mechanical properties :
#
#
# Convention : Reuss Voigt Hill
#
# Bulk Modulus (GPa) = 58.12679 66.32250 62.22465
# Shear Modulus (GPa) = 31.34096 34.17134 32.75615
#
# Velocity S-wave (km/s) = 3.51595 3.67128 3.59446
# Velocity P-wave (km/s) = 6.27771 6.64311 6.46299
#
# Compressibility (1/GPa) = 0.01720377
#
# Stress axis : x y z
#
# Youngs Moduli (GPa) = 90.95715 98.26341 48.71585
#
# Poissons Ratio (x) = 0.21285 0.39814
# Poissons Ratio (y) = 0.19702 0.09296
# Poissons Ratio (z) = 0.74337 0.18751
#
# Static dielectric constant tensor:
#      x y z
#    x 2.001450 0.000000 0.000000 
#    y 0.000000 2.119350 0.000000 
#    z 0.000000 0.000000 1.971940 
# 
# From -- ./inp_files/10446.got.cif
#   From: 2010.05.17/outbox.cif.g08.bks.cpg/sg61_6_cif.got.tgz:10446.got - 2010.06.03 15:17:17.
