data_PCOD9460365
_publ_section_title
;
Structure prediction by ZEFSAII (Michael W. Deem and Ramdas Pophale) SiO2 
 PCOD9460365
Probable space group: P B C A
;
_chemical_formula_sum "Si O2"
_cell_formula_units_Z 64
_cell_length_a 9.254499
_cell_length_b 10.419879
_cell_length_c 29.421339
_cell_angle_alpha 90.000000
_cell_angle_beta 90.000000
_cell_angle_gamma 90.000000
_cell_volume 2837.122074
_symmetry_space_group_name_H-M "P B C A"
_symmetry_group_IT_number 61
_symmetry_cell_setting 'orthorhombic'
loop_
_space_group_symop_operation_xyz
x,y,z
1/2-x,-y,1/2+z
1/2+x,1/2-y,-z
-x,1/2+y,1/2-z
-x,-y,-z
1/2+x,y,1/2-z
1/2-x,1/2+y,z
x,1/2-y,1/2+z
loop_
_atom_site_type_symbol
_atom_site_label
_atom_site_fract_x
_atom_site_fract_y
_atom_site_fract_z
Si Si1 0.588751 0.349021 0.705497
Si Si2 0.315214 0.792732 0.074748
Si Si3 0.844169 0.541562 0.015815
Si Si4 0.503138 0.221020 0.072712
Si Si5 0.621073 0.099922 0.646985
Si Si6 0.933935 0.354548 0.699120
Si Si7 0.589217 0.375183 0.993384
Si Si8 0.967606 0.408180 0.147700
O O1 0.576865 0.205183 0.685533
O O2 0.761910 0.365456 0.708551
O O3 0.518821 0.373481 0.754207
O O4 0.515914 0.452290 0.671166
O O5 0.287988 0.871675 0.027273
O O6 0.406680 0.670830 0.058077
O O7 0.412562 0.878367 0.108640
O O8 0.163457 0.725313 0.088542
O O9 0.743213 0.416029 0.014411
O O10 0.879614 0.604971 0.065701
O O11 0.000000 0.500000 0.000000
O O12 0.566636 0.336704 0.101283
O O13 0.509694 0.265397 0.020869
O O14 0.793973 0.093910 0.639922
O O15 0.548946 0.966426 0.661661
O O16 0.981057 0.215450 0.680813
O O17 0.500000 0.500000 0.000000
#
# Coordination Sequence:
#
# PCOD9460365 Si02
#       8
#     8   8   8   8   8   8   8   8
#     4  10  22  42  65  94 125 165 211 262 330 398
#     4  11  25  40  59  95 123 163 223 264 321 383
#     4  11  24  41  63  87 126 171 215 268 319 377
#     4  11  25  40  61  95 123 165 219 264 322 380
#     4  10  24  40  63  94 130 167 214 267 329 391
#     4  10  22  42  65  94 125 165 211 262 330 398
#     4  11  24  41  63  87 126 171 215 268 319 377
#     4  10  24  40  65  94 130 167 212 271 326 390
#
# _framework density 22.558071000000002
#
# number of rings (size 3 to 8) (size 9 to 14) (size 15 to 20)
#    0.000    1.500    2.500    0.750    7.000    3.000 
#    0.000    0.000    0.000    0.000    0.000    0.000 
#    0.000    0.000    0.000    0.000    0.000    0.000 
#
# Total GULP energy -356444.706754 kJ/mol
# GULP energy per Si atom -5569.448543 kJ/mol
# Density = 2.250673 g / cm^3
# Si number density = 22.558071 Si / 1000 Ang^3
#
#
#
# Elastic Constant Matrix: (Units=GPa)
#
#
# Indices 1 2 3 4 5 6 
#
# 1 64.3778 7.4395 24.0504 0.0000 0.0000 0.0000
# 2 7.4395 76.2734 8.6158 0.0000 0.0000 0.0000
# 3 24.0504 8.6158 70.8700 0.0000 0.0000 0.0000
# 4 0.0000 0.0000 0.0000 39.5993 0.0000 0.0000
# 5 0.0000 0.0000 0.0000 0.0000 30.3524 0.0000
# 6 0.0000 0.0000 0.0000 0.0000 0.0000 29.2156
#
#
#
# Elastic Compliance Matrix: (Units=1/GPa)
#
#
# Indices 1 2 3 4 5 6 
#
# 1 0.017875 -0.001073 -0.005936 0.000000 0.000000 0.000000
# 2 -0.001073 0.013358 -0.001260 0.000000 0.000000 0.000000
# 3 -0.005936 -0.001260 0.016278 0.000000 0.000000 0.000000
# 4 0.000000 0.000000 0.000000 0.025253 0.000000 0.000000
# 5 0.000000 0.000000 0.000000 0.000000 0.032946 0.000000
# 6 0.000000 0.000000 0.000000 0.000000 0.000000 0.034228
#
#
# Mechanical properties :
#
#
# Convention : Reuss Voigt Hill
#
# Bulk Modulus (GPa) = 32.28558 32.41476 32.35017
# Shear Modulus (GPa) = 29.97623 31.26116 30.61870
#
# Velocity S-wave (km/s) = 3.64929 3.72668 3.68819
# Velocity P-wave (km/s) = 5.66566 5.73744 5.70166
#
# Compressibility (1/GPa) = 0.03097358
#
# Stress axis : x y z
#
# Youngs Moduli (GPa) = 55.94502 74.86327 61.43350
#
# Poissons Ratio (x) = 0.08033 0.36464
# Poissons Ratio (y) = 0.06003 0.07739
# Poissons Ratio (z) = 0.33206 0.09431
#
# Static dielectric constant tensor:
#      x y z
#    x 1.859210 0.000000 0.000000 
#    y 0.000000 2.059550 0.000000 
#    z 0.000000 0.000000 1.888900 
# 
# From -- ./inp_files/11727.got.cif
#   From: 2010.05.17/outbox.cif.g08.bks.cpg/sg61_6_cif.got.tgz:11727.got - 2010.06.03 15:17:17.
