data_PCOD9460205
_publ_section_title
;
Structure prediction by ZEFSAII (Michael W. Deem and Ramdas Pophale) SiO2 
 PCOD9460205
Probable space group: P B C A
;
_chemical_formula_sum "Si O2"
_cell_formula_units_Z 40
_cell_length_a 9.347379
_cell_length_b 12.161852
_cell_length_c 16.617313
_cell_angle_alpha 90.000000
_cell_angle_beta 90.000000
_cell_angle_gamma 90.000000
_cell_volume 1889.080071
_symmetry_space_group_name_H-M "P B C A"
_symmetry_group_IT_number 61
_symmetry_cell_setting 'orthorhombic'
loop_
_space_group_symop_operation_xyz
x,y,z
1/2-x,-y,1/2+z
1/2+x,1/2-y,-z
-x,1/2+y,1/2-z
-x,-y,-z
1/2+x,y,1/2-z
1/2-x,1/2+y,z
x,1/2-y,1/2+z
loop_
_atom_site_type_symbol
_atom_site_label
_atom_site_fract_x
_atom_site_fract_y
_atom_site_fract_z
Si Si1 0.483397 0.913966 0.109527
Si Si2 0.347862 0.139529 0.155824
Si Si3 0.737584 0.185488 0.598065
Si Si4 0.528117 0.760291 0.490882
Si Si5 0.090415 0.229913 0.238950
O O1 0.657275 0.918802 0.109816
O O2 0.444446 0.833884 0.183330
O O3 0.397680 0.024671 0.119757
O O4 0.452024 0.849907 0.026561
O O5 0.381999 0.230339 0.088200
O O6 0.187724 0.148996 0.186327
O O7 0.450159 0.169215 0.230122
O O8 0.604507 0.165548 0.537439
O O9 0.673924 0.228729 0.681447
O O10 0.851129 0.274330 0.559820
#
# Coordination Sequence:
#
# PCOD9460205 Si02
#       5
#     8   8   8   8   8
#     4  10  22  38  61  88 116 156 199 236 303 341
#     4  11  22  36  63  83 123 155 198 246 291 354
#     4   9  20  37  60  85 116 157 192 246 291 346
#     4   9  19  37  58  84 115 154 198 236 294 344
#     4  11  22  39  58  90 120 154 198 247 292 351
#
# _framework density 21.174327000000002
#
# number of rings (size 3 to 8) (size 9 to 14) (size 15 to 20)
#    1.200    0.800    2.000    1.800    2.800    0.000 
#    0.000    0.000    0.000    3.600    0.000    0.000 
#    0.000    0.000    0.000    0.000    0.000    0.000 
#
# Total GULP energy -222720.299753 kJ/mol
# GULP energy per Si atom -5568.007494 kJ/mol
# Density = 2.112613 g / cm^3
# Si number density = 21.174327 Si / 1000 Ang^3
#
#
#
# Elastic Constant Matrix: (Units=GPa)
#
#
# Indices 1 2 3 4 5 6 
#
# 1 66.7158 -6.3506 34.2573 0.0000 0.0000 0.0000
# 2 -6.3506 5.4525 -5.3075 0.0000 0.0000 0.0000
# 3 34.2573 -5.3075 82.8317 0.0000 0.0000 0.0000
# 4 0.0000 0.0000 0.0000 18.0114 0.0000 0.0000
# 5 0.0000 0.0000 0.0000 0.0000 35.7726 0.0000
# 6 0.0000 0.0000 0.0000 0.0000 0.0000 2.9519
#
#
#
# Elastic Compliance Matrix: (Units=1/GPa)
#
#
# Indices 1 2 3 4 5 6 
#
# 1 0.020338 0.016531 -0.007352 0.000000 0.000000 0.000000
# 2 0.016531 0.209040 0.006557 0.000000 0.000000 0.000000
# 3 -0.007352 0.006557 0.015533 0.000000 0.000000 0.000000
# 4 0.000000 0.000000 0.000000 0.055520 0.000000 0.000000
# 5 0.000000 0.000000 0.000000 0.000000 0.027954 0.000000
# 6 0.000000 0.000000 0.000000 0.000000 0.000000 0.338763
#
#
# Mechanical properties :
#
#
# Convention : Reuss Voigt Hill
#
# Bulk Modulus (GPa) = 3.61815 22.24426 12.93120
# Shear Modulus (GPa) = 6.86999 20.17391 13.52195
#
# Velocity S-wave (km/s) = 1.80320 3.09002 2.52980
# Velocity P-wave (km/s) = 2.45923 4.82276 3.82798
#
# Compressibility (1/GPa) = 0.27638431
#
# Stress axis : x y z
#
# Youngs Moduli (GPa) = 49.16990 4.78378 64.37722
#
# Poissons Ratio (x) = -0.07908 0.47330
# Poissons Ratio (y) = -0.81284 -0.42215
# Poissons Ratio (z) = 0.36149 -0.03137
#
# Static dielectric constant tensor:
#      x y z
#    x 1.804020 0.000000 0.000000 
#    y 0.000000 1.760400 0.000000 
#    z 0.000000 0.000000 1.786360 
# 
# From -- ./inp_files/8053.got.cif
#   From: 2010.05.17/outbox.cif.g08.bks.cpg/sg61_5_cif.got.tgz:8053.got - 2010.06.03 15:17:17.
