data_PCOD9460656
_publ_section_title
;
Structure prediction by ZEFSAII (Michael W. Deem and Ramdas Pophale) SiO2 
 PCOD9460656
Probable space group: P B C A
;
_chemical_formula_sum "Si O2"
_cell_formula_units_Z 40
_cell_length_a 10.662608
_cell_length_b 7.865304
_cell_length_c 17.261973
_cell_angle_alpha 90.000000
_cell_angle_beta 90.000000
_cell_angle_gamma 90.000000
_cell_volume 1447.669382
_symmetry_space_group_name_H-M "P B C A"
_symmetry_group_IT_number 61
_symmetry_cell_setting 'orthorhombic'
loop_
_space_group_symop_operation_xyz
x,y,z
1/2-x,-y,1/2+z
1/2+x,1/2-y,-z
-x,1/2+y,1/2-z
-x,-y,-z
1/2+x,y,1/2-z
1/2-x,1/2+y,z
x,1/2-y,1/2+z
loop_
_atom_site_type_symbol
_atom_site_label
_atom_site_fract_x
_atom_site_fract_y
_atom_site_fract_z
Si Si1 0.316897 0.612586 0.240034
Si Si2 0.078730 0.968711 0.378577
Si Si3 0.679004 0.153440 0.908222
Si Si4 0.073790 0.919884 0.825863
Si Si5 0.320962 0.550902 0.982760
O O1 0.373214 0.630032 0.328006
O O2 0.293601 0.747844 0.171616
O O3 0.439564 0.522448 0.204409
O O4 0.184365 0.533095 0.265981
O O5 0.080651 0.786564 0.332491
O O6 0.180921 0.936827 0.445377
O O7 0.933033 0.981673 0.398830
O O8 0.632469 0.280521 0.975672
O O9 0.802196 0.076041 0.945835
O O10 0.099116 0.988732 0.911098
#
# Coordination Sequence:
#
# PCOD9460656 Si02
#       5
#     8   8   8   8   8
#     4  10  25  42  71 102 148 190 250 291 372 443
#     4  10  23  46  68 105 147 195 244 305 369 446
#     4  11  25  43  73 106 141 197 240 309 375 434
#     4  10  23  46  68 105 145 197 241 308 364 442
#     4  11  23  46  70 104 148 185 251 308 374 442
#
# _framework density 27.630618999999999
#
# number of rings (size 3 to 8) (size 9 to 14) (size 15 to 20)
#    0.000    1.600    2.000    0.600    5.600    8.000 
#    0.000    0.000    0.000    0.000    0.000    0.000 
#    0.000    0.000    0.000    0.000    0.000    0.000 
#
# Total GULP energy -223568.019385 kJ/mol
# GULP energy per Si atom -5589.200485 kJ/mol
# Density = 2.756773 g / cm^3
# Si number density = 27.630619 Si / 1000 Ang^3
#
#
#
# Elastic Constant Matrix: (Units=GPa)
#
#
# Indices 1 2 3 4 5 6 
#
# 1 138.2705 22.2608 80.9467 0.0000 0.0000 0.0000
# 2 22.2608 66.9493 52.9596 0.0000 0.0000 0.0000
# 3 80.9467 52.9596 165.7979 0.0000 0.0000 0.0000
# 4 0.0000 0.0000 0.0000 61.3100 0.0000 0.0000
# 5 0.0000 0.0000 0.0000 0.0000 65.2306 0.0000
# 6 0.0000 0.0000 0.0000 0.0000 0.0000 22.7377
#
#
#
# Elastic Compliance Matrix: (Units=1/GPa)
#
#
# Indices 1 2 3 4 5 6 
#
# 1 0.010153 0.000730 -0.005190 0.000000 0.000000 0.000000
# 2 0.000730 0.020039 -0.006757 0.000000 0.000000 0.000000
# 3 -0.005190 -0.006757 0.010724 0.000000 0.000000 0.000000
# 4 0.000000 0.000000 0.000000 0.016311 0.000000 0.000000
# 5 0.000000 0.000000 0.000000 0.000000 0.015330 0.000000
# 6 0.000000 0.000000 0.000000 0.000000 0.000000 0.043980
#
#
# Mechanical properties :
#
#
# Convention : Reuss Voigt Hill
#
# Bulk Modulus (GPa) = 54.11009 75.92800 65.01904
# Shear Modulus (GPa) = 34.45128 44.17902 39.31515
#
# Velocity S-wave (km/s) = 3.53491 4.00298 3.77621
# Velocity P-wave (km/s) = 6.02384 6.99317 6.52653
#
# Compressibility (1/GPa) = 0.01848084
#
# Stress axis : x y z
#
# Youngs Moduli (GPa) = 98.49187 49.90194 93.25078
#
# Poissons Ratio (x) = -0.03641 0.48398
# Poissons Ratio (y) = -0.07186 0.63012
# Poissons Ratio (z) = 0.51118 0.33720
#
# Static dielectric constant tensor:
#      x y z
#    x 2.128890 0.000000 0.000000 
#    y 0.000000 2.220910 0.000000 
#    z 0.000000 0.000000 2.121860 
# 
# From -- ./inp_files/9110.got.cif
#   From: 2010.05.17/outbox.cif.g08.bks.cpg/sg61_5_cif.got.tgz:9110.got - 2010.06.03 15:17:17.
