data_PCOD9460805
_publ_section_title
;
Structure prediction by ZEFSAII (Michael W. Deem and Ramdas Pophale) SiO2 
 PCOD9460805
Probable space group: P B C A
;
_chemical_formula_sum "Si O2"
_cell_formula_units_Z 48
_cell_length_a 17.455817
_cell_length_b 9.156079
_cell_length_c 11.255165
_cell_angle_alpha 90.000000
_cell_angle_beta 90.000000
_cell_angle_gamma 90.000000
_cell_volume 1798.877450
_symmetry_space_group_name_H-M "P B C A"
_symmetry_group_IT_number 61
_symmetry_cell_setting 'orthorhombic'
loop_
_space_group_symop_operation_xyz
x,y,z
1/2-x,-y,1/2+z
1/2+x,1/2-y,-z
-x,1/2+y,1/2-z
-x,-y,-z
1/2+x,y,1/2-z
1/2-x,1/2+y,z
x,1/2-y,1/2+z
loop_
_atom_site_type_symbol
_atom_site_label
_atom_site_fract_x
_atom_site_fract_y
_atom_site_fract_z
Si Si1 0.973599 0.853239 0.359659
Si Si2 0.615881 0.600975 0.934385
Si Si3 0.610825 0.325066 0.063849
Si Si4 0.594262 0.851233 0.768485
Si Si5 0.257327 0.326626 0.897429
Si Si6 0.894289 0.943507 0.684083
O O1 0.919666 0.777051 0.457142
O O2 0.955227 0.034671 0.610538
O O3 0.030385 0.722395 0.314900
O O4 0.921760 0.979257 0.293517
O O5 0.414919 0.511694 0.965316
O O6 0.586111 0.757691 0.891285
O O7 0.608561 0.507338 0.815089
O O8 0.700119 0.634016 0.981777
O O9 0.585539 0.229056 0.177245
O O10 0.702722 0.313344 0.077185
O O11 0.676998 0.820532 0.704790
O O12 0.191719 0.442751 0.863860
#
# Coordination Sequence:
#
# PCOD9460805 Si02
#       6
#     8   8   8   8   8   8
#     4  11  23  49  78 111 158 207 259 326 402 459
#     4  11  25  46  74 110 149 201 261 311 398 451
#     4  10  25  43  76 108 149 203 257 320 389 464
#     4  11  27  48  77 113 158 206 265 322 390 474
#     4  10  27  42  74 111 157 197 265 318 387 462
#     4   9  24  43  71 108 151 196 258 313 391 451
#
# _framework density 26.683305000000001
#
# number of rings (size 3 to 8) (size 9 to 14) (size 15 to 20)
#    1.000    0.667    0.000    2.500    9.333    6.667 
#    0.000    6.667    0.000    0.000    0.000    0.000 
#    0.000    0.000    0.000    0.000    0.000    0.000 
#
# Total GULP energy -267730.573412 kJ/mol
# GULP energy per Si atom -5577.720279 kJ/mol
# Density = 2.662257 g / cm^3
# Si number density = 26.683305 Si / 1000 Ang^3
#
#
#
# Elastic Constant Matrix: (Units=GPa)
#
#
# Indices 1 2 3 4 5 6 
#
# 1 191.6097 63.2524 39.7309 0.0000 0.0000 0.0000
# 2 63.2524 200.2358 52.9918 0.0000 0.0000 0.0000
# 3 39.7309 52.9918 79.9467 0.0000 0.0000 0.0000
# 4 0.0000 0.0000 0.0000 -113.7161 0.0000 0.0000
# 5 0.0000 0.0000 0.0000 0.0000 60.2765 0.0000
# 6 0.0000 0.0000 0.0000 0.0000 0.0000 10.7375
#
#
#
# Elastic Compliance Matrix: (Units=1/GPa)
#
#
# Indices 1 2 3 4 5 6 
#
# 1 0.006112 -0.001367 -0.002132 0.000000 0.000000 0.000000
# 2 -0.001367 0.006362 -0.003538 0.000000 0.000000 0.000000
# 3 -0.002132 -0.003538 0.015913 0.000000 0.000000 0.000000
# 4 0.000000 0.000000 0.000000 -0.008794 0.000000 0.000000
# 5 0.000000 0.000000 0.000000 0.000000 0.016590 0.000000
# 6 0.000000 0.000000 0.000000 0.000000 0.000000 0.093131
#
#
# Mechanical properties :
#
#
# Convention : Reuss Voigt Hill
#
# Bulk Modulus (GPa) = 69.85868 87.08248 78.47058
# Shear Modulus (GPa) = 33.74762 12.51406 23.13084
#
# Velocity S-wave (km/s) = 3.56019 2.16795 2.94745
# Velocity P-wave (km/s) = 6.56791 6.24285 6.40744
#
# Compressibility (1/GPa) = 0.01431461
#
# Stress axis : x y z
#
# Youngs Moduli (GPa) = 163.61044 157.18089 62.84269
#
# Poissons Ratio (x) = 0.21480 0.13396
# Poissons Ratio (y) = 0.22359 0.22233
# Poissons Ratio (z) = 0.34876 0.55609
#
# Static dielectric constant tensor:
#      x y z
#    x 2.030080 0.000000 0.000000 
#    y 0.000000 2.242570 0.000000 
#    z 0.000000 0.000000 2.296750 
# 
# From -- ./inp_files/5879.got.cif
#   From: 2010.05.17/outbox.cif.g08.bks.cpg/sg61_3_cif.got.tgz:5879.got - 2010.06.03 15:17:17.
