data_PCOD9460983
_publ_section_title
;
Structure prediction by ZEFSAII (Michael W. Deem and Ramdas Pophale) SiO2 
 PCOD9460983
Probable space group: P B C A
;
_chemical_formula_sum "Si O2"
_cell_formula_units_Z 48
_cell_length_a 9.218761
_cell_length_b 18.267811
_cell_length_c 10.210693
_cell_angle_alpha 90.000000
_cell_angle_beta 90.000000
_cell_angle_gamma 90.000000
_cell_volume 1719.547924
_symmetry_space_group_name_H-M "P B C A"
_symmetry_group_IT_number 61
_symmetry_cell_setting 'orthorhombic'
loop_
_space_group_symop_operation_xyz
x,y,z
1/2-x,-y,1/2+z
1/2+x,1/2-y,-z
-x,1/2+y,1/2-z
-x,-y,-z
1/2+x,y,1/2-z
1/2-x,1/2+y,z
x,1/2-y,1/2+z
loop_
_atom_site_type_symbol
_atom_site_label
_atom_site_fract_x
_atom_site_fract_y
_atom_site_fract_z
Si Si1 0.490611 0.993117 0.792656
Si Si2 0.222327 0.997934 0.517026
Si Si3 0.571999 0.244926 0.008115
Si Si4 0.084723 0.883349 0.893081
Si Si5 0.672588 0.769050 0.809628
Si Si6 0.631529 0.635265 0.640241
O O1 0.404110 0.969061 0.921378
O O2 0.471208 0.933924 0.683230
O O3 0.658482 0.996023 0.837447
O O4 0.440296 0.074829 0.765799
O O5 0.342871 0.056829 0.486510
O O6 0.230133 0.258967 0.558572
O O7 0.228618 0.915835 0.456139
O O8 0.500117 0.232355 0.152301
O O9 0.490221 0.318713 0.968395
O O10 0.499747 0.175503 0.934473
O O11 0.183994 0.840495 0.784070
O O12 0.708676 0.698506 0.721020
#
# Coordination Sequence:
#
# PCOD9460983 Si02
#       6
#     8   8   8   8   8   8
#     4   9  20  40  67  99 131 176 221 283 351 410
#     4   9  20  37  69  98 130 175 225 283 349 411
#     4  11  26  43  67  98 142 187 232 286 346 418
#     4  11  23  42  68 101 137 180 227 293 348 416
#     4  11  26  45  66 102 141 188 237 283 344 415
#     4   9  22  41  69  96 128 185 227 286 338 416
#
# _framework density 27.914314000000001
#
# number of rings (size 3 to 8) (size 9 to 14) (size 15 to 20)
#    1.000    1.000    0.000    2.000    4.667    5.333 
#    3.000    0.833    0.000    0.000    0.000    0.000 
#    0.000    0.000    0.000    0.000    0.000    0.000 
#
# Total GULP energy -268323.187516 kJ/mol
# GULP energy per Si atom -5590.066407 kJ/mol
# Density = 2.785078 g / cm^3
# Si number density = 27.914314 Si / 1000 Ang^3
#
#
#
# Elastic Constant Matrix: (Units=GPa)
#
#
# Indices 1 2 3 4 5 6 
#
# 1 92.8730 36.9753 7.6805 0.0000 0.0000 0.0000
# 2 36.9753 211.0992 34.0710 0.0000 0.0000 0.0000
# 3 7.6805 34.0710 76.9090 0.0000 0.0000 0.0000
# 4 0.0000 0.0000 0.0000 49.1807 0.0000 0.0000
# 5 0.0000 0.0000 0.0000 0.0000 26.7571 0.0000
# 6 0.0000 0.0000 0.0000 0.0000 0.0000 45.1058
#
#
#
# Elastic Compliance Matrix: (Units=1/GPa)
#
#
# Indices 1 2 3 4 5 6 
#
# 1 0.011580 -0.001983 -0.000278 0.000000 0.000000 0.000000
# 2 -0.001983 0.005442 -0.002213 0.000000 0.000000 0.000000
# 3 -0.000278 -0.002213 0.014010 0.000000 0.000000 0.000000
# 4 0.000000 0.000000 0.000000 0.020333 0.000000 0.000000
# 5 0.000000 0.000000 0.000000 0.000000 0.037373 0.000000
# 6 0.000000 0.000000 0.000000 0.000000 0.000000 0.022170
#
#
# Mechanical properties :
#
#
# Convention : Reuss Voigt Hill
#
# Bulk Modulus (GPa) = 45.28096 59.81497 52.54796
# Shear Modulus (GPa) = 39.30274 44.35235 41.82755
#
# Velocity S-wave (km/s) = 3.75637 3.99039 3.87515
# Velocity P-wave (km/s) = 5.92203 6.53495 6.23602
#
# Compressibility (1/GPa) = 0.02208434
#
# Stress axis : x y z
#
# Youngs Moduli (GPa) = 86.35543 183.76828 71.37608
#
# Poissons Ratio (x) = 0.36450 0.01982
# Poissons Ratio (y) = 0.17128 0.15793
# Poissons Ratio (z) = 0.02399 0.40660
#
# Static dielectric constant tensor:
#      x y z
#    x 2.378480 0.000000 0.000000 
#    y 0.000000 2.080270 0.000000 
#    z 0.000000 0.000000 2.227580 
# 
# From -- ./inp_files/5715.got.cif
#   From: 2010.05.17/outbox.cif.g08.bks.cpg/sg61_3_cif.got.tgz:5715.got - 2010.06.03 15:17:17.
