data_PCOD9460076
_publ_section_title
;
Structure prediction by ZEFSAII (Michael W. Deem and Ramdas Pophale) SiO2 
 PCOD9460076
Probable space group: P B C A
;
_chemical_formula_sum "Si O2"
_cell_formula_units_Z 56
_cell_length_a 10.425016
_cell_length_b 17.753657
_cell_length_c 12.027473
_cell_angle_alpha 90.000000
_cell_angle_beta 90.000000
_cell_angle_gamma 90.000000
_cell_volume 2226.070662
_symmetry_space_group_name_H-M "P B C A"
_symmetry_group_IT_number 61
_symmetry_cell_setting 'orthorhombic'
loop_
_space_group_symop_operation_xyz
x,y,z
1/2-x,-y,1/2+z
1/2+x,1/2-y,-z
-x,1/2+y,1/2-z
-x,-y,-z
1/2+x,y,1/2-z
1/2-x,1/2+y,z
x,1/2-y,1/2+z
loop_
_atom_site_type_symbol
_atom_site_label
_atom_site_fract_x
_atom_site_fract_y
_atom_site_fract_z
Si Si1 0.760153 0.209936 0.247191
Si Si2 0.342396 0.069607 0.112431
Si Si3 0.522452 0.950132 0.682125
Si Si4 0.207429 0.083058 0.877683
Si Si5 0.304233 0.069769 0.644014
Si Si6 0.020596 0.277267 0.343520
Si Si7 0.902992 0.315455 0.536695
O O1 0.766596 0.127736 0.304777
O O2 0.618437 0.242679 0.245492
O O3 0.880788 0.254414 0.297376
O O4 0.792514 0.213833 0.116018
O O5 0.474448 0.070241 0.186082
O O6 0.319616 0.979415 0.114413
O O7 0.292386 0.091285 0.989217
O O8 0.520707 0.874614 0.611705
O O9 0.647819 0.999186 0.642194
O O10 0.409026 0.003880 0.645766
O O11 0.293229 0.097986 0.769616
O O12 0.086871 0.140505 0.865148
O O13 0.335107 0.133479 0.556985
O O14 0.993361 0.255921 0.473580
#
# Coordination Sequence:
#
# PCOD9460076 Si02
#       7
#     8   8   8   8   8   8   8
#     4  11  30  48  72 106 147 205 247 300 371 449
#     4  10  24  43  69 100 144 186 244 298 370 446
#     4  10  21  41  69 103 134 190 229 309 377 432
#     4  11  23  41  69 104 140 186 242 304 364 436
#     4  11  21  40  72 105 138 179 243 305 380 427
#     4  12  27  46  73 103 146 200 246 301 358 454
#     4  11  23  46  71 102 143 190 247 301 378 440
#
# _framework density 25.156433
#
# number of rings (size 3 to 8) (size 9 to 14) (size 15 to 20)
#    0.000    1.143    2.857    2.143    8.000    1.714 
#    0.000    2.857    0.000    0.000    0.000    0.000 
#    0.000    0.000    0.000    0.000    0.000    0.000 
#
# Total GULP energy -311972.940389 kJ/mol
# GULP energy per Si atom -5570.945364 kJ/mol
# Density = 2.509918 g / cm^3
# Si number density = 25.156433 Si / 1000 Ang^3
#
#
#
# Elastic Constant Matrix: (Units=GPa)
#
#
# Indices 1 2 3 4 5 6 
#
# 1 44.9912 15.9821 22.8543 0.0000 0.0000 0.0000
# 2 15.9821 65.3081 23.9206 0.0000 0.0000 0.0000
# 3 22.8543 23.9206 159.2732 0.0000 0.0000 0.0000
# 4 0.0000 0.0000 0.0000 41.0066 0.0000 0.0000
# 5 0.0000 0.0000 0.0000 0.0000 35.2853 0.0000
# 6 0.0000 0.0000 0.0000 0.0000 0.0000 10.9996
#
#
#
# Elastic Compliance Matrix: (Units=1/GPa)
#
#
# Indices 1 2 3 4 5 6 
#
# 1 0.025536 -0.005193 -0.002884 0.000000 0.000000 0.000000
# 2 -0.005193 0.017259 -0.001847 0.000000 0.000000 0.000000
# 3 -0.002884 -0.001847 0.006970 0.000000 0.000000 0.000000
# 4 0.000000 0.000000 0.000000 0.024386 0.000000 0.000000
# 5 0.000000 0.000000 0.000000 0.000000 0.028340 0.000000
# 6 0.000000 0.000000 0.000000 0.000000 0.000000 0.090912
#
#
# Mechanical properties :
#
#
# Convention : Reuss Voigt Hill
#
# Bulk Modulus (GPa) = 33.42556 43.89850 38.66203
# Shear Modulus (GPa) = 22.39894 31.24601 26.82248
#
# Velocity S-wave (km/s) = 2.98717 3.52812 3.26886
# Velocity P-wave (km/s) = 5.02131 5.83823 5.44511
#
# Compressibility (1/GPa) = 0.02991722
#
# Stress axis : x y z
#
# Youngs Moduli (GPa) = 39.15990 57.93980 143.47627
#
# Poissons Ratio (x) = 0.30087 0.41384
# Poissons Ratio (y) = 0.20335 0.26500
# Poissons Ratio (z) = 0.11295 0.10701
#
# Static dielectric constant tensor:
#      x y z
#    x 2.210150 0.000000 0.000000 
#    y 0.000000 2.110490 0.000000 
#    z 0.000000 0.000000 2.046520 
# 
# From -- ./inp_files/5328.got.cif
#   From: 2010.05.17/outbox.cif.g08.bks.cpg/sg61_3_cif.got.tgz:5328.got - 2010.06.03 15:17:17.
