data_PCOD9460844
_publ_section_title
;
Structure prediction by ZEFSAII (Michael W. Deem and Ramdas Pophale) SiO2 
 PCOD9460844
Probable space group: P B C A
;
_chemical_formula_sum "Si O2"
_cell_formula_units_Z 36
_cell_length_a 8.152788
_cell_length_b 16.458549
_cell_length_c 8.864721
_cell_angle_alpha 90.000000
_cell_angle_beta 90.000000
_cell_angle_gamma 90.000000
_cell_volume 1189.495397
_symmetry_space_group_name_H-M "P B C A"
_symmetry_group_IT_number 61
_symmetry_cell_setting 'orthorhombic'
loop_
_space_group_symop_operation_xyz
x,y,z
1/2-x,-y,1/2+z
1/2+x,1/2-y,-z
-x,1/2+y,1/2-z
-x,-y,-z
1/2+x,y,1/2-z
1/2-x,1/2+y,z
x,1/2-y,1/2+z
loop_
_atom_site_type_symbol
_atom_site_label
_atom_site_fract_x
_atom_site_fract_y
_atom_site_fract_z
Si Si1 0.281907 0.901400 0.723821
Si Si2 0.500000 0.000000 0.000000
Si Si3 0.989298 0.639243 0.532683
Si Si4 0.000775 0.322481 0.956873
Si Si5 0.261293 0.941073 0.234004
O O1 0.443276 0.912743 0.613180
O O2 0.163471 0.835962 0.637167
O O3 0.343731 0.837225 0.851809
O O4 0.153097 0.981788 0.643490
O O5 0.490927 0.903074 0.059657
O O6 0.326042 0.986680 0.840884
O O7 0.847867 0.619193 0.653696
O O8 0.998873 0.732041 0.484353
O O9 0.145379 0.604898 0.620167
#
# Coordination Sequence:
#
# PCOD9460844 Si02
#       5
#     8   4   8   8   8
#     4  11  27  48  72 111 151 201 246 318 383 459
#     4  10  26  46  74  98 158 196 244 304 378 444
#     4  12  28  46  81 110 153 194 263 311 377 460
#     4  11  27  46  75 108 150 197 252 312 379 447
#     4  11  26  48  75 110 148 205 243 316 379 457
#
# _framework density 30.264935000000001
#
# number of rings (size 3 to 8) (size 9 to 14) (size 15 to 20)
#    0.000    0.889    0.000    4.667   21.778    0.000 
#    0.000    0.000    0.000    0.000    0.000    0.000 
#    0.000    0.000    0.000    0.000    0.000    0.000 
#
# Total GULP energy -201186.650080 kJ/mol
# GULP energy per Si atom -5588.518058 kJ/mol
# Density = 3.019605 g / cm^3
# Si number density = 30.264935 Si / 1000 Ang^3
#
#
#
# Elastic Constant Matrix: (Units=GPa)
#
#
# Indices 1 2 3 4 5 6 
#
# 1 112.4132 56.6759 37.7395 0.0000 0.0000 0.0000
# 2 56.6759 244.4056 59.1793 0.0000 0.0000 0.0000
# 3 37.7395 59.1793 160.7296 0.0000 0.0000 0.0000
# 4 0.0000 0.0000 0.0000 42.2688 0.0000 0.0000
# 5 0.0000 0.0000 0.0000 0.0000 73.4110 0.0000
# 6 0.0000 0.0000 0.0000 0.0000 0.0000 36.1584
#
#
#
# Elastic Compliance Matrix: (Units=1/GPa)
#
#
# Indices 1 2 3 4 5 6 
#
# 1 0.010490 -0.002016 -0.001721 0.000000 0.000000 0.000000
# 2 -0.002016 0.004879 -0.001323 0.000000 0.000000 0.000000
# 3 -0.001721 -0.001323 0.007113 0.000000 0.000000 0.000000
# 4 0.000000 0.000000 0.000000 0.023658 0.000000 0.000000
# 5 0.000000 0.000000 0.000000 0.000000 0.013622 0.000000
# 6 0.000000 0.000000 0.000000 0.000000 0.000000 0.027656
#
#
# Mechanical properties :
#
#
# Convention : Reuss Voigt Hill
#
# Bulk Modulus (GPa) = 80.89085 91.63753 86.26419
# Shear Modulus (GPa) = 49.18416 54.63122 51.90769
#
# Velocity S-wave (km/s) = 4.03565 4.25326 4.14588
# Velocity P-wave (km/s) = 6.96426 7.38000 7.17514
#
# Compressibility (1/GPa) = 0.01236234
#
# Stress axis : x y z
#
# Youngs Moduli (GPa) = 95.33069 204.94222 140.58999
#
# Poissons Ratio (x) = 0.41313 0.24193
# Poissons Ratio (y) = 0.19217 0.18603
# Poissons Ratio (z) = 0.16404 0.27119
#
# Static dielectric constant tensor:
#      x y z
#    x 2.441060 0.000000 0.000000 
#    y 0.000000 2.025630 0.000000 
#    z 0.000000 0.000000 0.850870 
# 
# From -- ./inp_files/3267.got.cif
#   From: 2010.05.17/outbox.cif.g08.bks.cpg/sg61_2_cif.got.tgz:3267.got - 2010.06.03 15:17:17.
