data_PCOD9460502
_publ_section_title
;
Structure prediction by ZEFSAII (Michael W. Deem and Ramdas Pophale) SiO2 
 PCOD9460502
Probable space group: P B C A
;
_chemical_formula_sum "Si O2"
_cell_formula_units_Z 48
_cell_length_a 8.685684
_cell_length_b 10.691713
_cell_length_c 23.107841
_cell_angle_alpha 90.000000
_cell_angle_beta 90.000000
_cell_angle_gamma 90.000000
_cell_volume 2145.905970
_symmetry_space_group_name_H-M "P B C A"
_symmetry_group_IT_number 61
_symmetry_cell_setting 'orthorhombic'
loop_
_space_group_symop_operation_xyz
x,y,z
1/2-x,-y,1/2+z
1/2+x,1/2-y,-z
-x,1/2+y,1/2-z
-x,-y,-z
1/2+x,y,1/2-z
1/2-x,1/2+y,z
x,1/2-y,1/2+z
loop_
_atom_site_type_symbol
_atom_site_label
_atom_site_fract_x
_atom_site_fract_y
_atom_site_fract_z
Si Si1 0.969304 0.674477 0.740893
Si Si2 0.591740 0.829661 0.558179
Si Si3 0.236668 0.995358 0.212879
Si Si4 0.268871 0.888708 0.593621
Si Si5 0.336829 0.636198 0.540693
Si Si6 0.294641 0.172534 0.311312
O O1 0.885863 0.591886 0.789764
O O2 0.840372 0.729240 0.699663
O O3 0.087273 0.589031 0.706518
O O4 0.061578 0.783360 0.772550
O O5 0.438583 0.915913 0.565435
O O6 0.507482 0.699363 0.537965
O O7 0.732432 0.866442 0.516932
O O8 0.658017 0.827404 0.622823
O O9 0.235124 0.096647 0.162680
O O10 0.238904 0.048803 0.278147
O O11 0.247020 0.742983 0.578558
O O12 0.162128 0.998493 0.568280
#
# Coordination Sequence:
#
# PCOD9460502 Si02
#       6
#     8   8   8   8   8   8
#     4  10  23  37  65  97 135 173 225 269 363 406
#     4  10  23  44  68  97 140 178 239 284 347 408
#     4  11  22  41  64  99 132 180 218 285 351 416
#     4  10  23  42  70  92 138 174 235 285 346 409
#     4  10  24  44  69  97 134 187 233 284 346 402
#     4  11  22  43  64 101 137 175 225 291 339 425
#
# _framework density 22.368175999999998
#
# number of rings (size 3 to 8) (size 9 to 14) (size 15 to 20)
#    1.000    0.667    0.000    4.500    4.667    2.000 
#    9.000    0.000    0.000    0.000    0.000    0.000 
#    0.000    0.000    0.000    0.000    0.000    0.000 
#
# Total GULP energy -267836.714153 kJ/mol
# GULP energy per Si atom -5579.931545 kJ/mol
# Density = 2.231727 g / cm^3
# Si number density = 22.368176 Si / 1000 Ang^3
#
#
#
# Elastic Constant Matrix: (Units=GPa)
#
#
# Indices 1 2 3 4 5 6 
#
# 1 52.5457 1.1534 17.0253 0.0000 0.0000 0.0000
# 2 1.1534 61.9280 0.9323 0.0000 0.0000 0.0000
# 3 17.0253 0.9323 82.6555 0.0000 0.0000 0.0000
# 4 0.0000 0.0000 0.0000 10.6316 0.0000 0.0000
# 5 0.0000 0.0000 0.0000 0.0000 17.9793 0.0000
# 6 0.0000 0.0000 0.0000 0.0000 0.0000 24.3578
#
#
#
# Elastic Compliance Matrix: (Units=1/GPa)
#
#
# Indices 1 2 3 4 5 6 
#
# 1 0.020398 -0.000317 -0.004198 0.000000 0.000000 0.000000
# 2 -0.000317 0.016155 -0.000117 0.000000 0.000000 0.000000
# 3 -0.004198 -0.000117 0.012964 0.000000 0.000000 0.000000
# 4 0.000000 0.000000 0.000000 0.094059 0.000000 0.000000
# 5 0.000000 0.000000 0.000000 0.000000 0.055620 0.000000
# 6 0.000000 0.000000 0.000000 0.000000 0.000000 0.041055
#
#
# Mechanical properties :
#
#
# Convention : Reuss Voigt Hill
#
# Bulk Modulus (GPa) = 24.84186 26.15013 25.49599
# Shear Modulus (GPa) = 19.01627 22.46164 20.73895
#
# Velocity S-wave (km/s) = 2.91889 3.17232 3.04824
# Velocity P-wave (km/s) = 4.74235 5.01341 4.87976
#
# Compressibility (1/GPa) = 0.04025463
#
# Stress axis : x y z
#
# Youngs Moduli (GPa) = 49.02393 61.89865 77.13415
#
# Poissons Ratio (x) = 0.01960 0.32381
# Poissons Ratio (y) = 0.01553 0.00902
# Poissons Ratio (z) = 0.20580 0.00724
#
# Static dielectric constant tensor:
#      x y z
#    x 1.855660 0.000000 0.000000 
#    y 0.000000 1.874370 0.000000 
#    z 0.000000 0.000000 1.804020 
# 
# From -- ./inp_files/6577.got.cif
#   From: 2010.05.17/outbox.cif.g08.bks.cpg/sg61_4_cif.got.tgz:6577.got - 2010.06.03 15:17:17.
