data_PCOD9460959
_publ_section_title
;
Structure prediction by ZEFSAII (Michael W. Deem and Ramdas Pophale) SiO2 
 PCOD9460959
Probable space group: P B C A
;
_chemical_formula_sum "Si O2"
_cell_formula_units_Z 60
_cell_length_a 22.378662
_cell_length_b 12.109592
_cell_length_c 9.416540
_cell_angle_alpha 90.000000
_cell_angle_beta 90.000000
_cell_angle_gamma 90.000000
_cell_volume 2551.849065
_symmetry_space_group_name_H-M "P B C A"
_symmetry_group_IT_number 61
_symmetry_cell_setting 'orthorhombic'
loop_
_space_group_symop_operation_xyz
x,y,z
1/2-x,-y,1/2+z
1/2+x,1/2-y,-z
-x,1/2+y,1/2-z
-x,-y,-z
1/2+x,y,1/2-z
1/2-x,1/2+y,z
x,1/2-y,1/2+z
loop_
_atom_site_type_symbol
_atom_site_label
_atom_site_fract_x
_atom_site_fract_y
_atom_site_fract_z
Si Si1 0.283677 0.870800 0.377512
Si Si2 0.117555 0.941450 0.510933
Si Si3 0.686102 0.713601 0.064758
Si Si4 0.026003 0.232076 0.646781
Si Si5 0.500000 0.000000 0.000000
Si Si6 0.418075 0.640915 0.919242
Si Si7 0.576624 0.596112 0.184948
Si Si8 0.756948 0.528053 0.900851
O O1 0.241677 0.767056 0.355212
O O2 0.352140 0.846405 0.356127
O O3 0.261705 0.963635 0.267638
O O4 0.273761 0.920011 0.534055
O O5 0.146438 0.819933 0.487074
O O6 0.071394 0.936858 0.648424
O O7 0.067161 0.985253 0.405651
O O8 0.174187 0.020211 0.542231
O O9 0.642962 0.641843 0.162741
O O10 0.716680 0.631619 0.951388
O O11 0.018908 0.123794 0.552507
O O12 0.076820 0.305702 0.572504
O O13 0.038320 0.198610 0.807744
O O14 0.968194 0.308922 0.644136
O O15 0.431486 0.510862 0.911441
#
# Coordination Sequence:
#
# PCOD9460959 Si02
#       8
#     8   8   8   8   4   8   8   8
#     4  11  25  43  72 105 144 187 244 305 375 442
#     4  11  23  42  69  99 147 187 243 304 377 449
#     4  11  24  41  71 104 142 188 248 296 389 448
#     4  12  28  47  77 106 148 200 250 309 392 433
#     4  12  22  46  70 104 142 192 238 304 368 456
#     4  12  27  51  73 109 150 194 253 321 366 465
#     4  12  23  50  70 103 147 194 246 313 364 463
#     4  11  22  47  68 102 142 195 238 310 367 448
#
# _framework density 23.512363000000001
#
# number of rings (size 3 to 8) (size 9 to 14) (size 15 to 20)
#    0.000    0.533    5.333    2.000    3.733    1.067 
#    0.000    1.333    0.000    0.000    0.000    0.000 
#    0.000    0.000    0.000    0.000    0.000    0.000 
#
# Total GULP energy -334560.075119 kJ/mol
# GULP energy per Si atom -5576.001252 kJ/mol
# Density = 2.345885 g / cm^3
# Si number density = 23.512363 Si / 1000 Ang^3
#
#
#
# Elastic Constant Matrix: (Units=GPa)
#
#
# Indices 1 2 3 4 5 6 
#
# 1 74.9083 40.3518 -5.4761 0.0000 0.0000 0.0000
# 2 40.3518 115.6666 9.4604 0.0000 0.0000 0.0000
# 3 -5.4761 9.4604 17.2182 0.0000 0.0000 0.0000
# 4 0.0000 0.0000 0.0000 16.1489 0.0000 0.0000
# 5 0.0000 0.0000 0.0000 0.0000 25.0720 0.0000
# 6 0.0000 0.0000 0.0000 0.0000 0.0000 45.5584
#
#
#
# Elastic Compliance Matrix: (Units=1/GPa)
#
#
# Indices 1 2 3 4 5 6 
#
# 1 0.017810 -0.006991 0.009505 0.000000 0.000000 0.000000
# 2 -0.006991 0.011796 -0.008705 0.000000 0.000000 0.000000
# 3 0.009505 -0.008705 0.065884 0.000000 0.000000 0.000000
# 4 0.000000 0.000000 0.000000 0.061924 0.000000 0.000000
# 5 0.000000 0.000000 0.000000 0.000000 0.039885 0.000000
# 6 0.000000 0.000000 0.000000 0.000000 0.000000 0.021950
#
#
# Mechanical properties :
#
#
# Convention : Reuss Voigt Hill
#
# Bulk Modulus (GPa) = 12.03221 32.94058 22.48640
# Shear Modulus (GPa) = 19.28025 28.25300 23.76662
#
# Velocity S-wave (km/s) = 2.86668 3.47020 3.18278
# Velocity P-wave (km/s) = 4.01069 5.48605 4.80533
#
# Compressibility (1/GPa) = 0.08311025
#
# Stress axis : x y z
#
# Youngs Moduli (GPa) = 56.14708 84.77205 15.17824
#
# Poissons Ratio (x) = 0.59263 -0.14428
# Poissons Ratio (y) = 0.39251 0.13212
# Poissons Ratio (z) = -0.53370 0.73792
#
# Static dielectric constant tensor:
#      x y z
#    x 1.642610 0.000000 0.000000 
#    y 0.000000 1.792720 0.000000 
#    z 0.000000 0.000000 1.683070 
# 
# From -- ./inp_files/6489.got.cif
#   From: 2010.05.17/outbox.cif.g08.bks.cpg/sg61_4_cif.got.tgz:6489.got - 2010.06.03 15:17:17.
