data_PCOD9460611
_publ_section_title
;
Structure prediction by ZEFSAII (Michael W. Deem and Ramdas Pophale) SiO2 
 PCOD9460611
Probable space group: P B C A
;
_chemical_formula_sum "Si O2"
_cell_formula_units_Z 40
_cell_length_a 11.694968
_cell_length_b 10.255074
_cell_length_c 14.409394
_cell_angle_alpha 90.000000
_cell_angle_beta 90.000000
_cell_angle_gamma 90.000000
_cell_volume 1728.158425
_symmetry_space_group_name_H-M "P B C A"
_symmetry_group_IT_number 61
_symmetry_cell_setting 'orthorhombic'
loop_
_space_group_symop_operation_xyz
x,y,z
1/2-x,-y,1/2+z
1/2+x,1/2-y,-z
-x,1/2+y,1/2-z
-x,-y,-z
1/2+x,y,1/2-z
1/2-x,1/2+y,z
x,1/2-y,1/2+z
loop_
_atom_site_type_symbol
_atom_site_label
_atom_site_fract_x
_atom_site_fract_y
_atom_site_fract_z
Si Si1 0.932877 0.574634 0.726453
Si Si2 0.199358 0.597604 0.128764
Si Si3 0.111265 0.087965 0.983142
Si Si4 0.028302 0.361342 0.954291
Si Si5 0.396170 0.645915 0.256163
O O1 0.859868 0.515497 0.810600
O O2 0.867683 0.583213 0.627921
O O3 0.967485 0.720979 0.752247
O O4 0.038383 0.476821 0.713706
O O5 0.096168 0.680599 0.085621
O O6 0.278451 0.668727 0.203844
O O7 0.280888 0.550002 0.045690
O O8 0.079757 0.238804 0.008349
O O9 0.000000 0.000000 0.000000
O O10 0.110005 0.383063 0.865558
O O11 0.000000 0.500000 0.000000
#
# Coordination Sequence:
#
# PCOD9460611 Si02
#       5
#     8   8   8   8   8
#     4  10  24  45  69 106 139 185 245 296 362 440
#     4  11  25  42  74 100 148 191 232 299 376 417
#     4  11  24  44  71 108 140 184 244 298 356 441
#     4  10  26  46  68 104 142 187 245 298 357 443
#     4  10  23  44  69 101 142 185 240 298 359 434
#
# _framework density 23.146025999999999
#
# number of rings (size 3 to 8) (size 9 to 14) (size 15 to 20)
#    0.000    1.600    2.000    0.000   11.200    1.600 
#    3.600    0.000    0.000    0.000    0.000    0.000 
#    0.000    0.000    0.000    0.000    0.000    0.000 
#
# Total GULP energy -223406.268211 kJ/mol
# GULP energy per Si atom -5585.156705 kJ/mol
# Density = 2.309335 g / cm^3
# Si number density = 23.146026 Si / 1000 Ang^3
#
#
#
# Elastic Constant Matrix: (Units=GPa)
#
#
# Indices 1 2 3 4 5 6 
#
# 1 64.4060 -7.7837 -1.7300 0.0000 0.0000 0.0000
# 2 -7.7837 98.1010 -8.5122 0.0000 0.0000 0.0000
# 3 -1.7300 -8.5122 67.3727 0.0000 0.0000 0.0000
# 4 0.0000 0.0000 0.0000 31.2068 0.0000 0.0000
# 5 0.0000 0.0000 0.0000 0.0000 51.8922 0.0000
# 6 0.0000 0.0000 0.0000 0.0000 0.0000 24.2731
#
#
#
# Elastic Compliance Matrix: (Units=1/GPa)
#
#
# Indices 1 2 3 4 5 6 
#
# 1 0.015698 0.001295 0.000567 0.000000 0.000000 0.000000
# 2 0.001295 0.010413 0.001349 0.000000 0.000000 0.000000
# 3 0.000567 0.001349 0.015028 0.000000 0.000000 0.000000
# 4 0.000000 0.000000 0.000000 0.032044 0.000000 0.000000
# 5 0.000000 0.000000 0.000000 0.000000 0.019271 0.000000
# 6 0.000000 0.000000 0.000000 0.000000 0.000000 0.041198
#
#
# Mechanical properties :
#
#
# Convention : Reuss Voigt Hill
#
# Bulk Modulus (GPa) = 21.02608 21.53644 21.28126
# Shear Modulus (GPa) = 34.94429 38.00145 36.47287
#
# Velocity S-wave (km/s) = 3.88974 4.05633 3.97391
# Velocity P-wave (km/s) = 5.41085 5.59135 5.50184
#
# Compressibility (1/GPa) = 0.04755997
#
# Stress axis : x y z
#
# Youngs Moduli (GPa) = 63.70157 96.03054 66.54343
#
# Poissons Ratio (x) = -0.12433 -0.03771
# Poissons Ratio (y) = -0.08248 -0.08976
# Poissons Ratio (z) = -0.03610 -0.12954
#
# Static dielectric constant tensor:
#      x y z
#    x 1.868380 0.000000 0.000000 
#    y 0.000000 1.890830 0.000000 
#    z 0.000000 0.000000 1.932500 
# 
# From -- ./inp_files/7728.got.cif
#   From: 2010.05.17/outbox.cif.g08.bks.cpg/sg61_4_cif.got.tgz:7728.got - 2010.06.03 15:17:17.
