data_PCOD9460122
_publ_section_title
;
Structure prediction by ZEFSAII (Michael W. Deem and Ramdas Pophale) SiO2 
 PCOD9460122
Probable space group: P B C A
;
_chemical_formula_sum "Si O2"
_cell_formula_units_Z 56
_cell_length_a 9.317673
_cell_length_b 13.384586
_cell_length_c 18.166780
_cell_angle_alpha 90.000000
_cell_angle_beta 90.000000
_cell_angle_gamma 90.000000
_cell_volume 2265.637187
_symmetry_space_group_name_H-M "P B C A"
_symmetry_group_IT_number 61
_symmetry_cell_setting 'orthorhombic'
loop_
_space_group_symop_operation_xyz
x,y,z
1/2-x,-y,1/2+z
1/2+x,1/2-y,-z
-x,1/2+y,1/2-z
-x,-y,-z
1/2+x,y,1/2-z
1/2-x,1/2+y,z
x,1/2-y,1/2+z
loop_
_atom_site_type_symbol
_atom_site_label
_atom_site_fract_x
_atom_site_fract_y
_atom_site_fract_z
Si Si1 0.595507 0.644999 0.986752
Si Si2 0.831682 0.236107 0.288406
Si Si3 0.091323 0.855459 0.552472
Si Si4 0.776368 0.064853 0.846751
Si Si5 0.554515 0.503150 0.641920
Si Si6 0.061884 0.118557 0.213389
Si Si7 0.195381 0.451929 0.446602
O O1 0.578107 0.761752 0.002443
O O2 0.712551 0.623222 0.923992
O O3 0.447343 0.613336 0.947845
O O4 0.637574 0.566259 0.049649
O O5 0.888783 0.192906 0.366612
O O6 0.842973 0.355469 0.288590
O O7 0.664325 0.213203 0.292118
O O8 0.906345 0.168762 0.225352
O O9 0.223064 0.918719 0.521138
O O10 0.965591 0.933507 0.568670
O O11 0.606604 0.041338 0.838609
O O12 0.877787 0.966186 0.842245
O O13 0.596875 0.436136 0.710161
O O14 0.691033 0.568224 0.618038
#
# Coordination Sequence:
#
# PCOD9460122 Si02
#       7
#     8   8   8   8   8   8   8
#     4  10  24  40  68  99 131 168 220 275 321 397
#     4  10  24  40  66  91 126 171 218 270 334 388
#     4  10  21  43  63  91 132 169 215 266 327 393
#     4  11  23  45  65  94 133 169 216 275 331 396
#     4  11  24  41  66  94 131 176 214 266 338 394
#     4  11  22  44  61  93 126 172 213 276 324 396
#     4  11  23  41  66 100 130 175 216 270 330 390
#
# _framework density 24.717109000000001
#
# number of rings (size 3 to 8) (size 9 to 14) (size 15 to 20)
#    0.000    1.429    4.286    0.429    6.000    1.143 
#    5.143    0.000    0.000    0.000    0.000    0.000 
#    0.000    0.000    0.000    0.000    0.000    0.000 
#
# Total GULP energy -312215.669189 kJ/mol
# GULP energy per Si atom -5575.279807 kJ/mol
# Density = 2.466085 g / cm^3
# Si number density = 24.717109 Si / 1000 Ang^3
#
#
#
# Elastic Constant Matrix: (Units=GPa)
#
#
# Indices 1 2 3 4 5 6 
#
# 1 99.8869 15.6410 6.9571 0.0000 0.0000 0.0000
# 2 15.6410 91.7619 5.0444 0.0000 0.0000 0.0000
# 3 6.9571 5.0444 49.9720 0.0000 0.0000 0.0000
# 4 0.0000 0.0000 0.0000 20.4766 0.0000 0.0000
# 5 0.0000 0.0000 0.0000 0.0000 30.6965 0.0000
# 6 0.0000 0.0000 0.0000 0.0000 0.0000 10.3514
#
#
#
# Elastic Compliance Matrix: (Units=1/GPa)
#
#
# Indices 1 2 3 4 5 6 
#
# 1 0.010366 -0.001697 -0.001272 0.000000 0.000000 0.000000
# 2 -0.001697 0.011236 -0.000898 0.000000 0.000000 0.000000
# 3 -0.001272 -0.000898 0.020279 0.000000 0.000000 0.000000
# 4 0.000000 0.000000 0.000000 0.048836 0.000000 0.000000
# 5 0.000000 0.000000 0.000000 0.000000 0.032577 0.000000
# 6 0.000000 0.000000 0.000000 0.000000 0.000000 0.096605
#
#
# Mechanical properties :
#
#
# Convention : Reuss Voigt Hill
#
# Bulk Modulus (GPa) = 29.28480 32.98956 31.13718
# Shear Modulus (GPa) = 20.91920 26.57014 23.74467
#
# Velocity S-wave (km/s) = 2.91236 3.28223 3.10281
# Velocity P-wave (km/s) = 4.81485 5.26687 5.04592
#
# Compressibility (1/GPa) = 0.03414741
#
# Stress axis : x y z
#
# Youngs Moduli (GPa) = 96.47269 88.99667 49.31232
#
# Poissons Ratio (x) = 0.15102 0.06272
# Poissons Ratio (y) = 0.16371 0.04428
# Poissons Ratio (z) = 0.12269 0.07992
#
# Static dielectric constant tensor:
#      x y z
#    x 1.926000 0.000000 0.000000 
#    y 0.000000 2.001630 0.000000 
#    z 0.000000 0.000000 2.039010 
# 
# From -- ./inp_files/10139.got.cif
#   From: 2010.05.17/outbox.cif.g08.bks.cpg/sg61_6_cif.got.tgz:10139.got - 2010.06.03 15:17:17.
