data_PCOD9460988
_publ_section_title
;
Structure prediction by ZEFSAII (Michael W. Deem and Ramdas Pophale) SiO2 
 PCOD9460988
Probable space group: P B C A
;
_chemical_formula_sum "Si O2"
_cell_formula_units_Z 64
_cell_length_a 12.931094
_cell_length_b 26.625621
_cell_length_c 9.460759
_cell_angle_alpha 90.000000
_cell_angle_beta 90.000000
_cell_angle_gamma 90.000000
_cell_volume 3257.324262
_symmetry_space_group_name_H-M "P B C A"
_symmetry_group_IT_number 61
_symmetry_cell_setting 'orthorhombic'
loop_
_space_group_symop_operation_xyz
x,y,z
1/2-x,-y,1/2+z
1/2+x,1/2-y,-z
-x,1/2+y,1/2-z
-x,-y,-z
1/2+x,y,1/2-z
1/2-x,1/2+y,z
x,1/2-y,1/2+z
loop_
_atom_site_type_symbol
_atom_site_label
_atom_site_fract_x
_atom_site_fract_y
_atom_site_fract_z
Si Si1 0.065170 0.168551 0.098234
Si Si2 0.267411 0.484316 0.636233
Si Si3 0.333120 0.858791 0.306685
Si Si4 0.176713 0.810282 0.901370
Si Si5 0.776522 0.754789 0.338151
Si Si6 0.935221 0.560891 0.899357
Si Si7 0.675949 0.557268 0.654963
Si Si8 0.324513 0.898864 0.828067
O O1 0.125821 0.221220 0.115837
O O2 0.099894 0.133450 0.228323
O O3 0.943265 0.176695 0.093084
O O4 0.106937 0.144273 0.954134
O O5 0.379562 0.510187 0.655081
O O6 0.259982 0.469929 0.471405
O O7 0.191445 0.526918 0.699233
O O8 0.242605 0.435681 0.729359
O O9 0.314434 0.803296 0.247996
O O10 0.396643 0.893159 0.197670
O O11 0.224573 0.887694 0.328272
O O12 0.205784 0.780855 0.758402
O O13 0.246995 0.860229 0.904319
O O14 0.212605 0.774993 0.029201
O O15 0.057684 0.557953 0.891467
O O16 0.890059 0.571157 0.055458
#
# Coordination Sequence:
#
# PCOD9460988 Si02
#       8
#     8   8   8   8   8   8   8   8
#     4  11  26  42  67  97 129 176 216 269 332 388
#     4  11  23  43  65  96 132 167 218 268 313 395
#     4  11  24  45  64  98 131 163 225 274 315 401
#     4  11  26  42  69  95 133 175 215 273 328 383
#     4  11  24  46  63  97 135 167 222 271 322 395
#     4  11  25  42  71  95 129 178 214 264 344 383
#     4  11  25  44  69  95 130 177 215 275 327 384
#     4  11  24  44  64  99 137 164 222 272 318 397
#
# _framework density 19.648026999999999
#
# number of rings (size 3 to 8) (size 9 to 14) (size 15 to 20)
#    0.000    1.000    5.000    0.375    5.250    0.000 
#    0.000    1.250    0.000    0.000    0.000    0.000 
#    0.000    0.000    0.000    0.000    0.000    0.000 
#
# Total GULP energy -357771.299719 kJ/mol
# GULP energy per Si atom -5590.176558 kJ/mol
# Density = 1.960331 g / cm^3
# Si number density = 19.648027 Si / 1000 Ang^3
#
#
#
# Elastic Constant Matrix: (Units=GPa)
#
#
# Indices 1 2 3 4 5 6 
#
# 1 133.0107 35.8429 50.4976 0.0000 0.0000 0.0000
# 2 35.8429 72.4862 14.9864 0.0000 0.0000 0.0000
# 3 50.4976 14.9864 76.0763 0.0000 0.0000 0.0000
# 4 0.0000 0.0000 0.0000 44.2090 0.0000 0.0000
# 5 0.0000 0.0000 0.0000 0.0000 17.7201 0.0000
# 6 0.0000 0.0000 0.0000 0.0000 0.0000 14.5070
#
#
#
# Elastic Compliance Matrix: (Units=1/GPa)
#
#
# Indices 1 2 3 4 5 6 
#
# 1 0.011130 -0.004145 -0.006571 0.000000 0.000000 0.000000
# 2 -0.004145 0.015925 -0.000386 0.000000 0.000000 0.000000
# 3 -0.006571 -0.000386 0.017583 0.000000 0.000000 0.000000
# 4 0.000000 0.000000 0.000000 0.022620 0.000000 0.000000
# 5 0.000000 0.000000 0.000000 0.000000 0.056433 0.000000
# 6 0.000000 0.000000 0.000000 0.000000 0.000000 0.068932
#
#
# Mechanical properties :
#
#
# Convention : Reuss Voigt Hill
#
# Bulk Modulus (GPa) = 44.57607 53.80299 49.18953
# Shear Modulus (GPa) = 22.49164 27.30362 24.89763
#
# Velocity S-wave (km/s) = 3.38705 3.73183 3.56361
# Velocity P-wave (km/s) = 6.16707 6.78318 6.48245
#
# Compressibility (1/GPa) = 0.02243356
#
# Stress axis : x y z
#
# Youngs Moduli (GPa) = 89.84792 62.79409 56.87456
#
# Poissons Ratio (x) = 0.26028 0.37374
# Poissons Ratio (y) = 0.37241 0.02194
# Poissons Ratio (z) = 0.59041 0.02423
#
# Static dielectric constant tensor:
#      x y z
#    x 1.639070 0.000000 0.000000 
#    y 0.000000 1.690210 0.000000 
#    z 0.000000 0.000000 1.691740 
# 
# From -- ./inp_files/2438.got.cif
#   From: 2010.05.17/outbox.cif.g08.bks.cpg/sg61_2_cif.got.tgz:2438.got - 2010.06.03 15:17:17.
