data_PCOD9460217
_publ_section_title
;
Structure prediction by ZEFSAII (Michael W. Deem and Ramdas Pophale) SiO2 
 PCOD9460217
Probable space group: P B C A
;
_chemical_formula_sum "Si O2"
_cell_formula_units_Z 56
_cell_length_a 9.528595
_cell_length_b 14.287255
_cell_length_c 16.411231
_cell_angle_alpha 90.000000
_cell_angle_beta 90.000000
_cell_angle_gamma 90.000000
_cell_volume 2234.183411
_symmetry_space_group_name_H-M "P B C A"
_symmetry_group_IT_number 61
_symmetry_cell_setting 'orthorhombic'
loop_
_space_group_symop_operation_xyz
x,y,z
1/2-x,-y,1/2+z
1/2+x,1/2-y,-z
-x,1/2+y,1/2-z
-x,-y,-z
1/2+x,y,1/2-z
1/2-x,1/2+y,z
x,1/2-y,1/2+z
loop_
_atom_site_type_symbol
_atom_site_label
_atom_site_fract_x
_atom_site_fract_y
_atom_site_fract_z
Si Si1 0.258953 0.756699 0.178774
Si Si2 0.820331 0.948516 0.652139
Si Si3 0.714002 0.222292 0.646047
Si Si4 0.637257 0.557078 0.303262
Si Si5 0.213395 0.032985 0.526870
Si Si6 0.998894 0.799260 0.429068
Si Si7 0.050936 0.657409 0.563154
O O1 0.328645 0.793238 0.260700
O O2 0.168463 0.667099 0.200949
O O3 0.381524 0.734783 0.114603
O O4 0.150967 0.829408 0.140857
O O5 0.799769 0.835860 0.632754
O O6 0.708749 0.979813 0.720401
O O7 0.818698 0.999425 0.564752
O O8 0.972500 0.960167 0.692276
O O9 0.873379 0.190655 0.633071
O O10 0.609178 0.165339 0.588513
O O11 0.699905 0.527491 0.391306
O O12 0.372533 0.071800 0.520250
O O13 0.094949 0.113277 0.543381
O O14 0.068770 0.748245 0.505750
#
# Coordination Sequence:
#
# PCOD9460217 Si02
#       7
#     8   8   8   8   8   8   8
#     4  10  22  38  66  92 131 180 227 273 348 411
#     4  11  23  44  72  96 136 187 236 278 348 424
#     4  11  20  37  68  99 131 172 229 286 337 418
#     4  11  25  45  69  97 139 189 233 279 347 435
#     4  11  24  45  70 100 146 180 234 290 359 411
#     4  11  21  39  68  99 132 170 228 291 348 406
#     4  11  20  40  66 103 129 169 230 289 340 410
#
# _framework density 25.065086000000001
#
# number of rings (size 3 to 8) (size 9 to 14) (size 15 to 20)
#    0.000    1.143    4.286    2.143    6.000    0.000 
#   10.286    2.857    0.000    0.000    0.000    0.000 
#    0.000    0.000    0.000    0.000    0.000    0.000 
#
# Total GULP energy -313232.866413 kJ/mol
# GULP energy per Si atom -5593.444043 kJ/mol
# Density = 2.500804 g / cm^3
# Si number density = 25.065086 Si / 1000 Ang^3
#
#
#
# Elastic Constant Matrix: (Units=GPa)
#
#
# Indices 1 2 3 4 5 6 
#
# 1 129.4734 25.3277 39.5290 0.0000 0.0000 0.0000
# 2 25.3277 51.5232 10.9304 0.0000 0.0000 0.0000
# 3 39.5290 10.9304 134.7668 0.0000 0.0000 0.0000
# 4 0.0000 0.0000 0.0000 20.7945 0.0000 0.0000
# 5 0.0000 0.0000 0.0000 0.0000 45.0501 0.0000
# 6 0.0000 0.0000 0.0000 0.0000 0.0000 32.5657
#
#
#
# Elastic Compliance Matrix: (Units=1/GPa)
#
#
# Indices 1 2 3 4 5 6 
#
# 1 0.009241 -0.004037 -0.002383 0.000000 0.000000 0.000000
# 2 -0.004037 0.021512 -0.000561 0.000000 0.000000 0.000000
# 3 -0.002383 -0.000561 0.008165 0.000000 0.000000 0.000000
# 4 0.000000 0.000000 0.000000 0.048090 0.000000 0.000000
# 5 0.000000 0.000000 0.000000 0.000000 0.022198 0.000000
# 6 0.000000 0.000000 0.000000 0.000000 0.000000 0.030707
#
#
# Mechanical properties :
#
#
# Convention : Reuss Voigt Hill
#
# Bulk Modulus (GPa) = 40.07012 51.92641 45.99826
# Shear Modulus (GPa) = 30.82758 35.68047 33.25403
#
# Velocity S-wave (km/s) = 3.51080 3.77704 3.64635
# Velocity P-wave (km/s) = 5.69697 6.30737 6.00992
#
# Compressibility (1/GPa) = 0.02495625
#
# Stress axis : x y z
#
# Youngs Moduli (GPa) = 108.21472 46.48519 122.47880
#
# Poissons Ratio (x) = 0.18766 0.29187
# Poissons Ratio (y) = 0.43687 0.06867
# Poissons Ratio (z) = 0.25788 0.02606
#
# Static dielectric constant tensor:
#      x y z
#    x 1.905610 0.000000 0.000000 
#    y 0.000000 2.034390 0.000000 
#    z 0.000000 0.000000 1.995470 
# 
# From -- ./inp_files/7159.got.cif
#   From: 2010.05.17/outbox.cif.g08.bks.cpg/sg61_4_cif.got.tgz:7159.got - 2010.06.03 15:17:17.
