data_PCOD9460881
_publ_section_title
;
Structure prediction by ZEFSAII (Michael W. Deem and Ramdas Pophale) SiO2 
 PCOD9460881
Probable space group: P B C A
;
_chemical_formula_sum "Si O2"
_cell_formula_units_Z 48
_cell_length_a 15.002179
_cell_length_b 14.438961
_cell_length_c 10.832394
_cell_angle_alpha 90.000000
_cell_angle_beta 90.000000
_cell_angle_gamma 90.000000
_cell_volume 2346.468532
_symmetry_space_group_name_H-M "P B C A"
_symmetry_group_IT_number 61
_symmetry_cell_setting 'orthorhombic'
loop_
_space_group_symop_operation_xyz
x,y,z
1/2-x,-y,1/2+z
1/2+x,1/2-y,-z
-x,1/2+y,1/2-z
-x,-y,-z
1/2+x,y,1/2-z
1/2-x,1/2+y,z
x,1/2-y,1/2+z
loop_
_atom_site_type_symbol
_atom_site_label
_atom_site_fract_x
_atom_site_fract_y
_atom_site_fract_z
Si Si1 0.698315 0.667689 0.858562
Si Si2 0.968230 0.471441 0.363838
Si Si3 0.108368 0.355028 0.203375
Si Si4 0.978377 0.392001 0.998727
Si Si5 0.143459 0.746570 0.890376
Si Si6 0.977867 0.833555 0.765609
O O1 0.612529 0.601043 0.862167
O O2 0.790198 0.618236 0.820621
O O3 0.686726 0.738564 0.744068
O O4 0.699151 0.714237 0.994543
O O5 0.938105 0.567520 0.301191
O O6 0.000000 0.500000 0.500000
O O7 0.050208 0.424844 0.287581
O O8 0.062683 0.351151 0.069832
O O9 0.091007 0.250616 0.251299
O O10 0.892069 0.356077 0.072277
O O11 0.972893 0.350104 0.863597
O O12 0.000000 0.500000 0.000000
O O13 0.053106 0.805633 0.866201
#
# Coordination Sequence:
#
# PCOD9460881 Si02
#       6
#     8   8   8   8   8   8
#     4  12  25  46  68 105 142 182 241 297 350 429
#     4  12  24  47  70  98 143 192 235 293 360 430
#     4  11  27  44  69 104 138 179 241 291 352 430
#     4  11  20  42  69  94 132 178 229 283 346 414
#     4  11  22  42  70  93 137 184 223 288 356 414
#     4  11  22  43  71  95 136 185 227 283 361 419
#
# _framework density 20.456271999999998
#
# number of rings (size 3 to 8) (size 9 to 14) (size 15 to 20)
#    0.000    0.667    8.333    0.000    4.667    0.000 
#   12.000    0.000    0.000    0.000    0.000    0.000 
#    0.000    0.000    0.000    0.000    0.000    0.000 
#
# Total GULP energy -267666.922540 kJ/mol
# GULP energy per Si atom -5576.394220 kJ/mol
# Density = 2.040971 g / cm^3
# Si number density = 20.456272 Si / 1000 Ang^3
#
#
#
# Elastic Constant Matrix: (Units=GPa)
#
#
# Indices 1 2 3 4 5 6 
#
# 1 95.7127 16.5954 25.9963 0.0000 0.0000 0.0000
# 2 16.5954 86.9458 35.7632 0.0000 0.0000 0.0000
# 3 25.9963 35.7632 126.6349 0.0000 0.0000 0.0000
# 4 0.0000 0.0000 0.0000 34.6475 0.0000 0.0000
# 5 0.0000 0.0000 0.0000 0.0000 17.3191 0.0000
# 6 0.0000 0.0000 0.0000 0.0000 0.0000 6.5570
#
#
#
# Elastic Compliance Matrix: (Units=1/GPa)
#
#
# Indices 1 2 3 4 5 6 
#
# 1 0.011203 -0.001349 -0.001919 0.000000 0.000000 0.000000
# 2 -0.001349 0.013176 -0.003444 0.000000 0.000000 0.000000
# 3 -0.001919 -0.003444 0.009263 0.000000 0.000000 0.000000
# 4 0.000000 0.000000 0.000000 0.028862 0.000000 0.000000
# 5 0.000000 0.000000 0.000000 0.000000 0.057740 0.000000
# 6 0.000000 0.000000 0.000000 0.000000 0.000000 0.152508
#
#
# Mechanical properties :
#
#
# Convention : Reuss Voigt Hill
#
# Bulk Modulus (GPa) = 49.46076 51.77813 50.61945
# Shear Modulus (GPa) = 17.06983 27.10063 22.08523
#
# Velocity S-wave (km/s) = 2.89183 3.64374 3.28934
# Velocity P-wave (km/s) = 5.94823 6.56270 6.26301
#
# Compressibility (1/GPa) = 0.02021805
#
# Stress axis : x y z
#
# Youngs Moduli (GPa) = 89.26174 75.89829 107.95349
#
# Poissons Ratio (x) = 0.10239 0.20714
# Poissons Ratio (y) = 0.12042 0.37179
# Poissons Ratio (z) = 0.17128 0.26139
#
# Static dielectric constant tensor:
#      x y z
#    x 1.766380 0.000000 0.000000 
#    y 0.000000 1.833410 0.000000 
#    z 0.000000 0.000000 1.777340 
# 
# From -- ./inp_files/5744.got.cif
#   From: 2010.05.17/outbox.cif.g08.bks.cpg/sg61_3_cif.got.tgz:5744.got - 2010.06.03 15:17:17.
