data_PCOD9460583
_publ_section_title
;
Structure prediction by ZEFSAII (Michael W. Deem and Ramdas Pophale) SiO2 
 PCOD9460583
Probable space group: P B C A
;
_chemical_formula_sum "Si O2"
_cell_formula_units_Z 64
_cell_length_a 9.333339
_cell_length_b 27.964969
_cell_length_c 8.965655
_cell_angle_alpha 90.000000
_cell_angle_beta 90.000000
_cell_angle_gamma 90.000000
_cell_volume 2340.094553
_symmetry_space_group_name_H-M "P B C A"
_symmetry_group_IT_number 61
_symmetry_cell_setting 'orthorhombic'
loop_
_space_group_symop_operation_xyz
x,y,z
1/2-x,-y,1/2+z
1/2+x,1/2-y,-z
-x,1/2+y,1/2-z
-x,-y,-z
1/2+x,y,1/2-z
1/2-x,1/2+y,z
x,1/2-y,1/2+z
loop_
_atom_site_type_symbol
_atom_site_label
_atom_site_fract_x
_atom_site_fract_y
_atom_site_fract_z
Si Si1 0.253463 0.313071 0.330856
Si Si2 0.294677 0.744703 0.099507
Si Si3 0.822918 0.462227 0.015313
Si Si4 0.387621 0.090609 0.417543
Si Si5 0.916425 0.904884 0.174455
Si Si6 0.960581 0.186257 0.246330
Si Si7 0.140430 0.465163 0.756447
Si Si8 0.497580 0.870137 0.024174
O O1 0.217856 0.265633 0.425115
O O2 0.232838 0.297669 0.160477
O O3 0.145779 0.354181 0.383864
O O4 0.407098 0.334135 0.373007
O O5 0.169110 0.712040 0.169294
O O6 0.444726 0.724194 0.157545
O O7 0.689271 0.445278 0.117031
O O8 0.912569 0.494905 0.128282
O O9 0.899936 0.413187 0.967162
O O10 0.747957 0.484319 0.871067
O O11 0.431634 0.087728 0.592349
O O12 0.404622 0.144697 0.361103
O O13 0.513954 0.060866 0.332564
O O14 0.237840 0.069357 0.360414
O O15 0.908138 0.897498 0.350749
O O16 0.047899 0.159756 0.380350
#
# Coordination Sequence:
#
# PCOD9460583 Si02
#       8
#     8   8   8   8   8   8   8   8
#     4  10  24  43  62  99 133 170 216 283 323 392
#     4  11  25  41  70  96 134 170 225 271 330 387
#     4  10  24  43  63  99 135 171 219 284 329 398
#     4  11  23  45  69  94 134 180 220 271 336 402
#     4  10  23  43  67  90 138 174 223 267 342 394
#     4  11  23  45  68  95 132 179 218 270 330 401
#     4  11  25  41  70  98 134 172 227 276 334 395
#     4  10  23  44  65  92 138 173 222 271 335 392
#
# _framework density 27.349322000000001
#
# number of rings (size 3 to 8) (size 9 to 14) (size 15 to 20)
#    0.000    1.500    2.500    0.750    7.000    4.500 
#    4.500    0.000    0.000    0.000    0.000    0.000 
#    0.000    0.000    0.000    0.000    0.000    0.000 
#
# Total GULP energy -358850.260648 kJ/mol
# GULP energy per Si atom -5607.035323 kJ/mol
# Density = 2.728707 g / cm^3
# Si number density = 27.349322 Si / 1000 Ang^3
#
#
#
# Elastic Constant Matrix: (Units=GPa)
#
#
# Indices 1 2 3 4 5 6 
#
# 1 76.0848 12.1491 1.9994 0.0000 0.0000 0.0000
# 2 12.1491 92.9868 24.8633 0.0000 0.0000 0.0000
# 3 1.9994 24.8633 111.6809 0.0000 0.0000 0.0000
# 4 0.0000 0.0000 0.0000 52.5619 0.0000 0.0000
# 5 0.0000 0.0000 0.0000 0.0000 41.0347 0.0000
# 6 0.0000 0.0000 0.0000 0.0000 0.0000 30.9096
#
#
#
# Elastic Compliance Matrix: (Units=1/GPa)
#
#
# Indices 1 2 3 4 5 6 
#
# 1 0.013426 -0.001797 0.000160 0.000000 0.000000 0.000000
# 2 -0.001797 0.011675 -0.002567 0.000000 0.000000 0.000000
# 3 0.000160 -0.002567 0.009523 0.000000 0.000000 0.000000
# 4 0.000000 0.000000 0.000000 0.019025 0.000000 0.000000
# 5 0.000000 0.000000 0.000000 0.000000 0.024370 0.000000
# 6 0.000000 0.000000 0.000000 0.000000 0.000000 0.032352
#
#
# Mechanical properties :
#
#
# Convention : Reuss Voigt Hill
#
# Bulk Modulus (GPa) = 38.14537 39.86402 39.00470
# Shear Modulus (GPa) = 39.21004 41.01729 40.11366
#
# Velocity S-wave (km/s) = 3.79050 3.87687 3.83393
# Velocity P-wave (km/s) = 5.75629 5.88623 5.82162
#
# Compressibility (1/GPa) = 0.02621550
#
# Stress axis : x y z
#
# Youngs Moduli (GPa) = 74.48260 85.65029 105.01191
#
# Poissons Ratio (x) = 0.15390 -0.01677
# Poissons Ratio (y) = 0.13383 0.26958
# Poissons Ratio (z) = -0.01189 0.21987
#
# Static dielectric constant tensor:
#      x y z
#    x 2.153540 0.000000 0.000000 
#    y 0.000000 2.130290 0.000000 
#    z 0.000000 0.000000 2.098860 
# 
# From -- ./inp_files/2430.got.cif
#   From: 2010.05.17/outbox.cif.g08.bks.cpg/sg61_2_cif.got.tgz:2430.got - 2010.06.03 15:17:17.
