data_PCOD9460749
_publ_section_title
;
Structure prediction by ZEFSAII (Michael W. Deem and Ramdas Pophale) SiO2 
 PCOD9460749
Probable space group: P B C A
;
_chemical_formula_sum "Si O2"
_cell_formula_units_Z 40
_cell_length_a 20.479779
_cell_length_b 9.111437
_cell_length_c 8.839559
_cell_angle_alpha 90.000000
_cell_angle_beta 90.000000
_cell_angle_gamma 90.000000
_cell_volume 1649.463620
_symmetry_space_group_name_H-M "P B C A"
_symmetry_group_IT_number 61
_symmetry_cell_setting 'orthorhombic'
loop_
_space_group_symop_operation_xyz
x,y,z
1/2-x,-y,1/2+z
1/2+x,1/2-y,-z
-x,1/2+y,1/2-z
-x,-y,-z
1/2+x,y,1/2-z
1/2-x,1/2+y,z
x,1/2-y,1/2+z
loop_
_atom_site_type_symbol
_atom_site_label
_atom_site_fract_x
_atom_site_fract_y
_atom_site_fract_z
Si Si1 0.501513 0.159310 0.069010
Si Si2 0.627215 0.357581 0.024681
Si Si3 0.304517 0.041680 0.698397
Si Si4 0.262759 0.298048 0.889580
Si Si5 0.953312 0.399745 0.604177
O O1 0.570046 0.237689 0.030060
O O2 0.488580 0.150203 0.245532
O O3 0.443714 0.256829 0.996635
O O4 0.500000 0.000000 0.000000
O O5 0.694633 0.285116 0.073714
O O6 0.606362 0.491674 0.135054
O O7 0.636273 0.439234 0.862087
O O8 0.310241 0.172644 0.820681
O O9 0.282310 0.123306 0.545181
O O10 0.253825 0.923674 0.766698
O O11 0.000000 0.500000 0.500000
#
# Coordination Sequence:
#
# PCOD9460749 Si02
#       5
#     8   8   8   8   8
#     4  11  24  46  72 105 145 184 248 307 355 443
#     4  11  26  45  76 100 150 195 236 298 385 409
#     4  12  25  47  73 108 150 191 251 299 361 443
#     4  12  25  48  73 109 151 192 248 306 355 452
#     4  10  24  44  69 106 141 185 247 296 362 440
#
# _framework density 24.250308
#
# number of rings (size 3 to 8) (size 9 to 14) (size 15 to 20)
#    0.000    0.800    4.000    2.400    8.400    1.600 
#    7.200    0.000    0.000    0.000    0.000    0.000 
#    0.000    0.000    0.000    0.000    0.000    0.000 
#
# Total GULP energy -223757.989092 kJ/mol
# GULP energy per Si atom -5593.949727 kJ/mol
# Density = 2.419511 g / cm^3
# Si number density = 24.250308 Si / 1000 Ang^3
#
#
#
# Elastic Constant Matrix: (Units=GPa)
#
#
# Indices 1 2 3 4 5 6 
#
# 1 108.2179 48.3251 43.6769 0.0000 0.0000 0.0000
# 2 48.3251 181.5624 68.6987 0.0000 0.0000 0.0000
# 3 43.6769 68.6987 144.5446 0.0000 0.0000 0.0000
# 4 0.0000 0.0000 0.0000 50.6400 0.0000 0.0000
# 5 0.0000 0.0000 0.0000 0.0000 34.0732 0.0000
# 6 0.0000 0.0000 0.0000 0.0000 0.0000 53.4431
#
#
#
# Elastic Compliance Matrix: (Units=1/GPa)
#
#
# Indices 1 2 3 4 5 6 
#
# 1 0.011121 -0.002059 -0.002382 0.000000 0.000000 0.000000
# 2 -0.002059 0.007097 -0.002751 0.000000 0.000000 0.000000
# 3 -0.002382 -0.002751 0.008945 0.000000 0.000000 0.000000
# 4 0.000000 0.000000 0.000000 0.019747 0.000000 0.000000
# 5 0.000000 0.000000 0.000000 0.000000 0.029349 0.000000
# 6 0.000000 0.000000 0.000000 0.000000 0.000000 0.018711
#
#
# Mechanical properties :
#
#
# Convention : Reuss Voigt Hill
#
# Bulk Modulus (GPa) = 78.24588 83.96958 81.10773
# Shear Modulus (GPa) = 44.00875 45.87286 44.94080
#
# Velocity S-wave (km/s) = 4.26463 4.35402 4.30956
# Velocity P-wave (km/s) = 7.52233 7.74455 7.63425
#
# Compressibility (1/GPa) = 0.01278023
#
# Stress axis : x y z
#
# Youngs Moduli (GPa) = 89.91702 140.91407 111.78921
#
# Poissons Ratio (x) = 0.29011 0.26629
# Poissons Ratio (y) = 0.18512 0.30750
# Poissons Ratio (z) = 0.21419 0.38761
#
# Static dielectric constant tensor:
#      x y z
#    x 2.023340 0.000000 0.000000 
#    y 0.000000 1.963630 0.000000 
#    z 0.000000 0.000000 1.949790 
# 
# From -- ./inp_files/1812.got.cif
#   From: 2010.05.17/outbox.cif.g08.bks.cpg/sg61_1_cif.got.tgz:1812.got - 2010.06.03 15:17:17.
