data_PCOD9460585
_publ_section_title
;
Structure prediction by ZEFSAII (Michael W. Deem and Ramdas Pophale) SiO2 
 PCOD9460585
Probable space group: P B C A
;
_chemical_formula_sum "Si O2"
_cell_formula_units_Z 40
_cell_length_a 15.158723
_cell_length_b 10.955447
_cell_length_c 9.455711
_cell_angle_alpha 90.000000
_cell_angle_beta 90.000000
_cell_angle_gamma 90.000000
_cell_volume 1570.315471
_symmetry_space_group_name_H-M "P B C A"
_symmetry_group_IT_number 61
_symmetry_cell_setting 'orthorhombic'
loop_
_space_group_symop_operation_xyz
x,y,z
1/2-x,-y,1/2+z
1/2+x,1/2-y,-z
-x,1/2+y,1/2-z
-x,-y,-z
1/2+x,y,1/2-z
1/2-x,1/2+y,z
x,1/2-y,1/2+z
loop_
_atom_site_type_symbol
_atom_site_label
_atom_site_fract_x
_atom_site_fract_y
_atom_site_fract_z
Si Si1 0.475925 0.501865 0.335785
Si Si2 0.656695 0.701171 0.614483
Si Si3 0.588910 0.527974 0.081909
Si Si4 0.239782 0.520842 0.085286
Si Si5 0.811401 0.857555 0.653694
O O1 0.500000 0.500000 0.500000
O O2 0.410429 0.387711 0.304199
O O3 0.562853 0.493109 0.241602
O O4 0.414248 0.622702 0.311869
O O5 0.610403 0.828787 0.584004
O O6 0.678371 0.629569 0.470606
O O7 0.752341 0.738390 0.679185
O O8 0.666367 0.463868 0.995138
O O9 0.500000 0.500000 0.000000
O O10 0.201793 0.399436 0.009704
O O11 0.260830 0.541479 0.248677
#
# Coordination Sequence:
#
# PCOD9460585 Si02
#       5
#     8   8   8   8   8
#     4  11  26  47  69 107 143 182 241 298 353 430
#     4  10  26  42  73  95 144 190 234 283 368 410
#     4  11  24  45  69 105 142 176 238 297 352 421
#     4  10  23  43  68 100 136 183 235 286 351 435
#     4  10  23  44  69  99 137 182 234 285 352 433
#
# _framework density 25.47259
#
# number of rings (size 3 to 8) (size 9 to 14) (size 15 to 20)
#    0.000    1.600    2.000    0.000   14.000    4.800 
#    0.000    0.000    0.000    0.000    0.000    0.000 
#    0.000    0.000    0.000    0.000    0.000    0.000 
#
# Total GULP energy -223498.665297 kJ/mol
# GULP energy per Si atom -5587.466632 kJ/mol
# Density = 2.541461 g / cm^3
# Si number density = 25.472590 Si / 1000 Ang^3
#
#
#
# Elastic Constant Matrix: (Units=GPa)
#
#
# Indices 1 2 3 4 5 6 
#
# 1 101.1587 29.7452 -8.9930 0.0000 0.0000 0.0000
# 2 29.7452 101.7998 3.0354 0.0000 0.0000 0.0000
# 3 -8.9930 3.0354 100.7469 0.0000 0.0000 0.0000
# 4 0.0000 0.0000 0.0000 22.7055 0.0000 0.0000
# 5 0.0000 0.0000 0.0000 0.0000 48.8802 0.0000
# 6 0.0000 0.0000 0.0000 0.0000 0.0000 45.4363
#
#
#
# Elastic Compliance Matrix: (Units=1/GPa)
#
#
# Indices 1 2 3 4 5 6 
#
# 1 0.010929 -0.003225 0.001073 0.000000 0.000000 0.000000
# 2 -0.003225 0.010784 -0.000613 0.000000 0.000000 0.000000
# 3 0.001073 -0.000613 0.010040 0.000000 0.000000 0.000000
# 4 0.000000 0.000000 0.000000 0.044042 0.000000 0.000000
# 5 0.000000 0.000000 0.000000 0.000000 0.020458 0.000000
# 6 0.000000 0.000000 0.000000 0.000000 0.000000 0.022009
#
#
# Mechanical properties :
#
#
# Convention : Reuss Voigt Hill
#
# Bulk Modulus (GPa) = 38.13551 39.03115 38.58333
# Shear Modulus (GPa) = 37.72608 42.06557 39.89582
#
# Velocity S-wave (km/s) = 3.85261 4.06816 3.96185
# Velocity P-wave (km/s) = 5.89863 6.11740 6.00901
#
# Compressibility (1/GPa) = 0.02622228
#
# Stress axis : x y z
#
# Youngs Moduli (GPa) = 91.49756 92.73061 99.60072
#
# Poissons Ratio (x) = 0.29910 -0.10685
# Poissons Ratio (y) = 0.29512 0.06104
# Poissons Ratio (z) = -0.09816 0.05683
#
# Static dielectric constant tensor:
#      x y z
#    x 2.055440 0.000000 0.000000 
#    y 0.000000 2.023450 0.000000 
#    z 0.000000 0.000000 2.051160 
# 
# From -- ./inp_files/3303.got.cif
#   From: 2010.05.17/outbox.cif.g08.bks.cpg/sg61_2_cif.got.tgz:3303.got - 2010.06.03 15:17:17.
