data_PCOD9460295
_publ_section_title
;
Structure prediction by ZEFSAII (Michael W. Deem and Ramdas Pophale) SiO2 
 PCOD9460295
Probable space group: P B C A
;
_chemical_formula_sum "Si O2"
_cell_formula_units_Z 48
_cell_length_a 10.817039
_cell_length_b 8.992129
_cell_length_c 22.812520
_cell_angle_alpha 90.000000
_cell_angle_beta 90.000000
_cell_angle_gamma 90.000000
_cell_volume 2218.932988
_symmetry_space_group_name_H-M "P B C A"
_symmetry_group_IT_number 61
_symmetry_cell_setting 'orthorhombic'
loop_
_space_group_symop_operation_xyz
x,y,z
1/2-x,-y,1/2+z
1/2+x,1/2-y,-z
-x,1/2+y,1/2-z
-x,-y,-z
1/2+x,y,1/2-z
1/2-x,1/2+y,z
x,1/2-y,1/2+z
loop_
_atom_site_type_symbol
_atom_site_label
_atom_site_fract_x
_atom_site_fract_y
_atom_site_fract_z
Si Si1 0.280178 0.492208 0.165578
Si Si2 0.573006 0.802237 0.848046
Si Si3 0.168376 0.671981 0.863969
Si Si4 0.835627 0.874697 0.708168
Si Si5 0.036858 0.355449 0.575419
Si Si6 0.405035 0.667189 0.945437
O O1 0.138258 0.538422 0.156577
O O2 0.321171 0.321357 0.161826
O O3 0.319868 0.555601 0.228511
O O4 0.356121 0.576209 0.115119
O O5 0.464307 0.787047 0.799925
O O6 0.504393 0.764103 0.908890
O O7 0.159336 0.506134 0.839737
O O8 0.221952 0.771016 0.810578
O O9 0.042567 0.736437 0.889242
O O10 0.272822 0.683961 0.914560
O O11 0.945948 0.495069 0.561983
O O12 0.089435 0.296661 0.513932
#
# Coordination Sequence:
#
# PCOD9460295 Si02
#       6
#     8   8   8   8   8   8
#     4  11  25  41  66  93 134 173 218 274 330 390
#     4  10  25  43  62  99 127 170 221 270 331 389
#     4  11  22  43  66  99 126 179 215 270 336 384
#     4  11  25  41  67  93 136 171 225 264 328 404
#     4  10  22  40  68  92 128 174 211 275 331 383
#     4   9  21  44  64  95 130 163 223 272 323 401
#
# _framework density 21.632019
#
# number of rings (size 3 to 8) (size 9 to 14) (size 15 to 20)
#    0.000    1.667    1.667    1.000    9.333    0.000 
#    0.000    3.333    0.000    0.000    0.000    0.000 
#    0.000    0.000    0.000    0.000    0.000    0.000 
#
# Total GULP energy -268477.208576 kJ/mol
# GULP energy per Si atom -5593.275179 kJ/mol
# Density = 2.158278 g / cm^3
# Si number density = 21.632019 Si / 1000 Ang^3
#
#
#
# Elastic Constant Matrix: (Units=GPa)
#
#
# Indices 1 2 3 4 5 6 
#
# 1 43.3056 11.0686 23.6264 0.0000 0.0000 0.0000
# 2 11.0686 68.4781 19.6466 0.0000 0.0000 0.0000
# 3 23.6264 19.6466 71.7389 0.0000 0.0000 0.0000
# 4 0.0000 0.0000 0.0000 -10.5053 0.0000 0.0000
# 5 0.0000 0.0000 0.0000 0.0000 12.5117 0.0000
# 6 0.0000 0.0000 0.0000 0.0000 0.0000 38.2527
#
#
#
# Elastic Compliance Matrix: (Units=1/GPa)
#
#
# Indices 1 2 3 4 5 6 
#
# 1 0.028418 -0.002071 -0.008792 0.000000 0.000000 0.000000
# 2 -0.002071 0.015999 -0.003700 0.000000 0.000000 0.000000
# 3 -0.008792 -0.003700 0.017848 0.000000 0.000000 0.000000
# 4 0.000000 0.000000 0.000000 -0.095190 0.000000 0.000000
# 5 0.000000 0.000000 0.000000 0.000000 0.079925 0.000000
# 6 0.000000 0.000000 0.000000 0.000000 0.000000 0.026142
#
#
# Mechanical properties :
#
#
# Convention : Reuss Voigt Hill
#
# Bulk Modulus (GPa) = 30.17470 32.46731 31.32101
# Shear Modulus (GPa) = 44.12510 16.66387 30.39448
#
# Velocity S-wave (km/s) = 4.52132 2.77850 3.75249
# Velocity P-wave (km/s) = 6.42151 5.03338 5.76935
#
# Compressibility (1/GPa) = 0.03314035
#
# Stress axis : x y z
#
# Youngs Moduli (GPa) = 35.18938 62.50250 56.02836
#
# Poissons Ratio (x) = 0.12944 0.49259
# Poissons Ratio (y) = 0.07288 0.20728
# Poissons Ratio (z) = 0.30938 0.23123
#
# Static dielectric constant tensor:
#      x y z
#    x 1.767560 0.000000 0.000000 
#    y 0.000000 1.792100 0.000000 
#    z 0.000000 0.000000 1.757560 
# 
# From -- ./inp_files/4852.got.cif
#   From: 2010.05.17/outbox.cif.g08.bks.cpg/sg61_3_cif.got.tgz:4852.got - 2010.06.03 15:17:17.
