data_PCOD9460851
_publ_section_title
;
Structure prediction by ZEFSAII (Michael W. Deem and Ramdas Pophale) SiO2 
 PCOD9460851
Probable space group: P B C A
;
_chemical_formula_sum "Si O2"
_cell_formula_units_Z 52
_cell_length_a 8.173536
_cell_length_b 16.201401
_cell_length_c 17.468826
_cell_angle_alpha 90.000000
_cell_angle_beta 90.000000
_cell_angle_gamma 90.000000
_cell_volume 2313.269704
_symmetry_space_group_name_H-M "P B C A"
_symmetry_group_IT_number 61
_symmetry_cell_setting 'orthorhombic'
loop_
_space_group_symop_operation_xyz
x,y,z
1/2-x,-y,1/2+z
1/2+x,1/2-y,-z
-x,1/2+y,1/2-z
-x,-y,-z
1/2+x,y,1/2-z
1/2-x,1/2+y,z
x,1/2-y,1/2+z
loop_
_atom_site_type_symbol
_atom_site_label
_atom_site_fract_x
_atom_site_fract_y
_atom_site_fract_z
Si Si1 0.187426 0.112573 0.686872
Si Si2 0.646315 0.295775 0.575507
Si Si3 0.636597 0.060907 0.339228
Si Si4 0.855578 0.311218 0.179281
Si Si5 0.500000 0.500000 0.000000
Si Si6 0.558464 0.847507 0.781432
Si Si7 0.885412 0.166034 0.949922
O O1 0.263643 0.022786 0.677242
O O2 0.215557 0.143974 0.772269
O O3 0.291501 0.171052 0.630280
O O4 0.999631 0.124066 0.665063
O O5 0.775886 0.228815 0.605570
O O6 0.576992 0.339696 0.651551
O O7 0.495978 0.246047 0.538732
O O8 0.746166 0.349103 0.514422
O O9 0.567660 0.054795 0.424702
O O10 0.770813 0.131913 0.322696
O O11 0.494498 0.080908 0.278058
O O12 0.926190 0.235328 0.230504
O O13 0.507045 0.583972 0.948933
#
# Coordination Sequence:
#
# PCOD9460851 Si02
#       7
#     8   8   8   8   4   8   8
#     4  11  22  42  64  98 136 178 228 285 359 421
#     4  12  25  42  72 101 136 187 236 299 355 427
#     4  11  25  44  70 103 145 190 239 296 359 438
#     4  12  21  42  69 100 135 175 236 294 350 426
#     4  10  26  48  70  98 150 192 226 298 368 418
#     4  12  23  42  71 106 137 185 244 296 354 429
#     4  11  25  45  65  99 139 184 235 287 362 427
#
# _framework density 22.479005999999998
#
# number of rings (size 3 to 8) (size 9 to 14) (size 15 to 20)
#    0.000    0.615    4.615    2.769    2.154    1.231 
#    2.769    1.538    0.000    0.000    0.000    0.000 
#    0.000    0.000    0.000    0.000    0.000    0.000 
#
# Total GULP energy -289711.656123 kJ/mol
# GULP energy per Si atom -5571.378002 kJ/mol
# Density = 2.242784 g / cm^3
# Si number density = 22.479006 Si / 1000 Ang^3
#
#
#
# Elastic Constant Matrix: (Units=GPa)
#
#
# Indices 1 2 3 4 5 6 
#
# 1 66.6181 0.0031 28.9052 0.0000 0.0000 0.0000
# 2 0.0031 32.6268 5.7756 0.0000 0.0000 0.0000
# 3 28.9052 5.7756 90.4746 0.0000 0.0000 0.0000
# 4 0.0000 0.0000 0.0000 29.8101 0.0000 0.0000
# 5 0.0000 0.0000 0.0000 0.0000 47.6686 0.0000
# 6 0.0000 0.0000 0.0000 0.0000 0.0000 28.9049
#
#
#
# Elastic Compliance Matrix: (Units=1/GPa)
#
#
# Indices 1 2 3 4 5 6 
#
# 1 0.017459 0.000997 -0.005641 0.000000 0.000000 0.000000
# 2 0.000997 0.031057 -0.002301 0.000000 0.000000 0.000000
# 3 -0.005641 -0.002301 0.013002 0.000000 0.000000 0.000000
# 4 0.000000 0.000000 0.000000 0.033546 0.000000 0.000000
# 5 0.000000 0.000000 0.000000 0.000000 0.020978 0.000000
# 6 0.000000 0.000000 0.000000 0.000000 0.000000 0.034596
#
#
# Mechanical properties :
#
#
# Convention : Reuss Voigt Hill
#
# Bulk Modulus (GPa) = 20.99665 28.78747 24.89206
# Shear Modulus (GPa) = 27.71551 31.61241 29.66396
#
# Velocity S-wave (km/s) = 3.51515 3.75415 3.63661
# Velocity P-wave (km/s) = 5.08290 5.62367 5.36011
#
# Compressibility (1/GPa) = 0.04762664
#
# Stress axis : x y z
#
# Youngs Moduli (GPa) = 57.27811 32.19893 76.91087
#
# Poissons Ratio (x) = -0.03210 0.43389
# Poissons Ratio (y) = -0.05711 0.17698
# Poissons Ratio (z) = 0.32313 0.07409
#
# Static dielectric constant tensor:
#      x y z
#    x 1.864180 0.000000 0.000000 
#    y 0.000000 1.847090 0.000000 
#    z 0.000000 0.000000 1.807780 
# 
# From -- ./inp_files/3544.got.cif
#   From: 2010.05.17/outbox.cif.g08.bks.cpg/sg61_2_cif.got.tgz:3544.got - 2010.06.03 15:17:17.
