data_PCOD9460609
_publ_section_title
;
Structure prediction by ZEFSAII (Michael W. Deem and Ramdas Pophale) SiO2 
 PCOD9460609
Probable space group: P B C A
;
_chemical_formula_sum "Si O2"
_cell_formula_units_Z 56
_cell_length_a 18.466943
_cell_length_b 13.674328
_cell_length_c 9.739707
_cell_angle_alpha 90.000000
_cell_angle_beta 90.000000
_cell_angle_gamma 90.000000
_cell_volume 2459.500379
_symmetry_space_group_name_H-M "P B C A"
_symmetry_group_IT_number 61
_symmetry_cell_setting 'orthorhombic'
loop_
_space_group_symop_operation_xyz
x,y,z
1/2-x,-y,1/2+z
1/2+x,1/2-y,-z
-x,1/2+y,1/2-z
-x,-y,-z
1/2+x,y,1/2-z
1/2-x,1/2+y,z
x,1/2-y,1/2+z
loop_
_atom_site_type_symbol
_atom_site_label
_atom_site_fract_x
_atom_site_fract_y
_atom_site_fract_z
Si Si1 0.341150 0.767643 0.094482
Si Si2 0.048394 0.459869 0.877157
Si Si3 0.266444 0.378057 0.697808
Si Si4 0.190165 0.833926 0.165622
Si Si5 0.434516 0.739760 0.837340
Si Si6 0.209462 0.983219 0.412586
Si Si7 0.042734 0.923971 0.096472
O O1 0.269134 0.833484 0.093362
O O2 0.406519 0.801674 0.191542
O O3 0.312365 0.672135 0.176970
O O4 0.368149 0.739446 0.945221
O O5 0.034454 0.348964 0.831472
O O6 0.131907 0.464849 0.922115
O O7 0.040209 0.528216 0.746283
O O8 0.000000 0.500000 0.000000
O O9 0.319540 0.283324 0.694021
O O10 0.126266 0.612389 0.582196
O O11 0.273298 0.442483 0.561704
O O12 0.264639 0.446356 0.830517
O O13 0.199161 0.890247 0.309686
O O14 0.495315 0.672738 0.901900
O O15 0.000000 0.000000 0.000000
#
# Coordination Sequence:
#
# PCOD9460609 Si02
#       7
#     8   8   8   8   8   8   8
#     4  10  23  44  68 102 137 185 238 293 378 430
#     4  11  25  45  65 103 140 188 247 290 378 450
#     4  10  24  43  71 109 146 191 247 307 379 441
#     4   9  24  46  68 105 149 187 244 312 371 453
#     4  12  23  45  74  99 144 193 239 320 366 451
#     4  11  23  44  74 102 147 188 246 315 366 453
#     4  11  26  49  74 106 145 196 250 305 383 457
#
# _framework density 22.768851000000002
#
# number of rings (size 3 to 8) (size 9 to 14) (size 15 to 20)
#    0.857    0.571    1.429    2.571    6.000    1.143 
#    5.143    1.429    0.000    0.000    0.000    0.000 
#    0.000    0.000    0.000    0.000    0.000    0.000 
#
# Total GULP energy -312843.374702 kJ/mol
# GULP energy per Si atom -5586.488834 kJ/mol
# Density = 2.271703 g / cm^3
# Si number density = 22.768851 Si / 1000 Ang^3
#
#
#
# Elastic Constant Matrix: (Units=GPa)
#
#
# Indices 1 2 3 4 5 6 
#
# 1 95.4826 46.9370 47.0715 0.0000 0.0000 0.0000
# 2 46.9370 127.6509 37.3041 0.0000 0.0000 0.0000
# 3 47.0715 37.3041 116.9762 0.0000 0.0000 0.0000
# 4 0.0000 0.0000 0.0000 36.7054 0.0000 0.0000
# 5 0.0000 0.0000 0.0000 0.0000 33.8438 0.0000
# 6 0.0000 0.0000 0.0000 0.0000 0.0000 40.8025
#
#
#
# Elastic Compliance Matrix: (Units=1/GPa)
#
#
# Indices 1 2 3 4 5 6 
#
# 1 0.014763 -0.004072 -0.004642 0.000000 0.000000 0.000000
# 2 -0.004072 0.009762 -0.001475 0.000000 0.000000 0.000000
# 3 -0.004642 -0.001475 0.010887 0.000000 0.000000 0.000000
# 4 0.000000 0.000000 0.000000 0.027244 0.000000 0.000000
# 5 0.000000 0.000000 0.000000 0.000000 0.029547 0.000000
# 6 0.000000 0.000000 0.000000 0.000000 0.000000 0.024508
#
#
# Mechanical properties :
#
#
# Convention : Reuss Voigt Hill
#
# Bulk Modulus (GPa) = 66.51167 66.97054 66.74110
# Shear Modulus (GPa) = 35.18621 36.19015 35.68818
#
# Velocity S-wave (km/s) = 3.93538 3.99113 3.96335
# Velocity P-wave (km/s) = 7.06574 7.12151 7.09368
#
# Compressibility (1/GPa) = 0.01503496
#
# Stress axis : x y z
#
# Youngs Moduli (GPa) = 67.73567 102.43809 91.85213
#
# Poissons Ratio (x) = 0.41711 0.42640
# Poissons Ratio (y) = 0.27581 0.13545
# Poissons Ratio (z) = 0.31445 0.15106
#
# Static dielectric constant tensor:
#      x y z
#    x 1.916610 0.000000 0.000000 
#    y 0.000000 1.856590 0.000000 
#    z 0.000000 0.000000 1.819080 
# 
# From -- ./inp_files/6460.got.cif
#   From: 2010.05.17/outbox.cif.g08.bks.cpg/sg61_4_cif.got.tgz:6460.got - 2010.06.03 15:17:17.
