data_PCOD9460384
_publ_section_title
;
Structure prediction by ZEFSAII (Michael W. Deem and Ramdas Pophale) SiO2 
 PCOD9460384
Probable space group: P B C A
;
_chemical_formula_sum "Si O2"
_cell_formula_units_Z 64
_cell_length_a 10.532737
_cell_length_b 24.400383
_cell_length_c 9.234323
_cell_angle_alpha 90.000000
_cell_angle_beta 90.000000
_cell_angle_gamma 90.000000
_cell_volume 2373.247023
_symmetry_space_group_name_H-M "P B C A"
_symmetry_group_IT_number 61
_symmetry_cell_setting 'orthorhombic'
loop_
_space_group_symop_operation_xyz
x,y,z
1/2-x,-y,1/2+z
1/2+x,1/2-y,-z
-x,1/2+y,1/2-z
-x,-y,-z
1/2+x,y,1/2-z
1/2-x,1/2+y,z
x,1/2-y,1/2+z
loop_
_atom_site_type_symbol
_atom_site_label
_atom_site_fract_x
_atom_site_fract_y
_atom_site_fract_z
Si Si1 0.545267 0.142335 0.394290
Si Si2 0.043168 0.054257 0.867935
Si Si3 0.243074 0.717598 0.602884
Si Si4 0.715208 0.106779 0.828417
Si Si5 0.992256 0.548606 0.190072
Si Si6 0.981251 0.235954 0.667345
Si Si7 0.709044 0.826791 0.039699
Si Si8 0.281149 0.501336 0.519085
O O1 0.500667 0.102545 0.524698
O O2 0.516382 0.109141 0.250313
O O3 0.481121 0.201813 0.391349
O O4 0.697890 0.148860 0.417990
O O5 0.074734 0.086228 0.717430
O O6 0.822866 0.966962 0.064495
O O7 0.988435 0.995352 0.821280
O O8 0.259883 0.654634 0.557440
O O9 0.116862 0.728879 0.699193
O O10 0.371413 0.725627 0.698847
O O11 0.251655 0.762457 0.477422
O O12 0.765560 0.135765 0.680966
O O13 0.774989 0.050039 0.881185
O O14 0.124633 0.537299 0.109565
O O15 0.874019 0.533416 0.090122
O O16 0.939249 0.188600 0.552374
#
# Coordination Sequence:
#
# PCOD9460384 Si02
#       8
#     8   8   8   8   8   8   8   8
#     4  10  22  42  69 109 141 200 253 308 399 456
#     4  10  22  43  71 102 150 190 252 317 379 476
#     4  10  22  45  70 108 145 194 250 319 385 473
#     4   9  21  44  65 104 137 195 240 310 392 448
#     4  10  23  43  66 108 141 195 256 314 378 465
#     4  10  23  44  69 104 146 190 247 319 379 466
#     4   9  21  44  69 103 143 186 249 314 376 470
#     4  10  23  45  67 101 147 192 255 317 380 460
#
# _framework density 26.967272000000001
#
# number of rings (size 3 to 8) (size 9 to 14) (size 15 to 20)
#    0.000    2.250    0.000    0.375    3.500    9.000 
#   33.750    2.500    0.000    0.000    0.000    0.000 
#    0.000    0.000    0.000    0.000    0.000    0.000 
#
# Total GULP energy -357411.219337 kJ/mol
# GULP energy per Si atom -5584.550302 kJ/mol
# Density = 2.690589 g / cm^3
# Si number density = 26.967272 Si / 1000 Ang^3
#
#
#
# Elastic Constant Matrix: (Units=GPa)
#
#
# Indices 1 2 3 4 5 6 
#
# 1 108.3962 42.6641 37.1713 0.0000 0.0000 0.0000
# 2 42.6641 146.5959 45.9187 0.0000 0.0000 0.0000
# 3 37.1713 45.9187 68.9332 0.0000 0.0000 0.0000
# 4 0.0000 0.0000 0.0000 51.2048 0.0000 0.0000
# 5 0.0000 0.0000 0.0000 0.0000 40.2848 0.0000
# 6 0.0000 0.0000 0.0000 0.0000 0.0000 51.4351
#
#
#
# Elastic Compliance Matrix: (Units=1/GPa)
#
#
# Indices 1 2 3 4 5 6 
#
# 1 0.011684 -0.001803 -0.005099 0.000000 0.000000 0.000000
# 2 -0.001803 0.008898 -0.004955 0.000000 0.000000 0.000000
# 3 -0.005099 -0.004955 0.020557 0.000000 0.000000 0.000000
# 4 0.000000 0.000000 0.000000 0.019529 0.000000 0.000000
# 5 0.000000 0.000000 0.000000 0.000000 0.024823 0.000000
# 6 0.000000 0.000000 0.000000 0.000000 0.000000 0.019442
#
#
# Mechanical properties :
#
#
# Convention : Reuss Voigt Hill
#
# Bulk Modulus (GPa) = 57.39077 63.93705 60.66391
# Shear Modulus (GPa) = 37.18658 41.79636 39.49147
#
# Velocity S-wave (km/s) = 3.71745 3.94114 3.83093
# Velocity P-wave (km/s) = 6.30506 6.66863 6.48939
#
# Compressibility (1/GPa) = 0.01742440
#
# Stress axis : x y z
#
# Youngs Moduli (GPa) = 85.58920 112.38018 48.64458
#
# Poissons Ratio (x) = 0.20263 0.24805
# Poissons Ratio (y) = 0.15433 0.24104
# Poissons Ratio (z) = 0.43643 0.55687
#
# Static dielectric constant tensor:
#      x y z
#    x 2.222590 0.000000 0.000000 
#    y 0.000000 2.096520 0.000000 
#    z 0.000000 0.000000 2.216690 
# 
# From -- ./inp_files/5467.got.cif
#   From: 2010.05.17/outbox.cif.g08.bks.cpg/sg61_3_cif.got.tgz:5467.got - 2010.06.03 15:17:17.
