data_PCOD9460308
_publ_section_title
;
Structure prediction by ZEFSAII (Michael W. Deem and Ramdas Pophale) SiO2 
 PCOD9460308
Probable space group: P B C A
;
_chemical_formula_sum "Si O2"
_cell_formula_units_Z 64
_cell_length_a 9.054796
_cell_length_b 12.312468
_cell_length_c 26.838407
_cell_angle_alpha 90.000000
_cell_angle_beta 90.000000
_cell_angle_gamma 90.000000
_cell_volume 2992.130422
_symmetry_space_group_name_H-M "P B C A"
_symmetry_group_IT_number 61
_symmetry_cell_setting 'orthorhombic'
loop_
_space_group_symop_operation_xyz
x,y,z
1/2-x,-y,1/2+z
1/2+x,1/2-y,-z
-x,1/2+y,1/2-z
-x,-y,-z
1/2+x,y,1/2-z
1/2-x,1/2+y,z
x,1/2-y,1/2+z
loop_
_atom_site_type_symbol
_atom_site_label
_atom_site_fract_x
_atom_site_fract_y
_atom_site_fract_z
Si Si1 0.974515 0.349904 0.519463
Si Si2 0.289769 0.013512 0.400351
Si Si3 0.506770 0.889928 0.059506
Si Si4 0.710699 0.506167 0.953284
Si Si5 0.905655 0.881402 0.681788
Si Si6 0.645434 0.946241 0.256651
Si Si7 0.666398 0.461567 0.352436
Si Si8 0.872757 0.633455 0.687230
O O1 0.889211 0.416964 0.562630
O O2 0.973738 0.223127 0.531063
O O3 0.890259 0.391590 0.470118
O O4 0.138462 0.401122 0.521340
O O5 0.158038 0.951597 0.428989
O O6 0.214155 0.094080 0.360763
O O7 0.371685 0.925199 0.365981
O O8 0.379767 0.963978 0.033952
O O9 0.428127 0.875457 0.114515
O O10 0.720602 0.491710 0.893828
O O11 0.847819 0.933064 0.733463
O O12 0.050740 0.947800 0.665574
O O13 0.929150 0.754862 0.684571
O O14 0.743292 0.923205 0.305108
O O15 0.479344 0.927174 0.274118
O O16 0.708690 0.874105 0.211165
#
# Coordination Sequence:
#
# PCOD9460308 Si02
#       8
#     8   8   8   8   8   8   8   8
#     4  11  21  42  70  97 129 178 220 281 343 397
#     4  10  22  42  64  95 131 164 232 269 327 410
#     4   9  22  43  64  91 135 172 212 284 335 400
#     4   9  23  41  63  97 130 165 228 269 334 417
#     4  10  22  41  62  91 129 173 216 273 339 387
#     4  11  22  40  59  92 131 168 228 271 320 410
#     4   9  20  44  59  93 133 167 223 276 326 411
#     4  11  24  37  63  94 127 176 219 276 332 399
#
# _framework density 21.389443
#
# number of rings (size 3 to 8) (size 9 to 14) (size 15 to 20)
#    0.750    1.250    1.250    1.500    1.750    3.500 
#    2.250    1.250    0.000    0.000    0.000    0.000 
#    0.000    0.000    0.000    0.000    0.000    0.000 
#
# Total GULP energy -357089.660550 kJ/mol
# GULP energy per Si atom -5579.525946 kJ/mol
# Density = 2.134076 g / cm^3
# Si number density = 21.389443 Si / 1000 Ang^3
#
#
#
# Elastic Constant Matrix: (Units=GPa)
#
#
# Indices 1 2 3 4 5 6 
#
# 1 85.7252 13.2655 22.9072 0.0000 0.0000 0.0000
# 2 13.2655 39.1232 0.4258 0.0000 0.0000 0.0000
# 3 22.9072 0.4258 82.1074 0.0000 0.0000 0.0000
# 4 0.0000 0.0000 0.0000 15.8970 0.0000 0.0000
# 5 0.0000 0.0000 0.0000 0.0000 55.6953 0.0000
# 6 0.0000 0.0000 0.0000 0.0000 0.0000 12.5907
#
#
#
# Elastic Compliance Matrix: (Units=1/GPa)
#
#
# Indices 1 2 3 4 5 6 
#
# 1 0.013348 -0.004486 -0.003701 0.000000 0.000000 0.000000
# 2 -0.004486 0.027069 0.001111 0.000000 0.000000 0.000000
# 3 -0.003701 0.001111 0.013206 0.000000 0.000000 0.000000
# 4 0.000000 0.000000 0.000000 0.062905 0.000000 0.000000
# 5 0.000000 0.000000 0.000000 0.000000 0.017955 0.000000
# 6 0.000000 0.000000 0.000000 0.000000 0.000000 0.079424
#
#
# Mechanical properties :
#
#
# Convention : Reuss Voigt Hill
#
# Bulk Modulus (GPa) = 25.33409 31.12811 28.23110
# Shear Modulus (GPa) = 20.72839 28.19374 24.46107
#
# Velocity S-wave (km/s) = 3.11641 3.63452 3.38539
# Velocity P-wave (km/s) = 4.98189 5.67430 5.33933
#
# Compressibility (1/GPa) = 0.03947251
#
# Stress axis : x y z
#
# Youngs Moduli (GPa) = 74.91628 36.94239 75.72380
#
# Poissons Ratio (x) = 0.16571 0.28024
# Poissons Ratio (y) = 0.33605 -0.08414
# Poissons Ratio (z) = 0.27725 -0.04105
#
# Static dielectric constant tensor:
#      x y z
#    x 1.833920 0.000000 0.000000 
#    y 0.000000 1.714470 0.000000 
#    z 0.000000 0.000000 1.803370 
# 
# From -- ./inp_files/11729.got.cif
#   From: 2010.05.17/outbox.cif.g08.bks.cpg/sg61_6_cif.got.tgz:11729.got - 2010.06.03 15:17:17.
