data_PCOD9460199
_publ_section_title
;
Structure prediction by ZEFSAII (Michael W. Deem and Ramdas Pophale) SiO2 
 PCOD9460199
Probable space group: P B C A
;
_chemical_formula_sum "Si O2"
_cell_formula_units_Z 56
_cell_length_a 12.953921
_cell_length_b 22.778936
_cell_length_c 9.549934
_cell_angle_alpha 90.000000
_cell_angle_beta 90.000000
_cell_angle_gamma 90.000000
_cell_volume 2817.961457
_symmetry_space_group_name_H-M "P B C A"
_symmetry_group_IT_number 61
_symmetry_cell_setting 'orthorhombic'
loop_
_space_group_symop_operation_xyz
x,y,z
1/2-x,-y,1/2+z
1/2+x,1/2-y,-z
-x,1/2+y,1/2-z
-x,-y,-z
1/2+x,y,1/2-z
1/2-x,1/2+y,z
x,1/2-y,1/2+z
loop_
_atom_site_type_symbol
_atom_site_label
_atom_site_fract_x
_atom_site_fract_y
_atom_site_fract_z
Si Si1 0.745271 0.247595 0.002426
Si Si2 0.406949 0.158923 0.092979
Si Si3 0.732768 0.438284 0.911256
Si Si4 0.261020 0.557371 0.417129
Si Si5 0.096126 0.843245 0.899051
Si Si6 0.101771 0.353771 0.095142
Si Si7 0.404582 0.849597 0.415045
O O1 0.814298 0.205563 0.098988
O O2 0.668885 0.292706 0.078255
O O3 0.826841 0.287688 0.920589
O O4 0.675584 0.203148 0.913137
O O5 0.337384 0.100465 0.080832
O O6 0.456616 0.159190 0.247227
O O7 0.492449 0.161667 0.973779
O O8 0.711343 0.450152 0.746981
O O9 0.746066 0.496948 0.000965
O O10 0.645075 0.398294 0.982992
O O11 0.155417 0.595337 0.419251
O O12 0.345204 0.596143 0.500330
O O13 0.015578 0.833410 0.022464
O O14 0.090185 0.371633 0.256254
#
# Coordination Sequence:
#
# PCOD9460199 Si02
#       7
#     8   8   8   8   8   8   8
#     4  10  22  38  60  86 118 154 196 240 284 340
#     4  10  22  39  59  85 117 153 192 237 289 343
#     4  10  22  41  63  86 116 153 195 243 292 345
#     4  10  22  41  63  86 116 153 195 243 292 345
#     4  10  22  39  59  85 117 153 192 237 289 343
#     4  11  23  38  60  89 119 154 195 239 290 347
#     4  11  23  38  60  89 119 154 195 239 290 347
#
# _framework density 19.872522
#
# number of rings (size 3 to 8) (size 9 to 14) (size 15 to 20)
#    0.000    1.714    0.000    3.429    0.000   13.714 
#    0.000    0.000    0.000    0.000    0.000    0.000 
#    0.000    0.000    0.000    0.000    0.000    0.000 
#
# Total GULP energy -312836.970915 kJ/mol
# GULP energy per Si atom -5586.374481 kJ/mol
# Density = 1.982729 g / cm^3
# Si number density = 19.872522 Si / 1000 Ang^3
#
#
#
# Elastic Constant Matrix: (Units=GPa)
#
#
# Indices 1 2 3 4 5 6 
#
# 1 51.6477 1.9286 15.3246 0.0000 0.0000 0.0000
# 2 1.9286 105.6901 19.7601 0.0000 0.0000 0.0000
# 3 15.3246 19.7601 123.8112 0.0000 0.0000 0.0000
# 4 0.0000 0.0000 0.0000 9.3027 0.0000 0.0000
# 5 0.0000 0.0000 0.0000 0.0000 23.1166 0.0000
# 6 0.0000 0.0000 0.0000 0.0000 0.0000 9.0141
#
#
#
# Elastic Compliance Matrix: (Units=1/GPa)
#
#
# Indices 1 2 3 4 5 6 
#
# 1 0.020101 0.000101 -0.002504 0.000000 0.000000 0.000000
# 2 0.000101 0.009753 -0.001569 0.000000 0.000000 0.000000
# 3 -0.002504 -0.001569 0.008637 0.000000 0.000000 0.000000
# 4 0.000000 0.000000 0.000000 0.107495 0.000000 0.000000
# 5 0.000000 0.000000 0.000000 0.000000 0.043259 0.000000
# 6 0.000000 0.000000 0.000000 0.000000 0.000000 0.110937
#
#
# Mechanical properties :
#
#
# Convention : Reuss Voigt Hill
#
# Bulk Modulus (GPa) = 32.73574 39.46397 36.09985
# Shear Modulus (GPa) = 15.70797 24.56239 20.13518
#
# Velocity S-wave (km/s) = 2.81452 3.51949 3.18656
# Velocity P-wave (km/s) = 5.20295 6.03468 5.63418
#
# Compressibility (1/GPa) = 0.03054765
#
# Stress axis : x y z
#
# Youngs Moduli (GPa) = 49.74827 102.53107 115.77821
#
# Poissons Ratio (x) = -0.01039 0.28993
# Poissons Ratio (y) = -0.00504 0.18167
# Poissons Ratio (z) = 0.12458 0.16089
#
# Static dielectric constant tensor:
#      x y z
#    x 1.685260 0.000000 0.000000 
#    y 0.000000 1.687250 0.000000 
#    z 0.000000 0.000000 1.691410 
# 
# From -- ./inp_files/3066.got.cif
#   From: 2010.05.17/outbox.cif.g08.bks.cpg/sg61_2_cif.got.tgz:3066.got - 2010.06.03 15:17:17.
