data_PCOD9460705
_publ_section_title
;
Structure prediction by ZEFSAII (Michael W. Deem and Ramdas Pophale) SiO2 
 PCOD9460705
Probable space group: P B C A
;
_chemical_formula_sum "Si O2"
_cell_formula_units_Z 56
_cell_length_a 5.620144
_cell_length_b 15.107324
_cell_length_c 29.645638
_cell_angle_alpha 90.000000
_cell_angle_beta 90.000000
_cell_angle_gamma 90.000000
_cell_volume 2517.072865
_symmetry_space_group_name_H-M "P B C A"
_symmetry_group_IT_number 61
_symmetry_cell_setting 'orthorhombic'
loop_
_space_group_symop_operation_xyz
x,y,z
1/2-x,-y,1/2+z
1/2+x,1/2-y,-z
-x,1/2+y,1/2-z
-x,-y,-z
1/2+x,y,1/2-z
1/2-x,1/2+y,z
x,1/2-y,1/2+z
loop_
_atom_site_type_symbol
_atom_site_label
_atom_site_fract_x
_atom_site_fract_y
_atom_site_fract_z
Si Si1 0.718501 0.680935 0.946134
Si Si2 0.219797 0.114898 0.064590
Si Si3 0.297654 0.092999 0.969965
Si Si4 0.696604 0.605812 0.848128
Si Si5 0.663472 0.762317 0.776884
Si Si6 0.179635 0.529166 0.390085
Si Si7 0.431987 0.071655 0.162721
O O1 0.713815 0.786493 0.948342
O O2 0.458962 0.642759 0.960917
O O3 0.771398 0.654191 0.894149
O O4 0.956181 0.647665 0.971129
O O5 0.340579 0.089947 0.111754
O O6 0.948012 0.101570 0.078802
O O7 0.266230 0.055105 0.020616
O O8 0.320241 0.026768 0.927805
O O9 0.646534 0.681319 0.812130
O O10 0.481099 0.545022 0.865904
O O11 0.874318 0.531139 0.828335
O O12 0.419740 0.757094 0.747804
O O13 0.659135 0.856372 0.803010
O O14 0.290077 0.578861 0.347251
#
# Coordination Sequence:
#
# PCOD9460705 Si02
#       7
#     8   8   8   8   8   8   8
#     4  11  23  42  67  99 141 196 243 294 350 419
#     4  11  24  39  67 103 145 197 240 302 340 422
#     4  11  24  41  63 105 145 194 253 286 348 408
#     4  10  24  49  72 104 144 189 233 290 372 427
#     4  12  31  51  80 112 140 180 238 306 376 454
#     4  10  24  41  70  99 147 198 236 294 350 427
#     4  11  25  47  76 106 145 193 235 298 368 437
#
# _framework density 22.248062999999998
#
# number of rings (size 3 to 8) (size 9 to 14) (size 15 to 20)
#    0.000    1.143    2.857    1.286   10.000    1.714 
#    0.000    0.000    0.000    0.000    0.000    0.000 
#    0.000    0.000    0.000    0.000    0.000    0.000 
#
# Total GULP energy -312252.879647 kJ/mol
# GULP energy per Si atom -5575.944279 kJ/mol
# Density = 2.219743 g / cm^3
# Si number density = 22.248063 Si / 1000 Ang^3
#
#
#
# Elastic Constant Matrix: (Units=GPa)
#
#
# Indices 1 2 3 4 5 6 
#
# 1 99.5103 39.9771 44.8121 0.0000 0.0000 0.0000
# 2 39.9771 84.1477 39.8806 0.0000 0.0000 0.0000
# 3 44.8121 39.8806 103.8533 0.0000 0.0000 0.0000
# 4 0.0000 0.0000 0.0000 35.2777 0.0000 0.0000
# 5 0.0000 0.0000 0.0000 0.0000 28.2620 0.0000
# 6 0.0000 0.0000 0.0000 0.0000 0.0000 -185.4205
#
#
#
# Elastic Compliance Matrix: (Units=1/GPa)
#
#
# Indices 1 2 3 4 5 6 
#
# 1 0.013766 -0.004554 -0.004191 0.000000 0.000000 0.000000
# 2 -0.004554 0.016034 -0.004192 0.000000 0.000000 0.000000
# 3 -0.004191 -0.004192 0.013047 0.000000 0.000000 0.000000
# 4 0.000000 0.000000 0.000000 0.028347 0.000000 0.000000
# 5 0.000000 0.000000 0.000000 0.000000 0.035383 0.000000
# 6 0.000000 0.000000 0.000000 0.000000 0.000000 -0.005393
#
#
# Mechanical properties :
#
#
# Convention : Reuss Voigt Hill
#
# Bulk Modulus (GPa) = 58.91735 59.65009 59.28372
# Shear Modulus (GPa) = 37.67431 -13.52006 12.07712
#
# Velocity S-wave (km/s) = 4.11953 -2.46782 2.33242
# Velocity P-wave (km/s) = 7.01191 4.33005 5.82736
#
# Compressibility (1/GPa) = 0.01697293
#
# Stress axis : x y z
#
# Youngs Moduli (GPa) = 72.64260 62.36697 76.64344
#
# Poissons Ratio (x) = 0.28399 0.32124
# Poissons Ratio (y) = 0.33078 0.32132
# Poissons Ratio (z) = 0.30447 0.26147
#
# Static dielectric constant tensor:
#      x y z
#    x 2.109760 0.000000 0.000000 
#    y 0.000000 1.794690 0.000000 
#    z 0.000000 0.000000 1.797970 
# 
# From -- ./inp_files/11595.got.cif
#   From: 2010.05.17/outbox.cif.g08.bks.cpg/sg61_6_cif.got.tgz:11595.got - 2010.06.03 15:17:17.
