data_PCOD9460929
_publ_section_title
;
Structure prediction by ZEFSAII (Michael W. Deem and Ramdas Pophale) SiO2 
 PCOD9460929
Probable space group: P B C A
;
_chemical_formula_sum "Si O2"
_cell_formula_units_Z 40
_cell_length_a 18.567891
_cell_length_b 16.672005
_cell_length_c 5.323576
_cell_angle_alpha 90.000000
_cell_angle_beta 90.000000
_cell_angle_gamma 90.000000
_cell_volume 1647.987330
_symmetry_space_group_name_H-M "P B C A"
_symmetry_group_IT_number 61
_symmetry_cell_setting 'orthorhombic'
loop_
_space_group_symop_operation_xyz
x,y,z
1/2-x,-y,1/2+z
1/2+x,1/2-y,-z
-x,1/2+y,1/2-z
-x,-y,-z
1/2+x,y,1/2-z
1/2-x,1/2+y,z
x,1/2-y,1/2+z
loop_
_atom_site_type_symbol
_atom_site_label
_atom_site_fract_x
_atom_site_fract_y
_atom_site_fract_z
Si Si1 0.552999 0.802913 0.329447
Si Si2 0.278979 0.709577 0.227304
Si Si3 0.603120 0.364355 0.042295
Si Si4 0.133087 0.529063 0.721747
Si Si5 0.207338 0.433364 0.058907
O O1 0.565746 0.751391 0.582792
O O2 0.470735 0.834148 0.344630
O O3 0.598482 0.885102 0.316316
O O4 0.248939 0.742064 0.966355
O O5 0.333208 0.625709 0.751948
O O6 0.269074 0.618942 0.317294
O O7 0.596345 0.453042 0.916645
O O8 0.635243 0.300536 0.840098
O O9 0.145057 0.498606 0.006461
O O10 0.217263 0.534831 0.651457
#
# Coordination Sequence:
#
# PCOD9460929 Si02
#       5
#     8   8   8   8   8
#     4  12  31  51  74 109 156 199 249 307 380 448
#     4  11  22  39  66 107 144 189 241 299 357 432
#     4  11  24  47  78 108 148 201 253 303 366 455
#     4  11  26  48  76 113 148 197 250 319 371 443
#     4  11  24  43  80 110 149 194 255 306 375 443
#
# _framework density 24.272030999999998
#
# number of rings (size 3 to 8) (size 9 to 14) (size 15 to 20)
#    0.000    0.800    4.000    1.800    8.400    2.400 
#    0.000    0.000    0.000    0.000    0.000    0.000 
#    0.000    0.000    0.000    0.000    0.000    0.000 
#
# Total GULP energy -223241.982568 kJ/mol
# GULP energy per Si atom -5581.049564 kJ/mol
# Density = 2.421679 g / cm^3
# Si number density = 24.272031 Si / 1000 Ang^3
#
#
#
# Elastic Constant Matrix: (Units=GPa)
#
#
# Indices 1 2 3 4 5 6 
#
# 1 49.2252 30.2929 16.8470 0.0000 0.0000 0.0000
# 2 30.2929 140.7824 64.9200 0.0000 0.0000 0.0000
# 3 16.8470 64.9200 137.9377 0.0000 0.0000 0.0000
# 4 0.0000 0.0000 0.0000 46.2007 0.0000 0.0000
# 5 0.0000 0.0000 0.0000 0.0000 17.4448 0.0000
# 6 0.0000 0.0000 0.0000 0.0000 0.0000 44.1568
#
#
#
# Elastic Compliance Matrix: (Units=1/GPa)
#
#
# Indices 1 2 3 4 5 6 
#
# 1 0.023458 -0.004759 -0.000625 0.000000 0.000000 0.000000
# 2 -0.004759 0.010038 -0.004143 0.000000 0.000000 0.000000
# 3 -0.000625 -0.004143 0.009276 0.000000 0.000000 0.000000
# 4 0.000000 0.000000 0.000000 0.021645 0.000000 0.000000
# 5 0.000000 0.000000 0.000000 0.000000 0.057324 0.000000
# 6 0.000000 0.000000 0.000000 0.000000 0.000000 0.022647
#
#
# Mechanical properties :
#
#
# Convention : Reuss Voigt Hill
#
# Bulk Modulus (GPa) = 42.16454 61.34055 51.75255
# Shear Modulus (GPa) = 29.18071 35.95282 32.56677
#
# Velocity S-wave (km/s) = 3.47109 3.85287 3.66695
# Velocity P-wave (km/s) = 5.78567 6.71713 6.26872
#
# Compressibility (1/GPa) = 0.02371661
#
# Stress axis : x y z
#
# Youngs Moduli (GPa) = 42.63020 99.62445 107.80684
#
# Poissons Ratio (x) = 0.47414 0.06738
# Poissons Ratio (y) = 0.20289 0.44664
# Poissons Ratio (z) = 0.02665 0.41274
#
# Static dielectric constant tensor:
#      x y z
#    x 1.916130 0.000000 0.000000 
#    y 0.000000 1.984040 0.000000 
#    z 0.000000 0.000000 2.191160 
# 
# From -- ./inp_files/690.got.cif
#   From: 2010.05.17/outbox.cif.g08.bks.cpg/sg61_1_cif.got.tgz:690.got - 2010.06.03 15:17:17.
