data_PCOD9460276
_publ_section_title
;
Structure prediction by ZEFSAII (Michael W. Deem and Ramdas Pophale) SiO2 
 PCOD9460276
Probable space group: P B C A
;
_chemical_formula_sum "Si O2"
_cell_formula_units_Z 48
_cell_length_a 13.122244
_cell_length_b 17.279208
_cell_length_c 8.984119
_cell_angle_alpha 90.000000
_cell_angle_beta 90.000000
_cell_angle_gamma 90.000000
_cell_volume 2037.076962
_symmetry_space_group_name_H-M "P B C A"
_symmetry_group_IT_number 61
_symmetry_cell_setting 'orthorhombic'
loop_
_space_group_symop_operation_xyz
x,y,z
1/2-x,-y,1/2+z
1/2+x,1/2-y,-z
-x,1/2+y,1/2-z
-x,-y,-z
1/2+x,y,1/2-z
1/2-x,1/2+y,z
x,1/2-y,1/2+z
loop_
_atom_site_type_symbol
_atom_site_label
_atom_site_fract_x
_atom_site_fract_y
_atom_site_fract_z
Si Si1 0.867030 0.580767 0.020242
Si Si2 0.995975 0.312779 0.123697
Si Si3 0.652498 0.322691 0.803604
Si Si4 0.364161 0.254608 0.112244
Si Si5 0.639259 0.581353 0.017276
Si Si6 0.533151 0.471801 0.800622
O O1 0.846416 0.655519 0.128681
O O2 0.753630 0.550629 0.991038
O O3 0.930811 0.526515 0.130583
O O4 0.932804 0.611273 0.882534
O O5 0.073461 0.243764 0.158105
O O6 0.906563 0.298053 0.241687
O O7 0.945137 0.303263 0.961607
O O8 0.761457 0.292376 0.856990
O O9 0.604962 0.402183 0.868508
O O10 0.355829 0.326342 0.997626
O O11 0.582850 0.554020 0.168047
O O12 0.565367 0.546853 0.891060
#
# Coordination Sequence:
#
# PCOD9460276 Si02
#       6
#     8   8   8   8   8   8
#     4  10  22  42  64  93 128 171 215 275 324 399
#     4  12  23  40  66  95 132 161 226 267 329 383
#     4  10  22  40  64  92 130 168 210 268 332 380
#     4  12  23  39  65 100 124 173 215 279 320 396
#     4  11  21  44  66  92 131 176 219 266 339 393
#     4   9  23  43  65  89 132 177 209 273 333 395
#
# _framework density 23.563174
#
# number of rings (size 3 to 8) (size 9 to 14) (size 15 to 20)
#    1.000    0.333    5.000    1.000    2.333    0.000 
#    9.000    0.833    0.000    0.000    0.000    0.000 
#    0.000    0.000    0.000    0.000    0.000    0.000 
#
# Total GULP energy -267909.938091 kJ/mol
# GULP energy per Si atom -5581.457044 kJ/mol
# Density = 2.350954 g / cm^3
# Si number density = 23.563174 Si / 1000 Ang^3
#
#
#
# Elastic Constant Matrix: (Units=GPa)
#
#
# Indices 1 2 3 4 5 6 
#
# 1 133.8131 33.5870 19.7962 0.0000 0.0000 0.0000
# 2 33.5870 59.4440 -10.4525 0.0000 0.0000 0.0000
# 3 19.7962 -10.4525 38.4613 0.0000 0.0000 0.0000
# 4 0.0000 0.0000 0.0000 19.7911 0.0000 0.0000
# 5 0.0000 0.0000 0.0000 0.0000 39.7352 0.0000
# 6 0.0000 0.0000 0.0000 0.0000 0.0000 38.0187
#
#
#
# Elastic Compliance Matrix: (Units=1/GPa)
#
#
# Indices 1 2 3 4 5 6 
#
# 1 0.010331 -0.007112 -0.007250 0.000000 0.000000 0.000000
# 2 -0.007112 0.022563 0.009792 0.000000 0.000000 0.000000
# 3 -0.007250 0.009792 0.032393 0.000000 0.000000 0.000000
# 4 0.000000 0.000000 0.000000 0.050528 0.000000 0.000000
# 5 0.000000 0.000000 0.000000 0.000000 0.025167 0.000000
# 6 0.000000 0.000000 0.000000 0.000000 0.000000 0.026303
#
#
# Mechanical properties :
#
#
# Convention : Reuss Voigt Hill
#
# Bulk Modulus (GPa) = 17.81025 35.28665 26.54845
# Shear Modulus (GPa) = 25.62276 32.09484 28.85880
#
# Velocity S-wave (km/s) = 3.30116 3.69464 3.50343
# Velocity P-wave (km/s) = 4.70161 5.76266 5.25897
#
# Compressibility (1/GPa) = 0.05614744
#
# Stress axis : x y z
#
# Youngs Moduli (GPa) = 96.79810 44.32067 30.87075
#
# Poissons Ratio (x) = 0.31521 0.22382
# Poissons Ratio (y) = 0.68842 -0.30230
# Poissons Ratio (z) = 0.70180 -0.43401
#
# Static dielectric constant tensor:
#      x y z
#    x 1.908700 0.000000 0.000000 
#    y 0.000000 1.915270 0.000000 
#    z 0.000000 0.000000 1.939080 
# 
# From -- ./inp_files/5310.got.cif
#   From: 2010.05.17/outbox.cif.g08.bks.cpg/sg61_3_cif.got.tgz:5310.got - 2010.06.03 15:17:17.
