data_PCOD9460398
_publ_section_title
;
Structure prediction by ZEFSAII (Michael W. Deem and Ramdas Pophale) SiO2 
 PCOD9460398
Probable space group: P B C A
;
_chemical_formula_sum "Si O2"
_cell_formula_units_Z 64
_cell_length_a 18.584260
_cell_length_b 29.857774
_cell_length_c 5.216962
_cell_angle_alpha 90.000000
_cell_angle_beta 90.000000
_cell_angle_gamma 90.000000
_cell_volume 2894.812055
_symmetry_space_group_name_H-M "P B C A"
_symmetry_group_IT_number 61
_symmetry_cell_setting 'orthorhombic'
loop_
_space_group_symop_operation_xyz
x,y,z
1/2-x,-y,1/2+z
1/2+x,1/2-y,-z
-x,1/2+y,1/2-z
-x,-y,-z
1/2+x,y,1/2-z
1/2-x,1/2+y,z
x,1/2-y,1/2+z
loop_
_atom_site_type_symbol
_atom_site_label
_atom_site_fract_x
_atom_site_fract_y
_atom_site_fract_z
Si Si1 0.590878 0.046017 0.264574
Si Si2 0.560818 0.919634 0.609142
Si Si3 0.126995 0.776238 0.164571
Si Si4 0.454561 0.363007 0.372639
Si Si5 0.654775 0.978077 0.937655
Si Si6 0.700052 0.276837 0.375789
Si Si7 0.212395 0.058680 0.836382
Si Si8 0.621582 0.368088 0.409584
O O1 0.515006 0.054540 0.395295
O O2 0.657161 0.040223 0.453375
O O3 0.607677 0.092625 0.116414
O O4 0.589993 0.001851 0.089409
O O5 0.571949 0.899350 0.331987
O O6 0.622405 0.953312 0.694976
O O7 0.556221 0.881927 0.838113
O O8 0.108390 0.737166 0.372001
O O9 0.087756 0.818691 0.289196
O O10 0.213425 0.783176 0.144725
O O11 0.540384 0.357641 0.318615
O O12 0.706509 0.942692 0.073085
O O13 0.704059 0.021887 0.886541
O O14 0.680956 0.239438 0.589198
O O15 0.660113 0.321549 0.469271
O O16 0.178418 0.106626 0.773886
#
# Coordination Sequence:
#
# PCOD9460398 Si02
#       8
#     8   8   8   8   8   8   8   8
#     4  10  22  43  60  89 130 169 212 266 312 369
#     4  11  25  41  63  95 127 169 215 264 313 380
#     4  10  22  43  65  93 128 161 203 262 313 379
#     4  11  24  42  64  97 125 166 216 255 323 382
#     4  11  24  38  63  91 122 174 219 259 320 374
#     4  10  24  42  67  98 128 164 209 255 318 384
#     4  11  22  40  62  90 130 163 216 268 314 375
#     4  10  24  41  65  92 130 168 206 267 318 374
#
# _framework density 22.108516000000002
#
# number of rings (size 3 to 8) (size 9 to 14) (size 15 to 20)
#    0.000    1.500    2.500    1.125    5.250    2.500 
#    0.000    0.000    0.000    0.000    0.000    0.000 
#    0.000    0.000    0.000    0.000    0.000    0.000 
#
# Total GULP energy -357243.513013 kJ/mol
# GULP energy per Si atom -5581.929891 kJ/mol
# Density = 2.205820 g / cm^3
# Si number density = 22.108516 Si / 1000 Ang^3
#
#
#
# Elastic Constant Matrix: (Units=GPa)
#
#
# Indices 1 2 3 4 5 6 
#
# 1 70.4447 28.8702 11.0324 0.0000 0.0000 0.0000
# 2 28.8702 64.6977 -5.7781 0.0000 0.0000 0.0000
# 3 11.0324 -5.7781 48.4221 0.0000 0.0000 0.0000
# 4 0.0000 0.0000 0.0000 24.6901 0.0000 0.0000
# 5 0.0000 0.0000 0.0000 0.0000 21.1013 0.0000
# 6 0.0000 0.0000 0.0000 0.0000 0.0000 34.2499
#
#
#
# Elastic Compliance Matrix: (Units=1/GPa)
#
#
# Indices 1 2 3 4 5 6 
#
# 1 0.018624 -0.008783 -0.005291 0.000000 0.000000 0.000000
# 2 -0.008783 0.019765 0.004360 0.000000 0.000000 0.000000
# 3 -0.005291 0.004360 0.022378 0.000000 0.000000 0.000000
# 4 0.000000 0.000000 0.000000 0.040502 0.000000 0.000000
# 5 0.000000 0.000000 0.000000 0.000000 0.047390 0.000000
# 6 0.000000 0.000000 0.000000 0.000000 0.000000 0.029197
#
#
# Mechanical properties :
#
#
# Convention : Reuss Voigt Hill
#
# Bulk Modulus (GPa) = 24.19141 27.97930 26.08536
# Shear Modulus (GPa) = 23.68944 25.97092 24.83018
#
# Velocity S-wave (km/s) = 3.27694 3.43111 3.35491
# Velocity P-wave (km/s) = 5.02829 5.32725 5.17993
#
# Compressibility (1/GPa) = 0.04133698
#
# Stress axis : x y z
#
# Youngs Moduli (GPa) = 53.69485 50.59411 44.68774
#
# Poissons Ratio (x) = 0.44437 0.23646
# Poissons Ratio (y) = 0.47161 -0.19482
# Poissons Ratio (z) = 0.28411 -0.22057
#
# Static dielectric constant tensor:
#      x y z
#    x 1.781350 0.000000 0.000000 
#    y 0.000000 1.830220 0.000000 
#    z 0.000000 0.000000 1.923010 
# 
# From -- ./inp_files/859.got.cif
#   From: 2010.05.17/outbox.cif.g08.bks.cpg/sg61_1_cif.got.tgz:859.got - 2010.06.03 15:17:17.
