data_PCOD9460442
_publ_section_title
;
Structure prediction by ZEFSAII (Michael W. Deem and Ramdas Pophale) SiO2 
 PCOD9460442
Probable space group: P B C A
;
_chemical_formula_sum "Si O2"
_cell_formula_units_Z 48
_cell_length_a 11.674025
_cell_length_b 9.206857
_cell_length_c 18.533534
_cell_angle_alpha 90.000000
_cell_angle_beta 90.000000
_cell_angle_gamma 90.000000
_cell_volume 1992.004228
_symmetry_space_group_name_H-M "P B C A"
_symmetry_group_IT_number 61
_symmetry_cell_setting 'orthorhombic'
loop_
_space_group_symop_operation_xyz
x,y,z
1/2-x,-y,1/2+z
1/2+x,1/2-y,-z
-x,1/2+y,1/2-z
-x,-y,-z
1/2+x,y,1/2-z
1/2-x,1/2+y,z
x,1/2-y,1/2+z
loop_
_atom_site_type_symbol
_atom_site_label
_atom_site_fract_x
_atom_site_fract_y
_atom_site_fract_z
Si Si1 0.995918 0.208918 0.614516
Si Si2 0.609279 0.178348 0.508384
Si Si3 0.179737 0.482393 0.951393
Si Si4 0.610662 0.274413 0.659347
Si Si5 0.887008 0.205142 0.263400
Si Si6 0.793532 0.907073 0.290110
O O1 0.026899 0.339458 0.559282
O O2 0.110122 0.146428 0.653582
O O3 0.923756 0.091738 0.567580
O O4 0.917322 0.260188 0.681060
O O5 0.715459 0.071359 0.516726
O O6 0.651715 0.346151 0.497566
O O7 0.559962 0.192359 0.589063
O O8 0.306098 0.894507 0.875867
O O9 0.505598 0.345358 0.700890
O O10 0.669886 0.164943 0.713695
O O11 0.833518 0.346466 0.301534
O O12 0.797938 0.078310 0.280494
#
# Coordination Sequence:
#
# PCOD9460442 Si02
#       6
#     8   8   8   8   8   8
#     4  11  24  43  70 101 137 179 239 285 347 420
#     4  10  23  42  73  98 134 188 226 288 351 414
#     4  10  22  44  69  95 140 174 232 279 354 409
#     4   9  23  42  69  94 140 182 222 286 354 404
#     4  11  25  43  69 102 141 182 237 289 346 417
#     4  11  24  41  69 100 133 182 234 281 347 412
#
# _framework density 24.096333000000001
#
# number of rings (size 3 to 8) (size 9 to 14) (size 15 to 20)
#    1.000    0.667    1.667    1.500    4.667    4.000 
#    0.000    3.333    0.000    0.000    0.000    0.000 
#    0.000    0.000    0.000    0.000    0.000    0.000 
#
# Total GULP energy -267986.161380 kJ/mol
# GULP energy per Si atom -5583.045029 kJ/mol
# Density = 2.404149 g / cm^3
# Si number density = 24.096333 Si / 1000 Ang^3
#
#
#
# Elastic Constant Matrix: (Units=GPa)
#
#
# Indices 1 2 3 4 5 6 
#
# 1 64.2198 19.4971 22.7257 0.0000 0.0000 0.0000
# 2 19.4971 65.1938 20.6370 0.0000 0.0000 0.0000
# 3 22.7257 20.6370 62.3388 0.0000 0.0000 0.0000
# 4 0.0000 0.0000 0.0000 19.1339 0.0000 0.0000
# 5 0.0000 0.0000 0.0000 0.0000 38.1816 0.0000
# 6 0.0000 0.0000 0.0000 0.0000 0.0000 33.3453
#
#
#
# Elastic Compliance Matrix: (Units=1/GPa)
#
#
# Indices 1 2 3 4 5 6 
#
# 1 0.018699 -0.003836 -0.005547 0.000000 0.000000 0.000000
# 2 -0.003836 0.017922 -0.004534 0.000000 0.000000 0.000000
# 3 -0.005547 -0.004534 0.019565 0.000000 0.000000 0.000000
# 4 0.000000 0.000000 0.000000 0.052263 0.000000 0.000000
# 5 0.000000 0.000000 0.000000 0.000000 0.026191 0.000000
# 6 0.000000 0.000000 0.000000 0.000000 0.000000 0.029989
#
#
# Mechanical properties :
#
#
# Convention : Reuss Voigt Hill
#
# Bulk Modulus (GPa) = 35.27309 35.27470 35.27390
# Shear Modulus (GPa) = 24.76312 26.72501 25.74406
#
# Velocity S-wave (km/s) = 3.20921 3.33391 3.27216
# Velocity P-wave (km/s) = 5.32937 5.43054 5.38019
#
# Compressibility (1/GPa) = 0.02835022
#
# Stress axis : x y z
#
# Youngs Moduli (GPa) = 53.47843 55.79882 51.11298
#
# Poissons Ratio (x) = 0.21407 0.28351
# Poissons Ratio (y) = 0.20517 0.23176
# Poissons Ratio (z) = 0.29663 0.25301
#
# Static dielectric constant tensor:
#      x y z
#    x 1.989810 0.000000 0.000000 
#    y 0.000000 1.942890 0.000000 
#    z 0.000000 0.000000 1.954050 
# 
# From -- ./inp_files/10975.got.cif
#   From: 2010.05.17/outbox.cif.g08.bks.cpg/sg61_6_cif.got.tgz:10975.got - 2010.06.03 15:17:17.
