data_PCOD9460900
_publ_section_title
;
Structure prediction by ZEFSAII (Michael W. Deem and Ramdas Pophale) SiO2 
 PCOD9460900
Probable space group: P B C A
;
_chemical_formula_sum "Si O2"
_cell_formula_units_Z 36
_cell_length_a 25.076507
_cell_length_b 6.871870
_cell_length_c 7.341840
_cell_angle_alpha 90.000000
_cell_angle_beta 90.000000
_cell_angle_gamma 90.000000
_cell_volume 1265.164195
_symmetry_space_group_name_H-M "P B C A"
_symmetry_group_IT_number 61
_symmetry_cell_setting 'orthorhombic'
loop_
_space_group_symop_operation_xyz
x,y,z
1/2-x,-y,1/2+z
1/2+x,1/2-y,-z
-x,1/2+y,1/2-z
-x,-y,-z
1/2+x,y,1/2-z
1/2-x,1/2+y,z
x,1/2-y,1/2+z
loop_
_atom_site_type_symbol
_atom_site_label
_atom_site_fract_x
_atom_site_fract_y
_atom_site_fract_z
Si Si1 0.300991 0.846781 0.624882
Si Si2 0.312953 0.058763 0.244174
Si Si3 0.088579 0.433257 0.777345
Si Si4 0.000000 0.000000 0.000000
Si Si5 0.573542 0.973881 0.807284
O O1 0.302432 0.962232 0.438404
O O2 0.317130 0.622665 0.605882
O O3 0.347709 0.943060 0.743221
O O4 0.240510 0.829910 0.695873
O O5 0.372211 0.141124 0.238809
O O6 0.078290 0.197545 0.769041
O O7 0.057549 0.524598 0.605785
O O8 0.069051 0.505178 0.975115
O O9 0.023811 0.900973 0.809052
#
# Coordination Sequence:
#
# PCOD9460900 Si02
#       5
#     8   8   8   4   8
#     4  11  21  39  65  95 128 165 210 260 320 385
#     4  11  21  39  65  95 128 165 210 260 320 385
#     4  11  21  40  65  91 122 168 213 258 318 378
#     4  12  22  40  64  88 124 160 222 254 300 388
#     4  11  21  40  65  91 122 168 213 258 318 378
#
# _framework density 28.454806000000001
#
# number of rings (size 3 to 8) (size 9 to 14) (size 15 to 20)
#    0.000    0.889    4.444    7.333    0.000    0.000 
#    0.000    2.222    0.000    0.000    0.000    0.000 
#    0.000    0.000    0.000    0.000    0.000    0.000 
#
# Total GULP energy -200954.922775 kJ/mol
# GULP energy per Si atom -5582.081188 kJ/mol
# Density = 2.839004 g / cm^3
# Si number density = 28.454806 Si / 1000 Ang^3
#
#
#
# Elastic Constant Matrix: (Units=GPa)
#
#
# Indices 1 2 3 4 5 6 
#
# 1 233.1256 8.9382 72.1188 0.0000 0.0000 0.0000
# 2 8.9382 70.7019 4.3015 0.0000 0.0000 0.0000
# 3 72.1188 4.3015 207.5500 0.0000 0.0000 0.0000
# 4 0.0000 0.0000 0.0000 15.8761 0.0000 0.0000
# 5 0.0000 0.0000 0.0000 0.0000 49.7257 0.0000
# 6 0.0000 0.0000 0.0000 0.0000 0.0000 19.0765
#
#
#
# Elastic Compliance Matrix: (Units=1/GPa)
#
#
# Indices 1 2 3 4 5 6 
#
# 1 0.004824 -0.000509 -0.001666 0.000000 0.000000 0.000000
# 2 -0.000509 0.014215 -0.000118 0.000000 0.000000 0.000000
# 3 -0.001666 -0.000118 0.005399 0.000000 0.000000 0.000000
# 4 0.000000 0.000000 0.000000 0.062988 0.000000 0.000000
# 5 0.000000 0.000000 0.000000 0.000000 0.020110 0.000000
# 6 0.000000 0.000000 0.000000 0.000000 0.000000 0.052420
#
#
# Mechanical properties :
#
#
# Convention : Reuss Voigt Hill
#
# Bulk Modulus (GPa) = 50.36621 75.78825 63.07723
# Shear Modulus (GPa) = 29.21237 45.33693 37.27465
#
# Velocity S-wave (km/s) = 3.20757 3.99594 3.62326
# Velocity P-wave (km/s) = 5.60864 6.92694 6.30236
#
# Compressibility (1/GPa) = 0.01985458
#
# Stress axis : x y z
#
# Youngs Moduli (GPa) = 207.28130 70.34642 185.20603
#
# Poissons Ratio (x) = 0.03577 0.30852
# Poissons Ratio (y) = 0.10541 0.02184
# Poissons Ratio (z) = 0.34529 0.00829
#
# Static dielectric constant tensor:
#      x y z
#    x 2.301170 0.000000 0.000000 
#    y 0.000000 2.387960 0.000000 
#    z 0.000000 0.000000 2.193370 
# 
# From -- ./inp_files/3803.got.cif
#   From: 2010.05.17/outbox.cif.g08.bks.cpg/sg61_2_cif.got.tgz:3803.got - 2010.06.03 15:17:17.
