data_PCOD9460979
_publ_section_title
;
Structure prediction by ZEFSAII (Michael W. Deem and Ramdas Pophale) SiO2 
 PCOD9460979
Probable space group: P B C A
;
_chemical_formula_sum "Si O2"
_cell_formula_units_Z 48
_cell_length_a 14.219152
_cell_length_b 16.096798
_cell_length_c 9.380670
_cell_angle_alpha 90.000000
_cell_angle_beta 90.000000
_cell_angle_gamma 90.000000
_cell_volume 2147.074179
_symmetry_space_group_name_H-M "P B C A"
_symmetry_group_IT_number 61
_symmetry_cell_setting 'orthorhombic'
loop_
_space_group_symop_operation_xyz
x,y,z
1/2-x,-y,1/2+z
1/2+x,1/2-y,-z
-x,1/2+y,1/2-z
-x,-y,-z
1/2+x,y,1/2-z
1/2-x,1/2+y,z
x,1/2-y,1/2+z
loop_
_atom_site_type_symbol
_atom_site_label
_atom_site_fract_x
_atom_site_fract_y
_atom_site_fract_z
Si Si1 0.811976 0.988198 0.090006
Si Si2 0.569802 0.268560 0.944481
Si Si3 0.384897 0.166476 0.313988
Si Si4 0.715122 0.752428 0.427323
Si Si5 0.540118 0.359935 0.220075
Si Si6 0.668473 0.571191 0.798080
O O1 0.845295 0.076196 0.153075
O O2 0.883532 0.921927 0.156113
O O3 0.711572 0.961290 0.151485
O O4 0.816107 0.002396 0.921038
O O5 0.493304 0.325704 0.862258
O O6 0.680704 0.285556 0.926240
O O7 0.555418 0.177640 0.876287
O O8 0.545854 0.282640 0.109624
O O9 0.357161 0.194902 0.157397
O O10 0.326477 0.229362 0.416977
O O11 0.717613 0.843302 0.351797
O O12 0.440004 0.404104 0.211376
#
# Coordination Sequence:
#
# PCOD9460979 Si02
#       6
#     8   8   8   8   8   8
#     4  11  26  46  69 102 139 185 223 286 354 406
#     4  12  23  43  72  99 138 183 232 287 344 414
#     4  11  24  43  68 102 137 176 232 289 344 408
#     4  11  23  41  69 101 131 181 234 279 343 420
#     4  12  25  46  70 101 141 179 235 287 345 408
#     4  11  24  47  67  99 141 178 230 286 343 414
#
# _framework density 22.356003000000001
#
# number of rings (size 3 to 8) (size 9 to 14) (size 15 to 20)
#    0.000    0.667    6.667    1.500    2.333    0.000 
#    3.000    2.500    0.000    0.000    0.000    0.000 
#    0.000    0.000    0.000    0.000    0.000    0.000 
#
# Total GULP energy -268477.345983 kJ/mol
# GULP energy per Si atom -5593.278041 kJ/mol
# Density = 2.230512 g / cm^3
# Si number density = 22.356003 Si / 1000 Ang^3
#
#
#
# Elastic Constant Matrix: (Units=GPa)
#
#
# Indices 1 2 3 4 5 6 
#
# 1 120.4557 11.8647 28.8063 0.0000 0.0000 0.0000
# 2 11.8647 42.4039 35.6611 0.0000 0.0000 0.0000
# 3 28.8063 35.6611 66.3407 0.0000 0.0000 0.0000
# 4 0.0000 0.0000 0.0000 32.9271 0.0000 0.0000
# 5 0.0000 0.0000 0.0000 0.0000 -4.3571 0.0000
# 6 0.0000 0.0000 0.0000 0.0000 0.0000 33.5781
#
#
#
# Elastic Compliance Matrix: (Units=1/GPa)
#
#
# Indices 1 2 3 4 5 6 
#
# 1 0.009312 0.001451 -0.004824 0.000000 0.000000 0.000000
# 2 0.001451 0.043266 -0.023887 0.000000 0.000000 0.000000
# 3 -0.004824 -0.023887 0.030009 0.000000 0.000000 0.000000
# 4 0.000000 0.000000 0.000000 0.030370 0.000000 0.000000
# 5 0.000000 0.000000 0.000000 0.000000 -0.229510 0.000000
# 6 0.000000 0.000000 0.000000 0.000000 0.000000 0.029781
#
#
# Mechanical properties :
#
#
# Convention : Reuss Voigt Hill
#
# Bulk Modulus (GPa) = 35.62912 42.42942 39.02927
# Shear Modulus (GPa) = -218.37546 22.62081 -97.87733
#
# Velocity S-wave (km/s) = -9.89409 3.18440 -6.62392
# Velocity P-wave (km/s) = 10.70291 5.70445 6.40357
#
# Compressibility (1/GPa) = 0.02806693
#
# Stress axis : x y z
#
# Youngs Moduli (GPa) = 107.38349 23.11301 33.32373
#
# Poissons Ratio (x) = -0.03353 0.16074
# Poissons Ratio (y) = -0.15580 0.79601
# Poissons Ratio (z) = 0.51797 0.55211
#
# Static dielectric constant tensor:
#      x y z
#    x 1.821770 0.000000 0.000000 
#    y 0.000000 1.829700 0.000000 
#    z 0.000000 0.000000 1.813100 
# 
# From -- ./inp_files/2879.got.cif
#   From: 2010.05.17/outbox.cif.g08.bks.cpg/sg61_2_cif.got.tgz:2879.got - 2010.06.03 15:17:17.
