data_PCOD9460286
_publ_section_title
;
Structure prediction by ZEFSAII (Michael W. Deem and Ramdas Pophale) SiO2 
 PCOD9460286
Probable space group: P B C A
;
_chemical_formula_sum "Si O2"
_cell_formula_units_Z 64
_cell_length_a 9.131330
_cell_length_b 22.337862
_cell_length_c 13.701053
_cell_angle_alpha 90.000000
_cell_angle_beta 90.000000
_cell_angle_gamma 90.000000
_cell_volume 2794.663920
_symmetry_space_group_name_H-M "P B C A"
_symmetry_group_IT_number 61
_symmetry_cell_setting 'orthorhombic'
loop_
_space_group_symop_operation_xyz
x,y,z
1/2-x,-y,1/2+z
1/2+x,1/2-y,-z
-x,1/2+y,1/2-z
-x,-y,-z
1/2+x,y,1/2-z
1/2-x,1/2+y,z
x,1/2-y,1/2+z
loop_
_atom_site_type_symbol
_atom_site_label
_atom_site_fract_x
_atom_site_fract_y
_atom_site_fract_z
Si Si1 0.114154 0.009818 0.901215
Si Si2 0.297784 0.654898 0.204261
Si Si3 0.153935 0.433067 0.879156
Si Si4 0.091622 0.597667 0.513839
Si Si5 0.156720 0.932066 0.544586
Si Si6 0.465662 0.241801 0.262680
Si Si7 0.436196 0.778070 0.448161
Si Si8 0.891347 0.182758 0.563701
O O1 0.226949 0.025773 0.990859
O O2 0.035296 0.946725 0.926712
O O3 0.992215 0.061504 0.897121
O O4 0.240836 0.984692 0.830199
O O5 0.353542 0.619047 0.299251
O O6 0.236562 0.609148 0.124855
O O7 0.428625 0.698950 0.174178
O O8 0.167762 0.699530 0.233163
O O9 0.993128 0.456063 0.907604
O O10 0.239585 0.405489 0.975455
O O11 0.036490 0.664702 0.523929
O O12 0.106124 0.886617 0.459497
O O13 0.545475 0.264985 0.166565
O O14 0.415165 0.297892 0.325789
O O15 0.268396 0.793565 0.467623
O O16 0.490940 0.718607 0.500787
#
# Coordination Sequence:
#
# PCOD9460286 Si02
#       8
#     8   8   8   8   8   8   8   8
#     4   9  21  41  67  96 121 176 219 270 334 400
#     4  12  23  41  63  98 132 172 226 278 327 400
#     4  10  22  40  65  96 132 165 228 280 327 391
#     4   9  21  39  68  90 131 171 216 269 340 391
#     4  12  23  41  68  99 131 180 224 279 346 396
#     4  12  26  41  62  98 138 171 223 273 338 410
#     4  12  24  43  64  99 130 179 217 273 340 405
#     4  12  26  41  68  97 137 174 220 277 342 403
#
# _framework density 22.900787000000001
#
# number of rings (size 3 to 8) (size 9 to 14) (size 15 to 20)
#    0.750    0.250    5.000    1.875    3.500    0.000 
#    0.000    1.250    2.750    0.000    0.000    0.000 
#    0.000    0.000    0.000    0.000    0.000    0.000 
#
# Total GULP energy -356478.483090 kJ/mol
# GULP energy per Si atom -5569.976298 kJ/mol
# Density = 2.284866 g / cm^3
# Si number density = 22.900787 Si / 1000 Ang^3
#
#
#
# Elastic Constant Matrix: (Units=GPa)
#
#
# Indices 1 2 3 4 5 6 
#
# 1 72.3769 -3.4520 1.0857 0.0000 0.0000 0.0000
# 2 -3.4520 52.6733 19.0744 0.0000 0.0000 0.0000
# 3 1.0857 19.0744 48.7474 0.0000 0.0000 0.0000
# 4 0.0000 0.0000 0.0000 27.3341 0.0000 0.0000
# 5 0.0000 0.0000 0.0000 0.0000 12.6384 0.0000
# 6 0.0000 0.0000 0.0000 0.0000 0.0000 35.7258
#
#
#
# Elastic Compliance Matrix: (Units=1/GPa)
#
#
# Indices 1 2 3 4 5 6 
#
# 1 0.013885 0.001191 -0.000775 0.000000 0.000000 0.000000
# 2 0.001191 0.022221 -0.008721 0.000000 0.000000 0.000000
# 3 -0.000775 -0.008721 0.023944 0.000000 0.000000 0.000000
# 4 0.000000 0.000000 0.000000 0.036584 0.000000 0.000000
# 5 0.000000 0.000000 0.000000 0.000000 0.079124 0.000000
# 6 0.000000 0.000000 0.000000 0.000000 0.000000 0.027991
#
#
# Mechanical properties :
#
#
# Convention : Reuss Voigt Hill
#
# Bulk Modulus (GPa) = 23.02124 23.02374 23.02249
# Shear Modulus (GPa) = 21.29105 25.61231 23.45168
#
# Velocity S-wave (km/s) = 3.05242 3.34788 3.20356
# Velocity P-wave (km/s) = 4.74315 5.00199 4.87429
#
# Compressibility (1/GPa) = 0.04343815
#
# Stress axis : x y z
#
# Youngs Moduli (GPa) = 72.02026 45.00194 41.76445
#
# Poissons Ratio (x) = -0.05358 0.03237
# Poissons Ratio (y) = -0.08575 0.36425
# Poissons Ratio (z) = 0.05583 0.39248
#
# Static dielectric constant tensor:
#      x y z
#    x 1.953080 0.000000 0.000000 
#    y 0.000000 1.841500 0.000000 
#    z 0.000000 0.000000 1.914500 
# 
# From -- ./inp_files/7254.got.cif
#   From: 2010.05.17/outbox.cif.g08.bks.cpg/sg61_4_cif.got.tgz:7254.got - 2010.06.03 15:17:17.
