data_PCOD9460004
_publ_section_title
;
Structure prediction by ZEFSAII (Michael W. Deem and Ramdas Pophale) SiO2 
 PCOD9460004
Probable space group: P B C A
;
_chemical_formula_sum "Si O2"
_cell_formula_units_Z 48
_cell_length_a 12.725448
_cell_length_b 7.935089
_cell_length_c 17.257679
_cell_angle_alpha 90.000000
_cell_angle_beta 90.000000
_cell_angle_gamma 90.000000
_cell_volume 1742.638359
_symmetry_space_group_name_H-M "P B C A"
_symmetry_group_IT_number 61
_symmetry_cell_setting 'orthorhombic'
loop_
_space_group_symop_operation_xyz
x,y,z
1/2-x,-y,1/2+z
1/2+x,1/2-y,-z
-x,1/2+y,1/2-z
-x,-y,-z
1/2+x,y,1/2-z
1/2-x,1/2+y,z
x,1/2-y,1/2+z
loop_
_atom_site_type_symbol
_atom_site_label
_atom_site_fract_x
_atom_site_fract_y
_atom_site_fract_z
Si Si1 0.422916 0.645248 0.397495
Si Si2 0.813312 0.059179 0.829074
Si Si3 0.268186 0.933973 0.442722
Si Si4 0.927787 0.344872 0.744612
Si Si5 0.617134 0.778205 0.477706
Si Si6 0.115579 0.305218 0.202472
O O1 0.338417 0.794945 0.402124
O O2 0.341968 0.489871 0.404186
O O3 0.492463 0.643630 0.319478
O O4 0.507193 0.680278 0.467085
O O5 0.883137 0.099023 0.902970
O O6 0.693559 0.095308 0.853774
O O7 0.843621 0.204827 0.767856
O O8 0.832132 0.879603 0.791467
O O9 0.217793 0.848021 0.520452
O O10 0.346696 0.090756 0.456227
O O11 0.999792 0.256128 0.680324
O O12 0.895479 0.539124 0.735741
#
# Coordination Sequence:
#
# PCOD9460004 Si02
#       6
#     8   8   8   8   8   8
#     4  10  23  42  61  94 131 168 219 264 328 398
#     4  11  23  41  67  97 128 168 221 274 325 386
#     4  10  21  41  64  92 131 174 209 266 338 386
#     4  11  25  43  64  98 130 169 220 270 330 390
#     4  10  21  40  65  95 127 168 223 270 320 395
#     4  12  23  43  67  95 130 171 218 274 328 388
#
# _framework density 27.544443000000001
#
# number of rings (size 3 to 8) (size 9 to 14) (size 15 to 20)
#    0.000    1.333    3.333    2.000    2.333    1.333 
#   15.000    0.000    0.000    0.000    0.000    0.000 
#    0.000    0.000    0.000    0.000    0.000    0.000 
#
# Total GULP energy -267556.558588 kJ/mol
# GULP energy per Si atom -5574.094971 kJ/mol
# Density = 2.748175 g / cm^3
# Si number density = 27.544443 Si / 1000 Ang^3
#
#
#
# Elastic Constant Matrix: (Units=GPa)
#
#
# Indices 1 2 3 4 5 6 
#
# 1 137.5278 74.4399 42.9596 0.0000 0.0000 0.0000
# 2 74.4399 216.5019 35.4108 0.0000 0.0000 0.0000
# 3 42.9596 35.4108 41.4971 0.0000 0.0000 0.0000
# 4 0.0000 0.0000 0.0000 31.7368 0.0000 0.0000
# 5 0.0000 0.0000 0.0000 0.0000 26.1876 0.0000
# 6 0.0000 0.0000 0.0000 0.0000 0.0000 72.1929
#
#
#
# Elastic Compliance Matrix: (Units=1/GPa)
#
#
# Indices 1 2 3 4 5 6 
#
# 1 0.011711 -0.002375 -0.010097 0.000000 0.000000 0.000000
# 2 -0.002375 0.005850 -0.002533 0.000000 0.000000 0.000000
# 3 -0.010097 -0.002533 0.036712 0.000000 0.000000 0.000000
# 4 0.000000 0.000000 0.000000 0.031509 0.000000 0.000000
# 5 0.000000 0.000000 0.000000 0.000000 0.038186 0.000000
# 6 0.000000 0.000000 0.000000 0.000000 0.000000 0.013852
#
#
# Mechanical properties :
#
#
# Convention : Reuss Voigt Hill
#
# Bulk Modulus (GPa) = 41.21496 77.90529 59.56012
# Shear Modulus (GPa) = 28.42245 42.20455 35.31350
#
# Velocity S-wave (km/s) = 3.21577 3.91862 3.58446
# Velocity P-wave (km/s) = 5.36505 6.98706 6.22908
#
# Compressibility (1/GPa) = 0.02426303
#
# Stress axis : x y z
#
# Youngs Moduli (GPa) = 85.39159 170.94518 27.23886
#
# Poissons Ratio (x) = 0.40601 0.27502
# Poissons Ratio (y) = 0.20281 0.06900
# Poissons Ratio (z) = 0.86218 0.43301
#
# Static dielectric constant tensor:
#      x y z
#    x 2.199370 0.000000 0.000000 
#    y 0.000000 2.185940 0.000000 
#    z 0.000000 0.000000 2.230970 
# 
# From -- ./inp_files/4235.got.cif
#   From: 2010.05.17/outbox.cif.g08.bks.cpg/sg61_3_cif.got.tgz:4235.got - 2010.06.03 15:17:17.
