data_PCOD9460315
_publ_section_title
;
Structure prediction by ZEFSAII (Michael W. Deem and Ramdas Pophale) SiO2 
 PCOD9460315
Probable space group: P B C A
;
_chemical_formula_sum "Si O2"
_cell_formula_units_Z 64
_cell_length_a 13.351578
_cell_length_b 15.575908
_cell_length_c 12.267657
_cell_angle_alpha 90.000000
_cell_angle_beta 90.000000
_cell_angle_gamma 90.000000
_cell_volume 2551.218146
_symmetry_space_group_name_H-M "P B C A"
_symmetry_group_IT_number 61
_symmetry_cell_setting 'orthorhombic'
loop_
_space_group_symop_operation_xyz
x,y,z
1/2-x,-y,1/2+z
1/2+x,1/2-y,-z
-x,1/2+y,1/2-z
-x,-y,-z
1/2+x,y,1/2-z
1/2-x,1/2+y,z
x,1/2-y,1/2+z
loop_
_atom_site_type_symbol
_atom_site_label
_atom_site_fract_x
_atom_site_fract_y
_atom_site_fract_z
Si Si1 0.380053 0.987499 0.724990
Si Si2 0.605234 0.324271 0.382408
Si Si3 0.954546 0.230823 0.448206
Si Si4 0.279186 0.209407 0.451398
Si Si5 0.675567 0.587831 0.353975
Si Si6 0.882542 0.687958 0.208072
Si Si7 0.280721 0.084579 0.919467
Si Si8 0.587494 0.461683 0.187809
O O1 0.292462 0.937271 0.661778
O O2 0.422963 0.908403 0.797095
O O3 0.332565 0.056689 0.806991
O O4 0.471233 0.028769 0.660111
O O5 0.506260 0.326179 0.456825
O O6 0.702966 0.328105 0.458805
O O7 0.610241 0.231508 0.324547
O O8 0.602244 0.391360 0.284284
O O9 0.892391 0.305219 0.508958
O O10 0.873205 0.181699 0.372456
O O11 0.049952 0.247479 0.371665
O O12 0.230302 0.181439 0.337811
O O13 0.276394 0.313176 0.437516
O O14 0.661258 0.547225 0.475728
O O15 0.623741 0.546229 0.250833
O O16 0.166134 0.054590 0.907381
#
# Coordination Sequence:
#
# PCOD9460315 Si02
#       8
#     8   8   8   8   8   8   8   8
#     4  11  24  41  70  97 132 174 226 280 334 407
#     4  11  24  40  68  95 134 180 219 281 341 405
#     4  10  22  41  66  94 124 180 221 272 333 406
#     4  10  22  43  61  96 135 168 223 273 337 394
#     4  10  22  41  63  94 133 169 226 270 333 394
#     4  11  22  42  65  97 130 173 219 280 339 401
#     4  10  22  42  66  95 131 181 217 279 336 401
#     4  11  22  42  64 100 132 175 225 274 335 410
#
# _framework density 25.086055000000002
#
# number of rings (size 3 to 8) (size 9 to 14) (size 15 to 20)
#    0.000    1.500    2.500    3.000    3.500    3.500 
#    4.500    0.000    0.000    0.000    0.000    0.000 
#    0.000    0.000    0.000    0.000    0.000    0.000 
#
# Total GULP energy -357210.175083 kJ/mol
# GULP energy per Si atom -5581.408986 kJ/mol
# Density = 2.502896 g / cm^3
# Si number density = 25.086055 Si / 1000 Ang^3
#
#
#
# Elastic Constant Matrix: (Units=GPa)
#
#
# Indices 1 2 3 4 5 6 
#
# 1 118.8697 -3.2534 4.8848 0.0000 0.0000 0.0000
# 2 -3.2534 52.8026 -3.2973 0.0000 0.0000 0.0000
# 3 4.8848 -3.2973 59.9170 0.0000 0.0000 0.0000
# 4 0.0000 0.0000 0.0000 15.7793 0.0000 0.0000
# 5 0.0000 0.0000 0.0000 0.0000 39.2048 0.0000
# 6 0.0000 0.0000 0.0000 0.0000 0.0000 28.5662
#
#
#
# Elastic Compliance Matrix: (Units=1/GPa)
#
#
# Indices 1 2 3 4 5 6 
#
# 1 0.008453 0.000479 -0.000663 0.000000 0.000000 0.000000
# 2 0.000479 0.019031 0.001008 0.000000 0.000000 0.000000
# 3 -0.000663 0.001008 0.016799 0.000000 0.000000 0.000000
# 4 0.000000 0.000000 0.000000 0.063374 0.000000 0.000000
# 5 0.000000 0.000000 0.000000 0.000000 0.025507 0.000000
# 6 0.000000 0.000000 0.000000 0.000000 0.000000 0.035006
#
#
# Mechanical properties :
#
#
# Convention : Reuss Voigt Hill
#
# Bulk Modulus (GPa) = 21.77086 25.36194 23.56640
# Shear Modulus (GPa) = 27.49793 32.26042 29.87918
#
# Velocity S-wave (km/s) = 3.31440 3.58996 3.45493
# Velocity P-wave (km/s) = 4.83159 5.22644 5.03289
#
# Compressibility (1/GPa) = 0.04593296
#
# Stress axis : x y z
#
# Youngs Moduli (GPa) = 118.30215 52.54591 59.52640
#
# Poissons Ratio (x) = -0.02519 0.03945
# Poissons Ratio (y) = -0.05672 -0.06001
# Poissons Ratio (z) = 0.07841 -0.05298
#
# Static dielectric constant tensor:
#      x y z
#    x 2.039850 0.000000 0.000000 
#    y 0.000000 2.032740 0.000000 
#    z 0.000000 0.000000 1.993420 
# 
# From -- ./inp_files/7627.got.cif
#   From: 2010.05.17/outbox.cif.g08.bks.cpg/sg61_4_cif.got.tgz:7627.got - 2010.06.03 15:17:17.
