data_PCOD9460177
_publ_section_title
;
Structure prediction by ZEFSAII (Michael W. Deem and Ramdas Pophale) SiO2 
 PCOD9460177
Probable space group: P B C A
;
_chemical_formula_sum "Si O2"
_cell_formula_units_Z 48
_cell_length_a 13.739481
_cell_length_b 14.577415
_cell_length_c 9.648311
_cell_angle_alpha 90.000000
_cell_angle_beta 90.000000
_cell_angle_gamma 90.000000
_cell_volume 1932.422740
_symmetry_space_group_name_H-M "P B C A"
_symmetry_group_IT_number 61
_symmetry_cell_setting 'orthorhombic'
loop_
_space_group_symop_operation_xyz
x,y,z
1/2-x,-y,1/2+z
1/2+x,1/2-y,-z
-x,1/2+y,1/2-z
-x,-y,-z
1/2+x,y,1/2-z
1/2-x,1/2+y,z
x,1/2-y,1/2+z
loop_
_atom_site_type_symbol
_atom_site_label
_atom_site_fract_x
_atom_site_fract_y
_atom_site_fract_z
Si Si1 0.777281 0.496540 0.019167
Si Si2 0.483947 0.209280 0.760313
Si Si3 0.846666 0.301309 0.971045
Si Si4 0.045065 0.060605 0.374109
Si Si5 0.154084 0.188581 0.551714
Si Si6 0.438553 0.517497 0.865245
O O1 0.671571 0.488822 0.083952
O O2 0.851398 0.511943 0.149123
O O3 0.809874 0.404416 0.943330
O O4 0.800725 0.585646 0.922473
O O5 0.410875 0.196712 0.890276
O O6 0.411988 0.255886 0.648584
O O7 0.586527 0.239614 0.835834
O O8 0.524951 0.113791 0.697511
O O9 0.079045 0.340859 0.930318
O O10 0.746761 0.245932 0.992169
O O11 0.973646 0.057226 0.246759
O O12 0.000000 0.000000 0.500000
O O13 0.500000 0.500000 0.000000
#
# Coordination Sequence:
#
# PCOD9460177 Si02
#       6
#     8   8   8   8   8   8
#     4  10  25  50  79 116 168 222 271 357 417 511
#     4  12  28  53  78 120 171 212 286 360 411 521
#     4  12  28  52  84 118 169 228 281 353 442 496
#     4  10  21  49  81 109 164 220 266 347 421 482
#     4  10  25  54  84 119 168 221 284 350 430 510
#     4  12  25  46  81 121 160 219 285 342 420 509
#
# _framework density 24.839283999999999
#
# number of rings (size 3 to 8) (size 9 to 14) (size 15 to 20)
#    1.000    0.000    3.333    1.000    4.667    4.000 
#   18.000    1.667    0.000    0.000    0.000    0.000 
#    0.000    0.000    0.000    0.000    0.000    0.000 
#
# Total GULP energy -268046.505250 kJ/mol
# GULP energy per Si atom -5584.302193 kJ/mol
# Density = 2.478275 g / cm^3
# Si number density = 24.839284 Si / 1000 Ang^3
#
#
#
# Elastic Constant Matrix: (Units=GPa)
#
#
# Indices 1 2 3 4 5 6 
#
# 1 244.4656 46.4868 88.8158 0.0000 0.0000 0.0000
# 2 46.4868 76.0059 19.6764 0.0000 0.0000 0.0000
# 3 88.8158 19.6764 136.3015 0.0000 0.0000 0.0000
# 4 0.0000 0.0000 0.0000 28.2383 0.0000 0.0000
# 5 0.0000 0.0000 0.0000 0.0000 38.2744 0.0000
# 6 0.0000 0.0000 0.0000 0.0000 0.0000 64.2158
#
#
#
# Elastic Compliance Matrix: (Units=1/GPa)
#
#
# Indices 1 2 3 4 5 6 
#
# 1 0.005844 -0.002689 -0.003420 0.000000 0.000000 0.000000
# 2 -0.002689 0.014905 -0.000399 0.000000 0.000000 0.000000
# 3 -0.003420 -0.000399 0.009623 0.000000 0.000000 0.000000
# 4 0.000000 0.000000 0.000000 0.035413 0.000000 0.000000
# 5 0.000000 0.000000 0.000000 0.000000 0.026127 0.000000
# 6 0.000000 0.000000 0.000000 0.000000 0.000000 0.015572
#
#
# Mechanical properties :
#
#
# Convention : Reuss Voigt Hill
#
# Bulk Modulus (GPa) = 57.62010 85.19233 71.40621
# Shear Modulus (GPa) = 39.59223 46.26528 42.92876
#
# Velocity S-wave (km/s) = 3.99674 4.32045 4.16175
# Velocity P-wave (km/s) = 6.67429 7.69807 7.20439
#
# Compressibility (1/GPa) = 0.01735506
#
# Stress axis : x y z
#
# Youngs Moduli (GPa) = 171.10168 67.09140 103.91852
#
# Poissons Ratio (x) = 0.18042 0.35541
# Poissons Ratio (y) = 0.46013 0.04150
# Poissons Ratio (z) = 0.58519 0.02679
#
# Static dielectric constant tensor:
#      x y z
#    x 1.952840 0.000000 0.000000 
#    y 0.000000 1.992240 0.000000 
#    z 0.000000 0.000000 1.992930 
# 
# From -- ./inp_files/2251.got.cif
#   From: 2010.05.17/outbox.cif.g08.bks.cpg/sg61_2_cif.got.tgz:2251.got - 2010.06.03 15:17:17.
