data_PCOD9460207
_publ_section_title
;
Structure prediction by ZEFSAII (Michael W. Deem and Ramdas Pophale) SiO2 
 PCOD9460207
Probable space group: P B C A
;
_chemical_formula_sum "Si O2"
_cell_formula_units_Z 64
_cell_length_a 12.738452
_cell_length_b 19.706201
_cell_length_c 9.630220
_cell_angle_alpha 90.000000
_cell_angle_beta 90.000000
_cell_angle_gamma 90.000000
_cell_volume 2417.440378
_symmetry_space_group_name_H-M "P B C A"
_symmetry_group_IT_number 61
_symmetry_cell_setting 'orthorhombic'
loop_
_space_group_symop_operation_xyz
x,y,z
1/2-x,-y,1/2+z
1/2+x,1/2-y,-z
-x,1/2+y,1/2-z
-x,-y,-z
1/2+x,y,1/2-z
1/2-x,1/2+y,z
x,1/2-y,1/2+z
loop_
_atom_site_type_symbol
_atom_site_label
_atom_site_fract_x
_atom_site_fract_y
_atom_site_fract_z
Si Si1 0.328020 0.004075 0.040877
Si Si2 0.218743 0.163727 0.829626
Si Si3 0.648189 0.952947 0.279268
Si Si4 0.214893 0.187602 0.346013
Si Si5 0.911703 0.651364 0.422019
Si Si6 0.904587 0.380450 0.749049
Si Si7 0.006203 0.711694 0.032416
Si Si8 0.035208 0.114037 0.675693
O O1 0.375683 0.065343 0.133814
O O2 0.211133 0.991826 0.102170
O O3 0.400542 0.940581 0.086560
O O4 0.337532 0.013807 0.875072
O O5 0.290884 0.118244 0.735929
O O6 0.258687 0.237235 0.870554
O O7 0.110997 0.169508 0.742890
O O8 0.170786 0.126007 0.963669
O O9 0.527778 0.930340 0.289124
O O10 0.306002 0.132559 0.351507
O O11 0.165932 0.182406 0.192802
O O12 0.112467 0.184012 0.440231
O O13 0.991295 0.602819 0.339211
O O14 0.986417 0.711106 0.486751
O O15 0.929638 0.309152 0.830258
O O16 0.043819 0.659491 0.914667
#
# Coordination Sequence:
#
# PCOD9460207 Si02
#       8
#     8   8   8   8   8   8   8   8
#     4  11  26  43  64  96 127 171 224 267 324 382
#     4  10  23  42  62  95 130 167 210 273 321 387
#     4  11  25  43  70  89 129 173 223 268 329 388
#     4  10  22  38  62  93 130 159 206 266 319 387
#     4  10  22  40  62  96 131 162 212 262 321 388
#     4  11  24  39  65  95 126 171 212 262 326 388
#     4  10  22  39  63  92 123 166 210 256 322 384
#     4  11  23  44  64  89 126 173 210 266 321 386
#
# _framework density 26.474281000000001
#
# number of rings (size 3 to 8) (size 9 to 14) (size 15 to 20)
#    0.000    1.500    2.500    1.125    3.500    4.000 
#    2.250    2.500    0.000    0.000    0.000    0.000 
#    0.000    0.000    0.000    0.000    0.000    0.000 
#
# Total GULP energy -357934.373469 kJ/mol
# GULP energy per Si atom -5592.724585 kJ/mol
# Density = 2.641402 g / cm^3
# Si number density = 26.474281 Si / 1000 Ang^3
#
#
#
# Elastic Constant Matrix: (Units=GPa)
#
#
# Indices 1 2 3 4 5 6 
#
# 1 56.2920 9.5703 -6.8113 0.0000 0.0000 0.0000
# 2 9.5703 73.5460 -7.2487 0.0000 0.0000 0.0000
# 3 -6.8113 -7.2487 55.4837 0.0000 0.0000 0.0000
# 4 0.0000 0.0000 0.0000 30.1416 0.0000 0.0000
# 5 0.0000 0.0000 0.0000 0.0000 35.2865 0.0000
# 6 0.0000 0.0000 0.0000 0.0000 0.0000 28.0155
#
#
#
# Elastic Compliance Matrix: (Units=1/GPa)
#
#
# Indices 1 2 3 4 5 6 
#
# 1 0.018376 -0.002197 0.001969 0.000000 0.000000 0.000000
# 2 -0.002197 0.014037 0.001564 0.000000 0.000000 0.000000
# 3 0.001969 0.001564 0.018469 0.000000 0.000000 0.000000
# 4 0.000000 0.000000 0.000000 0.033177 0.000000 0.000000
# 5 0.000000 0.000000 0.000000 0.000000 0.028339 0.000000
# 6 0.000000 0.000000 0.000000 0.000000 0.000000 0.035695
#
#
# Mechanical properties :
#
#
# Convention : Reuss Voigt Hill
#
# Bulk Modulus (GPa) = 18.67264 19.59359 19.13312
# Shear Modulus (GPa) = 30.62354 31.34283 30.98318
#
# Velocity S-wave (km/s) = 3.40476 3.44451 3.42469
# Velocity P-wave (km/s) = 4.74605 4.82044 4.78339
#
# Compressibility (1/GPa) = 0.05355428
#
# Stress axis : x y z
#
# Youngs Moduli (GPa) = 54.41792 71.24025 54.14371
#
# Poissons Ratio (x) = 0.15653 -0.10660
# Poissons Ratio (y) = 0.11957 -0.08469
# Poissons Ratio (z) = -0.10714 -0.11143
#
# Static dielectric constant tensor:
#      x y z
#    x 2.084360 0.000000 0.000000 
#    y 0.000000 2.040140 0.000000 
#    z 0.000000 0.000000 2.146040 
# 
# From -- ./inp_files/5465.got.cif
#   From: 2010.05.17/outbox.cif.g08.bks.cpg/sg61_3_cif.got.tgz:5465.got - 2010.06.03 15:17:17.
