data_PCOD9460248
_publ_section_title
;
Structure prediction by ZEFSAII (Michael W. Deem and Ramdas Pophale) SiO2 
 PCOD9460248
Probable space group: P B C A
;
_chemical_formula_sum "Si O2"
_cell_formula_units_Z 56
_cell_length_a 10.998986
_cell_length_b 21.005746
_cell_length_c 9.497755
_cell_angle_alpha 90.000000
_cell_angle_beta 90.000000
_cell_angle_gamma 90.000000
_cell_volume 2194.379420
_symmetry_space_group_name_H-M "P B C A"
_symmetry_group_IT_number 61
_symmetry_cell_setting 'orthorhombic'
loop_
_space_group_symop_operation_xyz
x,y,z
1/2-x,-y,1/2+z
1/2+x,1/2-y,-z
-x,1/2+y,1/2-z
-x,-y,-z
1/2+x,y,1/2-z
1/2-x,1/2+y,z
x,1/2-y,1/2+z
loop_
_atom_site_type_symbol
_atom_site_label
_atom_site_fract_x
_atom_site_fract_y
_atom_site_fract_z
Si Si1 0.600290 0.299294 0.298852
Si Si2 0.159614 0.772828 0.381894
Si Si3 0.681369 0.868227 0.639097
Si Si4 0.533558 0.534076 0.285732
Si Si5 0.816007 0.828038 0.913521
Si Si6 0.613654 0.078475 0.646595
Si Si7 0.695508 0.484441 0.522599
O O1 0.712744 0.281158 0.198226
O O2 0.454983 0.289969 0.285069
O O3 0.626613 0.243372 0.413196
O O4 0.611867 0.376013 0.284731
O O5 0.150827 0.699548 0.425107
O O6 0.181814 0.818336 0.514943
O O7 0.785238 0.855322 0.759092
O O8 0.567725 0.899227 0.719018
O O9 0.722675 0.921511 0.529209
O O10 0.516837 0.477646 0.171912
O O11 0.652948 0.511868 0.373961
O O12 0.423902 0.534690 0.391751
O O13 0.894680 0.874100 0.013406
O O14 0.735600 0.040050 0.607239
#
# Coordination Sequence:
#
# PCOD9460248 Si02
#       7
#     8   8   8   8   8   8   8
#     4  10  24  42  68  98 134 183 223 289 347 413
#     4  10  24  42  68  98 135 182 225 282 352 412
#     4  10  22  41  64  91 135 166 224 277 334 416
#     4  10  22  39  71  88 130 177 222 281 336 408
#     4  10  22  42  61  96 135 171 222 282 341 414
#     4  10  22  41  63  93 134 165 226 278 333 413
#     4  10  22  41  65  97 123 181 222 280 339 401
#
# _framework density 25.519745
#
# number of rings (size 3 to 8) (size 9 to 14) (size 15 to 20)
#    0.000    2.000    1.429    0.000   10.000    4.571 
#    0.000    0.714    0.000    0.000    0.000    0.000 
#    0.000    0.000    0.000    0.000    0.000    0.000 
#
# Total GULP energy -312445.179043 kJ/mol
# GULP energy per Si atom -5579.378197 kJ/mol
# Density = 2.546166 g / cm^3
# Si number density = 25.519745 Si / 1000 Ang^3
#
#
#
# Elastic Constant Matrix: (Units=GPa)
#
#
# Indices 1 2 3 4 5 6 
#
# 1 81.6635 16.5977 35.8293 0.0000 0.0000 0.0000
# 2 16.5977 111.6489 5.5884 0.0000 0.0000 0.0000
# 3 35.8293 5.5884 66.4098 0.0000 0.0000 0.0000
# 4 0.0000 0.0000 0.0000 48.6129 0.0000 0.0000
# 5 0.0000 0.0000 0.0000 0.0000 32.4363 0.0000
# 6 0.0000 0.0000 0.0000 0.0000 0.0000 16.0245
#
#
#
# Elastic Compliance Matrix: (Units=1/GPa)
#
#
# Indices 1 2 3 4 5 6 
#
# 1 0.016482 -0.002014 -0.008723 0.000000 0.000000 0.000000
# 2 -0.002014 0.009241 0.000309 0.000000 0.000000 0.000000
# 3 -0.008723 0.000309 0.019738 0.000000 0.000000 0.000000
# 4 0.000000 0.000000 0.000000 0.020571 0.000000 0.000000
# 5 0.000000 0.000000 0.000000 0.000000 0.030830 0.000000
# 6 0.000000 0.000000 0.000000 0.000000 0.000000 0.062404
#
#
# Mechanical properties :
#
#
# Convention : Reuss Voigt Hill
#
# Bulk Modulus (GPa) = 40.64172 41.75034 41.19603
# Shear Modulus (GPa) = 26.55034 32.86188 29.70611
#
# Velocity S-wave (km/s) = 3.22900 3.59235 3.41551
# Velocity P-wave (km/s) = 5.46462 5.79674 5.63313
#
# Compressibility (1/GPa) = 0.02460525
#
# Stress axis : x y z
#
# Youngs Moduli (GPa) = 60.67359 108.21886 50.66351
#
# Poissons Ratio (x) = 0.21791 0.44192
# Poissons Ratio (y) = 0.12217 -0.01564
# Poissons Ratio (z) = 0.52924 -0.03341
#
# Static dielectric constant tensor:
#      x y z
#    x 2.016280 0.000000 0.000000 
#    y 0.000000 2.027120 0.000000 
#    z 0.000000 0.000000 2.095520 
# 
# From -- ./inp_files/5351.got.cif
#   From: 2010.05.17/outbox.cif.g08.bks.cpg/sg61_3_cif.got.tgz:5351.got - 2010.06.03 15:17:17.
