data_PCOD9460173
_publ_section_title
;
Structure prediction by ZEFSAII (Michael W. Deem and Ramdas Pophale) SiO2 
 PCOD9460173
Probable space group: P B C A
;
_chemical_formula_sum "Si O2"
_cell_formula_units_Z 32
_cell_length_a 9.456920
_cell_length_b 14.427602
_cell_length_c 9.248251
_cell_angle_alpha 90.000000
_cell_angle_beta 90.000000
_cell_angle_gamma 90.000000
_cell_volume 1261.837636
_symmetry_space_group_name_H-M "P B C A"
_symmetry_group_IT_number 61
_symmetry_cell_setting 'orthorhombic'
loop_
_space_group_symop_operation_xyz
x,y,z
1/2-x,-y,1/2+z
1/2+x,1/2-y,-z
-x,1/2+y,1/2-z
-x,-y,-z
1/2+x,y,1/2-z
1/2-x,1/2+y,z
x,1/2-y,1/2+z
loop_
_atom_site_type_symbol
_atom_site_label
_atom_site_fract_x
_atom_site_fract_y
_atom_site_fract_z
Si Si1 0.761398 0.454313 0.664030
Si Si2 0.742675 0.385331 0.963363
Si Si3 0.947563 0.880038 0.223560
Si Si4 0.289197 0.188168 0.584161
O O1 0.687361 0.422128 0.810088
O O2 0.692519 0.527905 0.551632
O O3 0.896657 0.513099 0.722337
O O4 0.799449 0.367014 0.565327
O O5 0.832785 0.294696 0.930498
O O6 0.620234 0.348846 0.069626
O O7 0.867613 0.825834 0.349886
O O8 0.111058 0.860614 0.203097
#
# Coordination Sequence:
#
# PCOD9460173 Si02
#       4
#     8   8   8   8
#     4  10  21  46  70 102 144 183 235 286 355 407
#     4  10  23  42  72 102 139 188 227 290 344 419
#     4  10  24  45  69 104 141 180 232 289 346 412
#     4  12  23  46  73 104 142 185 234 288 351 419
#
# _framework density 25.359839000000001
#
# number of rings (size 3 to 8) (size 9 to 14) (size 15 to 20)
#    1.500    0.000    2.500    2.250    0.000    4.000 
#    0.000    7.500    0.000    0.000    0.000    0.000 
#    0.000    0.000    0.000    0.000    0.000    0.000 
#
# Total GULP energy -178713.445606 kJ/mol
# GULP energy per Si atom -5584.795175 kJ/mol
# Density = 2.530212 g / cm^3
# Si number density = 25.359839 Si / 1000 Ang^3
#
#
#
# Elastic Constant Matrix: (Units=GPa)
#
#
# Indices 1 2 3 4 5 6 
#
# 1 42.3493 1.8000 13.6486 0.0000 0.0000 0.0000
# 2 1.8000 139.9751 47.2572 0.0000 0.0000 0.0000
# 3 13.6486 47.2572 131.2630 0.0000 0.0000 0.0000
# 4 0.0000 0.0000 0.0000 25.8669 0.0000 0.0000
# 5 0.0000 0.0000 0.0000 0.0000 6.8537 0.0000
# 6 0.0000 0.0000 0.0000 0.0000 0.0000 18.7222
#
#
#
# Elastic Compliance Matrix: (Units=1/GPa)
#
#
# Indices 1 2 3 4 5 6 
#
# 1 0.024479 0.000620 -0.002768 0.000000 0.000000 0.000000
# 2 0.000620 0.008148 -0.002998 0.000000 0.000000 0.000000
# 3 -0.002768 -0.002998 0.008985 0.000000 0.000000 0.000000
# 4 0.000000 0.000000 0.000000 0.038659 0.000000 0.000000
# 5 0.000000 0.000000 0.000000 0.000000 0.145907 0.000000
# 6 0.000000 0.000000 0.000000 0.000000 0.000000 0.053412
#
#
# Mechanical properties :
#
#
# Convention : Reuss Voigt Hill
#
# Bulk Modulus (GPa) = 31.92885 48.77766 40.35326
# Shear Modulus (GPa) = 16.64865 27.01401 21.83133
#
# Velocity S-wave (km/s) = 2.56500 3.26732 2.93723
# Velocity P-wave (km/s) = 4.62493 5.78877 5.23926
#
# Compressibility (1/GPa) = 0.03131963
#
# Stress axis : x y z
#
# Youngs Moduli (GPa) = 40.85130 122.72471 111.29043
#
# Poissons Ratio (x) = -0.07607 0.30811
# Poissons Ratio (y) = -0.02532 0.33365
# Poissons Ratio (z) = 0.11310 0.36793
#
# Static dielectric constant tensor:
#      x y z
#    x 2.061660 0.000000 0.000000 
#    y 0.000000 2.092900 0.000000 
#    z 0.000000 0.000000 1.949240 
# 
# From -- ./inp_files/2034.got.cif
#   From: 2010.05.17/outbox.cif.g08.bks.cpg/sg61_2_cif.got.tgz:2034.got - 2010.06.03 15:17:17.
