data_PCOD9460309
_publ_section_title
;
Structure prediction by ZEFSAII (Michael W. Deem and Ramdas Pophale) SiO2 
 PCOD9460309
Probable space group: P B C A
;
_chemical_formula_sum "Si O2"
_cell_formula_units_Z 40
_cell_length_a 12.397010
_cell_length_b 16.998125
_cell_length_c 7.902066
_cell_angle_alpha 90.000000
_cell_angle_beta 90.000000
_cell_angle_gamma 90.000000
_cell_volume 1665.170172
_symmetry_space_group_name_H-M "P B C A"
_symmetry_group_IT_number 61
_symmetry_cell_setting 'orthorhombic'
loop_
_space_group_symop_operation_xyz
x,y,z
1/2-x,-y,1/2+z
1/2+x,1/2-y,-z
-x,1/2+y,1/2-z
-x,-y,-z
1/2+x,y,1/2-z
1/2-x,1/2+y,z
x,1/2-y,1/2+z
loop_
_atom_site_type_symbol
_atom_site_label
_atom_site_fract_x
_atom_site_fract_y
_atom_site_fract_z
Si Si1 0.719243 0.244373 0.172126
Si Si2 0.855219 0.578002 0.260244
Si Si3 0.160194 0.839942 0.061212
Si Si4 0.179381 0.480949 0.088840
Si Si5 0.429200 0.887698 0.393653
O O1 0.645437 0.166980 0.190014
O O2 0.752014 0.286586 0.344498
O O3 0.655745 0.316129 0.084962
O O4 0.834569 0.207990 0.112203
O O5 0.737057 0.558806 0.341546
O O6 0.933760 0.572049 0.420836
O O7 0.874016 0.521031 0.097863
O O8 0.216961 0.924393 0.055785
O O9 0.045086 0.850579 0.142068
O O10 0.111039 0.442538 0.240459
#
# Coordination Sequence:
#
# PCOD9460309 Si02
#       5
#     8   8   8   8   8
#     4  10  22  41  62  93 129 164 214 268 313 380
#     4  11  21  42  67  89 132 172 205 266 323 371
#     4  10  23  39  63  95 125 164 221 263 314 383
#     4  10  23  43  64  94 130 169 211 264 320 381
#     4  11  23  43  66  91 130 171 210 264 326 375
#
# _framework density 24.021567000000001
#
# number of rings (size 3 to 8) (size 9 to 14) (size 15 to 20)
#    0.000    1.600    4.000    0.000    2.800    0.800 
#    0.000    1.000    0.000    0.000    0.000    0.000 
#    0.000    0.000    0.000    0.000    0.000    0.000 
#
# Total GULP energy -223001.999950 kJ/mol
# GULP energy per Si atom -5575.049999 kJ/mol
# Density = 2.396689 g / cm^3
# Si number density = 24.021567 Si / 1000 Ang^3
#
#
#
# Elastic Constant Matrix: (Units=GPa)
#
#
# Indices 1 2 3 4 5 6 
#
# 1 61.7141 17.4421 9.2512 0.0000 0.0000 0.0000
# 2 17.4421 74.1130 20.5093 0.0000 0.0000 0.0000
# 3 9.2512 20.5093 107.8154 0.0000 0.0000 0.0000
# 4 0.0000 0.0000 0.0000 24.8260 0.0000 0.0000
# 5 0.0000 0.0000 0.0000 0.0000 25.0380 0.0000
# 6 0.0000 0.0000 0.0000 0.0000 0.0000 24.6099
#
#
#
# Elastic Compliance Matrix: (Units=1/GPa)
#
#
# Indices 1 2 3 4 5 6 
#
# 1 0.017416 -0.003890 -0.000754 0.000000 0.000000 0.000000
# 2 -0.003890 0.015112 -0.002541 0.000000 0.000000 0.000000
# 3 -0.000754 -0.002541 0.009823 0.000000 0.000000 0.000000
# 4 0.000000 0.000000 0.000000 0.040280 0.000000 0.000000
# 5 0.000000 0.000000 0.000000 0.000000 0.039939 0.000000
# 6 0.000000 0.000000 0.000000 0.000000 0.000000 0.040634
#
#
# Mechanical properties :
#
#
# Convention : Reuss Voigt Hill
#
# Bulk Modulus (GPa) = 35.73931 37.56084 36.65007
# Shear Modulus (GPa) = 26.75197 27.99077 27.37137
#
# Velocity S-wave (km/s) = 3.34078 3.41726 3.37924
# Velocity P-wave (km/s) = 5.45815 5.58931 5.52412
#
# Compressibility (1/GPa) = 0.02798040
#
# Stress axis : x y z
#
# Youngs Moduli (GPa) = 57.41753 66.17466 101.80007
#
# Poissons Ratio (x) = 0.25742 0.07680
# Poissons Ratio (y) = 0.22336 0.25865
# Poissons Ratio (z) = 0.04332 0.16814
#
# Static dielectric constant tensor:
#      x y z
#    x 1.868720 0.000000 0.000000 
#    y 0.000000 1.915550 0.000000 
#    z 0.000000 0.000000 2.114260 
# 
# From -- ./inp_files/2106.got.cif
#   From: 2010.05.17/outbox.cif.g08.bks.cpg/sg61_2_cif.got.tgz:2106.got - 2010.06.03 15:17:17.
