data_PCOD9460355
_publ_section_title
;
Structure prediction by ZEFSAII (Michael W. Deem and Ramdas Pophale) SiO2 
 PCOD9460355
Probable space group: P B C A
;
_chemical_formula_sum "Si O2"
_cell_formula_units_Z 44
_cell_length_a 14.299167
_cell_length_b 8.643405
_cell_length_c 17.823989
_cell_angle_alpha 90.000000
_cell_angle_beta 90.000000
_cell_angle_gamma 90.000000
_cell_volume 2202.929034
_symmetry_space_group_name_H-M "P B C A"
_symmetry_group_IT_number 61
_symmetry_cell_setting 'orthorhombic'
loop_
_space_group_symop_operation_xyz
x,y,z
1/2-x,-y,1/2+z
1/2+x,1/2-y,-z
-x,1/2+y,1/2-z
-x,-y,-z
1/2+x,y,1/2-z
1/2-x,1/2+y,z
x,1/2-y,1/2+z
loop_
_atom_site_type_symbol
_atom_site_label
_atom_site_fract_x
_atom_site_fract_y
_atom_site_fract_z
Si Si1 0.826085 0.739389 0.975377
Si Si2 0.668467 0.557249 0.060545
Si Si3 0.000000 0.500000 0.000000
Si Si4 0.646889 0.253956 0.302074
Si Si5 0.222142 0.533253 0.789356
Si Si6 0.944615 0.199497 0.640388
O O1 0.729847 0.672530 0.009279
O O2 0.907607 0.614054 0.987985
O O3 0.850954 0.899519 0.016499
O O4 0.816445 0.768482 0.886775
O O5 0.730441 0.515236 0.132856
O O6 0.578421 0.649209 0.090494
O O7 0.959145 0.439517 0.081670
O O8 0.698782 0.398811 0.264894
O O9 0.536417 0.278351 0.310263
O O10 0.671082 0.108505 0.250528
O O11 0.145120 0.662661 0.808880
#
# Coordination Sequence:
#
# PCOD9460355 Si02
#       6
#     8   8   4   8   8   8
#     4  11  22  43  69 100 139 181 239 295 353 416
#     4  12  22  44  74  97 136 192 234 286 357 426
#     4  10  22  42  64 104 134 176 236 304 334 422
#     4  11  27  42  68 104 139 181 232 293 357 421
#     4  12  23  46  67 100 143 183 227 293 355 424
#     4  11  25  44  70 105 139 185 245 285 367 424
#
# _framework density 19.973409
#
# number of rings (size 3 to 8) (size 9 to 14) (size 15 to 20)
#    0.000    0.727    5.455    1.091    2.545    4.364 
#    0.000    7.273    0.000    0.000    0.000    0.000 
#    0.000    0.000    0.000    0.000    0.000    0.000 
#
# Total GULP energy -245022.030865 kJ/mol
# GULP energy per Si atom -5568.682520 kJ/mol
# Density = 1.992795 g / cm^3
# Si number density = 19.973409 Si / 1000 Ang^3
#
#
#
# Elastic Constant Matrix: (Units=GPa)
#
#
# Indices 1 2 3 4 5 6 
#
# 1 73.2631 -11.3033 13.9870 0.0000 0.0000 0.0000
# 2 -11.3033 19.9579 -0.4875 0.0000 0.0000 0.0000
# 3 13.9870 -0.4875 93.3386 0.0000 0.0000 0.0000
# 4 0.0000 0.0000 0.0000 29.8425 0.0000 0.0000
# 5 0.0000 0.0000 0.0000 0.0000 32.6201 0.0000
# 6 0.0000 0.0000 0.0000 0.0000 0.0000 196.5697
#
#
#
# Elastic Compliance Matrix: (Units=1/GPa)
#
#
# Indices 1 2 3 4 5 6 
#
# 1 0.015421 0.008678 -0.002266 0.000000 0.000000 0.000000
# 2 0.008678 0.054996 -0.001013 0.000000 0.000000 0.000000
# 3 -0.002266 -0.001013 0.011048 0.000000 0.000000 0.000000
# 4 0.000000 0.000000 0.000000 0.033509 0.000000 0.000000
# 5 0.000000 0.000000 0.000000 0.000000 0.030656 0.000000
# 6 0.000000 0.000000 0.000000 0.000000 0.000000 0.005087
#
#
# Mechanical properties :
#
#
# Convention : Reuss Voigt Hill
#
# Bulk Modulus (GPa) = 10.83849 21.21690 16.02770
# Shear Modulus (GPa) = 29.29589 64.09735 46.69662
#
# Velocity S-wave (km/s) = 3.83396 5.67107 4.84047
# Velocity P-wave (km/s) = 5.00373 7.31621 6.26755
#
# Compressibility (1/GPa) = 0.09226379
#
# Stress axis : x y z
#
# Youngs Moduli (GPa) = 64.84712 18.18321 90.51508
#
# Poissons Ratio (x) = -0.15780 0.20506
# Poissons Ratio (y) = -0.56277 0.09171
# Poissons Ratio (z) = 0.14691 0.01842
#
# Static dielectric constant tensor:
#      x y z
#    x 1.702880 0.000000 0.000000 
#    y 0.000000 1.709450 0.000000 
#    z 0.000000 0.000000 1.672580 
# 
# From -- ./inp_files/3364.got.cif
#   From: 2010.05.17/outbox.cif.g08.bks.cpg/sg61_2_cif.got.tgz:3364.got - 2010.06.03 15:17:17.
