data_PCOD9460021
_publ_section_title
;
Structure prediction by ZEFSAII (Michael W. Deem and Ramdas Pophale) SiO2 
 PCOD9460021
Probable space group: P B C A
;
_chemical_formula_sum "Si O2"
_cell_formula_units_Z 56
_cell_length_a 27.399582
_cell_length_b 6.284347
_cell_length_c 13.865364
_cell_angle_alpha 90.000000
_cell_angle_beta 90.000000
_cell_angle_gamma 90.000000
_cell_volume 2387.455965
_symmetry_space_group_name_H-M "P B C A"
_symmetry_group_IT_number 61
_symmetry_cell_setting 'orthorhombic'
loop_
_space_group_symop_operation_xyz
x,y,z
1/2-x,-y,1/2+z
1/2+x,1/2-y,-z
-x,1/2+y,1/2-z
-x,-y,-z
1/2+x,y,1/2-z
1/2-x,1/2+y,z
x,1/2-y,1/2+z
loop_
_atom_site_type_symbol
_atom_site_label
_atom_site_fract_x
_atom_site_fract_y
_atom_site_fract_z
Si Si1 0.366829 0.639545 0.080362
Si Si2 0.971964 0.438086 0.147791
Si Si3 0.171639 0.479387 0.948136
Si Si4 0.429135 0.370925 0.696477
Si Si5 0.759439 0.495343 0.419839
Si Si6 0.611202 0.251810 0.703205
Si Si7 0.906296 0.291177 0.507706
O O1 0.317187 0.505595 0.068611
O O2 0.382363 0.648562 0.190226
O O3 0.404325 0.543629 0.002847
O O4 0.352566 0.870767 0.042379
O O5 0.937328 0.645272 0.156316
O O6 0.029005 0.478685 0.151884
O O7 0.957792 0.300964 0.241090
O O8 0.954080 0.304571 0.056017
O O9 0.157671 0.324240 0.860179
O O10 0.227228 0.503373 0.981714
O O11 0.139425 0.690361 0.935065
O O12 0.396325 0.505621 0.770399
O O13 0.403329 0.268396 0.605291
O O14 0.749769 0.746798 0.378942
#
# Coordination Sequence:
#
# PCOD9460021 Si02
#       7
#     8   8   8   8   8   8   8
#     4  11  21  41  66  93 128 168 217 270 339 399
#     4  11  24  39  61  89 131 166 220 272 330 394
#     4  10  22  41  63  92 130 168 217 266 334 401
#     4  12  22  42  61  93 129 169 224 278 335 396
#     4  10  21  40  67  94 132 172 214 278 336 396
#     4  11  23  40  64  94 122 177 215 269 329 408
#     4  11  22  39  64  91 124 174 211 272 334 405
#
# _framework density 23.455931
#
# number of rings (size 3 to 8) (size 9 to 14) (size 15 to 20)
#    0.000    1.143    5.714    1.286    0.000    0.000 
#    0.000    7.143    0.000    0.000    0.000    0.000 
#    0.000    0.000    0.000    0.000    0.000    0.000 
#
# Total GULP energy -312096.770124 kJ/mol
# GULP energy per Si atom -5573.156609 kJ/mol
# Density = 2.340254 g / cm^3
# Si number density = 23.455931 Si / 1000 Ang^3
#
#
#
# Elastic Constant Matrix: (Units=GPa)
#
#
# Indices 1 2 3 4 5 6 
#
# 1 54.6003 30.0308 23.6465 0.0000 0.0000 0.0000
# 2 30.0308 73.9336 -0.9807 0.0000 0.0000 0.0000
# 3 23.6465 -0.9807 52.1197 0.0000 0.0000 0.0000
# 4 0.0000 0.0000 0.0000 36.4314 0.0000 0.0000
# 5 0.0000 0.0000 0.0000 0.0000 21.4983 0.0000
# 6 0.0000 0.0000 0.0000 0.0000 0.0000 33.9952
#
#
#
# Elastic Compliance Matrix: (Units=1/GPa)
#
#
# Indices 1 2 3 4 5 6 
#
# 1 0.031942 -0.013170 -0.014740 0.000000 0.000000 0.000000
# 2 -0.013170 0.018959 0.006332 0.000000 0.000000 0.000000
# 3 -0.014740 0.006332 0.025993 0.000000 0.000000 0.000000
# 4 0.000000 0.000000 0.000000 0.027449 0.000000 0.000000
# 5 0.000000 0.000000 0.000000 0.000000 0.046515 0.000000
# 6 0.000000 0.000000 0.000000 0.000000 0.000000 0.029416
#
#
# Mechanical properties :
#
#
# Convention : Reuss Voigt Hill
#
# Bulk Modulus (GPa) = 29.63964 31.78297 30.71131
# Shear Modulus (GPa) = 21.30592 26.91545 24.11069
#
# Velocity S-wave (km/s) = 3.01714 3.39114 3.20959
# Velocity P-wave (km/s) = 4.98008 5.37704 5.18236
#
# Compressibility (1/GPa) = 0.03373860
#
# Stress axis : x y z
#
# Youngs Moduli (GPa) = 31.30660 52.74509 38.47166
#
# Poissons Ratio (x) = 0.69465 0.56707
# Poissons Ratio (y) = 0.41231 -0.24360
# Poissons Ratio (z) = 0.46145 -0.33398
#
# Static dielectric constant tensor:
#      x y z
#    x 1.888880 0.000000 0.000000 
#    y 0.000000 2.083310 0.000000 
#    z 0.000000 0.000000 1.866990 
# 
# From -- ./inp_files/596.got.cif
#   From: 2010.05.17/outbox.cif.g08.bks.cpg/sg61_1_cif.got.tgz:596.got - 2010.06.03 15:17:17.
