data_PCOD9460855
_publ_section_title
;
Structure prediction by ZEFSAII (Michael W. Deem and Ramdas Pophale) SiO2 
 PCOD9460855
Probable space group: P B C A
;
_chemical_formula_sum "Si O2"
_cell_formula_units_Z 40
_cell_length_a 9.929368
_cell_length_b 8.877942
_cell_length_c 17.718735
_cell_angle_alpha 90.000000
_cell_angle_beta 90.000000
_cell_angle_gamma 90.000000
_cell_volume 1561.948186
_symmetry_space_group_name_H-M "P B C A"
_symmetry_group_IT_number 61
_symmetry_cell_setting 'orthorhombic'
loop_
_space_group_symop_operation_xyz
x,y,z
1/2-x,-y,1/2+z
1/2+x,1/2-y,-z
-x,1/2+y,1/2-z
-x,-y,-z
1/2+x,y,1/2-z
1/2-x,1/2+y,z
x,1/2-y,1/2+z
loop_
_atom_site_type_symbol
_atom_site_label
_atom_site_fract_x
_atom_site_fract_y
_atom_site_fract_z
Si Si1 0.458049 0.141694 0.169224
Si Si2 0.184791 0.280017 0.731724
Si Si3 0.618173 0.149381 0.925263
Si Si4 0.131150 0.097729 0.864882
Si Si5 0.846958 0.205992 0.045382
O O1 0.414251 0.011673 0.112477
O O2 0.592375 0.107813 0.218740
O O3 0.340360 0.183473 0.226710
O O4 0.499560 0.296897 0.127417
O O5 0.139760 0.260161 0.645947
O O6 0.160830 0.123378 0.776223
O O7 0.750086 0.152196 0.977428
O O8 0.486802 0.208498 0.968827
O O9 0.119798 0.937257 0.902291
O O10 0.253593 0.180790 0.906998
#
# Coordination Sequence:
#
# PCOD9460855 Si02
#       5
#     8   8   8   8   8
#     4  10  26  52  84 121 161 225 280 350 414 505
#     4  10  26  48  87 124 161 225 283 354 413 508
#     4  12  30  51  90 120 177 220 293 341 441 504
#     4  10  27  48  87 110 180 206 286 336 429 483
#     4  12  29  55  80 128 165 231 268 368 415 521
#
# _framework density 25.609044000000001
#
# number of rings (size 3 to 8) (size 9 to 14) (size 15 to 20)
#    1.200    0.000    0.000    2.400   11.200    5.600 
#    0.000    2.000    0.000    0.000    0.000    0.000 
#    0.000    0.000    0.000    0.000    0.000    0.000 
#
# Total GULP energy -223980.665636 kJ/mol
# GULP energy per Si atom -5599.516641 kJ/mol
# Density = 2.555076 g / cm^3
# Si number density = 25.609044 Si / 1000 Ang^3
#
#
#
# Elastic Constant Matrix: (Units=GPa)
#
#
# Indices 1 2 3 4 5 6 
#
# 1 164.6698 34.0705 49.6384 0.0000 0.0000 0.0000
# 2 34.0705 103.2830 20.0798 0.0000 0.0000 0.0000
# 3 49.6384 20.0798 140.2282 0.0000 0.0000 0.0000
# 4 0.0000 0.0000 0.0000 32.2881 0.0000 0.0000
# 5 0.0000 0.0000 0.0000 0.0000 55.8643 0.0000
# 6 0.0000 0.0000 0.0000 0.0000 0.0000 8.6678
#
#
#
# Elastic Compliance Matrix: (Units=1/GPa)
#
#
# Indices 1 2 3 4 5 6 
#
# 1 0.007150 -0.001920 -0.002256 0.000000 0.000000 0.000000
# 2 -0.001920 0.010475 -0.000820 0.000000 0.000000 0.000000
# 3 -0.002256 -0.000820 0.008047 0.000000 0.000000 0.000000
# 4 0.000000 0.000000 0.000000 0.030971 0.000000 0.000000
# 5 0.000000 0.000000 0.000000 0.000000 0.017901 0.000000
# 6 0.000000 0.000000 0.000000 0.000000 0.000000 0.115369
#
#
# Mechanical properties :
#
#
# Convention : Reuss Voigt Hill
#
# Bulk Modulus (GPa) = 63.77716 68.41759 66.09737
# Shear Modulus (GPa) = 24.37449 39.65687 32.01568
#
# Velocity S-wave (km/s) = 3.08846 3.93943 3.53961
# Velocity P-wave (km/s) = 6.13811 6.88958 6.52467
#
# Compressibility (1/GPa) = 0.01567960
#
# Stress axis : x y z
#
# Youngs Moduli (GPa) = 139.85838 95.46554 124.26525
#
# Poissons Ratio (x) = 0.18330 0.28035
# Poissons Ratio (y) = 0.26853 0.10193
# Poissons Ratio (z) = 0.31553 0.07831
#
# Static dielectric constant tensor:
#      x y z
#    x 1.978900 0.000000 0.000000 
#    y 0.000000 2.009980 0.000000 
#    z 0.000000 0.000000 2.052030 
# 
# From -- ./inp_files/8831.got.cif
#   From: 2010.05.17/outbox.cif.g08.bks.cpg/sg61_5_cif.got.tgz:8831.got - 2010.06.03 15:17:17.
