data_PCOD9460941
_publ_section_title
;
Structure prediction by ZEFSAII (Michael W. Deem and Ramdas Pophale) SiO2 
 PCOD9460941
Probable space group: P B C A
;
_chemical_formula_sum "Si O2"
_cell_formula_units_Z 40
_cell_length_a 12.881841
_cell_length_b 14.865443
_cell_length_c 8.546314
_cell_angle_alpha 90.000000
_cell_angle_beta 90.000000
_cell_angle_gamma 90.000000
_cell_volume 1636.570187
_symmetry_space_group_name_H-M "P B C A"
_symmetry_group_IT_number 61
_symmetry_cell_setting 'orthorhombic'
loop_
_space_group_symop_operation_xyz
x,y,z
1/2-x,-y,1/2+z
1/2+x,1/2-y,-z
-x,1/2+y,1/2-z
-x,-y,-z
1/2+x,y,1/2-z
1/2-x,1/2+y,z
x,1/2-y,1/2+z
loop_
_atom_site_type_symbol
_atom_site_label
_atom_site_fract_x
_atom_site_fract_y
_atom_site_fract_z
Si Si1 0.216824 0.088236 0.798641
Si Si2 0.738512 0.210440 0.275690
Si Si3 0.448273 0.828446 0.502946
Si Si4 0.853583 0.938232 0.551106
Si Si5 0.042303 0.840229 0.673278
O O1 0.260697 0.189396 0.781459
O O2 0.115232 0.095170 0.910731
O O3 0.176408 0.058311 0.629249
O O4 0.306003 0.023521 0.860790
O O5 0.642162 0.216839 0.392885
O O6 0.704880 0.145646 0.135230
O O7 0.836511 0.165364 0.357961
O O8 0.497502 0.756550 0.384699
O O9 0.528065 0.854943 0.639781
O O10 0.973548 0.914332 0.585656
#
# Coordination Sequence:
#
# PCOD9460941 Si02
#       5
#     8   8   8   8   8
#     4  12  23  47  72  98 149 184 226 297 348 410
#     4  11  24  45  73 102 140 184 232 288 355 411
#     4  11  22  43  68  98 140 178 227 286 343 409
#     4  11  24  46  67 103 140 184 235 287 348 419
#     4  11  23  41  68 105 133 180 233 278 349 415
#
# _framework density 24.44136
#
# number of rings (size 3 to 8) (size 9 to 14) (size 15 to 20)
#    0.000    0.800    6.000    2.400    5.600    0.000 
#    3.600    4.000    0.000    0.000    0.000    0.000 
#    0.000    0.000    0.000    0.000    0.000    0.000 
#
# Total GULP energy -224103.671735 kJ/mol
# GULP energy per Si atom -5602.591793 kJ/mol
# Density = 2.438573 g / cm^3
# Si number density = 24.441360 Si / 1000 Ang^3
#
#
#
# Elastic Constant Matrix: (Units=GPa)
#
#
# Indices 1 2 3 4 5 6 
#
# 1 69.7499 -2.6889 2.1186 0.0000 0.0000 0.0000
# 2 -2.6889 105.4427 14.0686 0.0000 0.0000 0.0000
# 3 2.1186 14.0686 118.9485 0.0000 0.0000 0.0000
# 4 0.0000 0.0000 0.0000 65.6967 0.0000 0.0000
# 5 0.0000 0.0000 0.0000 0.0000 21.7065 0.0000
# 6 0.0000 0.0000 0.0000 0.0000 0.0000 27.5757
#
#
#
# Elastic Compliance Matrix: (Units=1/GPa)
#
#
# Indices 1 2 3 4 5 6 
#
# 1 0.014362 0.000407 -0.000304 0.000000 0.000000 0.000000
# 2 0.000407 0.009647 -0.001148 0.000000 0.000000 0.000000
# 3 -0.000304 -0.001148 0.008548 0.000000 0.000000 0.000000
# 4 0.000000 0.000000 0.000000 0.015221 0.000000 0.000000
# 5 0.000000 0.000000 0.000000 0.000000 0.046069 0.000000
# 6 0.000000 0.000000 0.000000 0.000000 0.000000 0.036264
#
#
# Mechanical properties :
#
#
# Convention : Reuss Voigt Hill
#
# Bulk Modulus (GPa) = 32.82278 35.68198 34.25238
# Shear Modulus (GPa) = 35.12267 41.70532 38.41399
#
# Velocity S-wave (km/s) = 3.79491 4.13527 3.96874
# Velocity P-wave (km/s) = 5.71491 6.11811 5.91995
#
# Compressibility (1/GPa) = 0.03046665
#
# Stress axis : x y z
#
# Youngs Moduli (GPa) = 69.62895 103.65479 116.98333
#
# Poissons Ratio (x) = -0.04217 0.03555
# Poissons Ratio (y) = -0.02832 0.13433
# Poissons Ratio (z) = 0.02116 0.11903
#
# Static dielectric constant tensor:
#      x y z
#    x 1.939440 0.000000 0.000000 
#    y 0.000000 1.966020 0.000000 
#    z 0.000000 0.000000 1.973280 
# 
# From -- ./inp_files/2655.got.cif
#   From: 2010.05.17/outbox.cif.g08.bks.cpg/sg61_2_cif.got.tgz:2655.got - 2010.06.03 15:17:17.
