data_PCOD9460893
_publ_section_title
;
Structure prediction by ZEFSAII (Michael W. Deem and Ramdas Pophale) SiO2 
 PCOD9460893
Probable space group: P B C A
;
_chemical_formula_sum "Si O2"
_cell_formula_units_Z 48
_cell_length_a 14.030697
_cell_length_b 18.208439
_cell_length_c 7.818253
_cell_angle_alpha 90.000000
_cell_angle_beta 90.000000
_cell_angle_gamma 90.000000
_cell_volume 1997.384529
_symmetry_space_group_name_H-M "P B C A"
_symmetry_group_IT_number 61
_symmetry_cell_setting 'orthorhombic'
loop_
_space_group_symop_operation_xyz
x,y,z
1/2-x,-y,1/2+z
1/2+x,1/2-y,-z
-x,1/2+y,1/2-z
-x,-y,-z
1/2+x,y,1/2-z
1/2-x,1/2+y,z
x,1/2-y,1/2+z
loop_
_atom_site_type_symbol
_atom_site_label
_atom_site_fract_x
_atom_site_fract_y
_atom_site_fract_z
Si Si1 0.415300 0.072534 0.680426
Si Si2 0.076267 0.347590 0.162956
Si Si3 0.723991 0.450258 0.490967
Si Si4 0.994224 0.585660 0.299817
Si Si5 0.854854 0.695285 0.462870
Si Si6 0.306627 0.394509 0.647259
O O1 0.466556 0.134038 0.794326
O O2 0.303837 0.076272 0.645380
O O3 0.460261 0.077215 0.489561
O O4 0.447082 0.992201 0.745585
O O5 0.125059 0.416591 0.071885
O O6 0.105097 0.276799 0.054487
O O7 0.124138 0.334452 0.348360
O O8 0.718856 0.538246 0.478963
O O9 0.760807 0.420601 0.671926
O O10 0.080628 0.608764 0.178204
O O11 0.914868 0.646868 0.327939
O O12 0.745265 0.679328 0.414654
#
# Coordination Sequence:
#
# PCOD9460893 Si02
#       6
#     8   8   8   8   8   8
#     4   9  18  36  61  86 116 155 195 240 292 348
#     4  11  23  41  61  86 121 157 196 245 301 355
#     4  11  21  37  62  91 120 156 199 244 294 351
#     4   9  18  36  61  86 116 155 195 240 292 348
#     4  11  23  41  61  86 121 157 196 245 301 355
#     4  11  21  37  62  91 120 156 199 244 294 351
#
# _framework density 24.031424999999999
#
# number of rings (size 3 to 8) (size 9 to 14) (size 15 to 20)
#    0.000    1.667    3.333    2.000    0.000    1.333 
#    0.000   11.667    0.000    0.000    0.000    0.000 
#    0.000    0.000    0.000    0.000    0.000    0.000 
#
# Total GULP energy -268774.601487 kJ/mol
# GULP energy per Si atom -5599.470864 kJ/mol
# Density = 2.397673 g / cm^3
# Si number density = 24.031425 Si / 1000 Ang^3
#
#
#
# Elastic Constant Matrix: (Units=GPa)
#
#
# Indices 1 2 3 4 5 6 
#
# 1 53.9506 -6.0871 5.6708 0.0000 0.0000 0.0000
# 2 -6.0871 72.9541 11.3052 0.0000 0.0000 0.0000
# 3 5.6708 11.3052 124.4180 0.0000 0.0000 0.0000
# 4 0.0000 0.0000 0.0000 28.6321 0.0000 0.0000
# 5 0.0000 0.0000 0.0000 0.0000 25.7521 0.0000
# 6 0.0000 0.0000 0.0000 0.0000 0.0000 33.1930
#
#
#
# Elastic Compliance Matrix: (Units=1/GPa)
#
#
# Indices 1 2 3 4 5 6 
#
# 1 0.018837 0.001729 -0.001016 0.000000 0.000000 0.000000
# 2 0.001729 0.014062 -0.001357 0.000000 0.000000 0.000000
# 3 -0.001016 -0.001357 0.008207 0.000000 0.000000 0.000000
# 4 0.000000 0.000000 0.000000 0.034926 0.000000 0.000000
# 5 0.000000 0.000000 0.000000 0.000000 0.038832 0.000000
# 6 0.000000 0.000000 0.000000 0.000000 0.000000 0.030127
#
#
# Mechanical properties :
#
#
# Convention : Reuss Voigt Hill
#
# Bulk Modulus (GPa) = 25.11310 30.34450 27.72880
# Shear Modulus (GPa) = 31.33813 33.54434 32.44123
#
# Velocity S-wave (km/s) = 3.61508 3.74016 3.67815
# Velocity P-wave (km/s) = 5.28184 5.59519 5.44077
#
# Compressibility (1/GPa) = 0.03981985
#
# Stress axis : x y z
#
# Youngs Moduli (GPa) = 53.08612 71.11494 121.84753
#
# Poissons Ratio (x) = -0.12297 0.12376
# Poissons Ratio (y) = -0.09179 0.16529
# Poissons Ratio (z) = 0.05392 0.09647
#
# Static dielectric constant tensor:
#      x y z
#    x 1.905870 0.000000 0.000000 
#    y 0.000000 1.870520 0.000000 
#    z 0.000000 0.000000 1.944520 
# 
# From -- ./inp_files/2865.got.cif
#   From: 2010.05.17/outbox.cif.g08.bks.cpg/sg61_2_cif.got.tgz:2865.got - 2010.06.03 15:17:17.
