data_PCOD9460291
_publ_section_title
;
Structure prediction by ZEFSAII (Michael W. Deem and Ramdas Pophale) SiO2 
 PCOD9460291
Probable space group: P B C A
;
_chemical_formula_sum "Si O2"
_cell_formula_units_Z 56
_cell_length_a 12.077774
_cell_length_b 13.132620
_cell_length_c 15.591213
_cell_angle_alpha 90.000000
_cell_angle_beta 90.000000
_cell_angle_gamma 90.000000
_cell_volume 2472.966205
_symmetry_space_group_name_H-M "P B C A"
_symmetry_group_IT_number 61
_symmetry_cell_setting 'orthorhombic'
loop_
_space_group_symop_operation_xyz
x,y,z
1/2-x,-y,1/2+z
1/2+x,1/2-y,-z
-x,1/2+y,1/2-z
-x,-y,-z
1/2+x,y,1/2-z
1/2-x,1/2+y,z
x,1/2-y,1/2+z
loop_
_atom_site_type_symbol
_atom_site_label
_atom_site_fract_x
_atom_site_fract_y
_atom_site_fract_z
Si Si1 0.638885 0.209832 0.614590
Si Si2 0.068934 0.859122 0.927569
Si Si3 0.947951 0.055163 0.894415
Si Si4 0.446013 0.375774 0.628985
Si Si5 0.357159 0.352855 0.452175
Si Si6 0.273560 0.168145 0.266350
Si Si7 0.889176 0.016725 0.715293
O O1 0.569164 0.107245 0.607959
O O2 0.549592 0.301115 0.608938
O O3 0.737117 0.202086 0.544937
O O4 0.702536 0.234377 0.703594
O O5 0.053844 0.737980 0.937156
O O6 0.153016 0.863511 0.848865
O O7 0.967555 0.934193 0.905538
O O8 0.108969 0.900039 0.020586
O O9 0.899490 0.080716 0.801911
O O10 0.391133 0.407614 0.539394
O O11 0.353341 0.320283 0.685875
O O12 0.494153 0.466944 0.686365
O O13 0.351734 0.424704 0.369658
O O14 0.190405 0.074774 0.257337
#
# Coordination Sequence:
#
# PCOD9460291 Si02
#       7
#     8   8   8   8   8   8   8
#     4  10  24  42  68 101 140 176 233 289 342 420
#     4  10  22  40  66  94 137 176 231 285 335 417
#     4  11  22  42  70 100 135 184 228 284 357 403
#     4  11  23  48  67 103 143 183 230 294 357 413
#     4  11  24  43  69 100 141 185 235 288 349 419
#     4  10  23  44  68 103 140 180 229 288 345 426
#     4  11  25  41  72 101 141 186 230 295 346 423
#
# _framework density 22.644870000000001
#
# number of rings (size 3 to 8) (size 9 to 14) (size 15 to 20)
#    0.000    1.429    2.857    1.286    4.000    3.429 
#    2.571    1.429    0.000    0.000    0.000    0.000 
#    0.000    0.000    0.000    0.000    0.000    0.000 
#
# Total GULP energy -312505.609969 kJ/mol
# GULP energy per Si atom -5580.457321 kJ/mol
# Density = 2.259333 g / cm^3
# Si number density = 22.644870 Si / 1000 Ang^3
#
#
#
# Elastic Constant Matrix: (Units=GPa)
#
#
# Indices 1 2 3 4 5 6 
#
# 1 49.4930 1.0847 38.2952 0.0000 0.0000 0.0000
# 2 1.0847 51.0297 2.9480 0.0000 0.0000 0.0000
# 3 38.2952 2.9480 151.9865 0.0000 0.0000 0.0000
# 4 0.0000 0.0000 0.0000 20.3144 0.0000 0.0000
# 5 0.0000 0.0000 0.0000 0.0000 16.6780 0.0000
# 6 0.0000 0.0000 0.0000 0.0000 0.0000 30.8396
#
#
#
# Elastic Compliance Matrix: (Units=1/GPa)
#
#
# Indices 1 2 3 4 5 6 
#
# 1 0.025099 -0.000168 -0.006321 0.000000 0.000000 0.000000
# 2 -0.000168 0.019620 -0.000338 0.000000 0.000000 0.000000
# 3 -0.006321 -0.000338 0.008179 0.000000 0.000000 0.000000
# 4 0.000000 0.000000 0.000000 0.049226 0.000000 0.000000
# 5 0.000000 0.000000 0.000000 0.000000 0.059959 0.000000
# 6 0.000000 0.000000 0.000000 0.000000 0.000000 0.032426
#
#
# Mechanical properties :
#
#
# Convention : Reuss Voigt Hill
#
# Bulk Modulus (GPa) = 25.48232 37.46277 31.47254
# Shear Modulus (GPa) = 22.59942 27.57849 25.08896
#
# Velocity S-wave (km/s) = 3.16253 3.49358 3.33217
# Velocity P-wave (km/s) = 4.96114 5.73176 5.36031
#
# Compressibility (1/GPa) = 0.03924290
#
# Stress axis : x y z
#
# Youngs Moduli (GPa) = 39.84168 50.96962 122.26842
#
# Poissons Ratio (x) = 0.00858 0.77284
# Poissons Ratio (y) = 0.00671 0.04134
# Poissons Ratio (z) = 0.25183 0.01723
#
# Static dielectric constant tensor:
#      x y z
#    x 1.849490 0.000000 0.000000 
#    y 0.000000 1.907850 0.000000 
#    z 0.000000 0.000000 1.864190 
# 
# From -- ./inp_files/5802.got.cif
#   From: 2010.05.17/outbox.cif.g08.bks.cpg/sg61_3_cif.got.tgz:5802.got - 2010.06.03 15:17:17.
