data_PCOD9460865
_publ_section_title
;
Structure prediction by ZEFSAII (Michael W. Deem and Ramdas Pophale) SiO2 
 PCOD9460865
Probable space group: P B C A
;
_chemical_formula_sum "Si O2"
_cell_formula_units_Z 64
_cell_length_a 22.295597
_cell_length_b 8.652518
_cell_length_c 15.432639
_cell_angle_alpha 90.000000
_cell_angle_beta 90.000000
_cell_angle_gamma 90.000000
_cell_volume 2977.157526
_symmetry_space_group_name_H-M "P B C A"
_symmetry_group_IT_number 61
_symmetry_cell_setting 'orthorhombic'
loop_
_space_group_symop_operation_xyz
x,y,z
1/2-x,-y,1/2+z
1/2+x,1/2-y,-z
-x,1/2+y,1/2-z
-x,-y,-z
1/2+x,y,1/2-z
1/2-x,1/2+y,z
x,1/2-y,1/2+z
loop_
_atom_site_type_symbol
_atom_site_label
_atom_site_fract_x
_atom_site_fract_y
_atom_site_fract_z
Si Si1 0.930747 0.931871 0.777392
Si Si2 0.857746 0.342580 0.657794
Si Si3 0.394273 0.030240 0.096705
Si Si4 0.213684 0.361898 0.196261
Si Si5 0.552444 0.071971 0.740213
Si Si6 0.342040 0.171185 0.655192
Si Si7 0.771422 0.600537 0.169635
Si Si8 0.888423 0.036108 0.592172
O O1 0.941268 0.748207 0.772577
O O2 0.875775 0.006794 0.833311
O O3 0.919587 0.972108 0.677176
O O4 0.990066 0.027134 0.804260
O O5 0.893735 0.498883 0.681364
O O6 0.849302 0.251981 0.749688
O O7 0.790175 0.355058 0.621304
O O8 0.893672 0.221239 0.600260
O O9 0.372982 0.207325 0.092243
O O10 0.340505 0.927931 0.139750
O O11 0.444876 0.022116 0.169341
O O12 0.409503 0.977180 0.000615
O O13 0.271082 0.322986 0.137045
O O14 0.199233 0.232406 0.269100
O O15 0.243619 0.490232 0.257337
O O16 0.819449 0.518813 0.108644
#
# Coordination Sequence:
#
# PCOD9460865 Si02
#       8
#     8   8   8   8   8   8   8   8
#     4  11  22  40  67  88 110 154 207 244 288 356
#     4   9  19  36  58  82 116 156 198 240 284 348
#     4  11  23  37  57  90 126 156 192 247 303 344
#     4  11  18  35  60  83 117 162 203 241 285 347
#     4  11  22  40  67  88 110 154 207 244 288 356
#     4   9  19  36  58  82 116 156 198 240 284 348
#     4  11  18  35  60  83 117 162 203 241 285 347
#     4  11  23  37  57  90 126 156 192 247 303 344
#
# _framework density 21.497017
#
# number of rings (size 3 to 8) (size 9 to 14) (size 15 to 20)
#    0.000    1.500    7.500    3.000    0.000    1.500 
#    0.000    1.250    0.000    3.000    0.000    0.000 
#    0.000    0.000    0.000    0.000    0.000    0.000 
#
# Total GULP energy -356505.026272 kJ/mol
# GULP energy per Si atom -5570.391036 kJ/mol
# Density = 2.144809 g / cm^3
# Si number density = 21.497017 Si / 1000 Ang^3
#
#
#
# Elastic Constant Matrix: (Units=GPa)
#
#
# Indices 1 2 3 4 5 6 
#
# 1 70.4768 0.1642 -11.3739 0.0000 0.0000 0.0000
# 2 0.1642 99.6529 -13.8641 0.0000 0.0000 0.0000
# 3 -11.3739 -13.8641 48.1684 0.0000 0.0000 0.0000
# 4 0.0000 0.0000 0.0000 10.5373 0.0000 0.0000
# 5 0.0000 0.0000 0.0000 0.0000 8.8207 0.0000
# 6 0.0000 0.0000 0.0000 0.0000 0.0000 24.9699
#
#
#
# Elastic Compliance Matrix: (Units=1/GPa)
#
#
# Indices 1 2 3 4 5 6 
#
# 1 0.014773 0.000480 0.003627 0.000000 0.000000 0.000000
# 2 0.000480 0.010469 0.003127 0.000000 0.000000 0.000000
# 3 0.003627 0.003127 0.022517 0.000000 0.000000 0.000000
# 4 0.000000 0.000000 0.000000 0.094901 0.000000 0.000000
# 5 0.000000 0.000000 0.000000 0.000000 0.113370 0.000000
# 6 0.000000 0.000000 0.000000 0.000000 0.000000 0.040048
#
#
# Mechanical properties :
#
#
# Convention : Reuss Voigt Hill
#
# Bulk Modulus (GPa) = 16.07047 18.68339 17.37693
# Shear Modulus (GPa) = 16.53695 25.09038 20.81366
#
# Velocity S-wave (km/s) = 2.77658 3.42007 3.11499
# Velocity P-wave (km/s) = 4.21557 4.93010 4.58677
#
# Compressibility (1/GPa) = 0.06222592
#
# Stress axis : x y z
#
# Youngs Moduli (GPa) = 67.69005 95.51984 44.41131
#
# Poissons Ratio (x) = -0.04587 -0.16106
# Poissons Ratio (y) = -0.03250 -0.13886
# Poissons Ratio (z) = -0.24548 -0.29866
#
# Static dielectric constant tensor:
#      x y z
#    x 1.962430 0.000000 0.000000 
#    y 0.000000 1.907840 0.000000 
#    z 0.000000 0.000000 1.764150 
# 
# From -- ./inp_files/9830.got.cif
#   From: 2010.05.17/outbox.cif.g08.bks.cpg/sg61_5_cif.got.tgz:9830.got - 2010.06.03 15:17:17.
