data_PCOD9460419
_publ_section_title
;
Structure prediction by ZEFSAII (Michael W. Deem and Ramdas Pophale) SiO2 
 PCOD9460419
Probable space group: P B C A
;
_chemical_formula_sum "Si O2"
_cell_formula_units_Z 40
_cell_length_a 8.508768
_cell_length_b 9.068079
_cell_length_c 20.892895
_cell_angle_alpha 90.000000
_cell_angle_beta 90.000000
_cell_angle_gamma 90.000000
_cell_volume 1612.057762
_symmetry_space_group_name_H-M "P B C A"
_symmetry_group_IT_number 61
_symmetry_cell_setting 'orthorhombic'
loop_
_space_group_symop_operation_xyz
x,y,z
1/2-x,-y,1/2+z
1/2+x,1/2-y,-z
-x,1/2+y,1/2-z
-x,-y,-z
1/2+x,y,1/2-z
1/2-x,1/2+y,z
x,1/2-y,1/2+z
loop_
_atom_site_type_symbol
_atom_site_label
_atom_site_fract_x
_atom_site_fract_y
_atom_site_fract_z
Si Si1 0.068003 0.107120 0.445232
Si Si2 0.295418 0.475870 0.266699
Si Si3 0.368074 0.111363 0.522980
Si Si4 0.962345 0.328482 0.691693
Si Si5 0.377136 0.910450 0.133704
O O1 0.246394 0.142255 0.464695
O O2 0.962272 0.250242 0.450334
O O3 0.022756 0.018891 0.381449
O O4 0.000000 0.000000 0.500000
O O5 0.416299 0.601505 0.242338
O O6 0.375183 0.320122 0.283950
O O7 0.169110 0.545655 0.316032
O O8 0.196199 0.440595 0.202335
O O9 0.500000 0.000000 0.500000
O O10 0.256567 0.061948 0.581288
O O11 0.061002 0.258800 0.632867
#
# Coordination Sequence:
#
# PCOD9460419 Si02
#       5
#     8   8   8   8   8
#     4  10  22  43  70 107 139 183 241 301 366 447
#     4  12  24  46  70 103 149 196 248 310 361 447
#     4  11  24  48  74 105 146 186 242 312 369 454
#     4  12  24  46  70 104 148 194 252 305 365 447
#     4  11  24  45  75 105 145 195 244 298 382 438
#
# _framework density 24.813006000000001
#
# number of rings (size 3 to 8) (size 9 to 14) (size 15 to 20)
#    0.000    0.800    4.000    3.600    0.000    1.600 
#   18.000    0.000    0.000    0.000    0.000    0.000 
#    0.000    0.000    0.000    0.000    0.000    0.000 
#
# Total GULP energy -223826.180481 kJ/mol
# GULP energy per Si atom -5595.654512 kJ/mol
# Density = 2.475653 g / cm^3
# Si number density = 24.813006 Si / 1000 Ang^3
#
#
#
# Elastic Constant Matrix: (Units=GPa)
#
#
# Indices 1 2 3 4 5 6 
#
# 1 152.1834 33.7828 19.6387 0.0000 0.0000 0.0000
# 2 33.7828 89.4602 1.0215 0.0000 0.0000 0.0000
# 3 19.6387 1.0215 49.6093 0.0000 0.0000 0.0000
# 4 0.0000 0.0000 0.0000 38.5020 0.0000 0.0000
# 5 0.0000 0.0000 0.0000 0.0000 41.0654 0.0000
# 6 0.0000 0.0000 0.0000 0.0000 0.0000 75.6959
#
#
#
# Elastic Compliance Matrix: (Units=1/GPa)
#
#
# Indices 1 2 3 4 5 6 
#
# 1 0.007578 -0.002828 -0.002942 0.000000 0.000000 0.000000
# 2 -0.002828 0.012236 0.000868 0.000000 0.000000 0.000000
# 3 -0.002942 0.000868 0.021304 0.000000 0.000000 0.000000
# 4 0.000000 0.000000 0.000000 0.025973 0.000000 0.000000
# 5 0.000000 0.000000 0.000000 0.000000 0.024351 0.000000
# 6 0.000000 0.000000 0.000000 0.000000 0.000000 0.013211
#
#
# Mechanical properties :
#
#
# Convention : Reuss Voigt Hill
#
# Bulk Modulus (GPa) = 31.93447 44.45987 38.19717
# Shear Modulus (GPa) = 40.03305 46.83997 43.43651
#
# Velocity S-wave (km/s) = 4.02106 4.34950 4.18850
# Velocity P-wave (km/s) = 5.86997 6.57123 6.23048
#
# Compressibility (1/GPa) = 0.03131413
#
# Stress axis : x y z
#
# Youngs Moduli (GPa) = 131.95231 81.72411 46.93903
#
# Poissons Ratio (x) = 0.23114 0.13809
# Poissons Ratio (y) = 0.37320 -0.04073
# Poissons Ratio (z) = 0.38818 -0.07091
#
# Static dielectric constant tensor:
#      x y z
#    x 1.978190 0.000000 0.000000 
#    y 0.000000 2.419290 0.000000 
#    z 0.000000 0.000000 2.165600 
# 
# From -- ./inp_files/1755.got.cif
#   From: 2010.05.17/outbox.cif.g08.bks.cpg/sg61_1_cif.got.tgz:1755.got - 2010.06.03 15:17:17.
