data_PCOD9460715
_publ_section_title
;
Structure prediction by ZEFSAII (Michael W. Deem and Ramdas Pophale) SiO2 
 PCOD9460715
Probable space group: P B C A
;
_chemical_formula_sum "Si O2"
_cell_formula_units_Z 40
_cell_length_a 23.006441
_cell_length_b 8.515578
_cell_length_c 8.674069
_cell_angle_alpha 90.000000
_cell_angle_beta 90.000000
_cell_angle_gamma 90.000000
_cell_volume 1699.364119
_symmetry_space_group_name_H-M "P B C A"
_symmetry_group_IT_number 61
_symmetry_cell_setting 'orthorhombic'
loop_
_space_group_symop_operation_xyz
x,y,z
1/2-x,-y,1/2+z
1/2+x,1/2-y,-z
-x,1/2+y,1/2-z
-x,-y,-z
1/2+x,y,1/2-z
1/2-x,1/2+y,z
x,1/2-y,1/2+z
loop_
_atom_site_type_symbol
_atom_site_label
_atom_site_fract_x
_atom_site_fract_y
_atom_site_fract_z
Si Si1 0.296975 0.829263 0.638359
Si Si2 0.513768 0.480130 0.255372
Si Si3 0.577076 0.834622 0.013959
Si Si4 0.917274 0.962033 0.983340
Si Si5 0.697785 0.016359 0.027114
O O1 0.302344 0.643500 0.611393
O O2 0.288868 0.892618 0.812541
O O3 0.357182 0.896404 0.573607
O O4 0.245485 0.891731 0.528541
O O5 0.473340 0.378931 0.366271
O O6 0.551800 0.599696 0.354161
O O7 0.467658 0.561226 0.141615
O O8 0.558451 0.390362 0.142536
O O9 0.636173 0.929174 0.048023
O O10 0.588417 0.649774 0.006423
#
# Coordination Sequence:
#
# PCOD9460715 Si02
#       5
#     8   8   8   8   8
#     4  12  28  49  75 107 142 187 241 298 362 431
#     4  10  24  42  66 108 142 190 230 294 346 426
#     4  11  24  45  73 103 144 187 241 290 357 417
#     4  11  24  45  73 103 144 187 241 290 357 417
#     4  12  28  49  75 107 142 187 241 298 362 431
#
# _framework density 23.538217
#
# number of rings (size 3 to 8) (size 9 to 14) (size 15 to 20)
#    0.000    0.800    2.000    3.600    5.600    9.600 
#    0.000    0.000    0.000    0.000    0.000    0.000 
#    0.000    0.000    0.000    0.000    0.000    0.000 
#
# Total GULP energy -224152.463824 kJ/mol
# GULP energy per Si atom -5603.811596 kJ/mol
# Density = 2.348464 g / cm^3
# Si number density = 23.538217 Si / 1000 Ang^3
#
#
#
# Elastic Constant Matrix: (Units=GPa)
#
#
# Indices 1 2 3 4 5 6 
#
# 1 79.9531 38.6525 18.7005 0.0000 0.0000 0.0000
# 2 38.6525 88.6619 3.5672 0.0000 0.0000 0.0000
# 3 18.7005 3.5672 113.6967 0.0000 0.0000 0.0000
# 4 0.0000 0.0000 0.0000 31.8157 0.0000 0.0000
# 5 0.0000 0.0000 0.0000 0.0000 30.8415 0.0000
# 6 0.0000 0.0000 0.0000 0.0000 0.0000 39.7117
#
#
#
# Elastic Compliance Matrix: (Units=1/GPa)
#
#
# Indices 1 2 3 4 5 6 
#
# 1 0.016525 -0.007104 -0.002495 0.000000 0.000000 0.000000
# 2 -0.007104 0.014347 0.000718 0.000000 0.000000 0.000000
# 3 -0.002495 0.000718 0.009183 0.000000 0.000000 0.000000
# 4 0.000000 0.000000 0.000000 0.031431 0.000000 0.000000
# 5 0.000000 0.000000 0.000000 0.000000 0.032424 0.000000
# 6 0.000000 0.000000 0.000000 0.000000 0.000000 0.025181
#
#
# Mechanical properties :
#
#
# Convention : Reuss Voigt Hill
#
# Bulk Modulus (GPa) = 44.85539 44.90580 44.88059
# Shear Modulus (GPa) = 32.40770 35.23320 33.82045
#
# Velocity S-wave (km/s) = 3.71457 3.87311 3.79467
# Velocity P-wave (km/s) = 6.12333 6.25464 6.18933
#
# Compressibility (1/GPa) = 0.02229387
#
# Stress axis : x y z
#
# Youngs Moduli (GPa) = 60.51358 69.70172 108.89466
#
# Poissons Ratio (x) = 0.49515 0.27171
# Poissons Ratio (y) = 0.42988 -0.07822
# Poissons Ratio (z) = 0.15099 -0.05007
#
# Static dielectric constant tensor:
#      x y z
#    x 1.831550 0.000000 0.000000 
#    y 0.000000 1.853030 0.000000 
#    z 0.000000 0.000000 1.930180 
# 
# From -- ./inp_files/1767.got.cif
#   From: 2010.05.17/outbox.cif.g08.bks.cpg/sg61_1_cif.got.tgz:1767.got - 2010.06.03 15:17:17.
