data_PCOD9460785
_publ_section_title
;
Structure prediction by ZEFSAII (Michael W. Deem and Ramdas Pophale) SiO2 
 PCOD9460785
Probable space group: P B C A
;
_chemical_formula_sum "Si O2"
_cell_formula_units_Z 32
_cell_length_a 14.784210
_cell_length_b 8.235101
_cell_length_c 9.273861
_cell_angle_alpha 90.000000
_cell_angle_beta 90.000000
_cell_angle_gamma 90.000000
_cell_volume 1129.087593
_symmetry_space_group_name_H-M "P B C A"
_symmetry_group_IT_number 61
_symmetry_cell_setting 'orthorhombic'
loop_
_space_group_symop_operation_xyz
x,y,z
1/2-x,-y,1/2+z
1/2+x,1/2-y,-z
-x,1/2+y,1/2-z
-x,-y,-z
1/2+x,y,1/2-z
1/2-x,1/2+y,z
x,1/2-y,1/2+z
loop_
_atom_site_type_symbol
_atom_site_label
_atom_site_fract_x
_atom_site_fract_y
_atom_site_fract_z
Si Si1 0.729352 0.399422 0.449815
Si Si2 0.357023 0.455757 0.303638
Si Si3 0.575341 0.282122 0.094497
Si Si4 0.585030 0.636076 0.125235
O O1 0.671546 0.539551 0.528196
O O2 0.767440 0.447992 0.294522
O O3 0.662391 0.248633 0.487040
O O4 0.819751 0.375657 0.541932
O O5 0.414981 0.622882 0.303176
O O6 0.406344 0.288195 0.268941
O O7 0.576959 0.451763 0.180458
O O8 0.492727 0.310486 0.985971
#
# Coordination Sequence:
#
# PCOD9460785 Si02
#       4
#     8   8   8   8
#     4  10  24  47  75 115 154 203 266 323 403 478
#     4  10  24  48  74 114 154 205 256 332 397 472
#     4   9  24  46  74 115 150 207 262 323 397 474
#     4  11  21  48  73 112 154 203 264 327 386 474
#
# _framework density 28.341469
#
# number of rings (size 3 to 8) (size 9 to 14) (size 15 to 20)
#    1.500    0.500    0.000    2.250    0.000    4.000 
#   13.500    2.500    0.000    0.000    0.000    3.500 
#    0.000    0.000    0.000    0.000    0.000    0.000 
#
# Total GULP energy -178788.472504 kJ/mol
# GULP energy per Si atom -5587.139766 kJ/mol
# Density = 2.827696 g / cm^3
# Si number density = 28.341469 Si / 1000 Ang^3
#
#
#
# Elastic Constant Matrix: (Units=GPa)
#
#
# Indices 1 2 3 4 5 6 
#
# 1 132.7084 67.2607 10.1613 0.0000 0.0000 0.0000
# 2 67.2607 280.2263 75.9240 0.0000 0.0000 0.0000
# 3 10.1613 75.9240 94.0948 0.0000 0.0000 0.0000
# 4 0.0000 0.0000 0.0000 33.7119 0.0000 0.0000
# 5 0.0000 0.0000 0.0000 0.0000 57.7872 0.0000
# 6 0.0000 0.0000 0.0000 0.0000 0.0000 54.4624
#
#
#
# Elastic Compliance Matrix: (Units=1/GPa)
#
#
# Indices 1 2 3 4 5 6 
#
# 1 0.008645 -0.002332 0.000948 0.000000 0.000000 0.000000
# 2 -0.002332 0.005196 -0.003941 0.000000 0.000000 0.000000
# 3 0.000948 -0.003941 0.013705 0.000000 0.000000 0.000000
# 4 0.000000 0.000000 0.000000 0.029663 0.000000 0.000000
# 5 0.000000 0.000000 0.000000 0.000000 0.017305 0.000000
# 6 0.000000 0.000000 0.000000 0.000000 0.000000 0.018361
#
#
# Mechanical properties :
#
#
# Convention : Reuss Voigt Hill
#
# Bulk Modulus (GPa) = 59.18442 90.41350 74.79896
# Shear Modulus (GPa) = 45.80609 52.77118 49.28863
#
# Velocity S-wave (km/s) = 4.02459 4.31975 4.17478
# Velocity P-wave (km/s) = 6.52107 7.53996 7.04895
#
# Compressibility (1/GPa) = 0.01689634
#
# Stress axis : x y z
#
# Youngs Moduli (GPa) = 115.68022 192.45952 72.96641
#
# Poissons Ratio (x) = 0.44876 -0.06917
# Poissons Ratio (y) = 0.26973 0.28754
# Poissons Ratio (z) = -0.10965 0.75843
#
# Static dielectric constant tensor:
#      x y z
#    x 2.259740 0.000000 0.000000 
#    y 0.000000 2.265460 0.000000 
#    z 0.000000 0.000000 2.167770 
# 
# From -- ./inp_files/6062.got.cif
#   From: 2010.05.17/outbox.cif.g08.bks.cpg/sg61_4_cif.got.tgz:6062.got - 2010.06.03 15:17:17.
