data_PCOD9460048
_publ_section_title
;
Structure prediction by ZEFSAII (Michael W. Deem and Ramdas Pophale) SiO2 
 PCOD9460048
Probable space group: P B C A
;
_chemical_formula_sum "Si O2"
_cell_formula_units_Z 60
_cell_length_a 7.092928
_cell_length_b 24.526033
_cell_length_c 12.872406
_cell_angle_alpha 90.000000
_cell_angle_beta 90.000000
_cell_angle_gamma 90.000000
_cell_volume 2239.301591
_symmetry_space_group_name_H-M "P B C A"
_symmetry_group_IT_number 61
_symmetry_cell_setting 'orthorhombic'
loop_
_space_group_symop_operation_xyz
x,y,z
1/2-x,-y,1/2+z
1/2+x,1/2-y,-z
-x,1/2+y,1/2-z
-x,-y,-z
1/2+x,y,1/2-z
1/2-x,1/2+y,z
x,1/2-y,1/2+z
loop_
_atom_site_type_symbol
_atom_site_label
_atom_site_fract_x
_atom_site_fract_y
_atom_site_fract_z
Si Si1 0.270931 0.931162 0.534638
Si Si2 0.111454 0.300024 0.903689
Si Si3 0.500000 0.000000 0.000000
Si Si4 0.217600 0.445429 0.176345
Si Si5 0.207513 0.170104 0.632212
Si Si6 0.607587 0.180215 0.536698
Si Si7 0.815470 0.709886 0.323175
Si Si8 0.085573 0.996482 0.868405
O O1 0.282401 0.876640 0.469707
O O2 0.266134 0.987014 0.459553
O O3 0.071898 0.945536 0.582439
O O4 0.459452 0.944032 0.602099
O O5 0.189978 0.238887 0.930562
O O6 0.187559 0.316822 0.789921
O O7 0.889036 0.295827 0.876441
O O8 0.131378 0.331434 0.012900
O O9 0.432474 0.956369 0.088465
O O10 0.182794 0.382760 0.203155
O O11 0.427106 0.455692 0.132300
O O12 0.196719 0.490759 0.265173
O O13 0.428913 0.173499 0.609131
O O14 0.140283 0.225880 0.685021
O O15 0.551179 0.186933 0.414157
#
# Coordination Sequence:
#
# PCOD9460048 Si02
#       8
#     8   8   4   8   8   8   8   8
#     4  10  21  42  64  91 126 169 204 279 315 391
#     4  10  22  41  62  94 135 166 217 266 317 391
#     4  10  24  40  60  90 132 156 218 258 328 370
#     4  11  22  41  62  95 120 170 206 268 318 385
#     4  10  22  39  63  92 130 164 215 263 319 384
#     4  10  21  41  64  94 125 175 212 261 328 382
#     4  10  22  39  62  92 129 170 209 264 318 386
#     4  10  22  40  64  91 128 156 217 264 323 374
#
# _framework density 26.794067999999999
#
# number of rings (size 3 to 8) (size 9 to 14) (size 15 to 20)
#    0.000    1.867    1.333    1.600    3.733    1.067 
#    2.400    1.333    0.000    0.000    0.000    0.000 
#    0.000    0.000    0.000    0.000    0.000    0.000 
#
# Total GULP energy -334226.644267 kJ/mol
# GULP energy per Si atom -5570.444071 kJ/mol
# Density = 2.673308 g / cm^3
# Si number density = 26.794068 Si / 1000 Ang^3
#
#
#
# Elastic Constant Matrix: (Units=GPa)
#
#
# Indices 1 2 3 4 5 6 
#
# 1 81.6627 15.7847 12.3115 0.0000 0.0000 0.0000
# 2 15.7847 77.8152 -1.7005 0.0000 0.0000 0.0000
# 3 12.3115 -1.7005 126.6311 0.0000 0.0000 0.0000
# 4 0.0000 0.0000 0.0000 20.5859 0.0000 0.0000
# 5 0.0000 0.0000 0.0000 0.0000 37.8137 0.0000
# 6 0.0000 0.0000 0.0000 0.0000 0.0000 30.2909
#
#
#
# Elastic Compliance Matrix: (Units=1/GPa)
#
#
# Indices 1 2 3 4 5 6 
#
# 1 0.012954 -0.002656 -0.001295 0.000000 0.000000 0.000000
# 2 -0.002656 0.013399 0.000438 0.000000 0.000000 0.000000
# 3 -0.001295 0.000438 0.008029 0.000000 0.000000 0.000000
# 4 0.000000 0.000000 0.000000 0.048577 0.000000 0.000000
# 5 0.000000 0.000000 0.000000 0.000000 0.026445 0.000000
# 6 0.000000 0.000000 0.000000 0.000000 0.000000 0.033013
#
#
# Mechanical properties :
#
#
# Convention : Reuss Voigt Hill
#
# Bulk Modulus (GPa) = 36.55472 37.65560 37.10516
# Shear Modulus (GPa) = 31.53332 35.05232 33.29282
#
# Velocity S-wave (km/s) = 3.43429 3.62085 3.52880
# Velocity P-wave (km/s) = 5.42201 5.61827 5.52101
#
# Compressibility (1/GPa) = 0.02735625
#
# Stress axis : x y z
#
# Youngs Moduli (GPa) = 77.19545 74.63072 124.55237
#
# Poissons Ratio (x) = 0.19822 0.16131
# Poissons Ratio (y) = 0.20503 -0.05457
# Poissons Ratio (z) = 0.09998 -0.03270
#
# Static dielectric constant tensor:
#      x y z
#    x 2.734680 0.000000 0.000000 
#    y 0.000000 2.164770 0.000000 
#    z 0.000000 0.000000 2.245310 
# 
# From -- ./inp_files/4921.got.cif
#   From: 2010.05.17/outbox.cif.g08.bks.cpg/sg61_3_cif.got.tgz:4921.got - 2010.06.03 15:17:17.
