data_PCOD9460690
_publ_section_title
;
Structure prediction by ZEFSAII (Michael W. Deem and Ramdas Pophale) SiO2 
 PCOD9460690
Probable space group: P B C A
;
_chemical_formula_sum "Si O2"
_cell_formula_units_Z 40
_cell_length_a 9.155760
_cell_length_b 19.292353
_cell_length_c 8.971794
_cell_angle_alpha 90.000000
_cell_angle_beta 90.000000
_cell_angle_gamma 90.000000
_cell_volume 1584.743186
_symmetry_space_group_name_H-M "P B C A"
_symmetry_group_IT_number 61
_symmetry_cell_setting 'orthorhombic'
loop_
_space_group_symop_operation_xyz
x,y,z
1/2-x,-y,1/2+z
1/2+x,1/2-y,-z
-x,1/2+y,1/2-z
-x,-y,-z
1/2+x,y,1/2-z
1/2-x,1/2+y,z
x,1/2-y,1/2+z
loop_
_atom_site_type_symbol
_atom_site_label
_atom_site_fract_x
_atom_site_fract_y
_atom_site_fract_z
Si Si1 0.314416 0.209978 0.744803
Si Si2 0.849750 0.503334 0.802319
Si Si3 0.122512 0.078556 0.399947
Si Si4 0.071128 0.308408 0.690780
Si Si5 0.431983 0.621308 0.902104
O O1 0.198252 0.254552 0.651292
O O2 0.420614 0.267133 0.817728
O O3 0.429422 0.163165 0.657631
O O4 0.214991 0.161359 0.848790
O O5 0.722061 0.463538 0.717167
O O6 0.928878 0.546920 0.672789
O O7 0.957242 0.449119 0.881792
O O8 0.820020 0.558852 0.935418
O O9 0.110359 0.158566 0.351196
O O10 0.064181 0.372526 0.578489
#
# Coordination Sequence:
#
# PCOD9460690 Si02
#       5
#     8   8   8   8   8
#     4  10  24  40  62  94 128 162 204 252 306 366
#     4  11  25  43  64  92 125 162 207 257 309 367
#     4  11  25  43  64  92 125 162 207 257 309 367
#     4  11  23  41  65  92 125 164 206 253 306 365
#     4  11  23  41  65  92 125 164 206 253 306 365
#
# _framework density 25.240683000000001
#
# number of rings (size 3 to 8) (size 9 to 14) (size 15 to 20)
#    0.000    1.200    0.000    4.800    0.000   19.200 
#    0.000    0.000    0.000    0.000    0.000    0.000 
#    0.000    0.000    0.000    0.000    0.000    0.000 
#
# Total GULP energy -224009.132016 kJ/mol
# GULP energy per Si atom -5600.228300 kJ/mol
# Density = 2.518323 g / cm^3
# Si number density = 25.240683 Si / 1000 Ang^3
#
#
#
# Elastic Constant Matrix: (Units=GPa)
#
#
# Indices 1 2 3 4 5 6 
#
# 1 123.7542 18.7117 24.9295 0.0000 0.0000 0.0000
# 2 18.7117 68.1732 1.1415 0.0000 0.0000 0.0000
# 3 24.9295 1.1415 55.4177 0.0000 0.0000 0.0000
# 4 0.0000 0.0000 0.0000 39.3728 0.0000 0.0000
# 5 0.0000 0.0000 0.0000 0.0000 13.7143 0.0000
# 6 0.0000 0.0000 0.0000 0.0000 0.0000 40.9680
#
#
#
# Elastic Compliance Matrix: (Units=1/GPa)
#
#
# Indices 1 2 3 4 5 6 
#
# 1 0.009287 -0.002480 -0.004127 0.000000 0.000000 0.000000
# 2 -0.002480 0.015336 0.000800 0.000000 0.000000 0.000000
# 3 -0.004127 0.000800 0.019885 0.000000 0.000000 0.000000
# 4 0.000000 0.000000 0.000000 0.025398 0.000000 0.000000
# 5 0.000000 0.000000 0.000000 0.000000 0.072916 0.000000
# 6 0.000000 0.000000 0.000000 0.000000 0.000000 0.024409
#
#
# Mechanical properties :
#
#
# Convention : Reuss Voigt Hill
#
# Bulk Modulus (GPa) = 30.40098 37.43449 33.91774
# Shear Modulus (GPa) = 26.34226 32.31520 29.32873
#
# Velocity S-wave (km/s) = 3.23405 3.58198 3.41246
# Velocity P-wave (km/s) = 5.10059 5.65426 5.38455
#
# Compressibility (1/GPa) = 0.03289368
#
# Stress axis : x y z
#
# Youngs Moduli (GPa) = 107.68032 65.20698 50.29018
#
# Poissons Ratio (x) = 0.16170 0.20752
# Poissons Ratio (y) = 0.26703 -0.04022
# Poissons Ratio (z) = 0.44435 -0.05214
#
# Static dielectric constant tensor:
#      x y z
#    x 1.945390 0.000000 0.000000 
#    y 0.000000 1.951730 0.000000 
#    z 0.000000 0.000000 2.011630 
# 
# From -- ./inp_files/1740.got.cif
#   From: 2010.05.17/outbox.cif.g08.bks.cpg/sg61_1_cif.got.tgz:1740.got - 2010.06.03 15:17:17.
