data_PCOD9460098
_publ_section_title
;
Structure prediction by ZEFSAII (Michael W. Deem and Ramdas Pophale) SiO2 
 PCOD9460098
Probable space group: P B C A
;
_chemical_formula_sum "Si O2"
_cell_formula_units_Z 48
_cell_length_a 13.347800
_cell_length_b 26.975875
_cell_length_c 5.864438
_cell_angle_alpha 90.000000
_cell_angle_beta 90.000000
_cell_angle_gamma 90.000000
_cell_volume 2111.599889
_symmetry_space_group_name_H-M "P B C A"
_symmetry_group_IT_number 61
_symmetry_cell_setting 'orthorhombic'
loop_
_space_group_symop_operation_xyz
x,y,z
1/2-x,-y,1/2+z
1/2+x,1/2-y,-z
-x,1/2+y,1/2-z
-x,-y,-z
1/2+x,y,1/2-z
1/2-x,1/2+y,z
x,1/2-y,1/2+z
loop_
_atom_site_type_symbol
_atom_site_label
_atom_site_fract_x
_atom_site_fract_y
_atom_site_fract_z
Si Si1 0.043876 0.952553 0.717792
Si Si2 0.115402 0.855444 0.988826
Si Si3 0.026686 0.231282 0.892870
Si Si4 0.681137 0.570699 0.668655
Si Si5 0.760682 0.266979 0.635724
Si Si6 0.849902 0.976942 0.942046
O O1 0.080936 0.945153 0.463168
O O2 0.926853 0.956515 0.757932
O O3 0.082253 0.903830 0.850097
O O4 0.090190 0.001223 0.840618
O O5 0.165724 0.877016 0.216677
O O6 0.016217 0.823418 0.048833
O O7 0.200600 0.823746 0.860335
O O8 0.992626 0.241526 0.630145
O O9 0.144776 0.247662 0.876322
O O10 0.702758 0.526234 0.845801
O O11 0.772116 0.565684 0.496895
O O12 0.798999 0.252821 0.380462
#
# Coordination Sequence:
#
# PCOD9460098 Si02
#       6
#     8   8   8   8   8   8
#     4  10  23  41  65  94 136 173 231 290 341 430
#     4  11  25  40  66 103 130 180 239 295 346 424
#     4  10  23  44  68  95 136 184 228 289 362 426
#     4  11  22  41  67  97 139 181 236 292 347 435
#     4  10  23  44  70  95 138 187 228 290 362 423
#     4  10  21  42  65  94 131 187 222 275 367 409
#
# _framework density 22.731577999999999
#
# number of rings (size 3 to 8) (size 9 to 14) (size 15 to 20)
#    0.000    1.667    1.667    1.500    4.667    2.667 
#    3.000    0.000    0.000    0.000    0.000    0.000 
#    0.000    0.000    0.000    0.000    0.000    0.000 
#
# Total GULP energy -267384.137997 kJ/mol
# GULP energy per Si atom -5570.502875 kJ/mol
# Density = 2.267984 g / cm^3
# Si number density = 22.731578 Si / 1000 Ang^3
#
#
#
# Elastic Constant Matrix: (Units=GPa)
#
#
# Indices 1 2 3 4 5 6 
#
# 1 97.4241 31.5069 8.1048 0.0000 0.0000 0.0000
# 2 31.5069 86.6897 14.7896 0.0000 0.0000 0.0000
# 3 8.1048 14.7896 104.2490 0.0000 0.0000 0.0000
# 4 0.0000 0.0000 0.0000 26.1068 0.0000 0.0000
# 5 0.0000 0.0000 0.0000 0.0000 35.8953 0.0000
# 6 0.0000 0.0000 0.0000 0.0000 0.0000 31.2032
#
#
#
# Elastic Compliance Matrix: (Units=1/GPa)
#
#
# Indices 1 2 3 4 5 6 
#
# 1 0.011641 -0.004178 -0.000312 0.000000 0.000000 0.000000
# 2 -0.004178 0.013321 -0.001565 0.000000 0.000000 0.000000
# 3 -0.000312 -0.001565 0.009839 0.000000 0.000000 0.000000
# 4 0.000000 0.000000 0.000000 0.038304 0.000000 0.000000
# 5 0.000000 0.000000 0.000000 0.000000 0.027859 0.000000
# 6 0.000000 0.000000 0.000000 0.000000 0.000000 0.032048
#
#
# Mechanical properties :
#
#
# Convention : Reuss Voigt Hill
#
# Bulk Modulus (GPa) = 44.07081 44.12948 44.10015
# Shear Modulus (GPa) = 32.74699 34.23849 33.49274
#
# Velocity S-wave (km/s) = 3.79963 3.88520 3.84266
# Velocity P-wave (km/s) = 6.21926 6.29141 6.25544
#
# Compressibility (1/GPa) = 0.02269075
#
# Stress axis : x y z
#
# Youngs Moduli (GPa) = 85.89989 75.07077 101.63913
#
# Poissons Ratio (x) = 0.31363 0.03175
# Poissons Ratio (y) = 0.35887 0.15907
# Poissons Ratio (z) = 0.02683 0.11749
#
# Static dielectric constant tensor:
#      x y z
#    x 2.013850 0.000000 0.000000 
#    y 0.000000 1.825030 0.000000 
#    z 0.000000 0.000000 1.926240 
# 
# From -- ./inp_files/533.got.cif
#   From: 2010.05.17/outbox.cif.g08.bks.cpg/sg61_1_cif.got.tgz:533.got - 2010.06.03 15:17:17.
