data_PCOD9460680
_publ_section_title
;
Structure prediction by ZEFSAII (Michael W. Deem and Ramdas Pophale) SiO2 
 PCOD9460680
Probable space group: P B C A
;
_chemical_formula_sum "Si O2"
_cell_formula_units_Z 64
_cell_length_a 7.781052
_cell_length_b 24.311396
_cell_length_c 13.869849
_cell_angle_alpha 90.000000
_cell_angle_beta 90.000000
_cell_angle_gamma 90.000000
_cell_volume 2623.734875
_symmetry_space_group_name_H-M "P B C A"
_symmetry_group_IT_number 61
_symmetry_cell_setting 'orthorhombic'
loop_
_space_group_symop_operation_xyz
x,y,z
1/2-x,-y,1/2+z
1/2+x,1/2-y,-z
-x,1/2+y,1/2-z
-x,-y,-z
1/2+x,y,1/2-z
1/2-x,1/2+y,z
x,1/2-y,1/2+z
loop_
_atom_site_type_symbol
_atom_site_label
_atom_site_fract_x
_atom_site_fract_y
_atom_site_fract_z
Si Si1 0.006737 0.034940 0.803009
Si Si2 0.420728 0.708786 0.180314
Si Si3 0.813670 0.395703 0.164995
Si Si4 0.096054 0.285831 0.354224
Si Si5 0.706011 0.539540 0.331574
Si Si6 0.222931 0.866987 0.821797
Si Si7 0.602640 0.748623 0.514083
Si Si8 0.530277 0.626327 0.469159
O O1 0.175388 0.056073 0.856934
O O2 0.898550 0.087240 0.765593
O O3 0.067969 0.005466 0.703562
O O4 0.880697 0.992590 0.855226
O O5 0.471206 0.753500 0.261845
O O6 0.538159 0.656177 0.150678
O O7 0.273246 0.676879 0.237963
O O8 0.434719 0.744913 0.084151
O O9 0.701734 0.340254 0.169815
O O10 0.954990 0.388494 0.081573
O O11 0.239067 0.248781 0.411599
O O12 0.938697 0.291278 0.429057
O O13 0.726189 0.575679 0.234229
O O14 0.641495 0.581046 0.412448
O O15 0.352480 0.871048 0.910841
O O16 0.606461 0.688185 0.466245
#
# Coordination Sequence:
#
# PCOD9460680 Si02
#       8
#     8   8   8   8   8   8   8   8
#     4  10  23  48  70 102 134 190 238 298 366 427
#     4  12  24  40  69  98 143 190 232 281 355 429
#     4  10  26  44  72 101 147 181 244 290 363 423
#     4  11  25  44  65 102 144 191 227 293 343 434
#     4  11  21  43  75  95 139 178 241 299 357 421
#     4  12  22  42  69 104 136 188 236 285 360 416
#     4  11  24  42  64 103 143 180 235 285 350 428
#     4  11  23  43  69 104 138 178 235 298 346 433
#
# _framework density 24.392710000000001
#
# number of rings (size 3 to 8) (size 9 to 14) (size 15 to 20)
#    0.000    1.000    5.000    0.000    8.750    1.000 
#    0.000    2.500    0.000    0.000    0.000    0.000 
#    0.000    0.000    0.000    0.000    0.000    0.000 
#
# Total GULP energy -357396.804183 kJ/mol
# GULP energy per Si atom -5584.325065 kJ/mol
# Density = 2.433719 g / cm^3
# Si number density = 24.392710 Si / 1000 Ang^3
#
#
#
# Elastic Constant Matrix: (Units=GPa)
#
#
# Indices 1 2 3 4 5 6 
#
# 1 57.3871 20.3851 9.6919 0.0000 0.0000 0.0000
# 2 20.3851 89.9301 37.6223 0.0000 0.0000 0.0000
# 3 9.6919 37.6223 84.7344 0.0000 0.0000 0.0000
# 4 0.0000 0.0000 0.0000 33.1021 0.0000 0.0000
# 5 0.0000 0.0000 0.0000 0.0000 26.6989 0.0000
# 6 0.0000 0.0000 0.0000 0.0000 0.0000 52.4697
#
#
#
# Elastic Compliance Matrix: (Units=1/GPa)
#
#
# Indices 1 2 3 4 5 6 
#
# 1 0.018959 -0.004164 -0.000320 0.000000 0.000000 0.000000
# 2 -0.004164 0.014571 -0.005993 0.000000 0.000000 0.000000
# 3 -0.000320 -0.005993 0.014499 0.000000 0.000000 0.000000
# 4 0.000000 0.000000 0.000000 0.030210 0.000000 0.000000
# 5 0.000000 0.000000 0.000000 0.000000 0.037455 0.000000
# 6 0.000000 0.000000 0.000000 0.000000 0.000000 0.019059
#
#
# Mechanical properties :
#
#
# Convention : Reuss Voigt Hill
#
# Bulk Modulus (GPa) = 36.93427 40.82780 38.88104
# Shear Modulus (GPa) = 30.35269 33.41096 31.88182
#
# Velocity S-wave (km/s) = 3.53134 3.70498 3.61920
# Velocity P-wave (km/s) = 5.63928 5.92254 5.78265
#
# Compressibility (1/GPa) = 0.02707513
#
# Stress axis : x y z
#
# Youngs Moduli (GPa) = 52.74660 68.63016 68.96942
#
# Poissons Ratio (x) = 0.28576 0.02205
# Poissons Ratio (y) = 0.21962 0.41335
# Poissons Ratio (z) = 0.01687 0.41132
#
# Static dielectric constant tensor:
#      x y z
#    x 2.054990 0.000000 0.000000 
#    y 0.000000 1.962970 0.000000 
#    z 0.000000 0.000000 1.963640 
# 
# From -- ./inp_files/7235.got.cif
#   From: 2010.05.17/outbox.cif.g08.bks.cpg/sg61_4_cif.got.tgz:7235.got - 2010.06.03 15:17:17.
