data_PCOD9460170
_publ_section_title
;
Structure prediction by ZEFSAII (Michael W. Deem and Ramdas Pophale) SiO2 
 PCOD9460170
Probable space group: P B C A
;
_chemical_formula_sum "Si O2"
_cell_formula_units_Z 64
_cell_length_a 28.045055
_cell_length_b 8.787228
_cell_length_c 12.771742
_cell_angle_alpha 90.000000
_cell_angle_beta 90.000000
_cell_angle_gamma 90.000000
_cell_volume 3147.446291
_symmetry_space_group_name_H-M "P B C A"
_symmetry_group_IT_number 61
_symmetry_cell_setting 'orthorhombic'
loop_
_space_group_symop_operation_xyz
x,y,z
1/2-x,-y,1/2+z
1/2+x,1/2-y,-z
-x,1/2+y,1/2-z
-x,-y,-z
1/2+x,y,1/2-z
1/2-x,1/2+y,z
x,1/2-y,1/2+z
loop_
_atom_site_type_symbol
_atom_site_label
_atom_site_fract_x
_atom_site_fract_y
_atom_site_fract_z
Si Si1 0.120322 0.262185 0.504500
Si Si2 0.951515 0.189461 0.056316
Si Si3 0.203726 0.072816 0.876903
Si Si4 0.045162 0.469610 0.625407
Si Si5 0.779639 0.342469 0.958787
Si Si6 0.411549 0.014724 0.855282
Si Si7 0.300736 0.854899 0.150213
Si Si8 0.849151 0.217679 0.110694
O O1 0.161245 0.362090 0.448597
O O2 0.078648 0.364079 0.552663
O O3 0.148403 0.188952 0.602545
O O4 0.101717 0.132617 0.424121
O O5 0.946057 0.370397 0.078029
O O6 0.900000 0.135827 0.098826
O O7 0.993626 0.110190 0.120463
O O8 0.957167 0.131064 0.936924
O O9 0.252873 0.083396 0.940526
O O10 0.204293 0.171459 0.772563
O O11 0.189139 0.900613 0.846694
O O12 0.065478 0.481410 0.742515
O O13 0.827115 0.260485 0.998254
O O14 0.792720 0.470865 0.877958
O O15 0.741238 0.231491 0.909552
O O16 0.364207 0.121461 0.837813
#
# Coordination Sequence:
#
# PCOD9460170 Si02
#       8
#     8   8   8   8   8   8   8   8
#     4  11  22  43  63  97 135 163 231 271 325 405
#     4   9  23  44  64  98 131 170 226 273 329 409
#     4  11  24  42  63  94 132 175 214 279 329 394
#     4  11  22  43  70  97 134 181 213 282 349 387
#     4  11  23  42  61  92 134 160 229 265 323 403
#     4  10  23  41  68  97 131 176 223 277 330 408
#     4  11  24  39  63  94 124 178 208 270 336 384
#     4  10  21  46  62  91 133 169 214 284 318 400
#
# _framework density 20.333945
#
# number of rings (size 3 to 8) (size 9 to 14) (size 15 to 20)
#    0.750    0.750    3.750    0.750    1.750    4.500 
#    6.750    0.000    0.000    0.000    0.000    0.000 
#    0.000    0.000    0.000    0.000    0.000    0.000 
#
# Total GULP energy -356756.580915 kJ/mol
# GULP energy per Si atom -5574.321577 kJ/mol
# Density = 2.028766 g / cm^3
# Si number density = 20.333945 Si / 1000 Ang^3
#
#
#
# Elastic Constant Matrix: (Units=GPa)
#
#
# Indices 1 2 3 4 5 6 
#
# 1 148.3344 35.6831 34.8632 0.0000 0.0000 0.0000
# 2 35.6831 80.2078 23.2952 0.0000 0.0000 0.0000
# 3 34.8632 23.2952 83.1340 0.0000 0.0000 0.0000
# 4 0.0000 0.0000 0.0000 -373.2316 0.0000 0.0000
# 5 0.0000 0.0000 0.0000 0.0000 17.9764 0.0000
# 6 0.0000 0.0000 0.0000 0.0000 0.0000 13.8405
#
#
#
# Elastic Compliance Matrix: (Units=1/GPa)
#
#
# Indices 1 2 3 4 5 6 
#
# 1 0.008026 -0.002823 -0.002575 0.000000 0.000000 0.000000
# 2 -0.002823 0.014565 -0.002898 0.000000 0.000000 0.000000
# 3 -0.002575 -0.002898 0.013920 0.000000 0.000000 0.000000
# 4 0.000000 0.000000 0.000000 -0.002679 0.000000 0.000000
# 5 0.000000 0.000000 0.000000 0.000000 0.055629 0.000000
# 6 0.000000 0.000000 0.000000 0.000000 0.000000 0.072252
#
#
# Mechanical properties :
#
#
# Convention : Reuss Voigt Hill
#
# Bulk Modulus (GPa) = 50.19789 55.48433 52.84111
# Shear Modulus (GPa) = 27.03545 -53.76063 -13.36259
#
# Velocity S-wave (km/s) = 3.65029 -5.14745 -2.56629
# Velocity P-wave (km/s) = 6.51970 2.82534 4.15475
#
# Compressibility (1/GPa) = 0.01992116
#
# Stress axis : x y z
#
# Youngs Moduli (GPa) = 124.59989 68.65798 71.83686
#
# Poissons Ratio (x) = 0.19380 0.18496
# Poissons Ratio (y) = 0.35171 0.20815
# Poissons Ratio (z) = 0.32081 0.19894
#
# Static dielectric constant tensor:
#      x y z
#    x 1.935830 0.000000 0.000000 
#    y 0.000000 1.804070 0.000000 
#    z 0.000000 0.000000 1.691430 
# 
# From -- ./inp_files/6782.got.cif
#   From: 2010.05.17/outbox.cif.g08.bks.cpg/sg61_4_cif.got.tgz:6782.got - 2010.06.03 15:17:17.
