data_PCOD9460539
_publ_section_title
;
Structure prediction by ZEFSAII (Michael W. Deem and Ramdas Pophale) SiO2 
 PCOD9460539
Probable space group: P B C A
;
_chemical_formula_sum "Si O2"
_cell_formula_units_Z 56
_cell_length_a 13.126410
_cell_length_b 30.576073
_cell_length_c 5.488480
_cell_angle_alpha 90.000000
_cell_angle_beta 90.000000
_cell_angle_gamma 90.000000
_cell_volume 2202.823788
_symmetry_space_group_name_H-M "P B C A"
_symmetry_group_IT_number 61
_symmetry_cell_setting 'orthorhombic'
loop_
_space_group_symop_operation_xyz
x,y,z
1/2-x,-y,1/2+z
1/2+x,1/2-y,-z
-x,1/2+y,1/2-z
-x,-y,-z
1/2+x,y,1/2-z
1/2-x,1/2+y,z
x,1/2-y,1/2+z
loop_
_atom_site_type_symbol
_atom_site_label
_atom_site_fract_x
_atom_site_fract_y
_atom_site_fract_z
Si Si1 0.688372 0.993848 0.878387
Si Si2 0.269097 0.628292 0.820808
Si Si3 0.554412 0.426748 0.259186
Si Si4 0.053870 0.857574 0.590569
Si Si5 0.871684 0.416362 0.551466
Si Si6 0.146065 0.225488 0.847400
Si Si7 0.925019 0.258005 0.882520
O O1 0.601913 0.030707 0.882384
O O2 0.759864 0.007030 0.644163
O O3 0.648977 0.947227 0.781877
O O4 0.358396 0.595713 0.910816
O O5 0.227447 0.602786 0.580425
O O6 0.313574 0.676909 0.794460
O O7 0.166774 0.635656 0.976651
O O8 0.523470 0.388137 0.445044
O O9 0.450214 0.440479 0.126250
O O10 0.064554 0.874564 0.863527
O O11 0.032333 0.806792 0.598067
O O12 0.172086 0.256463 0.617066
O O13 0.022061 0.226257 0.863398
O O14 0.867314 0.252654 0.629669
#
# Coordination Sequence:
#
# PCOD9460539 Si02
#       7
#     8   8   8   8   8   8   8
#     4  12  27  51  79 114 157 198 252 314 389 466
#     4  11  25  47  70 110 149 203 253 317 385 458
#     4  11  25  47  77 107 150 204 252 315 387 464
#     4  11  27  44  75 109 155 196 264 314 386 458
#     4  11  27  46  75 112 149 202 255 321 380 463
#     4  10  23  41  69 100 142 192 248 298 372 441
#     4  10  23  44  69 104 146 194 248 309 371 443
#
# _framework density 25.421914000000001
#
# number of rings (size 3 to 8) (size 9 to 14) (size 15 to 20)
#    0.000    1.143    1.429    3.000   14.000    2.857 
#    0.000    0.000    0.000    0.000    0.000    0.000 
#    0.000    0.000    0.000    0.000    0.000    0.000 
#
# Total GULP energy -313367.720404 kJ/mol
# GULP energy per Si atom -5595.852150 kJ/mol
# Density = 2.536405 g / cm^3
# Si number density = 25.421914 Si / 1000 Ang^3
#
#
#
# Elastic Constant Matrix: (Units=GPa)
#
#
# Indices 1 2 3 4 5 6 
#
# 1 97.8196 17.3855 29.1780 0.0000 0.0000 0.0000
# 2 17.3855 121.4447 16.7817 0.0000 0.0000 0.0000
# 3 29.1780 16.7817 121.8808 0.0000 0.0000 0.0000
# 4 0.0000 0.0000 0.0000 36.3188 0.0000 0.0000
# 5 0.0000 0.0000 0.0000 0.0000 29.1865 0.0000
# 6 0.0000 0.0000 0.0000 0.0000 0.0000 25.9636
#
#
#
# Elastic Compliance Matrix: (Units=1/GPa)
#
#
# Indices 1 2 3 4 5 6 
#
# 1 0.011194 -0.001256 -0.002507 0.000000 0.000000 0.000000
# 2 -0.001256 0.008535 -0.000874 0.000000 0.000000 0.000000
# 3 -0.002507 -0.000874 0.008925 0.000000 0.000000 0.000000
# 4 0.000000 0.000000 0.000000 0.027534 0.000000 0.000000
# 5 0.000000 0.000000 0.000000 0.000000 0.034262 0.000000
# 6 0.000000 0.000000 0.000000 0.000000 0.000000 0.038515
#
#
# Mechanical properties :
#
#
# Convention : Reuss Voigt Hill
#
# Bulk Modulus (GPa) = 51.60151 51.98172 51.79161
# Shear Modulus (GPa) = 34.55416 36.81377 35.68397
#
# Velocity S-wave (km/s) = 3.69077 3.80953 3.75062
# Velocity P-wave (km/s) = 6.20520 6.31206 6.25886
#
# Compressibility (1/GPa) = 0.01937928
#
# Stress axis : x y z
#
# Youngs Moduli (GPa) = 89.33449 117.16674 112.04133
#
# Poissons Ratio (x) = 0.14717 0.28087
# Poissons Ratio (y) = 0.11221 0.09798
# Poissons Ratio (z) = 0.22395 0.10246
#
# Static dielectric constant tensor:
#      x y z
#    x 2.042690 0.000000 0.000000 
#    y 0.000000 1.984600 0.000000 
#    z 0.000000 0.000000 2.061780 
# 
# From -- ./inp_files/616.got.cif
#   From: 2010.05.17/outbox.cif.g08.bks.cpg/sg61_1_cif.got.tgz:616.got - 2010.06.03 15:17:17.
