data_PCOD9460158
_publ_section_title
;
Structure prediction by ZEFSAII (Michael W. Deem and Ramdas Pophale) SiO2 
 PCOD9460158
Probable space group: P B C A
;
_chemical_formula_sum "Si O2"
_cell_formula_units_Z 60
_cell_length_a 8.983877
_cell_length_b 24.791282
_cell_length_c 11.250358
_cell_angle_alpha 90.000000
_cell_angle_beta 90.000000
_cell_angle_gamma 90.000000
_cell_volume 2505.700301
_symmetry_space_group_name_H-M "P B C A"
_symmetry_group_IT_number 61
_symmetry_cell_setting 'orthorhombic'
loop_
_space_group_symop_operation_xyz
x,y,z
1/2-x,-y,1/2+z
1/2+x,1/2-y,-z
-x,1/2+y,1/2-z
-x,-y,-z
1/2+x,y,1/2-z
1/2-x,1/2+y,z
x,1/2-y,1/2+z
loop_
_atom_site_type_symbol
_atom_site_label
_atom_site_fract_x
_atom_site_fract_y
_atom_site_fract_z
Si Si1 0.820185 0.299334 0.146469
Si Si2 0.193223 0.952821 0.558589
Si Si3 0.500000 0.500000 0.000000
Si Si4 0.542127 0.445435 0.357642
Si Si5 0.988034 0.858590 0.162435
Si Si6 0.672867 0.188476 0.208196
Si Si7 0.370590 0.169231 0.103681
Si Si8 0.791472 0.397904 0.527172
O O1 0.928316 0.316138 0.252784
O O2 0.681573 0.341317 0.144749
O O3 0.747728 0.241009 0.152196
O O4 0.906803 0.308199 0.024726
O O5 0.144312 0.894542 0.601837
O O6 0.107402 0.957380 0.431643
O O7 0.368442 0.959132 0.545308
O O8 0.129339 0.998313 0.647185
O O9 0.367451 0.456262 0.957438
O O10 0.510405 0.416350 0.232768
O O11 0.650264 0.407725 0.438173
O O12 0.085799 0.864034 0.045272
O O13 0.498204 0.187611 0.191733
O O14 0.715802 0.190398 0.345807
O O15 0.735750 0.135209 0.141033
#
# Coordination Sequence:
#
# PCOD9460158 Si02
#       8
#     8   8   4   8   8   8   8   8
#     4  12  28  47  77 106 153 197 260 310 379 449
#     4  10  21  45  72 107 150 191 242 307 372 454
#     4  10  24  40  76 112 142 194 244 304 378 454
#     4  10  21  44  72 103 148 192 240 303 375 447
#     4  12  24  46  74 112 143 200 249 313 374 452
#     4  12  30  48  75 107 150 203 254 313 381 447
#     4  12  28  52  74 110 153 199 251 316 379 454
#     4  11  24  45  70 104 148 189 247 306 373 451
#
# _framework density 23.945402000000001
#
# number of rings (size 3 to 8) (size 9 to 14) (size 15 to 20)
#    0.000    0.800    4.000    1.600    7.467    1.067 
#    2.400    0.000    0.000    0.000    0.000    0.000 
#    0.000    0.000    0.000    0.000    0.000    0.000 
#
# Total GULP energy -335113.941944 kJ/mol
# GULP energy per Si atom -5585.232366 kJ/mol
# Density = 2.389090 g / cm^3
# Si number density = 23.945402 Si / 1000 Ang^3
#
#
#
# Elastic Constant Matrix: (Units=GPa)
#
#
# Indices 1 2 3 4 5 6 
#
# 1 105.6907 -16.3221 -3.8623 0.0000 0.0000 0.0000
# 2 -16.3221 83.7929 -11.6828 0.0000 0.0000 0.0000
# 3 -3.8623 -11.6828 32.3709 0.0000 0.0000 0.0000
# 4 0.0000 0.0000 0.0000 3.1766 0.0000 0.0000
# 5 0.0000 0.0000 0.0000 0.0000 30.2948 0.0000
# 6 0.0000 0.0000 0.0000 0.0000 0.0000 37.1068
#
#
#
# Elastic Compliance Matrix: (Units=1/GPa)
#
#
# Indices 1 2 3 4 5 6 
#
# 1 0.009873 0.002198 0.001971 0.000000 0.000000 0.000000
# 2 0.002198 0.013056 0.004974 0.000000 0.000000 0.000000
# 3 0.001971 0.004974 0.032922 0.000000 0.000000 0.000000
# 4 0.000000 0.000000 0.000000 0.314807 0.000000 0.000000
# 5 0.000000 0.000000 0.000000 0.000000 0.033009 0.000000
# 6 0.000000 0.000000 0.000000 0.000000 0.000000 0.026949
#
#
# Mechanical properties :
#
#
# Convention : Reuss Voigt Hill
#
# Bulk Modulus (GPa) = 13.48832 17.56890 15.52861
# Shear Modulus (GPa) = 11.44055 31.03042 21.23548
#
# Velocity S-wave (km/s) = 2.18818 3.60374 2.98120
# Velocity P-wave (km/s) = 3.46834 4.96678 4.28359
#
# Compressibility (1/GPa) = 0.07413822
#
# Stress axis : x y z
#
# Youngs Moduli (GPa) = 101.28578 76.59394 30.37450
#
# Poissons Ratio (x) = -0.16836 -0.05988
# Poissons Ratio (y) = -0.22263 -0.15109
# Poissons Ratio (z) = -0.19966 -0.38099
#
# Static dielectric constant tensor:
#      x y z
#    x 1.874570 0.000000 0.000000 
#    y 0.000000 1.931550 0.000000 
#    z 0.000000 0.000000 1.837710 
# 
# From -- ./inp_files/4913.got.cif
#   From: 2010.05.17/outbox.cif.g08.bks.cpg/sg61_3_cif.got.tgz:4913.got - 2010.06.03 15:17:17.
