data_PCOD9460220
_publ_section_title
;
Structure prediction by ZEFSAII (Michael W. Deem and Ramdas Pophale) SiO2 
 PCOD9460220
Probable space group: P B C A
;
_chemical_formula_sum "Si O2"
_cell_formula_units_Z 60
_cell_length_a 11.986824
_cell_length_b 21.927412
_cell_length_c 8.534531
_cell_angle_alpha 90.000000
_cell_angle_beta 90.000000
_cell_angle_gamma 90.000000
_cell_volume 2243.216371
_symmetry_space_group_name_H-M "P B C A"
_symmetry_group_IT_number 61
_symmetry_cell_setting 'orthorhombic'
loop_
_space_group_symop_operation_xyz
x,y,z
1/2-x,-y,1/2+z
1/2+x,1/2-y,-z
-x,1/2+y,1/2-z
-x,-y,-z
1/2+x,y,1/2-z
1/2-x,1/2+y,z
x,1/2-y,1/2+z
loop_
_atom_site_type_symbol
_atom_site_label
_atom_site_fract_x
_atom_site_fract_y
_atom_site_fract_z
Si Si1 0.026534 0.090438 0.314047
Si Si2 0.114259 0.637591 0.452756
Si Si3 0.369972 0.485190 0.150873
Si Si4 0.500000 0.500000 0.500000
Si Si5 0.198228 0.194688 0.255894
Si Si6 0.264878 0.445922 0.435629
Si Si7 0.490545 0.234896 0.661242
Si Si8 0.149073 0.688854 0.958969
O O1 0.126774 0.132026 0.253611
O O2 0.922348 0.111293 0.214454
O O3 0.033038 0.076266 0.496199
O O4 0.038417 0.015400 0.270764
O O5 0.118663 0.579062 0.565509
O O6 0.219605 0.679414 0.402974
O O7 0.024925 0.682714 0.531874
O O8 0.267916 0.477418 0.268209
O O9 0.348111 0.536825 0.022792
O O10 0.367350 0.478117 0.524087
O O11 0.614724 0.251268 0.217099
O O12 0.257834 0.206922 0.090337
O O13 0.301698 0.376653 0.415462
O O14 0.457153 0.297815 0.572580
O O15 0.401078 0.217723 0.797544
#
# Coordination Sequence:
#
# PCOD9460220 Si02
#       8
#     8   8   8   4   8   8   8   8
#     4  11  24  44  76 118 159 212 273 335 419 502
#     4  12  26  50  79 118 167 214 270 347 414 498
#     4  11  24  45  77 118 159 210 260 332 423 501
#     4  10  22  38  70 108 156 208 252 322 398 492
#     4  12  26  52  82 112 159 220 274 338 419 494
#     4  11  23  46  73 113 156 206 264 328 413 494
#     4  12  29  51  80 116 157 219 283 335 418 488
#     4  12  26  52  78 112 160 208 274 349 401 491
#
# _framework density 26.747306999999999
#
# number of rings (size 3 to 8) (size 9 to 14) (size 15 to 20)
#    0.000    0.533    2.667    6.000    1.867    4.267 
#    0.000    2.667    0.000    0.000    0.000    0.000 
#    0.000    0.000    0.000    0.000    0.000    0.000 
#
# Total GULP energy -334017.579449 kJ/mol
# GULP energy per Si atom -5566.959657 kJ/mol
# Density = 2.668643 g / cm^3
# Si number density = 26.747307 Si / 1000 Ang^3
#
#
#
# Elastic Constant Matrix: (Units=GPa)
#
#
# Indices 1 2 3 4 5 6 
#
# 1 69.6829 37.9744 20.6112 0.0000 0.0000 0.0000
# 2 37.9744 109.2096 48.1582 0.0000 0.0000 0.0000
# 3 20.6112 48.1582 91.0001 0.0000 0.0000 0.0000
# 4 0.0000 0.0000 0.0000 76.8564 0.0000 0.0000
# 5 0.0000 0.0000 0.0000 0.0000 32.9331 0.0000
# 6 0.0000 0.0000 0.0000 0.0000 0.0000 26.9654
#
#
#
# Elastic Compliance Matrix: (Units=1/GPa)
#
#
# Indices 1 2 3 4 5 6 
#
# 1 0.017773 -0.005746 -0.000985 0.000000 0.000000 0.000000
# 2 -0.005746 0.013802 -0.006003 0.000000 0.000000 0.000000
# 3 -0.000985 -0.006003 0.014389 0.000000 0.000000 0.000000
# 4 0.000000 0.000000 0.000000 0.013011 0.000000 0.000000
# 5 0.000000 0.000000 0.000000 0.000000 0.030365 0.000000
# 6 0.000000 0.000000 0.000000 0.000000 0.000000 0.037085
#
#
# Mechanical properties :
#
#
# Convention : Reuss Voigt Hill
#
# Bulk Modulus (GPa) = 48.78733 53.70891 51.24812
# Shear Modulus (GPa) = 31.50148 38.22757 34.86452
#
# Velocity S-wave (km/s) = 3.43555 3.78459 3.61429
# Velocity P-wave (km/s) = 5.83241 6.26269 6.05137
#
# Compressibility (1/GPa) = 0.02049712
#
# Stress axis : x y z
#
# Youngs Moduli (GPa) = 56.26423 72.45547 69.49917
#
# Poissons Ratio (x) = 0.41632 0.06844
# Poissons Ratio (y) = 0.32329 0.41717
# Poissons Ratio (z) = 0.05541 0.43492
#
# Static dielectric constant tensor:
#      x y z
#    x 2.318580 0.000000 0.000000 
#    y 0.000000 2.737470 0.000000 
#    z 0.000000 0.000000 53.843680 
# 
# From -- ./inp_files/3233.got.cif
#   From: 2010.05.17/outbox.cif.g08.bks.cpg/sg61_2_cif.got.tgz:3233.got - 2010.06.03 15:17:17.
