data_PCOD9460810
_publ_section_title
;
Structure prediction by ZEFSAII (Michael W. Deem and Ramdas Pophale) SiO2 
 PCOD9460810
Probable space group: P B C A
;
_chemical_formula_sum "Si O2"
_cell_formula_units_Z 40
_cell_length_a 17.796795
_cell_length_b 10.269932
_cell_length_c 9.372317
_cell_angle_alpha 90.000000
_cell_angle_beta 90.000000
_cell_angle_gamma 90.000000
_cell_volume 1712.995946
_symmetry_space_group_name_H-M "P B C A"
_symmetry_group_IT_number 61
_symmetry_cell_setting 'orthorhombic'
loop_
_space_group_symop_operation_xyz
x,y,z
1/2-x,-y,1/2+z
1/2+x,1/2-y,-z
-x,1/2+y,1/2-z
-x,-y,-z
1/2+x,y,1/2-z
1/2-x,1/2+y,z
x,1/2-y,1/2+z
loop_
_atom_site_type_symbol
_atom_site_label
_atom_site_fract_x
_atom_site_fract_y
_atom_site_fract_z
Si Si1 0.891166 0.380948 0.399367
Si Si2 0.467333 0.790031 0.934264
Si Si3 0.929631 0.505559 0.852392
Si Si4 0.656183 0.102380 0.584130
Si Si5 0.167915 0.850873 0.418969
O O1 0.873279 0.527689 0.444157
O O2 0.866251 0.352188 0.238758
O O3 0.842846 0.288343 0.504713
O O4 0.976453 0.332645 0.424950
O O5 0.464658 0.860461 0.088587
O O6 0.504267 0.900078 0.833544
O O7 0.384005 0.742038 0.904207
O O8 0.877858 0.523902 0.717184
O O9 0.878454 0.448792 0.979924
O O10 0.745019 0.112282 0.586683
#
# Coordination Sequence:
#
# PCOD9460810 Si02
#       5
#     8   8   8   8   8
#     4  11  25  48  69 103 142 185 235 289 350 425
#     4  10  25  44  71 101 142 184 232 286 354 414
#     4  10  25  48  70 103 144 182 234 297 347 414
#     4  12  26  42  78 104 137 186 242 284 358 412
#     4  11  26  46  70 101 148 182 232 294 353 416
#
# _framework density 23.350901
#
# number of rings (size 3 to 8) (size 9 to 14) (size 15 to 20)
#    0.000    1.200    0.000    4.200   16.800    1.600 
#    0.000    0.000    0.000    0.000    0.000    0.000 
#    0.000    0.000    0.000    0.000    0.000    0.000 
#
# Total GULP energy -224054.990699 kJ/mol
# GULP energy per Si atom -5601.374767 kJ/mol
# Density = 2.329775 g / cm^3
# Si number density = 23.350901 Si / 1000 Ang^3
#
#
#
# Elastic Constant Matrix: (Units=GPa)
#
#
# Indices 1 2 3 4 5 6 
#
# 1 139.4872 40.5557 36.4509 0.0000 0.0000 0.0000
# 2 40.5557 65.8324 33.7103 0.0000 0.0000 0.0000
# 3 36.4509 33.7103 122.6002 0.0000 0.0000 0.0000
# 4 0.0000 0.0000 0.0000 28.9775 0.0000 0.0000
# 5 0.0000 0.0000 0.0000 0.0000 17.1639 0.0000
# 6 0.0000 0.0000 0.0000 0.0000 0.0000 40.2542
#
#
#
# Elastic Compliance Matrix: (Units=1/GPa)
#
#
# Indices 1 2 3 4 5 6 
#
# 1 0.008915 -0.004812 -0.001327 0.000000 0.000000 0.000000
# 2 -0.004812 0.020277 -0.004145 0.000000 0.000000 0.000000
# 3 -0.001327 -0.004145 0.009691 0.000000 0.000000 0.000000
# 4 0.000000 0.000000 0.000000 0.034510 0.000000 0.000000
# 5 0.000000 0.000000 0.000000 0.000000 0.058262 0.000000
# 6 0.000000 0.000000 0.000000 0.000000 0.000000 0.024842
#
#
# Mechanical properties :
#
#
# Convention : Reuss Voigt Hill
#
# Bulk Modulus (GPa) = 54.60229 61.03928 57.82079
# Shear Modulus (GPa) = 27.29699 31.75929 29.52814
#
# Velocity S-wave (km/s) = 3.42276 3.69194 3.55989
# Velocity P-wave (km/s) = 6.24936 6.66113 6.45853
#
# Compressibility (1/GPa) = 0.01831425
#
# Stress axis : x y z
#
# Youngs Moduli (GPa) = 112.16786 49.31675 103.19008
#
# Poissons Ratio (x) = 0.23734 0.13697
# Poissons Ratio (y) = 0.53980 0.42768
# Poissons Ratio (z) = 0.14889 0.20440
#
# Static dielectric constant tensor:
#      x y z
#    x 1.830160 0.000000 0.000000 
#    y 0.000000 1.945630 0.000000 
#    z 0.000000 0.000000 1.862960 
# 
# From -- ./inp_files/3296.got.cif
#   From: 2010.05.17/outbox.cif.g08.bks.cpg/sg61_2_cif.got.tgz:3296.got - 2010.06.03 15:17:17.
