data_PCOD9460934
_publ_section_title
;
Structure prediction by ZEFSAII (Michael W. Deem and Ramdas Pophale) SiO2 
 PCOD9460934
Probable space group: P B C A
;
_chemical_formula_sum "Si O2"
_cell_formula_units_Z 48
_cell_length_a 8.738742
_cell_length_b 16.729958
_cell_length_c 16.245527
_cell_angle_alpha 90.000000
_cell_angle_beta 90.000000
_cell_angle_gamma 90.000000
_cell_volume 2375.076336
_symmetry_space_group_name_H-M "P B C A"
_symmetry_group_IT_number 61
_symmetry_cell_setting 'orthorhombic'
loop_
_space_group_symop_operation_xyz
x,y,z
1/2-x,-y,1/2+z
1/2+x,1/2-y,-z
-x,1/2+y,1/2-z
-x,-y,-z
1/2+x,y,1/2-z
1/2-x,1/2+y,z
x,1/2-y,1/2+z
loop_
_atom_site_type_symbol
_atom_site_label
_atom_site_fract_x
_atom_site_fract_y
_atom_site_fract_z
Si Si1 0.591169 0.548580 0.930216
Si Si2 0.064271 0.412869 0.017242
Si Si3 0.717018 0.038043 0.271952
Si Si4 0.864366 0.380400 0.175491
Si Si5 0.546444 0.183766 0.674432
Si Si6 0.996409 0.636983 0.164795
O O1 0.759276 0.577555 0.957786
O O2 0.618885 0.492789 0.849992
O O3 0.502039 0.627702 0.901493
O O4 0.500000 0.500000 0.000000
O O5 0.956116 0.382100 0.090452
O O6 0.000000 0.500000 0.000000
O O7 0.046360 0.368520 0.930977
O O8 0.874627 0.071732 0.309968
O O9 0.642603 0.111287 0.223270
O O10 0.714734 0.964236 0.206038
O O11 0.729631 0.315501 0.174054
O O12 0.988354 0.360832 0.244404
O O13 0.468513 0.270115 0.676961
#
# Coordination Sequence:
#
# PCOD9460934 Si02
#       6
#     8   8   8   8   8   8
#     4  11  24  44  69  97 130 180 232 273 333 417
#     4  12  23  43  70 100 135 175 230 284 331 401
#     4  11  22  41  69  94 129 178 223 266 330 416
#     4  11  22  45  70  95 134 187 223 273 337 419
#     4  11  25  43  66 100 138 174 224 281 348 402
#     4  12  26  42  67 103 136 172 223 288 344 391
#
# _framework density 20.209876999999999
#
# number of rings (size 3 to 8) (size 9 to 14) (size 15 to 20)
#    0.000    0.667    3.333    6.000    2.333    1.333 
#    3.000    0.000    0.000    0.000    0.000    0.000 
#    0.000    0.000    0.000    0.000    0.000    0.000 
#
# Total GULP energy -268082.931627 kJ/mol
# GULP energy per Si atom -5585.061076 kJ/mol
# Density = 2.016388 g / cm^3
# Si number density = 20.209877 Si / 1000 Ang^3
#
#
#
# Elastic Constant Matrix: (Units=GPa)
#
#
# Indices 1 2 3 4 5 6 
#
# 1 100.9861 5.2119 51.5510 0.0000 0.0000 0.0000
# 2 5.2119 62.9951 25.8790 0.0000 0.0000 0.0000
# 3 51.5510 25.8790 131.6101 0.0000 0.0000 0.0000
# 4 0.0000 0.0000 0.0000 22.0179 0.0000 0.0000
# 5 0.0000 0.0000 0.0000 0.0000 35.0949 0.0000
# 6 0.0000 0.0000 0.0000 0.0000 0.0000 23.2659
#
#
#
# Elastic Compliance Matrix: (Units=1/GPa)
#
#
# Indices 1 2 3 4 5 6 
#
# 1 0.012442 0.001058 -0.005081 0.000000 0.000000 0.000000
# 2 0.001058 0.017359 -0.003828 0.000000 0.000000 0.000000
# 3 -0.005081 -0.003828 0.010341 0.000000 0.000000 0.000000
# 4 0.000000 0.000000 0.000000 0.045418 0.000000 0.000000
# 5 0.000000 0.000000 0.000000 0.000000 0.028494 0.000000
# 6 0.000000 0.000000 0.000000 0.000000 0.000000 0.042981
#
#
# Mechanical properties :
#
#
# Convention : Reuss Voigt Hill
#
# Bulk Modulus (GPa) = 40.91677 51.20834 46.06256
# Shear Modulus (GPa) = 27.64201 30.27238 28.95720
#
# Velocity S-wave (km/s) = 3.70232 3.87447 3.78937
# Velocity P-wave (km/s) = 6.21016 6.73859 6.47977
#
# Compressibility (1/GPa) = 0.02443986
#
# Stress axis : x y z
#
# Youngs Moduli (GPa) = 80.37506 57.60624 96.70015
#
# Poissons Ratio (x) = -0.06095 0.49137
# Poissons Ratio (y) = -0.08505 0.37016
# Poissons Ratio (z) = 0.40842 0.22051
#
# Static dielectric constant tensor:
#      x y z
#    x 1.696880 0.000000 0.000000 
#    y 0.000000 1.681630 0.000000 
#    z 0.000000 0.000000 1.540110 
# 
# From -- ./inp_files/7071.got.cif
#   From: 2010.05.17/outbox.cif.g08.bks.cpg/sg61_4_cif.got.tgz:7071.got - 2010.06.03 15:17:17.
