data_PCOD9460258
_publ_section_title
;
Structure prediction by ZEFSAII (Michael W. Deem and Ramdas Pophale) SiO2 
 PCOD9460258
Probable space group: P B C A
;
_chemical_formula_sum "Si O2"
_cell_formula_units_Z 64
_cell_length_a 16.989248
_cell_length_b 19.228117
_cell_length_c 7.981139
_cell_angle_alpha 90.000000
_cell_angle_beta 90.000000
_cell_angle_gamma 90.000000
_cell_volume 2607.208640
_symmetry_space_group_name_H-M "P B C A"
_symmetry_group_IT_number 61
_symmetry_cell_setting 'orthorhombic'
loop_
_space_group_symop_operation_xyz
x,y,z
1/2-x,-y,1/2+z
1/2+x,1/2-y,-z
-x,1/2+y,1/2-z
-x,-y,-z
1/2+x,y,1/2-z
1/2-x,1/2+y,z
x,1/2-y,1/2+z
loop_
_atom_site_type_symbol
_atom_site_label
_atom_site_fract_x
_atom_site_fract_y
_atom_site_fract_z
Si Si1 0.581178 0.840778 0.636975
Si Si2 0.724394 0.403610 0.228751
Si Si3 0.823261 0.724873 0.536210
Si Si4 0.554459 0.405123 0.397027
Si Si5 0.000798 0.283687 0.321097
Si Si6 0.764104 0.848283 0.702373
Si Si7 0.476826 0.960675 0.742255
Si Si8 0.312509 0.519994 0.112116
O O1 0.530798 0.788952 0.754009
O O2 0.562036 0.816634 0.448685
O O3 0.671194 0.837202 0.691285
O O4 0.548050 0.917706 0.665168
O O5 0.727843 0.324278 0.162292
O O6 0.640824 0.412972 0.319294
O O7 0.788959 0.440954 0.345179
O O8 0.722635 0.448649 0.057142
O O9 0.914548 0.718297 0.586208
O O10 0.799276 0.805359 0.546820
O O11 0.806081 0.692119 0.356341
O O12 0.516403 0.333077 0.338471
O O13 0.553212 0.418265 0.594544
O O14 0.502666 0.465348 0.311861
O O15 0.780715 0.928500 0.741040
O O16 0.405732 0.968464 0.613611
#
# Coordination Sequence:
#
# PCOD9460258 Si02
#       8
#     8   8   8   8   8   8   8   8
#     4  12  24  40  63  92 126 162 208 261 315 375
#     4  10  22  40  61  90 123 159 206 257 310 376
#     4  10  22  41  62  87 122 161 204 252 307 371
#     4  10  23  41  62  89 122 160 207 260 315 375
#     4  11  23  41  65  92 124 165 211 259 315 381
#     4  11  24  40  61  90 124 159 202 255 308 368
#     4  11  23  40  63  89 123 166 207 258 318 375
#     4  11  23  39  63  90 124 165 207 256 314 379
#
# _framework density 24.547325000000001
#
# number of rings (size 3 to 8) (size 9 to 14) (size 15 to 20)
#    0.000    1.250    0.000    6.750    0.000   11.000 
#    0.000    0.000    0.000    0.000    0.000    0.000 
#    0.000    0.000    0.000    0.000    0.000    0.000 
#
# Total GULP energy -358811.432211 kJ/mol
# GULP energy per Si atom -5606.428628 kJ/mol
# Density = 2.449145 g / cm^3
# Si number density = 24.547325 Si / 1000 Ang^3
#
#
#
# Elastic Constant Matrix: (Units=GPa)
#
#
# Indices 1 2 3 4 5 6 
#
# 1 92.5993 26.2956 2.9925 0.0000 0.0000 0.0000
# 2 26.2956 110.5172 17.8569 0.0000 0.0000 0.0000
# 3 2.9925 17.8569 81.3080 0.0000 0.0000 0.0000
# 4 0.0000 0.0000 0.0000 36.4977 0.0000 0.0000
# 5 0.0000 0.0000 0.0000 0.0000 29.0456 0.0000
# 6 0.0000 0.0000 0.0000 0.0000 0.0000 24.1214
#
#
#
# Elastic Compliance Matrix: (Units=1/GPa)
#
#
# Indices 1 2 3 4 5 6 
#
# 1 0.011584 -0.002786 0.000186 0.000000 0.000000 0.000000
# 2 -0.002786 0.010051 -0.002105 0.000000 0.000000 0.000000
# 3 0.000186 -0.002105 0.012754 0.000000 0.000000 0.000000
# 4 0.000000 0.000000 0.000000 0.027399 0.000000 0.000000
# 5 0.000000 0.000000 0.000000 0.000000 0.034429 0.000000
# 6 0.000000 0.000000 0.000000 0.000000 0.000000 0.041457
#
#
# Mechanical properties :
#
#
# Convention : Reuss Voigt Hill
#
# Bulk Modulus (GPa) = 40.03381 42.07940 41.05661
# Shear Modulus (GPa) = 32.17243 33.75156 32.96200
#
# Velocity S-wave (km/s) = 3.62419 3.71207 3.66839
# Velocity P-wave (km/s) = 5.81870 5.96255 5.89106
#
# Compressibility (1/GPa) = 0.02497889
#
# Stress axis : x y z
#
# Youngs Moduli (GPa) = 86.32259 99.48834 78.40442
#
# Poissons Ratio (x) = 0.27720 -0.01455
# Poissons Ratio (y) = 0.24052 0.16504
# Poissons Ratio (z) = -0.01602 0.20942
#
# Static dielectric constant tensor:
#      x y z
#    x 1.877290 0.000000 0.000000 
#    y 0.000000 1.916580 0.000000 
#    z 0.000000 0.000000 1.981580 
# 
# From -- ./inp_files/3716.got.cif
#   From: 2010.05.17/outbox.cif.g08.bks.cpg/sg61_2_cif.got.tgz:3716.got - 2010.06.03 15:17:17.
