data_PCOD9460488
_publ_section_title
;
Structure prediction by ZEFSAII (Michael W. Deem and Ramdas Pophale) SiO2 
 PCOD9460488
Probable space group: P B C A
;
_chemical_formula_sum "Si O2"
_cell_formula_units_Z 60
_cell_length_a 12.652317
_cell_length_b 18.756197
_cell_length_c 12.019881
_cell_angle_alpha 90.000000
_cell_angle_beta 90.000000
_cell_angle_gamma 90.000000
_cell_volume 2852.430149
_symmetry_space_group_name_H-M "P B C A"
_symmetry_group_IT_number 61
_symmetry_cell_setting 'orthorhombic'
loop_
_space_group_symop_operation_xyz
x,y,z
1/2-x,-y,1/2+z
1/2+x,1/2-y,-z
-x,1/2+y,1/2-z
-x,-y,-z
1/2+x,y,1/2-z
1/2-x,1/2+y,z
x,1/2-y,1/2+z
loop_
_atom_site_type_symbol
_atom_site_label
_atom_site_fract_x
_atom_site_fract_y
_atom_site_fract_z
Si Si1 0.836162 0.077003 0.653042
Si Si2 0.621711 0.422123 0.034116
Si Si3 0.472894 0.856560 0.894218
Si Si4 0.280483 0.688795 0.543945
Si Si5 0.000000 0.000000 0.500000
Si Si6 0.106706 0.775494 0.438469
Si Si7 0.407073 0.693862 0.152908
Si Si8 0.614689 0.933462 0.397976
O O1 0.713778 0.085291 0.623740
O O2 0.886524 0.155920 0.641077
O O3 0.859762 0.044437 0.772549
O O4 0.893763 0.030080 0.560767
O O5 0.507007 0.410614 0.088479
O O6 0.632506 0.366763 0.932269
O O7 0.628771 0.501355 0.982827
O O8 0.426405 0.834194 0.776354
O O9 0.379964 0.849602 0.986678
O O10 0.511861 0.937085 0.902896
O O11 0.563484 0.803993 0.941994
O O12 0.219605 0.739447 0.456780
O O13 0.327644 0.739229 0.640338
O O14 0.194937 0.630790 0.578859
O O15 0.020605 0.720950 0.391952
#
# Coordination Sequence:
#
# PCOD9460488 Si02
#       8
#     8   8   8   8   4   8   8   8
#     4  11  24  43  73  94 137 184 225 286 359 413
#     4  11  24  45  64 103 137 175 240 285 340 430
#     4  10  24  40  68  96 132 185 222 291 358 419
#     4  11  23  42  63 100 138 171 233 288 339 429
#     4  10  22  48  64 100 136 168 244 284 342 430
#     4  10  23  40  62  99 135 169 230 288 332 429
#     4  11  23  41  71  98 137 180 234 288 351 418
#     4  11  26  42  70  98 138 183 222 293 350 410
#
# _framework density 21.034694999999999
#
# number of rings (size 3 to 8) (size 9 to 14) (size 15 to 20)
#    0.000    1.333    2.667    1.600    3.733    4.267 
#    0.000    1.333    0.000    0.000    0.000    0.000 
#    0.000    0.000    0.000    0.000    0.000    0.000 
#
# Total GULP energy -334268.209976 kJ/mol
# GULP energy per Si atom -5571.136833 kJ/mol
# Density = 2.098682 g / cm^3
# Si number density = 21.034695 Si / 1000 Ang^3
#
#
#
# Elastic Constant Matrix: (Units=GPa)
#
#
# Indices 1 2 3 4 5 6 
#
# 1 43.5424 -1.6846 20.6600 0.0000 0.0000 0.0000
# 2 -1.6846 39.3865 13.4872 0.0000 0.0000 0.0000
# 3 20.6600 13.4872 87.0129 0.0000 0.0000 0.0000
# 4 0.0000 0.0000 0.0000 16.7633 0.0000 0.0000
# 5 0.0000 0.0000 0.0000 0.0000 10.0841 0.0000
# 6 0.0000 0.0000 0.0000 0.0000 0.0000 24.6036
#
#
#
# Elastic Compliance Matrix: (Units=1/GPa)
#
#
# Indices 1 2 3 4 5 6 
#
# 1 0.026318 0.003448 -0.006783 0.000000 0.000000 0.000000
# 2 0.003448 0.027264 -0.005045 0.000000 0.000000 0.000000
# 3 -0.006783 -0.005045 0.013885 0.000000 0.000000 0.000000
# 4 0.000000 0.000000 0.000000 0.059654 0.000000 0.000000
# 5 0.000000 0.000000 0.000000 0.000000 0.099166 0.000000
# 6 0.000000 0.000000 0.000000 0.000000 0.000000 0.040644
#
#
# Mechanical properties :
#
#
# Convention : Reuss Voigt Hill
#
# Bulk Modulus (GPa) = 19.72070 26.09635 22.90852
# Shear Modulus (GPa) = 16.63369 19.45548 18.04458
#
# Velocity S-wave (km/s) = 2.81512 3.04455 2.93208
# Velocity P-wave (km/s) = 4.46791 4.97919 4.73046
#
# Compressibility (1/GPa) = 0.05070815
#
# Stress axis : x y z
#
# Youngs Moduli (GPa) = 37.99668 36.67780 72.01951
#
# Poissons Ratio (x) = -0.12648 0.48854
# Poissons Ratio (y) = -0.13103 0.36333
# Poissons Ratio (z) = 0.25775 0.18503
#
# Static dielectric constant tensor:
#      x y z
#    x 1.728280 0.000000 0.000000 
#    y 0.000000 1.797070 0.000000 
#    z 0.000000 0.000000 1.728360 
# 
# From -- ./inp_files/5418.got.cif
#   From: 2010.05.17/outbox.cif.g08.bks.cpg/sg61_3_cif.got.tgz:5418.got - 2010.06.03 15:17:17.
