data_PCOD9460999
_publ_section_title
;
Structure prediction by ZEFSAII (Michael W. Deem and Ramdas Pophale) SiO2 
 PCOD9460999
Probable space group: P B C A
;
_chemical_formula_sum "Si O2"
_cell_formula_units_Z 56
_cell_length_a 13.734636
_cell_length_b 11.039184
_cell_length_c 14.052447
_cell_angle_alpha 90.000000
_cell_angle_beta 90.000000
_cell_angle_gamma 90.000000
_cell_volume 2130.620406
_symmetry_space_group_name_H-M "P B C A"
_symmetry_group_IT_number 61
_symmetry_cell_setting 'orthorhombic'
loop_
_space_group_symop_operation_xyz
x,y,z
1/2-x,-y,1/2+z
1/2+x,1/2-y,-z
-x,1/2+y,1/2-z
-x,-y,-z
1/2+x,y,1/2-z
1/2-x,1/2+y,z
x,1/2-y,1/2+z
loop_
_atom_site_type_symbol
_atom_site_label
_atom_site_fract_x
_atom_site_fract_y
_atom_site_fract_z
Si Si1 0.463084 0.474818 0.644686
Si Si2 0.337811 0.693372 0.725759
Si Si3 0.748001 0.540568 0.030469
Si Si4 0.851389 0.372718 0.152859
Si Si5 0.083026 0.275434 0.929266
Si Si6 0.585791 0.614113 0.167874
Si Si7 0.113931 0.411501 0.593582
O O1 0.392116 0.592269 0.659018
O O2 0.569629 0.524780 0.676135
O O3 0.497991 0.378568 0.563639
O O4 0.411901 0.387664 0.719883
O O5 0.233627 0.652794 0.769997
O O6 0.401474 0.728004 0.820694
O O7 0.334777 0.816176 0.664093
O O8 0.804276 0.417074 0.053924
O O9 0.819961 0.651978 0.039102
O O10 0.677014 0.553187 0.120177
O O11 0.683613 0.519879 0.938123
O O12 0.911637 0.251732 0.136170
O O13 0.079947 0.162754 0.999753
O O14 0.487697 0.548536 0.137645
#
# Coordination Sequence:
#
# PCOD9460999 Si02
#       7
#     8   8   8   8   8   8   8
#     4  11  23  43  73 104 136 192 232 286 372 416
#     4  12  23  46  73 101 146 187 239 297 353 445
#     4  11  23  44  73  97 142 192 231 299 368 417
#     4  11  23  44  72 100 142 185 233 300 353 418
#     4  11  24  47  70 104 153 179 239 315 357 421
#     4  12  22  43  74 102 138 191 240 290 365 428
#     4  12  25  43  69 110 140 183 250 293 360 447
#
# _framework density 26.283425000000001
#
# number of rings (size 3 to 8) (size 9 to 14) (size 15 to 20)
#    0.000    0.571    7.143    0.429    0.000    1.714 
#    2.571    4.286    0.000    0.000    0.000    0.000 
#    0.000    0.000    0.000    0.000    0.000    0.000 
#
# Total GULP energy -313244.438007 kJ/mol
# GULP energy per Si atom -5593.650679 kJ/mol
# Density = 2.622360 g / cm^3
# Si number density = 26.283425 Si / 1000 Ang^3
#
#
#
# Elastic Constant Matrix: (Units=GPa)
#
#
# Indices 1 2 3 4 5 6 
#
# 1 98.7720 1.1683 14.0240 0.0000 0.0000 0.0000
# 2 1.1683 67.4197 1.1520 0.0000 0.0000 0.0000
# 3 14.0240 1.1520 49.8142 0.0000 0.0000 0.0000
# 4 0.0000 0.0000 0.0000 35.3548 0.0000 0.0000
# 5 0.0000 0.0000 0.0000 0.0000 35.6012 0.0000
# 6 0.0000 0.0000 0.0000 0.0000 0.0000 37.4423
#
#
#
# Elastic Compliance Matrix: (Units=1/GPa)
#
#
# Indices 1 2 3 4 5 6 
#
# 1 0.010547 -0.000132 -0.002966 0.000000 0.000000 0.000000
# 2 -0.000132 0.014840 -0.000306 0.000000 0.000000 0.000000
# 3 -0.002966 -0.000306 0.020917 0.000000 0.000000 0.000000
# 4 0.000000 0.000000 0.000000 0.028285 0.000000 0.000000
# 5 0.000000 0.000000 0.000000 0.000000 0.028089 0.000000
# 6 0.000000 0.000000 0.000000 0.000000 0.000000 0.026708
#
#
# Mechanical properties :
#
#
# Convention : Reuss Voigt Hill
#
# Bulk Modulus (GPa) = 25.31958 27.63275 26.47616
# Shear Modulus (GPa) = 33.47644 34.99044 34.23344
#
# Velocity S-wave (km/s) = 3.57272 3.65262 3.61289
# Velocity P-wave (km/s) = 5.16462 5.32213 5.24397
#
# Compressibility (1/GPa) = 0.03949512
#
# Stress axis : x y z
#
# Youngs Moduli (GPa) = 94.81325 67.38557 47.80863
#
# Poissons Ratio (x) = 0.00890 0.14181
# Poissons Ratio (y) = 0.01252 0.01463
# Poissons Ratio (z) = 0.28124 0.02062
#
# Static dielectric constant tensor:
#      x y z
#    x 2.081420 0.000000 0.000000 
#    y 0.000000 2.042980 0.000000 
#    z 0.000000 0.000000 2.113720 
# 
# From -- ./inp_files/7836.got.cif
#   From: 2010.05.17/outbox.cif.g08.bks.cpg/sg61_4_cif.got.tgz:7836.got - 2010.06.03 15:17:17.
