data_PCOD9460533
_publ_section_title
;
Structure prediction by ZEFSAII (Michael W. Deem and Ramdas Pophale) SiO2 
 PCOD9460533
Probable space group: P B C A
;
_chemical_formula_sum "Si O2"
_cell_formula_units_Z 40
_cell_length_a 7.538140
_cell_length_b 13.408945
_cell_length_c 16.253630
_cell_angle_alpha 90.000000
_cell_angle_beta 90.000000
_cell_angle_gamma 90.000000
_cell_volume 1642.892616
_symmetry_space_group_name_H-M "P B C A"
_symmetry_group_IT_number 61
_symmetry_cell_setting 'orthorhombic'
loop_
_space_group_symop_operation_xyz
x,y,z
1/2-x,-y,1/2+z
1/2+x,1/2-y,-z
-x,1/2+y,1/2-z
-x,-y,-z
1/2+x,y,1/2-z
1/2-x,1/2+y,z
x,1/2-y,1/2+z
loop_
_atom_site_type_symbol
_atom_site_label
_atom_site_fract_x
_atom_site_fract_y
_atom_site_fract_z
Si Si1 0.491648 0.905407 0.342421
Si Si2 0.730522 0.474436 0.563264
Si Si3 0.878274 0.961572 0.336900
Si Si4 0.924343 0.762205 0.533105
Si Si5 0.222372 0.127031 0.082480
O O1 0.397622 0.005568 0.377654
O O2 0.702638 0.896390 0.355852
O O3 0.455589 0.914682 0.246009
O O4 0.395170 0.818298 0.393834
O O5 0.549002 0.520601 0.603656
O O6 0.695190 0.360231 0.542247
O O7 0.778723 0.534506 0.481165
O O8 0.782405 0.072448 0.333483
O O9 0.927588 0.704214 0.445674
O O10 0.114542 0.807342 0.551324
#
# Coordination Sequence:
#
# PCOD9460533 Si02
#       5
#     8   8   8   8   8
#     4  11  24  42  67  93 136 175 223 260 335 407
#     4  10  23  47  65  97 133 168 223 285 327 389
#     4  11  22  44  64  91 135 183 206 274 334 381
#     4  10  23  41  65 104 121 171 226 274 327 401
#     4  10  24  41  71  96 132 171 221 286 329 388
#
# _framework density 24.347299
#
# number of rings (size 3 to 8) (size 9 to 14) (size 15 to 20)
#    0.000    1.600    2.000    2.400    8.400    1.600 
#    7.200    0.000    0.000    0.000    0.000    0.000 
#    0.000    0.000    0.000    0.000    0.000    0.000 
#
# Total GULP energy -222995.919345 kJ/mol
# GULP energy per Si atom -5574.897984 kJ/mol
# Density = 2.429188 g / cm^3
# Si number density = 24.347299 Si / 1000 Ang^3
#
#
#
# Elastic Constant Matrix: (Units=GPa)
#
#
# Indices 1 2 3 4 5 6 
#
# 1 126.0739 13.2402 15.9190 0.0000 0.0000 0.0000
# 2 13.2402 124.2306 28.7197 0.0000 0.0000 0.0000
# 3 15.9190 28.7197 76.2319 0.0000 0.0000 0.0000
# 4 0.0000 0.0000 0.0000 24.2463 0.0000 0.0000
# 5 0.0000 0.0000 0.0000 0.0000 29.0270 0.0000
# 6 0.0000 0.0000 0.0000 0.0000 0.0000 34.0186
#
#
#
# Elastic Compliance Matrix: (Units=1/GPa)
#
#
# Indices 1 2 3 4 5 6 
#
# 1 0.008177 -0.000522 -0.001511 0.000000 0.000000 0.000000
# 2 -0.000522 0.008851 -0.003225 0.000000 0.000000 0.000000
# 3 -0.001511 -0.003225 0.014649 0.000000 0.000000 0.000000
# 4 0.000000 0.000000 0.000000 0.041243 0.000000 0.000000
# 5 0.000000 0.000000 0.000000 0.000000 0.034451 0.000000
# 6 0.000000 0.000000 0.000000 0.000000 0.000000 0.029396
#
#
# Mechanical properties :
#
#
# Convention : Reuss Voigt Hill
#
# Bulk Modulus (GPa) = 47.25960 49.14381 48.20171
# Shear Modulus (GPa) = 32.39665 35.36890 33.88278
#
# Velocity S-wave (km/s) = 3.65170 3.81554 3.73452
# Velocity P-wave (km/s) = 6.10186 6.29599 6.19968
#
# Compressibility (1/GPa) = 0.02115972
#
# Stress axis : x y z
#
# Youngs Moduli (GPa) = 122.28711 112.98341 68.26629
#
# Poissons Ratio (x) = 0.05900 0.10314
# Poissons Ratio (y) = 0.06386 0.22019
# Poissons Ratio (z) = 0.18476 0.36442
#
# Static dielectric constant tensor:
#      x y z
#    x 2.144460 0.000000 0.000000 
#    y 0.000000 1.992140 0.000000 
#    z 0.000000 0.000000 2.032590 
# 
# From -- ./inp_files/2154.got.cif
#   From: 2010.05.17/outbox.cif.g08.bks.cpg/sg61_2_cif.got.tgz:2154.got - 2010.06.03 15:17:17.
