data_PCOD9460124
_publ_section_title
;
Structure prediction by ZEFSAII (Michael W. Deem and Ramdas Pophale) SiO2 
 PCOD9460124
Probable space group: P B C A
;
_chemical_formula_sum "Si O2"
_cell_formula_units_Z 48
_cell_length_a 17.881891
_cell_length_b 13.818115
_cell_length_c 8.200732
_cell_angle_alpha 90.000000
_cell_angle_beta 90.000000
_cell_angle_gamma 90.000000
_cell_volume 2026.351888
_symmetry_space_group_name_H-M "P B C A"
_symmetry_group_IT_number 61
_symmetry_cell_setting 'orthorhombic'
loop_
_space_group_symop_operation_xyz
x,y,z
1/2-x,-y,1/2+z
1/2+x,1/2-y,-z
-x,1/2+y,1/2-z
-x,-y,-z
1/2+x,y,1/2-z
1/2-x,1/2+y,z
x,1/2-y,1/2+z
loop_
_atom_site_type_symbol
_atom_site_label
_atom_site_fract_x
_atom_site_fract_y
_atom_site_fract_z
Si Si1 0.536042 0.619955 0.931092
Si Si2 0.620645 0.471998 0.102023
Si Si3 0.774902 0.814821 0.944178
Si Si4 0.491754 0.179263 0.193026
Si Si5 0.340444 0.861755 0.899327
Si Si6 0.864015 0.434086 0.940842
O O1 0.605087 0.546754 0.953169
O O2 0.514924 0.649356 0.117956
O O3 0.463086 0.566631 0.859932
O O4 0.546749 0.716758 0.830334
O O5 0.652082 0.527803 0.257088
O O6 0.671492 0.382694 0.053003
O O7 0.792431 0.846293 0.761402
O O8 0.690847 0.846123 0.984683
O O9 0.799223 0.704255 0.966938
O O10 0.577404 0.181347 0.138139
O O11 0.447741 0.105587 0.075703
O O12 0.350876 0.972899 0.947838
#
# Coordination Sequence:
#
# PCOD9460124 Si02
#       6
#     8   8   8   8   8   8
#     4  10  22  38  69  94 129 171 221 274 320 391
#     4  10  21  43  63  95 132 171 220 269 329 384
#     4  12  25  44  66  96 130 179 216 269 342 391
#     4  11  22  42  65 102 127 175 220 271 326 391
#     4  12  24  44  68  93 130 174 218 269 330 401
#     4  11  27  41  67  98 133 167 224 276 325 394
#
# _framework density 23.687891
#
# number of rings (size 3 to 8) (size 9 to 14) (size 15 to 20)
#    0.000    1.000    3.333    2.500    2.333    5.333 
#    0.000    0.000    0.000    0.000    0.000    0.000 
#    0.000    0.000    0.000    0.000    0.000    0.000 
#
# Total GULP energy -268731.818796 kJ/mol
# GULP energy per Si atom -5598.579558 kJ/mol
# Density = 2.363398 g / cm^3
# Si number density = 23.687891 Si / 1000 Ang^3
#
#
#
# Elastic Constant Matrix: (Units=GPa)
#
#
# Indices 1 2 3 4 5 6 
#
# 1 37.6636 6.4726 17.0114 0.0000 0.0000 0.0000
# 2 6.4726 90.1581 6.9765 0.0000 0.0000 0.0000
# 3 17.0114 6.9765 43.7695 0.0000 0.0000 0.0000
# 4 0.0000 0.0000 0.0000 42.8717 0.0000 0.0000
# 5 0.0000 0.0000 0.0000 0.0000 14.9252 0.0000
# 6 0.0000 0.0000 0.0000 0.0000 0.0000 30.5674
#
#
#
# Elastic Compliance Matrix: (Units=1/GPa)
#
#
# Indices 1 2 3 4 5 6 
#
# 1 0.032370 -0.001367 -0.012363 0.000000 0.000000 0.000000
# 2 -0.001367 0.011288 -0.001268 0.000000 0.000000 0.000000
# 3 -0.012363 -0.001268 0.027854 0.000000 0.000000 0.000000
# 4 0.000000 0.000000 0.000000 0.023325 0.000000 0.000000
# 5 0.000000 0.000000 0.000000 0.000000 0.067001 0.000000
# 6 0.000000 0.000000 0.000000 0.000000 0.000000 0.032715
#
#
# Mechanical properties :
#
#
# Convention : Reuss Voigt Hill
#
# Bulk Modulus (GPa) = 24.08722 25.83469 24.96095
# Shear Modulus (GPa) = 20.97433 27.08158 24.02796
#
# Velocity S-wave (km/s) = 2.97887 3.38489 3.18835
# Velocity P-wave (km/s) = 4.69278 5.11924 4.91064
#
# Compressibility (1/GPa) = 0.04151579
#
# Stress axis : x y z
#
# Youngs Moduli (GPa) = 30.89312 88.59059 35.90152
#
# Poissons Ratio (x) = 0.12112 0.44384
# Poissons Ratio (y) = 0.04224 0.04552
# Poissons Ratio (z) = 0.38193 0.11232
#
# Static dielectric constant tensor:
#      x y z
#    x 1.876310 0.000000 0.000000 
#    y 0.000000 1.919240 0.000000 
#    z 0.000000 0.000000 1.894480 
# 
# From -- ./inp_files/3428.got.cif
#   From: 2010.05.17/outbox.cif.g08.bks.cpg/sg61_2_cif.got.tgz:3428.got - 2010.06.03 15:17:17.
