data_PCOD9460587
_publ_section_title
;
Structure prediction by ZEFSAII (Michael W. Deem and Ramdas Pophale) SiO2 
 PCOD9460587
Probable space group: P B C A
;
_chemical_formula_sum "Si O2"
_cell_formula_units_Z 60
_cell_length_a 4.981008
_cell_length_b 19.977397
_cell_length_c 28.355341
_cell_angle_alpha 90.000000
_cell_angle_beta 90.000000
_cell_angle_gamma 90.000000
_cell_volume 2821.571201
_symmetry_space_group_name_H-M "P B C A"
_symmetry_group_IT_number 61
_symmetry_cell_setting 'orthorhombic'
loop_
_space_group_symop_operation_xyz
x,y,z
1/2-x,-y,1/2+z
1/2+x,1/2-y,-z
-x,1/2+y,1/2-z
-x,-y,-z
1/2+x,y,1/2-z
1/2-x,1/2+y,z
x,1/2-y,1/2+z
loop_
_atom_site_type_symbol
_atom_site_label
_atom_site_fract_x
_atom_site_fract_y
_atom_site_fract_z
Si Si1 0.852792 0.605817 0.575003
Si Si2 0.749760 0.331744 0.782611
Si Si3 0.268462 0.927723 0.630066
Si Si4 0.000000 0.500000 0.500000
Si Si5 0.835303 0.750133 0.031789
Si Si6 0.273427 0.896879 0.931146
Si Si7 0.188668 0.676049 0.719303
Si Si8 0.146998 0.421132 0.135857
O O1 0.825568 0.552600 0.533135
O O2 0.794119 0.681514 0.560162
O O3 0.654985 0.585672 0.617442
O O4 0.157722 0.598445 0.592715
O O5 0.463338 0.344721 0.758800
O O6 0.793924 0.376015 0.828557
O O7 0.774560 0.253372 0.795375
O O8 0.567275 0.916767 0.610515
O O9 0.069954 0.917708 0.585538
O O10 0.218995 0.002607 0.647788
O O11 0.833057 0.436373 0.523487
O O12 0.770286 0.682488 0.059890
O O13 0.639210 0.752545 0.986755
O O14 0.384202 0.665838 0.764154
O O15 0.282054 0.627235 0.678521
#
# Coordination Sequence:
#
# PCOD9460587 Si02
#       8
#     8   8   8   4   8   8   8   8
#     4  12  27  42  69  97 135 179 223 284 334 397
#     4  10  23  43  68  97 133 177 218 269 341 407
#     4  12  25  44  66 103 133 171 228 276 336 399
#     4  12  24  50  68  94 140 184 220 278 336 410
#     4  12  26  44  64  96 128 174 234 274 336 396
#     4  12  27  42  69  97 135 179 223 284 334 397
#     4  10  23  43  68  97 133 177 218 269 341 407
#     4  12  25  44  66 103 133 171 228 276 336 399
#
# _framework density 21.264747
#
# number of rings (size 3 to 8) (size 9 to 14) (size 15 to 20)
#    0.000    0.533    4.000    3.200    3.733    2.133 
#    0.000    0.000    0.000    0.000    0.000    0.000 
#    0.000    0.000    0.000    0.000    0.000    0.000 
#
# Total GULP energy -334858.926752 kJ/mol
# GULP energy per Si atom -5580.982113 kJ/mol
# Density = 2.121635 g / cm^3
# Si number density = 21.264747 Si / 1000 Ang^3
#
#
#
# Elastic Constant Matrix: (Units=GPa)
#
#
# Indices 1 2 3 4 5 6 
#
# 1 45.5572 4.8610 -9.4700 0.0000 0.0000 0.0000
# 2 4.8610 130.8344 40.0927 0.0000 0.0000 0.0000
# 3 -9.4700 40.0927 50.9841 0.0000 0.0000 0.0000
# 4 0.0000 0.0000 0.0000 33.6104 0.0000 0.0000
# 5 0.0000 0.0000 0.0000 0.0000 21.8202 0.0000
# 6 0.0000 0.0000 0.0000 0.0000 0.0000 9.7521
#
#
#
# Elastic Compliance Matrix: (Units=1/GPa)
#
#
# Indices 1 2 3 4 5 6 
#
# 1 0.023656 -0.002932 0.006700 0.000000 0.000000 0.000000
# 2 -0.002932 0.010433 -0.008749 0.000000 0.000000 0.000000
# 3 0.006700 -0.008749 0.027738 0.000000 0.000000 0.000000
# 4 0.000000 0.000000 0.000000 0.029753 0.000000 0.000000
# 5 0.000000 0.000000 0.000000 0.000000 0.045829 0.000000
# 6 0.000000 0.000000 0.000000 0.000000 0.000000 0.102542
#
#
# Mechanical properties :
#
#
# Convention : Reuss Voigt Hill
#
# Bulk Modulus (GPa) = 19.28093 33.14921 26.21507
# Shear Modulus (GPa) = 18.71241 25.82935 22.27088
#
# Velocity S-wave (km/s) = 2.96965 3.48897 3.23974
# Velocity P-wave (km/s) = 4.56566 5.64387 5.13315
#
# Compressibility (1/GPa) = 0.05186471
#
# Stress axis : x y z
#
# Youngs Moduli (GPa) = 42.27277 95.84776 36.05115
#
# Poissons Ratio (x) = 0.28102 -0.24153
# Poissons Ratio (y) = 0.12394 0.31541
# Poissons Ratio (z) = -0.28321 0.83857
#
# Static dielectric constant tensor:
#      x y z
#    x 1.747400 0.000000 0.000000 
#    y 0.000000 1.743370 0.000000 
#    z 0.000000 0.000000 1.742210 
# 
# From -- ./inp_files/11280.got.cif
#   From: 2010.05.17/outbox.cif.g08.bks.cpg/sg61_6_cif.got.tgz:11280.got - 2010.06.03 15:17:17.
