data_PCOD9460057
_publ_section_title
;
Structure prediction by ZEFSAII (Michael W. Deem and Ramdas Pophale) SiO2 
 PCOD9460057
Probable space group: P B C A
;
_chemical_formula_sum "Si O2"
_cell_formula_units_Z 64
_cell_length_a 15.966980
_cell_length_b 14.649715
_cell_length_c 10.700679
_cell_angle_alpha 90.000000
_cell_angle_beta 90.000000
_cell_angle_gamma 90.000000
_cell_volume 2503.014085
_symmetry_space_group_name_H-M "P B C A"
_symmetry_group_IT_number 61
_symmetry_cell_setting 'orthorhombic'
loop_
_space_group_symop_operation_xyz
x,y,z
1/2-x,-y,1/2+z
1/2+x,1/2-y,-z
-x,1/2+y,1/2-z
-x,-y,-z
1/2+x,y,1/2-z
1/2-x,1/2+y,z
x,1/2-y,1/2+z
loop_
_atom_site_type_symbol
_atom_site_label
_atom_site_fract_x
_atom_site_fract_y
_atom_site_fract_z
Si Si1 0.839510 0.343206 0.360196
Si Si2 0.349286 0.894646 0.485341
Si Si3 0.479674 0.615469 0.781968
Si Si4 0.539206 0.188912 0.323249
Si Si5 0.755633 0.741389 0.668921
Si Si6 0.409457 0.299520 0.481140
Si Si7 0.711946 0.932808 0.620755
Si Si8 0.422265 0.446263 0.663829
O O1 0.750872 0.322204 0.292900
O O2 0.872596 0.242539 0.391675
O O3 0.830421 0.389687 0.495568
O O4 0.920054 0.390297 0.296850
O O5 0.431529 0.921154 0.404375
O O6 0.384188 0.869263 0.620450
O O7 0.313461 0.801015 0.434638
O O8 0.277685 0.966745 0.440863
O O9 0.448897 0.719247 0.758382
O O10 0.451815 0.550430 0.670026
O O11 0.487705 0.237649 0.437970
O O12 0.485530 0.117045 0.244369
O O13 0.660178 0.720905 0.622841
O O14 0.771412 0.849406 0.662897
O O15 0.418601 0.402999 0.526182
O O16 0.660979 0.945715 0.749728
#
# Coordination Sequence:
#
# PCOD9460057 Si02
#       8
#     8   8   8   8   8   8   8   8
#     4  11  18  40  67  92 121 172 215 254 315 390
#     4  11  25  42  62  97 129 163 217 273 321 380
#     4  11  22  37  65  96 125 161 211 274 317 373
#     4  12  20  41  63  96 128 166 210 267 326 373
#     4  11  23  42  63  90 130 168 211 263 323 384
#     4  11  19  38  65  87 124 166 209 253 319 387
#     4  10  21  41  65  92 122 175 216 252 315 395
#     4  11  20  37  66  94 125 163 216 265 311 384
#
# _framework density 25.569174
#
# number of rings (size 3 to 8) (size 9 to 14) (size 15 to 20)
#    0.000    1.000    7.500    0.750    0.000    4.500 
#    6.750    1.250    0.000    0.000    0.000    0.000 
#    0.000    0.000    0.000    0.000    0.000    0.000 
#
# Total GULP energy -356562.013476 kJ/mol
# GULP energy per Si atom -5571.281461 kJ/mol
# Density = 2.551098 g / cm^3
# Si number density = 25.569174 Si / 1000 Ang^3
#
#
#
# Elastic Constant Matrix: (Units=GPa)
#
#
# Indices 1 2 3 4 5 6 
#
# 1 21.3080 1.1253 10.7534 0.0000 0.0000 0.0000
# 2 1.1253 105.6408 4.5249 0.0000 0.0000 0.0000
# 3 10.7534 4.5249 60.8543 0.0000 0.0000 0.0000
# 4 0.0000 0.0000 0.0000 34.2489 0.0000 0.0000
# 5 0.0000 0.0000 0.0000 0.0000 38.2454 0.0000
# 6 0.0000 0.0000 0.0000 0.0000 0.0000 22.9398
#
#
#
# Elastic Compliance Matrix: (Units=1/GPa)
#
#
# Indices 1 2 3 4 5 6 
#
# 1 0.051528 -0.000159 -0.009094 0.000000 0.000000 0.000000
# 2 -0.000159 0.009497 -0.000678 0.000000 0.000000 0.000000
# 3 -0.009094 -0.000678 0.018090 0.000000 0.000000 0.000000
# 4 0.000000 0.000000 0.000000 0.029198 0.000000 0.000000
# 5 0.000000 0.000000 0.000000 0.000000 0.026147 0.000000
# 6 0.000000 0.000000 0.000000 0.000000 0.000000 0.043592
#
#
# Mechanical properties :
#
#
# Convention : Reuss Voigt Hill
#
# Bulk Modulus (GPa) = 16.87669 24.51224 20.69446
# Shear Modulus (GPa) = 22.97103 30.51345 26.74224
#
# Velocity S-wave (km/s) = 3.00056 3.45826 3.23751
# Velocity P-wave (km/s) = 4.31500 5.05505 4.69962
#
# Compressibility (1/GPa) = 0.05925334
#
# Stress axis : x y z
#
# Youngs Moduli (GPa) = 19.40676 105.29890 55.27921
#
# Poissons Ratio (x) = 0.01678 0.50268
# Poissons Ratio (y) = 0.00309 0.03748
# Poissons Ratio (z) = 0.17648 0.07139
#
# Static dielectric constant tensor:
#      x y z
#    x 2.087890 0.000000 0.000000 
#    y 0.000000 2.123450 0.000000 
#    z 0.000000 0.000000 2.101800 
# 
# From -- ./inp_files/6291.got.cif
#   From: 2010.05.17/outbox.cif.g08.bks.cpg/sg61_4_cif.got.tgz:6291.got - 2010.06.03 15:17:17.
