data_PCOD9460084
_publ_section_title
;
Structure prediction by ZEFSAII (Michael W. Deem and Ramdas Pophale) SiO2 
 PCOD9460084
Probable space group: P B C A
;
_chemical_formula_sum "Si O2"
_cell_formula_units_Z 48
_cell_length_a 7.292170
_cell_length_b 8.774910
_cell_length_c 26.748937
_cell_angle_alpha 90.000000
_cell_angle_beta 90.000000
_cell_angle_gamma 90.000000
_cell_volume 1711.614604
_symmetry_space_group_name_H-M "P B C A"
_symmetry_group_IT_number 61
_symmetry_cell_setting 'orthorhombic'
loop_
_space_group_symop_operation_xyz
x,y,z
1/2-x,-y,1/2+z
1/2+x,1/2-y,-z
-x,1/2+y,1/2-z
-x,-y,-z
1/2+x,y,1/2-z
1/2-x,1/2+y,z
x,1/2-y,1/2+z
loop_
_atom_site_type_symbol
_atom_site_label
_atom_site_fract_x
_atom_site_fract_y
_atom_site_fract_z
Si Si1 0.448964 0.593660 0.169758
Si Si2 0.457349 0.255450 0.511335
Si Si3 0.863838 0.982318 0.688689
Si Si4 0.141630 0.979756 0.424292
Si Si5 0.575637 0.031486 0.436201
Si Si6 0.145625 0.783268 0.219305
O O1 0.667470 0.600495 0.179605
O O2 0.363684 0.609461 0.114550
O O3 0.340102 0.710899 0.204383
O O4 0.408484 0.416672 0.181299
O O5 0.541603 0.377258 0.549442
O O6 0.396572 0.339868 0.460691
O O7 0.348235 0.130419 0.544906
O O8 0.599199 0.139268 0.483612
O O9 0.917239 0.041539 0.633299
O O10 0.011797 0.860608 0.708621
O O11 0.839839 0.114568 0.730026
O O12 0.359825 0.006858 0.424239
#
# Coordination Sequence:
#
# PCOD9460084 Si02
#       6
#     8   8   8   8   8   8
#     4  11  30  56  85 123 171 225 286 359 437 517
#     4  10  21  41  74 114 155 210 277 327 416 513
#     4  11  30  56  89 118 181 223 290 366 436 525
#     4  10  22  47  76 111 155 226 267 339 435 494
#     4  10  22  47  72 113 159 214 273 339 420 498
#     4  12  31  53  86 131 158 231 294 352 441 517
#
# _framework density 28.043697000000002
#
# number of rings (size 3 to 8) (size 9 to 14) (size 15 to 20)
#    0.000    1.333    0.000    2.000    4.667    9.333 
#   30.000    0.000    0.000    0.000    0.000    0.000 
#    0.000    0.000    0.000    0.000    0.000    0.000 
#
# Total GULP energy -268950.697795 kJ/mol
# GULP energy per Si atom -5603.139537 kJ/mol
# Density = 2.797987 g / cm^3
# Si number density = 28.043697 Si / 1000 Ang^3
#
#
#
# Elastic Constant Matrix: (Units=GPa)
#
#
# Indices 1 2 3 4 5 6 
#
# 1 76.4817 6.6013 30.7869 0.0000 0.0000 0.0000
# 2 6.6013 137.4751 58.2263 0.0000 0.0000 0.0000
# 3 30.7869 58.2263 248.2132 0.0000 0.0000 0.0000
# 4 0.0000 0.0000 0.0000 49.1639 0.0000 0.0000
# 5 0.0000 0.0000 0.0000 0.0000 36.2660 0.0000
# 6 0.0000 0.0000 0.0000 0.0000 0.0000 40.5911
#
#
#
# Elastic Compliance Matrix: (Units=1/GPa)
#
#
# Indices 1 2 3 4 5 6 
#
# 1 0.013763 0.000069 -0.001723 0.000000 0.000000 0.000000
# 2 0.000069 0.008077 -0.001903 0.000000 0.000000 0.000000
# 3 -0.001723 -0.001903 0.004689 0.000000 0.000000 0.000000
# 4 0.000000 0.000000 0.000000 0.020340 0.000000 0.000000
# 5 0.000000 0.000000 0.000000 0.000000 0.027574 0.000000
# 6 0.000000 0.000000 0.000000 0.000000 0.000000 0.024636
#
#
# Mechanical properties :
#
#
# Convention : Reuss Voigt Hill
#
# Bulk Modulus (GPa) = 51.51022 72.59990 62.05506
# Shear Modulus (GPa) = 44.37942 49.64123 47.01033
#
# Velocity S-wave (km/s) = 3.98239 4.21187 4.09874
# Velocity P-wave (km/s) = 6.28917 7.04254 6.67649
#
# Compressibility (1/GPa) = 0.01941362
#
# Stress axis : x y z
#
# Youngs Moduli (GPa) = 72.65995 123.81099 213.26508
#
# Poissons Ratio (x) = -0.00854 0.36751
# Poissons Ratio (y) = -0.00501 0.40589
# Poissons Ratio (z) = 0.12521 0.23564
#
# Static dielectric constant tensor:
#      x y z
#    x 2.431300 0.000000 0.000000 
#    y 0.000000 2.218790 0.000000 
#    z 0.000000 0.000000 2.238410 
# 
# From -- ./inp_files/3495.got.cif
#   From: 2010.05.17/outbox.cif.g08.bks.cpg/sg61_2_cif.got.tgz:3495.got - 2010.06.03 15:17:17.
