data_PCOD9460790
_publ_section_title
;
Structure prediction by ZEFSAII (Michael W. Deem and Ramdas Pophale) SiO2 
 PCOD9460790
Probable space group: P B C A
;
_chemical_formula_sum "Si O2"
_cell_formula_units_Z 48
_cell_length_a 20.437854
_cell_length_b 12.413980
_cell_length_c 7.018172
_cell_angle_alpha 90.000000
_cell_angle_beta 90.000000
_cell_angle_gamma 90.000000
_cell_volume 1780.616287
_symmetry_space_group_name_H-M "P B C A"
_symmetry_group_IT_number 61
_symmetry_cell_setting 'orthorhombic'
loop_
_space_group_symop_operation_xyz
x,y,z
1/2-x,-y,1/2+z
1/2+x,1/2-y,-z
-x,1/2+y,1/2-z
-x,-y,-z
1/2+x,y,1/2-z
1/2-x,1/2+y,z
x,1/2-y,1/2+z
loop_
_atom_site_type_symbol
_atom_site_label
_atom_site_fract_x
_atom_site_fract_y
_atom_site_fract_z
Si Si1 0.032142 0.652391 0.631827
Si Si2 0.620941 0.864123 0.872637
Si Si3 0.568063 0.402908 0.430923
Si Si4 0.288244 0.251436 0.876567
Si Si5 0.915596 0.919491 0.873657
Si Si6 0.311778 0.747488 0.124296
O O1 0.074872 0.759195 0.631712
O O2 0.073169 0.544890 0.586349
O O3 0.968321 0.646753 0.497162
O O4 0.998695 0.633658 0.835476
O O5 0.584051 0.975564 0.870120
O O6 0.668399 0.852169 0.689425
O O7 0.666872 0.850500 0.061347
O O8 0.565663 0.398169 0.656202
O O9 0.629477 0.332013 0.365098
O O10 0.269554 0.223173 0.625971
O O11 0.206711 0.259090 0.872899
O O12 0.843085 0.872311 0.897181
#
# Coordination Sequence:
#
# PCOD9460790 Si02
#       6
#     8   8   8   8   8   8
#     4  11  28  49  75 116 156 198 255 324 388 463
#     4  11  27  51  74 117 152 203 252 321 395 449
#     4  12  27  49  82 111 154 204 255 321 385 467
#     4  10  24  49  76 104 157 197 255 315 374 461
#     4  11  26  49  77 111 153 202 253 316 383 462
#     4  11  23  49  75 113 145 205 258 311 382 454
#
# _framework density 26.956956999999999
#
# number of rings (size 3 to 8) (size 9 to 14) (size 15 to 20)
#    0.000    1.000    1.667    2.500    7.000    2.667 
#   18.000    0.000    0.000    0.000    0.000    0.000 
#    0.000    0.000    0.000    0.000    0.000    0.000 
#
# Total GULP energy -268764.204261 kJ/mol
# GULP energy per Si atom -5599.254255 kJ/mol
# Density = 2.689560 g / cm^3
# Si number density = 26.956957 Si / 1000 Ang^3
#
#
#
# Elastic Constant Matrix: (Units=GPa)
#
#
# Indices 1 2 3 4 5 6 
#
# 1 151.7308 72.5700 60.6623 0.0000 0.0000 0.0000
# 2 72.5700 138.6207 15.6019 0.0000 0.0000 0.0000
# 3 60.6623 15.6019 178.7134 0.0000 0.0000 0.0000
# 4 0.0000 0.0000 0.0000 35.9245 0.0000 0.0000
# 5 0.0000 0.0000 0.0000 0.0000 89.1477 0.0000
# 6 0.0000 0.0000 0.0000 0.0000 0.0000 11.9476
#
#
#
# Elastic Compliance Matrix: (Units=1/GPa)
#
#
# Indices 1 2 3 4 5 6 
#
# 1 0.010187 -0.004993 -0.003022 0.000000 0.000000 0.000000
# 2 -0.004993 0.009733 0.000845 0.000000 0.000000 0.000000
# 3 -0.003022 0.000845 0.006548 0.000000 0.000000 0.000000
# 4 0.000000 0.000000 0.000000 0.027836 0.000000 0.000000
# 5 0.000000 0.000000 0.000000 0.000000 0.011217 0.000000
# 6 0.000000 0.000000 0.000000 0.000000 0.000000 0.083699
#
#
# Mechanical properties :
#
#
# Convention : Reuss Voigt Hill
#
# Bulk Modulus (GPa) = 82.45618 85.19259 83.82438
# Shear Modulus (GPa) = 29.83270 48.75266 39.29268
#
# Velocity S-wave (km/s) = 3.33029 4.25730 3.82201
# Velocity P-wave (km/s) = 6.74109 7.47248 7.11619
#
# Compressibility (1/GPa) = 0.01212765
#
# Stress axis : x y z
#
# Youngs Moduli (GPa) = 98.16684 102.74733 152.72949
#
# Poissons Ratio (x) = 0.51300 0.46153
# Poissons Ratio (y) = 0.49013 -0.12907
# Poissons Ratio (z) = 0.29665 -0.08683
#
# Static dielectric constant tensor:
#      x y z
#    x 2.021430 0.000000 0.000000 
#    y 0.000000 1.972760 0.000000 
#    z 0.000000 0.000000 2.836860 
# 
# From -- ./inp_files/3472.got.cif
#   From: 2010.05.17/outbox.cif.g08.bks.cpg/sg61_2_cif.got.tgz:3472.got - 2010.06.03 15:17:17.
