data_PCOD9460375
_publ_section_title
;
Structure prediction by ZEFSAII (Michael W. Deem and Ramdas Pophale) SiO2 
 PCOD9460375
Probable space group: P B C A
;
_chemical_formula_sum "Si O2"
_cell_formula_units_Z 56
_cell_length_a 10.903644
_cell_length_b 9.525899
_cell_length_c 19.190644
_cell_angle_alpha 90.000000
_cell_angle_beta 90.000000
_cell_angle_gamma 90.000000
_cell_volume 1993.274841
_symmetry_space_group_name_H-M "P B C A"
_symmetry_group_IT_number 61
_symmetry_cell_setting 'orthorhombic'
loop_
_space_group_symop_operation_xyz
x,y,z
1/2-x,-y,1/2+z
1/2+x,1/2-y,-z
-x,1/2+y,1/2-z
-x,-y,-z
1/2+x,y,1/2-z
1/2-x,1/2+y,z
x,1/2-y,1/2+z
loop_
_atom_site_type_symbol
_atom_site_label
_atom_site_fract_x
_atom_site_fract_y
_atom_site_fract_z
Si Si1 0.267978 0.123067 0.170571
Si Si2 0.500000 0.500000 0.000000
Si Si3 0.267978 0.376933 0.829429
Si Si4 0.483307 0.760430 0.616162
Si Si5 0.711670 0.404554 0.043843
Si Si6 0.500000 0.000000 0.000000
Si Si7 0.983307 0.739570 0.116161
Si Si8 0.711670 0.095446 0.956157
O O1 0.282964 0.077047 0.250000
O O2 0.137745 0.203671 0.161347
O O3 0.383762 0.227739 0.152863
O O4 0.266167 0.988959 0.119224
O O5 0.493339 0.619722 0.060941
O O6 0.655161 0.531128 0.989531
O O7 0.383762 0.272261 0.847137
O O8 0.266167 0.511041 0.880776
O O9 0.137745 0.296329 0.838653
O O10 0.441477 0.628371 0.567817
O O11 0.558523 0.371629 0.067817
O O12 0.726101 0.250000 1.000000
O O13 0.493339 0.880278 0.939059
O O14 0.655161 0.968872 0.010469
#
# Coordination Sequence:
#
# PCOD9460375 Si02
#       8
#     8   4   8   8   8   4   8   8
#     4  11  26  46  70 107 152 200 256 314 393 478
#     4  10  22  42  68 112 144 186 246 314 390 452
#     4  11  26  46  70 107 152 200 256 314 393 478
#     4  11  25  44  74 107 152 196 254 319 393 464
#     4  11  24  44  73 110 145 200 256 328 380 465
#     4  10  22  42  68 112 144 186 246 314 390 452
#     4  11  25  44  74 107 152 196 254 319 393 464
#     4  11  24  44  73 110 145 200 256 328 380 465
#
# _framework density 28.094470000000001
#
# number of rings (size 3 to 8) (size 9 to 14) (size 15 to 20)
#    0.000    1.143    2.857    1.714    4.000    2.286 
#    0.000    0.000    0.000    0.000    0.000    0.000 
#    0.000    0.000    0.000    0.000    0.000    0.000 
#
# Total GULP energy -312045.706453 kJ/mol
# GULP energy per Si atom -5572.244758 kJ/mol
# Density = 2.803053 g / cm^3
# Si number density = 28.094470 Si / 1000 Ang^3
#
#
#
# Elastic Constant Matrix: (Units=GPa)
#
#
# Indices 1 2 3 4 5 6 
#
# 1 339.7899 85.1483 83.3200 0.0000 0.0000 0.0000
# 2 85.1483 243.2961 88.4966 0.0000 0.0000 0.0000
# 3 83.3200 88.4966 236.6190 0.0000 0.0000 0.0000
# 4 0.0000 0.0000 0.0000 39.0016 0.0000 0.0000
# 5 0.0000 0.0000 0.0000 0.0000 35.2877 0.0000
# 6 0.0000 0.0000 0.0000 0.0000 0.0000 83.0407
#
#
#
# Elastic Compliance Matrix: (Units=1/GPa)
#
#
# Indices 1 2 3 4 5 6 
#
# 1 0.003372 -0.000866 -0.000863 0.000000 0.000000 0.000000
# 2 -0.000866 0.004980 -0.001558 0.000000 0.000000 0.000000
# 3 -0.000863 -0.001558 0.005113 0.000000 0.000000 0.000000
# 4 0.000000 0.000000 0.000000 0.025640 0.000000 0.000000
# 5 0.000000 0.000000 0.000000 0.000000 0.028339 0.000000
# 6 0.000000 0.000000 0.000000 0.000000 0.000000 0.012042
#
#
# Mechanical properties :
#
#
# Convention : Reuss Voigt Hill
#
# Bulk Modulus (GPa) = 145.12792 148.18164 146.65478
# Shear Modulus (GPa) = 56.58943 68.98200 62.78572
#
# Velocity S-wave (km/s) = 4.49291 4.96053 4.73250
# Velocity P-wave (km/s) = 8.87042 9.25569 9.06510
#
# Compressibility (1/GPa) = 0.00689047
#
# Stress axis : x y z
#
# Youngs Moduli (GPa) = 296.58507 200.80992 195.58915
#
# Poissons Ratio (x) = 0.17390 0.16887
# Poissons Ratio (y) = 0.25683 0.30464
# Poissons Ratio (z) = 0.25607 0.31277
#
# Static dielectric constant tensor:
#      x y z
#    x 2.396850 0.000000 0.000000 
#    y 0.000000 2.220850 0.000000 
#    z 0.000000 0.000000 2.204110 
# 
# From -- ./inp_files/10323.got.cif
#   From: 2010.05.17/outbox.cif.g08.bks.cpg/sg61_6_cif.got.tgz:10323.got - 2010.06.03 15:17:17.
