data_PCOD9460643
_publ_section_title
;
Structure prediction by ZEFSAII (Michael W. Deem and Ramdas Pophale) SiO2 
 PCOD9460643
Probable space group: P B C A
;
_chemical_formula_sum "Si O2"
_cell_formula_units_Z 64
_cell_length_a 9.141031
_cell_length_b 10.652547
_cell_length_c 30.490744
_cell_angle_alpha 90.000000
_cell_angle_beta 90.000000
_cell_angle_gamma 90.000000
_cell_volume 2969.044196
_symmetry_space_group_name_H-M "P B C A"
_symmetry_group_IT_number 61
_symmetry_cell_setting 'orthorhombic'
loop_
_space_group_symop_operation_xyz
x,y,z
1/2-x,-y,1/2+z
1/2+x,1/2-y,-z
-x,1/2+y,1/2-z
-x,-y,-z
1/2+x,y,1/2-z
1/2-x,1/2+y,z
x,1/2-y,1/2+z
loop_
_atom_site_type_symbol
_atom_site_label
_atom_site_fract_x
_atom_site_fract_y
_atom_site_fract_z
Si Si1 0.838932 0.217736 0.810954
Si Si2 0.405139 0.627885 0.626040
Si Si3 0.957683 0.852767 0.619810
Si Si4 0.102655 0.924261 0.751475
Si Si5 0.358320 0.214249 0.341400
Si Si6 0.857278 0.075125 0.730177
Si Si7 0.912178 0.325965 0.977755
Si Si8 0.696640 0.398150 0.469212
O O1 0.701307 0.150361 0.832923
O O2 0.800162 0.335844 0.780083
O O3 0.921783 0.138301 0.773944
O O4 0.943509 0.264884 0.849346
O O5 0.493528 0.497277 0.626988
O O6 0.513367 0.747808 0.625241
O O7 0.306957 0.619583 0.582945
O O8 0.788881 0.829091 0.634105
O O9 0.003718 0.824451 0.569412
O O10 0.093013 0.876423 0.801464
O O11 0.195284 0.048635 0.754939
O O12 0.951402 0.948948 0.726479
O O13 0.346489 0.342216 0.312784
O O14 0.806982 0.451077 0.978699
O O15 0.822518 0.197202 0.985655
O O16 0.040257 0.349993 0.012709
#
# Coordination Sequence:
#
# PCOD9460643 Si02
#       8
#     8   8   8   8   8   8   8   8
#     4  11  21  37  62  84 119 169 211 265 325 383
#     4  11  23  41  62  93 127 166 216 268 326 397
#     4  11  23  41  62  93 131 163 215 274 328 394
#     4  11  22  37  56  84 120 163 212 264 315 374
#     4  11  23  37  58  88 123 171 214 264 326 379
#     4  11  22  37  56  84 120 163 212 264 315 375
#     4  10  23  45  72 101 136 176 214 273 335 405
#     4  10  23  45  72 101 136 173 216 270 336 405
#
# _framework density 21.555757
#
# number of rings (size 3 to 8) (size 9 to 14) (size 15 to 20)
#    0.000    1.250    1.250    5.250    1.750    4.500 
#    0.000    1.250    0.000    0.000    0.000    0.000 
#    0.000    0.000    0.000    0.000    0.000    0.000 
#
# Total GULP energy -356823.836231 kJ/mol
# GULP energy per Si atom -5575.372441 kJ/mol
# Density = 2.150670 g / cm^3
# Si number density = 21.555757 Si / 1000 Ang^3
#
#
#
# Elastic Constant Matrix: (Units=GPa)
#
#
# Indices 1 2 3 4 5 6 
#
# 1 43.0078 24.6299 -5.9471 0.0000 0.0000 0.0000
# 2 24.6299 46.8485 16.2985 0.0000 0.0000 0.0000
# 3 -5.9471 16.2985 30.7984 0.0000 0.0000 0.0000
# 4 0.0000 0.0000 0.0000 832.1004 0.0000 0.0000
# 5 0.0000 0.0000 0.0000 0.0000 18.3610 0.0000
# 6 0.0000 0.0000 0.0000 0.0000 0.0000 37.8191
#
#
#
# Elastic Compliance Matrix: (Units=1/GPa)
#
#
# Indices 1 2 3 4 5 6 
#
# 1 0.046139 -0.033529 0.026653 0.000000 0.000000 0.000000
# 2 -0.033529 0.050528 -0.033214 0.000000 0.000000 0.000000
# 3 0.026653 -0.033214 0.055192 0.000000 0.000000 0.000000
# 4 0.000000 0.000000 0.000000 0.001202 0.000000 0.000000
# 5 0.000000 0.000000 0.000000 0.000000 0.054463 0.000000
# 6 0.000000 0.000000 0.000000 0.000000 0.000000 0.026442
#
#
# Mechanical properties :
#
#
# Convention : Reuss Voigt Hill
#
# Bulk Modulus (GPa) = 13.95111 21.17971 17.56541
# Shear Modulus (GPa) = 14.79122 183.36767 99.07944
#
# Velocity S-wave (km/s) = 2.62235 9.23317 6.78705
# Velocity P-wave (km/s) = 3.95666 11.11375 8.34178
#
# Compressibility (1/GPa) = 0.07167890
#
# Stress axis : x y z
#
# Youngs Moduli (GPa) = 21.67378 19.79110 18.11847
#
# Poissons Ratio (x) = 0.66358 -0.48291
# Poissons Ratio (y) = 0.72670 0.60178
# Poissons Ratio (z) = -0.57767 0.65733
#
# Static dielectric constant tensor:
#      x y z
#    x 1.853500 0.000000 0.000000 
#    y 0.000000 1.969070 0.000000 
#    z 0.000000 0.000000 1.698910 
# 
# From -- ./inp_files/11747.got.cif
#   From: 2010.05.17/outbox.cif.g08.bks.cpg/sg61_6_cif.got.tgz:11747.got - 2010.06.03 15:17:17.
