data_PCOD9460897
_publ_section_title
;
Structure prediction by ZEFSAII (Michael W. Deem and Ramdas Pophale) SiO2 
 PCOD9460897
Probable space group: P B C A
;
_chemical_formula_sum "Si O2"
_cell_formula_units_Z 40
_cell_length_a 5.114506
_cell_length_b 18.453017
_cell_length_c 20.240987
_cell_angle_alpha 90.000000
_cell_angle_beta 90.000000
_cell_angle_gamma 90.000000
_cell_volume 1910.305210
_symmetry_space_group_name_H-M "P B C A"
_symmetry_group_IT_number 61
_symmetry_cell_setting 'orthorhombic'
loop_
_space_group_symop_operation_xyz
x,y,z
1/2-x,-y,1/2+z
1/2+x,1/2-y,-z
-x,1/2+y,1/2-z
-x,-y,-z
1/2+x,y,1/2-z
1/2-x,1/2+y,z
x,1/2-y,1/2+z
loop_
_atom_site_type_symbol
_atom_site_label
_atom_site_fract_x
_atom_site_fract_y
_atom_site_fract_z
Si Si1 0.174809 0.150363 0.953471
Si Si2 0.869857 0.300843 0.587964
Si Si3 0.052855 0.075739 0.452273
Si Si4 0.951271 0.493561 0.404018
Si Si5 0.937710 0.893575 0.794683
O O1 0.280078 0.218359 0.912645
O O2 0.018399 0.181549 0.018048
O O3 0.004468 0.091285 0.913643
O O4 0.425863 0.107339 0.981614
O O5 0.613875 0.351938 0.588447
O O6 0.030539 0.331222 0.649666
O O7 0.834032 0.023353 0.422844
O O8 0.330039 0.034578 0.449420
O O9 0.988504 0.529815 0.332316
O O10 0.158699 0.888086 0.739279
#
# Coordination Sequence:
#
# PCOD9460897 Si02
#       5
#     8   8   8   8   8
#     4  12  23  40  65 106 134 160 210 284 349 389
#     4  11  25  39  69  99 139 171 213 274 347 406
#     4  11  21  39  60  98 129 167 200 262 336 399
#     4  11  25  39  68  94 130 168 219 272 326 380
#     4  11  24  45  64  88 126 182 231 257 311 402
#
# _framework density 20.939060999999999
#
# number of rings (size 3 to 8) (size 9 to 14) (size 15 to 20)
#    0.000    0.800    6.000    3.600    2.800    0.000 
#    0.000    2.000    0.000    0.000    0.000    0.000 
#    0.000    0.000    0.000    0.000    0.000    0.000 
#
# Total GULP energy -223430.153593 kJ/mol
# GULP energy per Si atom -5585.753840 kJ/mol
# Density = 2.089140 g / cm^3
# Si number density = 20.939061 Si / 1000 Ang^3
#
#
#
# Elastic Constant Matrix: (Units=GPa)
#
#
# Indices 1 2 3 4 5 6 
#
# 1 114.5130 31.0421 12.6824 0.0000 0.0000 0.0000
# 2 31.0421 151.4720 38.4465 0.0000 0.0000 0.0000
# 3 12.6824 38.4465 73.9928 0.0000 0.0000 0.0000
# 4 0.0000 0.0000 0.0000 25.5012 0.0000 0.0000
# 5 0.0000 0.0000 0.0000 0.0000 38.1992 0.0000
# 6 0.0000 0.0000 0.0000 0.0000 0.0000 24.0257
#
#
#
# Elastic Compliance Matrix: (Units=1/GPa)
#
#
# Indices 1 2 3 4 5 6 
#
# 1 0.009277 -0.001725 -0.000694 0.000000 0.000000 0.000000
# 2 -0.001725 0.007926 -0.003822 0.000000 0.000000 0.000000
# 3 -0.000694 -0.003822 0.015620 0.000000 0.000000 0.000000
# 4 0.000000 0.000000 0.000000 0.039214 0.000000 0.000000
# 5 0.000000 0.000000 0.000000 0.000000 0.026179 0.000000
# 6 0.000000 0.000000 0.000000 0.000000 0.000000 0.041622
#
#
# Mechanical properties :
#
#
# Convention : Reuss Voigt Hill
#
# Bulk Modulus (GPa) = 49.16423 56.03555 52.59989
# Shear Modulus (GPa) = 31.42682 34.73234 33.07958
#
# Velocity S-wave (km/s) = 3.87831 4.07717 3.97898
# Velocity P-wave (km/s) = 6.60195 6.99884 6.80329
#
# Compressibility (1/GPa) = 0.02033999
#
# Stress axis : x y z
#
# Youngs Moduli (GPa) = 107.79217 126.17288 64.02099
#
# Poissons Ratio (x) = 0.21767 0.04441
# Poissons Ratio (y) = 0.18596 0.24472
# Poissons Ratio (z) = 0.07478 0.48229
#
# Static dielectric constant tensor:
#      x y z
#    x 1.806200 0.000000 0.000000 
#    y 0.000000 1.781180 0.000000 
#    z 0.000000 0.000000 1.793790 
# 
# From -- ./inp_files/9945.got.cif
#   From: 2010.05.17/outbox.cif.g08.bks.cpg/sg61_5_cif.got.tgz:9945.got - 2010.06.03 15:17:17.
