data_PCOD9460232
_publ_section_title
;
Structure prediction by ZEFSAII (Michael W. Deem and Ramdas Pophale) SiO2 
 PCOD9460232
Probable space group: P B C A
;
_chemical_formula_sum "Si O2"
_cell_formula_units_Z 32
_cell_length_a 11.572772
_cell_length_b 4.908100
_cell_length_c 21.752681
_cell_angle_alpha 90.000000
_cell_angle_beta 90.000000
_cell_angle_gamma 90.000000
_cell_volume 1235.559291
_symmetry_space_group_name_H-M "P B C A"
_symmetry_group_IT_number 61
_symmetry_cell_setting 'orthorhombic'
loop_
_space_group_symop_operation_xyz
x,y,z
1/2-x,-y,1/2+z
1/2+x,1/2-y,-z
-x,1/2+y,1/2-z
-x,-y,-z
1/2+x,y,1/2-z
1/2-x,1/2+y,z
x,1/2-y,1/2+z
loop_
_atom_site_type_symbol
_atom_site_label
_atom_site_fract_x
_atom_site_fract_y
_atom_site_fract_z
Si Si1 0.182137 0.876905 0.841080
Si Si2 0.936829 0.259236 0.774081
Si Si3 0.985098 0.516412 0.901519
Si Si4 0.831690 0.767327 0.505449
O O1 0.289331 0.683731 0.857541
O O2 0.168657 0.853298 0.767791
O O3 0.071928 0.740155 0.872366
O O4 0.037559 0.448020 0.743240
O O5 0.937222 0.333888 0.845333
O O6 0.883738 0.668112 0.938283
O O7 0.060993 0.342780 0.950194
O O8 0.778478 0.468472 0.513653
#
# Coordination Sequence:
#
# PCOD9460232 Si02
#       4
#     8   8   8   8
#     4  11  22  38  64  97 131 169 211 257 319 393
#     4  10  22  39  61  92 128 168 211 262 322 382
#     4  10  24  44  68  95 136 175 218 276 332 389
#     4  11  26  44  67  97 129 175 228 276 327 388
#
# _framework density 25.899198999999999
#
# number of rings (size 3 to 8) (size 9 to 14) (size 15 to 20)
#    0.000    1.500    0.000    4.500    0.000   16.000 
#    0.000    0.000    0.000    0.000    0.000    0.000 
#    0.000    0.000    0.000    0.000    0.000    0.000 
#
# Total GULP energy -179344.844874 kJ/mol
# GULP energy per Si atom -5604.526402 kJ/mol
# Density = 2.584025 g / cm^3
# Si number density = 25.899199 Si / 1000 Ang^3
#
#
#
# Elastic Constant Matrix: (Units=GPa)
#
#
# Indices 1 2 3 4 5 6 
#
# 1 56.1396 12.1956 21.7991 0.0000 0.0000 0.0000
# 2 12.1956 93.3231 0.5214 0.0000 0.0000 0.0000
# 3 21.7991 0.5214 143.9707 0.0000 0.0000 0.0000
# 4 0.0000 0.0000 0.0000 34.7947 0.0000 0.0000
# 5 0.0000 0.0000 0.0000 0.0000 57.5440 0.0000
# 6 0.0000 0.0000 0.0000 0.0000 0.0000 27.9444
#
#
#
# Elastic Compliance Matrix: (Units=1/GPa)
#
#
# Indices 1 2 3 4 5 6 
#
# 1 0.019506 -0.002533 -0.002944 0.000000 0.000000 0.000000
# 2 -0.002533 0.011045 0.000343 0.000000 0.000000 0.000000
# 3 -0.002944 0.000343 0.007390 0.000000 0.000000 0.000000
# 4 0.000000 0.000000 0.000000 0.028740 0.000000 0.000000
# 5 0.000000 0.000000 0.000000 0.000000 0.017378 0.000000
# 6 0.000000 0.000000 0.000000 0.000000 0.000000 0.035785
#
#
# Mechanical properties :
#
#
# Convention : Reuss Voigt Hill
#
# Bulk Modulus (GPa) = 36.13477 40.27393 38.20435
# Shear Modulus (GPa) = 35.88445 41.31780 38.60112
#
# Velocity S-wave (km/s) = 3.72633 3.99849 3.86481
# Velocity P-wave (km/s) = 5.70056 6.07464 5.89057
#
# Compressibility (1/GPa) = 0.02767418
#
# Stress axis : x y z
#
# Youngs Moduli (GPa) = 51.26570 90.54269 135.31029
#
# Poissons Ratio (x) = 0.22931 0.39840
# Poissons Ratio (y) = 0.12984 -0.04648
# Poissons Ratio (z) = 0.15094 -0.03110
#
# Static dielectric constant tensor:
#      x y z
#    x 2.028340 0.000000 0.000000 
#    y 0.000000 1.976930 0.000000 
#    z 0.000000 0.000000 2.113460 
# 
# From -- ./inp_files/1128.got.cif
#   From: 2010.05.17/outbox.cif.g08.bks.cpg/sg61_1_cif.got.tgz:1128.got - 2010.06.03 15:17:17.
