data_PCOD9460985
_publ_section_title
;
Structure prediction by ZEFSAII (Michael W. Deem and Ramdas Pophale) SiO2 
 PCOD9460985
Probable space group: P B C A
;
_chemical_formula_sum "Si O2"
_cell_formula_units_Z 48
_cell_length_a 8.376815
_cell_length_b 8.692727
_cell_length_c 28.151600
_cell_angle_alpha 90.000000
_cell_angle_beta 90.000000
_cell_angle_gamma 90.000000
_cell_volume 2049.925359
_symmetry_space_group_name_H-M "P B C A"
_symmetry_group_IT_number 61
_symmetry_cell_setting 'orthorhombic'
loop_
_space_group_symop_operation_xyz
x,y,z
1/2-x,-y,1/2+z
1/2+x,1/2-y,-z
-x,1/2+y,1/2-z
-x,-y,-z
1/2+x,y,1/2-z
1/2-x,1/2+y,z
x,1/2-y,1/2+z
loop_
_atom_site_type_symbol
_atom_site_label
_atom_site_fract_x
_atom_site_fract_y
_atom_site_fract_z
Si Si1 0.582509 0.798422 0.037013
Si Si2 0.251116 0.908866 0.162978
Si Si3 0.907588 0.863680 0.893215
Si Si4 0.693048 0.739303 0.733495
Si Si5 0.242960 0.961510 0.017196
Si Si6 0.978133 0.566018 0.205876
O O1 0.570476 0.710570 0.087161
O O2 0.411399 0.879699 0.029376
O O3 0.617035 0.666973 0.998149
O O4 0.716239 0.925691 0.026871
O O5 0.308323 0.779297 0.127171
O O6 0.238816 0.832759 0.214918
O O7 0.095330 0.001142 0.145845
O O8 0.389260 0.039624 0.165960
O O9 0.820462 0.940984 0.938489
O O10 0.602610 0.600046 0.709227
O O11 0.577468 0.881182 0.747340
O O12 0.841735 0.805346 0.704412
#
# Coordination Sequence:
#
# PCOD9460985 Si02
#       6
#     8   8   8   8   8   8
#     4  11  23  42  71 101 133 184 237 276 340 415
#     4  12  24  41  71  99 136 180 221 282 350 401
#     4  12  23  43  67 102 135 178 224 283 346 405
#     4  12  23  43  72 100 137 176 237 276 336 421
#     4  11  23  42  73 100 135 183 237 281 334 418
#     4  12  23  43  72 102 131 184 231 279 335 422
#
# _framework density 23.415488
#
# number of rings (size 3 to 8) (size 9 to 14) (size 15 to 20)
#    0.000    0.333    8.333    0.500    0.000    0.000 
#    0.000    1.667    0.000    0.000    0.000    0.000 
#    0.000    0.000    0.000    0.000    0.000    0.000 
#
# Total GULP energy -268140.874563 kJ/mol
# GULP energy per Si atom -5586.268220 kJ/mol
# Density = 2.336219 g / cm^3
# Si number density = 23.415488 Si / 1000 Ang^3
#
#
#
# Elastic Constant Matrix: (Units=GPa)
#
#
# Indices 1 2 3 4 5 6 
#
# 1 59.3320 20.3673 13.7529 0.0000 0.0000 0.0000
# 2 20.3673 105.2516 29.4030 0.0000 0.0000 0.0000
# 3 13.7529 29.4030 46.6174 0.0000 0.0000 0.0000
# 4 0.0000 0.0000 0.0000 26.6201 0.0000 0.0000
# 5 0.0000 0.0000 0.0000 0.0000 30.4714 0.0000
# 6 0.0000 0.0000 0.0000 0.0000 0.0000 54.4254
#
#
#
# Elastic Compliance Matrix: (Units=1/GPa)
#
#
# Indices 1 2 3 4 5 6 
#
# 1 0.018623 -0.002511 -0.003910 0.000000 0.000000 0.000000
# 2 -0.002511 0.011872 -0.006747 0.000000 0.000000 0.000000
# 3 -0.003910 -0.006747 0.026860 0.000000 0.000000 0.000000
# 4 0.000000 0.000000 0.000000 0.037566 0.000000 0.000000
# 5 0.000000 0.000000 0.000000 0.000000 0.032818 0.000000
# 6 0.000000 0.000000 0.000000 0.000000 0.000000 0.018374
#
#
# Mechanical properties :
#
#
# Convention : Reuss Voigt Hill
#
# Bulk Modulus (GPa) = 32.23929 37.58304 34.91117
# Shear Modulus (GPa) = 27.35407 32.14857 29.75132
#
# Velocity S-wave (km/s) = 3.42161 3.70937 3.56839
# Velocity P-wave (km/s) = 5.42293 5.86781 5.64975
#
# Compressibility (1/GPa) = 0.03101805
#
# Stress axis : x y z
#
# Youngs Moduli (GPa) = 53.69777 84.23265 37.22965
#
# Poissons Ratio (x) = 0.21154 0.14557
# Poissons Ratio (y) = 0.13486 0.25119
# Poissons Ratio (z) = 0.20996 0.56832
#
# Static dielectric constant tensor:
#      x y z
#    x 1.935960 0.000000 0.000000 
#    y 0.000000 1.919070 0.000000 
#    z 0.000000 0.000000 1.903130 
# 
# From -- ./inp_files/11657.got.cif
#   From: 2010.05.17/outbox.cif.g08.bks.cpg/sg61_6_cif.got.tgz:11657.got - 2010.06.03 15:17:17.
