data_PCOD9460010
_publ_section_title
;
Structure prediction by ZEFSAII (Michael W. Deem and Ramdas Pophale) SiO2 
 PCOD9460010
Probable space group: P B C A
;
_chemical_formula_sum "Si O2"
_cell_formula_units_Z 32
_cell_length_a 12.595476
_cell_length_b 5.234430
_cell_length_c 18.545757
_cell_angle_alpha 90.000000
_cell_angle_beta 90.000000
_cell_angle_gamma 90.000000
_cell_volume 1222.724308
_symmetry_space_group_name_H-M "P B C A"
_symmetry_group_IT_number 61
_symmetry_cell_setting 'orthorhombic'
loop_
_space_group_symop_operation_xyz
x,y,z
1/2-x,-y,1/2+z
1/2+x,1/2-y,-z
-x,1/2+y,1/2-z
-x,-y,-z
1/2+x,y,1/2-z
1/2-x,1/2+y,z
x,1/2-y,1/2+z
loop_
_atom_site_type_symbol
_atom_site_label
_atom_site_fract_x
_atom_site_fract_y
_atom_site_fract_z
Si Si1 0.430697 0.768267 0.649371
Si Si2 0.809826 0.875092 0.721827
Si Si3 0.894264 0.275631 0.931174
Si Si4 0.615115 0.511856 0.575954
O O1 0.375299 0.504273 0.625260
O O2 0.550851 0.722670 0.623478
O O3 0.416838 0.820060 0.733742
O O4 0.382018 0.001354 0.603870
O O5 0.768846 0.150971 0.743586
O O6 0.818203 0.866663 0.635627
O O7 0.021438 0.314552 0.948575
O O8 0.838349 0.351258 0.005928
#
# Coordination Sequence:
#
# PCOD9460010 Si02
#       4
#     8   8   8   8
#     4  10  21  40  66  88 121 163 215 254 306 377
#     4  12  28  41  58  95 139 168 204 261 332 383
#     4   9  20  38  72  93 111 152 227 270 296 359
#     4   9  23  39  70  91 122 159 225 258 311 368
#
# _framework density 26.171071000000001
#
# number of rings (size 3 to 8) (size 9 to 14) (size 15 to 20)
#    1.500    0.500    0.000    2.250    7.000    0.000 
#    0.000    7.500    0.000    0.000    0.000    0.000 
#    0.000    0.000    0.000    0.000    0.000    0.000 
#
# Total GULP energy -178893.378248 kJ/mol
# GULP energy per Si atom -5590.418070 kJ/mol
# Density = 2.611150 g / cm^3
# Si number density = 26.171071 Si / 1000 Ang^3
#
#
#
# Elastic Constant Matrix: (Units=GPa)
#
#
# Indices 1 2 3 4 5 6 
#
# 1 35.1399 17.8742 7.0653 0.0000 0.0000 0.0000
# 2 17.8742 145.6114 20.9580 0.0000 0.0000 0.0000
# 3 7.0653 20.9580 82.9260 0.0000 0.0000 0.0000
# 4 0.0000 0.0000 0.0000 35.0805 0.0000 0.0000
# 5 0.0000 0.0000 0.0000 0.0000 40.9392 0.0000
# 6 0.0000 0.0000 0.0000 0.0000 0.0000 23.3848
#
#
#
# Elastic Compliance Matrix: (Units=1/GPa)
#
#
# Indices 1 2 3 4 5 6 
#
# 1 0.030587 -0.003507 -0.001720 0.000000 0.000000 0.000000
# 2 -0.003507 0.007529 -0.001604 0.000000 0.000000 0.000000
# 3 -0.001720 -0.001604 0.012611 0.000000 0.000000 0.000000
# 4 0.000000 0.000000 0.000000 0.028506 0.000000 0.000000
# 5 0.000000 0.000000 0.000000 0.000000 0.024426 0.000000
# 6 0.000000 0.000000 0.000000 0.000000 0.000000 0.042763
#
#
# Mechanical properties :
#
#
# Convention : Reuss Voigt Hill
#
# Bulk Modulus (GPa) = 26.97925 39.49694 33.23809
# Shear Modulus (GPa) = 28.99571 34.39955 31.69763
#
# Velocity S-wave (km/s) = 3.33217 3.62941 3.48396
# Velocity P-wave (km/s) = 5.01355 5.71735 5.37698
#
# Compressibility (1/GPa) = 0.03706552
#
# Stress axis : x y z
#
# Youngs Moduli (GPa) = 32.69315 132.82023 79.29682
#
# Poissons Ratio (x) = 0.46583 0.13637
# Poissons Ratio (y) = 0.11466 0.12719
# Poissons Ratio (z) = 0.05622 0.21304
#
# Static dielectric constant tensor:
#      x y z
#    x 2.189150 0.000000 0.000000 
#    y 0.000000 2.005560 0.000000 
#    z 0.000000 0.000000 2.052260 
# 
# From -- ./inp_files/10394.got.cif
#   From: 2010.05.17/outbox.cif.g08.bks.cpg/sg61_6_cif.got.tgz:10394.got - 2010.06.03 15:17:17.
