data_PCOD9460948
_publ_section_title
;
Structure prediction by ZEFSAII (Michael W. Deem and Ramdas Pophale) SiO2 
 PCOD9460948
Probable space group: P B C A
;
_chemical_formula_sum "Si O2"
_cell_formula_units_Z 48
_cell_length_a 14.180713
_cell_length_b 9.647727
_cell_length_c 16.604764
_cell_angle_alpha 90.000000
_cell_angle_beta 90.000000
_cell_angle_gamma 90.000000
_cell_volume 2271.725122
_symmetry_space_group_name_H-M "P B C A"
_symmetry_group_IT_number 61
_symmetry_cell_setting 'orthorhombic'
loop_
_space_group_symop_operation_xyz
x,y,z
1/2-x,-y,1/2+z
1/2+x,1/2-y,-z
-x,1/2+y,1/2-z
-x,-y,-z
1/2+x,y,1/2-z
1/2-x,1/2+y,z
x,1/2-y,1/2+z
loop_
_atom_site_type_symbol
_atom_site_label
_atom_site_fract_x
_atom_site_fract_y
_atom_site_fract_z
Si Si1 0.649201 0.651369 0.163757
Si Si2 0.527366 0.985576 0.405185
Si Si3 0.175262 0.189386 0.065404
Si Si4 0.590802 0.034612 0.949952
Si Si5 0.231814 0.919762 0.419518
Si Si6 0.627381 0.718708 0.348343
O O1 0.552279 0.572003 0.141796
O O2 0.727870 0.532728 0.142945
O O3 0.669965 0.791249 0.112554
O O4 0.648458 0.707562 0.254420
O O5 0.630184 0.056046 0.393308
O O6 0.500000 0.000000 0.500000
O O7 0.548556 0.829965 0.375246
O O8 0.099283 0.308852 0.076182
O O9 0.274641 0.238385 0.102063
O O10 0.185637 0.153941 0.970916
O O11 0.594288 0.932781 0.875324
O O12 0.676910 0.002189 0.010499
O O13 0.500000 0.000000 0.000000
#
# Coordination Sequence:
#
# PCOD9460948 Si02
#       6
#     8   8   8   8   8   8
#     4  12  27  44  71 105 147 188 235 304 367 428
#     4  12  24  47  73 102 142 192 244 297 359 439
#     4  11  22  44  71 100 137 190 234 290 351 436
#     4  11  23  42  71 103 132 185 245 284 339 432
#     4  11  23  44  69 100 139 190 235 283 358 429
#     4  11  27  44  68 105 143 183 235 299 370 418
#
# _framework density 21.129318000000001
#
# number of rings (size 3 to 8) (size 9 to 14) (size 15 to 20)
#    0.000    0.667    3.333    6.000    4.667    2.667 
#    0.000    0.000    0.000    0.000    0.000    0.000 
#    0.000    0.000    0.000    0.000    0.000    0.000 
#
# Total GULP energy -268010.177671 kJ/mol
# GULP energy per Si atom -5583.545368 kJ/mol
# Density = 2.108123 g / cm^3
# Si number density = 21.129318 Si / 1000 Ang^3
#
#
#
# Elastic Constant Matrix: (Units=GPa)
#
#
# Indices 1 2 3 4 5 6 
#
# 1 47.7931 0.4705 2.7425 0.0000 0.0000 0.0000
# 2 0.4705 87.8233 23.2279 0.0000 0.0000 0.0000
# 3 2.7425 23.2279 87.3956 0.0000 0.0000 0.0000
# 4 0.0000 0.0000 0.0000 29.2906 0.0000 0.0000
# 5 0.0000 0.0000 0.0000 0.0000 22.5610 0.0000
# 6 0.0000 0.0000 0.0000 0.0000 0.0000 48.7511
#
#
#
# Elastic Compliance Matrix: (Units=1/GPa)
#
#
# Indices 1 2 3 4 5 6 
#
# 1 0.020962 0.000066 -0.000675 0.000000 0.000000 0.000000
# 2 0.000066 0.012248 -0.003257 0.000000 0.000000 0.000000
# 3 -0.000675 -0.003257 0.012329 0.000000 0.000000 0.000000
# 4 0.000000 0.000000 0.000000 0.034141 0.000000 0.000000
# 5 0.000000 0.000000 0.000000 0.000000 0.044324 0.000000
# 6 0.000000 0.000000 0.000000 0.000000 0.000000 0.020512
#
#
# Mechanical properties :
#
#
# Convention : Reuss Voigt Hill
#
# Bulk Modulus (GPa) = 26.45102 30.65488 28.55295
# Shear Modulus (GPa) = 30.33054 33.22526 31.77790
#
# Velocity S-wave (km/s) = 3.79287 3.96974 3.88231
# Velocity P-wave (km/s) = 5.63267 5.96251 5.79994
#
# Compressibility (1/GPa) = 0.03780572
#
# Stress axis : x y z
#
# Youngs Moduli (GPa) = 47.70625 81.64835 81.10878
#
# Poissons Ratio (x) = -0.00542 0.05478
# Poissons Ratio (y) = -0.00316 0.26419
# Poissons Ratio (z) = 0.03222 0.26595
#
# Static dielectric constant tensor:
#      x y z
#    x 1.790710 0.000000 0.000000 
#    y 0.000000 1.766090 0.000000 
#    z 0.000000 0.000000 1.714760 
# 
# From -- ./inp_files/9446.got.cif
#   From: 2010.05.17/outbox.cif.g08.bks.cpg/sg61_5_cif.got.tgz:9446.got - 2010.06.03 15:17:17.
