data_PCOD9460274
_publ_section_title
;
Structure prediction by ZEFSAII (Michael W. Deem and Ramdas Pophale) SiO2 
 PCOD9460274
Probable space group: P B C A
;
_chemical_formula_sum "Si O2"
_cell_formula_units_Z 48
_cell_length_a 12.793384
_cell_length_b 14.158670
_cell_length_c 14.504355
_cell_angle_alpha 90.000000
_cell_angle_beta 90.000000
_cell_angle_gamma 90.000000
_cell_volume 2627.279735
_symmetry_space_group_name_H-M "P B C A"
_symmetry_group_IT_number 61
_symmetry_cell_setting 'orthorhombic'
loop_
_space_group_symop_operation_xyz
x,y,z
1/2-x,-y,1/2+z
1/2+x,1/2-y,-z
-x,1/2+y,1/2-z
-x,-y,-z
1/2+x,y,1/2-z
1/2-x,1/2+y,z
x,1/2-y,1/2+z
loop_
_atom_site_type_symbol
_atom_site_label
_atom_site_fract_x
_atom_site_fract_y
_atom_site_fract_z
Si Si1 0.156463 0.304107 0.718773
Si Si2 0.486359 0.049625 0.356138
Si Si3 0.183498 0.129756 0.591720
Si Si4 0.358979 0.427901 0.675225
Si Si5 0.550811 0.185056 0.085973
Si Si6 0.921035 0.372563 0.448848
O O1 0.150413 0.200642 0.673636
O O2 0.267075 0.352859 0.694730
O O3 0.129579 0.303758 0.827373
O O4 0.068724 0.370011 0.672107
O O5 0.404794 0.040746 0.273731
O O6 0.432079 0.081042 0.450681
O O7 0.546050 0.952212 0.375396
O O8 0.110065 0.145345 0.503163
O O9 0.302016 0.156494 0.566419
O O10 0.180480 0.020975 0.622942
O O11 0.454943 0.380957 0.619409
O O12 0.499358 0.285305 0.061044
#
# Coordination Sequence:
#
# PCOD9460274 Si02
#       6
#     8   8   8   8   8   8
#     4  11  22  41  63  90 126 161 206 257 307 372
#     4  10  22  40  64  89 124 161 207 252 315 366
#     4  12  23  41  63  92 124 162 213 252 310 376
#     4  11  23  42  62  91 124 164 204 260 307 368
#     4  11  24  40  64  94 125 164 205 261 311 368
#     4  11  21  40  66  90 123 168 204 256 313 371
#
# _framework density 18.269846999999999
#
# number of rings (size 3 to 8) (size 9 to 14) (size 15 to 20)
#    0.000    1.000    5.000    2.500    0.000    0.000 
#    0.000    0.000    0.000    0.000    0.000    0.000 
#    0.000    0.000    0.000    0.000    0.000    0.000 
#
# Total GULP energy -268167.528781 kJ/mol
# GULP energy per Si atom -5586.823516 kJ/mol
# Density = 1.822826 g / cm^3
# Si number density = 18.269847 Si / 1000 Ang^3
#
#
#
# Elastic Constant Matrix: (Units=GPa)
#
#
# Indices 1 2 3 4 5 6 
#
# 1 79.7925 18.4547 33.5618 0.0000 0.0000 0.0000
# 2 18.4547 69.6745 23.1276 0.0000 0.0000 0.0000
# 3 33.5618 23.1276 82.8526 0.0000 0.0000 0.0000
# 4 0.0000 0.0000 0.0000 21.9569 0.0000 0.0000
# 5 0.0000 0.0000 0.0000 0.0000 21.7066 0.0000
# 6 0.0000 0.0000 0.0000 0.0000 0.0000 34.9384
#
#
#
# Elastic Compliance Matrix: (Units=1/GPa)
#
#
# Indices 1 2 3 4 5 6 
#
# 1 0.015410 -0.002215 -0.005624 0.000000 0.000000 0.000000
# 2 -0.002215 0.016136 -0.003607 0.000000 0.000000 0.000000
# 3 -0.005624 -0.003607 0.015355 0.000000 0.000000 0.000000
# 4 0.000000 0.000000 0.000000 0.045544 0.000000 0.000000
# 5 0.000000 0.000000 0.000000 0.000000 0.046069 0.000000
# 6 0.000000 0.000000 0.000000 0.000000 0.000000 0.028622
#
#
# Mechanical properties :
#
#
# Convention : Reuss Voigt Hill
#
# Bulk Modulus (GPa) = 41.65066 42.51197 42.08131
# Shear Modulus (GPa) = 25.24852 26.19875 25.72363
#
# Velocity S-wave (km/s) = 3.72153 3.79091 3.75638
# Velocity P-wave (km/s) = 6.42755 6.51773 6.47279
#
# Compressibility (1/GPa) = 0.02400923
#
# Stress axis : x y z
#
# Youngs Moduli (GPa) = 64.89149 61.97143 65.12641
#
# Poissons Ratio (x) = 0.13726 0.36628
# Poissons Ratio (y) = 0.14373 0.23492
# Poissons Ratio (z) = 0.36496 0.22354
#
# Static dielectric constant tensor:
#      x y z
#    x 1.609020 0.000000 0.000000 
#    y 0.000000 1.608170 0.000000 
#    z 0.000000 0.000000 1.603460 
# 
# From -- ./inp_files/5752.got.cif
#   From: 2010.05.17/outbox.cif.g08.bks.cpg/sg61_3_cif.got.tgz:5752.got - 2010.06.03 15:17:17.
