data_PCOD9460674
_publ_section_title
;
Structure prediction by ZEFSAII (Michael W. Deem and Ramdas Pophale) SiO2 
 PCOD9460674
Probable space group: P B C A
;
_chemical_formula_sum "Si O2"
_cell_formula_units_Z 56
_cell_length_a 5.595959
_cell_length_b 27.893594
_cell_length_c 16.997280
_cell_angle_alpha 90.000000
_cell_angle_beta 90.000000
_cell_angle_gamma 90.000000
_cell_volume 2653.129374
_symmetry_space_group_name_H-M "P B C A"
_symmetry_group_IT_number 61
_symmetry_cell_setting 'orthorhombic'
loop_
_space_group_symop_operation_xyz
x,y,z
1/2-x,-y,1/2+z
1/2+x,1/2-y,-z
-x,1/2+y,1/2-z
-x,-y,-z
1/2+x,y,1/2-z
1/2-x,1/2+y,z
x,1/2-y,1/2+z
loop_
_atom_site_type_symbol
_atom_site_label
_atom_site_fract_x
_atom_site_fract_y
_atom_site_fract_z
Si Si1 0.432512 0.556187 0.498290
Si Si2 0.049978 0.977544 0.088843
Si Si3 0.125924 0.622812 0.413983
Si Si4 0.174135 0.384343 0.436925
Si Si5 0.280013 0.688344 0.796736
Si Si6 0.134537 0.434655 0.703260
Si Si7 0.195181 0.301288 0.796750
O O1 0.500000 0.500000 0.500000
O O2 0.277408 0.556532 0.576976
O O3 0.276182 0.573050 0.423882
O O4 0.620086 0.598303 0.504425
O O5 0.858144 0.936661 0.105765
O O6 0.108382 0.017253 0.151546
O O7 0.000000 0.000000 0.000000
O O8 0.271223 0.664395 0.371833
O O9 0.032327 0.632116 0.502052
O O10 0.908595 0.608976 0.356674
O O11 0.225051 0.344282 0.374010
O O12 0.532268 0.678996 0.751070
O O13 0.288494 0.744917 0.816793
O O14 0.397224 0.432920 0.741491
O O15 0.434837 0.309814 0.743083
#
# Coordination Sequence:
#
# PCOD9460674 Si02
#       7
#     8   8   8   8   8   8   8
#     4  11  21  39  66  89 136 181 225 272 341 392
#     4  11  22  42  61  88 133 182 224 271 344 394
#     4  11  24  41  66 103 133 181 228 282 340 420
#     4  11  24  41  70  96 130 186 229 282 337 410
#     4  10  25  49  71  99 139 179 227 288 352 411
#     4  12  27  40  63  99 134 173 229 281 333 405
#     4  10  23  47  72  98 140 184 218 286 361 404
#
# _framework density 21.107151000000002
#
# number of rings (size 3 to 8) (size 9 to 14) (size 15 to 20)
#    0.000    1.143    4.286    0.857   12.000    1.143 
#    2.571    0.000    0.000    0.000    0.000    0.000 
#    0.000    0.000    0.000    0.000    0.000    0.000 
#
# Total GULP energy -311768.721822 kJ/mol
# GULP energy per Si atom -5567.298604 kJ/mol
# Density = 2.105911 g / cm^3
# Si number density = 21.107151 Si / 1000 Ang^3
#
#
#
# Elastic Constant Matrix: (Units=GPa)
#
#
# Indices 1 2 3 4 5 6 
#
# 1 110.7230 37.2389 43.3702 0.0000 0.0000 0.0000
# 2 37.2389 115.6246 72.4990 0.0000 0.0000 0.0000
# 3 43.3702 72.4990 92.7337 0.0000 0.0000 0.0000
# 4 0.0000 0.0000 0.0000 49.7459 0.0000 0.0000
# 5 0.0000 0.0000 0.0000 0.0000 32.1187 0.0000
# 6 0.0000 0.0000 0.0000 0.0000 0.0000 24.9640
#
#
#
# Elastic Compliance Matrix: (Units=1/GPa)
#
#
# Indices 1 2 3 4 5 6 
#
# 1 0.011080 -0.000626 -0.004692 0.000000 0.000000 0.000000
# 2 -0.000626 0.017000 -0.012998 0.000000 0.000000 0.000000
# 3 -0.004692 -0.012998 0.023140 0.000000 0.000000 0.000000
# 4 0.000000 0.000000 0.000000 0.020102 0.000000 0.000000
# 5 0.000000 0.000000 0.000000 0.000000 0.031135 0.000000
# 6 0.000000 0.000000 0.000000 0.000000 0.000000 0.040058
#
#
# Mechanical properties :
#
#
# Convention : Reuss Voigt Hill
#
# Bulk Modulus (GPa) = 68.55344 69.47749 69.01547
# Shear Modulus (GPa) = 27.17235 32.43059 29.80147
#
# Velocity S-wave (km/s) = 3.59186 3.92404 3.76162
# Velocity P-wave (km/s) = 7.05346 7.31566 7.18575
#
# Compressibility (1/GPa) = 0.01458716
#
# Stress axis : x y z
#
# Youngs Moduli (GPa) = 90.25096 58.82220 43.21544
#
# Poissons Ratio (x) = 0.03684 0.20278
# Poissons Ratio (y) = 0.05653 0.56171
# Poissons Ratio (z) = 0.42349 0.76457
#
# Static dielectric constant tensor:
#      x y z
#    x 2.301300 0.000000 0.000000 
#    y 0.000000 1.835510 0.000000 
#    z 0.000000 0.000000 1.788560 
# 
# From -- ./inp_files/6874.got.cif
#   From: 2010.05.17/outbox.cif.g08.bks.cpg/sg61_4_cif.got.tgz:6874.got - 2010.06.03 15:17:17.
