data_PCOD9460230
_publ_section_title
;
Structure prediction by ZEFSAII (Michael W. Deem and Ramdas Pophale) SiO2 
 PCOD9460230
Probable space group: P B C A
;
_chemical_formula_sum "Si O2"
_cell_formula_units_Z 56
_cell_length_a 13.288063
_cell_length_b 13.407439
_cell_length_c 17.780501
_cell_angle_alpha 90.000000
_cell_angle_beta 90.000000
_cell_angle_gamma 90.000000
_cell_volume 3167.754395
_symmetry_space_group_name_H-M "P B C A"
_symmetry_group_IT_number 61
_symmetry_cell_setting 'orthorhombic'
loop_
_space_group_symop_operation_xyz
x,y,z
1/2-x,-y,1/2+z
1/2+x,1/2-y,-z
-x,1/2+y,1/2-z
-x,-y,-z
1/2+x,y,1/2-z
1/2-x,1/2+y,z
x,1/2-y,1/2+z
loop_
_atom_site_type_symbol
_atom_site_label
_atom_site_fract_x
_atom_site_fract_y
_atom_site_fract_z
Si Si1 0.093242 0.139764 0.988405
Si Si2 0.239355 0.077765 0.271181
Si Si3 0.622025 0.280727 0.843159
Si Si4 0.895333 0.231323 0.210705
Si Si5 0.232445 0.206515 0.407915
Si Si6 0.787650 0.380723 0.313289
Si Si7 0.361351 0.083010 0.523428
O O1 0.116423 0.182522 0.071313
O O2 0.133761 0.026041 0.985038
O O3 0.147793 0.214713 0.930920
O O4 0.973126 0.129995 0.979079
O O5 0.178101 0.137938 0.208078
O O6 0.353708 0.120347 0.270304
O O7 0.197800 0.117984 0.351149
O O8 0.232941 0.963580 0.249678
O O9 0.509520 0.266676 0.813132
O O10 0.687628 0.181209 0.832985
O O11 0.820871 0.258741 0.141235
O O12 0.868030 0.303169 0.279262
O O13 0.284781 0.154601 0.479191
O O14 0.828397 0.427387 0.390285
#
# Coordination Sequence:
#
# PCOD9460230 Si02
#       7
#     8   8   8   8   8   8   8
#     4  11  22  39  63  90 121 159 207 246 312 369
#     4   9  22  39  57  88 117 158 195 246 295 362
#     4  11  20  40  61  85 120 158 198 252 299 363
#     4   9  23  38  58  88 119 156 197 250 297 359
#     4  10  22  39  61  86 126 154 199 255 301 354
#     4  11  22  38  63  90 121 160 202 248 307 360
#     4  11  23  37  65  92 118 164 201 253 304 374
#
# _framework density 17.678137
#
# number of rings (size 3 to 8) (size 9 to 14) (size 15 to 20)
#    0.857    0.857    4.286    0.000    4.000    1.143 
#    2.571    0.000    3.143    2.571    0.000    0.000 
#    0.000    0.000    0.000    0.000    0.000    0.000 
#
# Total GULP energy -312029.093963 kJ/mol
# GULP energy per Si atom -5571.948106 kJ/mol
# Density = 1.763790 g / cm^3
# Si number density = 17.678137 Si / 1000 Ang^3
#
#
#
# Elastic Constant Matrix: (Units=GPa)
#
#
# Indices 1 2 3 4 5 6 
#
# 1 76.2059 31.8375 24.9404 0.0000 0.0000 0.0000
# 2 31.8375 81.0273 14.4462 0.0000 0.0000 0.0000
# 3 24.9404 14.4462 61.2441 0.0000 0.0000 0.0000
# 4 0.0000 0.0000 0.0000 44.8902 0.0000 0.0000
# 5 0.0000 0.0000 0.0000 0.0000 22.2186 0.0000
# 6 0.0000 0.0000 0.0000 0.0000 0.0000 16.4619
#
#
#
# Elastic Compliance Matrix: (Units=1/GPa)
#
#
# Indices 1 2 3 4 5 6 
#
# 1 0.017430 -0.005828 -0.005723 0.000000 0.000000 0.000000
# 2 -0.005828 0.014832 -0.001125 0.000000 0.000000 0.000000
# 3 -0.005723 -0.001125 0.018924 0.000000 0.000000 0.000000
# 4 0.000000 0.000000 0.000000 0.022277 0.000000 0.000000
# 5 0.000000 0.000000 0.000000 0.000000 0.045007 0.000000
# 6 0.000000 0.000000 0.000000 0.000000 0.000000 0.060746
#
#
# Mechanical properties :
#
#
# Convention : Reuss Voigt Hill
#
# Bulk Modulus (GPa) = 38.71005 40.10283 39.40644
# Shear Modulus (GPa) = 23.45412 26.53102 24.99257
#
# Velocity S-wave (km/s) = 3.64638 3.87819 3.76407
# Velocity P-wave (km/s) = 6.29864 6.54126 6.42109
#
# Compressibility (1/GPa) = 0.02583308
#
# Stress axis : x y z
#
# Youngs Moduli (GPa) = 57.37071 67.42074 52.84229
#
# Poissons Ratio (x) = 0.39296 0.30244
# Poissons Ratio (y) = 0.33438 0.05945
# Poissons Ratio (z) = 0.32836 0.07586
#
# Static dielectric constant tensor:
#      x y z
#    x 1.568180 0.000000 0.000000 
#    y 0.000000 1.598040 0.000000 
#    z 0.000000 0.000000 1.615130 
# 
# From -- ./inp_files/10302.got.cif
#   From: 2010.05.17/outbox.cif.g08.bks.cpg/sg61_6_cif.got.tgz:10302.got - 2010.06.03 15:17:17.
