data_PCOD9460706
_publ_section_title
;
Structure prediction by ZEFSAII (Michael W. Deem and Ramdas Pophale) SiO2 
 PCOD9460706
Probable space group: P B C A
;
_chemical_formula_sum "Si O2"
_cell_formula_units_Z 60
_cell_length_a 8.010419
_cell_length_b 13.866863
_cell_length_c 19.426532
_cell_angle_alpha 90.000000
_cell_angle_beta 90.000000
_cell_angle_gamma 90.000000
_cell_volume 2157.887185
_symmetry_space_group_name_H-M "P B C A"
_symmetry_group_IT_number 61
_symmetry_cell_setting 'orthorhombic'
loop_
_space_group_symop_operation_xyz
x,y,z
1/2-x,-y,1/2+z
1/2+x,1/2-y,-z
-x,1/2+y,1/2-z
-x,-y,-z
1/2+x,y,1/2-z
1/2-x,1/2+y,z
x,1/2-y,1/2+z
loop_
_atom_site_type_symbol
_atom_site_label
_atom_site_fract_x
_atom_site_fract_y
_atom_site_fract_z
Si Si1 0.678668 0.350898 0.448792
Si Si2 0.995451 0.329570 0.261744
Si Si3 0.136338 0.507968 0.647549
Si Si4 0.834435 0.178275 0.367915
Si Si5 0.206658 0.623390 0.952483
Si Si6 0.704766 0.751175 0.163373
Si Si7 0.315170 0.580595 0.402849
Si Si8 0.500000 0.000000 0.500000
O O1 0.719644 0.425732 0.387845
O O2 0.760120 0.250654 0.425757
O O3 0.484788 0.347686 0.468264
O O4 0.763283 0.395848 0.519477
O O5 0.937464 0.434371 0.287242
O O6 0.905475 0.247777 0.308709
O O7 0.973271 0.293234 0.183638
O O8 0.184655 0.310693 0.283280
O O9 0.205703 0.401480 0.660192
O O10 0.005914 0.512035 0.584482
O O11 0.996695 0.119742 0.393934
O O12 0.273633 0.713506 0.909957
O O13 0.173809 0.533246 0.901275
O O14 0.343820 0.582782 0.004389
O O15 0.714720 0.637201 0.156221
#
# Coordination Sequence:
#
# PCOD9460706 Si02
#       8
#     8   8   8   8   8   8   8   4
#     4  11  24  40  71 107 148 192 236 308 381 454
#     4  10  25  48  66  99 142 191 250 312 360 443
#     4  11  22  44  71 103 147 190 240 312 375 447
#     4  10  24  41  71 100 139 187 244 307 371 445
#     4  12  25  46  71 109 151 200 245 315 390 459
#     4  11  27  47  70 102 143 195 256 304 371 455
#     4  11  24  43  68 106 144 190 248 304 380 459
#     4  12  24  40  70 108 150 184 248 298 380 464
#
# _framework density 27.804976
#
# number of rings (size 3 to 8) (size 9 to 14) (size 15 to 20)
#    0.000    1.067    4.000    1.200    7.467    2.133 
#    0.000    2.667    0.000    0.000    0.000    0.000 
#    0.000    0.000    0.000    0.000    0.000    0.000 
#
# Total GULP energy -335046.346820 kJ/mol
# GULP energy per Si atom -5584.105780 kJ/mol
# Density = 2.774169 g / cm^3
# Si number density = 27.804976 Si / 1000 Ang^3
#
#
#
# Elastic Constant Matrix: (Units=GPa)
#
#
# Indices 1 2 3 4 5 6 
#
# 1 82.3872 -3.9530 -12.2069 0.0000 0.0000 0.0000
# 2 -3.9530 120.3495 -4.3041 0.0000 0.0000 0.0000
# 3 -12.2069 -4.3041 48.0563 0.0000 0.0000 0.0000
# 4 0.0000 0.0000 0.0000 28.0118 0.0000 0.0000
# 5 0.0000 0.0000 0.0000 0.0000 47.6246 0.0000
# 6 0.0000 0.0000 0.0000 0.0000 0.0000 40.9918
#
#
#
# Elastic Compliance Matrix: (Units=1/GPa)
#
#
# Indices 1 2 3 4 5 6 
#
# 1 0.012646 0.000532 0.003260 0.000000 0.000000 0.000000
# 2 0.000532 0.008358 0.000884 0.000000 0.000000 0.000000
# 3 0.003260 0.000884 0.021716 0.000000 0.000000 0.000000
# 4 0.000000 0.000000 0.000000 0.035699 0.000000 0.000000
# 5 0.000000 0.000000 0.000000 0.000000 0.020998 0.000000
# 6 0.000000 0.000000 0.000000 0.000000 0.000000 0.024395
#
#
# Mechanical properties :
#
#
# Convention : Reuss Voigt Hill
#
# Bulk Modulus (GPa) = 19.20417 23.31834 21.26126
# Shear Modulus (GPa) = 37.93089 41.40943 39.67016
#
# Velocity S-wave (km/s) = 3.69748 3.86331 3.78130
# Velocity P-wave (km/s) = 5.01500 5.32022 5.16987
#
# Compressibility (1/GPa) = 0.05207201
#
# Stress axis : x y z
#
# Youngs Moduli (GPa) = 79.07423 119.64286 46.04871
#
# Poissons Ratio (x) = -0.06365 -0.15012
# Poissons Ratio (y) = -0.04206 -0.04069
# Poissons Ratio (z) = -0.25778 -0.10573
#
# Static dielectric constant tensor:
#      x y z
#    x 2.139480 0.000000 0.000000 
#    y 0.000000 2.043600 0.000000 
#    z 0.000000 0.000000 2.408170 
# 
# From -- ./inp_files/10879.got.cif
#   From: 2010.05.17/outbox.cif.g08.bks.cpg/sg61_6_cif.got.tgz:10879.got - 2010.06.03 15:17:17.
