data_PCOD9460046
_publ_section_title
;
Structure prediction by ZEFSAII (Michael W. Deem and Ramdas Pophale) SiO2 
 PCOD9460046
Probable space group: P B C A
;
_chemical_formula_sum "Si O2"
_cell_formula_units_Z 48
_cell_length_a 24.168214
_cell_length_b 5.113473
_cell_length_c 17.587073
_cell_angle_alpha 90.000000
_cell_angle_beta 90.000000
_cell_angle_gamma 90.000000
_cell_volume 2173.472208
_symmetry_space_group_name_H-M "P B C A"
_symmetry_group_IT_number 61
_symmetry_cell_setting 'orthorhombic'
loop_
_space_group_symop_operation_xyz
x,y,z
1/2-x,-y,1/2+z
1/2+x,1/2-y,-z
-x,1/2+y,1/2-z
-x,-y,-z
1/2+x,y,1/2-z
1/2-x,1/2+y,z
x,1/2-y,1/2+z
loop_
_atom_site_type_symbol
_atom_site_label
_atom_site_fract_x
_atom_site_fract_y
_atom_site_fract_z
Si Si1 0.787746 0.857381 0.949450
Si Si2 0.024980 0.326748 0.148884
Si Si3 0.377727 0.420941 0.150023
Si Si4 0.425576 0.133066 0.019886
Si Si5 0.413449 0.124930 0.284854
Si Si6 0.613384 0.374769 0.062665
O O1 0.758822 0.578869 0.949198
O O2 0.828291 0.895967 0.877044
O O3 0.827338 0.904244 0.022253
O O4 0.027488 0.502812 0.073033
O O5 0.055041 0.464995 0.219388
O O6 0.962850 0.277946 0.173890
O O7 0.062989 0.068473 0.138993
O O8 0.380268 0.190668 0.086967
O O9 0.374596 0.314263 0.235316
O O10 0.427701 0.410424 0.976863
O O11 0.405152 0.913102 0.961857
O O12 0.386450 0.942455 0.348589
#
# Coordination Sequence:
#
# PCOD9460046 Si02
#       6
#     8   8   8   8   8   8
#     4  11  23  44  72  90 121 174 229 282 335 386
#     4  11  21  42  65  99 136 189 214 254 331 413
#     4  10  22  44  65  98 132 177 227 267 320 414
#     4  10  21  41  64  89 138 167 227 258 324 396
#     4  11  25  38  68  99 146 176 215 272 338 402
#     4  11  24  43  65 102 130 170 217 292 331 386
#
# _framework density 22.084479000000002
#
# number of rings (size 3 to 8) (size 9 to 14) (size 15 to 20)
#    0.000    1.333    5.000    2.000    4.667    1.333 
#    0.000    1.667    0.000    0.000    0.000    0.000 
#    0.000    0.000    0.000    0.000    0.000    0.000 
#
# Total GULP energy -268256.792562 kJ/mol
# GULP energy per Si atom -5588.683178 kJ/mol
# Density = 2.203421 g / cm^3
# Si number density = 22.084479 Si / 1000 Ang^3
#
#
#
# Elastic Constant Matrix: (Units=GPa)
#
#
# Indices 1 2 3 4 5 6 
#
# 1 66.3957 11.2742 30.4874 0.0000 0.0000 0.0000
# 2 11.2742 92.9806 19.5296 0.0000 0.0000 0.0000
# 3 30.4874 19.5296 124.1672 0.0000 0.0000 0.0000
# 4 0.0000 0.0000 0.0000 33.3538 0.0000 0.0000
# 5 0.0000 0.0000 0.0000 0.0000 32.2303 0.0000
# 6 0.0000 0.0000 0.0000 0.0000 0.0000 34.0033
#
#
#
# Elastic Compliance Matrix: (Units=1/GPa)
#
#
# Indices 1 2 3 4 5 6 
#
# 1 0.017111 -0.001233 -0.004007 0.000000 0.000000 0.000000
# 2 -0.001233 0.011211 -0.001461 0.000000 0.000000 0.000000
# 3 -0.004007 -0.001461 0.009267 0.000000 0.000000 0.000000
# 4 0.000000 0.000000 0.000000 0.029982 0.000000 0.000000
# 5 0.000000 0.000000 0.000000 0.000000 0.031027 0.000000
# 6 0.000000 0.000000 0.000000 0.000000 0.000000 0.029409
#
#
# Mechanical properties :
#
#
# Convention : Reuss Voigt Hill
#
# Bulk Modulus (GPa) = 41.34401 45.12509 43.23455
# Shear Modulus (GPa) = 33.45136 34.73430 34.09283
#
# Velocity S-wave (km/s) = 3.89614 3.97015 3.93332
# Velocity P-wave (km/s) = 6.24510 6.44154 6.34408
#
# Compressibility (1/GPa) = 0.02418730
#
# Stress axis : x y z
#
# Youngs Moduli (GPa) = 58.44310 89.19627 107.90596
#
# Poissons Ratio (x) = 0.10998 0.43241
# Poissons Ratio (y) = 0.07206 0.15761
# Poissons Ratio (z) = 0.23420 0.13028
#
# Static dielectric constant tensor:
#      x y z
#    x 1.852670 0.000000 0.000000 
#    y 0.000000 1.913210 0.000000 
#    z 0.000000 0.000000 1.842630 
# 
# From -- ./inp_files/9839.got.cif
#   From: 2010.05.17/outbox.cif.g08.bks.cpg/sg61_5_cif.got.tgz:9839.got - 2010.06.03 15:17:17.
