data_PCOD9460376
_publ_section_title
;
Structure prediction by ZEFSAII (Michael W. Deem and Ramdas Pophale) SiO2 
 PCOD9460376
Probable space group: P B C A
;
_chemical_formula_sum "Si O2"
_cell_formula_units_Z 52
_cell_length_a 20.233686
_cell_length_b 5.188794
_cell_length_c 19.748092
_cell_angle_alpha 90.000000
_cell_angle_beta 90.000000
_cell_angle_gamma 90.000000
_cell_volume 2073.321145
_symmetry_space_group_name_H-M "P B C A"
_symmetry_group_IT_number 61
_symmetry_cell_setting 'orthorhombic'
loop_
_space_group_symop_operation_xyz
x,y,z
1/2-x,-y,1/2+z
1/2+x,1/2-y,-z
-x,1/2+y,1/2-z
-x,-y,-z
1/2+x,y,1/2-z
1/2-x,1/2+y,z
x,1/2-y,1/2+z
loop_
_atom_site_type_symbol
_atom_site_label
_atom_site_fract_x
_atom_site_fract_y
_atom_site_fract_z
Si Si1 0.789996 0.138742 0.755922
Si Si2 0.082083 0.274640 0.604044
Si Si3 0.214203 0.840113 0.407272
Si Si4 0.500000 0.500000 0.500000
Si Si5 0.912252 0.447276 0.779657
Si Si6 0.971838 0.824904 0.151837
Si Si7 0.594253 0.527783 0.030205
O O1 0.755418 0.877977 0.777688
O O2 0.789885 0.144729 0.673858
O O3 0.864684 0.201910 0.777479
O O4 0.118074 0.146204 0.667012
O O5 0.116839 0.426492 0.542796
O O6 0.026374 0.458895 0.636289
O O7 0.051894 0.032559 0.563270
O O8 0.271460 0.634539 0.428578
O O9 0.149360 0.697527 0.433606
O O10 0.465808 0.224309 0.478584
O O11 0.918639 0.565971 0.704941
O O12 0.986737 0.388846 0.806878
O O13 0.934056 0.790300 0.078751
#
# Coordination Sequence:
#
# PCOD9460376 Si02
#       7
#     8   8   8   4   8   8   8
#     4  10  24  46  70  99 139 192 243 297 353 423
#     4  11  23  41  63 101 142 179 223 283 361 433
#     4  10  23  45  72 103 138 189 251 300 347 418
#     4  10  22  42  68  94 138 180 218 282 364 422
#     4  12  23  41  68 103 141 182 235 298 353 434
#     4  11  23  40  65 104 138 177 230 287 364 419
#     4  11  23  44  70 104 140 189 231 298 364 436
#
# _framework density 25.080532000000002
#
# number of rings (size 3 to 8) (size 9 to 14) (size 15 to 20)
#    0.000    1.231    3.077    3.692    4.308    0.000 
#    2.769    1.538    0.000    0.000    0.000    0.000 
#    0.000    0.000    0.000    0.000    0.000    0.000 
#
# Total GULP energy -290002.572074 kJ/mol
# GULP energy per Si atom -5576.972540 kJ/mol
# Density = 2.502345 g / cm^3
# Si number density = 25.080532 Si / 1000 Ang^3
#
#
#
# Elastic Constant Matrix: (Units=GPa)
#
#
# Indices 1 2 3 4 5 6 
#
# 1 67.9602 11.2701 24.6990 0.0000 0.0000 0.0000
# 2 11.2701 85.7291 17.3370 0.0000 0.0000 0.0000
# 3 24.6990 17.3370 100.0066 0.0000 0.0000 0.0000
# 4 0.0000 0.0000 0.0000 9.9011 0.0000 0.0000
# 5 0.0000 0.0000 0.0000 0.0000 22.9118 0.0000
# 6 0.0000 0.0000 0.0000 0.0000 0.0000 40.6205
#
#
#
# Elastic Compliance Matrix: (Units=1/GPa)
#
#
# Indices 1 2 3 4 5 6 
#
# 1 0.016321 -0.001379 -0.003792 0.000000 0.000000 0.000000
# 2 -0.001379 0.012205 -0.001775 0.000000 0.000000 0.000000
# 3 -0.003792 -0.001775 0.011244 0.000000 0.000000 0.000000
# 4 0.000000 0.000000 0.000000 0.100999 0.000000 0.000000
# 5 0.000000 0.000000 0.000000 0.000000 0.043646 0.000000
# 6 0.000000 0.000000 0.000000 0.000000 0.000000 0.024618
#
#
# Mechanical properties :
#
#
# Convention : Reuss Voigt Hill
#
# Bulk Modulus (GPa) = 38.64316 40.03424 39.33870
# Shear Modulus (GPa) = 21.59355 28.04599 24.81977
#
# Velocity S-wave (km/s) = 2.93741 3.34763 3.14921
# Velocity P-wave (km/s) = 5.19091 5.56230 5.37981
#
# Compressibility (1/GPa) = 0.02587780
#
# Stress axis : x y z
#
# Youngs Moduli (GPa) = 61.26985 81.93407 88.93948
#
# Poissons Ratio (x) = 0.11297 0.33725
# Poissons Ratio (y) = 0.08448 0.15789
# Poissons Ratio (z) = 0.23233 0.14546
#
# Static dielectric constant tensor:
#      x y z
#    x 1.780900 0.000000 0.000000 
#    y 0.000000 1.873860 0.000000 
#    z 0.000000 0.000000 1.880200 
# 
# From -- ./inp_files/10586.got.cif
#   From: 2010.05.17/outbox.cif.g08.bks.cpg/sg61_6_cif.got.tgz:10586.got - 2010.06.03 15:17:17.
