data_PCOD9460380
_publ_section_title
;
Structure prediction by ZEFSAII (Michael W. Deem and Ramdas Pophale) SiO2 
 PCOD9460380
Probable space group: P B C A
;
_chemical_formula_sum "Si O2"
_cell_formula_units_Z 60
_cell_length_a 8.646377
_cell_length_b 26.008652
_cell_length_c 12.882291
_cell_angle_alpha 90.000000
_cell_angle_beta 90.000000
_cell_angle_gamma 90.000000
_cell_volume 2896.977464
_symmetry_space_group_name_H-M "P B C A"
_symmetry_group_IT_number 61
_symmetry_cell_setting 'orthorhombic'
loop_
_space_group_symop_operation_xyz
x,y,z
1/2-x,-y,1/2+z
1/2+x,1/2-y,-z
-x,1/2+y,1/2-z
-x,-y,-z
1/2+x,y,1/2-z
1/2-x,1/2+y,z
x,1/2-y,1/2+z
loop_
_atom_site_type_symbol
_atom_site_label
_atom_site_fract_x
_atom_site_fract_y
_atom_site_fract_z
Si Si1 0.725897 0.756344 0.483716
Si Si2 0.173376 0.045802 0.444076
Si Si3 0.543221 0.946307 0.138598
Si Si4 0.743544 0.843283 0.622002
Si Si5 0.000000 0.500000 0.500000
Si Si6 0.070021 0.209690 0.196265
Si Si7 0.569451 0.209051 0.634903
Si Si8 0.888264 0.910438 0.151076
O O1 0.787815 0.813000 0.516033
O O2 0.552905 0.766166 0.445293
O O3 0.762644 0.724653 0.588697
O O4 0.810451 0.725603 0.392732
O O5 0.244026 0.096289 0.391919
O O6 0.314306 0.014130 0.493129
O O7 0.051384 0.061550 0.532442
O O8 0.090938 0.006781 0.363844
O O9 0.702739 0.914697 0.142111
O O10 0.440575 0.932330 0.237433
O O11 0.574991 0.821053 0.650854
O O12 0.853264 0.825528 0.715363
O O13 0.966294 0.553817 0.564596
O O14 0.035119 0.262684 0.257145
O O15 0.557766 0.148277 0.640723
#
# Coordination Sequence:
#
# PCOD9460380 Si02
#       8
#     8   8   8   8   4   8   8   8
#     4  11  23  42  61  95 134 170 229 281 334 416
#     4  10  23  46  69 101 138 182 226 297 348 418
#     4  10  24  44  67 104 140 171 240 286 344 418
#     4  11  24  42  69  95 134 186 221 284 352 411
#     4  10  22  42  68  98 136 172 238 278 346 414
#     4  11  24  42  61 100 134 173 234 278 338 420
#     4  11  25  41  68  95 136 183 225 284 344 415
#     4  11  24  41  69 102 132 186 222 287 348 413
#
# _framework density 20.711243
#
# number of rings (size 3 to 8) (size 9 to 14) (size 15 to 20)
#    0.000    1.333    2.667    1.600    3.733    4.267 
#    0.000    1.333    0.000    0.000    0.000    0.000 
#    0.000    0.000    0.000    0.000    0.000    0.000 
#
# Total GULP energy -334006.315833 kJ/mol
# GULP energy per Si atom -5566.771931 kJ/mol
# Density = 2.066410 g / cm^3
# Si number density = 20.711243 Si / 1000 Ang^3
#
#
#
# Elastic Constant Matrix: (Units=GPa)
#
#
# Indices 1 2 3 4 5 6 
#
# 1 112.5363 45.3849 39.6270 0.0000 0.0000 0.0000
# 2 45.3849 79.7876 22.7656 0.0000 0.0000 0.0000
# 3 39.6270 22.7656 38.9762 0.0000 0.0000 0.0000
# 4 0.0000 0.0000 0.0000 16.2767 0.0000 0.0000
# 5 0.0000 0.0000 0.0000 0.0000 29.4374 0.0000
# 6 0.0000 0.0000 0.0000 0.0000 0.0000 24.6221
#
#
#
# Elastic Compliance Matrix: (Units=1/GPa)
#
#
# Indices 1 2 3 4 5 6 
#
# 1 0.015430 -0.005161 -0.012673 0.000000 0.000000 0.000000
# 2 -0.005161 0.016766 -0.004546 0.000000 0.000000 0.000000
# 3 -0.012673 -0.004546 0.041197 0.000000 0.000000 0.000000
# 4 0.000000 0.000000 0.000000 0.061438 0.000000 0.000000
# 5 0.000000 0.000000 0.000000 0.000000 0.033970 0.000000
# 6 0.000000 0.000000 0.000000 0.000000 0.000000 0.040614
#
#
# Mechanical properties :
#
#
# Convention : Reuss Voigt Hill
#
# Bulk Modulus (GPa) = 34.92492 49.65056 42.28774
# Shear Modulus (GPa) = 18.95965 22.30208 20.63086
#
# Velocity S-wave (km/s) = 3.02889 3.28504 3.15956
# Velocity P-wave (km/s) = 5.39737 6.19786 5.81141
#
# Compressibility (1/GPa) = 0.02863285
#
# Stress axis : x y z
#
# Youngs Moduli (GPa) = 64.80921 59.64484 24.27389
#
# Poissons Ratio (x) = 0.30782 0.30763
# Poissons Ratio (y) = 0.33447 0.11034
# Poissons Ratio (z) = 0.82134 0.27113
#
# Static dielectric constant tensor:
#      x y z
#    x 1.779920 0.000000 0.000000 
#    y 0.000000 1.733420 0.000000 
#    z 0.000000 0.000000 1.760640 
# 
# From -- ./inp_files/4900.got.cif
#   From: 2010.05.17/outbox.cif.g08.bks.cpg/sg61_3_cif.got.tgz:4900.got - 2010.06.03 15:17:17.
