data_PCOD9460123
_publ_section_title
;
Structure prediction by ZEFSAII (Michael W. Deem and Ramdas Pophale) SiO2 
 PCOD9460123
Probable space group: P B C A
;
_chemical_formula_sum "Si O2"
_cell_formula_units_Z 56
_cell_length_a 13.601489
_cell_length_b 17.794802
_cell_length_c 8.635959
_cell_angle_alpha 90.000000
_cell_angle_beta 90.000000
_cell_angle_gamma 90.000000
_cell_volume 2090.211277
_symmetry_space_group_name_H-M "P B C A"
_symmetry_group_IT_number 61
_symmetry_cell_setting 'orthorhombic'
loop_
_space_group_symop_operation_xyz
x,y,z
1/2-x,-y,1/2+z
1/2+x,1/2-y,-z
-x,1/2+y,1/2-z
-x,-y,-z
1/2+x,y,1/2-z
1/2-x,1/2+y,z
x,1/2-y,1/2+z
loop_
_atom_site_type_symbol
_atom_site_label
_atom_site_fract_x
_atom_site_fract_y
_atom_site_fract_z
Si Si1 0.798697 0.819770 0.800608
Si Si2 0.142337 0.488303 0.313922
Si Si3 0.142600 0.529966 0.948972
Si Si4 0.038475 0.680118 0.018515
Si Si5 0.028060 0.420166 0.720816
Si Si6 0.692074 0.797209 0.496349
Si Si7 0.857971 0.834682 0.296722
O O1 0.869947 0.886972 0.841965
O O2 0.722003 0.831692 0.661046
O O3 0.858529 0.748748 0.731067
O O4 0.747104 0.781735 0.947654
O O5 0.249596 0.489499 0.386227
O O6 0.111034 0.401434 0.311850
O O7 0.056539 0.541121 0.380279
O O8 0.146315 0.510528 0.131488
O O9 0.107284 0.616420 0.936913
O O10 0.065915 0.479575 0.851310
O O11 0.082267 0.764398 0.011685
O O12 0.933748 0.670416 0.937229
O O13 0.023712 0.648625 0.190163
O O14 0.746908 0.847485 0.365850
#
# Coordination Sequence:
#
# PCOD9460123 Si02
#       7
#     8   8   8   8   8   8   8
#     4  10  22  42  61  94 133 167 222 270 323 389
#     4  11  22  43  67  98 129 179 217 273 332 392
#     4  11  23  40  70  93 130 169 223 264 322 402
#     4  11  20  42  67  91 125 182 211 263 338 386
#     4  11  21  42  66  93 129 178 216 262 325 410
#     4  10  23  39  64  95 129 167 221 270 322 391
#     4  10  21  43  63  91 138 167 221 265 332 396
#
# _framework density 26.791550000000001
#
# number of rings (size 3 to 8) (size 9 to 14) (size 15 to 20)
#    0.857    0.571    4.286    1.714    4.000    1.143 
#    2.571    2.143    0.000    0.000    0.000    0.000 
#    0.000    0.000    0.000    0.000    0.000    0.000 
#
# Total GULP energy -312994.657164 kJ/mol
# GULP energy per Si atom -5589.190306 kJ/mol
# Density = 2.673057 g / cm^3
# Si number density = 26.791550 Si / 1000 Ang^3
#
#
#
# Elastic Constant Matrix: (Units=GPa)
#
#
# Indices 1 2 3 4 5 6 
#
# 1 107.5668 17.3279 34.1008 0.0000 0.0000 0.0000
# 2 17.3279 60.5206 5.8055 0.0000 0.0000 0.0000
# 3 34.1008 5.8055 74.0226 0.0000 0.0000 0.0000
# 4 0.0000 0.0000 0.0000 15.3986 0.0000 0.0000
# 5 0.0000 0.0000 0.0000 0.0000 44.2066 0.0000
# 6 0.0000 0.0000 0.0000 0.0000 0.0000 64.4547
#
#
#
# Elastic Compliance Matrix: (Units=1/GPa)
#
#
# Indices 1 2 3 4 5 6 
#
# 1 0.011327 -0.002763 -0.005002 0.000000 0.000000 0.000000
# 2 -0.002763 0.017323 -0.000086 0.000000 0.000000 0.000000
# 3 -0.005002 -0.000086 0.015820 0.000000 0.000000 0.000000
# 4 0.000000 0.000000 0.000000 0.064941 0.000000 0.000000
# 5 0.000000 0.000000 0.000000 0.000000 0.022621 0.000000
# 6 0.000000 0.000000 0.000000 0.000000 0.000000 0.015515
#
#
# Mechanical properties :
#
#
# Convention : Reuss Voigt Hill
#
# Bulk Modulus (GPa) = 34.75935 39.61981 37.18958
# Shear Modulus (GPa) = 28.92888 37.13704 33.03296
#
# Velocity S-wave (km/s) = 3.28956 3.72714 3.51517
# Velocity P-wave (km/s) = 5.23741 5.77429 5.51239
#
# Compressibility (1/GPa) = 0.02876924
#
# Stress axis : x y z
#
# Youngs Moduli (GPa) = 88.28240 57.72771 63.21031
#
# Poissons Ratio (x) = 0.15952 0.31615
# Poissons Ratio (y) = 0.24396 0.00541
# Poissons Ratio (z) = 0.44155 0.00494
#
# Static dielectric constant tensor:
#      x y z
#    x 2.183820 0.000000 0.000000 
#    y 0.000000 2.146880 0.000000 
#    z 0.000000 0.000000 2.093920 
# 
# From -- ./inp_files/5348.got.cif
#   From: 2010.05.17/outbox.cif.g08.bks.cpg/sg61_3_cif.got.tgz:5348.got - 2010.06.03 15:17:17.
