data_PCOD9460047
_publ_section_title
;
Structure prediction by ZEFSAII (Michael W. Deem and Ramdas Pophale) SiO2 
 PCOD9460047
Probable space group: P B C A
;
_chemical_formula_sum "Si O2"
_cell_formula_units_Z 56
_cell_length_a 28.661350
_cell_length_b 5.383996
_cell_length_c 13.699614
_cell_angle_alpha 90.000000
_cell_angle_beta 90.000000
_cell_angle_gamma 90.000000
_cell_volume 2114.022970
_symmetry_space_group_name_H-M "P B C A"
_symmetry_group_IT_number 61
_symmetry_cell_setting 'orthorhombic'
loop_
_space_group_symop_operation_xyz
x,y,z
1/2-x,-y,1/2+z
1/2+x,1/2-y,-z
-x,1/2+y,1/2-z
-x,-y,-z
1/2+x,y,1/2-z
1/2-x,1/2+y,z
x,1/2-y,1/2+z
loop_
_atom_site_type_symbol
_atom_site_label
_atom_site_fract_x
_atom_site_fract_y
_atom_site_fract_z
Si Si1 0.429800 0.324111 0.681139
Si Si2 0.113413 0.925494 0.343124
Si Si3 0.422500 0.065510 0.487451
Si Si4 0.535001 0.196588 0.677022
Si Si5 0.781053 0.499267 0.830875
Si Si6 0.344484 0.722259 0.508397
Si Si7 0.779128 0.481253 0.607903
O O1 0.428797 0.278308 0.566723
O O2 0.482094 0.227957 0.708451
O O3 0.433461 0.587371 0.734874
O O4 0.388973 0.161262 0.731546
O O5 0.063532 0.062886 0.356601
O O6 0.149794 0.091764 0.401764
O O7 0.111303 0.675274 0.404735
O O8 0.464599 0.977500 0.419032
O O9 0.394964 0.834694 0.534251
O O10 0.753820 0.237663 0.841655
O O11 0.798757 0.503193 0.718436
O O12 0.821932 0.549878 0.909298
O O13 0.310604 0.950941 0.484633
O O14 0.758627 0.205219 0.601575
#
# Coordination Sequence:
#
# PCOD9460047 Si02
#       7
#     8   8   8   8   8   8   8
#     4  11  21  42  67  88 129 167 225 279 331 406
#     4  10  24  42  59  97 127 167 223 264 349 402
#     4  10  25  40  61  99 125 172 218 274 343 408
#     4  10  21  41  64  91 122 173 221 277 336 397
#     4  10  23  43  68 101 129 178 234 271 338 411
#     4  11  24  41  65  94 138 172 211 283 340 404
#     4  10  23  43  71 101 132 182 231 277 334 411
#
# _framework density 26.48978
#
# number of rings (size 3 to 8) (size 9 to 14) (size 15 to 20)
#    0.000    1.714    1.429    1.286    6.000    2.857 
#    5.143    0.000    0.000    0.000    0.000    0.000 
#    0.000    0.000    0.000    0.000    0.000    0.000 
#
# Total GULP energy -312891.100283 kJ/mol
# GULP energy per Si atom -5587.341076 kJ/mol
# Density = 2.642949 g / cm^3
# Si number density = 26.489780 Si / 1000 Ang^3
#
#
#
# Elastic Constant Matrix: (Units=GPa)
#
#
# Indices 1 2 3 4 5 6 
#
# 1 24.7706 21.3066 12.7636 0.0000 0.0000 0.0000
# 2 21.3066 95.2884 11.2744 0.0000 0.0000 0.0000
# 3 12.7636 11.2744 104.8152 0.0000 0.0000 0.0000
# 4 0.0000 0.0000 0.0000 28.3499 0.0000 0.0000
# 5 0.0000 0.0000 0.0000 0.0000 23.3833 0.0000
# 6 0.0000 0.0000 0.0000 0.0000 0.0000 36.3134
#
#
#
# Elastic Compliance Matrix: (Units=1/GPa)
#
#
# Indices 1 2 3 4 5 6 
#
# 1 0.052652 -0.011157 -0.005212 0.000000 0.000000 0.000000
# 2 -0.011157 0.012994 -0.000039 0.000000 0.000000 0.000000
# 3 -0.005212 -0.000039 0.010179 0.000000 0.000000 0.000000
# 4 0.000000 0.000000 0.000000 0.035273 0.000000 0.000000
# 5 0.000000 0.000000 0.000000 0.000000 0.042766 0.000000
# 6 0.000000 0.000000 0.000000 0.000000 0.000000 0.027538
#
#
# Mechanical properties :
#
#
# Convention : Reuss Voigt Hill
#
# Bulk Modulus (GPa) = 23.24984 35.06261 29.15622
# Shear Modulus (GPa) = 21.87668 29.57796 25.72732
#
# Velocity S-wave (km/s) = 2.87688 3.34515 3.11982
# Velocity P-wave (km/s) = 4.45323 5.30896 4.89981
#
# Compressibility (1/GPa) = 0.04301105
#
# Stress axis : x y z
#
# Youngs Moduli (GPa) = 18.99254 76.96043 98.23729
#
# Poissons Ratio (x) = 0.85861 0.51197
# Poissons Ratio (y) = 0.21189 0.00384
# Poissons Ratio (z) = 0.09898 0.00301
#
# Static dielectric constant tensor:
#      x y z
#    x 2.175660 0.000000 0.000000 
#    y 0.000000 2.117400 0.000000 
#    z 0.000000 0.000000 2.012880 
# 
# From -- ./inp_files/614.got.cif
#   From: 2010.05.17/outbox.cif.g08.bks.cpg/sg61_1_cif.got.tgz:614.got - 2010.06.03 15:17:17.
