data_PCOD9460989
_publ_section_title
;
Structure prediction by ZEFSAII (Michael W. Deem and Ramdas Pophale) SiO2 
 PCOD9460989
Probable space group: P B C A
;
_chemical_formula_sum "Si O2"
_cell_formula_units_Z 40
_cell_length_a 25.053689
_cell_length_b 4.946884
_cell_length_c 13.556476
_cell_angle_alpha 90.000000
_cell_angle_beta 90.000000
_cell_angle_gamma 90.000000
_cell_volume 1680.158364
_symmetry_space_group_name_H-M "P B C A"
_symmetry_group_IT_number 61
_symmetry_cell_setting 'orthorhombic'
loop_
_space_group_symop_operation_xyz
x,y,z
1/2-x,-y,1/2+z
1/2+x,1/2-y,-z
-x,1/2+y,1/2-z
-x,-y,-z
1/2+x,y,1/2-z
1/2-x,1/2+y,z
x,1/2-y,1/2+z
loop_
_atom_site_type_symbol
_atom_site_label
_atom_site_fract_x
_atom_site_fract_y
_atom_site_fract_z
Si Si1 0.644508 0.495139 0.167597
Si Si2 0.284319 0.515846 0.012480
Si Si3 0.509330 0.790506 0.816715
Si Si4 0.589774 0.000164 0.080294
Si Si5 0.625186 0.801347 0.879659
O O1 0.626108 0.191005 0.148079
O O2 0.648543 0.564073 0.281635
O O3 0.600481 0.697666 0.119007
O O4 0.696659 0.532282 0.100142
O O5 0.265765 0.819344 0.030394
O O6 0.333152 0.415158 0.079139
O O7 0.483436 0.556729 0.750506
O O8 0.469511 0.888971 0.902379
O O9 0.566650 0.686469 0.852217
O O10 0.610452 0.004739 0.968849
#
# Coordination Sequence:
#
# PCOD9460989 Si02
#       5
#     8   8   8   8   8
#     4  11  24  44  70  98 140 183 233 294 356 422
#     4  11  26  47  68 100 132 173 238 299 350 416
#     4  12  23  42  68 105 149 189 232 288 356 431
#     4  11  23  43  66 105 145 185 232 288 342 433
#     4  11  25  44  75 102 141 193 239 286 368 430
#
# _framework density 23.807276999999999
#
# number of rings (size 3 to 8) (size 9 to 14) (size 15 to 20)
#    0.000    0.800    4.000    3.000    0.000   11.200 
#    0.000    7.000    0.000    0.000    0.000    0.000 
#    0.000    0.000    0.000    0.000    0.000    0.000 
#
# Total GULP energy -224004.594381 kJ/mol
# GULP energy per Si atom -5600.114860 kJ/mol
# Density = 2.375309 g / cm^3
# Si number density = 23.807277 Si / 1000 Ang^3
#
#
#
# Elastic Constant Matrix: (Units=GPa)
#
#
# Indices 1 2 3 4 5 6 
#
# 1 90.7324 -3.4213 -2.0882 0.0000 0.0000 0.0000
# 2 -3.4213 54.3328 0.5972 0.0000 0.0000 0.0000
# 3 -2.0882 0.5972 102.0796 0.0000 0.0000 0.0000
# 4 0.0000 0.0000 0.0000 21.3342 0.0000 0.0000
# 5 0.0000 0.0000 0.0000 0.0000 39.5399 0.0000
# 6 0.0000 0.0000 0.0000 0.0000 0.0000 36.8886
#
#
#
# Elastic Compliance Matrix: (Units=1/GPa)
#
#
# Indices 1 2 3 4 5 6 
#
# 1 0.011053 0.000694 0.000222 0.000000 0.000000 0.000000
# 2 0.000694 0.018450 -0.000094 0.000000 0.000000 0.000000
# 3 0.000222 -0.000094 0.009801 0.000000 0.000000 0.000000
# 4 0.000000 0.000000 0.000000 0.046873 0.000000 0.000000
# 5 0.000000 0.000000 0.000000 0.000000 0.025291 0.000000
# 6 0.000000 0.000000 0.000000 0.000000 0.000000 0.027109
#
#
# Mechanical properties :
#
#
# Convention : Reuss Voigt Hill
#
# Bulk Modulus (GPa) = 24.42152 26.36891 25.39522
# Shear Modulus (GPa) = 33.20451 36.35635 34.78043
#
# Velocity S-wave (km/s) = 3.73865 3.91207 3.82634
# Velocity P-wave (km/s) = 5.37745 5.61300 5.49648
#
# Compressibility (1/GPa) = 0.04094750
#
# Stress axis : x y z
#
# Youngs Moduli (GPa) = 90.47578 54.20118 102.02658
#
# Poissons Ratio (x) = -0.03759 -0.02265
# Poissons Ratio (y) = -0.06275 0.00956
# Poissons Ratio (z) = -0.02009 0.00508
#
# Static dielectric constant tensor:
#      x y z
#    x 1.942500 0.000000 0.000000 
#    y 0.000000 1.845430 0.000000 
#    z 0.000000 0.000000 1.912670 
# 
# From -- ./inp_files/6656.got.cif
#   From: 2010.05.17/outbox.cif.g08.bks.cpg/sg61_4_cif.got.tgz:6656.got - 2010.06.03 15:17:17.
