data_PCOD9460940
_publ_section_title
;
Structure prediction by ZEFSAII (Michael W. Deem and Ramdas Pophale) SiO2 
 PCOD9460940
Probable space group: P B C A
;
_chemical_formula_sum "Si O2"
_cell_formula_units_Z 48
_cell_length_a 14.699663
_cell_length_b 16.927397
_cell_length_c 8.062257
_cell_angle_alpha 90.000000
_cell_angle_beta 90.000000
_cell_angle_gamma 90.000000
_cell_volume 2006.107475
_symmetry_space_group_name_H-M "P B C A"
_symmetry_group_IT_number 61
_symmetry_cell_setting 'orthorhombic'
loop_
_space_group_symop_operation_xyz
x,y,z
1/2-x,-y,1/2+z
1/2+x,1/2-y,-z
-x,1/2+y,1/2-z
-x,-y,-z
1/2+x,y,1/2-z
1/2-x,1/2+y,z
x,1/2-y,1/2+z
loop_
_atom_site_type_symbol
_atom_site_label
_atom_site_fract_x
_atom_site_fract_y
_atom_site_fract_z
Si Si1 0.128954 0.855133 0.281715
Si Si2 0.076319 0.808015 0.641057
Si Si3 0.843061 0.868431 0.138402
Si Si4 0.613536 0.273960 0.806387
Si Si5 0.840427 0.010945 0.929541
Si Si6 0.241452 0.612354 0.310937
O O1 0.076975 0.833372 0.450268
O O2 0.118295 0.780099 0.160603
O O3 0.233538 0.869390 0.340480
O O4 0.097055 0.933123 0.183240
O O5 0.142761 0.865475 0.741743
O O6 0.978540 0.805329 0.725218
O O7 0.874219 0.811584 0.986830
O O8 0.874172 0.955469 0.080452
O O9 0.882184 0.820783 0.294553
O O10 0.698298 0.309439 0.702564
O O11 0.789726 0.950497 0.808745
O O12 0.770542 0.072642 0.011967
#
# Coordination Sequence:
#
# PCOD9460940 Si02
#       6
#     8   8   8   8   8   8
#     4  12  22  43  69  97 133 182 221 279 334 399
#     4  12  24  44  70 101 135 177 230 278 333 397
#     4  11  22  44  67  99 131 176 224 274 340 395
#     4  11  25  42  69 102 131 174 234 274 330 404
#     4  11  23  40  72  96 135 186 222 274 349 397
#     4  11  22  43  68  98 138 181 225 279 340 396
#
# _framework density 23.926933999999999
#
# number of rings (size 3 to 8) (size 9 to 14) (size 15 to 20)
#    0.000    0.667    6.667    2.000    2.333    0.000 
#    0.000   15.000    0.000    0.000    0.000    0.000 
#    0.000    0.000    0.000    0.000    0.000    0.000 
#
# Total GULP energy -268573.034677 kJ/mol
# GULP energy per Si atom -5595.271556 kJ/mol
# Density = 2.387247 g / cm^3
# Si number density = 23.926934 Si / 1000 Ang^3
#
#
#
# Elastic Constant Matrix: (Units=GPa)
#
#
# Indices 1 2 3 4 5 6 
#
# 1 84.4646 16.6693 21.7723 0.0000 0.0000 0.0000
# 2 16.6693 120.1514 44.7746 0.0000 0.0000 0.0000
# 3 21.7723 44.7746 60.9861 0.0000 0.0000 0.0000
# 4 0.0000 0.0000 0.0000 68.8605 0.0000 0.0000
# 5 0.0000 0.0000 0.0000 0.0000 29.2170 0.0000
# 6 0.0000 0.0000 0.0000 0.0000 0.0000 3.8183
#
#
#
# Elastic Compliance Matrix: (Units=1/GPa)
#
#
# Indices 1 2 3 4 5 6 
#
# 1 0.013040 -0.000102 -0.004580 0.000000 0.000000 0.000000
# 2 -0.000102 0.011458 -0.008376 0.000000 0.000000 0.000000
# 3 -0.004580 -0.008376 0.024182 0.000000 0.000000 0.000000
# 4 0.000000 0.000000 0.000000 0.014522 0.000000 0.000000
# 5 0.000000 0.000000 0.000000 0.000000 0.034227 0.000000
# 6 0.000000 0.000000 0.000000 0.000000 0.000000 0.261897
#
#
# Mechanical properties :
#
#
# Convention : Reuss Voigt Hill
#
# Bulk Modulus (GPa) = 44.31988 48.00383 46.16186
# Shear Modulus (GPa) = 12.72382 32.53822 22.63102
#
# Velocity S-wave (km/s) = 2.30853 3.69168 3.07879
# Velocity P-wave (km/s) = 5.06646 6.18689 5.65449
#
# Compressibility (1/GPa) = 0.02256324
#
# Stress axis : x y z
#
# Youngs Moduli (GPa) = 76.68644 87.27274 41.35342
#
# Poissons Ratio (x) = 0.00893 0.18941
# Poissons Ratio (y) = 0.00784 0.34637
# Poissons Ratio (z) = 0.35125 0.73099
#
# Static dielectric constant tensor:
#      x y z
#    x 1.891920 0.000000 0.000000 
#    y 0.000000 1.942850 0.000000 
#    z 0.000000 0.000000 1.965870 
# 
# From -- ./inp_files/2834.got.cif
#   From: 2010.05.17/outbox.cif.g08.bks.cpg/sg61_2_cif.got.tgz:2834.got - 2010.06.03 15:17:17.
