data_PCOD9460361
_publ_section_title
;
Structure prediction by ZEFSAII (Michael W. Deem and Ramdas Pophale) SiO2 
 PCOD9460361
Probable space group: P B C A
;
_chemical_formula_sum "Si O2"
_cell_formula_units_Z 60
_cell_length_a 9.474345
_cell_length_b 8.770212
_cell_length_c 25.666754
_cell_angle_alpha 90.000000
_cell_angle_beta 90.000000
_cell_angle_gamma 90.000000
_cell_volume 2132.702288
_symmetry_space_group_name_H-M "P B C A"
_symmetry_group_IT_number 61
_symmetry_cell_setting 'orthorhombic'
loop_
_space_group_symop_operation_xyz
x,y,z
1/2-x,-y,1/2+z
1/2+x,1/2-y,-z
-x,1/2+y,1/2-z
-x,-y,-z
1/2+x,y,1/2-z
1/2-x,1/2+y,z
x,1/2-y,1/2+z
loop_
_atom_site_type_symbol
_atom_site_label
_atom_site_fract_x
_atom_site_fract_y
_atom_site_fract_z
Si Si1 0.105241 0.835527 0.647853
Si Si2 0.364490 0.089669 0.915934
Si Si3 0.335406 0.675257 0.001931
Si Si4 0.250642 0.422624 0.211765
Si Si5 0.622751 0.899843 0.643160
Si Si6 0.000000 0.000000 0.500000
Si Si7 0.842798 0.681504 0.218972
Si Si8 0.925929 0.427808 0.419469
O O1 0.176517 0.729172 0.692135
O O2 0.170813 0.998020 0.663344
O O3 0.139721 0.731800 0.597348
O O4 0.943677 0.834004 0.668711
O O5 0.319724 0.141432 0.976108
O O6 0.400520 0.245270 0.888932
O O7 0.244378 0.001990 0.884955
O O8 0.488567 0.982595 0.934877
O O9 0.443621 0.612109 0.957883
O O10 0.349678 0.562410 0.050202
O O11 0.384389 0.848860 0.007646
O O12 0.144962 0.345993 0.254482
O O13 0.352817 0.540698 0.241486
O O14 0.683933 0.840906 0.696796
O O15 0.485673 0.999946 0.634004
#
# Coordination Sequence:
#
# PCOD9460361 Si02
#       8
#     8   8   8   8   8   4   8   8
#     4  11  23  44  65  91 131 168 216 272 325 397
#     4  11  22  38  61  94 135 168 226 271 325 395
#     4  10  22  42  64  91 130 181 221 270 334 384
#     4  10  24  43  64  98 125 168 215 265 339 415
#     4  11  21  38  66 101 127 163 222 281 321 394
#     4  12  22  40  64  94 126 186 218 280 326 388
#     4  11  21  41  71  95 128 166 211 277 343 388
#     4  10  22  42  64  91 132 176 221 271 328 390
#
# _framework density 28.133320000000001
#
# number of rings (size 3 to 8) (size 9 to 14) (size 15 to 20)
#    0.000    1.333    2.667    4.000    0.000    1.067 
#    4.800    4.000    0.000    0.000    0.000    0.000 
#    0.000    0.000    0.000    0.000    0.000    0.000 
#
# Total GULP energy -335029.023988 kJ/mol
# GULP energy per Si atom -5583.817066 kJ/mol
# Density = 2.806929 g / cm^3
# Si number density = 28.133320 Si / 1000 Ang^3
#
#
#
# Elastic Constant Matrix: (Units=GPa)
#
#
# Indices 1 2 3 4 5 6 
#
# 1 51.6879 49.6513 12.5943 0.0000 0.0000 0.0000
# 2 49.6513 161.1004 6.0952 0.0000 0.0000 0.0000
# 3 12.5943 6.0952 51.9456 0.0000 0.0000 0.0000
# 4 0.0000 0.0000 0.0000 54.1243 0.0000 0.0000
# 5 0.0000 0.0000 0.0000 0.0000 46.7138 0.0000
# 6 0.0000 0.0000 0.0000 0.0000 0.0000 40.9021
#
#
#
# Elastic Compliance Matrix: (Units=1/GPa)
#
#
# Indices 1 2 3 4 5 6 
#
# 1 0.029270 -0.008791 -0.006065 0.000000 0.000000 0.000000
# 2 -0.008791 0.008876 0.001090 0.000000 0.000000 0.000000
# 3 -0.006065 0.001090 0.020593 0.000000 0.000000 0.000000
# 4 0.000000 0.000000 0.000000 0.018476 0.000000 0.000000
# 5 0.000000 0.000000 0.000000 0.000000 0.021407 0.000000
# 6 0.000000 0.000000 0.000000 0.000000 0.000000 0.024449
#
#
# Mechanical properties :
#
#
# Convention : Reuss Voigt Hill
#
# Bulk Modulus (GPa) = 32.04500 44.60171 38.32335
# Shear Modulus (GPa) = 31.05493 41.44093 36.24793
#
# Velocity S-wave (km/s) = 3.32603 3.84216 3.59337
# Velocity P-wave (km/s) = 5.11518 5.96414 5.55590
#
# Compressibility (1/GPa) = 0.03120612
#
# Stress axis : x y z
#
# Youngs Moduli (GPa) = 34.16499 112.66829 48.55913
#
# Poissons Ratio (x) = 0.99052 0.29451
# Poissons Ratio (y) = 0.30036 -0.05293
# Poissons Ratio (z) = 0.20721 -0.12282
#
# Static dielectric constant tensor:
#      x y z
#    x 1.932020 0.000000 0.000000 
#    y 0.000000 1.889410 0.000000 
#    z 0.000000 0.000000 2.479170 
# 
# From -- ./inp_files/11449.got.cif
#   From: 2010.05.17/outbox.cif.g08.bks.cpg/sg61_6_cif.got.tgz:11449.got - 2010.06.03 15:17:17.
