data_PCOD9460221
_publ_section_title
;
Structure prediction by ZEFSAII (Michael W. Deem and Ramdas Pophale) SiO2 
 PCOD9460221
Probable space group: P B C A
;
_chemical_formula_sum "Si O2"
_cell_formula_units_Z 56
_cell_length_a 9.093396
_cell_length_b 10.737092
_cell_length_c 24.166720
_cell_angle_alpha 90.000000
_cell_angle_beta 90.000000
_cell_angle_gamma 90.000000
_cell_volume 2359.557086
_symmetry_space_group_name_H-M "P B C A"
_symmetry_group_IT_number 61
_symmetry_cell_setting 'orthorhombic'
loop_
_space_group_symop_operation_xyz
x,y,z
1/2-x,-y,1/2+z
1/2+x,1/2-y,-z
-x,1/2+y,1/2-z
-x,-y,-z
1/2+x,y,1/2-z
1/2-x,1/2+y,z
x,1/2-y,1/2+z
loop_
_atom_site_type_symbol
_atom_site_label
_atom_site_fract_x
_atom_site_fract_y
_atom_site_fract_z
Si Si1 0.231904 0.089518 0.316330
Si Si2 0.376593 0.463053 0.920957
Si Si3 0.819688 0.951295 0.869592
Si Si4 0.768045 0.594143 0.772110
Si Si5 0.951595 0.694420 0.514789
Si Si6 0.253068 0.299711 0.070271
Si Si7 0.524556 0.733314 0.254576
O O1 0.246502 0.087578 0.382579
O O2 0.370249 0.162291 0.288551
O O3 0.244666 0.950772 0.290769
O O4 0.417017 0.649405 0.291810
O O5 0.508278 0.482579 0.876471
O O6 0.352437 0.591497 0.953723
O O7 0.452631 0.374958 0.966682
O O8 0.800012 0.811710 0.890470
O O9 0.752055 0.972320 0.809382
O O10 0.746174 0.060914 0.906193
O O11 0.635601 0.683148 0.789957
O O12 0.917600 0.669098 0.776409
O O13 0.848243 0.791363 0.484293
O O14 0.079047 0.735521 0.555874
#
# Coordination Sequence:
#
# PCOD9460221 Si02
#       7
#     8   8   8   8   8   8   8
#     4  11  22  42  67  95 135 180 227 277 342 417
#     4   9  19  40  66  91 128 184 216 276 351 408
#     4  10  22  38  70  92 131 181 219 270 350 416
#     4  11  23  42  61  96 138 173 225 282 332 416
#     4   9  20  41  65  91 134 166 226 289 346 400
#     4  10  22  42  65  96 125 179 226 284 347 414
#     4  10  24  39  64  94 136 175 225 281 335 406
#
# _framework density 23.733267000000001
#
# number of rings (size 3 to 8) (size 9 to 14) (size 15 to 20)
#    0.000    2.000    0.000    3.429    8.000    0.571 
#   10.286    1.429    0.000    0.000    0.000    0.000 
#    0.000    0.000    0.000    0.000    0.000    0.000 
#
# Total GULP energy -313008.149193 kJ/mol
# GULP energy per Si atom -5589.431236 kJ/mol
# Density = 2.367925 g / cm^3
# Si number density = 23.733267 Si / 1000 Ang^3
#
#
#
# Elastic Constant Matrix: (Units=GPa)
#
#
# Indices 1 2 3 4 5 6 
#
# 1 75.3877 8.1585 8.3778 0.0000 0.0000 0.0000
# 2 8.1585 41.8033 3.4474 0.0000 0.0000 0.0000
# 3 8.3778 3.4474 65.3597 0.0000 0.0000 0.0000
# 4 0.0000 0.0000 0.0000 32.0756 0.0000 0.0000
# 5 0.0000 0.0000 0.0000 0.0000 25.6042 0.0000
# 6 0.0000 0.0000 0.0000 0.0000 0.0000 33.5819
#
#
#
# Elastic Compliance Matrix: (Units=1/GPa)
#
#
# Indices 1 2 3 4 5 6 
#
# 1 0.013721 -0.002544 -0.001625 0.000000 0.000000 0.000000
# 2 -0.002544 0.024498 -0.000966 0.000000 0.000000 0.000000
# 3 -0.001625 -0.000966 0.015559 0.000000 0.000000 0.000000
# 4 0.000000 0.000000 0.000000 0.031176 0.000000 0.000000
# 5 0.000000 0.000000 0.000000 0.000000 0.039056 0.000000
# 6 0.000000 0.000000 0.000000 0.000000 0.000000 0.029778
#
#
# Mechanical properties :
#
#
# Convention : Reuss Voigt Hill
#
# Bulk Modulus (GPa) = 22.98396 24.72424 23.85410
# Shear Modulus (GPa) = 28.00189 29.09015 28.54602
#
# Velocity S-wave (km/s) = 3.43863 3.50482 3.47188
# Velocity P-wave (km/s) = 5.04687 5.17865 5.11319
#
# Compressibility (1/GPa) = 0.04350861
#
# Stress axis : x y z
#
# Youngs Moduli (GPa) = 72.88315 40.82021 64.27097
#
# Poissons Ratio (x) = 0.10384 0.10441
# Poissons Ratio (y) = 0.18540 0.06209
# Poissons Ratio (z) = 0.11840 0.03943
#
# Static dielectric constant tensor:
#      x y z
#    x 1.902710 0.000000 0.000000 
#    y 0.000000 1.921760 0.000000 
#    z 0.000000 0.000000 1.978000 
# 
# From -- ./inp_files/10997.got.cif
#   From: 2010.05.17/outbox.cif.g08.bks.cpg/sg61_6_cif.got.tgz:10997.got - 2010.06.03 15:17:17.
