data_PCOD9460884
_publ_section_title
;
Structure prediction by ZEFSAII (Michael W. Deem and Ramdas Pophale) SiO2 
 PCOD9460884
Probable space group: P B C A
;
_chemical_formula_sum "Si O2"
_cell_formula_units_Z 64
_cell_length_a 10.904311
_cell_length_b 8.408129
_cell_length_c 30.654847
_cell_angle_alpha 90.000000
_cell_angle_beta 90.000000
_cell_angle_gamma 90.000000
_cell_volume 2810.585158
_symmetry_space_group_name_H-M "P B C A"
_symmetry_group_IT_number 61
_symmetry_cell_setting 'orthorhombic'
loop_
_space_group_symop_operation_xyz
x,y,z
1/2-x,-y,1/2+z
1/2+x,1/2-y,-z
-x,1/2+y,1/2-z
-x,-y,-z
1/2+x,y,1/2-z
1/2-x,1/2+y,z
x,1/2-y,1/2+z
loop_
_atom_site_type_symbol
_atom_site_label
_atom_site_fract_x
_atom_site_fract_y
_atom_site_fract_z
Si Si1 0.986516 0.267037 0.656856
Si Si2 0.149805 0.056819 0.546910
Si Si3 0.630101 0.273147 0.191300
Si Si4 0.895811 0.084045 0.332881
Si Si5 0.657156 0.587081 0.233797
Si Si6 0.396199 0.877822 0.946364
Si Si7 0.758312 0.352060 0.106705
Si Si8 0.321429 0.870931 0.600936
O O1 0.936120 0.308637 0.704698
O O2 0.873260 0.256180 0.622773
O O3 0.074638 0.402197 0.636822
O O4 0.059723 0.098732 0.660184
O O5 0.145102 0.102846 0.496369
O O6 0.133514 0.213093 0.576234
O O7 0.280310 0.989554 0.562883
O O8 0.039378 0.929302 0.554406
O O9 0.516535 0.190676 0.168544
O O10 0.612708 0.406506 0.227577
O O11 0.712777 0.135185 0.212690
O O12 0.695431 0.374743 0.153272
O O13 0.838522 0.113100 0.285206
O O14 0.801099 0.138890 0.369692
O O15 0.344523 0.715460 0.926131
O O16 0.323940 0.002456 0.916242
#
# Coordination Sequence:
#
# PCOD9460884 Si02
#       8
#     8   8   8   8   8   8   8   8
#     4  11  24  46  64 100 138 179 229 292 330 423
#     4  11  25  45  68 102 139 171 230 279 354 420
#     4  11  24  43  67 101 132 177 233 286 333 417
#     4  12  26  43  70  96 137 189 230 280 349 405
#     4  11  26  41  69  97 139 177 233 292 341 400
#     4  11  23  44  72  99 134 177 219 293 340 423
#     4  11  20  43  70  93 132 175 222 275 349 396
#     4  12  24  45  68  96 139 183 219 286 348 418
#
# _framework density 22.771059000000001
#
# number of rings (size 3 to 8) (size 9 to 14) (size 15 to 20)
#    0.000    0.750    2.500    6.000    5.250    0.000 
#    2.250    0.625    0.000    0.000    0.000    0.000 
#    0.000    0.000    0.000    0.000    0.000    0.000 
#
# Total GULP energy -357504.221097 kJ/mol
# GULP energy per Si atom -5586.003455 kJ/mol
# Density = 2.271923 g / cm^3
# Si number density = 22.771059 Si / 1000 Ang^3
#
#
#
# Elastic Constant Matrix: (Units=GPa)
#
#
# Indices 1 2 3 4 5 6 
#
# 1 51.7087 -5.7483 29.1631 0.0000 0.0000 0.0000
# 2 -5.7483 21.5082 -13.0124 0.0000 0.0000 0.0000
# 3 29.1631 -13.0124 116.0605 0.0000 0.0000 0.0000
# 4 0.0000 0.0000 0.0000 29.8859 0.0000 0.0000
# 5 0.0000 0.0000 0.0000 0.0000 23.8281 0.0000
# 6 0.0000 0.0000 0.0000 0.0000 0.0000 31.5532
#
#
#
# Elastic Compliance Matrix: (Units=1/GPa)
#
#
# Indices 1 2 3 4 5 6 
#
# 1 0.022689 0.002805 -0.005387 0.000000 0.000000 0.000000
# 2 0.002805 0.050224 0.004926 0.000000 0.000000 0.000000
# 3 -0.005387 0.004926 0.010522 0.000000 0.000000 0.000000
# 4 0.000000 0.000000 0.000000 0.033461 0.000000 0.000000
# 5 0.000000 0.000000 0.000000 0.000000 0.041967 0.000000
# 6 0.000000 0.000000 0.000000 0.000000 0.000000 0.031693
#
#
# Mechanical properties :
#
#
# Convention : Reuss Voigt Hill
#
# Bulk Modulus (GPa) = 11.34769 23.34247 17.34508
# Shear Modulus (GPa) = 23.22977 28.97842 26.10409
#
# Velocity S-wave (km/s) = 3.19743 3.57122 3.38948
# Velocity P-wave (km/s) = 4.31574 5.22284 4.79081
#
# Compressibility (1/GPa) = 0.08812367
#
# Stress axis : x y z
#
# Youngs Moduli (GPa) = 44.07429 19.91085 95.03862
#
# Poissons Ratio (x) = -0.05585 0.51194
# Poissons Ratio (y) = -0.12363 -0.46817
# Poissons Ratio (z) = 0.23741 -0.09808
#
# Static dielectric constant tensor:
#      x y z
#    x 1.883910 0.000000 0.000000 
#    y 0.000000 1.901850 0.000000 
#    z 0.000000 0.000000 1.829010 
# 
# From -- ./inp_files/11788.got.cif
#   From: 2010.05.17/outbox.cif.g08.bks.cpg/sg61_6_cif.got.tgz:11788.got - 2010.06.03 15:17:17.
