data_PCOD9460536
_publ_section_title
;
Structure prediction by ZEFSAII (Michael W. Deem and Ramdas Pophale) SiO2 
 PCOD9460536
Probable space group: P B C A
;
_chemical_formula_sum "Si O2"
_cell_formula_units_Z 56
_cell_length_a 12.075018
_cell_length_b 19.257673
_cell_length_c 9.317033
_cell_angle_alpha 90.000000
_cell_angle_beta 90.000000
_cell_angle_gamma 90.000000
_cell_volume 2166.552556
_symmetry_space_group_name_H-M "P B C A"
_symmetry_group_IT_number 61
_symmetry_cell_setting 'orthorhombic'
loop_
_space_group_symop_operation_xyz
x,y,z
1/2-x,-y,1/2+z
1/2+x,1/2-y,-z
-x,1/2+y,1/2-z
-x,-y,-z
1/2+x,y,1/2-z
1/2-x,1/2+y,z
x,1/2-y,1/2+z
loop_
_atom_site_type_symbol
_atom_site_label
_atom_site_fract_x
_atom_site_fract_y
_atom_site_fract_z
Si Si1 0.380062 0.943662 0.200401
Si Si2 0.468865 0.189225 0.088612
Si Si3 0.450426 0.115400 0.488790
Si Si4 0.235796 0.986281 0.950649
Si Si5 0.151546 0.756121 0.847392
Si Si6 0.442389 0.944059 0.790270
Si Si7 0.117328 0.305827 0.302049
O O1 0.367846 0.861295 0.171836
O O2 0.316113 0.954241 0.351979
O O3 0.500151 0.980077 0.207410
O O4 0.317615 0.991043 0.083873
O O5 0.366062 0.219137 0.183149
O O6 0.491595 0.108206 0.103646
O O7 0.566751 0.228418 0.177097
O O8 0.446569 0.212663 0.925856
O O9 0.370802 0.051418 0.518109
O O10 0.362405 0.172087 0.431897
O O11 0.531529 0.090721 0.362203
O O12 0.525320 0.151264 0.607371
O O13 0.315703 0.945988 0.837999
O O14 0.259639 0.709477 0.858934
#
# Coordination Sequence:
#
# PCOD9460536 Si02
#       7
#     8   8   8   8   8   8   8
#     4  11  28  41  70 103 139 191 237 291 354 431
#     4  10  24  43  70  99 139 178 241 285 354 426
#     4   9  23  44  67 102 135 184 230 287 362 425
#     4  11  25  44  69  97 142 183 236 291 352 424
#     4  10  23  41  67 100 135 179 223 290 352 408
#     4  10  23  45  70  97 139 184 240 288 359 425
#     4  11  25  41  71 101 141 180 236 299 343 419
#
# _framework density 25.847512999999999
#
# number of rings (size 3 to 8) (size 9 to 14) (size 15 to 20)
#    0.000    1.714    0.000    1.286   12.000    6.857 
#    0.000    0.000    0.000    0.000    0.000    0.000 
#    0.000    0.000    0.000    0.000    0.000    0.000 
#
# Total GULP energy -312438.570169 kJ/mol
# GULP energy per Si atom -5579.260182 kJ/mol
# Density = 2.578868 g / cm^3
# Si number density = 25.847513 Si / 1000 Ang^3
#
#
#
# Elastic Constant Matrix: (Units=GPa)
#
#
# Indices 1 2 3 4 5 6 
#
# 1 102.1051 47.4827 23.4237 0.0000 0.0000 0.0000
# 2 47.4827 119.4060 3.9904 0.0000 0.0000 0.0000
# 3 23.4237 3.9904 40.3663 0.0000 0.0000 0.0000
# 4 0.0000 0.0000 0.0000 29.8247 0.0000 0.0000
# 5 0.0000 0.0000 0.0000 0.0000 40.2876 0.0000
# 6 0.0000 0.0000 0.0000 0.0000 0.0000 42.0793
#
#
#
# Elastic Compliance Matrix: (Units=1/GPa)
#
#
# Indices 1 2 3 4 5 6 
#
# 1 0.014011 -0.005318 -0.007605 0.000000 0.000000 0.000000
# 2 -0.005318 0.010421 0.002056 0.000000 0.000000 0.000000
# 3 -0.007605 0.002056 0.028983 0.000000 0.000000 0.000000
# 4 0.000000 0.000000 0.000000 0.033529 0.000000 0.000000
# 5 0.000000 0.000000 0.000000 0.000000 0.024822 0.000000
# 6 0.000000 0.000000 0.000000 0.000000 0.000000 0.023765
#
#
# Mechanical properties :
#
#
# Convention : Reuss Voigt Hill
#
# Bulk Modulus (GPa) = 31.56448 45.74121 38.65284
# Shear Modulus (GPa) = 29.79307 34.90370 32.34839
#
# Velocity S-wave (km/s) = 3.39875 3.67872 3.54150
# Velocity P-wave (km/s) = 5.25741 5.98155 5.63113
#
# Compressibility (1/GPa) = 0.03168118
#
# Stress axis : x y z
#
# Youngs Moduli (GPa) = 71.37099 95.96321 34.50314
#
# Poissons Ratio (x) = 0.51029 0.26239
# Poissons Ratio (y) = 0.37952 -0.07092
# Poissons Ratio (z) = 0.54276 -0.19726
#
# Static dielectric constant tensor:
#      x y z
#    x 2.043490 0.000000 0.000000 
#    y 0.000000 2.058250 0.000000 
#    z 0.000000 0.000000 2.190860 
# 
# From -- ./inp_files/5363.got.cif
#   From: 2010.05.17/outbox.cif.g08.bks.cpg/sg61_3_cif.got.tgz:5363.got - 2010.06.03 15:17:17.
