data_PCOD9460496
_publ_section_title
;
Structure prediction by ZEFSAII (Michael W. Deem and Ramdas Pophale) SiO2 
 PCOD9460496
Probable space group: P B C A
;
_chemical_formula_sum "Si O2"
_cell_formula_units_Z 36
_cell_length_a 9.330145
_cell_length_b 10.010251
_cell_length_c 13.467480
_cell_angle_alpha 90.000000
_cell_angle_beta 90.000000
_cell_angle_gamma 90.000000
_cell_volume 1257.823486
_symmetry_space_group_name_H-M "P B C A"
_symmetry_group_IT_number 61
_symmetry_cell_setting 'orthorhombic'
loop_
_space_group_symop_operation_xyz
x,y,z
1/2-x,-y,1/2+z
1/2+x,1/2-y,-z
-x,1/2+y,1/2-z
-x,-y,-z
1/2+x,y,1/2-z
1/2-x,1/2+y,z
x,1/2-y,1/2+z
loop_
_atom_site_type_symbol
_atom_site_label
_atom_site_fract_x
_atom_site_fract_y
_atom_site_fract_z
Si Si1 0.000000 0.500000 0.500000
Si Si2 0.560465 0.595615 0.774066
Si Si3 0.128853 0.954188 0.621337
Si Si4 0.605746 0.299320 0.515054
Si Si5 0.193571 0.221178 0.271116
O O1 0.022424 0.544207 0.616908
O O2 0.086723 0.353415 0.517769
O O3 0.504128 0.497456 0.690506
O O4 0.468265 0.730764 0.755984
O O5 0.718402 0.643766 0.750100
O O6 0.241984 0.883942 0.694145
O O7 0.055054 0.850860 0.544169
O O8 0.167033 0.088057 0.559349
O O9 0.707207 0.309073 0.612132
#
# Coordination Sequence:
#
# PCOD9460496 Si02
#       5
#     4   8   8   8   8
#     4  10  22  50  84 130 164 246 288 356 452 552
#     4  11  27  49  89 120 184 230 300 365 456 530
#     4  11  25  53  84 127 169 233 301 370 442 541
#     4  10  25  52  89 127 177 239 299 367 457 552
#     4  11  24  54  82 131 174 237 289 381 444 541
#
# _framework density 28.620868999999999
#
# number of rings (size 3 to 8) (size 9 to 14) (size 15 to 20)
#    0.000    1.333    4.444    0.000    6.222    0.000 
#   12.000    1.111    9.778    0.000    0.000    0.000 
#    0.000    0.000    0.000    0.000    0.000    0.000 
#
# Total GULP energy -201120.746773 kJ/mol
# GULP energy per Si atom -5586.687410 kJ/mol
# Density = 2.855573 g / cm^3
# Si number density = 28.620869 Si / 1000 Ang^3
#
#
#
# Elastic Constant Matrix: (Units=GPa)
#
#
# Indices 1 2 3 4 5 6 
#
# 1 71.4877 33.0377 48.4623 0.0000 0.0000 0.0000
# 2 33.0377 242.2515 95.3459 0.0000 0.0000 0.0000
# 3 48.4623 95.3459 216.3043 0.0000 0.0000 0.0000
# 4 0.0000 0.0000 0.0000 69.9030 0.0000 0.0000
# 5 0.0000 0.0000 0.0000 0.0000 52.9563 0.0000
# 6 0.0000 0.0000 0.0000 0.0000 0.0000 40.8288
#
#
#
# Elastic Compliance Matrix: (Units=1/GPa)
#
#
# Indices 1 2 3 4 5 6 
#
# 1 0.016681 -0.000973 -0.003309 0.000000 0.000000 0.000000
# 2 -0.000973 0.005051 -0.002009 0.000000 0.000000 0.000000
# 3 -0.003309 -0.002009 0.006250 0.000000 0.000000 0.000000
# 4 0.000000 0.000000 0.000000 0.014306 0.000000 0.000000
# 5 0.000000 0.000000 0.000000 0.000000 0.018883 0.000000
# 6 0.000000 0.000000 0.000000 0.000000 0.000000 0.024493
#
#
# Mechanical properties :
#
#
# Convention : Reuss Voigt Hill
#
# Bulk Modulus (GPa) = 64.92627 98.19282 81.55954
# Shear Modulus (GPa) = 48.36669 56.28413 52.32541
#
# Velocity S-wave (km/s) = 4.11531 4.43938 4.28041
# Velocity P-wave (km/s) = 6.73166 7.78846 7.27926
#
# Compressibility (1/GPa) = 0.01540209
#
# Stress axis : x y z
#
# Youngs Moduli (GPa) = 59.94905 197.97498 160.00626
#
# Poissons Ratio (x) = 0.19257 0.52938
# Poissons Ratio (y) = 0.05831 0.32139
# Poissons Ratio (z) = 0.19834 0.39765
#
# Static dielectric constant tensor:
#      x y z
#    x 2.105450 0.000000 0.000000 
#    y 0.000000 2.388700 0.000000 
#    z 0.000000 0.000000 1.975760 
# 
# From -- ./inp_files/5174.got.cif
#   From: 2010.05.17/outbox.cif.g08.bks.cpg/sg61_3_cif.got.tgz:5174.got - 2010.06.03 15:17:17.
