data_PCOD9460911
_publ_section_title
;
Structure prediction by ZEFSAII (Michael W. Deem and Ramdas Pophale) SiO2 
 PCOD9460911
Probable space group: P B C A
;
_chemical_formula_sum "Si O2"
_cell_formula_units_Z 48
_cell_length_a 13.847402
_cell_length_b 8.163104
_cell_length_c 16.349522
_cell_angle_alpha 90.000000
_cell_angle_beta 90.000000
_cell_angle_gamma 90.000000
_cell_volume 1848.113714
_symmetry_space_group_name_H-M "P B C A"
_symmetry_group_IT_number 61
_symmetry_cell_setting 'orthorhombic'
loop_
_space_group_symop_operation_xyz
x,y,z
1/2-x,-y,1/2+z
1/2+x,1/2-y,-z
-x,1/2+y,1/2-z
-x,-y,-z
1/2+x,y,1/2-z
1/2-x,1/2+y,z
x,1/2-y,1/2+z
loop_
_atom_site_type_symbol
_atom_site_label
_atom_site_fract_x
_atom_site_fract_y
_atom_site_fract_z
Si Si1 0.293560 0.799141 0.391355
Si Si2 0.709952 0.165987 0.293312
Si Si3 0.899551 0.359218 0.581622
Si Si4 0.388097 0.960192 0.146220
Si Si5 0.474191 0.456647 0.203505
Si Si6 0.510750 0.304909 0.562274
O O1 0.293148 0.761377 0.293541
O O2 0.183083 0.776526 0.415071
O O3 0.373907 0.679611 0.431095
O O4 0.334860 0.974857 0.418745
O O5 0.671559 0.292786 0.361450
O O6 0.811850 0.091345 0.318210
O O7 0.634553 0.016544 0.286692
O O8 0.966903 0.397574 0.658699
O O9 0.970927 0.311963 0.508784
O O10 0.471694 0.930155 0.212275
O O11 0.445442 0.033765 0.070203
O O12 0.486086 0.299741 0.145432
#
# Coordination Sequence:
#
# PCOD9460911 Si02
#       6
#     8   8   8   8   8   8
#     4  11  21  43  67  94 131 176 218 273 334 393
#     4  12  23  39  68  98 130 171 226 275 328 387
#     4  11  25  43  69  95 135 178 221 271 339 401
#     4  12  23  40  65 101 129 172 222 275 327 392
#     4  11  21  43  67  95 130 174 221 275 328 388
#     4  11  25  44  66  99 136 174 222 275 335 398
#
# _framework density 25.972429000000002
#
# number of rings (size 3 to 8) (size 9 to 14) (size 15 to 20)
#    0.000    0.667    6.667    3.000    0.000    5.333 
#    0.000    1.667    0.000    0.000    0.000    0.000 
#    0.000    0.000    0.000    0.000    0.000    0.000 
#
# Total GULP energy -269065.570449 kJ/mol
# GULP energy per Si atom -5605.532718 kJ/mol
# Density = 2.591331 g / cm^3
# Si number density = 25.972429 Si / 1000 Ang^3
#
#
#
# Elastic Constant Matrix: (Units=GPa)
#
#
# Indices 1 2 3 4 5 6 
#
# 1 151.6207 17.1710 25.6726 0.0000 0.0000 0.0000
# 2 17.1710 66.8615 5.9967 0.0000 0.0000 0.0000
# 3 25.6726 5.9967 50.6718 0.0000 0.0000 0.0000
# 4 0.0000 0.0000 0.0000 31.3017 0.0000 0.0000
# 5 0.0000 0.0000 0.0000 0.0000 39.9432 0.0000
# 6 0.0000 0.0000 0.0000 0.0000 0.0000 54.7948
#
#
#
# Elastic Compliance Matrix: (Units=1/GPa)
#
#
# Indices 1 2 3 4 5 6 
#
# 1 0.007375 -0.001576 -0.003550 0.000000 0.000000 0.000000
# 2 -0.001576 0.015453 -0.001031 0.000000 0.000000 0.000000
# 3 -0.003550 -0.001031 0.021655 0.000000 0.000000 0.000000
# 4 0.000000 0.000000 0.000000 0.031947 0.000000 0.000000
# 5 0.000000 0.000000 0.000000 0.000000 0.025036 0.000000
# 6 0.000000 0.000000 0.000000 0.000000 0.000000 0.018250
#
#
# Mechanical properties :
#
#
# Convention : Reuss Voigt Hill
#
# Bulk Modulus (GPa) = 31.08352 40.75940 35.92146
# Shear Modulus (GPa) = 35.02569 39.89552 37.46061
#
# Velocity S-wave (km/s) = 3.67627 3.92353 3.80191
# Velocity P-wave (km/s) = 5.47849 6.02103 5.75616
#
# Compressibility (1/GPa) = 0.03217138
#
# Stress axis : x y z
#
# Youngs Moduli (GPa) = 135.59438 64.71088 46.17786
#
# Poissons Ratio (x) = 0.10196 0.16393
# Poissons Ratio (y) = 0.21364 0.04759
# Poissons Ratio (z) = 0.48136 0.06669
#
# Static dielectric constant tensor:
#      x y z
#    x 1.962380 0.000000 0.000000 
#    y 0.000000 2.177650 0.000000 
#    z 0.000000 0.000000 2.040710 
# 
# From -- ./inp_files/3847.got.cif
#   From: 2010.05.17/outbox.cif.g08.bks.cpg/sg61_2_cif.got.tgz:3847.got - 2010.06.03 15:17:17.
