data_PCOD9460078
_publ_section_title
;
Structure prediction by ZEFSAII (Michael W. Deem and Ramdas Pophale) SiO2 
 PCOD9460078
Probable space group: P B C A
;
_chemical_formula_sum "Si O2"
_cell_formula_units_Z 64
_cell_length_a 8.019121
_cell_length_b 16.240449
_cell_length_c 19.774663
_cell_angle_alpha 90.000000
_cell_angle_beta 90.000000
_cell_angle_gamma 90.000000
_cell_volume 2575.335945
_symmetry_space_group_name_H-M "P B C A"
_symmetry_group_IT_number 61
_symmetry_cell_setting 'orthorhombic'
loop_
_space_group_symop_operation_xyz
x,y,z
1/2-x,-y,1/2+z
1/2+x,1/2-y,-z
-x,1/2+y,1/2-z
-x,-y,-z
1/2+x,y,1/2-z
1/2-x,1/2+y,z
x,1/2-y,1/2+z
loop_
_atom_site_type_symbol
_atom_site_label
_atom_site_fract_x
_atom_site_fract_y
_atom_site_fract_z
Si Si1 0.032437 0.318516 0.932810
Si Si2 0.011822 0.237896 0.661085
Si Si3 0.050831 0.417781 0.602146
Si Si4 0.921544 0.450603 0.845392
Si Si5 0.827744 0.341688 0.270482
Si Si6 0.522012 0.097909 0.936659
Si Si7 0.358891 0.343504 0.011562
Si Si8 0.102656 0.035665 0.800067
O O1 0.226546 0.311971 0.953633
O O2 0.999866 0.360966 0.861121
O O3 0.961838 0.387211 0.986766
O O4 0.939286 0.233262 0.948749
O O5 0.042640 0.327632 0.635105
O O6 0.178301 0.191630 0.685763
O O7 0.954739 0.178189 0.601333
O O8 0.892345 0.232444 0.724881
O O9 0.230658 0.448508 0.627870
O O10 0.999282 0.399039 0.524603
O O11 0.913628 0.477184 0.635933
O O12 0.013149 0.518628 0.892250
O O13 0.928218 0.480183 0.767660
O O14 0.764474 0.412793 0.219554
O O15 0.970788 0.389858 0.309675
O O16 0.724059 0.106544 0.944411
#
# Coordination Sequence:
#
# PCOD9460078 Si02
#       8
#     8   8   8   8   8   8   8   8
#     4  10  22  41  65  94 127 176 222 271 339 393
#     4  11  22  43  67  92 134 173 218 272 328 402
#     4  12  25  42  65  99 136 171 226 279 336 398
#     4  12  23  42  67  93 135 173 219 283 335 406
#     4  10  22  42  67  91 133 173 219 261 334 396
#     4  10  21  41  70  91 128 176 214 268 340 390
#     4  10  23  42  65  94 132 170 222 277 325 404
#     4  11  23  42  65  98 132 175 215 282 334 401
#
# _framework density 24.851126000000001
#
# number of rings (size 3 to 8) (size 9 to 14) (size 15 to 20)
#    0.750    0.500    5.000    1.875    3.500    0.500 
#    0.000    2.500    0.000    0.000    0.000    0.000 
#    0.000    0.000    0.000    0.000    0.000    0.000 
#
# Total GULP energy -357583.377467 kJ/mol
# GULP energy per Si atom -5587.240273 kJ/mol
# Density = 2.479456 g / cm^3
# Si number density = 24.851126 Si / 1000 Ang^3
#
#
#
# Elastic Constant Matrix: (Units=GPa)
#
#
# Indices 1 2 3 4 5 6 
#
# 1 46.5686 -9.1957 -3.5741 0.0000 0.0000 0.0000
# 2 -9.1957 89.5142 20.6593 0.0000 0.0000 0.0000
# 3 -3.5741 20.6593 63.8249 0.0000 0.0000 0.0000
# 4 0.0000 0.0000 0.0000 36.8659 0.0000 0.0000
# 5 0.0000 0.0000 0.0000 0.0000 27.5556 0.0000
# 6 0.0000 0.0000 0.0000 0.0000 0.0000 23.2718
#
#
#
# Elastic Compliance Matrix: (Units=1/GPa)
#
#
# Indices 1 2 3 4 5 6 
#
# 1 0.021935 0.002129 0.000539 0.000000 0.000000 0.000000
# 2 0.002129 0.012280 -0.003856 0.000000 0.000000 0.000000
# 3 0.000539 -0.003856 0.016946 0.000000 0.000000 0.000000
# 4 0.000000 0.000000 0.000000 0.027125 0.000000 0.000000
# 5 0.000000 0.000000 0.000000 0.000000 0.036290 0.000000
# 6 0.000000 0.000000 0.000000 0.000000 0.000000 0.042970
#
#
# Mechanical properties :
#
#
# Convention : Reuss Voigt Hill
#
# Bulk Modulus (GPa) = 20.49741 23.96518 22.23129
# Shear Modulus (GPa) = 28.37933 30.33990 29.35961
#
# Velocity S-wave (km/s) = 3.38298 3.49788 3.44091
# Velocity P-wave (km/s) = 4.85029 5.09686 4.97511
#
# Compressibility (1/GPa) = 0.04878665
#
# Stress axis : x y z
#
# Youngs Moduli (GPa) = 45.58824 81.43341 59.01070
#
# Poissons Ratio (x) = -0.17337 -0.03182
# Poissons Ratio (y) = -0.09706 0.22752
# Poissons Ratio (z) = -0.02458 0.31398
#
# Static dielectric constant tensor:
#      x y z
#    x 2.004770 0.000000 0.000000 
#    y 0.000000 1.911290 0.000000 
#    z 0.000000 0.000000 2.006200 
# 
# From -- ./inp_files/10177.got.cif
#   From: 2010.05.17/outbox.cif.g08.bks.cpg/sg61_6_cif.got.tgz:10177.got - 2010.06.03 15:17:17.
