data_PCOD9460835
_publ_section_title
;
Structure prediction by ZEFSAII (Michael W. Deem and Ramdas Pophale) SiO2 
 PCOD9460835
Probable space group: P B C A
;
_chemical_formula_sum "Si O2"
_cell_formula_units_Z 48
_cell_length_a 15.027398
_cell_length_b 12.295097
_cell_length_c 10.943556
_cell_angle_alpha 90.000000
_cell_angle_beta 90.000000
_cell_angle_gamma 90.000000
_cell_volume 2021.967696
_symmetry_space_group_name_H-M "P B C A"
_symmetry_group_IT_number 61
_symmetry_cell_setting 'orthorhombic'
loop_
_space_group_symop_operation_xyz
x,y,z
1/2-x,-y,1/2+z
1/2+x,1/2-y,-z
-x,1/2+y,1/2-z
-x,-y,-z
1/2+x,y,1/2-z
1/2-x,1/2+y,z
x,1/2-y,1/2+z
loop_
_atom_site_type_symbol
_atom_site_label
_atom_site_fract_x
_atom_site_fract_y
_atom_site_fract_z
Si Si1 0.360572 0.053132 0.003846
Si Si2 0.871277 0.297001 0.457720
Si Si3 0.396600 0.620442 0.709568
Si Si4 0.210984 0.307241 0.419987
Si Si5 0.428205 0.463486 0.230350
Si Si6 0.547453 0.326695 0.910791
O O1 0.259535 0.083751 0.968533
O O2 0.409540 0.031833 0.875192
O O3 0.369318 0.955879 0.097880
O O4 0.394801 0.168359 0.061091
O O5 0.780452 0.285548 0.536887
O O6 0.873092 0.367043 0.334507
O O7 0.950825 0.349088 0.535602
O O8 0.313591 0.672535 0.779884
O O9 0.465763 0.552106 0.790380
O O10 0.458788 0.720398 0.671523
O O11 0.117124 0.292710 0.485016
O O12 0.408608 0.576757 0.165294
#
# Coordination Sequence:
#
# PCOD9460835 Si02
#       6
#     8   8   8   8   8   8
#     4  10  27  47  76 110 158 199 258 331 394 465
#     4  10  25  50  72 112 153 203 258 327 401 450
#     4  12  26  48  78 112 154 207 265 317 402 473
#     4  10  27  46  75 114 147 206 254 332 378 482
#     4  12  26  48  81 109 159 203 262 332 398 479
#     4  12  27  47  74 115 149 208 258 320 400 473
#
# _framework density 23.739252
#
# number of rings (size 3 to 8) (size 9 to 14) (size 15 to 20)
#    1.000    0.000    3.333    1.000    9.333    0.000 
#    3.000    0.000    0.000    0.000    0.000    0.000 
#    0.000    0.000    0.000    0.000    0.000    0.000 
#
# Total GULP energy -268170.441243 kJ/mol
# GULP energy per Si atom -5586.884193 kJ/mol
# Density = 2.368522 g / cm^3
# Si number density = 23.739252 Si / 1000 Ang^3
#
#
#
# Elastic Constant Matrix: (Units=GPa)
#
#
# Indices 1 2 3 4 5 6 
#
# 1 103.7600 -5.7804 37.5925 0.0000 0.0000 0.0000
# 2 -5.7804 74.3443 49.4620 0.0000 0.0000 0.0000
# 3 37.5925 49.4620 101.7748 0.0000 0.0000 0.0000
# 4 0.0000 0.0000 0.0000 99.2321 0.0000 0.0000
# 5 0.0000 0.0000 0.0000 0.0000 43.6352 0.0000
# 6 0.0000 0.0000 0.0000 0.0000 0.0000 22.7675
#
#
#
# Elastic Compliance Matrix: (Units=1/GPa)
#
#
# Indices 1 2 3 4 5 6 
#
# 1 0.012759 0.006100 -0.007677 0.000000 0.000000 0.000000
# 2 0.006100 0.022794 -0.013331 0.000000 0.000000 0.000000
# 3 -0.007677 -0.013331 0.019140 0.000000 0.000000 0.000000
# 4 0.000000 0.000000 0.000000 0.010077 0.000000 0.000000
# 5 0.000000 0.000000 0.000000 0.000000 0.022917 0.000000
# 6 0.000000 0.000000 0.000000 0.000000 0.000000 0.043922
#
#
# Mechanical properties :
#
#
# Convention : Reuss Voigt Hill
#
# Bulk Modulus (GPa) = 40.19857 49.15860 44.67859
# Shear Modulus (GPa) = 29.46037 46.36731 37.91384
#
# Velocity S-wave (km/s) = 3.52660 4.42429 4.00070
# Velocity P-wave (km/s) = 5.79247 6.84484 6.34052
#
# Compressibility (1/GPa) = 0.02487651
#
# Stress axis : x y z
#
# Youngs Moduli (GPa) = 78.37674 43.87035 52.24626
#
# Poissons Ratio (x) = -0.26760 0.40110
# Poissons Ratio (y) = -0.47808 0.69650
# Poissons Ratio (z) = 0.60171 0.58484
#
# Static dielectric constant tensor:
#      x y z
#    x 1.951840 0.000000 0.000000 
#    y 0.000000 1.901860 0.000000 
#    z 0.000000 0.000000 1.940810 
# 
# From -- ./inp_files/6155.got.cif
#   From: 2010.05.17/outbox.cif.g08.bks.cpg/sg61_4_cif.got.tgz:6155.got - 2010.06.03 15:17:17.
