data_PCOD9460623
_publ_section_title
;
Structure prediction by ZEFSAII (Michael W. Deem and Ramdas Pophale) SiO2 
 PCOD9460623
Probable space group: P B C A
;
_chemical_formula_sum "Si O2"
_cell_formula_units_Z 28
_cell_length_a 9.865546
_cell_length_b 4.975722
_cell_length_c 18.738366
_cell_angle_alpha 90.000000
_cell_angle_beta 90.000000
_cell_angle_gamma 90.000000
_cell_volume 919.832925
_symmetry_space_group_name_H-M "P B C A"
_symmetry_group_IT_number 61
_symmetry_cell_setting 'orthorhombic'
loop_
_space_group_symop_operation_xyz
x,y,z
1/2-x,-y,1/2+z
1/2+x,1/2-y,-z
-x,1/2+y,1/2-z
-x,-y,-z
1/2+x,y,1/2-z
1/2-x,1/2+y,z
x,1/2-y,1/2+z
loop_
_atom_site_type_symbol
_atom_site_label
_atom_site_fract_x
_atom_site_fract_y
_atom_site_fract_z
Si Si1 0.581900 0.285187 0.856408
Si Si2 0.230322 0.010923 0.013619
Si Si3 0.500000 0.500000 0.500000
Si Si4 0.660721 0.144060 0.698035
O O1 0.696926 0.436489 0.902638
O O2 0.628199 0.156786 0.782316
O O3 0.468483 0.508548 0.838103
O O4 0.524071 0.072310 0.912519
O O5 0.351558 0.782268 0.983932
O O6 0.134541 0.739968 0.002262
O O7 0.716153 0.439611 0.681190
#
# Coordination Sequence:
#
# PCOD9460623 Si02
#       4
#     8   8   4   8
#     4  11  26  49  80 116 165 218 279 352 428 508
#     4  10  23  44  73 105 147 197 256 325 405 484
#     4  10  24  46  78 112 152 208 270 336 414 500
#     4  12  27  48  78 117 162 218 282 348 426 516
#
# _framework density 30.440307000000001
#
# number of rings (size 3 to 8) (size 9 to 14) (size 15 to 20)
#    0.000    1.143    0.000    5.143    0.000   18.286 
#    0.000    0.000    0.000    0.000    0.000    0.000 
#    0.000    0.000    0.000    0.000    0.000    0.000 
#
# Total GULP energy -156402.918332 kJ/mol
# GULP energy per Si atom -5585.818512 kJ/mol
# Density = 3.037102 g / cm^3
# Si number density = 30.440307 Si / 1000 Ang^3
#
#
#
# Elastic Constant Matrix: (Units=GPa)
#
#
# Indices 1 2 3 4 5 6 
#
# 1 290.1590 74.6380 88.0929 0.0000 0.0000 0.0000
# 2 74.6380 377.7809 58.7541 0.0000 0.0000 0.0000
# 3 88.0929 58.7541 115.8265 0.0000 0.0000 0.0000
# 4 0.0000 0.0000 0.0000 68.4704 0.0000 0.0000
# 5 0.0000 0.0000 0.0000 0.0000 85.5693 0.0000
# 6 0.0000 0.0000 0.0000 0.0000 0.0000 75.1327
#
#
#
# Elastic Compliance Matrix: (Units=1/GPa)
#
#
# Indices 1 2 3 4 5 6 
#
# 1 0.004533 -0.000390 -0.003250 0.000000 0.000000 0.000000
# 2 -0.000390 0.002907 -0.001178 0.000000 0.000000 0.000000
# 3 -0.003250 -0.001178 0.011703 0.000000 0.000000 0.000000
# 4 0.000000 0.000000 0.000000 0.014605 0.000000 0.000000
# 5 0.000000 0.000000 0.000000 0.000000 0.011686 0.000000
# 6 0.000000 0.000000 0.000000 0.000000 0.000000 0.013310
#
#
# Mechanical properties :
#
#
# Convention : Reuss Voigt Hill
#
# Bulk Modulus (GPa) = 105.18208 136.30404 120.74306
# Shear Modulus (GPa) = 69.88072 83.31991 76.60032
#
# Velocity S-wave (km/s) = 4.79651 5.23746 5.02183
# Velocity P-wave (km/s) = 8.08108 9.02493 8.56601
#
# Compressibility (1/GPa) = 0.00950732
#
# Stress axis : x y z
#
# Youngs Moduli (GPa) = 220.58105 343.95727 85.44819
#
# Poissons Ratio (x) = 0.13422 0.27771
# Poissons Ratio (y) = 0.08607 0.10066
# Poissons Ratio (z) = 0.71690 0.40518
#
# Static dielectric constant tensor:
#      x y z
#    x 2.564190 0.000000 0.000000 
#    y 0.000000 2.367510 0.000000 
#    z 0.000000 0.000000 2.198570 
# 
# From -- ./inp_files/10235.got.cif
#   From: 2010.05.17/outbox.cif.g08.bks.cpg/sg61_6_cif.got.tgz:10235.got - 2010.06.03 15:17:17.
