data_PCOD9460092
_publ_section_title
;
Structure prediction by ZEFSAII (Michael W. Deem and Ramdas Pophale) SiO2 
 PCOD9460092
Probable space group: P B C A
;
_chemical_formula_sum "Si O2"
_cell_formula_units_Z 56
_cell_length_a 22.419263
_cell_length_b 15.975232
_cell_length_c 5.695394
_cell_angle_alpha 90.000000
_cell_angle_beta 90.000000
_cell_angle_gamma 90.000000
_cell_volume 2039.822035
_symmetry_space_group_name_H-M "P B C A"
_symmetry_group_IT_number 61
_symmetry_cell_setting 'orthorhombic'
loop_
_space_group_symop_operation_xyz
x,y,z
1/2-x,-y,1/2+z
1/2+x,1/2-y,-z
-x,1/2+y,1/2-z
-x,-y,-z
1/2+x,y,1/2-z
1/2-x,1/2+y,z
x,1/2-y,1/2+z
loop_
_atom_site_type_symbol
_atom_site_label
_atom_site_fract_x
_atom_site_fract_y
_atom_site_fract_z
Si Si1 0.100917 0.770651 0.112333
Si Si2 0.265613 0.288782 0.602021
Si Si3 0.121506 0.083958 0.631305
Si Si4 0.087400 0.946938 0.961053
Si Si5 0.969958 0.927597 0.714972
Si Si6 0.431806 0.741819 0.147847
Si Si7 0.773993 0.481049 0.055347
O O1 0.072480 0.737310 0.869783
O O2 0.163646 0.724219 0.127583
O O3 0.118251 0.867008 0.067165
O O4 0.242997 0.260618 0.864448
O O5 0.263745 0.386645 0.540601
O O6 0.052351 0.073195 0.549972
O O7 0.120583 0.186125 0.653559
O O8 0.127036 0.019734 0.848347
O O9 0.164408 0.035807 0.449412
O O10 0.038644 0.911707 0.772613
O O11 0.048067 0.987011 0.163788
O O12 0.925016 0.858103 0.829196
O O13 0.462427 0.754304 0.397250
O O14 0.757365 0.473224 0.330459
#
# Coordination Sequence:
#
# PCOD9460092 Si02
#       7
#     8   8   8   8   8   8   8
#     4  10  23  39  65 104 137 185 231 287 360 425
#     4  10  21  43  71 103 144 183 234 306 378 445
#     4  11  24  44  76  97 153 192 246 302 385 437
#     4  11  23  42  71 107 145 193 246 296 366 433
#     4  10  24  41  68 108 147 194 246 297 350 456
#     4  10  21  42  64  98 141 193 236 290 348 428
#     4  12  29  49  78 115 144 193 258 326 384 456
#
# _framework density 27.453378000000001
#
# number of rings (size 3 to 8) (size 9 to 14) (size 15 to 20)
#    0.000    1.429    1.429    3.000    8.000    2.286 
#    0.000    8.571    0.000    0.000    0.000    0.000 
#    0.000    0.000    0.000    0.000    0.000    0.000 
#
# Total GULP energy -311936.546299 kJ/mol
# GULP energy per Si atom -5570.295470 kJ/mol
# Density = 2.739089 g / cm^3
# Si number density = 27.453378 Si / 1000 Ang^3
#
#
#
# Elastic Constant Matrix: (Units=GPa)
#
#
# Indices 1 2 3 4 5 6 
#
# 1 58.5563 -0.0516 39.9024 0.0000 0.0000 0.0000
# 2 -0.0516 144.6823 21.0326 0.0000 0.0000 0.0000
# 3 39.9024 21.0326 189.3300 0.0000 0.0000 0.0000
# 4 0.0000 0.0000 0.0000 45.3444 0.0000 0.0000
# 5 0.0000 0.0000 0.0000 0.0000 49.5584 0.0000
# 6 0.0000 0.0000 0.0000 0.0000 0.0000 4.2870
#
#
#
# Elastic Compliance Matrix: (Units=1/GPa)
#
#
# Indices 1 2 3 4 5 6 
#
# 1 0.019998 0.000630 -0.004285 0.000000 0.000000 0.000000
# 2 0.000630 0.007045 -0.000915 0.000000 0.000000 0.000000
# 3 -0.004285 -0.000915 0.006286 0.000000 0.000000 0.000000
# 4 0.000000 0.000000 0.000000 0.022053 0.000000 0.000000
# 5 0.000000 0.000000 0.000000 0.000000 0.020178 0.000000
# 6 0.000000 0.000000 0.000000 0.000000 0.000000 0.233261
#
#
# Mechanical properties :
#
#
# Convention : Reuss Voigt Hill
#
# Bulk Modulus (GPa) = 41.34070 57.14836 49.24453
# Shear Modulus (GPa) = 15.33624 41.95033 28.64328
#
# Velocity S-wave (km/s) = 2.36610 3.91328 3.23359
# Velocity P-wave (km/s) = 4.74929 6.42495 5.64959
#
# Compressibility (1/GPa) = 0.02418924
#
# Stress axis : x y z
#
# Youngs Moduli (GPa) = 50.00534 141.94479 159.07131
#
# Poissons Ratio (x) = -0.08942 0.68156
# Poissons Ratio (y) = -0.03150 0.14561
# Poissons Ratio (z) = 0.21426 0.12994
#
# Static dielectric constant tensor:
#      x y z
#    x 2.175290 0.000000 0.000000 
#    y 0.000000 2.591520 0.000000 
#    z 0.000000 0.000000 2.280060 
# 
# From -- ./inp_files/1451.got.cif
#   From: 2010.05.17/outbox.cif.g08.bks.cpg/sg61_1_cif.got.tgz:1451.got - 2010.06.03 15:17:17.
