data_PCOD9460083
_publ_section_title
;
Structure prediction by ZEFSAII (Michael W. Deem and Ramdas Pophale) SiO2 
 PCOD9460083
Probable space group: P B C A
;
_chemical_formula_sum "Si O2"
_cell_formula_units_Z 64
_cell_length_a 17.640305
_cell_length_b 18.369782
_cell_length_c 9.183211
_cell_angle_alpha 90.000000
_cell_angle_beta 90.000000
_cell_angle_gamma 90.000000
_cell_volume 2975.806276
_symmetry_space_group_name_H-M "P B C A"
_symmetry_group_IT_number 61
_symmetry_cell_setting 'orthorhombic'
loop_
_space_group_symop_operation_xyz
x,y,z
1/2-x,-y,1/2+z
1/2+x,1/2-y,-z
-x,1/2+y,1/2-z
-x,-y,-z
1/2+x,y,1/2-z
1/2-x,1/2+y,z
x,1/2-y,1/2+z
loop_
_atom_site_type_symbol
_atom_site_label
_atom_site_fract_x
_atom_site_fract_y
_atom_site_fract_z
Si Si1 0.703750 0.160130 0.860158
Si Si2 0.976962 0.670090 0.824737
Si Si3 0.773058 0.703196 0.183187
Si Si4 0.705998 0.914965 0.855617
Si Si5 0.534401 0.926136 0.932447
Si Si6 0.216866 0.464581 0.345477
Si Si7 0.047435 0.067652 0.935807
Si Si8 0.558922 0.334955 0.788695
O O1 0.611809 0.160978 0.872438
O O2 0.724481 0.212519 0.725455
O O3 0.729840 0.082906 0.800503
O O4 0.737905 0.186028 0.013256
O O5 0.990740 0.613249 0.694267
O O6 0.982202 0.755883 0.788423
O O7 0.029626 0.640080 0.952276
O O8 0.716122 0.666725 0.298828
O O9 0.857546 0.676386 0.225068
O O10 0.619299 0.936850 0.878726
O O11 0.740480 0.956985 0.714507
O O12 0.744623 0.934602 0.008793
O O13 0.484120 0.896430 0.801305
O O14 0.500000 0.000000 0.000000
O O15 0.127700 0.462344 0.380516
O O16 0.064878 0.131173 0.051818
O O17 0.000000 0.000000 0.000000
#
# Coordination Sequence:
#
# PCOD9460083 Si02
#       8
#     8   8   8   8   8   8   8   8
#     4  10  21  41  71  98 127 176 227 275 340 414
#     4  10  22  39  68  98 131 173 229 276 333 410
#     4  11  22  41  70  99 130 174 225 286 338 407
#     4  12  26  42  66  99 139 178 229 286 351 408
#     4  12  25  44  67  99 135 183 227 282 345 414
#     4  11  24  42  63  98 133 176 228 283 342 415
#     4  11  22  40  65  99 131 172 225 279 340 410
#     4  11  22  41  69  95 131 175 226 282 340 406
#
# _framework density 21.506778000000001
#
# number of rings (size 3 to 8) (size 9 to 14) (size 15 to 20)
#    0.000    1.000    2.500    5.250    8.750    1.000 
#    4.500    1.250    0.000    0.000    0.000    0.000 
#    0.000    0.000    0.000    0.000    0.000    0.000 
#
# Total GULP energy -357440.235418 kJ/mol
# GULP energy per Si atom -5585.003678 kJ/mol
# Density = 2.145783 g / cm^3
# Si number density = 21.506778 Si / 1000 Ang^3
#
#
#
# Elastic Constant Matrix: (Units=GPa)
#
#
# Indices 1 2 3 4 5 6 
#
# 1 41.9240 19.2423 7.6617 0.0000 0.0000 0.0000
# 2 19.2423 85.2219 12.2394 0.0000 0.0000 0.0000
# 3 7.6617 12.2394 105.2768 0.0000 0.0000 0.0000
# 4 0.0000 0.0000 0.0000 46.0866 0.0000 0.0000
# 5 0.0000 0.0000 0.0000 0.0000 23.2296 0.0000
# 6 0.0000 0.0000 0.0000 0.0000 0.0000 23.2946
#
#
#
# Elastic Compliance Matrix: (Units=1/GPa)
#
#
# Indices 1 2 3 4 5 6 
#
# 1 0.026776 -0.005864 -0.001267 0.000000 0.000000 0.000000
# 2 -0.005864 0.013217 -0.001110 0.000000 0.000000 0.000000
# 3 -0.001267 -0.001110 0.009720 0.000000 0.000000 0.000000
# 4 0.000000 0.000000 0.000000 0.021698 0.000000 0.000000
# 5 0.000000 0.000000 0.000000 0.000000 0.043048 0.000000
# 6 0.000000 0.000000 0.000000 0.000000 0.000000 0.042928
#
#
# Mechanical properties :
#
#
# Convention : Reuss Voigt Hill
#
# Bulk Modulus (GPa) = 30.09155 34.52326 32.30740
# Shear Modulus (GPa) = 27.03484 31.40746 29.22115
#
# Velocity S-wave (km/s) = 3.54932 3.82560 3.69005
# Velocity P-wave (km/s) = 5.55148 5.96664 5.76280
#
# Compressibility (1/GPa) = 0.03323192
#
# Stress axis : x y z
#
# Youngs Moduli (GPa) = 37.34753 75.65763 102.88052
#
# Poissons Ratio (x) = 0.44363 0.13034
# Poissons Ratio (y) = 0.21899 0.11419
# Poissons Ratio (z) = 0.04732 0.08397
#
# Static dielectric constant tensor:
#      x y z
#    x 1.744460 0.000000 0.000000 
#    y 0.000000 1.787700 0.000000 
#    z 0.000000 0.000000 1.814680 
# 
# From -- ./inp_files/4062.got.cif
#   From: 2010.05.17/outbox.cif.g08.bks.cpg/sg61_3_cif.got.tgz:4062.got - 2010.06.03 15:17:17.
