data_PCOD9460535
_publ_section_title
;
Structure prediction by ZEFSAII (Michael W. Deem and Ramdas Pophale) SiO2 
 PCOD9460535
Probable space group: P B C A
;
_chemical_formula_sum "Si O2"
_cell_formula_units_Z 64
_cell_length_a 9.052629
_cell_length_b 10.089960
_cell_length_c 30.228907
_cell_angle_alpha 90.000000
_cell_angle_beta 90.000000
_cell_angle_gamma 90.000000
_cell_volume 2761.128453
_symmetry_space_group_name_H-M "P B C A"
_symmetry_group_IT_number 61
_symmetry_cell_setting 'orthorhombic'
loop_
_space_group_symop_operation_xyz
x,y,z
1/2-x,-y,1/2+z
1/2+x,1/2-y,-z
-x,1/2+y,1/2-z
-x,-y,-z
1/2+x,y,1/2-z
1/2-x,1/2+y,z
x,1/2-y,1/2+z
loop_
_atom_site_type_symbol
_atom_site_label
_atom_site_fract_x
_atom_site_fract_y
_atom_site_fract_z
Si Si1 0.766234 0.934537 0.320957
Si Si2 0.120355 0.328222 0.730554
Si Si3 0.814754 0.273854 0.694011
Si Si4 0.928392 0.675041 0.040652
Si Si5 0.438380 0.425097 0.361243
Si Si6 0.592088 0.908997 0.410133
Si Si7 0.087157 0.108493 0.554538
Si Si8 0.679434 0.904471 0.598274
O O1 0.818968 0.798210 0.297758
O O2 0.648711 0.902632 0.359557
O O3 0.913180 0.998309 0.343953
O O4 0.694954 0.038794 0.287611
O O5 0.164675 0.297585 0.780747
O O6 0.946090 0.336653 0.722533
O O7 0.863101 0.124047 0.684277
O O8 0.823159 0.324575 0.644081
O O9 0.759991 0.668946 0.057967
O O10 0.011426 0.778989 0.071529
O O11 0.006540 0.532235 0.046815
O O12 0.932844 0.699804 0.988254
O O13 0.519649 0.335870 0.399597
O O14 0.302419 0.486499 0.387539
O O15 0.740963 0.923283 0.438416
O O16 0.473617 0.026496 0.413152
#
# Coordination Sequence:
#
# PCOD9460535 Si02
#       8
#     8   8   8   8   8   8   8   8
#     4  10  24  44  68  97 131 183 234 284 357 417
#     4  11  26  43  66  97 135 175 240 289 346 427
#     4  11  25  41  63  95 131 176 225 288 347 409
#     4  10  23  41  66 102 132 184 224 295 349 432
#     4   9  22  42  63  91 132 176 215 286 346 413
#     4  11  23  40  70  93 135 185 224 288 358 426
#     4   9  22  43  67  96 138 172 235 282 355 428
#     4  11  23  40  63  94 135 169 233 275 355 417
#
# _framework density 23.178930000000001
#
# number of rings (size 3 to 8) (size 9 to 14) (size 15 to 20)
#    0.000    1.750    1.250    0.750    8.750    7.500 
#    0.000    0.000    0.000    0.000    0.000    0.000 
#    0.000    0.000    0.000    0.000    0.000    0.000 
#
# Total GULP energy -357277.831661 kJ/mol
# GULP energy per Si atom -5582.466120 kJ/mol
# Density = 2.312617 g / cm^3
# Si number density = 23.178930 Si / 1000 Ang^3
#
#
#
# Elastic Constant Matrix: (Units=GPa)
#
#
# Indices 1 2 3 4 5 6 
#
# 1 81.4613 -2.3864 30.5227 0.0000 0.0000 0.0000
# 2 -2.3864 13.0298 4.5322 0.0000 0.0000 0.0000
# 3 30.5227 4.5322 100.8611 0.0000 0.0000 0.0000
# 4 0.0000 0.0000 0.0000 22.4312 0.0000 0.0000
# 5 0.0000 0.0000 0.0000 0.0000 28.6450 0.0000
# 6 0.0000 0.0000 0.0000 0.0000 0.0000 21.6407
#
#
#
# Elastic Compliance Matrix: (Units=1/GPa)
#
#
# Indices 1 2 3 4 5 6 
#
# 1 0.014060 0.004120 -0.004440 0.000000 0.000000 0.000000
# 2 0.004120 0.079173 -0.004804 0.000000 0.000000 0.000000
# 3 -0.004440 -0.004804 0.011474 0.000000 0.000000 0.000000
# 4 0.000000 0.000000 0.000000 0.044581 0.000000 0.000000
# 5 0.000000 0.000000 0.000000 0.000000 0.034910 0.000000
# 6 0.000000 0.000000 0.000000 0.000000 0.000000 0.046209
#
#
# Mechanical properties :
#
#
# Convention : Reuss Voigt Hill
#
# Bulk Modulus (GPa) = 10.58680 28.96547 19.77613
# Shear Modulus (GPa) = 18.37275 25.38896 21.88085
#
# Velocity S-wave (km/s) = 2.81846 3.31319 3.07579
# Velocity P-wave (km/s) = 3.89473 5.21152 4.60048
#
# Compressibility (1/GPa) = 0.09445727
#
# Stress axis : x y z
#
# Youngs Moduli (GPa) = 71.12344 12.63063 87.15251
#
# Poissons Ratio (x) = -0.05203 0.38696
# Poissons Ratio (y) = -0.29299 0.41871
# Poissons Ratio (z) = 0.31579 0.06068
#
# Static dielectric constant tensor:
#      x y z
#    x 1.876810 0.000000 0.000000 
#    y 0.000000 2.074330 0.000000 
#    z 0.000000 0.000000 1.884220 
# 
# From -- ./inp_files/11719.got.cif
#   From: 2010.05.17/outbox.cif.g08.bks.cpg/sg61_6_cif.got.tgz:11719.got - 2010.06.03 15:17:17.
