data_PCOD9460334
_publ_section_title
;
Structure prediction by ZEFSAII (Michael W. Deem and Ramdas Pophale) SiO2 
 PCOD9460334
Probable space group: P B C A
;
_chemical_formula_sum "Si O2"
_cell_formula_units_Z 64
_cell_length_a 18.786273
_cell_length_b 14.454373
_cell_length_c 9.731109
_cell_angle_alpha 90.000000
_cell_angle_beta 90.000000
_cell_angle_gamma 90.000000
_cell_volume 2642.422289
_symmetry_space_group_name_H-M "P B C A"
_symmetry_group_IT_number 61
_symmetry_cell_setting 'orthorhombic'
loop_
_space_group_symop_operation_xyz
x,y,z
1/2-x,-y,1/2+z
1/2+x,1/2-y,-z
-x,1/2+y,1/2-z
-x,-y,-z
1/2+x,y,1/2-z
1/2-x,1/2+y,z
x,1/2-y,1/2+z
loop_
_atom_site_type_symbol
_atom_site_label
_atom_site_fract_x
_atom_site_fract_y
_atom_site_fract_z
Si Si1 0.519899 0.165545 0.256895
Si Si2 0.635895 0.380180 0.980925
Si Si3 0.757535 0.566946 0.266255
Si Si4 0.744331 0.244446 0.084134
Si Si5 0.468323 0.187472 0.980827
Si Si6 0.394876 0.467381 0.815714
Si Si7 0.351175 0.415545 0.353809
Si Si8 0.640796 0.663601 0.931287
O O1 0.586202 0.137841 0.350678
O O2 0.530226 0.180672 0.094095
O O3 0.489261 0.253836 0.344708
O O4 0.465045 0.078606 0.255618
O O5 0.703206 0.433692 0.912686
O O6 0.670062 0.290301 0.049070
O O7 0.596973 0.437774 0.100277
O O8 0.757029 0.670703 0.206557
O O9 0.676495 0.530195 0.276424
O O10 0.802706 0.505885 0.157837
O O11 0.800217 0.327129 0.115914
O O12 0.777813 0.194229 0.950395
O O13 0.410471 0.248616 0.065076
O O14 0.423139 0.096373 0.941011
O O15 0.375077 0.393576 0.933070
O O16 0.375189 0.397795 0.198029
#
# Coordination Sequence:
#
# PCOD9460334 Si02
#       8
#     8   8   8   8   8   8   8   8
#     4  11  25  42  69  96 141 185 237 276 353 419
#     4  12  24  42  67  94 143 177 226 289 360 410
#     4  11  24  40  68 103 138 174 234 297 349 412
#     4  10  23  37  61 100 134 171 223 288 350 409
#     4  10  22  41  68  97 130 187 232 282 331 430
#     4  10  22  42  65  96 129 183 227 277 343 423
#     4  11  19  39  70  95 134 178 233 283 353 407
#     4   9  18  37  63  92 126 170 226 277 326 410
#
# _framework density 24.220199999999998
#
# number of rings (size 3 to 8) (size 9 to 14) (size 15 to 20)
#    0.000    1.500    3.750    1.875    5.250    0.000 
#    0.000    0.625    5.500    0.000    0.000    0.000 
#    0.000    0.000    0.000    0.000    0.000    0.000 
#
# Total GULP energy -357591.780375 kJ/mol
# GULP energy per Si atom -5587.371568 kJ/mol
# Density = 2.416507 g / cm^3
# Si number density = 24.220200 Si / 1000 Ang^3
#
#
#
# Elastic Constant Matrix: (Units=GPa)
#
#
# Indices 1 2 3 4 5 6 
#
# 1 31.9918 -7.5607 -6.9563 0.0000 0.0000 0.0000
# 2 -7.5607 49.7675 -3.7560 0.0000 0.0000 0.0000
# 3 -6.9563 -3.7560 67.3240 0.0000 0.0000 0.0000
# 4 0.0000 0.0000 0.0000 10.8912 0.0000 0.0000
# 5 0.0000 0.0000 0.0000 0.0000 34.9152 0.0000
# 6 0.0000 0.0000 0.0000 0.0000 0.0000 22.2685
#
#
#
# Elastic Compliance Matrix: (Units=1/GPa)
#
#
# Indices 1 2 3 4 5 6 
#
# 1 0.033335 0.005347 0.003743 0.000000 0.000000 0.000000
# 2 0.005347 0.021036 0.001726 0.000000 0.000000 0.000000
# 3 0.003743 0.001726 0.015337 0.000000 0.000000 0.000000
# 4 0.000000 0.000000 0.000000 0.091817 0.000000 0.000000
# 5 0.000000 0.000000 0.000000 0.000000 0.028641 0.000000
# 6 0.000000 0.000000 0.000000 0.000000 0.000000 0.044907
#
#
# Mechanical properties :
#
#
# Convention : Reuss Voigt Hill
#
# Bulk Modulus (GPa) = 10.94820 12.50414 11.72617
# Shear Modulus (GPa) = 20.50122 24.77206 22.63664
#
# Velocity S-wave (km/s) = 2.91254 3.20157 3.06047
# Velocity P-wave (km/s) = 3.98003 4.34058 4.16421
#
# Compressibility (1/GPa) = 0.09133921
#
# Stress axis : x y z
#
# Youngs Moduli (GPa) = 29.99806 47.53756 65.20365
#
# Poissons Ratio (x) = -0.25417 -0.24404
# Poissons Ratio (y) = -0.16039 -0.11255
# Poissons Ratio (z) = -0.11227 -0.08205
#
# Static dielectric constant tensor:
#      x y z
#    x 2.001810 0.000000 0.000000 
#    y 0.000000 1.976440 0.000000 
#    z 0.000000 0.000000 1.970590 
# 
# From -- ./inp_files/6310.got.cif
#   From: 2010.05.17/outbox.cif.g08.bks.cpg/sg61_4_cif.got.tgz:6310.got - 2010.06.03 15:17:17.
