data_PCOD9460254
_publ_section_title
;
Structure prediction by ZEFSAII (Michael W. Deem and Ramdas Pophale) SiO2 
 PCOD9460254
Probable space group: P B C A
;
_chemical_formula_sum "Si O2"
_cell_formula_units_Z 32
_cell_length_a 8.735887
_cell_length_b 14.079902
_cell_length_c 9.407937
_cell_angle_alpha 90.000000
_cell_angle_beta 90.000000
_cell_angle_gamma 90.000000
_cell_volume 1157.180323
_symmetry_space_group_name_H-M "P B C A"
_symmetry_group_IT_number 61
_symmetry_cell_setting 'orthorhombic'
loop_
_space_group_symop_operation_xyz
x,y,z
1/2-x,-y,1/2+z
1/2+x,1/2-y,-z
-x,1/2+y,1/2-z
-x,-y,-z
1/2+x,y,1/2-z
1/2-x,1/2+y,z
x,1/2-y,1/2+z
loop_
_atom_site_type_symbol
_atom_site_label
_atom_site_fract_x
_atom_site_fract_y
_atom_site_fract_z
Si Si1 0.635520 0.142957 0.361785
Si Si2 0.200127 0.118656 0.564142
Si Si3 0.998202 0.753814 0.105944
Si Si4 0.357002 0.027535 0.301368
O O1 0.610907 0.169291 0.524582
O O2 0.561987 0.225533 0.261646
O O3 0.532430 0.049971 0.332223
O O4 0.797753 0.115117 0.298592
O O5 0.335104 0.197608 0.587857
O O6 0.264197 0.044635 0.446024
O O7 0.050046 0.162967 0.490093
O O8 0.164986 0.064614 0.708079
#
# Coordination Sequence:
#
# PCOD9460254 Si02
#       4
#     8   8   8   8
#     4  10  22  40  60  92 124 160 206 248 304 362
#     4  10  23  42  64  90 123 162 204 250 303 362
#     4  10  22  40  64  90 124 164 204 248 304 366
#     4  10  23  40  60  90 123 156 206 254 303 360
#
# _framework density 27.653427000000001
#
# number of rings (size 3 to 8) (size 9 to 14) (size 15 to 20)
#    0.000    2.000    0.000    1.500    0.000   14.000 
#    0.000    2.500    0.000    0.000    0.000    0.000 
#    0.000    0.000    0.000    0.000    0.000    0.000 
#
# Total GULP energy -179315.572661 kJ/mol
# GULP energy per Si atom -5603.611646 kJ/mol
# Density = 2.759049 g / cm^3
# Si number density = 27.653427 Si / 1000 Ang^3
#
#
#
# Elastic Constant Matrix: (Units=GPa)
#
#
# Indices 1 2 3 4 5 6 
#
# 1 111.8654 40.6697 44.8467 0.0000 0.0000 0.0000
# 2 40.6697 129.9907 77.9985 0.0000 0.0000 0.0000
# 3 44.8467 77.9985 223.4094 0.0000 0.0000 0.0000
# 4 0.0000 0.0000 0.0000 63.5795 0.0000 0.0000
# 5 0.0000 0.0000 0.0000 0.0000 36.6324 0.0000
# 6 0.0000 0.0000 0.0000 0.0000 0.0000 42.4741
#
#
#
# Elastic Compliance Matrix: (Units=1/GPa)
#
#
# Indices 1 2 3 4 5 6 
#
# 1 0.010333 -0.002515 -0.001196 0.000000 0.000000 0.000000
# 2 -0.002515 0.010344 -0.003106 0.000000 0.000000 0.000000
# 3 -0.001196 -0.003106 0.005801 0.000000 0.000000 0.000000
# 4 0.000000 0.000000 0.000000 0.015728 0.000000 0.000000
# 5 0.000000 0.000000 0.000000 0.000000 0.027298 0.000000
# 6 0.000000 0.000000 0.000000 0.000000 0.000000 0.023544
#
#
# Mechanical properties :
#
#
# Convention : Reuss Voigt Hill
#
# Bulk Modulus (GPa) = 77.86807 88.03281 82.95044
# Shear Modulus (GPa) = 45.05953 48.65389 46.85671
#
# Velocity S-wave (km/s) = 4.04101 4.19909 4.12081
# Velocity P-wave (km/s) = 7.07055 7.44401 7.25968
#
# Compressibility (1/GPa) = 0.01284223
#
# Stress axis : x y z
#
# Youngs Moduli (GPa) = 96.77469 96.67706 172.39221
#
# Poissons Ratio (x) = 0.24316 0.20621
# Poissons Ratio (y) = 0.24341 0.53552
# Poissons Ratio (z) = 0.11576 0.30032
#
# Static dielectric constant tensor:
#      x y z
#    x 2.077010 0.000000 0.000000 
#    y 0.000000 2.322180 0.000000 
#    z 0.000000 0.000000 2.051660 
# 
# From -- ./inp_files/1972.got.cif
#   From: 2010.05.17/outbox.cif.g08.bks.cpg/sg61_1_cif.got.tgz:1972.got - 2010.06.03 15:17:17.
