data_PCOD9460878
_publ_section_title
;
Structure prediction by ZEFSAII (Michael W. Deem and Ramdas Pophale) SiO2 
 PCOD9460878
Probable space group: P B C A
;
_chemical_formula_sum "Si O2"
_cell_formula_units_Z 64
_cell_length_a 17.337010
_cell_length_b 14.637586
_cell_length_c 11.437421
_cell_angle_alpha 90.000000
_cell_angle_beta 90.000000
_cell_angle_gamma 90.000000
_cell_volume 2902.496914
_symmetry_space_group_name_H-M "P B C A"
_symmetry_group_IT_number 61
_symmetry_cell_setting 'orthorhombic'
loop_
_space_group_symop_operation_xyz
x,y,z
1/2-x,-y,1/2+z
1/2+x,1/2-y,-z
-x,1/2+y,1/2-z
-x,-y,-z
1/2+x,y,1/2-z
1/2-x,1/2+y,z
x,1/2-y,1/2+z
loop_
_atom_site_type_symbol
_atom_site_label
_atom_site_fract_x
_atom_site_fract_y
_atom_site_fract_z
Si Si1 0.095789 0.122525 0.503515
Si Si2 0.142374 0.869955 0.212381
Si Si3 0.692088 0.682798 0.277160
Si Si4 0.147335 0.197174 0.086779
Si Si5 0.056571 0.442425 0.746609
Si Si6 0.276226 0.096754 0.470647
Si Si7 0.205202 0.398907 0.362812
Si Si8 0.898053 0.007658 0.304583
O O1 0.087308 0.219612 0.568285
O O2 0.069976 0.109166 0.370249
O O3 0.188417 0.113405 0.504404
O O4 0.066130 0.039037 0.581796
O O5 0.127237 0.761335 0.212868
O O6 0.215624 0.875542 0.299128
O O7 0.086612 0.952437 0.248900
O O8 0.169378 0.888491 0.080443
O O9 0.773466 0.711734 0.337810
O O10 0.705159 0.658196 0.141814
O O11 0.662844 0.587501 0.333256
O O12 0.103880 0.113345 0.149577
O O13 0.175344 0.173223 0.955991
O O14 0.965243 0.448178 0.727061
O O15 0.282506 0.992696 0.431652
O O16 0.143101 0.426316 0.265287
#
# Coordination Sequence:
#
# PCOD9460878 Si02
#       8
#     8   8   8   8   8   8   8   8
#     4  12  23  42  71  97 131 170 226 276 336 390
#     4  12  23  42  70  97 129 171 226 281 332 389
#     4  11  24  41  67 101 133 170 227 287 329 391
#     4  12  24  41  72 100 128 172 229 283 335 391
#     4  12  27  45  65  97 139 182 219 269 335 414
#     4  11  20  40  66 101 126 166 220 282 336 378
#     4  11  22  40  68  97 128 168 219 286 323 394
#     4  11  26  45  64  95 142 178 219 266 339 400
#
# _framework density 22.049979
#
# number of rings (size 3 to 8) (size 9 to 14) (size 15 to 20)
#    0.000    0.500    6.250    2.625    1.750    1.500 
#    0.000    0.000    0.000    0.000    0.000    0.000 
#    0.000    0.000    0.000    0.000    0.000    0.000 
#
# Total GULP energy -357677.982671 kJ/mol
# GULP energy per Si atom -5588.718479 kJ/mol
# Density = 2.199979 g / cm^3
# Si number density = 22.049979 Si / 1000 Ang^3
#
#
#
# Elastic Constant Matrix: (Units=GPa)
#
#
# Indices 1 2 3 4 5 6 
#
# 1 23.5905 -16.2553 -9.3016 0.0000 0.0000 0.0000
# 2 -16.2553 85.7651 28.1795 0.0000 0.0000 0.0000
# 3 -9.3016 28.1795 78.4378 0.0000 0.0000 0.0000
# 4 0.0000 0.0000 0.0000 27.7750 0.0000 0.0000
# 5 0.0000 0.0000 0.0000 0.0000 14.3014 0.0000
# 6 0.0000 0.0000 0.0000 0.0000 0.0000 9.1665
#
#
#
# Elastic Compliance Matrix: (Units=1/GPa)
#
#
# Indices 1 2 3 4 5 6 
#
# 1 0.049303 0.008417 0.002823 0.000000 0.000000 0.000000
# 2 0.008417 0.014657 -0.004268 0.000000 0.000000 0.000000
# 3 0.002823 -0.004268 0.014617 0.000000 0.000000 0.000000
# 4 0.000000 0.000000 0.000000 0.036004 0.000000 0.000000
# 5 0.000000 0.000000 0.000000 0.000000 0.069923 0.000000
# 6 0.000000 0.000000 0.000000 0.000000 0.000000 0.109093
#
#
# Mechanical properties :
#
#
# Convention : Reuss Voigt Hill
#
# Bulk Modulus (GPa) = 10.80830 21.44871 16.12851
# Shear Modulus (GPa) = 16.10342 22.59330 19.34836
#
# Velocity S-wave (km/s) = 2.70537 3.20447 2.96544
# Velocity P-wave (km/s) = 3.83028 4.84148 4.36526
#
# Compressibility (1/GPa) = 0.09252147
#
# Stress axis : x y z
#
# Youngs Moduli (GPa) = 20.28277 68.22554 68.41413
#
# Poissons Ratio (x) = -0.57426 -0.19311
# Poissons Ratio (y) = -0.17072 0.29196
# Poissons Ratio (z) = -0.05725 0.29116
#
# Static dielectric constant tensor:
#      x y z
#    x 1.768430 0.000000 0.000000 
#    y 0.000000 1.907360 0.000000 
#    z 0.000000 0.000000 1.834940 
# 
# From -- ./inp_files/6312.got.cif
#   From: 2010.05.17/outbox.cif.g08.bks.cpg/sg61_4_cif.got.tgz:6312.got - 2010.06.03 15:17:17.
