data_PCOD9460390
_publ_section_title
;
Structure prediction by ZEFSAII (Michael W. Deem and Ramdas Pophale) SiO2 
 PCOD9460390
Probable space group: P B C A
;
_chemical_formula_sum "Si O2"
_cell_formula_units_Z 60
_cell_length_a 9.025421
_cell_length_b 17.083269
_cell_length_c 15.455034
_cell_angle_alpha 90.000000
_cell_angle_beta 90.000000
_cell_angle_gamma 90.000000
_cell_volume 2382.914245
_symmetry_space_group_name_H-M "P B C A"
_symmetry_group_IT_number 61
_symmetry_cell_setting 'orthorhombic'
loop_
_space_group_symop_operation_xyz
x,y,z
1/2-x,-y,1/2+z
1/2+x,1/2-y,-z
-x,1/2+y,1/2-z
-x,-y,-z
1/2+x,y,1/2-z
1/2-x,1/2+y,z
x,1/2-y,1/2+z
loop_
_atom_site_type_symbol
_atom_site_label
_atom_site_fract_x
_atom_site_fract_y
_atom_site_fract_z
Si Si1 0.712209 0.573160 0.244595
Si Si2 0.912554 0.346698 0.577258
Si Si3 0.731340 0.205128 0.384735
Si Si4 0.975283 0.034124 0.680413
Si Si5 0.500000 0.000000 0.500000
Si Si6 0.916143 0.308885 0.283851
Si Si7 0.791321 0.730847 0.633881
Si Si8 0.701893 0.907645 0.027042
O O1 0.608573 0.600685 0.164666
O O2 0.760084 0.646389 0.302417
O O3 0.628769 0.509334 0.303271
O O4 0.851142 0.530088 0.202659
O O5 0.762308 0.297010 0.568293
O O6 0.062481 0.295638 0.582786
O O7 0.943922 0.409970 0.504606
O O8 0.792233 0.289545 0.356053
O O9 0.830889 0.157185 0.453960
O O10 0.958691 0.104659 0.750939
O O11 0.936549 0.061538 0.583041
O O12 0.677865 0.030586 0.493952
O O13 0.845845 0.270676 0.199243
O O14 0.056542 0.260189 0.316636
O O15 0.792312 0.643916 0.597257
#
# Coordination Sequence:
#
# PCOD9460390 Si02
#       8
#     8   8   8   8   4   8   8   8
#     4  12  23  42  70 102 134 186 241 293 349 433
#     4  11  23  42  70 100 134 189 231 291 347 435
#     4  11  25  42  69 101 136 179 238 284 359 431
#     4  11  24  44  70 100 142 182 239 300 359 419
#     4  10  22  42  70  96 144 180 234 278 366 416
#     4  11  24  41  68 102 134 182 233 295 346 424
#     4  11  24  43  69 100 141 182 235 291 356 428
#     4  10  24  44  65 106 141 183 228 295 362 430
#
# _framework density 25.179254
#
# number of rings (size 3 to 8) (size 9 to 14) (size 15 to 20)
#    0.000    1.067    4.000    2.400    1.867    3.733 
#    0.000    1.333    0.000    0.000    0.000    0.000 
#    0.000    0.000    0.000    0.000    0.000    0.000 
#
# Total GULP energy -334378.785621 kJ/mol
# GULP energy per Si atom -5572.979760 kJ/mol
# Density = 2.512194 g / cm^3
# Si number density = 25.179254 Si / 1000 Ang^3
#
#
#
# Elastic Constant Matrix: (Units=GPa)
#
#
# Indices 1 2 3 4 5 6 
#
# 1 53.1939 24.2670 -15.9736 0.0000 0.0000 0.0000
# 2 24.2670 78.6712 14.5703 0.0000 0.0000 0.0000
# 3 -15.9736 14.5703 21.4820 0.0000 0.0000 0.0000
# 4 0.0000 0.0000 0.0000 27.1948 0.0000 0.0000
# 5 0.0000 0.0000 0.0000 0.0000 25.4987 0.0000
# 6 0.0000 0.0000 0.0000 0.0000 0.0000 31.3584
#
#
#
# Elastic Compliance Matrix: (Units=1/GPa)
#
#
# Indices 1 2 3 4 5 6 
#
# 1 0.042726 -0.021802 0.046557 0.000000 0.000000 0.000000
# 2 -0.021802 0.025662 -0.033617 0.000000 0.000000 0.000000
# 3 0.046557 -0.033617 0.103971 0.000000 0.000000 0.000000
# 4 0.000000 0.000000 0.000000 0.036772 0.000000 0.000000
# 5 0.000000 0.000000 0.000000 0.000000 0.039218 0.000000
# 6 0.000000 0.000000 0.000000 0.000000 0.000000 0.031889
#
#
# Mechanical properties :
#
#
# Convention : Reuss Voigt Hill
#
# Bulk Modulus (GPa) = 6.46679 22.11937 14.29308
# Shear Modulus (GPa) = 14.30590 25.50928 19.90759
#
# Velocity S-wave (km/s) = 2.38620 3.18639 2.81487
# Velocity P-wave (km/s) = 3.18839 4.72665 4.03157
#
# Compressibility (1/GPa) = 0.15463616
#
# Stress axis : x y z
#
# Youngs Moduli (GPa) = 23.40502 38.96786 9.61807
#
# Poissons Ratio (x) = 0.84957 -0.44779
# Poissons Ratio (y) = 0.51027 0.32333
# Poissons Ratio (z) = -1.08968 1.30998
#
# Static dielectric constant tensor:
#      x y z
#    x 1.949520 0.000000 0.000000 
#    y 0.000000 1.958090 0.000000 
#    z 0.000000 0.000000 2.135620 
# 
# From -- ./inp_files/8979.got.cif
#   From: 2010.05.17/outbox.cif.g08.bks.cpg/sg61_5_cif.got.tgz:8979.got - 2010.06.03 15:17:17.
