data_PCOD9460747
_publ_section_title
;
Structure prediction by ZEFSAII (Michael W. Deem and Ramdas Pophale) SiO2 
 PCOD9460747
Probable space group: P B C A
;
_chemical_formula_sum "Si O2"
_cell_formula_units_Z 40
_cell_length_a 9.058803
_cell_length_b 12.719064
_cell_length_c 14.023175
_cell_angle_alpha 90.000000
_cell_angle_beta 90.000000
_cell_angle_gamma 90.000000
_cell_volume 1615.743143
_symmetry_space_group_name_H-M "P B C A"
_symmetry_group_IT_number 61
_symmetry_cell_setting 'orthorhombic'
loop_
_space_group_symop_operation_xyz
x,y,z
1/2-x,-y,1/2+z
1/2+x,1/2-y,-z
-x,1/2+y,1/2-z
-x,-y,-z
1/2+x,y,1/2-z
1/2-x,1/2+y,z
x,1/2-y,1/2+z
loop_
_atom_site_type_symbol
_atom_site_label
_atom_site_fract_x
_atom_site_fract_y
_atom_site_fract_z
Si Si1 0.431649 0.266543 0.875661
Si Si2 0.534385 0.667806 0.818548
Si Si3 0.451819 0.593407 0.367289
Si Si4 0.283715 0.828679 0.034834
Si Si5 0.838428 0.476831 0.726527
O O1 0.402941 0.190300 0.786903
O O2 0.594445 0.240864 0.912328
O O3 0.415593 0.383422 0.834329
O O4 0.314751 0.260653 0.960860
O O5 0.475223 0.781765 0.851865
O O6 0.664099 0.631891 0.888947
O O7 0.403553 0.585118 0.811136
O O8 0.375475 0.587835 0.470723
O O9 0.604425 0.540747 0.334664
O O10 0.331976 0.545685 0.293777
#
# Coordination Sequence:
#
# PCOD9460747 Si02
#       5
#     8   8   8   8   8
#     4  10  25  42  73  97 141 183 232 294 344 416
#     4  11  25  45  74 101 144 188 230 286 366 405
#     4  10  24  44  69 104 140 184 235 292 347 413
#     4  11  23  45  69 102 140 189 231 296 344 416
#     4  10  25  43  72 102 140 184 231 288 350 421
#
# _framework density 24.756412000000001
#
# number of rings (size 3 to 8) (size 9 to 14) (size 15 to 20)
#    0.000    1.600    2.000    0.000   19.600    3.200 
#    3.600    1.000    0.000    0.000    0.000    0.000 
#    0.000    0.000    0.000    0.000    0.000    0.000 
#
# Total GULP energy -223944.780522 kJ/mol
# GULP energy per Si atom -5598.619513 kJ/mol
# Density = 2.470007 g / cm^3
# Si number density = 24.756412 Si / 1000 Ang^3
#
#
#
# Elastic Constant Matrix: (Units=GPa)
#
#
# Indices 1 2 3 4 5 6 
#
# 1 109.3397 54.0900 44.0739 0.0000 0.0000 0.0000
# 2 54.0900 94.8144 33.4968 0.0000 0.0000 0.0000
# 3 44.0739 33.4968 125.3183 0.0000 0.0000 0.0000
# 4 0.0000 0.0000 0.0000 11.7256 0.0000 0.0000
# 5 0.0000 0.0000 0.0000 0.0000 28.9046 0.0000
# 6 0.0000 0.0000 0.0000 0.0000 0.0000 39.7032
#
#
#
# Elastic Compliance Matrix: (Units=1/GPa)
#
#
# Indices 1 2 3 4 5 6 
#
# 1 0.013700 -0.006751 -0.003014 0.000000 0.000000 0.000000
# 2 -0.006751 0.014973 -0.001628 0.000000 0.000000 0.000000
# 3 -0.003014 -0.001628 0.009475 0.000000 0.000000 0.000000
# 4 0.000000 0.000000 0.000000 0.085284 0.000000 0.000000
# 5 0.000000 0.000000 0.000000 0.000000 0.034597 0.000000
# 6 0.000000 0.000000 0.000000 0.000000 0.000000 0.025187
#
#
# Mechanical properties :
#
#
# Convention : Reuss Voigt Hill
#
# Bulk Modulus (GPa) = 65.09230 65.86599 65.47915
# Shear Modulus (GPa) = 23.68292 29.25413 26.46852
#
# Velocity S-wave (km/s) = 3.09631 3.44128 3.27335
# Velocity P-wave (km/s) = 6.25564 6.51562 6.38695
#
# Compressibility (1/GPa) = 0.01536280
#
# Stress axis : x y z
#
# Youngs Moduli (GPa) = 72.99050 66.78488 105.54328
#
# Poissons Ratio (x) = 0.45087 0.31809
# Poissons Ratio (y) = 0.49277 0.17182
# Poissons Ratio (z) = 0.21998 0.10872
#
# Static dielectric constant tensor:
#      x y z
#    x 1.951720 0.000000 0.000000 
#    y 0.000000 1.934660 0.000000 
#    z 0.000000 0.000000 2.026900 
# 
# From -- ./inp_files/6975.got.cif
#   From: 2010.05.17/outbox.cif.g08.bks.cpg/sg61_4_cif.got.tgz:6975.got - 2010.06.03 15:17:17.
