data_PCOD9460379
_publ_section_title
;
Structure prediction by ZEFSAII (Michael W. Deem and Ramdas Pophale) SiO2 
 PCOD9460379
Probable space group: P B C A
;
_chemical_formula_sum "Si O2"
_cell_formula_units_Z 40
_cell_length_a 20.068448
_cell_length_b 8.807416
_cell_length_c 8.832681
_cell_angle_alpha 90.000000
_cell_angle_beta 90.000000
_cell_angle_gamma 90.000000
_cell_volume 1561.186701
_symmetry_space_group_name_H-M "P B C A"
_symmetry_group_IT_number 61
_symmetry_cell_setting 'orthorhombic'
loop_
_space_group_symop_operation_xyz
x,y,z
1/2-x,-y,1/2+z
1/2+x,1/2-y,-z
-x,1/2+y,1/2-z
-x,-y,-z
1/2+x,y,1/2-z
1/2-x,1/2+y,z
x,1/2-y,1/2+z
loop_
_atom_site_type_symbol
_atom_site_label
_atom_site_fract_x
_atom_site_fract_y
_atom_site_fract_z
Si Si1 0.937991 0.411102 0.066982
Si Si2 0.369112 0.824158 0.831472
Si Si3 0.311373 0.034306 0.610081
Si Si4 0.777216 0.324761 0.705496
Si Si5 0.993840 0.353974 0.395671
O O1 0.877653 0.528486 0.060418
O O2 0.960794 0.385680 0.236702
O O3 0.000000 0.500000 0.000000
O O4 0.941496 0.255751 0.979344
O O5 0.433669 0.721384 0.858072
O O6 0.363978 0.903588 0.663744
O O7 0.295009 0.761612 0.853873
O O8 0.309983 0.092011 0.438255
O O9 0.314551 0.184298 0.717519
O O10 0.243986 0.947383 0.666653
O O11 0.000000 0.500000 0.500000
#
# Coordination Sequence:
#
# PCOD9460379 Si02
#       5
#     8   8   8   8   8
#     4  10  22  43  65  96 133 168 227 277 342 413
#     4   9  24  43  64 100 139 174 230 275 350 398
#     4  10  22  43  66  98 141 175 236 275 341 405
#     4  10  22  42  68  96 142 177 230 288 330 414
#     4  11  22  43  70  98 134 175 224 287 340 417
#
# _framework density 25.621534
#
# number of rings (size 3 to 8) (size 9 to 14) (size 15 to 20)
#    1.200    0.800    0.000    3.600    0.000    6.400 
#    3.600    0.000    0.000    0.000    0.000    0.000 
#    0.000    0.000    0.000    0.000    0.000    0.000 
#
# Total GULP energy -223456.467913 kJ/mol
# GULP energy per Si atom -5586.411698 kJ/mol
# Density = 2.556322 g / cm^3
# Si number density = 25.621534 Si / 1000 Ang^3
#
#
#
# Elastic Constant Matrix: (Units=GPa)
#
#
# Indices 1 2 3 4 5 6 
#
# 1 134.8663 43.1395 38.4776 0.0000 0.0000 0.0000
# 2 43.1395 130.9788 54.7700 0.0000 0.0000 0.0000
# 3 38.4776 54.7700 138.8209 0.0000 0.0000 0.0000
# 4 0.0000 0.0000 0.0000 39.5413 0.0000 0.0000
# 5 0.0000 0.0000 0.0000 0.0000 35.1338 0.0000
# 6 0.0000 0.0000 0.0000 0.0000 0.0000 51.7909
#
#
#
# Elastic Compliance Matrix: (Units=1/GPa)
#
#
# Indices 1 2 3 4 5 6 
#
# 1 0.008543 -0.002184 -0.001506 0.000000 0.000000 0.000000
# 2 -0.002184 0.009702 -0.003222 0.000000 0.000000 0.000000
# 3 -0.001506 -0.003222 0.008892 0.000000 0.000000 0.000000
# 4 0.000000 0.000000 0.000000 0.025290 0.000000 0.000000
# 5 0.000000 0.000000 0.000000 0.000000 0.028463 0.000000
# 6 0.000000 0.000000 0.000000 0.000000 0.000000 0.019308
#
#
# Mechanical properties :
#
#
# Convention : Reuss Voigt Hill
#
# Bulk Modulus (GPa) = 75.12029 75.27115 75.19572
# Shear Modulus (GPa) = 42.20822 43.17845 42.69334
#
# Velocity S-wave (km/s) = 4.06319 4.10962 4.08647
# Velocity P-wave (km/s) = 7.16907 7.20836 7.18874
#
# Compressibility (1/GPa) = 0.01331198
#
# Stress axis : x y z
#
# Youngs Moduli (GPa) = 117.05407 103.07627 112.45624
#
# Poissons Ratio (x) = 0.22511 0.16939
# Poissons Ratio (y) = 0.25563 0.36237
# Poissons Ratio (z) = 0.17632 0.33214
#
# Static dielectric constant tensor:
#      x y z
#    x 2.000030 0.000000 0.000000 
#    y 0.000000 2.088950 0.000000 
#    z 0.000000 0.000000 2.016030 
# 
# From -- ./inp_files/4416.got.cif
#   From: 2010.05.17/outbox.cif.g08.bks.cpg/sg61_3_cif.got.tgz:4416.got - 2010.06.03 15:17:17.
