data_PCOD9460574
_publ_section_title
;
Structure prediction by ZEFSAII (Michael W. Deem and Ramdas Pophale) SiO2 
 PCOD9460574
Probable space group: P B C A
;
_chemical_formula_sum "Si O2"
_cell_formula_units_Z 40
_cell_length_a 12.922349
_cell_length_b 22.341887
_cell_length_c 5.707792
_cell_angle_alpha 90.000000
_cell_angle_beta 90.000000
_cell_angle_gamma 90.000000
_cell_volume 1647.894694
_symmetry_space_group_name_H-M "P B C A"
_symmetry_group_IT_number 61
_symmetry_cell_setting 'orthorhombic'
loop_
_space_group_symop_operation_xyz
x,y,z
1/2-x,-y,1/2+z
1/2+x,1/2-y,-z
-x,1/2+y,1/2-z
-x,-y,-z
1/2+x,y,1/2-z
1/2-x,1/2+y,z
x,1/2-y,1/2+z
loop_
_atom_site_type_symbol
_atom_site_label
_atom_site_fract_x
_atom_site_fract_y
_atom_site_fract_z
Si Si1 0.378334 0.033049 0.727056
Si Si2 0.102244 0.219155 0.588647
Si Si3 0.410392 0.150610 0.997515
Si Si4 0.201147 0.384647 0.311542
Si Si5 0.517392 0.080195 0.350469
O O1 0.431965 0.085958 0.875302
O O2 0.259495 0.053525 0.744893
O O3 0.423354 0.043065 0.467382
O O4 0.415296 0.967639 0.799083
O O5 0.125283 0.249104 0.337975
O O6 0.165542 0.156581 0.597895
O O7 0.979982 0.202695 0.605693
O O8 0.288280 0.152781 0.958202
O O9 0.459482 0.137827 0.248649
O O10 0.102303 0.397106 0.467332
#
# Coordination Sequence:
#
# PCOD9460574 Si02
#       5
#     8   8   8   8   8
#     4   9  23  39  66 104 142 188 230 285 358 444
#     4  12  27  47  73  97 135 185 242 307 360 408
#     4  10  24  44  67 100 138 184 237 293 355 437
#     4  10  23  43  63 106 134 181 236 290 353 433
#     4  11  20  42  70 100 150 185 230 284 365 442
#
# _framework density 24.273396000000002
#
# number of rings (size 3 to 8) (size 9 to 14) (size 15 to 20)
#    1.200    0.400    2.000    1.800    0.000    9.600 
#    0.000    0.000    0.000    0.000    0.000    0.000 
#    0.000    0.000    0.000    0.000    0.000    0.000 
#
# Total GULP energy -222921.175325 kJ/mol
# GULP energy per Si atom -5573.029383 kJ/mol
# Density = 2.421815 g / cm^3
# Si number density = 24.273396 Si / 1000 Ang^3
#
#
#
# Elastic Constant Matrix: (Units=GPa)
#
#
# Indices 1 2 3 4 5 6 
#
# 1 122.2028 6.1166 28.3850 0.0000 0.0000 0.0000
# 2 6.1166 60.5452 26.1007 0.0000 0.0000 0.0000
# 3 28.3850 26.1007 60.0675 0.0000 0.0000 0.0000
# 4 0.0000 0.0000 0.0000 49.5803 0.0000 0.0000
# 5 0.0000 0.0000 0.0000 0.0000 28.4876 0.0000
# 6 0.0000 0.0000 0.0000 0.0000 0.0000 32.1688
#
#
#
# Elastic Compliance Matrix: (Units=1/GPa)
#
#
# Indices 1 2 3 4 5 6 
#
# 1 0.009259 0.001170 -0.004884 0.000000 0.000000 0.000000
# 2 0.001170 0.020471 -0.009448 0.000000 0.000000 0.000000
# 3 -0.004884 -0.009448 0.023061 0.000000 0.000000 0.000000
# 4 0.000000 0.000000 0.000000 0.020169 0.000000 0.000000
# 5 0.000000 0.000000 0.000000 0.000000 0.035103 0.000000
# 6 0.000000 0.000000 0.000000 0.000000 0.000000 0.031086
#
#
# Mechanical properties :
#
#
# Convention : Reuss Voigt Hill
#
# Bulk Modulus (GPa) = 37.78186 40.44667 39.11426
# Shear Modulus (GPa) = 28.68679 34.19490 31.44084
#
# Velocity S-wave (km/s) = 3.44149 3.75739 3.60290
# Velocity P-wave (km/s) = 5.60274 5.96013 5.78420
#
# Compressibility (1/GPa) = 0.02646773
#
# Stress axis : x y z
#
# Youngs Moduli (GPa) = 108.00389 48.84849 43.36291
#
# Poissons Ratio (x) = -0.05715 0.21177
# Poissons Ratio (y) = -0.12636 0.40970
# Poissons Ratio (z) = 0.52746 0.46153
#
# Static dielectric constant tensor:
#      x y z
#    x 1.898010 0.000000 0.000000 
#    y 0.000000 2.010370 0.000000 
#    z 0.000000 0.000000 2.143800 
# 
# From -- ./inp_files/440.got.cif
#   From: 2010.05.17/outbox.cif.g08.bks.cpg/sg61_1_cif.got.tgz:440.got - 2010.06.03 15:17:17.
