data_PCOD9460955
_publ_section_title
;
Structure prediction by ZEFSAII (Michael W. Deem and Ramdas Pophale) SiO2 
 PCOD9460955
Probable space group: P B C A
;
_chemical_formula_sum "Si O2"
_cell_formula_units_Z 48
_cell_length_a 13.624134
_cell_length_b 16.803928
_cell_length_c 9.656696
_cell_angle_alpha 90.000000
_cell_angle_beta 90.000000
_cell_angle_gamma 90.000000
_cell_volume 2210.794005
_symmetry_space_group_name_H-M "P B C A"
_symmetry_group_IT_number 61
_symmetry_cell_setting 'orthorhombic'
loop_
_space_group_symop_operation_xyz
x,y,z
1/2-x,-y,1/2+z
1/2+x,1/2-y,-z
-x,1/2+y,1/2-z
-x,-y,-z
1/2+x,y,1/2-z
1/2-x,1/2+y,z
x,1/2-y,1/2+z
loop_
_atom_site_type_symbol
_atom_site_label
_atom_site_fract_x
_atom_site_fract_y
_atom_site_fract_z
Si Si1 0.954745 0.899263 0.918919
Si Si2 0.161451 0.654509 0.843466
Si Si3 0.255361 0.098112 0.114710
Si Si4 0.170527 0.837312 0.888144
Si Si5 0.788110 0.921474 0.379243
Si Si6 0.984250 0.552313 0.731493
O O1 0.850244 0.858616 0.888745
O O2 0.056573 0.851388 0.924670
O O3 0.968232 0.965504 0.797038
O O4 0.944855 0.931544 0.075989
O O5 0.176187 0.748252 0.830680
O O6 0.248956 0.608962 0.767336
O O7 0.065299 0.617540 0.773181
O O8 0.169783 0.634397 0.005022
O O9 0.300415 0.103121 0.266006
O O10 0.239094 0.005369 0.080370
O O11 0.246411 0.857370 0.011506
O O12 0.901847 0.940933 0.350500
#
# Coordination Sequence:
#
# PCOD9460955 Si02
#       6
#     8   8   8   8   8   8
#     4  11  22  45  73 103 137 187 239 299 358 425
#     4  12  26  44  70 104 145 183 236 304 361 423
#     4  12  25  44  76 104 137 191 242 293 358 441
#     4  12  27  44  69 108 150 181 238 306 364 423
#     4  12  23  46  74 101 137 190 241 290 354 443
#     4  11  23  44  76 101 136 187 245 292 359 431
#
# _framework density 21.711656999999999
#
# number of rings (size 3 to 8) (size 9 to 14) (size 15 to 20)
#    0.000    0.333    6.667    3.000    0.000    4.667 
#    0.000    0.000    0.000    0.000    0.000    0.000 
#    0.000    0.000    0.000    0.000    0.000    0.000 
#
# Total GULP energy -267987.923038 kJ/mol
# GULP energy per Si atom -5583.081730 kJ/mol
# Density = 2.166224 g / cm^3
# Si number density = 21.711657 Si / 1000 Ang^3
#
#
#
# Elastic Constant Matrix: (Units=GPa)
#
#
# Indices 1 2 3 4 5 6 
#
# 1 97.0123 22.8875 26.6669 0.0000 0.0000 0.0000
# 2 22.8875 76.5308 0.7658 0.0000 0.0000 0.0000
# 3 26.6669 0.7658 74.4503 0.0000 0.0000 0.0000
# 4 0.0000 0.0000 0.0000 21.5291 0.0000 0.0000
# 5 0.0000 0.0000 0.0000 0.0000 43.6504 0.0000
# 6 0.0000 0.0000 0.0000 0.0000 0.0000 7.7907
#
#
#
# Elastic Compliance Matrix: (Units=1/GPa)
#
#
# Indices 1 2 3 4 5 6 
#
# 1 0.012380 -0.003658 -0.004397 0.000000 0.000000 0.000000
# 2 -0.003658 0.014149 0.001165 0.000000 0.000000 0.000000
# 3 -0.004397 0.001165 0.014995 0.000000 0.000000 0.000000
# 4 0.000000 0.000000 0.000000 0.046449 0.000000 0.000000
# 5 0.000000 0.000000 0.000000 0.000000 0.022909 0.000000
# 6 0.000000 0.000000 0.000000 0.000000 0.000000 0.128358
#
#
# Mechanical properties :
#
#
# Convention : Reuss Voigt Hill
#
# Bulk Modulus (GPa) = 36.04493 38.73710 37.39102
# Shear Modulus (GPa) = 19.06452 27.77224 23.41838
#
# Velocity S-wave (km/s) = 2.96645 3.58039 3.28778
# Velocity P-wave (km/s) = 5.32643 5.91376 5.62776
#
# Compressibility (1/GPa) = 0.02774315
#
# Stress axis : x y z
#
# Youngs Moduli (GPa) = 80.77824 70.67621 66.69077
#
# Poissons Ratio (x) = 0.25855 0.29321
# Poissons Ratio (y) = 0.29551 -0.07768
# Poissons Ratio (z) = 0.35515 -0.08232
#
# Static dielectric constant tensor:
#      x y z
#    x 1.811710 0.000000 0.000000 
#    y 0.000000 2.164140 0.000000 
#    z 0.000000 0.000000 1.759710 
# 
# From -- ./inp_files/2823.got.cif
#   From: 2010.05.17/outbox.cif.g08.bks.cpg/sg61_2_cif.got.tgz:2823.got - 2010.06.03 15:17:17.
