data_PCOD9460993
_publ_section_title
;
Structure prediction by ZEFSAII (Michael W. Deem and Ramdas Pophale) SiO2 
 PCOD9460993
Probable space group: P B C A
;
_chemical_formula_sum "Si O2"
_cell_formula_units_Z 48
_cell_length_a 17.216620
_cell_length_b 14.005763
_cell_length_c 7.913790
_cell_angle_alpha 90.000000
_cell_angle_beta 90.000000
_cell_angle_gamma 90.000000
_cell_volume 1908.267214
_symmetry_space_group_name_H-M "P B C A"
_symmetry_group_IT_number 61
_symmetry_cell_setting 'orthorhombic'
loop_
_space_group_symop_operation_xyz
x,y,z
1/2-x,-y,1/2+z
1/2+x,1/2-y,-z
-x,1/2+y,1/2-z
-x,-y,-z
1/2+x,y,1/2-z
1/2-x,1/2+y,z
x,1/2-y,1/2+z
loop_
_atom_site_type_symbol
_atom_site_label
_atom_site_fract_x
_atom_site_fract_y
_atom_site_fract_z
Si Si1 0.171943 0.772724 0.466463
Si Si2 0.299254 0.045984 0.185714
Si Si3 0.414209 0.786490 0.329045
Si Si4 0.326445 0.852011 0.012164
Si Si5 0.921876 0.354977 0.323950
Si Si6 0.866133 0.961668 0.959578
O O1 0.174471 0.851560 0.615821
O O2 0.248834 0.706446 0.458875
O O3 0.150037 0.832860 0.300779
O O4 0.101307 0.702612 0.508532
O O5 0.320738 0.963455 0.050560
O O6 0.332730 0.011619 0.366452
O O7 0.206015 0.050882 0.167867
O O8 0.348313 0.810542 0.195249
O O9 0.397404 0.681066 0.394666
O O10 0.497952 0.812830 0.258016
O O11 0.400856 0.861228 0.482824
O O12 0.924926 0.465542 0.371432
#
# Coordination Sequence:
#
# PCOD9460993 Si02
#       6
#     8   8   8   8   8   8
#     4  12  24  43  71 100 135 186 233 291 339 419
#     4  11  24  41  70 103 134 178 240 285 344 407
#     4  11  25  45  69 102 140 184 225 292 352 413
#     4  11  24  43  69  99 137 179 234 281 344 417
#     4  12  25  45  69 103 141 180 234 286 357 413
#     4  11  23  43  68 103 142 183 230 290 342 417
#
# _framework density 25.153711999999999
#
# number of rings (size 3 to 8) (size 9 to 14) (size 15 to 20)
#    0.000    0.667    3.333    4.500    2.333    1.333 
#    0.000    9.167    0.000    0.000    0.000    0.000 
#    0.000    0.000    0.000    0.000    0.000    0.000 
#
# Total GULP energy -268732.027220 kJ/mol
# GULP energy per Si atom -5598.583900 kJ/mol
# Density = 2.509646 g / cm^3
# Si number density = 25.153712 Si / 1000 Ang^3
#
#
#
# Elastic Constant Matrix: (Units=GPa)
#
#
# Indices 1 2 3 4 5 6 
#
# 1 93.2465 23.4511 8.3189 0.0000 0.0000 0.0000
# 2 23.4511 123.0942 6.0939 0.0000 0.0000 0.0000
# 3 8.3189 6.0939 73.6605 0.0000 0.0000 0.0000
# 4 0.0000 0.0000 0.0000 40.0343 0.0000 0.0000
# 5 0.0000 0.0000 0.0000 0.0000 33.1158 0.0000
# 6 0.0000 0.0000 0.0000 0.0000 0.0000 29.6929
#
#
#
# Elastic Compliance Matrix: (Units=1/GPa)
#
#
# Indices 1 2 3 4 5 6 
#
# 1 0.011353 -0.002108 -0.001108 0.000000 0.000000 0.000000
# 2 -0.002108 0.008549 -0.000469 0.000000 0.000000 0.000000
# 3 -0.001108 -0.000469 0.013740 0.000000 0.000000 0.000000
# 4 0.000000 0.000000 0.000000 0.024979 0.000000 0.000000
# 5 0.000000 0.000000 0.000000 0.000000 0.030197 0.000000
# 6 0.000000 0.000000 0.000000 0.000000 0.000000 0.033678
#
#
# Mechanical properties :
#
#
# Convention : Reuss Voigt Hill
#
# Bulk Modulus (GPa) = 38.06390 40.63655 39.35023
# Shear Modulus (GPa) = 36.06912 37.37775 36.72343
#
# Velocity S-wave (km/s) = 3.79086 3.85901 3.82509
# Velocity P-wave (km/s) = 5.85886 6.00386 5.93180
#
# Compressibility (1/GPa) = 0.02627161
#
# Stress axis : x y z
#
# Youngs Moduli (GPa) = 88.08033 116.97669 72.78175
#
# Poissons Ratio (x) = 0.24660 0.08063
# Poissons Ratio (y) = 0.18568 0.03415
# Poissons Ratio (z) = 0.09757 0.05488
#
# Static dielectric constant tensor:
#      x y z
#    x 1.959330 0.000000 0.000000 
#    y 0.000000 1.955460 0.000000 
#    z 0.000000 0.000000 2.055550 
# 
# From -- ./inp_files/3432.got.cif
#   From: 2010.05.17/outbox.cif.g08.bks.cpg/sg61_2_cif.got.tgz:3432.got - 2010.06.03 15:17:17.
