data_PCOD9460649
_publ_section_title
;
Structure prediction by ZEFSAII (Michael W. Deem and Ramdas Pophale) SiO2 
 PCOD9460649
Probable space group: P B C A
;
_chemical_formula_sum "Si O2"
_cell_formula_units_Z 32
_cell_length_a 11.413272
_cell_length_b 9.360884
_cell_length_c 12.243431
_cell_angle_alpha 90.000000
_cell_angle_beta 90.000000
_cell_angle_gamma 90.000000
_cell_volume 1308.067541
_symmetry_space_group_name_H-M "P B C A"
_symmetry_group_IT_number 61
_symmetry_cell_setting 'orthorhombic'
loop_
_space_group_symop_operation_xyz
x,y,z
1/2-x,-y,1/2+z
1/2+x,1/2-y,-z
-x,1/2+y,1/2-z
-x,-y,-z
1/2+x,y,1/2-z
1/2-x,1/2+y,z
x,1/2-y,1/2+z
loop_
_atom_site_type_symbol
_atom_site_label
_atom_site_fract_x
_atom_site_fract_y
_atom_site_fract_z
Si Si1 0.026134 0.037916 0.374804
Si Si2 0.752016 0.322673 0.553008
Si Si3 0.971625 0.236096 0.209240
Si Si4 0.379997 0.942160 0.553311
O O1 0.161599 0.081416 0.378872
O O2 0.953893 0.173006 0.329526
O O3 0.997464 0.901471 0.300511
O O4 0.000000 0.000000 0.500000
O O5 0.861133 0.284753 0.629883
O O6 0.794800 0.421144 0.451501
O O7 0.683221 0.181873 0.516210
O O8 0.076810 0.139180 0.161016
O O9 0.500000 0.000000 0.500000
#
# Coordination Sequence:
#
# PCOD9460649 Si02
#       4
#     8   8   8   8
#     4  12  27  48  76 112 160 206 269 330 401 488
#     4  11  23  48  76 113 157 208 266 333 405 474
#     4  11  27  46  76 114 157 206 267 331 402 482
#     4  10  23  45  76 109 154 201 267 330 392 485
#
# _framework density 24.463567000000001
#
# number of rings (size 3 to 8) (size 9 to 14) (size 15 to 20)
#    0.000    1.000    5.000    0.000    7.000    2.000 
#    4.500    0.000    0.000    0.000    0.000    0.000 
#    0.000    0.000    0.000    0.000    0.000    0.000 
#
# Total GULP energy -179079.782593 kJ/mol
# GULP energy per Si atom -5596.243206 kJ/mol
# Density = 2.440789 g / cm^3
# Si number density = 24.463567 Si / 1000 Ang^3
#
#
#
# Elastic Constant Matrix: (Units=GPa)
#
#
# Indices 1 2 3 4 5 6 
#
# 1 90.6415 46.7330 27.5072 0.0000 0.0000 0.0000
# 2 46.7330 183.6238 58.5736 0.0000 0.0000 0.0000
# 3 27.5072 58.5736 87.8307 0.0000 0.0000 0.0000
# 4 0.0000 0.0000 0.0000 47.6547 0.0000 0.0000
# 5 0.0000 0.0000 0.0000 0.0000 24.7220 0.0000
# 6 0.0000 0.0000 0.0000 0.0000 0.0000 52.5406
#
#
#
# Elastic Compliance Matrix: (Units=1/GPa)
#
#
# Indices 1 2 3 4 5 6 
#
# 1 0.013080 -0.002569 -0.002383 0.000000 0.000000 0.000000
# 2 -0.002569 0.007422 -0.004145 0.000000 0.000000 0.000000
# 3 -0.002383 -0.004145 0.014896 0.000000 0.000000 0.000000
# 4 0.000000 0.000000 0.000000 0.020984 0.000000 0.000000
# 5 0.000000 0.000000 0.000000 0.000000 0.040450 0.000000
# 6 0.000000 0.000000 0.000000 0.000000 0.000000 0.019033
#
#
# Mechanical properties :
#
#
# Convention : Reuss Voigt Hill
#
# Bulk Modulus (GPa) = 58.12651 69.74707 63.93679
# Shear Modulus (GPa) = 35.76676 40.26894 38.01785
#
# Velocity S-wave (km/s) = 3.82781 4.06159 3.94643
# Velocity P-wave (km/s) = 6.58394 7.11111 6.85259
#
# Compressibility (1/GPa) = 0.01720385
#
# Stress axis : x y z
#
# Youngs Moduli (GPa) = 76.45178 134.73644 67.13043
#
# Poissons Ratio (x) = 0.34609 0.16000
# Poissons Ratio (y) = 0.19638 0.27827
# Poissons Ratio (z) = 0.18222 0.55850
#
# Static dielectric constant tensor:
#      x y z
#    x 1.939060 0.000000 0.000000 
#    y 0.000000 1.992130 0.000000 
#    z 0.000000 0.000000 2.028530 
# 
# From -- ./inp_files/7321.got.cif
#   From: 2010.05.17/outbox.cif.g08.bks.cpg/sg61_4_cif.got.tgz:7321.got - 2010.06.03 15:17:17.
