data_PCOD9460678
_publ_section_title
;
Structure prediction by ZEFSAII (Michael W. Deem and Ramdas Pophale) SiO2 
 PCOD9460678
Probable space group: P B C A
;
_chemical_formula_sum "Si O2"
_cell_formula_units_Z 48
_cell_length_a 26.145752
_cell_length_b 6.616059
_cell_length_c 8.765242
_cell_angle_alpha 90.000000
_cell_angle_beta 90.000000
_cell_angle_gamma 90.000000
_cell_volume 1516.227670
_symmetry_space_group_name_H-M "P B C A"
_symmetry_group_IT_number 61
_symmetry_cell_setting 'orthorhombic'
loop_
_space_group_symop_operation_xyz
x,y,z
1/2-x,-y,1/2+z
1/2+x,1/2-y,-z
-x,1/2+y,1/2-z
-x,-y,-z
1/2+x,y,1/2-z
1/2-x,1/2+y,z
x,1/2-y,1/2+z
loop_
_atom_site_type_symbol
_atom_site_label
_atom_site_fract_x
_atom_site_fract_y
_atom_site_fract_z
Si Si1 0.082446 0.718814 0.830478
Si Si2 0.921385 0.633493 0.778457
Si Si3 0.172781 0.654045 0.019383
Si Si4 0.726233 0.966238 0.687860
Si Si5 0.013128 0.723813 0.090018
Si Si6 0.828354 0.587725 0.383842
O O1 0.122603 0.589653 0.927043
O O2 0.038422 0.499385 0.117308
O O3 0.031775 0.786524 0.925217
O O4 0.052372 0.635454 0.687142
O O5 0.893186 0.439132 0.702540
O O6 0.878121 0.775528 0.851814
O O7 0.956869 0.742260 0.652928
O O8 0.200103 0.510187 0.141719
O O9 0.211556 0.749183 0.894946
O O10 0.155157 0.850959 0.114200
O O11 0.783117 0.909674 0.756601
O O12 0.698538 0.098482 0.551736
#
# Coordination Sequence:
#
# PCOD9460678 Si02
#       6
#     8   8   8   8   8   8
#     4  10  23  47  81 119 180 230 300 353 446 530
#     4  10  25  47  85 123 176 233 304 360 446 542
#     4  10  24  46  82 116 165 236 283 370 437 538
#     4  10  25  46  85 118 182 223 302 363 457 530
#     4  10  24  46  83 122 176 234 293 369 437 532
#     4  10  26  49  84 127 175 237 292 377 444 548
#
# _framework density 31.657511
#
# number of rings (size 3 to 8) (size 9 to 14) (size 15 to 20)
#    2.000    0.000    0.000    1.500    4.667    3.333 
#    0.000    0.000    3.667    0.000    0.000    0.000 
#    0.000    0.000    0.000    0.000    0.000    0.000 
#
# Total GULP energy -267935.391358 kJ/mol
# GULP energy per Si atom -5581.987320 kJ/mol
# Density = 3.158546 g / cm^3
# Si number density = 31.657511 Si / 1000 Ang^3
#
#
#
# Elastic Constant Matrix: (Units=GPa)
#
#
# Indices 1 2 3 4 5 6 
#
# 1 226.8114 65.0760 65.9302 0.0000 0.0000 0.0000
# 2 65.0760 119.0705 52.8624 0.0000 0.0000 0.0000
# 3 65.9302 52.8624 151.7954 0.0000 0.0000 0.0000
# 4 0.0000 0.0000 0.0000 67.7947 0.0000 0.0000
# 5 0.0000 0.0000 0.0000 0.0000 70.6367 0.0000
# 6 0.0000 0.0000 0.0000 0.0000 0.0000 -27.4249
#
#
#
# Elastic Compliance Matrix: (Units=1/GPa)
#
#
# Indices 1 2 3 4 5 6 
#
# 1 0.005538 -0.002317 -0.001599 0.000000 0.000000 0.000000
# 2 -0.002317 0.010904 -0.002791 0.000000 0.000000 0.000000
# 3 -0.001599 -0.002791 0.008254 0.000000 0.000000 0.000000
# 4 0.000000 0.000000 0.000000 0.014750 0.000000 0.000000
# 5 0.000000 0.000000 0.000000 0.000000 0.014157 0.000000
# 6 0.000000 0.000000 0.000000 0.000000 0.000000 -0.036463
#
#
# Mechanical properties :
#
#
# Convention : Reuss Voigt Hill
#
# Bulk Modulus (GPa) = 88.62801 96.15717 92.39259
# Shear Modulus (GPa) = 145.70996 43.12187 94.41592
#
# Velocity S-wave (km/s) = 6.79168 3.69472 5.46708
# Velocity P-wave (km/s) = 9.46357 6.97434 8.31266
#
# Compressibility (1/GPa) = 0.01128311
#
# Stress axis : x y z
#
# Youngs Moduli (GPa) = 180.55451 91.71083 121.15322
#
# Poissons Ratio (x) = 0.21252 0.19367
# Poissons Ratio (y) = 0.41839 0.33811
# Poissons Ratio (z) = 0.28863 0.25594
#
# Static dielectric constant tensor:
#      x y z
#    x 2.748630 0.000000 0.000000 
#    y 0.000000 2.786620 0.000000 
#    z 0.000000 0.000000 2.658960 
# 
# From -- ./inp_files/4210.got.cif
#   From: 2010.05.17/outbox.cif.g08.bks.cpg/sg61_3_cif.got.tgz:4210.got - 2010.06.03 15:17:17.
