data_PCOD9460711
_publ_section_title
;
Structure prediction by ZEFSAII (Michael W. Deem and Ramdas Pophale) SiO2 
 PCOD9460711
Probable space group: P B C A
;
_chemical_formula_sum "Si O2"
_cell_formula_units_Z 48
_cell_length_a 7.641159
_cell_length_b 12.727104
_cell_length_c 19.127301
_cell_angle_alpha 90.000000
_cell_angle_beta 90.000000
_cell_angle_gamma 90.000000
_cell_volume 1860.126680
_symmetry_space_group_name_H-M "P B C A"
_symmetry_group_IT_number 61
_symmetry_cell_setting 'orthorhombic'
loop_
_space_group_symop_operation_xyz
x,y,z
1/2-x,-y,1/2+z
1/2+x,1/2-y,-z
-x,1/2+y,1/2-z
-x,-y,-z
1/2+x,y,1/2-z
1/2-x,1/2+y,z
x,1/2-y,1/2+z
loop_
_atom_site_type_symbol
_atom_site_label
_atom_site_fract_x
_atom_site_fract_y
_atom_site_fract_z
Si Si1 0.229041 0.579743 0.973708
Si Si2 0.301358 0.181965 0.104618
Si Si3 0.774834 0.446324 0.179816
Si Si4 0.125532 0.852070 0.006694
Si Si5 0.062047 0.653541 0.353643
Si Si6 0.528814 0.692466 0.773457
O O1 0.145325 0.567990 0.897361
O O2 0.296125 0.466049 0.996428
O O3 0.113272 0.624245 0.037655
O O4 0.419659 0.640506 0.971129
O O5 0.392530 0.220568 0.174485
O O6 0.131364 0.114175 0.123993
O O7 0.266610 0.292702 0.065943
O O8 0.682984 0.560655 0.176654
O O9 0.889069 0.419421 0.247808
O O10 0.641098 0.349317 0.188397
O O11 0.136048 0.805446 0.927917
O O12 0.016480 0.743588 0.298484
#
# Coordination Sequence:
#
# PCOD9460711 Si02
#       6
#     8   8   8   8   8   8
#     4   9  19  37  60  87 118 166 207 262 318 375
#     4  11  21  36  66  93 122 163 215 263 316 384
#     4  11  24  42  66  90 134 171 217 264 329 384
#     4   9  18  37  63  84 118 161 213 255 318 374
#     4  10  24  42  64  95 128 171 213 267 320 388
#     4  12  24  40  62  98 127 173 212 267 320 390
#
# _framework density 25.804694000000001
#
# number of rings (size 3 to 8) (size 9 to 14) (size 15 to 20)
#    0.000    1.667    3.333    2.000    2.333    0.000 
#    0.000    0.000    0.000    6.000    0.000    0.000 
#    0.000    0.000    0.000    0.000    0.000    0.000 
#
# Total GULP energy -267762.963899 kJ/mol
# GULP energy per Si atom -5578.395081 kJ/mol
# Density = 2.574596 g / cm^3
# Si number density = 25.804694 Si / 1000 Ang^3
#
#
#
# Elastic Constant Matrix: (Units=GPa)
#
#
# Indices 1 2 3 4 5 6 
#
# 1 41.3640 0.9154 12.3585 0.0000 0.0000 0.0000
# 2 0.9154 41.3333 9.5801 0.0000 0.0000 0.0000
# 3 12.3585 9.5801 149.0920 0.0000 0.0000 0.0000
# 4 0.0000 0.0000 0.0000 57.4155 0.0000 0.0000
# 5 0.0000 0.0000 0.0000 0.0000 10.0911 0.0000
# 6 0.0000 0.0000 0.0000 0.0000 0.0000 30.7922
#
#
#
# Elastic Compliance Matrix: (Units=1/GPa)
#
#
# Indices 1 2 3 4 5 6 
#
# 1 0.024790 -0.000074 -0.002050 0.000000 0.000000 0.000000
# 2 -0.000074 0.024560 -0.001572 0.000000 0.000000 0.000000
# 3 -0.002050 -0.001572 0.006978 0.000000 0.000000 0.000000
# 4 0.000000 0.000000 0.000000 0.017417 0.000000 0.000000
# 5 0.000000 0.000000 0.000000 0.000000 0.099097 0.000000
# 6 0.000000 0.000000 0.000000 0.000000 0.000000 0.032476
#
#
# Mechanical properties :
#
#
# Convention : Reuss Voigt Hill
#
# Bulk Modulus (GPa) = 20.43497 30.83302 25.63400
# Shear Modulus (GPa) = 21.83205 33.58877 27.71041
#
# Velocity S-wave (km/s) = 2.91185 3.61176 3.28052
# Velocity P-wave (km/s) = 4.38651 5.41919 4.92996
#
# Compressibility (1/GPa) = 0.04893571
#
# Stress axis : x y z
#
# Youngs Moduli (GPa) = 40.33918 40.71731 143.30305
#
# Poissons Ratio (x) = 0.00301 0.29379
# Poissons Ratio (y) = 0.00298 0.22527
# Poissons Ratio (z) = 0.08270 0.06401
#
# Static dielectric constant tensor:
#      x y z
#    x 2.131530 0.000000 0.000000 
#    y 0.000000 2.052900 0.000000 
#    z 0.000000 0.000000 2.277510 
# 
# From -- ./inp_files/10069.got.cif
#   From: 2010.05.17/outbox.cif.g08.bks.cpg/sg61_6_cif.got.tgz:10069.got - 2010.06.03 15:17:17.
