data_PCOD9460970
_publ_section_title
;
Structure prediction by ZEFSAII (Michael W. Deem and Ramdas Pophale) SiO2 
 PCOD9460970
Probable space group: P B C A
;
_chemical_formula_sum "Si O2"
_cell_formula_units_Z 64
_cell_length_a 8.335995
_cell_length_b 17.932736
_cell_length_c 18.742889
_cell_angle_alpha 90.000000
_cell_angle_beta 90.000000
_cell_angle_gamma 90.000000
_cell_volume 2801.821952
_symmetry_space_group_name_H-M "P B C A"
_symmetry_group_IT_number 61
_symmetry_cell_setting 'orthorhombic'
loop_
_space_group_symop_operation_xyz
x,y,z
1/2-x,-y,1/2+z
1/2+x,1/2-y,-z
-x,1/2+y,1/2-z
-x,-y,-z
1/2+x,y,1/2-z
1/2-x,1/2+y,z
x,1/2-y,1/2+z
loop_
_atom_site_type_symbol
_atom_site_label
_atom_site_fract_x
_atom_site_fract_y
_atom_site_fract_z
Si Si1 0.751717 0.859466 0.945890
Si Si2 0.076993 0.469115 0.644496
Si Si3 0.110154 0.215315 0.923071
Si Si4 0.811060 0.108484 0.944498
Si Si5 0.184381 0.740633 0.789530
Si Si6 0.245453 0.582156 0.284304
Si Si7 0.907778 0.894714 0.571897
Si Si8 0.831088 0.781597 0.351043
O O1 0.899693 0.909486 0.919334
O O2 0.592930 0.909916 0.944881
O O3 0.761075 0.791487 0.889768
O O4 0.766136 0.821544 0.022210
O O5 0.114149 0.546018 0.605947
O O6 0.200314 0.449499 0.708470
O O7 0.907133 0.459474 0.682659
O O8 0.182759 0.208917 0.844063
O O9 0.100299 0.304192 0.933114
O O10 0.946947 0.173177 0.945213
O O11 0.664916 0.149693 0.904586
O O12 0.733052 0.079795 0.018188
O O13 0.210825 0.829236 0.777286
O O14 0.211946 0.701570 0.714155
O O15 0.007354 0.733272 0.820897
O O16 0.376452 0.579192 0.347465
#
# Coordination Sequence:
#
# PCOD9460970 Si02
#       8
#     8   8   8   8   8   8   8   8
#     4  12  23  41  72 102 136 183 231 287 347 420
#     4  12  27  45  68 101 143 188 230 286 361 433
#     4  11  23  41  70 103 137 177 232 294 347 401
#     4  12  27  45  68 105 146 183 230 296 360 421
#     4  11  23  40  70 103 131 177 240 293 341 412
#     4  11  23  43  70  99 137 184 231 281 349 422
#     4  11  23  42  73 102 134 180 237 290 338 412
#     4  12  23  41  69 103 135 175 236 295 343 406
#
# _framework density 22.842279999999999
#
# number of rings (size 3 to 8) (size 9 to 14) (size 15 to 20)
#    0.000    0.500    5.000    3.000    3.500    4.500 
#    0.000    2.500    0.000    0.000    0.000    0.000 
#    0.000    0.000    0.000    0.000    0.000    0.000 
#
# Total GULP energy -357900.935077 kJ/mol
# GULP energy per Si atom -5592.202111 kJ/mol
# Density = 2.279029 g / cm^3
# Si number density = 22.842280 Si / 1000 Ang^3
#
#
#
# Elastic Constant Matrix: (Units=GPa)
#
#
# Indices 1 2 3 4 5 6 
#
# 1 68.2421 -5.9952 -12.0137 0.0000 0.0000 0.0000
# 2 -5.9952 30.6667 15.8612 0.0000 0.0000 0.0000
# 3 -12.0137 15.8612 57.7666 0.0000 0.0000 0.0000
# 4 0.0000 0.0000 0.0000 27.3205 0.0000 0.0000
# 5 0.0000 0.0000 0.0000 0.0000 33.1187 0.0000
# 6 0.0000 0.0000 0.0000 0.0000 0.0000 15.2752
#
#
#
# Elastic Compliance Matrix: (Units=1/GPa)
#
#
# Indices 1 2 3 4 5 6 
#
# 1 0.015275 0.001565 0.002747 0.000000 0.000000 0.000000
# 2 0.001565 0.038166 -0.010154 0.000000 0.000000 0.000000
# 3 0.002747 -0.010154 0.020670 0.000000 0.000000 0.000000
# 4 0.000000 0.000000 0.000000 0.036603 0.000000 0.000000
# 5 0.000000 0.000000 0.000000 0.000000 0.030194 0.000000
# 6 0.000000 0.000000 0.000000 0.000000 0.000000 0.065466
#
#
# Mechanical properties :
#
#
# Convention : Reuss Voigt Hill
#
# Bulk Modulus (GPa) = 16.01842 16.93115 16.47478
# Shear Modulus (GPa) = 20.93216 25.73109 23.33163
#
# Velocity S-wave (km/s) = 3.03046 3.35993 3.19944
# Velocity P-wave (km/s) = 4.39007 4.74136 4.56909
#
# Compressibility (1/GPa) = 0.06242815
#
# Stress axis : x y z
#
# Youngs Moduli (GPa) = 65.46732 26.20105 48.37856
#
# Poissons Ratio (x) = -0.04102 -0.13289
# Poissons Ratio (y) = -0.10248 0.49123
# Poissons Ratio (z) = -0.17983 0.26604
#
# Static dielectric constant tensor:
#      x y z
#    x 1.904370 0.000000 0.000000 
#    y 0.000000 1.838600 0.000000 
#    z 0.000000 0.000000 1.865540 
# 
# From -- ./inp_files/9038.got.cif
#   From: 2010.05.17/outbox.cif.g08.bks.cpg/sg61_5_cif.got.tgz:9038.got - 2010.06.03 15:17:17.
