data_PCOD9460144
_publ_section_title
;
Structure prediction by ZEFSAII (Michael W. Deem and Ramdas Pophale) SiO2 
 PCOD9460144
Probable space group: P B C A
;
_chemical_formula_sum "Si O2"
_cell_formula_units_Z 48
_cell_length_a 14.737810
_cell_length_b 7.845451
_cell_length_c 17.697934
_cell_angle_alpha 90.000000
_cell_angle_beta 90.000000
_cell_angle_gamma 90.000000
_cell_volume 2046.319481
_symmetry_space_group_name_H-M "P B C A"
_symmetry_group_IT_number 61
_symmetry_cell_setting 'orthorhombic'
loop_
_space_group_symop_operation_xyz
x,y,z
1/2-x,-y,1/2+z
1/2+x,1/2-y,-z
-x,1/2+y,1/2-z
-x,-y,-z
1/2+x,y,1/2-z
1/2-x,1/2+y,z
x,1/2-y,1/2+z
loop_
_atom_site_type_symbol
_atom_site_label
_atom_site_fract_x
_atom_site_fract_y
_atom_site_fract_z
Si Si1 0.932908 0.419277 0.106330
Si Si2 0.791630 0.775543 0.857864
Si Si3 0.300405 0.529437 0.523230
Si Si4 0.629162 0.573810 0.775223
Si Si5 0.501673 0.795334 0.396376
Si Si6 0.108774 0.919446 0.958669
O O1 0.881987 0.425992 0.186213
O O2 0.995437 0.589993 0.103008
O O3 0.946472 0.216359 0.092799
O O4 0.869531 0.453995 0.034685
O O5 0.844819 0.663176 0.919034
O O6 0.716817 0.676306 0.807757
O O7 0.738521 0.897211 0.915946
O O8 0.855471 0.882594 0.804177
O O9 0.216282 0.598230 0.472816
O O10 0.540580 0.651318 0.815367
O O11 0.569516 0.881690 0.457568
O O12 0.410251 0.893768 0.422547
#
# Coordination Sequence:
#
# PCOD9460144 Si02
#       6
#     8   8   8   8   8   8
#     4  12  27  42  72 103 140 182 236 293 348 412
#     4  10  21  43  70  93 139 181 225 286 344 421
#     4  11  20  43  69 103 127 186 239 289 332 421
#     4  11  26  45  64 107 140 183 230 287 364 411
#     4  11  25  47  67 104 138 187 224 288 357 420
#     4  11  24  44  74  98 138 179 242 285 345 424
#
# _framework density 23.456748999999999
#
# number of rings (size 3 to 8) (size 9 to 14) (size 15 to 20)
#    0.000    1.000    5.000    1.500    7.000    0.000 
#    6.000    0.000    0.000    0.000    0.000    0.000 
#    0.000    0.000    0.000    0.000    0.000    0.000 
#
# Total GULP energy -267914.244244 kJ/mol
# GULP energy per Si atom -5581.546755 kJ/mol
# Density = 2.340336 g / cm^3
# Si number density = 23.456749 Si / 1000 Ang^3
#
#
#
# Elastic Constant Matrix: (Units=GPa)
#
#
# Indices 1 2 3 4 5 6 
#
# 1 35.3395 12.4060 9.1216 0.0000 0.0000 0.0000
# 2 12.4060 99.1849 30.7494 0.0000 0.0000 0.0000
# 3 9.1216 30.7494 150.3366 0.0000 0.0000 0.0000
# 4 0.0000 0.0000 0.0000 32.0273 0.0000 0.0000
# 5 0.0000 0.0000 0.0000 0.0000 68.6315 0.0000
# 6 0.0000 0.0000 0.0000 0.0000 0.0000 16.8698
#
#
#
# Elastic Compliance Matrix: (Units=1/GPa)
#
#
# Indices 1 2 3 4 5 6 
#
# 1 0.029771 -0.003378 -0.001115 0.000000 0.000000 0.000000
# 2 -0.003378 0.011148 -0.002075 0.000000 0.000000 0.000000
# 3 -0.001115 -0.002075 0.007144 0.000000 0.000000 0.000000
# 4 0.000000 0.000000 0.000000 0.031223 0.000000 0.000000
# 5 0.000000 0.000000 0.000000 0.000000 0.014571 0.000000
# 6 0.000000 0.000000 0.000000 0.000000 0.000000 0.059278
#
#
# Mechanical properties :
#
#
# Convention : Reuss Voigt Hill
#
# Bulk Modulus (GPa) = 28.63235 43.26832 35.95034
# Shear Modulus (GPa) = 28.10361 39.01132 33.55746
#
# Velocity S-wave (km/s) = 3.46512 4.08256 3.78644
# Velocity P-wave (km/s) = 5.31435 6.38037 5.87160
#
# Compressibility (1/GPa) = 0.03492553
#
# Stress axis : x y z
#
# Youngs Moduli (GPa) = 33.59007 89.70180 139.97994
#
# Poissons Ratio (x) = 0.30300 0.15614
# Poissons Ratio (y) = 0.11346 0.29049
# Poissons Ratio (z) = 0.03747 0.18615
#
# Static dielectric constant tensor:
#      x y z
#    x 1.959450 0.000000 0.000000 
#    y 0.000000 2.045270 0.000000 
#    z 0.000000 0.000000 1.783850 
# 
# From -- ./inp_files/9440.got.cif
#   From: 2010.05.17/outbox.cif.g08.bks.cpg/sg61_5_cif.got.tgz:9440.got - 2010.06.03 15:17:17.
