data_PCOD9460740
_publ_section_title
;
Structure prediction by ZEFSAII (Michael W. Deem and Ramdas Pophale) SiO2 
 PCOD9460740
Probable space group: P B C A
;
_chemical_formula_sum "Si O2"
_cell_formula_units_Z 64
_cell_length_a 9.252941
_cell_length_b 24.236301
_cell_length_c 14.574363
_cell_angle_alpha 90.000000
_cell_angle_beta 90.000000
_cell_angle_gamma 90.000000
_cell_volume 3268.403845
_symmetry_space_group_name_H-M "P B C A"
_symmetry_group_IT_number 61
_symmetry_cell_setting 'orthorhombic'
loop_
_space_group_symop_operation_xyz
x,y,z
1/2-x,-y,1/2+z
1/2+x,1/2-y,-z
-x,1/2+y,1/2-z
-x,-y,-z
1/2+x,y,1/2-z
1/2-x,1/2+y,z
x,1/2-y,1/2+z
loop_
_atom_site_type_symbol
_atom_site_label
_atom_site_fract_x
_atom_site_fract_y
_atom_site_fract_z
Si Si1 0.429505 0.971897 0.644087
Si Si2 0.954566 0.295573 0.410199
Si Si3 0.363299 0.901327 0.938842
Si Si4 0.123588 0.213516 0.535716
Si Si5 0.250444 0.161994 0.264304
Si Si6 0.937832 0.079658 0.970346
Si Si7 0.994567 0.258314 0.711841
Si Si8 0.392554 0.062826 0.175385
O O1 0.469660 0.928938 0.563024
O O2 0.258706 0.968467 0.663504
O O3 0.520705 0.957781 0.734871
O O4 0.469412 0.031035 0.601217
O O5 0.793276 0.281084 0.444113
O O6 0.966136 0.360963 0.426014
O O7 0.067851 0.262497 0.471769
O O8 0.974243 0.274202 0.306729
O O9 0.300445 0.881033 0.840795
O O10 0.499559 0.938599 0.911357
O O11 0.407973 0.844957 0.988908
O O12 0.229655 0.925442 0.996443
O O13 0.041049 0.218172 0.631567
O O14 0.349143 0.208583 0.310233
O O15 0.116863 0.194435 0.221335
O O16 0.344887 0.126724 0.192848
#
# Coordination Sequence:
#
# PCOD9460740 Si02
#       8
#     8   8   8   8   8   8   8   8
#     4  11  23  43  66  91 120 159 213 268 317 366
#     4  11  24  41  61  93 125 172 205 250 312 380
#     4  11  22  41  64  96 124 160 209 263 311 376
#     4  11  24  39  63  91 134 165 206 253 310 383
#     4  12  20  37  61  95 126 159 211 254 304 369
#     4  10  24  44  63  87 127 163 206 265 320 365
#     4  12  23  38  59  93 133 170 204 250 313 382
#     4  12  22  39  70  94 118 162 215 264 314 366
#
# _framework density 19.581423999999998
#
# number of rings (size 3 to 8) (size 9 to 14) (size 15 to 20)
#    0.000    0.750    6.250    1.500    1.750    0.500 
#    4.500    0.000    0.000    0.000    0.000    0.000 
#    0.000    0.000    0.000    0.000    0.000    0.000 
#
# Total GULP energy -357751.953960 kJ/mol
# GULP energy per Si atom -5589.874281 kJ/mol
# Density = 1.953686 g / cm^3
# Si number density = 19.581424 Si / 1000 Ang^3
#
#
#
# Elastic Constant Matrix: (Units=GPa)
#
#
# Indices 1 2 3 4 5 6 
#
# 1 70.9450 19.1715 13.1948 0.0000 0.0000 0.0000
# 2 19.1715 45.0322 22.7107 0.0000 0.0000 0.0000
# 3 13.1948 22.7107 46.5963 0.0000 0.0000 0.0000
# 4 0.0000 0.0000 0.0000 23.2951 0.0000 0.0000
# 5 0.0000 0.0000 0.0000 0.0000 24.9184 0.0000
# 6 0.0000 0.0000 0.0000 0.0000 0.0000 14.4789
#
#
#
# Elastic Compliance Matrix: (Units=1/GPa)
#
#
# Indices 1 2 3 4 5 6 
#
# 1 0.016018 -0.006009 -0.001607 0.000000 0.000000 0.000000
# 2 -0.006009 0.031698 -0.013748 0.000000 0.000000 0.000000
# 3 -0.001607 -0.013748 0.028617 0.000000 0.000000 0.000000
# 4 0.000000 0.000000 0.000000 0.042928 0.000000 0.000000
# 5 0.000000 0.000000 0.000000 0.000000 0.040131 0.000000
# 6 0.000000 0.000000 0.000000 0.000000 0.000000 0.069066
#
#
# Mechanical properties :
#
#
# Convention : Reuss Voigt Hill
#
# Bulk Modulus (GPa) = 29.75756 30.30306 30.03031
# Shear Modulus (GPa) = 17.70625 19.70490 18.70558
#
# Velocity S-wave (km/s) = 3.01032 3.17567 3.09410
# Velocity P-wave (km/s) = 5.22614 5.38104 5.30415
#
# Compressibility (1/GPa) = 0.03360490
#
# Stress axis : x y z
#
# Youngs Moduli (GPa) = 62.42940 31.54799 34.94468
#
# Poissons Ratio (x) = 0.18956 0.05617
# Poissons Ratio (y) = 0.37512 0.48041
# Poissons Ratio (z) = 0.10034 0.43371
#
# Static dielectric constant tensor:
#      x y z
#    x 1.715250 0.000000 0.000000 
#    y 0.000000 1.659910 0.000000 
#    z 0.000000 0.000000 1.682630 
# 
# From -- ./inp_files/7248.got.cif
#   From: 2010.05.17/outbox.cif.g08.bks.cpg/sg61_4_cif.got.tgz:7248.got - 2010.06.03 15:17:17.
