data_PCOD9460638
_publ_section_title
;
Structure prediction by ZEFSAII (Michael W. Deem and Ramdas Pophale) SiO2 
 PCOD9460638
Probable space group: P B C A
;
_chemical_formula_sum "Si O2"
_cell_formula_units_Z 48
_cell_length_a 12.007350
_cell_length_b 11.288500
_cell_length_c 16.067696
_cell_angle_alpha 90.000000
_cell_angle_beta 90.000000
_cell_angle_gamma 90.000000
_cell_volume 2177.895380
_symmetry_space_group_name_H-M "P B C A"
_symmetry_group_IT_number 61
_symmetry_cell_setting 'orthorhombic'
loop_
_space_group_symop_operation_xyz
x,y,z
1/2-x,-y,1/2+z
1/2+x,1/2-y,-z
-x,1/2+y,1/2-z
-x,-y,-z
1/2+x,y,1/2-z
1/2-x,1/2+y,z
x,1/2-y,1/2+z
loop_
_atom_site_type_symbol
_atom_site_label
_atom_site_fract_x
_atom_site_fract_y
_atom_site_fract_z
Si Si1 0.522417 0.465662 0.874316
Si Si2 0.463604 0.079560 0.809902
Si Si3 0.154199 0.719780 0.400758
Si Si4 0.664017 0.244739 0.834892
Si Si5 0.401387 0.292282 0.080355
Si Si6 0.614732 0.168226 0.149016
O O1 0.532550 0.527427 0.783322
O O2 0.400269 0.408161 0.880888
O O3 0.602915 0.352040 0.883256
O O4 0.562157 0.571435 0.932720
O O5 0.384457 0.191493 0.828119
O O6 0.585269 0.128417 0.835128
O O7 0.412716 0.969659 0.859671
O O8 0.107151 0.763562 0.488897
O O9 0.285846 0.708200 0.410011
O O10 0.784776 0.218696 0.871535
O O11 0.659483 0.294700 0.740397
O O12 0.499569 0.233313 0.132388
#
# Coordination Sequence:
#
# PCOD9460638 Si02
#       6
#     8   8   8   8   8   8
#     4  10  23  45  71 100 134 188 240 290 344 421
#     4  10  23  46  72  98 137 184 242 287 344 421
#     4  11  27  44  69 104 146 182 231 297 361 412
#     4  10  24  44  71 100 135 183 243 286 348 415
#     4  12  26  44  72 104 145 184 233 293 359 420
#     4  11  26  43  72 101 136 185 234 288 352 417
#
# _framework density 22.039625999999998
#
# number of rings (size 3 to 8) (size 9 to 14) (size 15 to 20)
#    0.000    1.333    1.667    1.500   14.000    3.333 
#    0.000    0.000    0.000    0.000    0.000    0.000 
#    0.000    0.000    0.000    0.000    0.000    0.000 
#
# Total GULP energy -268180.654426 kJ/mol
# GULP energy per Si atom -5587.096967 kJ/mol
# Density = 2.198946 g / cm^3
# Si number density = 22.039626 Si / 1000 Ang^3
#
#
#
# Elastic Constant Matrix: (Units=GPa)
#
#
# Indices 1 2 3 4 5 6 
#
# 1 152.2962 46.3727 16.1927 0.0000 0.0000 0.0000
# 2 46.3727 85.2488 17.1962 0.0000 0.0000 0.0000
# 3 16.1927 17.1962 54.6886 0.0000 0.0000 0.0000
# 4 0.0000 0.0000 0.0000 17.2452 0.0000 0.0000
# 5 0.0000 0.0000 0.0000 0.0000 15.8561 0.0000
# 6 0.0000 0.0000 0.0000 0.0000 0.0000 18.6207
#
#
#
# Elastic Compliance Matrix: (Units=1/GPa)
#
#
# Indices 1 2 3 4 5 6 
#
# 1 0.007927 -0.004098 -0.001058 0.000000 0.000000 0.000000
# 2 -0.004098 0.014644 -0.003391 0.000000 0.000000 0.000000
# 3 -0.001058 -0.003391 0.019665 0.000000 0.000000 0.000000
# 4 0.000000 0.000000 0.000000 0.057987 0.000000 0.000000
# 5 0.000000 0.000000 0.000000 0.000000 0.063067 0.000000
# 6 0.000000 0.000000 0.000000 0.000000 0.000000 0.053704
#
#
# Mechanical properties :
#
#
# Convention : Reuss Voigt Hill
#
# Bulk Modulus (GPa) = 39.77743 50.19520 44.98631
# Shear Modulus (GPa) = 20.62123 24.50921 22.56522
#
# Velocity S-wave (km/s) = 3.06215 3.33836 3.20323
# Velocity P-wave (km/s) = 5.53079 6.13873 5.84267
#
# Compressibility (1/GPa) = 0.02513988
#
# Stress axis : x y z
#
# Youngs Moduli (GPa) = 126.15780 68.28836 50.85185
#
# Poissons Ratio (x) = 0.27987 0.05382
# Poissons Ratio (y) = 0.51704 0.17244
# Poissons Ratio (z) = 0.13351 0.23157
#
# Static dielectric constant tensor:
#      x y z
#    x 1.789590 0.000000 0.000000 
#    y 0.000000 1.804680 0.000000 
#    z 0.000000 0.000000 1.908530 
# 
# From -- ./inp_files/6160.got.cif
#   From: 2010.05.17/outbox.cif.g08.bks.cpg/sg61_4_cif.got.tgz:6160.got - 2010.06.03 15:17:17.
