data_PCOD9460275
_publ_section_title
;
Structure prediction by ZEFSAII (Michael W. Deem and Ramdas Pophale) SiO2 
 PCOD9460275
Probable space group: P B C A
;
_chemical_formula_sum "Si O2"
_cell_formula_units_Z 56
_cell_length_a 11.829157
_cell_length_b 11.790934
_cell_length_c 19.953387
_cell_angle_alpha 90.000000
_cell_angle_beta 90.000000
_cell_angle_gamma 90.000000
_cell_volume 2783.034757
_symmetry_space_group_name_H-M "P B C A"
_symmetry_group_IT_number 61
_symmetry_cell_setting 'orthorhombic'
loop_
_space_group_symop_operation_xyz
x,y,z
1/2-x,-y,1/2+z
1/2+x,1/2-y,-z
-x,1/2+y,1/2-z
-x,-y,-z
1/2+x,y,1/2-z
1/2-x,1/2+y,z
x,1/2-y,1/2+z
loop_
_atom_site_type_symbol
_atom_site_label
_atom_site_fract_x
_atom_site_fract_y
_atom_site_fract_z
Si Si1 0.876209 0.258634 0.645309
Si Si2 0.135109 0.442761 0.063315
Si Si3 0.048893 0.081216 0.704864
Si Si4 0.769626 0.722871 0.271006
Si Si5 0.593731 0.665463 0.506956
Si Si6 0.449504 0.551785 0.173592
Si Si7 0.640915 0.827255 0.391510
O O1 0.779678 0.296149 0.697045
O O2 0.844114 0.220335 0.570805
O O3 0.939736 0.153137 0.681320
O O4 0.970365 0.356553 0.638505
O O5 0.097760 0.477092 0.138415
O O6 0.240924 0.361472 0.073447
O O7 0.028771 0.376663 0.032181
O O8 0.157859 0.554282 0.020189
O O9 0.141324 0.172536 0.729875
O O10 0.015407 0.993993 0.761568
O O11 0.837119 0.616118 0.301020
O O12 0.672496 0.760434 0.323368
O O13 0.578203 0.750463 0.445289
O O14 0.419624 0.443615 0.128837
#
# Coordination Sequence:
#
# PCOD9460275 Si02
#       7
#     8   8   8   8   8   8   8
#     4  10  22  41  57  94 127 153 211 265 305 376
#     4   9  21  42  67  85 126 175 203 257 323 391
#     4   9  20  39  62  91 116 159 216 251 313 379
#     4  10  22  40  64  89 128 160 208 265 313 375
#     4  10  22  42  62  90 128 166 213 257 315 383
#     4  11  23  37  67  95 120 167 213 263 313 375
#     4  11  22  41  65  93 122 176 208 253 317 394
#
# _framework density 20.121919999999999
#
# number of rings (size 3 to 8) (size 9 to 14) (size 15 to 20)
#    0.000    2.000    1.429    1.714    6.000    0.571 
#   12.857    0.000    0.000    0.000    0.000    0.000 
#    0.000    0.000    0.000    0.000    0.000    0.000 
#
# Total GULP energy -312894.307035 kJ/mol
# GULP energy per Si atom -5587.398340 kJ/mol
# Density = 2.007612 g / cm^3
# Si number density = 20.121920 Si / 1000 Ang^3
#
#
#
# Elastic Constant Matrix: (Units=GPa)
#
#
# Indices 1 2 3 4 5 6 
#
# 1 24.4718 5.1527 23.4243 0.0000 0.0000 0.0000
# 2 5.1527 79.3221 46.8127 0.0000 0.0000 0.0000
# 3 23.4243 46.8127 104.7043 0.0000 0.0000 0.0000
# 4 0.0000 0.0000 0.0000 40.1464 0.0000 0.0000
# 5 0.0000 0.0000 0.0000 0.0000 0.9679 0.0000
# 6 0.0000 0.0000 0.0000 0.0000 0.0000 15.1567
#
#
#
# Elastic Compliance Matrix: (Units=1/GPa)
#
#
# Indices 1 2 3 4 5 6 
#
# 1 0.053343 0.004860 -0.014107 0.000000 0.000000 0.000000
# 2 0.004860 0.017568 -0.008942 0.000000 0.000000 0.000000
# 3 -0.014107 -0.008942 0.016705 0.000000 0.000000 0.000000
# 4 0.000000 0.000000 0.000000 0.024909 0.000000 0.000000
# 5 0.000000 0.000000 0.000000 0.000000 1.033124 0.000000
# 6 0.000000 0.000000 0.000000 0.000000 0.000000 0.065977
#
#
# Mechanical properties :
#
#
# Convention : Reuss Voigt Hill
#
# Bulk Modulus (GPa) = 19.51657 39.91973 29.71815
# Shear Modulus (GPa) = 3.95231 20.12811 12.04021
#
# Velocity S-wave (km/s) = 1.40301 3.16620 2.44880
# Velocity P-wave (km/s) = 3.51352 5.76614 4.77458
#
# Compressibility (1/GPa) = 0.05123852
#
# Stress axis : x y z
#
# Youngs Moduli (GPa) = 18.74667 56.92065 59.86398
#
# Poissons Ratio (x) = -0.27664 0.84448
# Poissons Ratio (y) = -0.09111 0.53530
# Poissons Ratio (z) = 0.26445 0.50898
#
# Static dielectric constant tensor:
#      x y z
#    x 1.716320 0.000000 0.000000 
#    y 0.000000 1.697940 0.000000 
#    z 0.000000 0.000000 1.700660 
# 
# From -- ./inp_files/10296.got.cif
#   From: 2010.05.17/outbox.cif.g08.bks.cpg/sg61_6_cif.got.tgz:10296.got - 2010.06.03 15:17:17.
