data_PCOD9460942
_publ_section_title
;
Structure prediction by ZEFSAII (Michael W. Deem and Ramdas Pophale) SiO2 
 PCOD9460942
Probable space group: P B C A
;
_chemical_formula_sum "Si O2"
_cell_formula_units_Z 48
_cell_length_a 19.673413
_cell_length_b 9.653004
_cell_length_c 12.323017
_cell_angle_alpha 90.000000
_cell_angle_beta 90.000000
_cell_angle_gamma 90.000000
_cell_volume 2340.233775
_symmetry_space_group_name_H-M "P B C A"
_symmetry_group_IT_number 61
_symmetry_cell_setting 'orthorhombic'
loop_
_space_group_symop_operation_xyz
x,y,z
1/2-x,-y,1/2+z
1/2+x,1/2-y,-z
-x,1/2+y,1/2-z
-x,-y,-z
1/2+x,y,1/2-z
1/2-x,1/2+y,z
x,1/2-y,1/2+z
loop_
_atom_site_type_symbol
_atom_site_label
_atom_site_fract_x
_atom_site_fract_y
_atom_site_fract_z
Si Si1 0.376048 0.559101 0.993159
Si Si2 0.575672 0.316553 0.784044
Si Si3 0.763702 0.371836 0.410975
Si Si4 0.300388 0.107272 0.215246
Si Si5 0.803007 0.802496 0.617809
Si Si6 0.444964 0.000553 0.277356
O O1 0.403354 0.652062 0.092024
O O2 0.333661 0.437032 0.047726
O O3 0.324223 0.649259 0.919728
O O4 0.432183 0.510106 0.907335
O O5 0.638924 0.345847 0.703117
O O6 0.513463 0.416704 0.755178
O O7 0.555539 0.156177 0.767585
O O8 0.735503 0.461443 0.311212
O O9 0.777999 0.214193 0.378273
O O10 0.706995 0.382610 0.504861
O O11 0.268244 0.176042 0.322082
O O12 0.379856 0.080704 0.228683
#
# Coordination Sequence:
#
# PCOD9460942 Si02
#       6
#     8   8   8   8   8   8
#     4  11  22  45  69  99 136 177 223 283 334 403
#     4  11  25  47  69  97 143 182 228 279 338 407
#     4  12  23  41  69 103 131 170 225 281 338 396
#     4  12  25  42  71 101 135 172 232 279 338 407
#     4  11  22  43  69 100 133 175 220 282 340 395
#     4  11  26  46  69 101 136 187 227 277 342 408
#
# _framework density 20.510770999999998
#
# number of rings (size 3 to 8) (size 9 to 14) (size 15 to 20)
#    0.000    0.667    5.000    3.500    2.333    0.000 
#    3.000    4.167    0.000    0.000    0.000    0.000 
#    0.000    0.000    0.000    0.000    0.000    0.000 
#
# Total GULP energy -268257.454084 kJ/mol
# GULP energy per Si atom -5588.696960 kJ/mol
# Density = 2.046409 g / cm^3
# Si number density = 20.510771 Si / 1000 Ang^3
#
#
#
# Elastic Constant Matrix: (Units=GPa)
#
#
# Indices 1 2 3 4 5 6 
#
# 1 81.2559 43.4138 29.0666 0.0000 0.0000 0.0000
# 2 43.4138 72.2082 23.8303 0.0000 0.0000 0.0000
# 3 29.0666 23.8303 88.7331 0.0000 0.0000 0.0000
# 4 0.0000 0.0000 0.0000 29.5434 0.0000 0.0000
# 5 0.0000 0.0000 0.0000 0.0000 34.1096 0.0000
# 6 0.0000 0.0000 0.0000 0.0000 0.0000 35.7418
#
#
#
# Elastic Compliance Matrix: (Units=1/GPa)
#
#
# Indices 1 2 3 4 5 6 
#
# 1 0.019059 -0.010313 -0.003474 0.000000 0.000000 0.000000
# 2 -0.010313 0.020776 -0.002201 0.000000 0.000000 0.000000
# 3 -0.003474 -0.002201 0.012999 0.000000 0.000000 0.000000
# 4 0.000000 0.000000 0.000000 0.033848 0.000000 0.000000
# 5 0.000000 0.000000 0.000000 0.000000 0.029317 0.000000
# 6 0.000000 0.000000 0.000000 0.000000 0.000000 0.027978
#
#
# Mechanical properties :
#
#
# Convention : Reuss Voigt Hill
#
# Bulk Modulus (GPa) = 47.94265 48.31319 48.12792
# Shear Modulus (GPa) = 27.33641 29.60474 28.47058
#
# Velocity S-wave (km/s) = 3.65469 3.80330 3.72974
# Velocity P-wave (km/s) = 6.42138 6.54927 6.48564
#
# Compressibility (1/GPa) = 0.02085826
#
# Stress axis : x y z
#
# Youngs Moduli (GPa) = 52.46783 48.13329 76.92977
#
# Poissons Ratio (x) = 0.49638 0.26723
# Poissons Ratio (y) = 0.54108 0.16935
# Poissons Ratio (z) = 0.18226 0.10596
#
# Static dielectric constant tensor:
#      x y z
#    x 1.715470 0.000000 0.000000 
#    y 0.000000 1.709420 0.000000 
#    z 0.000000 0.000000 1.772910 
# 
# From -- ./inp_files/2241.got.cif
#   From: 2010.05.17/outbox.cif.g08.bks.cpg/sg61_2_cif.got.tgz:2241.got - 2010.06.03 15:17:17.
