data_PCOD9460916
_publ_section_title
;
Structure prediction by ZEFSAII (Michael W. Deem and Ramdas Pophale) SiO2 
 PCOD9460916
Probable space group: P B C A
;
_chemical_formula_sum "Si O2"
_cell_formula_units_Z 64
_cell_length_a 14.391809
_cell_length_b 8.356034
_cell_length_c 23.252939
_cell_angle_alpha 90.000000
_cell_angle_beta 90.000000
_cell_angle_gamma 90.000000
_cell_volume 2796.362293
_symmetry_space_group_name_H-M "P B C A"
_symmetry_group_IT_number 61
_symmetry_cell_setting 'orthorhombic'
loop_
_space_group_symop_operation_xyz
x,y,z
1/2-x,-y,1/2+z
1/2+x,1/2-y,-z
-x,1/2+y,1/2-z
-x,-y,-z
1/2+x,y,1/2-z
1/2-x,1/2+y,z
x,1/2-y,1/2+z
loop_
_atom_site_type_symbol
_atom_site_label
_atom_site_fract_x
_atom_site_fract_y
_atom_site_fract_z
Si Si1 0.070459 0.643614 0.987574
Si Si2 0.185767 0.236053 0.619747
Si Si3 0.123507 0.012267 0.853768
Si Si4 0.530617 0.429800 0.937057
Si Si5 0.798469 0.169816 0.607598
Si Si6 0.085477 0.316060 0.240738
Si Si7 0.122325 0.613166 0.106980
Si Si8 0.943965 0.986082 0.682661
O O1 0.089880 0.709139 0.050650
O O2 0.170046 0.625966 0.957107
O O3 0.000000 0.500000 0.000000
O O4 0.017747 0.755513 0.942898
O O5 0.133394 0.376533 0.583278
O O6 0.142972 0.210652 0.683012
O O7 0.291918 0.285218 0.630159
O O8 0.164820 0.062732 0.590856
O O9 0.171279 0.845252 0.871350
O O10 0.023569 0.015698 0.884936
O O11 0.190223 0.144628 0.882003
O O12 0.117758 0.047540 0.785909
O O13 0.500000 0.500000 0.000000
O O14 0.859307 0.046493 0.644881
O O15 0.085981 0.154241 0.275899
O O16 0.983577 0.365833 0.219237
O O17 0.032421 0.578352 0.145935
#
# Coordination Sequence:
#
# PCOD9460916 Si02
#       8
#     8   8   8   8   8   8   8   8
#     4  11  21  44  69  92 137 182 215 283 343 413
#     4  11  26  45  65 101 138 180 231 283 347 414
#     4  11  25  43  66 100 131 179 227 282 345 410
#     4  11  26  44  68 102 143 176 230 289 346 424
#     4  11  24  42  67 100 136 172 235 276 347 415
#     4  11  24  44  69  95 142 181 233 287 345 418
#     4  11  25  42  68 100 134 176 230 276 347 413
#     4  11  23  42  68  96 128 183 223 286 341 411
#
# _framework density 22.886877999999999
#
# number of rings (size 3 to 8) (size 9 to 14) (size 15 to 20)
#    0.000    1.000    2.500    4.500    5.250    8.000 
#    0.000    0.000    0.000    0.000    0.000    0.000 
#    0.000    0.000    0.000    0.000    0.000    0.000 
#
# Total GULP energy -357394.491697 kJ/mol
# GULP energy per Si atom -5584.288933 kJ/mol
# Density = 2.283479 g / cm^3
# Si number density = 22.886878 Si / 1000 Ang^3
#
#
#
# Elastic Constant Matrix: (Units=GPa)
#
#
# Indices 1 2 3 4 5 6 
#
# 1 34.0489 -5.0626 -1.0970 0.0000 0.0000 0.0000
# 2 -5.0626 48.6655 8.7804 0.0000 0.0000 0.0000
# 3 -1.0970 8.7804 95.5228 0.0000 0.0000 0.0000
# 4 0.0000 0.0000 0.0000 31.7051 0.0000 0.0000
# 5 0.0000 0.0000 0.0000 0.0000 24.6509 0.0000
# 6 0.0000 0.0000 0.0000 0.0000 0.0000 34.7526
#
#
#
# Elastic Compliance Matrix: (Units=1/GPa)
#
#
# Indices 1 2 3 4 5 6 
#
# 1 0.029831 0.003093 0.000058 0.000000 0.000000 0.000000
# 2 0.003093 0.021216 -0.001915 0.000000 0.000000 0.000000
# 3 0.000058 -0.001915 0.010645 0.000000 0.000000 0.000000
# 4 0.000000 0.000000 0.000000 0.031541 0.000000 0.000000
# 5 0.000000 0.000000 0.000000 0.000000 0.040567 0.000000
# 6 0.000000 0.000000 0.000000 0.000000 0.000000 0.028775
#
#
# Mechanical properties :
#
#
# Convention : Reuss Voigt Hill
#
# Bulk Modulus (GPa) = 15.58476 20.38651 17.98564
# Shear Modulus (GPa) = 27.54979 29.92950 28.73964
#
# Velocity S-wave (km/s) = 3.47326 3.62016 3.54747
# Velocity P-wave (km/s) = 4.78633 5.13818 4.96537
#
# Compressibility (1/GPa) = 0.06416524
#
# Stress axis : x y z
#
# Youngs Moduli (GPa) = 33.52185 47.13514 93.93759
#
# Poissons Ratio (x) = -0.14578 -0.00548
# Poissons Ratio (y) = -0.10368 0.17985
# Poissons Ratio (z) = -0.00195 0.09024
#
# Static dielectric constant tensor:
#      x y z
#    x 1.868000 0.000000 0.000000 
#    y 0.000000 1.933260 0.000000 
#    z 0.000000 0.000000 1.900840 
# 
# From -- ./inp_files/11091.got.cif
#   From: 2010.05.17/outbox.cif.g08.bks.cpg/sg61_6_cif.got.tgz:11091.got - 2010.06.03 15:17:17.
