data_PCOD9460718
_publ_section_title
;
Structure prediction by ZEFSAII (Michael W. Deem and Ramdas Pophale) SiO2 
 PCOD9460718
Probable space group: P B C A
;
_chemical_formula_sum "Si O2"
_cell_formula_units_Z 64
_cell_length_a 16.015658
_cell_length_b 29.732711
_cell_length_c 5.527211
_cell_angle_alpha 90.000000
_cell_angle_beta 90.000000
_cell_angle_gamma 90.000000
_cell_volume 2631.996696
_symmetry_space_group_name_H-M "P B C A"
_symmetry_group_IT_number 61
_symmetry_cell_setting 'orthorhombic'
loop_
_space_group_symop_operation_xyz
x,y,z
1/2-x,-y,1/2+z
1/2+x,1/2-y,-z
-x,1/2+y,1/2-z
-x,-y,-z
1/2+x,y,1/2-z
1/2-x,1/2+y,z
x,1/2-y,1/2+z
loop_
_atom_site_type_symbol
_atom_site_label
_atom_site_fract_x
_atom_site_fract_y
_atom_site_fract_z
Si Si1 0.645334 0.234536 0.730128
Si Si2 0.085601 0.344814 0.585439
Si Si3 0.157378 0.551490 0.267320
Si Si4 0.038438 0.415831 0.225796
Si Si5 0.158606 0.419333 0.855387
Si Si6 0.429630 0.357086 0.654688
Si Si7 0.336530 0.269181 0.685664
Si Si8 0.408749 0.489718 0.261554
O O1 0.609364 0.263433 0.502518
O O2 0.630361 0.185939 0.611543
O O3 0.738921 0.253977 0.779572
O O4 0.044239 0.388213 0.466017
O O5 0.150562 0.368334 0.764869
O O6 0.002799 0.327550 0.718520
O O7 0.255608 0.559644 0.278518
O O8 0.114808 0.600756 0.284199
O O9 0.134156 0.524975 0.511327
O O10 0.134413 0.528608 0.009646
O O11 0.997035 0.464331 0.241910
O O12 0.133960 0.417951 0.135458
O O13 0.980611 0.383581 0.056206
O O14 0.090006 0.456627 0.773300
O O15 0.357057 0.320355 0.608024
O O16 0.369981 0.240489 0.457025
#
# Coordination Sequence:
#
# PCOD9460718 Si02
#       8
#     8   8   8   8   8   8   8   8
#     4  10  25  46  68 100 137 172 227 292 347 417
#     4  11  25  44  70 103 139 186 233 291 359 421
#     4  11  25  43  71 100 143 186 240 294 345 421
#     4  10  24  45  68 102 142 193 231 297 349 436
#     4  11  26  40  72 104 142 191 237 299 351 425
#     4  10  24  45  67  97 139 182 233 282 358 421
#     4  10  24  42  70  98 129 175 226 284 349 417
#     4  11  24  47  67 104 145 191 241 285 356 420
#
# _framework density 24.316139
#
# number of rings (size 3 to 8) (size 9 to 14) (size 15 to 20)
#    0.000    1.500    1.250    1.125   12.250    2.500 
#    0.000    0.000    0.000    0.000    0.000    0.000 
#    0.000    0.000    0.000    0.000    0.000    0.000 
#
# Total GULP energy -356777.619919 kJ/mol
# GULP energy per Si atom -5574.650311 kJ/mol
# Density = 2.426079 g / cm^3
# Si number density = 24.316139 Si / 1000 Ang^3
#
#
#
# Elastic Constant Matrix: (Units=GPa)
#
#
# Indices 1 2 3 4 5 6 
#
# 1 75.4549 38.4283 32.7656 0.0000 0.0000 0.0000
# 2 38.4283 126.2229 29.4530 0.0000 0.0000 0.0000
# 3 32.7656 29.4530 107.9548 0.0000 0.0000 0.0000
# 4 0.0000 0.0000 0.0000 34.4023 0.0000 0.0000
# 5 0.0000 0.0000 0.0000 0.0000 5.8379 0.0000
# 6 0.0000 0.0000 0.0000 0.0000 0.0000 40.4395
#
#
#
# Elastic Compliance Matrix: (Units=1/GPa)
#
#
# Indices 1 2 3 4 5 6 
#
# 1 0.017196 -0.004291 -0.004049 0.000000 0.000000 0.000000
# 2 -0.004291 0.009532 -0.001298 0.000000 0.000000 0.000000
# 3 -0.004049 -0.001298 0.010846 0.000000 0.000000 0.000000
# 4 0.000000 0.000000 0.000000 0.029068 0.000000 0.000000
# 5 0.000000 0.000000 0.000000 0.000000 0.171295 0.000000
# 6 0.000000 0.000000 0.000000 0.000000 0.000000 0.024728
#
#
# Mechanical properties :
#
#
# Convention : Reuss Voigt Hill
#
# Bulk Modulus (GPa) = 54.64783 56.76960 55.70872
# Shear Modulus (GPa) = 17.35873 30.06830 23.71352
#
# Velocity S-wave (km/s) = 2.67475 3.52029 3.12623
# Velocity P-wave (km/s) = 5.66231 6.31826 5.99925
#
# Compressibility (1/GPa) = 0.01829899
#
# Stress axis : x y z
#
# Youngs Moduli (GPa) = 58.15231 104.91298 92.19864
#
# Poissons Ratio (x) = 0.45014 0.37328
# Poissons Ratio (y) = 0.24951 0.11970
# Poissons Ratio (z) = 0.23544 0.13620
#
# Static dielectric constant tensor:
#      x y z
#    x 2.020010 0.000000 0.000000 
#    y 0.000000 1.940600 0.000000 
#    z 0.000000 0.000000 2.038940 
# 
# From -- ./inp_files/846.got.cif
#   From: 2010.05.17/outbox.cif.g08.bks.cpg/sg61_1_cif.got.tgz:846.got - 2010.06.03 15:17:17.
