data_PCOD9460324
_publ_section_title
;
Structure prediction by ZEFSAII (Michael W. Deem and Ramdas Pophale) SiO2 
 PCOD9460324
Probable space group: P B C A
;
_chemical_formula_sum "Si O2"
_cell_formula_units_Z 44
_cell_length_a 9.032095
_cell_length_b 20.699201
_cell_length_c 10.267046
_cell_angle_alpha 90.000000
_cell_angle_beta 90.000000
_cell_angle_gamma 90.000000
_cell_volume 1919.497658
_symmetry_space_group_name_H-M "P B C A"
_symmetry_group_IT_number 61
_symmetry_cell_setting 'orthorhombic'
loop_
_space_group_symop_operation_xyz
x,y,z
1/2-x,-y,1/2+z
1/2+x,1/2-y,-z
-x,1/2+y,1/2-z
-x,-y,-z
1/2+x,y,1/2-z
1/2-x,1/2+y,z
x,1/2-y,1/2+z
loop_
_atom_site_type_symbol
_atom_site_label
_atom_site_fract_x
_atom_site_fract_y
_atom_site_fract_z
Si Si1 0.252211 0.675033 0.396553
Si Si2 0.282490 0.326007 0.383315
Si Si3 0.000000 0.500000 0.000000
Si Si4 0.894983 0.630577 0.852393
Si Si5 0.760196 0.062264 0.433918
Si Si6 0.006826 0.095415 0.237641
O O1 0.259997 0.751558 0.379153
O O2 0.277796 0.661018 0.547704
O O3 0.106546 0.638998 0.343511
O O4 0.385042 0.641928 0.317200
O O5 0.455099 0.328018 0.347906
O O6 0.183314 0.368165 0.285828
O O7 0.260735 0.363404 0.520034
O O8 0.050511 0.435736 0.085547
O O9 0.184708 0.513006 0.957917
O O10 0.915418 0.055832 0.348660
O O11 0.611911 0.052038 0.353893
#
# Coordination Sequence:
#
# PCOD9460324 Si02
#       6
#     8   8   4   8   8   8
#     4  11  23  41  66  97 140 177 233 287 364 431
#     4  11  25  40  66 102 140 175 239 293 359 424
#     4  10  22  50  66  92 142 176 242 280 334 432
#     4  11  26  45  68 101 139 192 225 304 354 423
#     4  10  23  41  67  97 132 185 235 289 349 414
#     4  10  22  41  65  97 128 186 229 280 358 423
#
# _framework density 22.922664000000001
#
# number of rings (size 3 to 8) (size 9 to 14) (size 15 to 20)
#    0.000    1.455    3.636    1.091   10.182    2.909 
#    0.000    0.909    0.000    0.000    0.000    0.000 
#    0.000    0.000    0.000    0.000    0.000    0.000 
#
# Total GULP energy -245136.248272 kJ/mol
# GULP energy per Si atom -5571.278370 kJ/mol
# Density = 2.287049 g / cm^3
# Si number density = 22.922664 Si / 1000 Ang^3
#
#
#
# Elastic Constant Matrix: (Units=GPa)
#
#
# Indices 1 2 3 4 5 6 
#
# 1 91.3466 13.6522 35.5058 0.0000 0.0000 0.0000
# 2 13.6522 88.6196 20.0933 0.0000 0.0000 0.0000
# 3 35.5058 20.0933 56.3955 0.0000 0.0000 0.0000
# 4 0.0000 0.0000 0.0000 11.7448 0.0000 0.0000
# 5 0.0000 0.0000 0.0000 0.0000 55.7815 0.0000
# 6 0.0000 0.0000 0.0000 0.0000 0.0000 12.3096
#
#
#
# Elastic Compliance Matrix: (Units=1/GPa)
#
#
# Indices 1 2 3 4 5 6 
#
# 1 0.014497 -0.000178 -0.009064 0.000000 0.000000 0.000000
# 2 -0.000178 0.012278 -0.004262 0.000000 0.000000 0.000000
# 3 -0.009064 -0.004262 0.024957 0.000000 0.000000 0.000000
# 4 0.000000 0.000000 0.000000 0.085144 0.000000 0.000000
# 5 0.000000 0.000000 0.000000 0.000000 0.017927 0.000000
# 6 0.000000 0.000000 0.000000 0.000000 0.000000 0.081237
#
#
# Mechanical properties :
#
#
# Convention : Reuss Voigt Hill
#
# Bulk Modulus (GPa) = 40.44736 41.65161 41.04949
# Shear Modulus (GPa) = 18.43046 27.10786 22.76916
#
# Velocity S-wave (km/s) = 2.83861 3.44260 3.15509
# Velocity P-wave (km/s) = 5.33171 5.83197 5.58744
#
# Compressibility (1/GPa) = 0.02472349
#
# Stress axis : x y z
#
# Youngs Moduli (GPa) = 68.98032 81.44595 40.06922
#
# Poissons Ratio (x) = 0.01452 0.36317
# Poissons Ratio (y) = 0.01230 0.17079
# Poissons Ratio (z) = 0.62520 0.34715
#
# Static dielectric constant tensor:
#      x y z
#    x 1.825630 0.000000 0.000000 
#    y 0.000000 1.435190 0.000000 
#    z 0.000000 0.000000 1.547120 
# 
# From -- ./inp_files/4191.got.cif
#   From: 2010.05.17/outbox.cif.g08.bks.cpg/sg61_3_cif.got.tgz:4191.got - 2010.06.03 15:17:17.
