data_PCOD9460369
_publ_section_title
;
Structure prediction by ZEFSAII (Michael W. Deem and Ramdas Pophale) SiO2 
 PCOD9460369
Probable space group: P B C A
;
_chemical_formula_sum "Si O2"
_cell_formula_units_Z 48
_cell_length_a 24.139543
_cell_length_b 8.441481
_cell_length_c 9.774446
_cell_angle_alpha 90.000000
_cell_angle_beta 90.000000
_cell_angle_gamma 90.000000
_cell_volume 1991.773009
_symmetry_space_group_name_H-M "P B C A"
_symmetry_group_IT_number 61
_symmetry_cell_setting 'orthorhombic'
loop_
_space_group_symop_operation_xyz
x,y,z
1/2-x,-y,1/2+z
1/2+x,1/2-y,-z
-x,1/2+y,1/2-z
-x,-y,-z
1/2+x,y,1/2-z
1/2-x,1/2+y,z
x,1/2-y,1/2+z
loop_
_atom_site_type_symbol
_atom_site_label
_atom_site_fract_x
_atom_site_fract_y
_atom_site_fract_z
Si Si1 0.420118 0.065502 0.177768
Si Si2 0.171900 0.952581 0.172824
Si Si3 0.227613 0.252272 0.775296
Si Si4 0.574199 0.994016 0.127207
Si Si5 0.675018 0.549919 0.122833
Si Si6 0.010703 0.294355 0.267760
O O1 0.361922 0.099684 0.247859
O O2 0.458162 0.219547 0.152814
O O3 0.451868 0.950999 0.287699
O O4 0.414414 0.977658 0.032496
O O5 0.192242 0.134228 0.179290
O O6 0.129284 0.936610 0.297352
O O7 0.227533 0.852659 0.195611
O O8 0.148060 0.916239 0.023390
O O9 0.265887 0.362310 0.870682
O O10 0.187890 0.134798 0.856458
O O11 0.552851 0.147456 0.212967
O O12 0.524970 0.863214 0.139218
#
# Coordination Sequence:
#
# PCOD9460369 Si02
#       6
#     8   8   8   8   8   8
#     4  11  25  43  65  97 131 164 212 268 317 376
#     4  11  24  42  66  94 127 170 214 260 319 380
#     4  10  24  42  64  94 130 166 214 268 310 372
#     4  11  25  43  65  97 131 164 212 268 317 376
#     4  11  24  42  66  94 127 170 214 260 319 380
#     4  10  22  42  66  88 124 168 206 254 314 372
#
# _framework density 24.099132000000001
#
# number of rings (size 3 to 8) (size 9 to 14) (size 15 to 20)
#    0.000    1.333    0.000    5.000    0.000   18.667 
#    0.000    8.333    0.000    0.000    0.000    0.000 
#    0.000    0.000    0.000    0.000    0.000    0.000 
#
# Total GULP energy -267627.850874 kJ/mol
# GULP energy per Si atom -5575.580227 kJ/mol
# Density = 2.404428 g / cm^3
# Si number density = 24.099132 Si / 1000 Ang^3
#
#
#
# Elastic Constant Matrix: (Units=GPa)
#
#
# Indices 1 2 3 4 5 6 
#
# 1 93.1035 6.7741 26.9117 0.0000 0.0000 0.0000
# 2 6.7741 87.6593 17.5986 0.0000 0.0000 0.0000
# 3 26.9117 17.5986 98.9344 0.0000 0.0000 0.0000
# 4 0.0000 0.0000 0.0000 8.1971 0.0000 0.0000
# 5 0.0000 0.0000 0.0000 0.0000 28.1904 0.0000
# 6 0.0000 0.0000 0.0000 0.0000 0.0000 30.3707
#
#
#
# Elastic Compliance Matrix: (Units=1/GPa)
#
#
# Indices 1 2 3 4 5 6 
#
# 1 0.011664 -0.000274 -0.003124 0.000000 0.000000 0.000000
# 2 -0.000274 0.011837 -0.002031 0.000000 0.000000 0.000000
# 3 -0.003124 -0.002031 0.011319 0.000000 0.000000 0.000000
# 4 0.000000 0.000000 0.000000 0.121995 0.000000 0.000000
# 5 0.000000 0.000000 0.000000 0.000000 0.035473 0.000000
# 6 0.000000 0.000000 0.000000 0.000000 0.000000 0.032926
#
#
# Mechanical properties :
#
#
# Convention : Reuss Voigt Hill
#
# Bulk Modulus (GPa) = 41.73448 42.47400 42.10424
# Shear Modulus (GPa) = 20.48688 28.57915 24.53301
#
# Velocity S-wave (km/s) = 2.91883 3.44742 3.19408
# Velocity P-wave (km/s) = 5.35862 5.78872 5.57782
#
# Compressibility (1/GPa) = 0.02396100
#
# Stress axis : x y z
#
# Youngs Moduli (GPa) = 85.73642 84.48279 88.34913
#
# Poissons Ratio (x) = 0.02316 0.27600
# Poissons Ratio (y) = 0.02351 0.17943
# Poissons Ratio (z) = 0.26783 0.17158
#
# Static dielectric constant tensor:
#      x y z
#    x 1.925030 0.000000 0.000000 
#    y 0.000000 1.988110 0.000000 
#    z 0.000000 0.000000 1.929780 
# 
# From -- ./inp_files/4570.got.cif
#   From: 2010.05.17/outbox.cif.g08.bks.cpg/sg61_3_cif.got.tgz:4570.got - 2010.06.03 15:17:17.
