data_PCOD9460421
_publ_section_title
;
Structure prediction by ZEFSAII (Michael W. Deem and Ramdas Pophale) SiO2 
 PCOD9460421
Probable space group: P B C A
;
_chemical_formula_sum "Si O2"
_cell_formula_units_Z 44
_cell_length_a 8.573412
_cell_length_b 15.142824
_cell_length_c 14.342126
_cell_angle_alpha 90.000000
_cell_angle_beta 90.000000
_cell_angle_gamma 90.000000
_cell_volume 1861.976103
_symmetry_space_group_name_H-M "P B C A"
_symmetry_group_IT_number 61
_symmetry_cell_setting 'orthorhombic'
loop_
_space_group_symop_operation_xyz
x,y,z
1/2-x,-y,1/2+z
1/2+x,1/2-y,-z
-x,1/2+y,1/2-z
-x,-y,-z
1/2+x,y,1/2-z
1/2-x,1/2+y,z
x,1/2-y,1/2+z
loop_
_atom_site_type_symbol
_atom_site_label
_atom_site_fract_x
_atom_site_fract_y
_atom_site_fract_z
Si Si1 0.208686 0.255385 0.377746
Si Si2 0.000000 0.000000 0.000000
Si Si3 0.788445 0.674759 0.323615
Si Si4 0.014741 0.946898 0.741071
Si Si5 0.876415 0.186372 0.951093
Si Si6 0.249146 0.048831 0.858832
O O1 0.178499 0.212857 0.278464
O O2 0.320493 0.199375 0.443216
O O3 0.290932 0.349034 0.358873
O O4 0.043685 0.270313 0.428029
O O5 0.169002 0.028365 0.956562
O O6 0.087435 0.916823 0.059294
O O7 0.632264 0.617614 0.311925
O O8 0.930599 0.603067 0.330417
O O9 0.749845 0.756370 0.391349
O O10 0.888443 0.985172 0.670690
O O11 0.117527 0.025879 0.782199
#
# Coordination Sequence:
#
# PCOD9460421 Si02
#       6
#     8   4   8   8   8   8
#     4  11  26  45  69 107 140 189 248 290 363 437
#     4  10  24  44  64  94 146 178 230 288 356 418
#     4  11  23  43  72 103 139 188 239 296 361 434
#     4  10  22  43  71  98 144 180 235 294 359 433
#     4  11  25  45  74 102 144 191 233 303 362 430
#     4  10  24  43  69 102 141 186 231 298 358 428
#
# _framework density 23.630808999999999
#
# number of rings (size 3 to 8) (size 9 to 14) (size 15 to 20)
#    0.000    1.455    1.818    2.182   12.727    0.000 
#    0.000    0.909    0.000    0.000    0.000    0.000 
#    0.000    0.000    0.000    0.000    0.000    0.000 
#
# Total GULP energy -244980.065416 kJ/mol
# GULP energy per Si atom -5567.728759 kJ/mol
# Density = 2.357702 g / cm^3
# Si number density = 23.630809 Si / 1000 Ang^3
#
#
#
# Elastic Constant Matrix: (Units=GPa)
#
#
# Indices 1 2 3 4 5 6 
#
# 1 46.1056 -9.0303 5.9986 0.0000 0.0000 0.0000
# 2 -9.0303 52.2008 5.6076 0.0000 0.0000 0.0000
# 3 5.9986 5.6076 35.5736 0.0000 0.0000 0.0000
# 4 0.0000 0.0000 0.0000 33.5426 0.0000 0.0000
# 5 0.0000 0.0000 0.0000 0.0000 5.3171 0.0000
# 6 0.0000 0.0000 0.0000 0.0000 0.0000 39.3907
#
#
#
# Elastic Compliance Matrix: (Units=1/GPa)
#
#
# Indices 1 2 3 4 5 6 
#
# 1 0.023172 0.004505 -0.004618 0.000000 0.000000 0.000000
# 2 0.004505 0.020362 -0.003969 0.000000 0.000000 0.000000
# 3 -0.004618 -0.003969 0.029515 0.000000 0.000000 0.000000
# 4 0.000000 0.000000 0.000000 0.029813 0.000000 0.000000
# 5 0.000000 0.000000 0.000000 0.000000 0.188073 0.000000
# 6 0.000000 0.000000 0.000000 0.000000 0.000000 0.025387
#
#
# Mechanical properties :
#
#
# Convention : Reuss Voigt Hill
#
# Bulk Modulus (GPa) = 15.41179 15.44798 15.42988
# Shear Modulus (GPa) = 14.44605 24.40368 19.42486
#
# Velocity S-wave (km/s) = 2.47518 3.21706 2.87019
# Velocity P-wave (km/s) = 3.83467 4.51118 4.18661
#
# Compressibility (1/GPa) = 0.06488539
#
# Stress axis : x y z
#
# Youngs Moduli (GPa) = 43.15474 49.10999 33.88093
#
# Poissons Ratio (x) = -0.22122 0.15645
# Poissons Ratio (y) = -0.19440 0.13449
# Poissons Ratio (z) = 0.19927 0.19494
#
# Static dielectric constant tensor:
#      x y z
#    x 1.902530 0.000000 0.000000 
#    y 0.000000 1.249290 0.000000 
#    z 0.000000 0.000000 2.145630 
# 
# From -- ./inp_files/8862.got.cif
#   From: 2010.05.17/outbox.cif.g08.bks.cpg/sg61_5_cif.got.tgz:8862.got - 2010.06.03 15:17:17.
