data_PCOD9460894
_publ_section_title
;
Structure prediction by ZEFSAII (Michael W. Deem and Ramdas Pophale) SiO2 
 PCOD9460894
Probable space group: P B C A
;
_chemical_formula_sum "Si O2"
_cell_formula_units_Z 40
_cell_length_a 17.437663
_cell_length_b 10.342318
_cell_length_c 9.638090
_cell_angle_alpha 90.000000
_cell_angle_beta 90.000000
_cell_angle_gamma 90.000000
_cell_volume 1738.189591
_symmetry_space_group_name_H-M "P B C A"
_symmetry_group_IT_number 61
_symmetry_cell_setting 'orthorhombic'
loop_
_space_group_symop_operation_xyz
x,y,z
1/2-x,-y,1/2+z
1/2+x,1/2-y,-z
-x,1/2+y,1/2-z
-x,-y,-z
1/2+x,y,1/2-z
1/2-x,1/2+y,z
x,1/2-y,1/2+z
loop_
_atom_site_type_symbol
_atom_site_label
_atom_site_fract_x
_atom_site_fract_y
_atom_site_fract_z
Si Si1 0.774109 0.787054 0.916297
Si Si2 0.889149 0.510210 0.436605
Si Si3 0.352174 0.656471 0.813416
Si Si4 0.901514 0.287768 0.944670
Si Si5 0.997684 0.206843 0.194987
O O1 0.819937 0.913239 0.861608
O O2 0.790916 0.672319 0.808960
O O3 0.687202 0.824097 0.945781
O O4 0.818368 0.756814 0.059873
O O5 0.899260 0.363374 0.400639
O O6 0.133560 0.474685 0.400111
O O7 0.962599 0.596282 0.398403
O O8 0.432633 0.708308 0.756206
O O9 0.951721 0.352075 0.824687
O O10 0.943365 0.288531 0.092488
#
# Coordination Sequence:
#
# PCOD9460894 Si02
#       5
#     8   8   8   8   8
#     4   9  20  39  61  89 120 165 209 254 303 372
#     4   9  22  42  62  82 132 171 188 257 332 357
#     4   9  18  41  61  82 126 167 191 254 317 359
#     4  12  22  41  65  94 124 163 214 259 311 368
#     4  11  21  37  66  91 123 161 207 255 307 372
#
# _framework density 23.012450000000001
#
# number of rings (size 3 to 8) (size 9 to 14) (size 15 to 20)
#    1.200    0.800    2.000    1.800    0.000    0.000 
#   10.800    1.000    0.000    0.000    0.000    0.000 
#    0.000    0.000    0.000    0.000    0.000    0.000 
#
# Total GULP energy -223117.181272 kJ/mol
# GULP energy per Si atom -5577.929532 kJ/mol
# Density = 2.296007 g / cm^3
# Si number density = 23.012450 Si / 1000 Ang^3
#
#
#
# Elastic Constant Matrix: (Units=GPa)
#
#
# Indices 1 2 3 4 5 6 
#
# 1 98.8879 -15.3816 18.8577 0.0000 0.0000 0.0000
# 2 -15.3816 30.4880 -12.9750 0.0000 0.0000 0.0000
# 3 18.8577 -12.9750 112.2907 0.0000 0.0000 0.0000
# 4 0.0000 0.0000 0.0000 20.9571 0.0000 0.0000
# 5 0.0000 0.0000 0.0000 0.0000 8.4644 0.0000
# 6 0.0000 0.0000 0.0000 0.0000 0.0000 18.7441
#
#
#
# Elastic Compliance Matrix: (Units=1/GPa)
#
#
# Indices 1 2 3 4 5 6 
#
# 1 0.011147 0.005077 -0.001285 0.000000 0.000000 0.000000
# 2 0.005077 0.036808 0.003401 0.000000 0.000000 0.000000
# 3 -0.001285 0.003401 0.009514 0.000000 0.000000 0.000000
# 4 0.000000 0.000000 0.000000 0.047717 0.000000 0.000000
# 5 0.000000 0.000000 0.000000 0.000000 0.118142 0.000000
# 6 0.000000 0.000000 0.000000 0.000000 0.000000 0.053350
#
#
# Mechanical properties :
#
#
# Convention : Reuss Voigt Hill
#
# Bulk Modulus (GPa) = 13.91711 24.74098 19.32905
# Shear Modulus (GPa) = 17.46751 26.37748 21.92249
#
# Velocity S-wave (km/s) = 2.75807 3.38927 3.08983
# Velocity P-wave (km/s) = 4.02534 5.10790 4.59859
#
# Compressibility (1/GPa) = 0.07185398
#
# Stress axis : x y z
#
# Youngs Moduli (GPa) = 89.70797 27.16774 105.10555
#
# Poissons Ratio (x) = -0.13793 0.13510
# Poissons Ratio (y) = -0.45544 -0.35742
# Poissons Ratio (z) = 0.11531 -0.09238
#
# Static dielectric constant tensor:
#      x y z
#    x 1.903600 0.000000 0.000000 
#    y 0.000000 1.871240 0.000000 
#    z 0.000000 0.000000 1.860710 
# 
# From -- ./inp_files/3285.got.cif
#   From: 2010.05.17/outbox.cif.g08.bks.cpg/sg61_2_cif.got.tgz:3285.got - 2010.06.03 15:17:17.
