data_PCOD9460752
_publ_section_title
;
Structure prediction by ZEFSAII (Michael W. Deem and Ramdas Pophale) SiO2 
 PCOD9460752
Probable space group: P B C A
;
_chemical_formula_sum "Si O2"
_cell_formula_units_Z 40
_cell_length_a 8.681599
_cell_length_b 16.942753
_cell_length_c 10.542913
_cell_angle_alpha 90.000000
_cell_angle_beta 90.000000
_cell_angle_gamma 90.000000
_cell_volume 1550.759050
_symmetry_space_group_name_H-M "P B C A"
_symmetry_group_IT_number 61
_symmetry_cell_setting 'orthorhombic'
loop_
_space_group_symop_operation_xyz
x,y,z
1/2-x,-y,1/2+z
1/2+x,1/2-y,-z
-x,1/2+y,1/2-z
-x,-y,-z
1/2+x,y,1/2-z
1/2-x,1/2+y,z
x,1/2-y,1/2+z
loop_
_atom_site_type_symbol
_atom_site_label
_atom_site_fract_x
_atom_site_fract_y
_atom_site_fract_z
Si Si1 0.093875 0.005476 0.188514
Si Si2 0.822199 0.236792 0.134237
Si Si3 0.829604 0.595370 0.680315
Si Si4 0.137565 0.887590 0.657459
Si Si5 0.905184 0.831722 0.443012
O O1 0.220602 0.057251 0.115549
O O2 0.967301 0.064494 0.243849
O O3 0.189062 0.965883 0.305467
O O4 0.988296 0.938531 0.123103
O O5 0.729164 0.319534 0.136837
O O6 0.804819 0.188452 0.264290
O O7 0.748388 0.189535 0.018456
O O8 0.000437 0.257906 0.114430
O O9 0.870546 0.609850 0.829056
O O10 0.025148 0.865326 0.544711
#
# Coordination Sequence:
#
# PCOD9460752 Si02
#       5
#     8   8   8   8   8
#     4  10  24  44  71  96 147 180 220 298 345 388
#     4  12  26  46  72 104 140 178 238 286 330 410
#     4  11  24  49  68 104 140 182 228 291 336 410
#     4  11  24  49  68 104 140 182 228 291 336 410
#     4  12  26  43  76 101 132 190 234 274 350 409
#
# _framework density 25.793818999999999
#
# number of rings (size 3 to 8) (size 9 to 14) (size 15 to 20)
#    0.000    0.800    4.000    2.400    5.600    3.200 
#    0.000    2.000    0.000    0.000    0.000    0.000 
#    0.000    0.000    0.000    0.000    0.000    0.000 
#
# Total GULP energy -224162.278164 kJ/mol
# GULP energy per Si atom -5604.056954 kJ/mol
# Density = 2.573511 g / cm^3
# Si number density = 25.793819 Si / 1000 Ang^3
#
#
#
# Elastic Constant Matrix: (Units=GPa)
#
#
# Indices 1 2 3 4 5 6 
#
# 1 119.9533 29.9484 -0.9927 0.0000 0.0000 0.0000
# 2 29.9484 80.9765 5.3862 0.0000 0.0000 0.0000
# 3 -0.9927 5.3862 40.4568 0.0000 0.0000 0.0000
# 4 0.0000 0.0000 0.0000 15.6010 0.0000 0.0000
# 5 0.0000 0.0000 0.0000 0.0000 51.8554 0.0000
# 6 0.0000 0.0000 0.0000 0.0000 0.0000 42.7466
#
#
#
# Elastic Compliance Matrix: (Units=1/GPa)
#
#
# Indices 1 2 3 4 5 6 
#
# 1 0.009203 -0.003449 0.000685 0.000000 0.000000 0.000000
# 2 -0.003449 0.013752 -0.001916 0.000000 0.000000 0.000000
# 3 0.000685 -0.001916 0.024990 0.000000 0.000000 0.000000
# 4 0.000000 0.000000 0.000000 0.064098 0.000000 0.000000
# 5 0.000000 0.000000 0.000000 0.000000 0.019284 0.000000
# 6 0.000000 0.000000 0.000000 0.000000 0.000000 0.023394
#
#
# Mechanical properties :
#
#
# Convention : Reuss Voigt Hill
#
# Bulk Modulus (GPa) = 25.91638 34.45228 30.18433
# Shear Modulus (GPa) = 28.25760 35.84358 32.05059
#
# Velocity S-wave (km/s) = 3.31345 3.73180 3.52883
# Velocity P-wave (km/s) = 4.97071 5.65281 5.32270
#
# Compressibility (1/GPa) = 0.03858564
#
# Stress axis : x y z
#
# Youngs Moduli (GPa) = 108.65501 72.71461 40.01676
#
# Poissons Ratio (x) = 0.25082 -0.02741
# Poissons Ratio (y) = 0.37479 0.07665
# Poissons Ratio (z) = -0.07443 0.13929
#
# Static dielectric constant tensor:
#      x y z
#    x 1.985850 0.000000 0.000000 
#    y 0.000000 2.079840 0.000000 
#    z 0.000000 0.000000 2.033770 
# 
# From -- ./inp_files/3284.got.cif
#   From: 2010.05.17/outbox.cif.g08.bks.cpg/sg61_2_cif.got.tgz:3284.got - 2010.06.03 15:17:17.
