data_PCOD9460153
_publ_section_title
;
Structure prediction by ZEFSAII (Michael W. Deem and Ramdas Pophale) SiO2 
 PCOD9460153
Probable space group: P B C A
;
_chemical_formula_sum "Si O2"
_cell_formula_units_Z 40
_cell_length_a 8.779638
_cell_length_b 12.105219
_cell_length_c 14.068198
_cell_angle_alpha 90.000000
_cell_angle_beta 90.000000
_cell_angle_gamma 90.000000
_cell_volume 1495.160216
_symmetry_space_group_name_H-M "P B C A"
_symmetry_group_IT_number 61
_symmetry_cell_setting 'orthorhombic'
loop_
_space_group_symop_operation_xyz
x,y,z
1/2-x,-y,1/2+z
1/2+x,1/2-y,-z
-x,1/2+y,1/2-z
-x,-y,-z
1/2+x,y,1/2-z
1/2-x,1/2+y,z
x,1/2-y,1/2+z
loop_
_atom_site_type_symbol
_atom_site_label
_atom_site_fract_x
_atom_site_fract_y
_atom_site_fract_z
Si Si1 0.299033 0.767142 0.470275
Si Si2 0.994136 0.076828 0.879939
Si Si3 0.308753 0.558294 0.361768
Si Si4 0.051332 0.658662 0.825719
Si Si5 0.818781 0.640818 0.352378
O O1 0.455189 0.838178 0.461122
O O2 0.324554 0.638538 0.451748
O O3 0.201305 0.798284 0.377571
O O4 0.212931 0.814442 0.562664
O O5 0.947972 0.147915 0.787903
O O6 0.147763 0.004878 0.865319
O O7 0.870297 0.980777 0.889121
O O8 0.447822 0.470531 0.356330
O O9 0.296950 0.618393 0.259026
O O10 0.927840 0.750082 0.851861
#
# Coordination Sequence:
#
# PCOD9460153 Si02
#       5
#     8   8   8   8   8
#     4  11  22  42  64  97 129 163 228 261 322 400
#     4  10  21  44  67  90 132 174 212 268 331 381
#     4  10  22  42  65  94 132 169 216 269 320 398
#     4  10  22  42  64  92 130 168 218 266 327 383
#     4  11  22  42  66  97 126 175 211 271 330 379
#
# _framework density 26.752984000000001
#
# number of rings (size 3 to 8) (size 9 to 14) (size 15 to 20)
#    0.000    1.600    4.000    0.600    0.000    0.800 
#   18.000    0.000    0.000    0.000    0.000    0.000 
#    0.000    0.000    0.000    0.000    0.000    0.000 
#
# Total GULP energy -223217.934831 kJ/mol
# GULP energy per Si atom -5580.448371 kJ/mol
# Density = 2.669209 g / cm^3
# Si number density = 26.752984 Si / 1000 Ang^3
#
#
#
# Elastic Constant Matrix: (Units=GPa)
#
#
# Indices 1 2 3 4 5 6 
#
# 1 33.1584 25.0625 20.2198 0.0000 0.0000 0.0000
# 2 25.0625 123.7305 83.8479 0.0000 0.0000 0.0000
# 3 20.2198 83.8479 99.8213 0.0000 0.0000 0.0000
# 4 0.0000 0.0000 0.0000 66.8344 0.0000 0.0000
# 5 0.0000 0.0000 0.0000 0.0000 19.2443 0.0000
# 6 0.0000 0.0000 0.0000 0.0000 0.0000 20.0954
#
#
#
# Elastic Compliance Matrix: (Units=1/GPa)
#
#
# Indices 1 2 3 4 5 6 
#
# 1 0.035922 -0.005444 -0.002703 0.000000 0.000000 0.000000
# 2 -0.005444 0.019587 -0.015350 0.000000 0.000000 0.000000
# 3 -0.002703 -0.015350 0.023459 0.000000 0.000000 0.000000
# 4 0.000000 0.000000 0.000000 0.014962 0.000000 0.000000
# 5 0.000000 0.000000 0.000000 0.000000 0.051963 0.000000
# 6 0.000000 0.000000 0.000000 0.000000 0.000000 0.049763
#
#
# Mechanical properties :
#
#
# Convention : Reuss Voigt Hill
#
# Bulk Modulus (GPa) = 31.27642 57.21897 44.24769
# Shear Modulus (GPa) = 19.73879 29.74016 24.73947
#
# Velocity S-wave (km/s) = 2.71922 3.33777 3.04425
# Velocity P-wave (km/s) = 4.64490 6.02400 5.37883
#
# Compressibility (1/GPa) = 0.03197297
#
# Stress axis : x y z
#
# Youngs Moduli (GPa) = 27.83833 51.05447 42.62756
#
# Poissons Ratio (x) = 0.27796 0.11523
# Poissons Ratio (y) = 0.15156 0.65433
# Poissons Ratio (z) = 0.07525 0.78368
#
# Static dielectric constant tensor:
#      x y z
#    x 2.144380 0.000000 0.000000 
#    y 0.000000 2.149270 0.000000 
#    z 0.000000 0.000000 2.157880 
# 
# From -- ./inp_files/5104.got.cif
#   From: 2010.05.17/outbox.cif.g08.bks.cpg/sg61_3_cif.got.tgz:5104.got - 2010.06.03 15:17:17.
