data_PCOD9460480
_publ_section_title
;
Structure prediction by ZEFSAII (Michael W. Deem and Ramdas Pophale) SiO2 
 PCOD9460480
Probable space group: P B C A
;
_chemical_formula_sum "Si O2"
_cell_formula_units_Z 48
_cell_length_a 11.955545
_cell_length_b 17.793560
_cell_length_c 8.969076
_cell_angle_alpha 90.000000
_cell_angle_beta 90.000000
_cell_angle_gamma 90.000000
_cell_volume 1908.006850
_symmetry_space_group_name_H-M "P B C A"
_symmetry_group_IT_number 61
_symmetry_cell_setting 'orthorhombic'
loop_
_space_group_symop_operation_xyz
x,y,z
1/2-x,-y,1/2+z
1/2+x,1/2-y,-z
-x,1/2+y,1/2-z
-x,-y,-z
1/2+x,y,1/2-z
1/2-x,1/2+y,z
x,1/2-y,1/2+z
loop_
_atom_site_type_symbol
_atom_site_label
_atom_site_fract_x
_atom_site_fract_y
_atom_site_fract_z
Si Si1 0.731679 0.762825 0.090673
Si Si2 0.580757 0.630485 0.174068
Si Si3 0.672505 0.956410 0.939698
Si Si4 0.613126 0.249200 0.342929
Si Si5 0.886010 0.535897 0.644813
Si Si6 0.540993 0.879208 0.162632
O O1 0.676190 0.681183 0.100917
O O2 0.848105 0.768046 0.177203
O O3 0.792130 0.946971 0.020935
O O4 0.647814 0.823706 0.161559
O O5 0.622787 0.612022 0.341337
O O6 0.470682 0.679946 0.163380
O O7 0.568070 0.547172 0.110230
O O8 0.772476 0.771563 0.923302
O O9 0.671095 0.021658 0.812726
O O10 0.584378 0.953645 0.076923
O O11 0.552492 0.323390 0.407434
O O12 0.984818 0.593173 0.684602
#
# Coordination Sequence:
#
# PCOD9460480 Si02
#       6
#     8   8   8   8   8   8
#     4  11  24  43  72 104 146 194 259 312 380 445
#     4   9  24  43  73 109 149 194 263 313 389 453
#     4  10  22  46  71 107 149 205 248 313 389 464
#     4  11  24  45  75 105 146 204 250 321 370 455
#     4  10  24  44  77 105 156 200 251 317 397 460
#     4  11  23  42  67 109 148 196 255 314 382 461
#
# _framework density 25.157143000000001
#
# number of rings (size 3 to 8) (size 9 to 14) (size 15 to 20)
#    1.000    0.667    0.000    3.500    2.333    5.333 
#    3.000    0.833    0.000    0.000    0.000    0.000 
#    0.000    0.000    0.000    0.000    0.000    0.000 
#
# Total GULP energy -267857.653940 kJ/mol
# GULP energy per Si atom -5580.367790 kJ/mol
# Density = 2.509988 g / cm^3
# Si number density = 25.157143 Si / 1000 Ang^3
#
#
#
# Elastic Constant Matrix: (Units=GPa)
#
#
# Indices 1 2 3 4 5 6 
#
# 1 71.4482 34.7801 22.1127 0.0000 0.0000 0.0000
# 2 34.7801 90.9374 19.3523 0.0000 0.0000 0.0000
# 3 22.1127 19.3523 81.0686 0.0000 0.0000 0.0000
# 4 0.0000 0.0000 0.0000 36.7236 0.0000 0.0000
# 5 0.0000 0.0000 0.0000 0.0000 55.6744 0.0000
# 6 0.0000 0.0000 0.0000 0.0000 0.0000 33.5324
#
#
#
# Elastic Compliance Matrix: (Units=1/GPa)
#
#
# Indices 1 2 3 4 5 6 
#
# 1 0.018072 -0.006177 -0.003455 0.000000 0.000000 0.000000
# 2 -0.006177 0.013696 -0.001585 0.000000 0.000000 0.000000
# 3 -0.003455 -0.001585 0.013656 0.000000 0.000000 0.000000
# 4 0.000000 0.000000 0.000000 0.027230 0.000000 0.000000
# 5 0.000000 0.000000 0.000000 0.000000 0.017962 0.000000
# 6 0.000000 0.000000 0.000000 0.000000 0.000000 0.029822
#
#
# Mechanical properties :
#
#
# Convention : Reuss Voigt Hill
#
# Bulk Modulus (GPa) = 43.49428 43.99382 43.74405
# Shear Modulus (GPa) = 33.21492 36.33335 34.77414
#
# Velocity S-wave (km/s) = 3.63753 3.80446 3.72193
# Velocity P-wave (km/s) = 5.91344 6.06829 5.99136
#
# Compressibility (1/GPa) = 0.02299153
#
# Stress axis : x y z
#
# Youngs Moduli (GPa) = 55.33371 73.01324 73.22824
#
# Poissons Ratio (x) = 0.45098 0.25300
# Poissons Ratio (y) = 0.34178 0.11604
# Poissons Ratio (z) = 0.19118 0.11570
#
# Static dielectric constant tensor:
#      x y z
#    x 1.965240 0.000000 0.000000 
#    y 0.000000 2.055500 0.000000 
#    z 0.000000 0.000000 2.031670 
# 
# From -- ./inp_files/7549.got.cif
#   From: 2010.05.17/outbox.cif.g08.bks.cpg/sg61_4_cif.got.tgz:7549.got - 2010.06.03 15:17:17.
