data_PCOD9460054
_publ_section_title
;
Structure prediction by ZEFSAII (Michael W. Deem and Ramdas Pophale) SiO2 
 PCOD9460054
Probable space group: P B C A
;
_chemical_formula_sum "Si O2"
_cell_formula_units_Z 64
_cell_length_a 19.366319
_cell_length_b 17.764982
_cell_length_c 7.847286
_cell_angle_alpha 90.000000
_cell_angle_beta 90.000000
_cell_angle_gamma 90.000000
_cell_volume 2699.798390
_symmetry_space_group_name_H-M "P B C A"
_symmetry_group_IT_number 61
_symmetry_cell_setting 'orthorhombic'
loop_
_space_group_symop_operation_xyz
x,y,z
1/2-x,-y,1/2+z
1/2+x,1/2-y,-z
-x,1/2+y,1/2-z
-x,-y,-z
1/2+x,y,1/2-z
1/2-x,1/2+y,z
x,1/2-y,1/2+z
loop_
_atom_site_type_symbol
_atom_site_label
_atom_site_fract_x
_atom_site_fract_y
_atom_site_fract_z
Si Si1 0.226215 0.316795 0.392932
Si Si2 0.121828 0.069003 0.782038
Si Si3 0.625856 0.834151 0.980938
Si Si4 0.181218 0.346338 0.779947
Si Si5 0.185564 0.590413 0.344229
Si Si6 0.548673 0.414454 0.843714
Si Si7 0.021266 0.924140 0.330176
Si Si8 0.073097 0.665936 0.522647
O O1 0.179610 0.367053 0.268834
O O2 0.308453 0.329601 0.390467
O O3 0.202425 0.340233 0.581621
O O4 0.203515 0.231316 0.365372
O O5 0.060814 0.076160 0.645089
O O6 0.159715 0.989804 0.783618
O O7 0.083287 0.073516 0.968289
O O8 0.572402 0.901618 0.018726
O O9 0.588180 0.753871 0.986899
O O10 0.660395 0.849367 0.797725
O O11 0.232263 0.408300 0.859263
O O12 0.101534 0.367421 0.771839
O O13 0.144051 0.618743 0.507794
O O14 0.536959 0.495894 0.759225
O O15 0.478805 0.368130 0.880329
O O16 0.038064 0.856778 0.198960
#
# Coordination Sequence:
#
# PCOD9460054 Si02
#       8
#     8   8   8   8   8   8   8   8
#     4  10  23  42  60  88 124 160 205 251 301 364
#     4  10  21  42  63  86 123 163 199 249 309 358
#     4  11  25  37  60  98 123 155 207 255 305 365
#     4  10  23  41  61  88 124 158 205 252 301 361
#     4  11  21  41  62  86 124 161 195 256 307 353
#     4  10  21  41  65  91 117 165 210 245 302 375
#     4  11  22  40  64  90 121 158 209 249 297 379
#     4  11  20  41  67  83 118 164 205 246 305 365
#
# _framework density 23.705473000000001
#
# number of rings (size 3 to 8) (size 9 to 14) (size 15 to 20)
#    0.000    1.500    3.750    1.500    5.250    0.500 
#    4.500    0.000    0.000    0.000    0.000    0.000 
#    0.000    0.000    0.000    0.000    0.000    0.000 
#
# Total GULP energy -358025.907644 kJ/mol
# GULP energy per Si atom -5594.154807 kJ/mol
# Density = 2.365152 g / cm^3
# Si number density = 23.705473 Si / 1000 Ang^3
#
#
#
# Elastic Constant Matrix: (Units=GPa)
#
#
# Indices 1 2 3 4 5 6 
#
# 1 81.4378 35.4215 13.4920 0.0000 0.0000 0.0000
# 2 35.4215 81.8100 1.0153 0.0000 0.0000 0.0000
# 3 13.4920 1.0153 37.0149 0.0000 0.0000 0.0000
# 4 0.0000 0.0000 0.0000 -84.3762 0.0000 0.0000
# 5 0.0000 0.0000 0.0000 0.0000 14.9411 0.0000
# 6 0.0000 0.0000 0.0000 0.0000 0.000022321.7492
#
#
#
# Elastic Compliance Matrix: (Units=1/GPa)
#
#
# Indices 1 2 3 4 5 6 
#
# 1 0.016261 -0.006969 -0.005736 0.000000 0.000000 0.000000
# 2 -0.006969 0.015215 0.002123 0.000000 0.000000 0.000000
# 3 -0.005736 0.002123 0.029049 0.000000 0.000000 0.000000
# 4 0.000000 0.000000 0.000000 -0.011852 0.000000 0.000000
# 5 0.000000 0.000000 0.000000 0.000000 0.066929 0.000000
# 6 0.000000 0.000000 0.000000 0.000000 0.000000 0.000045
#
#
# Mechanical properties :
#
#
# Convention : Reuss Voigt Hill
#
# Bulk Modulus (GPa) = 25.40673 33.34669 29.37671
# Shear Modulus (GPa) = 33.34864 4460.48509 2246.91686
#
# Velocity S-wave (km/s) = 3.75479 43.42478 30.82053
# Velocity P-wave (km/s) = 5.43497 50.28300 35.76254
#
# Compressibility (1/GPa) = 0.03935965
#
# Stress axis : x y z
#
# Youngs Moduli (GPa) = 61.49712 65.72619 34.42495
#
# Poissons Ratio (x) = 0.45807 0.19746
# Poissons Ratio (y) = 0.42859 -0.07308
# Poissons Ratio (z) = 0.35274 -0.13954
#
# Static dielectric constant tensor:
#      x y z
#    x 1.946710 0.000000 0.000000 
#    y 0.000000 1.770090 0.000000 
#    z 0.000000 0.000000 1.972950 
# 
# From -- ./inp_files/4061.got.cif
#   From: 2010.05.17/outbox.cif.g08.bks.cpg/sg61_3_cif.got.tgz:4061.got - 2010.06.03 15:17:17.
