data_PCOD9460703
_publ_section_title
;
Structure prediction by ZEFSAII (Michael W. Deem and Ramdas Pophale) SiO2 
 PCOD9460703
Probable space group: P B C A
;
_chemical_formula_sum "Si O2"
_cell_formula_units_Z 64
_cell_length_a 9.155694
_cell_length_b 14.311469
_cell_length_c 22.209607
_cell_angle_alpha 90.000000
_cell_angle_beta 90.000000
_cell_angle_gamma 90.000000
_cell_volume 2910.156584
_symmetry_space_group_name_H-M "P B C A"
_symmetry_group_IT_number 61
_symmetry_cell_setting 'orthorhombic'
loop_
_space_group_symop_operation_xyz
x,y,z
1/2-x,-y,1/2+z
1/2+x,1/2-y,-z
-x,1/2+y,1/2-z
-x,-y,-z
1/2+x,y,1/2-z
1/2-x,1/2+y,z
x,1/2-y,1/2+z
loop_
_atom_site_type_symbol
_atom_site_label
_atom_site_fract_x
_atom_site_fract_y
_atom_site_fract_z
Si Si1 0.575212 0.371931 0.804165
Si Si2 0.081904 0.079192 0.460390
Si Si3 0.628608 0.551492 0.729117
Si Si4 0.839746 0.025793 0.127718
Si Si5 0.780365 0.714338 0.948563
Si Si6 0.789400 0.091109 0.408224
Si Si7 0.073844 0.560579 0.552129
Si Si8 0.852075 0.831957 0.308961
O O1 0.566944 0.456527 0.758084
O O2 0.434263 0.385704 0.847938
O O3 0.718949 0.393135 0.843724
O O4 0.601249 0.268084 0.780391
O O5 0.230946 0.049905 0.427161
O O6 0.113117 0.166641 0.503565
O O7 0.962127 0.098462 0.409159
O O8 0.000000 0.000000 0.500000
O O9 0.745813 0.519447 0.680064
O O10 0.493095 0.603455 0.698798
O O11 0.714533 0.617736 0.776952
O O12 0.961754 0.951796 0.106535
O O13 0.769858 0.825701 0.950931
O O14 0.623935 0.664878 0.960726
O O15 0.821646 0.689316 0.879400
O O16 0.723137 0.994098 0.431257
O O17 0.000000 0.500000 0.500000
#
# Coordination Sequence:
#
# PCOD9460703 Si02
#       8
#     8   8   8   8   8   8   8   8
#     4  10  25  48  67  97 142 177 224 291 342 407
#     4  12  23  42  70 103 134 178 227 274 340 403
#     4  12  25  45  72  95 137 176 232 284 346 404
#     4  11  24  42  69 100 130 185 221 281 345 406
#     4  11  24  42  69  94 139 174 221 278 329 407
#     4  10  24  41  67  96 133 175 218 270 336 392
#     4  11  21  43  64  92 136 173 213 267 333 397
#     4  11  26  45  69 102 131 180 235 278 347 410
#
# _framework density 21.991942000000002
#
# number of rings (size 3 to 8) (size 9 to 14) (size 15 to 20)
#    0.000    1.000    3.750    2.250    5.250    1.000 
#    4.500    0.000    0.000    0.000    0.000    0.000 
#    0.000    0.000    0.000    0.000    0.000    0.000 
#
# Total GULP energy -357737.120369 kJ/mol
# GULP energy per Si atom -5589.642506 kJ/mol
# Density = 2.194189 g / cm^3
# Si number density = 21.991942 Si / 1000 Ang^3
#
#
#
# Elastic Constant Matrix: (Units=GPa)
#
#
# Indices 1 2 3 4 5 6 
#
# 1 108.7444 8.3995 20.3506 0.0000 0.0000 0.0000
# 2 8.3995 99.8234 5.9672 0.0000 0.0000 0.0000
# 3 20.3506 5.9672 50.9978 0.0000 0.0000 0.0000
# 4 0.0000 0.0000 0.0000 22.5789 0.0000 0.0000
# 5 0.0000 0.0000 0.0000 0.0000 34.9961 0.0000
# 6 0.0000 0.0000 0.0000 0.0000 0.0000 23.9670
#
#
#
# Elastic Compliance Matrix: (Units=1/GPa)
#
#
# Indices 1 2 3 4 5 6 
#
# 1 0.009974 -0.000606 -0.003909 0.000000 0.000000 0.000000
# 2 -0.000606 0.010125 -0.000943 0.000000 0.000000 0.000000
# 3 -0.003909 -0.000943 0.021279 0.000000 0.000000 0.000000
# 4 0.000000 0.000000 0.000000 0.044289 0.000000 0.000000
# 5 0.000000 0.000000 0.000000 0.000000 0.028575 0.000000
# 6 0.000000 0.000000 0.000000 0.000000 0.000000 0.041724
#
#
# Mechanical properties :
#
#
# Convention : Reuss Voigt Hill
#
# Bulk Modulus (GPa) = 32.82741 36.55558 34.69149
# Shear Modulus (GPa) = 28.24280 31.29828 29.77054
#
# Velocity S-wave (km/s) = 3.58751 3.77659 3.68326
# Velocity P-wave (km/s) = 5.66743 5.97287 5.82215
#
# Compressibility (1/GPa) = 0.03046235
#
# Stress axis : x y z
#
# Youngs Moduli (GPa) = 100.25814 98.76525 46.99457
#
# Poissons Ratio (x) = 0.05981 0.18372
# Poissons Ratio (y) = 0.06071 0.04432
# Poissons Ratio (z) = 0.39194 0.09314
#
# Static dielectric constant tensor:
#      x y z
#    x 1.807540 0.000000 0.000000 
#    y 0.000000 1.810470 0.000000 
#    z 0.000000 0.000000 1.881930 
# 
# From -- ./inp_files/10910.got.cif
#   From: 2010.05.17/outbox.cif.g08.bks.cpg/sg61_6_cif.got.tgz:10910.got - 2010.06.03 15:17:17.
