data_PCOD9460007
_publ_section_title
;
Structure prediction by ZEFSAII (Michael W. Deem and Ramdas Pophale) SiO2 
 PCOD9460007
Probable space group: P B C A
;
_chemical_formula_sum "Si O2"
_cell_formula_units_Z 56
_cell_length_a 11.008887
_cell_length_b 17.572395
_cell_length_c 11.688836
_cell_angle_alpha 90.000000
_cell_angle_beta 90.000000
_cell_angle_gamma 90.000000
_cell_volume 2261.234673
_symmetry_space_group_name_H-M "P B C A"
_symmetry_group_IT_number 61
_symmetry_cell_setting 'orthorhombic'
loop_
_space_group_symop_operation_xyz
x,y,z
1/2-x,-y,1/2+z
1/2+x,1/2-y,-z
-x,1/2+y,1/2-z
-x,-y,-z
1/2+x,y,1/2-z
1/2-x,1/2+y,z
x,1/2-y,1/2+z
loop_
_atom_site_type_symbol
_atom_site_label
_atom_site_fract_x
_atom_site_fract_y
_atom_site_fract_z
Si Si1 0.082059 0.374953 0.493739
Si Si2 0.409510 0.251573 0.923114
Si Si3 0.846575 0.528870 0.830663
Si Si4 0.205150 0.324663 0.800908
Si Si5 0.414376 0.530828 0.214309
Si Si6 0.949038 0.825577 0.250218
Si Si7 0.838183 0.374884 0.931535
O O1 0.073233 0.444555 0.581425
O O2 0.025801 0.368380 0.369207
O O3 0.225377 0.362881 0.481927
O O4 0.022681 0.307302 0.565021
O O5 0.291910 0.305376 0.908286
O O6 0.428001 0.203325 0.808037
O O7 0.424372 0.191201 0.025173
O O8 0.709764 0.518672 0.782241
O O9 0.880430 0.617313 0.837837
O O10 0.860064 0.465556 0.931385
O O11 0.955771 0.499341 0.750628
O O12 0.114060 0.396587 0.797502
O O13 0.133409 0.247363 0.776399
O O14 0.291923 0.350888 0.694619
#
# Coordination Sequence:
#
# PCOD9460007 Si02
#       7
#     8   8   8   8   8   8   8
#     4  10  21  40  65  96 127 170 223 280 321 399
#     4  12  22  39  70  98 130 172 226 282 330 395
#     4  10  25  42  67  98 138 180 217 280 340 402
#     4  10  22  40  68  93 127 177 227 275 326 394
#     4  10  22  46  67  93 140 182 224 270 345 397
#     4  12  24  40  69  99 135 169 227 282 331 397
#     4  10  22  41  64  90 137 172 218 271 340 397
#
# _framework density 24.765232000000001
#
# number of rings (size 3 to 8) (size 9 to 14) (size 15 to 20)
#    0.000    1.714    4.286    2.571    4.000    1.143 
#    0.000    1.429    3.143    0.000    0.000    0.000 
#    0.000    0.000    0.000    0.000    0.000    0.000 
#
# Total GULP energy -312433.978926 kJ/mol
# GULP energy per Si atom -5579.178195 kJ/mol
# Density = 2.470886 g / cm^3
# Si number density = 24.765232 Si / 1000 Ang^3
#
#
#
# Elastic Constant Matrix: (Units=GPa)
#
#
# Indices 1 2 3 4 5 6 
#
# 1 60.6684 4.7968 16.7557 0.0000 0.0000 0.0000
# 2 4.7968 48.4385 6.7623 0.0000 0.0000 0.0000
# 3 16.7557 6.7623 52.3570 0.0000 0.0000 0.0000
# 4 0.0000 0.0000 0.0000 12.9553 0.0000 0.0000
# 5 0.0000 0.0000 0.0000 0.0000 10.6697 0.0000
# 6 0.0000 0.0000 0.0000 0.0000 0.0000 23.4454
#
#
#
# Elastic Compliance Matrix: (Units=1/GPa)
#
#
# Indices 1 2 3 4 5 6 
#
# 1 0.018129 -0.001003 -0.005672 0.000000 0.000000 0.000000
# 2 -0.001003 0.021079 -0.002401 0.000000 0.000000 0.000000
# 3 -0.005672 -0.002401 0.021225 0.000000 0.000000 0.000000
# 4 0.000000 0.000000 0.000000 0.077189 0.000000 0.000000
# 5 0.000000 0.000000 0.000000 0.000000 0.093724 0.000000
# 6 0.000000 0.000000 0.000000 0.000000 0.000000 0.042652
#
#
# Mechanical properties :
#
#
# Convention : Reuss Voigt Hill
#
# Bulk Modulus (GPa) = 23.65223 24.23261 23.94242
# Shear Modulus (GPa) = 16.32680 18.29068 17.30874
#
# Velocity S-wave (km/s) = 2.57040 2.72060 2.64656
# Velocity P-wave (km/s) = 4.28726 4.43566 4.36209
#
# Compressibility (1/GPa) = 0.04227931
#
# Stress axis : x y z
#
# Youngs Moduli (GPa) = 55.16038 47.43980 47.11416
#
# Poissons Ratio (x) = 0.04760 0.26724
# Poissons Ratio (y) = 0.05535 0.11314
# Poissons Ratio (z) = 0.31288 0.11392
#
# Static dielectric constant tensor:
#      x y z
#    x 2.033540 0.000000 0.000000 
#    y 0.000000 2.079070 0.000000 
#    z 0.000000 0.000000 2.004060 
# 
# From -- ./inp_files/5367.got.cif
#   From: 2010.05.17/outbox.cif.g08.bks.cpg/sg61_3_cif.got.tgz:5367.got - 2010.06.03 15:17:17.
