data_PCOD9460565
_publ_section_title
;
Structure prediction by ZEFSAII (Michael W. Deem and Ramdas Pophale) SiO2 
 PCOD9460565
Probable space group: P B C A
;
_chemical_formula_sum "Si O2"
_cell_formula_units_Z 48
_cell_length_a 14.155957
_cell_length_b 10.658873
_cell_length_c 14.285873
_cell_angle_alpha 90.000000
_cell_angle_beta 90.000000
_cell_angle_gamma 90.000000
_cell_volume 2155.546060
_symmetry_space_group_name_H-M "P B C A"
_symmetry_group_IT_number 61
_symmetry_cell_setting 'orthorhombic'
loop_
_space_group_symop_operation_xyz
x,y,z
1/2-x,-y,1/2+z
1/2+x,1/2-y,-z
-x,1/2+y,1/2-z
-x,-y,-z
1/2+x,y,1/2-z
1/2-x,1/2+y,z
x,1/2-y,1/2+z
loop_
_atom_site_type_symbol
_atom_site_label
_atom_site_fract_x
_atom_site_fract_y
_atom_site_fract_z
Si Si1 0.655473 0.422723 0.751718
Si Si2 0.786161 0.189489 0.714913
Si Si3 0.060898 0.397422 0.942989
Si Si4 0.730688 0.220030 0.514687
Si Si5 0.601805 0.482894 0.957343
Si Si6 0.617033 0.752512 0.390329
O O1 0.702380 0.285890 0.741217
O O2 0.726880 0.542641 0.741597
O O3 0.590372 0.443967 0.660341
O O4 0.602892 0.429068 0.851324
O O5 0.797302 0.216399 0.605518
O O6 0.874296 0.229323 0.779934
O O7 0.156639 0.337443 0.988198
O O8 0.983879 0.289598 0.924014
O O9 0.000000 0.500000 0.000000
O O10 0.794330 0.173566 0.427180
O O11 0.660179 0.103155 0.526533
O O12 0.645474 0.619683 0.943179
O O13 0.500000 0.500000 0.000000
#
# Coordination Sequence:
#
# PCOD9460565 Si02
#       6
#     8   8   8   8   8   8
#     4  10  23  46  67 102 138 178 238 283 350 411
#     4  10  23  42  68  99 133 181 227 284 342 413
#     4  11  25  45  67 104 140 182 229 289 347 418
#     4  11  24  44  69  98 136 179 233 279 350 415
#     4  11  23  45  66 102 133 179 231 286 344 416
#     4  11  24  43  69  98 137 180 231 283 350 413
#
# _framework density 22.268139000000001
#
# number of rings (size 3 to 8) (size 9 to 14) (size 15 to 20)
#    0.000    1.333    3.333    1.000    7.000    1.333 
#    9.000    0.000    0.000    0.000    0.000    0.000 
#    0.000    0.000    0.000    0.000    0.000    0.000 
#
# Total GULP energy -267456.157377 kJ/mol
# GULP energy per Si atom -5572.003279 kJ/mol
# Density = 2.221746 g / cm^3
# Si number density = 22.268139 Si / 1000 Ang^3
#
#
#
# Elastic Constant Matrix: (Units=GPa)
#
#
# Indices 1 2 3 4 5 6 
#
# 1 78.9350 18.0007 23.6100 0.0000 0.0000 0.0000
# 2 18.0007 76.7699 14.3482 0.0000 0.0000 0.0000
# 3 23.6100 14.3482 114.9282 0.0000 0.0000 0.0000
# 4 0.0000 0.0000 0.0000 27.0460 0.0000 0.0000
# 5 0.0000 0.0000 0.0000 0.0000 34.0737 0.0000
# 6 0.0000 0.0000 0.0000 0.0000 0.0000 28.5334
#
#
#
# Elastic Compliance Matrix: (Units=1/GPa)
#
#
# Indices 1 2 3 4 5 6 
#
# 1 0.014072 -0.002825 -0.002538 0.000000 0.000000 0.000000
# 2 -0.002825 0.013904 -0.001155 0.000000 0.000000 0.000000
# 3 -0.002538 -0.001155 0.009367 0.000000 0.000000 0.000000
# 4 0.000000 0.000000 0.000000 0.036974 0.000000 0.000000
# 5 0.000000 0.000000 0.000000 0.000000 0.029348 0.000000
# 6 0.000000 0.000000 0.000000 0.000000 0.000000 0.035047
#
#
# Mechanical properties :
#
#
# Convention : Reuss Voigt Hill
#
# Bulk Modulus (GPa) = 41.14294 42.50566 41.82430
# Shear Modulus (GPa) = 31.27902 32.24224 31.76063
#
# Velocity S-wave (km/s) = 3.75194 3.80927 3.78071
# Velocity P-wave (km/s) = 6.10620 6.20298 6.15478
#
# Compressibility (1/GPa) = 0.02430551
#
# Stress axis : x y z
#
# Youngs Moduli (GPa) = 71.06260 71.91998 106.76048
#
# Poissons Ratio (x) = 0.20319 0.27098
# Poissons Ratio (y) = 0.20077 0.12336
# Poissons Ratio (z) = 0.18037 0.08310
#
# Static dielectric constant tensor:
#      x y z
#    x 2.075160 0.000000 0.000000 
#    y 0.000000 4.123540 0.000000 
#    z 0.000000 0.000000 1.950420 
# 
# From -- ./inp_files/7793.got.cif
#   From: 2010.05.17/outbox.cif.g08.bks.cpg/sg61_4_cif.got.tgz:7793.got - 2010.06.03 15:17:17.
