data_PCOD9460823
_publ_section_title
;
Structure prediction by ZEFSAII (Michael W. Deem and Ramdas Pophale) SiO2 
 PCOD9460823
Probable space group: P B C A
;
_chemical_formula_sum "Si O2"
_cell_formula_units_Z 32
_cell_length_a 9.608450
_cell_length_b 12.253264
_cell_length_c 11.907356
_cell_angle_alpha 90.000000
_cell_angle_beta 90.000000
_cell_angle_gamma 90.000000
_cell_volume 1401.911064
_symmetry_space_group_name_H-M "P B C A"
_symmetry_group_IT_number 61
_symmetry_cell_setting 'orthorhombic'
loop_
_space_group_symop_operation_xyz
x,y,z
1/2-x,-y,1/2+z
1/2+x,1/2-y,-z
-x,1/2+y,1/2-z
-x,-y,-z
1/2+x,y,1/2-z
1/2-x,1/2+y,z
x,1/2-y,1/2+z
loop_
_atom_site_type_symbol
_atom_site_label
_atom_site_fract_x
_atom_site_fract_y
_atom_site_fract_z
Si Si1 0.799656 0.831502 0.176880
Si Si2 0.575856 0.702829 0.285147
Si Si3 0.650203 0.550579 0.482358
Si Si4 0.605212 0.544630 0.092013
O O1 0.689832 0.798220 0.271477
O O2 0.706026 0.854333 0.066406
O O3 0.873160 0.949004 0.184607
O O4 0.926236 0.745337 0.172676
O O5 0.643825 0.611529 0.364271
O O6 0.561126 0.649911 0.160898
O O7 0.500000 0.500000 0.500000
O O8 0.753450 0.452609 0.519447
O O9 0.500000 0.500000 0.000000
#
# Coordination Sequence:
#
# PCOD9460823 Si02
#       4
#     8   8   8   8
#     4  10  28  43  73 109 141 200 246 310 368 458
#     4  12  24  49  75 103 156 196 249 306 387 437
#     4  10  25  46  72 105 150 192 252 306 375 446
#     4  10  25  46  72 111 145 196 249 315 373 453
#
# _framework density 22.825986
#
# number of rings (size 3 to 8) (size 9 to 14) (size 15 to 20)
#    1.500    0.000    0.000    3.000    7.000    2.000 
#    0.000    0.000    0.000    0.000    0.000    0.000 
#    0.000    0.000    0.000    0.000    0.000    0.000 
#
# Total GULP energy -178182.739457 kJ/mol
# GULP energy per Si atom -5568.210608 kJ/mol
# Density = 2.277403 g / cm^3
# Si number density = 22.825986 Si / 1000 Ang^3
#
#
#
# Elastic Constant Matrix: (Units=GPa)
#
#
# Indices 1 2 3 4 5 6 
#
# 1 121.9449 46.4571 42.7981 0.0000 0.0000 0.0000
# 2 46.4571 76.0713 49.1568 0.0000 0.0000 0.0000
# 3 42.7981 49.1568 94.5812 0.0000 0.0000 0.0000
# 4 0.0000 0.0000 0.0000 53.4562 0.0000 0.0000
# 5 0.0000 0.0000 0.0000 0.0000 26.5155 0.0000
# 6 0.0000 0.0000 0.0000 0.0000 0.0000 40.2649
#
#
#
# Elastic Compliance Matrix: (Units=1/GPa)
#
#
# Indices 1 2 3 4 5 6 
#
# 1 0.010992 -0.005268 -0.002236 0.000000 0.000000 0.000000
# 2 -0.005268 0.022318 -0.009215 0.000000 0.000000 0.000000
# 3 -0.002236 -0.009215 0.016374 0.000000 0.000000 0.000000
# 4 0.000000 0.000000 0.000000 0.018707 0.000000 0.000000
# 5 0.000000 0.000000 0.000000 0.000000 0.037714 0.000000
# 6 0.000000 0.000000 0.000000 0.000000 0.000000 0.024836
#
#
# Mechanical properties :
#
#
# Convention : Reuss Voigt Hill
#
# Bulk Modulus (GPa) = 61.55668 63.26906 62.41287
# Shear Modulus (GPa) = 29.44737 34.32634 31.88685
#
# Velocity S-wave (km/s) = 3.59567 3.88213 3.74164
# Velocity P-wave (km/s) = 6.65318 6.91901 6.78740
#
# Compressibility (1/GPa) = 0.01624519
#
# Stress axis : x y z
#
# Youngs Moduli (GPa) = 90.97412 44.80736 61.07148
#
# Poissons Ratio (x) = 0.23605 0.13655
# Poissons Ratio (y) = 0.47926 0.56280
# Poissons Ratio (z) = 0.20342 0.41292
#
# Static dielectric constant tensor:
#      x y z
#    x 1.572550 0.000000 0.000000 
#    y 0.000000 1.914520 0.000000 
#    z 0.000000 0.000000 1.685340 
# 
# From -- ./inp_files/2569.got.cif
#   From: 2010.05.17/outbox.cif.g08.bks.cpg/sg61_2_cif.got.tgz:2569.got - 2010.06.03 15:17:17.
