data_PCOD9460909
_publ_section_title
;
Structure prediction by ZEFSAII (Michael W. Deem and Ramdas Pophale) SiO2 
 PCOD9460909
Probable space group: P B C A
;
_chemical_formula_sum "Si O2"
_cell_formula_units_Z 56
_cell_length_a 11.299439
_cell_length_b 13.832526
_cell_length_c 15.989023
_cell_angle_alpha 90.000000
_cell_angle_beta 90.000000
_cell_angle_gamma 90.000000
_cell_volume 2499.080837
_symmetry_space_group_name_H-M "P B C A"
_symmetry_group_IT_number 61
_symmetry_cell_setting 'orthorhombic'
loop_
_space_group_symop_operation_xyz
x,y,z
1/2-x,-y,1/2+z
1/2+x,1/2-y,-z
-x,1/2+y,1/2-z
-x,-y,-z
1/2+x,y,1/2-z
1/2-x,1/2+y,z
x,1/2-y,1/2+z
loop_
_atom_site_type_symbol
_atom_site_label
_atom_site_fract_x
_atom_site_fract_y
_atom_site_fract_z
Si Si1 0.264028 0.080484 0.320626
Si Si2 0.747595 0.146108 0.501878
Si Si3 0.457474 0.552128 0.915357
Si Si4 0.844260 0.785997 0.378960
Si Si5 0.874516 0.950305 0.515199
Si Si6 0.392713 0.226015 0.848115
Si Si7 0.330377 0.078026 0.711963
O O1 0.314435 0.187628 0.310925
O O2 0.371066 0.016294 0.360302
O O3 0.160535 0.078043 0.390592
O O4 0.216283 0.026780 0.238852
O O5 0.624127 0.141203 0.553529
O O6 0.734511 0.200310 0.415140
O O7 0.782961 0.034727 0.489735
O O8 0.842347 0.199935 0.560446
O O9 0.571096 0.577850 0.859928
O O10 0.500000 0.500000 0.000000
O O11 0.778567 0.853630 0.313318
O O12 0.970277 0.746048 0.350521
O O13 0.864834 0.857264 0.457550
O O14 0.000000 0.000000 0.500000
O O15 0.383306 0.128580 0.794413
#
# Coordination Sequence:
#
# PCOD9460909 Si02
#       7
#     8   8   8   8   8   8   8
#     4  11  24  45  69 104 145 192 238 303 369 431
#     4  11  24  43  70 105 138 187 246 293 369 433
#     4  11  24  46  74  99 145 191 239 298 364 445
#     4  12  26  44  74 105 140 190 247 301 364 444
#     4  11  21  42  72 101 141 187 237 297 360 441
#     4  12  25  44  70 105 147 185 240 306 359 436
#     4  12  26  47  71 106 144 188 243 301 369 432
#
# _framework density 22.408238999999998
#
# number of rings (size 3 to 8) (size 9 to 14) (size 15 to 20)
#    0.000    0.571    5.714    3.429    2.000    3.429 
#    0.000    0.000    0.000    0.000    0.000    0.000 
#    0.000    0.000    0.000    0.000    0.000    0.000 
#
# Total GULP energy -313466.221843 kJ/mol
# GULP energy per Si atom -5597.611104 kJ/mol
# Density = 2.235724 g / cm^3
# Si number density = 22.408239 Si / 1000 Ang^3
#
#
#
# Elastic Constant Matrix: (Units=GPa)
#
#
# Indices 1 2 3 4 5 6 
#
# 1 101.9500 1.1136 25.4870 0.0000 0.0000 0.0000
# 2 1.1136 77.0244 8.7305 0.0000 0.0000 0.0000
# 3 25.4870 8.7305 56.1887 0.0000 0.0000 0.0000
# 4 0.0000 0.0000 0.0000 42.7081 0.0000 0.0000
# 5 0.0000 0.0000 0.0000 0.0000 16.7044 0.0000
# 6 0.0000 0.0000 0.0000 0.0000 0.0000 30.9033
#
#
#
# Elastic Compliance Matrix: (Units=1/GPa)
#
#
# Indices 1 2 3 4 5 6 
#
# 1 0.011076 0.000417 -0.005089 0.000000 0.000000 0.000000
# 2 0.000417 0.013231 -0.002245 0.000000 0.000000 0.000000
# 3 -0.005089 -0.002245 0.020454 0.000000 0.000000 0.000000
# 4 0.000000 0.000000 0.000000 0.023415 0.000000 0.000000
# 5 0.000000 0.000000 0.000000 0.000000 0.059864 0.000000
# 6 0.000000 0.000000 0.000000 0.000000 0.000000 0.032359
#
#
# Mechanical properties :
#
#
# Convention : Reuss Voigt Hill
#
# Bulk Modulus (GPa) = 32.33343 33.98059 33.15701
# Shear Modulus (GPa) = 27.09385 31.38529 29.23957
#
# Velocity S-wave (km/s) = 3.48099 3.74654 3.61620
# Velocity P-wave (km/s) = 5.53326 5.82346 5.68021
#
# Compressibility (1/GPa) = 0.03092774
#
# Stress axis : x y z
#
# Youngs Moduli (GPa) = 90.28210 75.57821 48.88940
#
# Poissons Ratio (x) = -0.03149 0.24880
# Poissons Ratio (y) = -0.03762 0.10975
# Poissons Ratio (z) = 0.45944 0.16966
#
# Static dielectric constant tensor:
#      x y z
#    x 1.850120 0.000000 0.000000 
#    y 0.000000 1.825600 0.000000 
#    z 0.000000 0.000000 1.824030 
# 
# From -- ./inp_files/7531.got.cif
#   From: 2010.05.17/outbox.cif.g08.bks.cpg/sg61_4_cif.got.tgz:7531.got - 2010.06.03 15:17:17.
