data_PCOD9460803
_publ_section_title
;
Structure prediction by ZEFSAII (Michael W. Deem and Ramdas Pophale) SiO2 
 PCOD9460803
Probable space group: P B C A
;
_chemical_formula_sum "Si O2"
_cell_formula_units_Z 40
_cell_length_a 14.350643
_cell_length_b 9.137773
_cell_length_c 10.946029
_cell_angle_alpha 90.000000
_cell_angle_beta 90.000000
_cell_angle_gamma 90.000000
_cell_volume 1435.384725
_symmetry_space_group_name_H-M "P B C A"
_symmetry_group_IT_number 61
_symmetry_cell_setting 'orthorhombic'
loop_
_space_group_symop_operation_xyz
x,y,z
1/2-x,-y,1/2+z
1/2+x,1/2-y,-z
-x,1/2+y,1/2-z
-x,-y,-z
1/2+x,y,1/2-z
1/2-x,1/2+y,z
x,1/2-y,1/2+z
loop_
_atom_site_type_symbol
_atom_site_label
_atom_site_fract_x
_atom_site_fract_y
_atom_site_fract_z
Si Si1 0.771911 0.233070 0.532246
Si Si2 0.186286 0.030338 0.319819
Si Si3 0.831617 0.006982 0.362280
Si Si4 0.561976 0.226912 0.323098
Si Si5 0.955096 0.240669 0.921579
O O1 0.691030 0.338278 0.580229
O O2 0.850796 0.316154 0.453206
O O3 0.820178 0.138530 0.641621
O O4 0.755988 0.087974 0.449285
O O5 0.105000 0.078365 0.230012
O O6 0.290859 0.048779 0.268407
O O7 0.852548 0.837671 0.346652
O O8 0.926842 0.086259 0.403422
O O9 0.504726 0.292877 0.206671
O O10 0.510670 0.211555 0.453061
#
# Coordination Sequence:
#
# PCOD9460803 Si02
#       5
#     8   8   8   8   8
#     4  10  26  46  72 105 152 193 245 311 369 443
#     4  12  24  45  74 108 144 194 256 305 372 447
#     4  10  25  43  71 104 150 192 250 303 376 444
#     4  12  24  46  74 108 140 205 239 312 376 440
#     4  10  26  47  73 102 158 188 249 308 381 440
#
# _framework density 27.867093000000001
#
# number of rings (size 3 to 8) (size 9 to 14) (size 15 to 20)
#    1.200    0.000    2.000    3.000    8.400    0.000 
#    0.000    4.000    0.000    0.000    0.000    0.000 
#    0.000    0.000    0.000    0.000    0.000    0.000 
#
# Total GULP energy -222935.870633 kJ/mol
# GULP energy per Si atom -5573.396766 kJ/mol
# Density = 2.780367 g / cm^3
# Si number density = 27.867093 Si / 1000 Ang^3
#
#
#
# Elastic Constant Matrix: (Units=GPa)
#
#
# Indices 1 2 3 4 5 6 
#
# 1 64.5842 19.0008 51.5593 0.0000 0.0000 0.0000
# 2 19.0008 138.7319 14.6889 0.0000 0.0000 0.0000
# 3 51.5593 14.6889 165.8096 0.0000 0.0000 0.0000
# 4 0.0000 0.0000 0.0000 29.2112 0.0000 0.0000
# 5 0.0000 0.0000 0.0000 0.0000 66.3254 0.0000
# 6 0.0000 0.0000 0.0000 0.0000 0.0000 41.4251
#
#
#
# Elastic Compliance Matrix: (Units=1/GPa)
#
#
# Indices 1 2 3 4 5 6 
#
# 1 0.021260 -0.002233 -0.006413 0.000000 0.000000 0.000000
# 2 -0.002233 0.007511 0.000029 0.000000 0.000000 0.000000
# 3 -0.006413 0.000029 0.008023 0.000000 0.000000 0.000000
# 4 0.000000 0.000000 0.000000 0.034233 0.000000 0.000000
# 5 0.000000 0.000000 0.000000 0.000000 0.015077 0.000000
# 6 0.000000 0.000000 0.000000 0.000000 0.000000 0.024140
#
#
# Mechanical properties :
#
#
# Convention : Reuss Voigt Hill
#
# Bulk Modulus (GPa) = 51.12539 59.95817 55.54178
# Shear Modulus (GPa) = 37.31380 46.31746 41.81563
#
# Velocity S-wave (km/s) = 3.66319 4.08129 3.87788
# Velocity P-wave (km/s) = 6.02312 6.61602 6.32652
#
# Compressibility (1/GPa) = 0.01955975
#
# Stress axis : x y z
#
# Youngs Moduli (GPa) = 47.03582 133.13995 124.64676
#
# Poissons Ratio (x) = 0.29728 0.79939
# Poissons Ratio (y) = 0.10502 -0.00360
# Poissons Ratio (z) = 0.30165 -0.00385
#
# Static dielectric constant tensor:
#      x y z
#    x 2.177830 0.000000 0.000000 
#    y 0.000000 2.108370 0.000000 
#    z 0.000000 0.000000 2.476320 
# 
# From -- ./inp_files/5559.got.cif
#   From: 2010.05.17/outbox.cif.g08.bks.cpg/sg61_3_cif.got.tgz:5559.got - 2010.06.03 15:17:17.
