data_PCOD9460541
_publ_section_title
;
Structure prediction by ZEFSAII (Michael W. Deem and Ramdas Pophale) SiO2 
 PCOD9460541
Probable space group: P B C A
;
_chemical_formula_sum "Si O2"
_cell_formula_units_Z 40
_cell_length_a 20.890147
_cell_length_b 9.524401
_cell_length_c 9.242595
_cell_angle_alpha 90.000000
_cell_angle_beta 90.000000
_cell_angle_gamma 90.000000
_cell_volume 1838.963423
_symmetry_space_group_name_H-M "P B C A"
_symmetry_group_IT_number 61
_symmetry_cell_setting 'orthorhombic'
loop_
_space_group_symop_operation_xyz
x,y,z
1/2-x,-y,1/2+z
1/2+x,1/2-y,-z
-x,1/2+y,1/2-z
-x,-y,-z
1/2+x,y,1/2-z
1/2-x,1/2+y,z
x,1/2-y,1/2+z
loop_
_atom_site_type_symbol
_atom_site_label
_atom_site_fract_x
_atom_site_fract_y
_atom_site_fract_z
Si Si1 0.997795 0.853222 0.084989
Si Si2 0.718543 0.718010 0.744353
Si Si3 0.862913 0.169900 0.005736
Si Si4 0.669499 0.482193 0.255437
Si Si5 0.546964 0.396600 0.413123
O O1 0.069257 0.790531 0.060468
O O2 0.983221 0.867101 0.254345
O O3 0.950568 0.745822 0.005508
O O4 0.000000 0.000000 0.000000
O O5 0.671716 0.713767 0.605751
O O6 0.685122 0.638614 0.876230
O O7 0.787638 0.652557 0.722336
O O8 0.715707 0.883805 0.783601
O O9 0.868170 0.037871 0.113852
O O10 0.617519 0.455367 0.378891
O O11 0.500000 0.500000 0.500000
#
# Coordination Sequence:
#
# PCOD9460541 Si02
#       5
#     8   8   8   8   8
#     4  12  23  45  74 102 144 191 235 303 364 432
#     4  10  23  41  69  95 141 183 240 290 360 428
#     4  10  23  43  67  99 140 180 239 285 366 416
#     4  10  25  43  68 104 143 185 240 298 360 435
#     4  12  26  47  72 112 144 187 249 302 371 444
#
# _framework density 21.751383000000001
#
# number of rings (size 3 to 8) (size 9 to 14) (size 15 to 20)
#    1.200    0.000    2.000    3.600    2.800    3.200 
#    0.000    0.000    0.000    0.000    0.000    0.000 
#    0.000    0.000    0.000    0.000    0.000    0.000 
#
# Total GULP energy -223232.584487 kJ/mol
# GULP energy per Si atom -5580.814612 kJ/mol
# Density = 2.170188 g / cm^3
# Si number density = 21.751383 Si / 1000 Ang^3
#
#
#
# Elastic Constant Matrix: (Units=GPa)
#
#
# Indices 1 2 3 4 5 6 
#
# 1 92.4558 46.8691 26.4169 0.0000 0.0000 0.0000
# 2 46.8691 115.4528 37.8461 0.0000 0.0000 0.0000
# 3 26.4169 37.8461 138.1454 0.0000 0.0000 0.0000
# 4 0.0000 0.0000 0.0000 28.5146 0.0000 0.0000
# 5 0.0000 0.0000 0.0000 0.0000 28.5506 0.0000
# 6 0.0000 0.0000 0.0000 0.0000 0.0000 39.0754
#
#
#
# Elastic Compliance Matrix: (Units=1/GPa)
#
#
# Indices 1 2 3 4 5 6 
#
# 1 0.013801 -0.005205 -0.001213 0.000000 0.000000 0.000000
# 2 -0.005205 0.011479 -0.002149 0.000000 0.000000 0.000000
# 3 -0.001213 -0.002149 0.008060 0.000000 0.000000 0.000000
# 4 0.000000 0.000000 0.000000 0.035070 0.000000 0.000000
# 5 0.000000 0.000000 0.000000 0.000000 0.035026 0.000000
# 6 0.000000 0.000000 0.000000 0.000000 0.000000 0.025592
#
#
# Mechanical properties :
#
#
# Convention : Reuss Voigt Hill
#
# Bulk Modulus (GPa) = 61.71082 63.14647 62.42864
# Shear Modulus (GPa) = 32.98938 34.88956 33.93947
#
# Velocity S-wave (km/s) = 3.89865 4.00936 3.95439
# Velocity P-wave (km/s) = 6.97844 7.10826 7.04365
#
# Compressibility (1/GPa) = 0.01620461
#
# Stress axis : x y z
#
# Youngs Moduli (GPa) = 72.45733 87.11409 124.07540
#
# Poissons Ratio (x) = 0.45343 0.15053
# Poissons Ratio (y) = 0.37714 0.26670
# Poissons Ratio (z) = 0.08790 0.18725
#
# Static dielectric constant tensor:
#      x y z
#    x 1.803910 0.000000 0.000000 
#    y 0.000000 1.836110 0.000000 
#    z 0.000000 0.000000 1.782850 
# 
# From -- ./inp_files/4410.got.cif
#   From: 2010.05.17/outbox.cif.g08.bks.cpg/sg61_3_cif.got.tgz:4410.got - 2010.06.03 15:17:17.
