data_PCOD9460342
_publ_section_title
;
Structure prediction by ZEFSAII (Michael W. Deem and Ramdas Pophale) SiO2 
 PCOD9460342
Probable space group: P B C A
;
_chemical_formula_sum "Si O2"
_cell_formula_units_Z 64
_cell_length_a 25.817480
_cell_length_b 13.501671
_cell_length_c 9.700264
_cell_angle_alpha 90.000000
_cell_angle_beta 90.000000
_cell_angle_gamma 90.000000
_cell_volume 3381.309499
_symmetry_space_group_name_H-M "P B C A"
_symmetry_group_IT_number 61
_symmetry_cell_setting 'orthorhombic'
loop_
_space_group_symop_operation_xyz
x,y,z
1/2-x,-y,1/2+z
1/2+x,1/2-y,-z
-x,1/2+y,1/2-z
-x,-y,-z
1/2+x,y,1/2-z
1/2-x,1/2+y,z
x,1/2-y,1/2+z
loop_
_atom_site_type_symbol
_atom_site_label
_atom_site_fract_x
_atom_site_fract_y
_atom_site_fract_z
Si Si1 0.103479 0.035268 0.120590
Si Si2 0.207113 0.351572 0.053794
Si Si3 0.151490 0.538299 0.178981
Si Si4 0.596650 0.781763 0.971470
Si Si5 0.071597 0.102551 0.831533
Si Si6 0.455865 0.144531 0.755541
Si Si7 0.322036 0.111341 0.467212
Si Si8 0.849288 0.721017 0.220796
O O1 0.122748 0.130298 0.203071
O O2 0.073931 0.956656 0.215831
O O3 0.068362 0.066871 0.989897
O O4 0.152422 0.978407 0.053107
O O5 0.184442 0.459120 0.093463
O O6 0.188864 0.276891 0.173421
O O7 0.268447 0.356297 0.034315
O O8 0.181266 0.316557 0.911969
O O9 0.102183 0.481005 0.245086
O O10 0.184248 0.576848 0.309664
O O11 0.130160 0.628589 0.089869
O O12 0.559794 0.820900 0.092409
O O13 0.636173 0.699631 0.030352
O O14 0.564340 0.727719 0.851436
O O15 0.108020 0.198952 0.825846
O O16 0.016369 0.126340 0.766941
#
# Coordination Sequence:
#
# PCOD9460342 Si02
#       8
#     8   8   8   8   8   8   8   8
#     4  10  22  42  61  91 128 162 210 259 313 374
#     4  11  25  39  67  92 123 170 209 253 323 373
#     4  10  23  45  62  94 133 161 212 270 307 377
#     4  11  23  43  63  97 128 162 216 264 310 379
#     4  10  23  42  65  93 133 162 206 269 314 375
#     4  11  24  38  69  95 123 175 209 253 326 375
#     4  10  24  42  63  92 128 164 205 269 314 369
#     4  11  23  43  62  96 127 162 212 261 309 380
#
# _framework density 18.927579000000001
#
# number of rings (size 3 to 8) (size 9 to 14) (size 15 to 20)
#    0.000    1.500    2.500    1.125    5.250    1.500 
#    0.000    0.000    0.000    0.000    0.000    0.000 
#    0.000    0.000    0.000    0.000    0.000    0.000 
#
# Total GULP energy -357823.429924 kJ/mol
# GULP energy per Si atom -5590.991093 kJ/mol
# Density = 1.888450 g / cm^3
# Si number density = 18.927579 Si / 1000 Ang^3
#
#
#
# Elastic Constant Matrix: (Units=GPa)
#
#
# Indices 1 2 3 4 5 6 
#
# 1 52.6717 -9.5261 -0.5255 0.0000 0.0000 0.0000
# 2 -9.5261 74.2719 10.6336 0.0000 0.0000 0.0000
# 3 -0.5255 10.6336 51.0222 0.0000 0.0000 0.0000
# 4 0.0000 0.0000 0.0000 15.5822 0.0000 0.0000
# 5 0.0000 0.0000 0.0000 0.0000 15.0294 0.0000
# 6 0.0000 0.0000 0.0000 0.0000 0.0000 6.0196
#
#
#
# Elastic Compliance Matrix: (Units=1/GPa)
#
#
# Indices 1 2 3 4 5 6 
#
# 1 0.019442 0.002541 -0.000329 0.000000 0.000000 0.000000
# 2 0.002541 0.014210 -0.002935 0.000000 0.000000 0.000000
# 3 -0.000329 -0.002935 0.020208 0.000000 0.000000 0.000000
# 4 0.000000 0.000000 0.000000 0.064176 0.000000 0.000000
# 5 0.000000 0.000000 0.000000 0.000000 0.066536 0.000000
# 6 0.000000 0.000000 0.000000 0.000000 0.000000 0.166125
#
#
# Mechanical properties :
#
#
# Convention : Reuss Voigt Hill
#
# Bulk Modulus (GPa) = 19.07970 19.90332 19.49151
# Shear Modulus (GPa) = 13.52759 19.15180 16.33970
#
# Velocity S-wave (km/s) = 2.67629 3.18440 2.94134
# Velocity P-wave (km/s) = 4.43309 4.90499 4.67500
#
# Compressibility (1/GPa) = 0.05241173
#
# Stress axis : x y z
#
# Youngs Moduli (GPa) = 51.43564 70.37204 49.48616
#
# Poissons Ratio (x) = -0.17880 0.01630
# Poissons Ratio (y) = -0.13068 0.14526
# Poissons Ratio (z) = 0.01694 0.20657
#
# Static dielectric constant tensor:
#      x y z
#    x 1.612840 0.000000 0.000000 
#    y 0.000000 1.640830 0.000000 
#    z 0.000000 0.000000 1.638790 
# 
# From -- ./inp_files/4621.got.cif
#   From: 2010.05.17/outbox.cif.g08.bks.cpg/sg61_3_cif.got.tgz:4621.got - 2010.06.03 15:17:17.
