data_PCOD9460091
_publ_section_title
;
Structure prediction by ZEFSAII (Michael W. Deem and Ramdas Pophale) SiO2 
 PCOD9460091
Probable space group: P B C A
;
_chemical_formula_sum "Si O2"
_cell_formula_units_Z 64
_cell_length_a 17.997319
_cell_length_b 12.094423
_cell_length_c 15.131685
_cell_angle_alpha 90.000000
_cell_angle_beta 90.000000
_cell_angle_gamma 90.000000
_cell_volume 3293.671337
_symmetry_space_group_name_H-M "P B C A"
_symmetry_group_IT_number 61
_symmetry_cell_setting 'orthorhombic'
loop_
_space_group_symop_operation_xyz
x,y,z
1/2-x,-y,1/2+z
1/2+x,1/2-y,-z
-x,1/2+y,1/2-z
-x,-y,-z
1/2+x,y,1/2-z
1/2-x,1/2+y,z
x,1/2-y,1/2+z
loop_
_atom_site_type_symbol
_atom_site_label
_atom_site_fract_x
_atom_site_fract_y
_atom_site_fract_z
Si Si1 0.186271 0.952484 0.786553
Si Si2 0.832300 0.660532 0.612011
Si Si3 0.843340 0.594093 0.182365
Si Si4 0.834378 0.103255 0.549577
Si Si5 0.496223 0.340572 0.088829
Si Si6 0.085920 0.885831 0.636564
Si Si7 0.091671 0.832927 0.909901
Si Si8 0.488478 0.960620 0.723962
O O1 0.271844 0.949703 0.766875
O O2 0.147119 0.877152 0.713659
O O3 0.164818 0.901901 0.882447
O O4 0.162695 0.078880 0.802705
O O5 0.826740 0.785668 0.644572
O O6 0.754934 0.628576 0.560980
O O7 0.914979 0.654033 0.568023
O O8 0.853218 0.506667 0.103567
O O9 0.911557 0.590941 0.247787
O O10 0.867598 0.089832 0.451307
O O11 0.880975 0.207004 0.588688
O O12 0.466799 0.220268 0.120528
O O13 0.482152 0.429584 0.165789
O O14 0.446263 0.363992 0.002548
O O15 0.032959 0.976780 0.683398
O O16 0.033338 0.872368 0.835801
#
# Coordination Sequence:
#
# PCOD9460091 Si02
#       8
#     8   8   8   8   8   8   8   8
#     4  10  22  42  65  83 133 166 207 264 321 377
#     4  11  21  40  64  90 125 167 211 263 310 391
#     4  11  24  40  62  96 123 170 212 262 322 383
#     4  10  24  42  65  88 134 173 204 263 338 377
#     4  11  22  39  66  98 129 167 215 267 322 384
#     4  10  22  42  62  96 126 170 208 263 325 384
#     4  10  21  42  64  89 128 171 207 259 325 382
#     4  11  23  37  67  94 128 162 218 266 314 385
#
# _framework density 19.431204999999999
#
# number of rings (size 3 to 8) (size 9 to 14) (size 15 to 20)
#    0.000    1.500    5.000    0.375    3.500    1.500 
#    2.250    1.250    0.000    0.000    0.000    0.000 
#    0.000    0.000    0.000    0.000    0.000    0.000 
#
# Total GULP energy -356278.259540 kJ/mol
# GULP energy per Si atom -5566.847805 kJ/mol
# Density = 1.938698 g / cm^3
# Si number density = 19.431205 Si / 1000 Ang^3
#
#
#
# Elastic Constant Matrix: (Units=GPa)
#
#
# Indices 1 2 3 4 5 6 
#
# 1 92.3375 6.9308 41.3807 0.0000 0.0000 0.0000
# 2 6.9308 92.4099 38.9856 0.0000 0.0000 0.0000
# 3 41.3807 38.9856 82.1181 0.0000 0.0000 0.0000
# 4 0.0000 0.0000 0.0000 18.6571 0.0000 0.0000
# 5 0.0000 0.0000 0.0000 0.0000 17.5886 0.0000
# 6 0.0000 0.0000 0.0000 0.0000 0.0000 31.3903
#
#
#
# Elastic Compliance Matrix: (Units=1/GPa)
#
#
# Indices 1 2 3 4 5 6 
#
# 1 0.014431 0.002483 -0.008450 0.000000 0.000000 0.000000
# 2 0.002483 0.013959 -0.007878 0.000000 0.000000 0.000000
# 3 -0.008450 -0.007878 0.020176 0.000000 0.000000 0.000000
# 4 0.000000 0.000000 0.000000 0.053599 0.000000 0.000000
# 5 0.000000 0.000000 0.000000 0.000000 0.056855 0.000000
# 6 0.000000 0.000000 0.000000 0.000000 0.000000 0.031857
#
#
# Mechanical properties :
#
#
# Convention : Reuss Voigt Hill
#
# Bulk Modulus (GPa) = 47.90697 49.05108 48.47902
# Shear Modulus (GPa) = 22.17048 25.49845 23.83446
#
# Velocity S-wave (km/s) = 3.38149 3.62642 3.50610
# Velocity P-wave (km/s) = 6.32093 6.54468 6.43378
#
# Compressibility (1/GPa) = 0.02087379
#
# Stress axis : x y z
#
# Youngs Moduli (GPa) = 69.29759 71.64003 49.56385
#
# Poissons Ratio (x) = -0.17786 0.41884
# Poissons Ratio (y) = -0.17205 0.39046
# Poissons Ratio (z) = 0.58560 0.56438
#
# Static dielectric constant tensor:
#      x y z
#    x 1.755130 0.000000 0.000000 
#    y 0.000000 1.698050 0.000000 
#    z 0.000000 0.000000 1.678840 
# 
# From -- ./inp_files/8220.got.cif
#   From: 2010.05.17/outbox.cif.g08.bks.cpg/sg61_5_cif.got.tgz:8220.got - 2010.06.03 15:17:17.
