data_PCOD9460773
_publ_section_title
;
Structure prediction by ZEFSAII (Michael W. Deem and Ramdas Pophale) SiO2 
 PCOD9460773
Probable space group: P B C A
;
_chemical_formula_sum "Si O2"
_cell_formula_units_Z 60
_cell_length_a 9.658332
_cell_length_b 14.417743
_cell_length_c 17.025581
_cell_angle_alpha 90.000000
_cell_angle_beta 90.000000
_cell_angle_gamma 90.000000
_cell_volume 2370.835115
_symmetry_space_group_name_H-M "P B C A"
_symmetry_group_IT_number 61
_symmetry_cell_setting 'orthorhombic'
loop_
_space_group_symop_operation_xyz
x,y,z
1/2-x,-y,1/2+z
1/2+x,1/2-y,-z
-x,1/2+y,1/2-z
-x,-y,-z
1/2+x,y,1/2-z
1/2-x,1/2+y,z
x,1/2-y,1/2+z
loop_
_atom_site_type_symbol
_atom_site_label
_atom_site_fract_x
_atom_site_fract_y
_atom_site_fract_z
Si Si1 0.240422 0.141635 0.420626
Si Si2 0.810342 0.592334 0.708352
Si Si3 0.999015 0.532524 0.379408
Si Si4 0.000000 0.000000 0.500000
Si Si5 0.221693 0.047054 0.569934
Si Si6 0.312424 0.898883 0.741798
Si Si7 0.619768 0.823603 0.081477
Si Si8 0.167298 0.276852 0.153237
O O1 0.389781 0.092165 0.425115
O O2 0.157896 0.074825 0.481166
O O3 0.190543 0.134632 0.331556
O O4 0.266826 0.246731 0.444177
O O5 0.760160 0.499818 0.754880
O O6 0.681086 0.632482 0.660917
O O7 0.867486 0.668997 0.766471
O O8 0.923351 0.560783 0.645095
O O9 0.855320 0.514901 0.422918
O O10 0.961719 0.582269 0.297087
O O11 0.073770 0.007887 0.593033
O O12 0.902700 0.096671 0.518811
O O13 0.256932 0.146482 0.606901
O O14 0.261953 0.817592 0.682672
O O15 0.474753 0.772143 0.103348
#
# Coordination Sequence:
#
# PCOD9460773 Si02
#       8
#     8   8   8   4   8   8   8   8
#     4  11  24  44  72 103 140 181 243 304 353 439
#     4  11  23  42  71 103 137 183 236 308 347 437
#     4  11  23  44  72 103 139 186 239 299 366 437
#     4  10  24  46  68  94 144 188 216 288 358 430
#     4  11  25  47  69 107 139 188 233 293 371 441
#     4  11  22  42  70 104 133 186 234 297 363 427
#     4  11  23  45  67  99 143 184 240 291 358 428
#     4  11  23  42  70  99 141 180 238 292 358 433
#
# _framework density 25.307537
#
# number of rings (size 3 to 8) (size 9 to 14) (size 15 to 20)
#    0.000    1.067    4.000    2.800    0.000    2.133 
#    4.800    0.000    0.000    0.000    0.000    0.000 
#    0.000    0.000    0.000    0.000    0.000    0.000 
#
# Total GULP energy -334495.301400 kJ/mol
# GULP energy per Si atom -5574.921690 kJ/mol
# Density = 2.524994 g / cm^3
# Si number density = 25.307537 Si / 1000 Ang^3
#
#
#
# Elastic Constant Matrix: (Units=GPa)
#
#
# Indices 1 2 3 4 5 6 
#
# 1 99.2758 29.4083 17.4692 0.0000 0.0000 0.0000
# 2 29.4083 140.1479 41.0535 0.0000 0.0000 0.0000
# 3 17.4692 41.0535 68.7685 0.0000 0.0000 0.0000
# 4 0.0000 0.0000 0.0000 47.4287 0.0000 0.0000
# 5 0.0000 0.0000 0.0000 0.0000 50.7152 0.0000
# 6 0.0000 0.0000 0.0000 0.0000 0.0000 39.8412
#
#
#
# Elastic Compliance Matrix: (Units=1/GPa)
#
#
# Indices 1 2 3 4 5 6 
#
# 1 0.010902 -0.001789 -0.001701 0.000000 0.000000 0.000000
# 2 -0.001789 0.008941 -0.004883 0.000000 0.000000 0.000000
# 3 -0.001701 -0.004883 0.017889 0.000000 0.000000 0.000000
# 4 0.000000 0.000000 0.000000 0.021084 0.000000 0.000000
# 5 0.000000 0.000000 0.000000 0.000000 0.019718 0.000000
# 6 0.000000 0.000000 0.000000 0.000000 0.000000 0.025100
#
#
# Mechanical properties :
#
#
# Convention : Reuss Voigt Hill
#
# Bulk Modulus (GPa) = 47.65360 53.78380 50.71870
# Shear Modulus (GPa) = 39.25355 42.28110 40.76733
#
# Velocity S-wave (km/s) = 3.94262 4.09184 4.01793
# Velocity P-wave (km/s) = 6.29257 6.60473 6.45054
#
# Compressibility (1/GPa) = 0.02098477
#
# Stress axis : x y z
#
# Youngs Moduli (GPa) = 91.72303 111.84153 55.90063
#
# Poissons Ratio (x) = 0.20013 0.09510
# Poissons Ratio (y) = 0.16413 0.27297
# Poissons Ratio (z) = 0.15605 0.54614
#
# Static dielectric constant tensor:
#      x y z
#    x 2.033220 0.000000 0.000000 
#    y 0.000000 2.073570 0.000000 
#    z 0.000000 0.000000 2.136850 
# 
# From -- ./inp_files/9247.got.cif
#   From: 2010.05.17/outbox.cif.g08.bks.cpg/sg61_5_cif.got.tgz:9247.got - 2010.06.03 15:17:17.
