data_PCOD9460595
_publ_section_title
;
Structure prediction by ZEFSAII (Michael W. Deem and Ramdas Pophale) SiO2 
 PCOD9460595
Probable space group: P B C A
;
_chemical_formula_sum "Si O2"
_cell_formula_units_Z 40
_cell_length_a 10.420074
_cell_length_b 9.802244
_cell_length_c 16.062555
_cell_angle_alpha 90.000000
_cell_angle_beta 90.000000
_cell_angle_gamma 90.000000
_cell_volume 1640.631100
_symmetry_space_group_name_H-M "P B C A"
_symmetry_group_IT_number 61
_symmetry_cell_setting 'orthorhombic'
loop_
_space_group_symop_operation_xyz
x,y,z
1/2-x,-y,1/2+z
1/2+x,1/2-y,-z
-x,1/2+y,1/2-z
-x,-y,-z
1/2+x,y,1/2-z
1/2-x,1/2+y,z
x,1/2-y,1/2+z
loop_
_atom_site_type_symbol
_atom_site_label
_atom_site_fract_x
_atom_site_fract_y
_atom_site_fract_z
Si Si1 0.483587 0.354417 0.038036
Si Si2 0.507571 0.384811 0.427922
Si Si3 0.043532 0.572969 0.212645
Si Si4 0.731859 0.775296 0.343384
Si Si5 0.626794 0.330096 0.187820
O O1 0.378241 0.357675 0.110093
O O2 0.612447 0.309785 0.089042
O O3 0.500000 0.500000 0.000000
O O4 0.440067 0.244031 0.970243
O O5 0.500000 0.500000 0.500000
O O6 0.465724 0.471154 0.347659
O O7 0.640471 0.314188 0.394581
O O8 0.171683 0.622532 0.162289
O O9 0.082056 0.483896 0.291369
O O10 0.962561 0.709022 0.226272
O O11 0.750348 0.812796 0.246403
#
# Coordination Sequence:
#
# PCOD9460595 Si02
#       5
#     8   8   8   8   8
#     4  11  26  46  73 112 147 191 251 311 365 441
#     4  11  22  45  74 102 148 189 243 307 368 441
#     4  10  23  44  69 102 140 194 237 306 360 446
#     4  10  24  44  72 101 147 192 238 302 373 439
#     4  10  23  43  70  99 140 190 242 291 367 440
#
# _framework density 24.380862
#
# number of rings (size 3 to 8) (size 9 to 14) (size 15 to 20)
#    0.000    1.600    4.000    0.000   11.200    3.200 
#    3.600   10.000    0.000    0.000    0.000    0.000 
#    0.000    0.000    0.000    0.000    0.000    0.000 
#
# Total GULP energy -222917.164582 kJ/mol
# GULP energy per Si atom -5572.929115 kJ/mol
# Density = 2.432537 g / cm^3
# Si number density = 24.380862 Si / 1000 Ang^3
#
#
#
# Elastic Constant Matrix: (Units=GPa)
#
#
# Indices 1 2 3 4 5 6 
#
# 1 67.3454 30.2801 37.1346 0.0000 0.0000 0.0000
# 2 30.2801 152.9075 15.6225 0.0000 0.0000 0.0000
# 3 37.1346 15.6225 70.7841 0.0000 0.0000 0.0000
# 4 0.0000 0.0000 0.0000 63.4306 0.0000 0.0000
# 5 0.0000 0.0000 0.0000 0.0000 46.2785 0.0000
# 6 0.0000 0.0000 0.0000 0.0000 0.0000 21.3783
#
#
#
# Elastic Compliance Matrix: (Units=1/GPa)
#
#
# Indices 1 2 3 4 5 6 
#
# 1 0.022421 -0.003313 -0.011031 0.000000 0.000000 0.000000
# 2 -0.003313 0.007180 0.000153 0.000000 0.000000 0.000000
# 3 -0.011031 0.000153 0.019881 0.000000 0.000000 0.000000
# 4 0.000000 0.000000 0.000000 0.015765 0.000000 0.000000
# 5 0.000000 0.000000 0.000000 0.000000 0.021608 0.000000
# 6 0.000000 0.000000 0.000000 0.000000 0.000000 0.046776
#
#
# Mechanical properties :
#
#
# Convention : Reuss Voigt Hill
#
# Bulk Modulus (GPa) = 47.39269 50.79017 49.09143
# Shear Modulus (GPa) = 29.57744 40.08413 34.83078
#
# Velocity S-wave (km/s) = 3.48680 4.05913 3.78380
# Velocity P-wave (km/s) = 5.97420 6.54568 6.26645
#
# Compressibility (1/GPa) = 0.02110030
#
# Stress axis : x y z
#
# Youngs Moduli (GPa) = 44.60076 139.26997 50.29961
#
# Poissons Ratio (x) = 0.46140 0.55487
# Poissons Ratio (y) = 0.14776 -0.00771
# Poissons Ratio (z) = 0.49201 -0.02135
#
# Static dielectric constant tensor:
#      x y z
#    x 2.147830 0.000000 0.000000 
#    y 0.000000 1.908430 0.000000 
#    z 0.000000 0.000000 1.986250 
# 
# From -- ./inp_files/9103.got.cif
#   From: 2010.05.17/outbox.cif.g08.bks.cpg/sg61_5_cif.got.tgz:9103.got - 2010.06.03 15:17:17.
