data_PCOD9460580
_publ_section_title
;
Structure prediction by ZEFSAII (Michael W. Deem and Ramdas Pophale) SiO2 
 PCOD9460580
Probable space group: P B C A
;
_chemical_formula_sum "Si O2"
_cell_formula_units_Z 64
_cell_length_a 14.706426
_cell_length_b 12.724458
_cell_length_c 17.077987
_cell_angle_alpha 90.000000
_cell_angle_beta 90.000000
_cell_angle_gamma 90.000000
_cell_volume 3195.825908
_symmetry_space_group_name_H-M "P B C A"
_symmetry_group_IT_number 61
_symmetry_cell_setting 'orthorhombic'
loop_
_space_group_symop_operation_xyz
x,y,z
1/2-x,-y,1/2+z
1/2+x,1/2-y,-z
-x,1/2+y,1/2-z
-x,-y,-z
1/2+x,y,1/2-z
1/2-x,1/2+y,z
x,1/2-y,1/2+z
loop_
_atom_site_type_symbol
_atom_site_label
_atom_site_fract_x
_atom_site_fract_y
_atom_site_fract_z
Si Si1 0.394912 0.033942 0.803081
Si Si2 0.561975 0.484491 0.423753
Si Si3 0.938210 0.594463 0.527682
Si Si4 0.618224 0.252546 0.399531
Si Si5 0.889161 0.793743 0.719291
Si Si6 0.446144 0.316463 0.160903
Si Si7 0.259685 0.654829 0.896437
Si Si8 0.814551 0.310094 0.942797
O O1 0.488406 0.024615 0.853238
O O2 0.411101 0.113444 0.731575
O O3 0.311891 0.082773 0.851839
O O4 0.367468 0.916738 0.777585
O O5 0.500000 0.500000 0.500000
O O6 0.614258 0.373183 0.426917
O O7 0.632832 0.581083 0.425405
O O8 0.942935 0.685901 0.461141
O O9 0.832400 0.586701 0.552710
O O10 0.000000 0.500000 0.500000
O O11 0.982690 0.619641 0.610426
O O12 0.600628 0.250878 0.306949
O O13 0.715016 0.196176 0.406496
O O14 0.816648 0.731127 0.663179
O O15 0.991705 0.781487 0.686616
O O16 0.369826 0.279507 0.101524
O O17 0.200937 0.711339 0.964803
#
# Coordination Sequence:
#
# PCOD9460580 Si02
#       8
#     8   8   8   8   8   8   8   8
#     4  12  24  44  72  98 139 186 236 296 365 436
#     4  12  24  43  72 102 134 187 235 285 366 438
#     4  10  23  43  66  96 140 182 227 286 357 424
#     4  11  25  44  69 102 142 180 242 298 356 437
#     4  11  24  45  65 102 142 179 233 299 358 433
#     4  11  23  42  68  98 135 183 232 289 356 428
#     4  10  25  42  67 104 137 184 237 290 357 429
#     4  11  24  42  69  99 134 180 235 296 352 427
#
# _framework density 20.026122000000001
#
# number of rings (size 3 to 8) (size 9 to 14) (size 15 to 20)
#    0.000    1.000    3.750    2.250    3.500    5.000 
#    0.000    0.000    0.000    0.000    0.000    0.000 
#    0.000    0.000    0.000    0.000    0.000    0.000 
#
# Total GULP energy -356723.162876 kJ/mol
# GULP energy per Si atom -5573.799420 kJ/mol
# Density = 1.998054 g / cm^3
# Si number density = 20.026122 Si / 1000 Ang^3
#
#
#
# Elastic Constant Matrix: (Units=GPa)
#
#
# Indices 1 2 3 4 5 6 
#
# 1 87.1336 44.8781 43.4632 0.0000 0.0000 0.0000
# 2 44.8781 98.5453 27.1817 0.0000 0.0000 0.0000
# 3 43.4632 27.1817 100.7466 0.0000 0.0000 0.0000
# 4 0.0000 0.0000 0.0000 28.1781 0.0000 0.0000
# 5 0.0000 0.0000 0.0000 0.0000 39.6383 0.0000
# 6 0.0000 0.0000 0.0000 0.0000 0.0000 36.1991
#
#
#
# Elastic Compliance Matrix: (Units=1/GPa)
#
#
# Indices 1 2 3 4 5 6 
#
# 1 0.017751 -0.006452 -0.005917 0.000000 0.000000 0.000000
# 2 -0.006452 0.013309 -0.000807 0.000000 0.000000 0.000000
# 3 -0.005917 -0.000807 0.012697 0.000000 0.000000 0.000000
# 4 0.000000 0.000000 0.000000 0.035489 0.000000 0.000000
# 5 0.000000 0.000000 0.000000 0.000000 0.025228 0.000000
# 6 0.000000 0.000000 0.000000 0.000000 0.000000 0.027625
#
#
# Mechanical properties :
#
#
# Convention : Reuss Voigt Hill
#
# Bulk Modulus (GPa) = 57.46030 57.49681 57.47856
# Shear Modulus (GPa) = 30.44102 32.19661 31.31882
#
# Velocity S-wave (km/s) = 3.90303 4.01400 3.95891
# Velocity P-wave (km/s) = 7.00475 7.08916 7.04708
#
# Compressibility (1/GPa) = 0.01740332
#
# Stress axis : x y z
#
# Youngs Moduli (GPa) = 56.33390 75.13995 78.76181
#
# Poissons Ratio (x) = 0.48479 0.46606
# Poissons Ratio (y) = 0.36346 0.06358
# Poissons Ratio (z) = 0.33335 0.06066
#
# Static dielectric constant tensor:
#      x y z
#    x 1.262750 0.000000 0.000000 
#    y 0.000000 1.808780 0.000000 
#    z 0.000000 0.000000 1.818180 
# 
# From -- ./inp_files/9540.got.cif
#   From: 2010.05.17/outbox.cif.g08.bks.cpg/sg61_5_cif.got.tgz:9540.got - 2010.06.03 15:17:17.
