data_PCOD9460189
_publ_section_title
;
Structure prediction by ZEFSAII (Michael W. Deem and Ramdas Pophale) SiO2 
 PCOD9460189
Probable space group: P B C A
;
_chemical_formula_sum "Si O2"
_cell_formula_units_Z 56
_cell_length_a 28.696368
_cell_length_b 5.204392
_cell_length_c 14.450111
_cell_angle_alpha 90.000000
_cell_angle_beta 90.000000
_cell_angle_gamma 90.000000
_cell_volume 2158.082867
_symmetry_space_group_name_H-M "P B C A"
_symmetry_group_IT_number 61
_symmetry_cell_setting 'orthorhombic'
loop_
_space_group_symop_operation_xyz
x,y,z
1/2-x,-y,1/2+z
1/2+x,1/2-y,-z
-x,1/2+y,1/2-z
-x,-y,-z
1/2+x,y,1/2-z
1/2-x,1/2+y,z
x,1/2-y,1/2+z
loop_
_atom_site_type_symbol
_atom_site_label
_atom_site_fract_x
_atom_site_fract_y
_atom_site_fract_z
Si Si1 0.586463 0.191064 0.019473
Si Si2 0.621816 0.592525 0.229368
Si Si3 0.179146 0.420216 0.424071
Si Si4 0.775065 0.822968 0.422318
Si Si5 0.640826 0.802608 0.920223
Si Si6 0.440071 0.665818 0.162927
Si Si7 0.960659 0.107173 0.658185
O O1 0.633959 0.236676 0.074088
O O2 0.547707 0.141251 0.094696
O O3 0.581403 0.395975 0.937449
O O4 0.594782 0.929159 0.962937
O O5 0.670788 0.538391 0.176856
O O6 0.632124 0.786859 0.315021
O O7 0.594066 0.354657 0.277886
O O8 0.585041 0.708572 0.154522
O O9 0.221230 0.250638 0.466358
O O10 0.167949 0.632269 0.504068
O O11 0.758959 0.546836 0.386389
O O12 0.825218 0.945941 0.403356
O O13 0.488833 0.795801 0.133812
O O14 0.458762 0.453901 0.233185
#
# Coordination Sequence:
#
# PCOD9460189 Si02
#       7
#     8   8   8   8   8   8   8
#     4  10  22  37  60  90 126 174 233 279 344 414
#     4  11  23  40  63  94 132 171 231 280 334 415
#     4  11  21  42  68  97 130 178 219 276 346 408
#     4  11  23  45  75 100 137 173 212 272 339 414
#     4  10  22  41  67  98 130 178 219 276 342 409
#     4  11  23  38  56  87 129 176 229 292 344 395
#     4  12  21  39  59  88 129 179 233 295 349 396
#
# _framework density 25.948958000000001
#
# number of rings (size 3 to 8) (size 9 to 14) (size 15 to 20)
#    0.000    1.143    5.714    1.286    0.000    0.000 
#    0.000    2.857    0.000    0.000    0.000    0.000 
#    0.000    0.000    0.000    0.000    0.000    0.000 
#
# Total GULP energy -312191.448247 kJ/mol
# GULP energy per Si atom -5574.847290 kJ/mol
# Density = 2.588990 g / cm^3
# Si number density = 25.948958 Si / 1000 Ang^3
#
#
#
# Elastic Constant Matrix: (Units=GPa)
#
#
# Indices 1 2 3 4 5 6 
#
# 1 39.3354 -0.8081 -6.2866 0.0000 0.0000 0.0000
# 2 -0.8081 78.7898 2.7814 0.0000 0.0000 0.0000
# 3 -6.2866 2.7814 105.8597 0.0000 0.0000 0.0000
# 4 0.0000 0.0000 0.0000 29.7753 0.0000 0.0000
# 5 0.0000 0.0000 0.0000 0.0000 29.9129 0.0000
# 6 0.0000 0.0000 0.0000 0.0000 0.0000 28.8202
#
#
#
# Elastic Compliance Matrix: (Units=1/GPa)
#
#
# Indices 1 2 3 4 5 6 
#
# 1 0.025669 0.000210 0.001519 0.000000 0.000000 0.000000
# 2 0.000210 0.012705 -0.000321 0.000000 0.000000 0.000000
# 3 0.001519 -0.000321 0.009545 0.000000 0.000000 0.000000
# 4 0.000000 0.000000 0.000000 0.033585 0.000000 0.000000
# 5 0.000000 0.000000 0.000000 0.000000 0.033430 0.000000
# 6 0.000000 0.000000 0.000000 0.000000 0.000000 0.034698
#
#
# Mechanical properties :
#
#
# Convention : Reuss Voigt Hill
#
# Bulk Modulus (GPa) = 19.71048 23.92869 21.81959
# Shear Modulus (GPa) = 30.53801 32.92156 31.72978
#
# Velocity S-wave (km/s) = 3.43425 3.56575 3.50062
# Velocity P-wave (km/s) = 4.83092 5.11803 4.97654
#
# Compressibility (1/GPa) = 0.05073443
#
# Stress axis : x y z
#
# Youngs Moduli (GPa) = 38.95684 78.70609 104.76572
#
# Poissons Ratio (x) = -0.01650 -0.15913
# Poissons Ratio (y) = -0.00817 0.03367
# Poissons Ratio (z) = -0.05917 0.02529
#
# Static dielectric constant tensor:
#      x y z
#    x 2.138040 0.000000 0.000000 
#    y 0.000000 2.215300 0.000000 
#    z 0.000000 0.000000 2.098300 
# 
# From -- ./inp_files/604.got.cif
#   From: 2010.05.17/outbox.cif.g08.bks.cpg/sg61_1_cif.got.tgz:604.got - 2010.06.03 15:17:17.
