data_PCOD9460487
_publ_section_title
;
Structure prediction by ZEFSAII (Michael W. Deem and Ramdas Pophale) SiO2 
 PCOD9460487
Probable space group: P B C A
;
_chemical_formula_sum "Si O2"
_cell_formula_units_Z 48
_cell_length_a 5.242336
_cell_length_b 12.543630
_cell_length_c 27.240715
_cell_angle_alpha 90.000000
_cell_angle_beta 90.000000
_cell_angle_gamma 90.000000
_cell_volume 1791.292843
_symmetry_space_group_name_H-M "P B C A"
_symmetry_group_IT_number 61
_symmetry_cell_setting 'orthorhombic'
loop_
_space_group_symop_operation_xyz
x,y,z
1/2-x,-y,1/2+z
1/2+x,1/2-y,-z
-x,1/2+y,1/2-z
-x,-y,-z
1/2+x,y,1/2-z
1/2-x,1/2+y,z
x,1/2-y,1/2+z
loop_
_atom_site_type_symbol
_atom_site_label
_atom_site_fract_x
_atom_site_fract_y
_atom_site_fract_z
Si Si1 0.758372 0.554352 0.730985
Si Si2 0.915528 0.900234 0.392718
Si Si3 0.658597 0.769660 0.470096
Si Si4 0.933022 0.563726 0.347219
Si Si5 0.690185 0.226586 0.114586
Si Si6 0.806150 0.242908 0.804202
O O1 0.474675 0.508623 0.732575
O O2 0.891661 0.526269 0.679487
O O3 0.189705 0.670082 0.744165
O O4 0.761807 0.875193 0.442608
O O5 0.825966 0.827844 0.346561
O O6 0.188521 0.842088 0.400205
O O7 0.812734 0.012876 0.373443
O O8 0.916799 0.720206 0.493357
O O9 0.530219 0.706125 0.424948
O O10 0.853961 0.649414 0.305574
O O11 0.105095 0.631989 0.384553
O O12 0.575018 0.232343 0.169460
#
# Coordination Sequence:
#
# PCOD9460487 Si02
#       6
#     8   8   8   8   8   8
#     4  12  29  48  72 106 153 201 269 327 388 460
#     4  10  22  47  78 108 158 212 255 325 407 475
#     4  11  22  45  81 116 153 209 257 325 406 489
#     4  11  26  47  75 111 155 212 274 328 404 475
#     4  10  24  47  79 113 163 207 266 332 408 485
#     4  10  25  46  73 106 153 207 265 331 392 468
#
# _framework density 26.796288000000001
#
# number of rings (size 3 to 8) (size 9 to 14) (size 15 to 20)
#    0.000    1.333    3.333    0.000    7.000    4.000 
#    0.000    1.667    0.000    0.000    0.000    0.000 
#    0.000    0.000    0.000    0.000    0.000    0.000 
#
# Total GULP energy -267761.018621 kJ/mol
# GULP energy per Si atom -5578.354555 kJ/mol
# Density = 2.673530 g / cm^3
# Si number density = 26.796288 Si / 1000 Ang^3
#
#
#
# Elastic Constant Matrix: (Units=GPa)
#
#
# Indices 1 2 3 4 5 6 
#
# 1 168.5256 45.8735 51.1845 0.0000 0.0000 0.0000
# 2 45.8735 122.8003 52.9278 0.0000 0.0000 0.0000
# 3 51.1845 52.9278 121.2876 0.0000 0.0000 0.0000
# 4 0.0000 0.0000 0.0000 27.8145 0.0000 0.0000
# 5 0.0000 0.0000 0.0000 0.0000 73.1774 0.0000
# 6 0.0000 0.0000 0.0000 0.0000 0.0000 46.2612
#
#
#
# Elastic Compliance Matrix: (Units=1/GPa)
#
#
# Indices 1 2 3 4 5 6 
#
# 1 0.007074 -0.001670 -0.002256 0.000000 0.000000 0.000000
# 2 -0.001670 0.010424 -0.003844 0.000000 0.000000 0.000000
# 3 -0.002256 -0.003844 0.010875 0.000000 0.000000 0.000000
# 4 0.000000 0.000000 0.000000 0.035952 0.000000 0.000000
# 5 0.000000 0.000000 0.000000 0.000000 0.013665 0.000000
# 6 0.000000 0.000000 0.000000 0.000000 0.000000 0.021616
#
#
# Mechanical properties :
#
#
# Convention : Reuss Voigt Hill
#
# Bulk Modulus (GPa) = 77.93431 79.17612 78.55521
# Shear Modulus (GPa) = 41.86742 46.95914 44.41328
#
# Velocity S-wave (km/s) = 3.95705 4.19077 4.07559
# Velocity P-wave (km/s) = 7.07282 7.28205 7.17820
#
# Compressibility (1/GPa) = 0.01283132
#
# Stress axis : x y z
#
# Youngs Moduli (GPa) = 141.36867 95.93288 91.95731
#
# Poissons Ratio (x) = 0.16020 0.20750
# Poissons Ratio (y) = 0.23607 0.35349
# Poissons Ratio (z) = 0.31899 0.36878
#
# Static dielectric constant tensor:
#      x y z
#    x 2.304090 0.000000 0.000000 
#    y 0.000000 2.208670 0.000000 
#    z 0.000000 0.000000 2.135930 
# 
# From -- ./inp_files/11582.got.cif
#   From: 2010.05.17/outbox.cif.g08.bks.cpg/sg61_6_cif.got.tgz:11582.got - 2010.06.03 15:17:17.
