data_PCOD9460606
_publ_section_title
;
Structure prediction by ZEFSAII (Michael W. Deem and Ramdas Pophale) SiO2 
 PCOD9460606
Probable space group: P B C A
;
_chemical_formula_sum "Si O2"
_cell_formula_units_Z 60
_cell_length_a 10.124351
_cell_length_b 9.173391
_cell_length_c 24.274393
_cell_angle_alpha 90.000000
_cell_angle_beta 90.000000
_cell_angle_gamma 90.000000
_cell_volume 2254.475277
_symmetry_space_group_name_H-M "P B C A"
_symmetry_group_IT_number 61
_symmetry_cell_setting 'orthorhombic'
loop_
_space_group_symop_operation_xyz
x,y,z
1/2-x,-y,1/2+z
1/2+x,1/2-y,-z
-x,1/2+y,1/2-z
-x,-y,-z
1/2+x,y,1/2-z
1/2-x,1/2+y,z
x,1/2-y,1/2+z
loop_
_atom_site_type_symbol
_atom_site_label
_atom_site_fract_x
_atom_site_fract_y
_atom_site_fract_z
Si Si1 0.308722 0.752696 0.766428
Si Si2 0.210505 0.966850 0.412970
Si Si3 0.884389 0.310620 0.637005
Si Si4 0.246333 0.010599 0.187575
Si Si5 0.895210 0.715116 0.442008
Si Si6 0.996073 0.826216 0.642448
Si Si7 0.500000 0.000000 0.000000
Si Si8 0.129900 0.888059 0.074893
O O1 0.174404 0.789296 0.801779
O O2 0.339599 0.887399 0.726844
O O3 0.294995 0.614200 0.728341
O O4 0.426192 0.737421 0.809602
O O5 0.344949 0.036415 0.390683
O O6 0.099074 0.039694 0.372815
O O7 0.206927 0.798258 0.398952
O O8 0.150267 0.001652 0.472146
O O9 0.033916 0.277107 0.618797
O O10 0.366413 0.106002 0.162909
O O11 0.172976 0.942247 0.135897
O O12 0.979204 0.832885 0.475736
O O13 0.893835 0.542106 0.456052
O O14 0.750000 0.783440 0.443147
O O15 0.016899 0.729246 0.588225
#
# Coordination Sequence:
#
# PCOD9460606 Si02
#       8
#     8   8   8   8   8   8   4   8
#     4  11  25  38  66  97 136 188 247 296 346 411
#     4  10  23  45  73  98 140 181 227 297 369 432
#     4  10  23  44  66 103 140 185 231 299 361 418
#     4  12  23  41  60 101 133 190 242 298 337 424
#     4  11  26  45  76  99 143 184 233 299 366 439
#     4  11  25  42  67  95 148 189 243 296 369 426
#     4  10  24  48  76 106 128 176 226 292 352 440
#     4  12  25  46  67 101 144 193 234 290 377 424
#
# _framework density 26.613731999999999
#
# number of rings (size 3 to 8) (size 9 to 14) (size 15 to 20)
#    0.000    1.067    2.667    3.200    7.467    4.267 
#    0.000    0.667    0.000    0.000    0.000    0.000 
#    0.000    0.000    0.000    0.000    0.000    0.000 
#
# Total GULP energy -334846.247898 kJ/mol
# GULP energy per Si atom -5580.770798 kJ/mol
# Density = 2.655316 g / cm^3
# Si number density = 26.613732 Si / 1000 Ang^3
#
#
#
# Elastic Constant Matrix: (Units=GPa)
#
#
# Indices 1 2 3 4 5 6 
#
# 1 63.3261 17.4204 17.7758 0.0000 0.0000 0.0000
# 2 17.4204 87.0011 15.0025 0.0000 0.0000 0.0000
# 3 17.7758 15.0025 89.7400 0.0000 0.0000 0.0000
# 4 0.0000 0.0000 0.0000 48.2732 0.0000 0.0000
# 5 0.0000 0.0000 0.0000 0.0000 38.2590 0.0000
# 6 0.0000 0.0000 0.0000 0.0000 0.0000 40.2580
#
#
#
# Elastic Compliance Matrix: (Units=1/GPa)
#
#
# Indices 1 2 3 4 5 6 
#
# 1 0.017442 -0.002983 -0.002956 0.000000 0.000000 0.000000
# 2 -0.002983 0.012345 -0.001473 0.000000 0.000000 0.000000
# 3 -0.002956 -0.001473 0.011975 0.000000 0.000000 0.000000
# 4 0.000000 0.000000 0.000000 0.020715 0.000000 0.000000
# 5 0.000000 0.000000 0.000000 0.000000 0.026138 0.000000
# 6 0.000000 0.000000 0.000000 0.000000 0.000000 0.024840
#
#
# Mechanical properties :
#
#
# Convention : Reuss Voigt Hill
#
# Bulk Modulus (GPa) = 37.12187 37.82939 37.47563
# Shear Modulus (GPa) = 36.42773 38.01594 37.22184
#
# Velocity S-wave (km/s) = 3.70369 3.78356 3.74384
# Velocity P-wave (km/s) = 5.68053 5.77341 5.72715
#
# Compressibility (1/GPa) = 0.02693830
#
# Stress axis : x y z
#
# Youngs Moduli (GPa) = 57.33432 81.00227 83.50635
#
# Poissons Ratio (x) = 0.24160 0.24686
# Poissons Ratio (y) = 0.17100 0.12301
# Poissons Ratio (z) = 0.16949 0.11932
#
# Static dielectric constant tensor:
#      x y z
#    x 2.073090 0.000000 0.000000 
#    y 0.000000 2.099900 0.000000 
#    z 0.000000 0.000000 2.112220 
# 
# From -- ./inp_files/11459.got.cif
#   From: 2010.05.17/outbox.cif.g08.bks.cpg/sg61_6_cif.got.tgz:11459.got - 2010.06.03 15:17:17.
