data_PCOD9460495
_publ_section_title
;
Structure prediction by ZEFSAII (Michael W. Deem and Ramdas Pophale) SiO2 
 PCOD9460495
Probable space group: P B C A
;
_chemical_formula_sum "Si O2"
_cell_formula_units_Z 36
_cell_length_a 12.339562
_cell_length_b 7.843484
_cell_length_c 14.076279
_cell_angle_alpha 90.000000
_cell_angle_beta 90.000000
_cell_angle_gamma 90.000000
_cell_volume 1362.374875
_symmetry_space_group_name_H-M "P B C A"
_symmetry_group_IT_number 61
_symmetry_cell_setting 'orthorhombic'
loop_
_space_group_symop_operation_xyz
x,y,z
1/2-x,-y,1/2+z
1/2+x,1/2-y,-z
-x,1/2+y,1/2-z
-x,-y,-z
1/2+x,y,1/2-z
1/2-x,1/2+y,z
x,1/2-y,1/2+z
loop_
_atom_site_type_symbol
_atom_site_label
_atom_site_fract_x
_atom_site_fract_y
_atom_site_fract_z
Si Si1 0.000000 0.500000 0.000000
Si Si2 0.999284 0.118163 0.296868
Si Si3 0.650750 0.374646 0.108924
Si Si4 0.680573 0.801379 0.489810
Si Si5 0.329338 0.130218 0.729000
O O1 0.981280 0.511739 0.883277
O O2 0.101787 0.640394 0.995732
O O3 0.045384 0.286431 0.349578
O O4 0.895505 0.195708 0.245568
O O5 0.094089 0.035688 0.235908
O O6 0.703833 0.235713 0.038438
O O7 0.632021 0.538041 0.045010
O O8 0.735023 0.393845 0.194932
O O9 0.702216 0.842229 0.379986
#
# Coordination Sequence:
#
# PCOD9460495 Si02
#       5
#     4   8   8   8   8
#     4  10  22  50  70 106 148 200 262 326 400 472
#     4  11  26  46  75 108 158 205 267 332 399 478
#     4  12  25  50  73 113 158 208 263 336 393 481
#     4  11  25  45  78 108 155 208 260 329 405 474
#     4  11  27  46  74 115 154 210 265 335 397 485
#
# _framework density 26.424443
#
# number of rings (size 3 to 8) (size 9 to 14) (size 15 to 20)
#    0.000    0.889    4.444    0.000    6.222    5.333 
#    4.000    0.000    0.000    0.000    0.000    0.000 
#    0.000    0.000    0.000    0.000    0.000    0.000 
#
# Total GULP energy -200992.588186 kJ/mol
# GULP energy per Si atom -5583.127450 kJ/mol
# Density = 2.636430 g / cm^3
# Si number density = 26.424443 Si / 1000 Ang^3
#
#
#
# Elastic Constant Matrix: (Units=GPa)
#
#
# Indices 1 2 3 4 5 6 
#
# 1 46.9962 15.9014 24.7019 0.0000 0.0000 0.0000
# 2 15.9014 83.3255 40.6931 0.0000 0.0000 0.0000
# 3 24.7019 40.6931 128.2626 0.0000 0.0000 0.0000
# 4 0.0000 0.0000 0.0000 -18.4316 0.0000 0.0000
# 5 0.0000 0.0000 0.0000 0.0000 29.5499 0.0000
# 6 0.0000 0.0000 0.0000 0.0000 0.0000 53.2563
#
#
#
# Elastic Compliance Matrix: (Units=1/GPa)
#
#
# Indices 1 2 3 4 5 6 
#
# 1 0.024204 -0.002772 -0.003782 0.000000 0.000000 0.000000
# 2 -0.002772 0.014519 -0.004072 0.000000 0.000000 0.000000
# 3 -0.003782 -0.004072 0.009817 0.000000 0.000000 0.000000
# 4 0.000000 0.000000 0.000000 -0.054255 0.000000 0.000000
# 5 0.000000 0.000000 0.000000 0.000000 0.033841 0.000000
# 6 0.000000 0.000000 0.000000 0.000000 0.000000 0.018777
#
#
# Mechanical properties :
#
#
# Convention : Reuss Voigt Hill
#
# Bulk Modulus (GPa) = 36.64741 46.79746 41.72244
# Shear Modulus (GPa) = 64.72325 24.69414 44.70869
#
# Velocity S-wave (km/s) = 4.95448 3.06031 4.11779
# Velocity P-wave (km/s) = 6.82847 5.49870 6.19934
#
# Compressibility (1/GPa) = 0.02728705
#
# Stress axis : x y z
#
# Youngs Moduli (GPa) = 41.31535 68.87546 101.86492
#
# Poissons Ratio (x) = 0.19092 0.38525
# Poissons Ratio (y) = 0.11453 0.41484
# Poissons Ratio (z) = 0.15625 0.28049
#
# Static dielectric constant tensor:
#      x y z
#    x 1.967390 0.000000 0.000000 
#    y 0.000000 2.051910 0.000000 
#    z 0.000000 0.000000 2.020990 
# 
# From -- ./inp_files/5526.got.cif
#   From: 2010.05.17/outbox.cif.g08.bks.cpg/sg61_3_cif.got.tgz:5526.got - 2010.06.03 15:17:17.
