data_PCOD9460654
_publ_section_title
;
Structure prediction by ZEFSAII (Michael W. Deem and Ramdas Pophale) SiO2 
 PCOD9460654
Probable space group: P B C A
;
_chemical_formula_sum "Si O2"
_cell_formula_units_Z 40
_cell_length_a 9.029375
_cell_length_b 11.314416
_cell_length_c 16.958179
_cell_angle_alpha 90.000000
_cell_angle_beta 90.000000
_cell_angle_gamma 90.000000
_cell_volume 1732.483263
_symmetry_space_group_name_H-M "P B C A"
_symmetry_group_IT_number 61
_symmetry_cell_setting 'orthorhombic'
loop_
_space_group_symop_operation_xyz
x,y,z
1/2-x,-y,1/2+z
1/2+x,1/2-y,-z
-x,1/2+y,1/2-z
-x,-y,-z
1/2+x,y,1/2-z
1/2-x,1/2+y,z
x,1/2-y,1/2+z
loop_
_atom_site_type_symbol
_atom_site_label
_atom_site_fract_x
_atom_site_fract_y
_atom_site_fract_z
Si Si1 0.179727 0.131477 0.481229
Si Si2 0.641162 0.636316 0.875641
Si Si3 0.757200 0.010472 0.240930
Si Si4 0.496808 0.628132 0.336552
Si Si5 0.679646 0.390479 0.079012
O O1 0.208364 0.148965 0.574098
O O2 0.234142 0.260498 0.447977
O O3 0.028288 0.111863 0.430974
O O4 0.261136 0.006994 0.464258
O O5 0.658709 0.535262 0.812412
O O6 0.590421 0.753269 0.830151
O O7 0.498237 0.613167 0.930154
O O8 0.782347 0.916619 0.170731
O O9 0.668528 0.117934 0.199203
O O10 0.908887 0.037861 0.285577
#
# Coordination Sequence:
#
# PCOD9460654 Si02
#       5
#     8   8   8   8   8
#     4  10  24  46  70 100 153 185 249 288 376 430
#     4  11  24  42  71 103 146 191 242 299 368 435
#     4  11  23  44  71 103 143 186 251 300 364 434
#     4  10  25  44  69 106 142 190 243 303 362 430
#     4  10  23  46  66 105 140 195 234 304 357 436
#
# _framework density 23.088246000000002
#
# number of rings (size 3 to 8) (size 9 to 14) (size 15 to 20)
#    0.000    1.600    2.000    0.600   11.200    0.800 
#   10.800    0.000    0.000    0.000    0.000    0.000 
#    0.000    0.000    0.000    0.000    0.000    0.000 
#
# Total GULP energy -222670.138489 kJ/mol
# GULP energy per Si atom -5566.753462 kJ/mol
# Density = 2.303570 g / cm^3
# Si number density = 23.088246 Si / 1000 Ang^3
#
#
#
# Elastic Constant Matrix: (Units=GPa)
#
#
# Indices 1 2 3 4 5 6 
#
# 1 57.0648 13.2123 30.2238 0.0000 0.0000 0.0000
# 2 13.2123 117.8952 48.6125 0.0000 0.0000 0.0000
# 3 30.2238 48.6125 77.0205 0.0000 0.0000 0.0000
# 4 0.0000 0.0000 0.0000 27.3479 0.0000 0.0000
# 5 0.0000 0.0000 0.0000 0.0000 26.3204 0.0000
# 6 0.0000 0.0000 0.0000 0.0000 0.0000 11.5774
#
#
#
# Elastic Compliance Matrix: (Units=1/GPa)
#
#
# Indices 1 2 3 4 5 6 
#
# 1 0.022316 0.001500 -0.009704 0.000000 0.000000 0.000000
# 2 0.001500 0.011567 -0.007890 0.000000 0.000000 0.000000
# 3 -0.009704 -0.007890 0.021771 0.000000 0.000000 0.000000
# 4 0.000000 0.000000 0.000000 0.036566 0.000000 0.000000
# 5 0.000000 0.000000 0.000000 0.000000 0.037993 0.000000
# 6 0.000000 0.000000 0.000000 0.000000 0.000000 0.086375
#
#
# Mechanical properties :
#
#
# Convention : Reuss Voigt Hill
#
# Bulk Modulus (GPa) = 42.61120 48.45305 45.53213
# Shear Modulus (GPa) = 19.48574 23.71126 21.59850
#
# Velocity S-wave (km/s) = 2.90826 3.20814 3.06187
# Velocity P-wave (km/s) = 5.45648 5.89529 5.68012
#
# Compressibility (1/GPa) = 0.02346801
#
# Stress axis : x y z
#
# Youngs Moduli (GPa) = 44.81037 86.45217 45.93230
#
# Poissons Ratio (x) = -0.12972 0.44574
# Poissons Ratio (y) = -0.06724 0.36238
# Poissons Ratio (z) = 0.43485 0.68207
#
# Static dielectric constant tensor:
#      x y z
#    x 1.922640 0.000000 0.000000 
#    y 0.000000 1.892010 0.000000 
#    z 0.000000 0.000000 1.903460 
# 
# From -- ./inp_files/2123.got.cif
#   From: 2010.05.17/outbox.cif.g08.bks.cpg/sg61_2_cif.got.tgz:2123.got - 2010.06.03 15:17:17.
