data_PCOD9460937
_publ_section_title
;
Structure prediction by ZEFSAII (Michael W. Deem and Ramdas Pophale) SiO2 
 PCOD9460937
Probable space group: P B C A
;
_chemical_formula_sum "Si O2"
_cell_formula_units_Z 48
_cell_length_a 17.656777
_cell_length_b 9.202413
_cell_length_c 13.301055
_cell_angle_alpha 90.000000
_cell_angle_beta 90.000000
_cell_angle_gamma 90.000000
_cell_volume 2161.221313
_symmetry_space_group_name_H-M "P B C A"
_symmetry_group_IT_number 61
_symmetry_cell_setting 'orthorhombic'
loop_
_space_group_symop_operation_xyz
x,y,z
1/2-x,-y,1/2+z
1/2+x,1/2-y,-z
-x,1/2+y,1/2-z
-x,-y,-z
1/2+x,y,1/2-z
1/2-x,1/2+y,z
x,1/2-y,1/2+z
loop_
_atom_site_type_symbol
_atom_site_label
_atom_site_fract_x
_atom_site_fract_y
_atom_site_fract_z
Si Si1 0.996821 0.241694 0.608419
Si Si2 0.295384 0.067461 0.662085
Si Si3 0.589988 0.299123 0.081599
Si Si4 0.161268 0.614885 0.445100
Si Si5 0.967022 0.044766 0.783552
Si Si6 0.717520 0.202743 0.220166
O O1 0.915333 0.289475 0.562577
O O2 0.990991 0.094470 0.672421
O O3 0.058819 0.231409 0.520816
O O4 0.019310 0.378856 0.680821
O O5 0.293932 0.127156 0.549768
O O6 0.380697 0.092939 0.701022
O O7 0.235218 0.140375 0.735678
O O8 0.285276 0.897539 0.681556
O O9 0.636707 0.446046 0.057778
O O10 0.518170 0.359029 0.142266
O O11 0.642001 0.200730 0.153044
O O12 0.214658 0.656564 0.353006
#
# Coordination Sequence:
#
# PCOD9460937 Si02
#       6
#     8   8   8   8   8   8
#     4  11  22  44  73  99 135 184 228 279 347 407
#     4  12  25  45  69 100 138 183 228 287 348 408
#     4  11  23  44  69 100 135 182 228 276 347 411
#     4  11  23  44  68  98 141 184 217 289 350 405
#     4  11  22  42  72  98 135 180 230 279 340 407
#     4  12  27  44  70 105 138 180 236 285 347 416
#
# _framework density 22.209664
#
# number of rings (size 3 to 8) (size 9 to 14) (size 15 to 20)
#    0.000    0.667    6.667    2.000    2.333    0.000 
#    0.000    5.000    0.000    0.000    0.000    0.000 
#    0.000    0.000    0.000    0.000    0.000    0.000 
#
# Total GULP energy -268395.385075 kJ/mol
# GULP energy per Si atom -5591.570522 kJ/mol
# Density = 2.215911 g / cm^3
# Si number density = 22.209664 Si / 1000 Ang^3
#
#
#
# Elastic Constant Matrix: (Units=GPa)
#
#
# Indices 1 2 3 4 5 6 
#
# 1 44.9143 4.1939 23.9119 0.0000 0.0000 0.0000
# 2 4.1939 35.8379 20.6685 0.0000 0.0000 0.0000
# 3 23.9119 20.6685 99.1672 0.0000 0.0000 0.0000
# 4 0.0000 0.0000 0.0000 27.4680 0.0000 0.0000
# 5 0.0000 0.0000 0.0000 0.0000 47.6960 0.0000
# 6 0.0000 0.0000 0.0000 0.0000 0.0000 17.1148
#
#
#
# Elastic Compliance Matrix: (Units=1/GPa)
#
#
# Indices 1 2 3 4 5 6 
#
# 1 0.025557 0.000640 -0.006296 0.000000 0.000000 0.000000
# 2 0.000640 0.031732 -0.006768 0.000000 0.000000 0.000000
# 3 -0.006296 -0.006768 0.013013 0.000000 0.000000 0.000000
# 4 0.000000 0.000000 0.000000 0.036406 0.000000 0.000000
# 5 0.000000 0.000000 0.000000 0.000000 0.020966 0.000000
# 6 0.000000 0.000000 0.000000 0.000000 0.000000 0.058429
#
#
# Mechanical properties :
#
#
# Convention : Reuss Voigt Hill
#
# Bulk Modulus (GPa) = 22.00030 30.82978 26.41504
# Shear Modulus (GPa) = 22.11406 27.19878 24.65642
#
# Velocity S-wave (km/s) = 3.15889 3.50328 3.33553
# Velocity P-wave (km/s) = 4.81996 5.50230 5.17239
#
# Compressibility (1/GPa) = 0.04545393
#
# Stress axis : x y z
#
# Youngs Moduli (GPa) = 39.12867 31.51428 76.84836
#
# Poissons Ratio (x) = -0.02018 0.48383
# Poissons Ratio (y) = -0.02505 0.52010
# Poissons Ratio (z) = 0.24635 0.21329
#
# Static dielectric constant tensor:
#      x y z
#    x 1.804720 0.000000 0.000000 
#    y 0.000000 1.808610 0.000000 
#    z 0.000000 0.000000 1.821890 
# 
# From -- ./inp_files/8119.got.cif
#   From: 2010.05.17/outbox.cif.g08.bks.cpg/sg61_5_cif.got.tgz:8119.got - 2010.06.03 15:17:17.
