data_PCOD9460359
_publ_section_title
;
Structure prediction by ZEFSAII (Michael W. Deem and Ramdas Pophale) SiO2 
 PCOD9460359
Probable space group: P B C A
;
_chemical_formula_sum "Si O2"
_cell_formula_units_Z 52
_cell_length_a 14.374534
_cell_length_b 8.489519
_cell_length_c 15.361825
_cell_angle_alpha 90.000000
_cell_angle_beta 90.000000
_cell_angle_gamma 90.000000
_cell_volume 1874.647739
_symmetry_space_group_name_H-M "P B C A"
_symmetry_group_IT_number 61
_symmetry_cell_setting 'orthorhombic'
loop_
_space_group_symop_operation_xyz
x,y,z
1/2-x,-y,1/2+z
1/2+x,1/2-y,-z
-x,1/2+y,1/2-z
-x,-y,-z
1/2+x,y,1/2-z
1/2-x,1/2+y,z
x,1/2-y,1/2+z
loop_
_atom_site_type_symbol
_atom_site_label
_atom_site_fract_x
_atom_site_fract_y
_atom_site_fract_z
Si Si1 0.199251 0.362214 0.694423
Si Si2 0.500000 0.500000 0.000000
Si Si3 0.676160 0.359855 0.054985
Si Si4 0.120430 0.050779 0.642208
Si Si5 0.000554 0.317086 0.939325
Si Si6 0.453533 0.123855 0.737945
Si Si7 0.680408 0.808015 0.641461
O O1 0.289911 0.442733 0.653945
O O2 0.117562 0.482847 0.718204
O O3 0.162199 0.223003 0.634172
O O4 0.239610 0.287984 0.783718
O O5 0.610917 0.452445 0.986170
O O6 0.473686 0.312266 0.988975
O O7 0.611638 0.203683 0.069619
O O8 0.779142 0.291775 0.060012
O O9 0.674195 0.505928 0.123765
O O10 0.054295 0.979016 0.568159
O O11 0.050327 0.060990 0.724129
O O12 0.969920 0.219370 0.850765
O O13 0.408201 0.232458 0.811828
#
# Coordination Sequence:
#
# PCOD9460359 Si02
#       7
#     8   4   8   8   8   8   8
#     4  12  23  37  57 105 139 169 220 276 384 433
#     4   8  24  44  66  88 128 204 240 282 342 412
#     4  10  23  42  67  93 139 185 244 293 344 435
#     4  12  23  38  62  98 139 179 219 296 362 430
#     4  10  22  42  64  90 137 184 232 282 341 434
#     4  12  23  36  67 104 138 173 225 299 378 433
#     4  12  20  37  66 104 131 176 229 300 369 425
#
# _framework density 27.738544999999998
#
# number of rings (size 3 to 8) (size 9 to 14) (size 15 to 20)
#    0.923    0.000    4.615    3.692    2.154    0.000 
#    0.000    3.077    0.000    6.462    0.000    0.000 
#    0.000    0.000    0.000    0.000    0.000    0.000 
#
# Total GULP energy -289771.761692 kJ/mol
# GULP energy per Si atom -5572.533879 kJ/mol
# Density = 2.767541 g / cm^3
# Si number density = 27.738545 Si / 1000 Ang^3
#
#
#
# Elastic Constant Matrix: (Units=GPa)
#
#
# Indices 1 2 3 4 5 6 
#
# 1 139.8032 37.1311 28.0425 0.0000 0.0000 0.0000
# 2 37.1311 124.5477 13.0874 0.0000 0.0000 0.0000
# 3 28.0425 13.0874 59.9885 0.0000 0.0000 0.0000
# 4 0.0000 0.0000 0.0000 34.0336 0.0000 0.0000
# 5 0.0000 0.0000 0.0000 0.0000 27.2422 0.0000
# 6 0.0000 0.0000 0.0000 0.0000 0.0000 76.4014
#
#
#
# Elastic Compliance Matrix: (Units=1/GPa)
#
#
# Indices 1 2 3 4 5 6 
#
# 1 0.008418 -0.002145 -0.003467 0.000000 0.000000 0.000000
# 2 -0.002145 0.008764 -0.000909 0.000000 0.000000 0.000000
# 3 -0.003467 -0.000909 0.018489 0.000000 0.000000 0.000000
# 4 0.000000 0.000000 0.000000 0.029383 0.000000 0.000000
# 5 0.000000 0.000000 0.000000 0.000000 0.036708 0.000000
# 6 0.000000 0.000000 0.000000 0.000000 0.000000 0.013089
#
#
# Mechanical properties :
#
#
# Convention : Reuss Voigt Hill
#
# Bulk Modulus (GPa) = 44.19307 53.42905 48.81106
# Shear Modulus (GPa) = 36.91768 43.94069 40.42918
#
# Velocity S-wave (km/s) = 3.65213 3.98440 3.82188
# Velocity P-wave (km/s) = 5.80953 6.36166 6.09185
#
# Compressibility (1/GPa) = 0.02262798
#
# Stress axis : x y z
#
# Youngs Moduli (GPa) = 118.79064 114.10085 54.08631
#
# Poissons Ratio (x) = 0.24479 0.18753
# Poissons Ratio (y) = 0.25485 0.04917
# Poissons Ratio (z) = 0.41187 0.10373
#
# Static dielectric constant tensor:
#      x y z
#    x 1.958670 0.000000 0.000000 
#    y 0.000000 2.197180 0.000000 
#    z 0.000000 0.000000 2.442300 
# 
# From -- ./inp_files/10419.got.cif
#   From: 2010.05.17/outbox.cif.g08.bks.cpg/sg61_6_cif.got.tgz:10419.got - 2010.06.03 15:17:17.
