data_PCOD9460824
_publ_section_title
;
Structure prediction by ZEFSAII (Michael W. Deem and Ramdas Pophale) SiO2 
 PCOD9460824
Probable space group: P B C A
;
_chemical_formula_sum "Si O2"
_cell_formula_units_Z 36
_cell_length_a 8.693992
_cell_length_b 9.323842
_cell_length_c 16.682862
_cell_angle_alpha 90.000000
_cell_angle_beta 90.000000
_cell_angle_gamma 90.000000
_cell_volume 1352.336279
_symmetry_space_group_name_H-M "P B C A"
_symmetry_group_IT_number 61
_symmetry_cell_setting 'orthorhombic'
loop_
_space_group_symop_operation_xyz
x,y,z
1/2-x,-y,1/2+z
1/2+x,1/2-y,-z
-x,1/2+y,1/2-z
-x,-y,-z
1/2+x,y,1/2-z
1/2-x,1/2+y,z
x,1/2-y,1/2+z
loop_
_atom_site_type_symbol
_atom_site_label
_atom_site_fract_x
_atom_site_fract_y
_atom_site_fract_z
Si Si1 0.569482 0.673126 0.196176
Si Si2 0.278427 0.729578 0.950141
Si Si3 0.857109 0.616476 0.888395
Si Si4 0.500000 0.000000 0.000000
Si Si5 0.529330 0.618500 0.838772
O O1 0.700094 0.705336 0.129947
O O2 0.418380 0.743887 0.154711
O O3 0.559313 0.504622 0.209021
O O4 0.572977 0.754497 0.279452
O O5 0.426918 0.647815 0.916478
O O6 0.153006 0.629890 0.993276
O O7 0.347005 0.849279 0.013325
O O8 0.988809 0.501206 0.900356
O O9 0.694672 0.561908 0.864153
#
# Coordination Sequence:
#
# PCOD9460824 Si02
#       5
#     8   8   8   4   8
#     4  12  29  46  73 107 147 196 243 299 368 430
#     4  10  25  46  76 102 148 182 245 295 363 429
#     4  10  25  46  76 102 148 182 245 295 363 429
#     4   8  24  44  76 104 142 182 236 304 350 432
#     4  12  29  46  73 107 147 196 243 299 368 430
#
# _framework density 26.6206
#
# number of rings (size 3 to 8) (size 9 to 14) (size 15 to 20)
#    1.333    0.000    0.000    2.667    9.333    7.111 
#    0.000    0.000    0.000    0.000    0.000    0.000 
#    0.000    0.000    0.000    0.000    0.000    0.000 
#
# Total GULP energy -200809.234251 kJ/mol
# GULP energy per Si atom -5578.034285 kJ/mol
# Density = 2.656001 g / cm^3
# Si number density = 26.620600 Si / 1000 Ang^3
#
#
#
# Elastic Constant Matrix: (Units=GPa)
#
#
# Indices 1 2 3 4 5 6 
#
# 1 110.5918 2.8445 -7.6991 0.0000 0.0000 0.0000
# 2 2.8445 73.6953 12.4192 0.0000 0.0000 0.0000
# 3 -7.6991 12.4192 64.0927 0.0000 0.0000 0.0000
# 4 0.0000 0.0000 0.0000 47.3029 0.0000 0.0000
# 5 0.0000 0.0000 0.0000 0.0000 44.1644 0.0000
# 6 0.0000 0.0000 0.0000 0.0000 0.0000 24.7176
#
#
#
# Elastic Compliance Matrix: (Units=1/GPa)
#
#
# Indices 1 2 3 4 5 6 
#
# 1 0.009141 -0.000556 0.001206 0.000000 0.000000 0.000000
# 2 -0.000556 0.014061 -0.002791 0.000000 0.000000 0.000000
# 3 0.001206 -0.002791 0.016288 0.000000 0.000000 0.000000
# 4 0.000000 0.000000 0.000000 0.021140 0.000000 0.000000
# 5 0.000000 0.000000 0.000000 0.000000 0.022643 0.000000
# 6 0.000000 0.000000 0.000000 0.000000 0.000000 0.040457
#
#
# Mechanical properties :
#
#
# Convention : Reuss Voigt Hill
#
# Bulk Modulus (GPa) = 28.40383 29.27877 28.84130
# Shear Modulus (GPa) = 35.77850 39.29134 37.53492
#
# Velocity S-wave (km/s) = 3.67006 3.84601 3.75906
# Velocity P-wave (km/s) = 5.35277 5.54480 5.44963
#
# Compressibility (1/GPa) = 0.03520652
#
# Stress axis : x y z
#
# Youngs Moduli (GPa) = 109.40314 71.11738 61.39439
#
# Poissons Ratio (x) = 0.03954 -0.07403
# Poissons Ratio (y) = 0.06083 0.17138
# Poissons Ratio (z) = -0.13191 0.19852
#
# Static dielectric constant tensor:
#      x y z
#    x 2.323890 0.000000 0.000000 
#    y 0.000000 2.415090 0.000000 
#    z 0.000000 0.000000 2.116290 
# 
# From -- ./inp_files/6064.got.cif
#   From: 2010.05.17/outbox.cif.g08.bks.cpg/sg61_4_cif.got.tgz:6064.got - 2010.06.03 15:17:17.
