data_PCOD9460530
_publ_section_title
;
Structure prediction by ZEFSAII (Michael W. Deem and Ramdas Pophale) SiO2 
 PCOD9460530
Probable space group: P B C A
;
_chemical_formula_sum "Si O2"
_cell_formula_units_Z 48
_cell_length_a 10.669251
_cell_length_b 21.807920
_cell_length_c 9.020947
_cell_angle_alpha 90.000000
_cell_angle_beta 90.000000
_cell_angle_gamma 90.000000
_cell_volume 2098.941376
_symmetry_space_group_name_H-M "P B C A"
_symmetry_group_IT_number 61
_symmetry_cell_setting 'orthorhombic'
loop_
_space_group_symop_operation_xyz
x,y,z
1/2-x,-y,1/2+z
1/2+x,1/2-y,-z
-x,1/2+y,1/2-z
-x,-y,-z
1/2+x,y,1/2-z
1/2-x,1/2+y,z
x,1/2-y,1/2+z
loop_
_atom_site_type_symbol
_atom_site_label
_atom_site_fract_x
_atom_site_fract_y
_atom_site_fract_z
Si Si1 0.433518 0.168292 0.811749
Si Si2 0.774414 0.742258 0.561732
Si Si3 0.102412 0.857343 0.990695
Si Si4 0.140458 0.988852 0.067408
Si Si5 0.425270 0.707791 0.190960
Si Si6 0.387627 0.463634 0.419036
O O1 0.293777 0.197095 0.822531
O O2 0.472524 0.148993 0.645425
O O3 0.514298 0.226943 0.855611
O O4 0.431624 0.107101 0.907018
O O5 0.686193 0.797339 0.512965
O O6 0.884169 0.778581 0.645027
O O7 0.809065 0.702475 0.419577
O O8 0.173469 0.920669 0.006217
O O9 0.014989 0.848499 0.847494
O O10 0.132384 0.986112 0.247026
O O11 0.254403 0.030084 0.005425
O O12 0.000000 0.000000 0.000000
O O13 0.500000 0.500000 0.500000
#
# Coordination Sequence:
#
# PCOD9460530 Si02
#       6
#     8   8   8   8   8   8
#     4  10  23  41  65  92 133 174 219 273 346 407
#     4  11  22  39  65  96 131 168 217 272 338 414
#     4  10  23  41  63  96 129 176 219 274 342 406
#     4  11  26  48  71 101 142 186 247 297 355 423
#     4  11  22  39  65  98 132 170 217 271 342 414
#     4  11  26  48  73 101 138 192 241 296 360 422
#
# _framework density 22.868670000000002
#
# number of rings (size 3 to 8) (size 9 to 14) (size 15 to 20)
#    0.000    1.333    3.333    1.000    4.667    1.333 
#    6.000    0.000    0.000    0.000    0.000    0.000 
#    0.000    0.000    0.000    0.000    0.000    0.000 
#
# Total GULP energy -267688.576277 kJ/mol
# GULP energy per Si atom -5576.845339 kJ/mol
# Density = 2.281662 g / cm^3
# Si number density = 22.868670 Si / 1000 Ang^3
#
#
#
# Elastic Constant Matrix: (Units=GPa)
#
#
# Indices 1 2 3 4 5 6 
#
# 1 66.4146 5.2206 19.4775 0.0000 0.0000 0.0000
# 2 5.2206 79.0738 8.7094 0.0000 0.0000 0.0000
# 3 19.4775 8.7094 80.5441 0.0000 0.0000 0.0000
# 4 0.0000 0.0000 0.0000 35.5484 0.0000 0.0000
# 5 0.0000 0.0000 0.0000 0.0000 31.4837 0.0000
# 6 0.0000 0.0000 0.0000 0.0000 0.0000 355.4273
#
#
#
# Elastic Compliance Matrix: (Units=1/GPa)
#
#
# Indices 1 2 3 4 5 6 
#
# 1 0.016239 -0.000647 -0.003857 0.000000 0.000000 0.000000
# 2 -0.000647 0.012825 -0.001230 0.000000 0.000000 0.000000
# 3 -0.003857 -0.001230 0.013481 0.000000 0.000000 0.000000
# 4 0.000000 0.000000 0.000000 0.028131 0.000000 0.000000
# 5 0.000000 0.000000 0.000000 0.000000 0.031762 0.000000
# 6 0.000000 0.000000 0.000000 0.000000 0.000000 0.002814
#
#
# Mechanical properties :
#
#
# Convention : Reuss Voigt Hill
#
# Bulk Modulus (GPa) = 32.17928 32.53860 32.35894
# Shear Modulus (GPa) = 39.34554 97.33355 68.33954
#
# Velocity S-wave (km/s) = 4.15239 6.53103 5.47251
# Velocity P-wave (km/s) = 6.09029 8.43397 7.35607
#
# Compressibility (1/GPa) = 0.03107590
#
# Stress axis : x y z
#
# Youngs Moduli (GPa) = 61.58033 77.97481 74.17686
#
# Poissons Ratio (x) = 0.05047 0.28610
# Poissons Ratio (y) = 0.03986 0.09125
# Poissons Ratio (z) = 0.23751 0.09593
#
# Static dielectric constant tensor:
#      x y z
#    x 2.008320 0.000000 0.000000 
#    y 0.000000 1.813520 0.000000 
#    z 0.000000 0.000000 1.810390 
# 
# From -- ./inp_files/2261.got.cif
#   From: 2010.05.17/outbox.cif.g08.bks.cpg/sg61_2_cif.got.tgz:2261.got - 2010.06.03 15:17:17.
