data_PCOD9460610
_publ_section_title
;
Structure prediction by ZEFSAII (Michael W. Deem and Ramdas Pophale) SiO2 
 PCOD9460610
Probable space group: P B C A
;
_chemical_formula_sum "Si O2"
_cell_formula_units_Z 64
_cell_length_a 13.316165
_cell_length_b 17.178169
_cell_length_c 14.034073
_cell_angle_alpha 90.000000
_cell_angle_beta 90.000000
_cell_angle_gamma 90.000000
_cell_volume 3210.256767
_symmetry_space_group_name_H-M "P B C A"
_symmetry_group_IT_number 61
_symmetry_cell_setting 'orthorhombic'
loop_
_space_group_symop_operation_xyz
x,y,z
1/2-x,-y,1/2+z
1/2+x,1/2-y,-z
-x,1/2+y,1/2-z
-x,-y,-z
1/2+x,y,1/2-z
1/2-x,1/2+y,z
x,1/2-y,1/2+z
loop_
_atom_site_type_symbol
_atom_site_label
_atom_site_fract_x
_atom_site_fract_y
_atom_site_fract_z
Si Si1 0.981923 0.881763 0.737914
Si Si2 0.539790 0.501938 0.892476
Si Si3 0.602711 0.134095 0.633306
Si Si4 0.644810 0.256326 0.304377
Si Si5 0.472601 0.770927 0.003643
Si Si6 0.344198 0.189490 0.110099
Si Si7 0.419428 0.946303 0.947226
Si Si8 0.763165 0.958001 0.985010
O O1 0.891309 0.821025 0.749455
O O2 0.945212 0.947563 0.664188
O O3 0.076946 0.836581 0.692575
O O4 0.000973 0.927153 0.835566
O O5 0.495846 0.581104 0.848869
O O6 0.658349 0.491895 0.908078
O O7 0.500000 0.500000 0.000000
O O8 0.640932 0.172440 0.730782
O O9 0.577251 0.203526 0.559725
O O10 0.680274 0.079666 0.575985
O O11 0.561424 0.262195 0.387805
O O12 0.753676 0.241613 0.350267
O O13 0.589484 0.770662 0.973146
O O14 0.434533 0.856528 0.974734
O O15 0.297200 0.111295 0.066103
O O16 0.500000 0.000000 0.000000
O O17 0.311587 0.976994 0.976711
#
# Coordination Sequence:
#
# PCOD9460610 Si02
#       8
#     8   8   8   8   8   8   8   8
#     4  11  23  45  72 101 141 180 235 296 353 423
#     4  10  23  44  68  96 140 181 228 295 351 421
#     4  11  24  45  68 106 137 181 236 294 357 422
#     4  12  24  45  72 105 145 182 233 300 359 434
#     4  11  24  46  69 100 144 180 234 302 353 424
#     4  11  23  43  74  99 137 190 231 285 367 416
#     4  11  23  43  69  98 137 187 234 292 352 425
#     4  11  22  46  69  97 141 187 240 286 354 431
#
# _framework density 19.936098999999999
#
# number of rings (size 3 to 8) (size 9 to 14) (size 15 to 20)
#    0.000    1.000    7.500    0.750    1.750    4.000 
#    4.500    0.000    0.000    0.000    0.000    0.000 
#    0.000    0.000    0.000    0.000    0.000    0.000 
#
# Total GULP energy -357280.994835 kJ/mol
# GULP energy per Si atom -5582.515544 kJ/mol
# Density = 1.989072 g / cm^3
# Si number density = 19.936099 Si / 1000 Ang^3
#
#
#
# Elastic Constant Matrix: (Units=GPa)
#
#
# Indices 1 2 3 4 5 6 
#
# 1 118.7739 39.5939 40.5040 0.0000 0.0000 0.0000
# 2 39.5939 81.9022 20.2400 0.0000 0.0000 0.0000
# 3 40.5040 20.2400 82.1475 0.0000 0.0000 0.0000
# 4 0.0000 0.0000 0.0000 44.8901 0.0000 0.0000
# 5 0.0000 0.0000 0.0000 0.0000 36.3346 0.0000
# 6 0.0000 0.0000 0.0000 0.0000 0.0000 40.2281
#
#
#
# Elastic Compliance Matrix: (Units=1/GPa)
#
#
# Indices 1 2 3 4 5 6 
#
# 1 0.011442 -0.004405 -0.004556 0.000000 0.000000 0.000000
# 2 -0.004405 0.014697 -0.001449 0.000000 0.000000 0.000000
# 3 -0.004556 -0.001449 0.014777 0.000000 0.000000 0.000000
# 4 0.000000 0.000000 0.000000 0.022277 0.000000 0.000000
# 5 0.000000 0.000000 0.000000 0.000000 0.027522 0.000000
# 6 0.000000 0.000000 0.000000 0.000000 0.000000 0.024858
#
#
# Mechanical properties :
#
#
# Convention : Reuss Voigt Hill
#
# Bulk Modulus (GPa) = 49.76419 53.72215 51.74317
# Shear Modulus (GPa) = 34.94262 36.45627 35.69944
#
# Velocity S-wave (km/s) = 4.19110 4.28092 4.23625
# Velocity P-wave (km/s) = 6.95963 7.17222 7.06672
#
# Compressibility (1/GPa) = 0.02009477
#
# Stress axis : x y z
#
# Youngs Moduli (GPa) = 87.40063 68.03905 67.67418
#
# Poissons Ratio (x) = 0.29973 0.30833
# Poissons Ratio (y) = 0.38502 0.09807
# Poissons Ratio (z) = 0.39820 0.09860
#
# Static dielectric constant tensor:
#      x y z
#    x 1.731580 0.000000 0.000000 
#    y 0.000000 1.698330 0.000000 
#    z 0.000000 0.000000 1.385640 
# 
# From -- ./inp_files/7626.got.cif
#   From: 2010.05.17/outbox.cif.g08.bks.cpg/sg61_4_cif.got.tgz:7626.got - 2010.06.03 15:17:17.
