data_PCOD9460475
_publ_section_title
;
Structure prediction by ZEFSAII (Michael W. Deem and Ramdas Pophale) SiO2 
 PCOD9460475
Probable space group: P B C A
;
_chemical_formula_sum "Si O2"
_cell_formula_units_Z 32
_cell_length_a 13.673087
_cell_length_b 9.488078
_cell_length_c 10.208834
_cell_angle_alpha 90.000000
_cell_angle_beta 90.000000
_cell_angle_gamma 90.000000
_cell_volume 1324.405469
_symmetry_space_group_name_H-M "P B C A"
_symmetry_group_IT_number 61
_symmetry_cell_setting 'orthorhombic'
loop_
_space_group_symop_operation_xyz
x,y,z
1/2-x,-y,1/2+z
1/2+x,1/2-y,-z
-x,1/2+y,1/2-z
-x,-y,-z
1/2+x,y,1/2-z
1/2-x,1/2+y,z
x,1/2-y,1/2+z
loop_
_atom_site_type_symbol
_atom_site_label
_atom_site_fract_x
_atom_site_fract_y
_atom_site_fract_z
Si Si1 0.580484 0.610596 0.949543
Si Si2 0.947684 0.854653 0.530611
Si Si3 0.319615 0.650744 0.107698
Si Si4 0.754041 0.284175 0.633473
O O1 0.647146 0.507286 0.862462
O O2 0.500000 0.500000 0.000000
O O3 0.521919 0.746320 0.898916
O O4 0.648026 0.659355 0.069681
O O5 0.908315 0.764141 0.404956
O O6 0.846061 0.873364 0.607278
O O7 0.000000 0.000000 0.500000
O O8 0.244037 0.715444 0.210657
O O9 0.274201 0.652151 0.960280
#
# Coordination Sequence:
#
# PCOD9460475 Si02
#       4
#     8   8   8   8
#     4  10  22  46  68 101 143 191 239 299 362 437
#     4   9  22  42  69 106 140 186 244 291 362 439
#     4   9  23  44  65 104 138 190 229 297 367 417
#     4  10  23  43  71 100 143 179 242 295 361 431
#
# _framework density 24.161785999999999
#
# number of rings (size 3 to 8) (size 9 to 14) (size 15 to 20)
#    1.500    1.000    0.000    0.000    3.500    4.000 
#    9.000    0.000    0.000    0.000    0.000    0.000 
#    0.000    0.000    0.000    0.000    0.000    0.000 
#
# Total GULP energy -178141.948035 kJ/mol
# GULP energy per Si atom -5566.935876 kJ/mol
# Density = 2.410679 g / cm^3
# Si number density = 24.161786 Si / 1000 Ang^3
#
#
#
# Elastic Constant Matrix: (Units=GPa)
#
#
# Indices 1 2 3 4 5 6 
#
# 1 106.7216 46.1054 12.2209 0.0000 0.0000 0.0000
# 2 46.1054 143.5684 -1.7640 0.0000 0.0000 0.0000
# 3 12.2209 -1.7640 57.8085 0.0000 0.0000 0.0000
# 4 0.0000 0.0000 0.0000 9.1738 0.0000 0.0000
# 5 0.0000 0.0000 0.0000 0.0000 23.8127 0.0000
# 6 0.0000 0.0000 0.0000 0.0000 0.0000 54.4802
#
#
#
# Elastic Compliance Matrix: (Units=1/GPa)
#
#
# Indices 1 2 3 4 5 6 
#
# 1 0.011225 -0.003635 -0.002484 0.000000 0.000000 0.000000
# 2 -0.003635 0.008145 0.001017 0.000000 0.000000 0.000000
# 3 -0.002484 0.001017 0.017855 0.000000 0.000000 0.000000
# 4 0.000000 0.000000 0.000000 0.109006 0.000000 0.000000
# 5 0.000000 0.000000 0.000000 0.000000 0.041994 0.000000
# 6 0.000000 0.000000 0.000000 0.000000 0.000000 0.018355
#
#
# Mechanical properties :
#
#
# Convention : Reuss Voigt Hill
#
# Bulk Modulus (GPa) = 37.00882 46.80257 41.90569
# Shear Modulus (GPa) = 22.14429 34.26242 28.20335
#
# Velocity S-wave (km/s) = 3.03066 3.76977 3.42024
# Velocity P-wave (km/s) = 5.25327 6.19361 5.74272
#
# Compressibility (1/GPa) = 0.02702059
#
# Stress axis : x y z
#
# Youngs Moduli (GPa) = 89.08567 122.77062 56.00780
#
# Poissons Ratio (x) = 0.44631 0.13912
# Poissons Ratio (y) = 0.32386 -0.05696
# Poissons Ratio (z) = 0.22129 -0.12487
#
# Static dielectric constant tensor:
#      x y z
#    x 1.979400 0.000000 0.000000 
#    y 0.000000 1.946130 0.000000 
#    z 0.000000 0.000000 2.210960 
# 
# From -- ./inp_files/5530.got.cif
#   From: 2010.05.17/outbox.cif.g08.bks.cpg/sg61_3_cif.got.tgz:5530.got - 2010.06.03 15:17:17.
