data_PCOD9460243
_publ_section_title
;
Structure prediction by ZEFSAII (Michael W. Deem and Ramdas Pophale) SiO2 
 PCOD9460243
Probable space group: P B C A
;
_chemical_formula_sum "Si O2"
_cell_formula_units_Z 56
_cell_length_a 10.837161
_cell_length_b 19.970264
_cell_length_c 9.391666
_cell_angle_alpha 90.000000
_cell_angle_beta 90.000000
_cell_angle_gamma 90.000000
_cell_volume 2032.553430
_symmetry_space_group_name_H-M "P B C A"
_symmetry_group_IT_number 61
_symmetry_cell_setting 'orthorhombic'
loop_
_space_group_symop_operation_xyz
x,y,z
1/2-x,-y,1/2+z
1/2+x,1/2-y,-z
-x,1/2+y,1/2-z
-x,-y,-z
1/2+x,y,1/2-z
1/2-x,1/2+y,z
x,1/2-y,1/2+z
loop_
_atom_site_type_symbol
_atom_site_label
_atom_site_fract_x
_atom_site_fract_y
_atom_site_fract_z
Si Si1 0.035332 0.071509 0.564948
Si Si2 0.448094 0.073770 0.510034
Si Si3 0.010102 0.703474 0.049503
Si Si4 0.754784 0.733963 0.879553
Si Si5 0.769600 0.955385 0.652603
Si Si6 0.607386 0.356470 0.827999
Si Si7 0.253787 0.596302 0.757342
O O1 0.950881 0.136044 0.539330
O O2 0.154566 0.084703 0.465831
O O3 0.106040 0.072238 0.714155
O O4 0.000000 0.000000 0.500000
O O5 0.365458 0.073677 0.364854
O O6 0.548785 0.130512 0.482147
O O7 0.356482 0.083000 0.641912
O O8 0.500000 0.000000 0.500000
O O9 0.980777 0.678644 0.210499
O O10 0.120210 0.757968 0.048176
O O11 0.879168 0.724018 0.975615
O O12 0.775963 0.808341 0.823004
O O13 0.759350 0.676767 0.757412
O O14 0.840958 0.930166 0.789588
O O15 0.775475 0.035475 0.633278
#
# Coordination Sequence:
#
# PCOD9460243 Si02
#       7
#     8   8   8   8   8   8   8
#     4   9  21  38  63  93 123 171 223 278 344 405
#     4  11  22  40  69  97 128 174 234 284 343 415
#     4  10  24  45  70  96 139 189 227 289 350 426
#     4  11  24  45  67  99 143 180 232 282 347 427
#     4  10  22  39  65  93 131 168 227 288 338 407
#     4  11  23  43  69  98 132 191 226 280 351 422
#     4  10  22  41  59  99 132 164 225 286 338 402
#
# _framework density 27.551552000000001
#
# number of rings (size 3 to 8) (size 9 to 14) (size 15 to 20)
#    0.000    1.714    1.429    2.571    6.000    1.143 
#   12.857    0.000    0.000    0.000    0.000    0.000 
#    0.000    0.000    0.000    0.000    0.000    0.000 
#
# Total GULP energy -312297.942211 kJ/mol
# GULP energy per Si atom -5576.748968 kJ/mol
# Density = 2.748884 g / cm^3
# Si number density = 27.551552 Si / 1000 Ang^3
#
#
#
# Elastic Constant Matrix: (Units=GPa)
#
#
# Indices 1 2 3 4 5 6 
#
# 1 107.7129 42.1351 6.4867 0.0000 0.0000 0.0000
# 2 42.1351 138.6624 -7.2488 0.0000 0.0000 0.0000
# 3 6.4867 -7.2488 34.9058 0.0000 0.0000 0.0000
# 4 0.0000 0.0000 0.0000 32.4467 0.0000 0.0000
# 5 0.0000 0.0000 0.0000 0.0000 42.8881 0.0000
# 6 0.0000 0.0000 0.0000 0.0000 0.0000 56.2300
#
#
#
# Elastic Compliance Matrix: (Units=1/GPa)
#
#
# Indices 1 2 3 4 5 6 
#
# 1 0.010785 -0.003419 -0.002714 0.000000 0.000000 0.000000
# 2 -0.003419 0.008375 0.002375 0.000000 0.000000 0.000000
# 3 -0.002714 0.002375 0.029646 0.000000 0.000000 0.000000
# 4 0.000000 0.000000 0.000000 0.030820 0.000000 0.000000
# 5 0.000000 0.000000 0.000000 0.000000 0.023316 0.000000
# 6 0.000000 0.000000 0.000000 0.000000 0.000000 0.017784
#
#
# Mechanical properties :
#
#
# Convention : Reuss Voigt Hill
#
# Bulk Modulus (GPa) = 24.21993 40.44745 32.33369
# Shear Modulus (GPa) = 35.20970 42.30685 38.75827
#
# Velocity S-wave (km/s) = 3.57873 3.92286 3.75474
# Velocity P-wave (km/s) = 5.08785 5.93557 5.52799
#
# Compressibility (1/GPa) = 0.04128831
#
# Stress axis : x y z
#
# Youngs Moduli (GPa) = 92.72252 119.40524 33.73129
#
# Poissons Ratio (x) = 0.40825 0.09155
# Poissons Ratio (y) = 0.31702 -0.08010
# Poissons Ratio (z) = 0.25167 -0.28354
#
# Static dielectric constant tensor:
#      x y z
#    x 2.332060 0.000000 0.000000 
#    y 0.000000 2.112280 0.000000 
#    z 0.000000 0.000000 2.410930 
# 
# From -- ./inp_files/5335.got.cif
#   From: 2010.05.17/outbox.cif.g08.bks.cpg/sg61_3_cif.got.tgz:5335.got - 2010.06.03 15:17:17.
