data_PCOD9460599
_publ_section_title
;
Structure prediction by ZEFSAII (Michael W. Deem and Ramdas Pophale) SiO2 
 PCOD9460599
Probable space group: P B C A
;
_chemical_formula_sum "Si O2"
_cell_formula_units_Z 32
_cell_length_a 24.351691
_cell_length_b 5.032037
_cell_length_c 9.881760
_cell_angle_alpha 90.000000
_cell_angle_beta 90.000000
_cell_angle_gamma 90.000000
_cell_volume 1210.897136
_symmetry_space_group_name_H-M "P B C A"
_symmetry_group_IT_number 61
_symmetry_cell_setting 'orthorhombic'
loop_
_space_group_symop_operation_xyz
x,y,z
1/2-x,-y,1/2+z
1/2+x,1/2-y,-z
-x,1/2+y,1/2-z
-x,-y,-z
1/2+x,y,1/2-z
1/2-x,1/2+y,z
x,1/2-y,1/2+z
loop_
_atom_site_type_symbol
_atom_site_label
_atom_site_fract_x
_atom_site_fract_y
_atom_site_fract_z
Si Si1 0.569964 0.267700 0.693062
Si Si2 0.951271 0.231638 0.385057
Si Si3 0.356266 0.376664 0.931122
Si Si4 0.286281 0.405549 0.202316
O O1 0.561365 0.029046 0.799822
O O2 0.587147 0.744700 0.515583
O O3 0.624320 0.170284 0.615333
O O4 0.516725 0.258945 0.594967
O O5 0.934163 0.476605 0.288307
O O6 0.327628 0.210439 0.813566
O O7 0.314927 0.382033 0.056762
O O8 0.265629 0.706738 0.214942
#
# Coordination Sequence:
#
# PCOD9460599 Si02
#       4
#     8   8   8   8
#     4  10  23  43  72 114 154 192 241 296 367 460
#     4  10  23  43  72 114 154 192 241 296 367 460
#     4  12  25  50  80 104 150 192 250 300 390 426
#     4  12  30  50  74 106 142 190 256 318 366 428
#
# _framework density 26.426684999999999
#
# number of rings (size 3 to 8) (size 9 to 14) (size 15 to 20)
#    0.000    1.000    2.500    2.250    3.500    6.000 
#    0.000    7.500    0.000    0.000    0.000    0.000 
#    0.000    0.000    0.000    0.000    0.000    0.000 
#
# Total GULP energy -179744.492566 kJ/mol
# GULP energy per Si atom -5617.015393 kJ/mol
# Density = 2.636654 g / cm^3
# Si number density = 26.426685 Si / 1000 Ang^3
#
#
#
# Elastic Constant Matrix: (Units=GPa)
#
#
# Indices 1 2 3 4 5 6 
#
# 1 134.6504 26.1599 61.2894 0.0000 0.0000 0.0000
# 2 26.1599 137.1398 32.5773 0.0000 0.0000 0.0000
# 3 61.2894 32.5773 137.7179 0.0000 0.0000 0.0000
# 4 0.0000 0.0000 0.0000 29.9350 0.0000 0.0000
# 5 0.0000 0.0000 0.0000 0.0000 61.1141 0.0000
# 6 0.0000 0.0000 0.0000 0.0000 0.0000 53.9776
#
#
#
# Elastic Compliance Matrix: (Units=1/GPa)
#
#
# Indices 1 2 3 4 5 6 
#
# 1 0.009405 -0.000847 -0.003985 0.000000 0.000000 0.000000
# 2 -0.000847 0.007802 -0.001469 0.000000 0.000000 0.000000
# 3 -0.003985 -0.001469 0.009382 0.000000 0.000000 0.000000
# 4 0.000000 0.000000 0.000000 0.033406 0.000000 0.000000
# 5 0.000000 0.000000 0.000000 0.000000 0.016363 0.000000
# 6 0.000000 0.000000 0.000000 0.000000 0.000000 0.018526
#
#
# Mechanical properties :
#
#
# Convention : Reuss Voigt Hill
#
# Bulk Modulus (GPa) = 71.49269 72.17349 71.83309
# Shear Modulus (GPa) = 44.58344 48.30411 46.44377
#
# Velocity S-wave (km/s) = 4.11184 4.27998 4.19675
# Velocity P-wave (km/s) = 7.04663 7.19683 7.12213
#
# Compressibility (1/GPa) = 0.01398744
#
# Stress axis : x y z
#
# Youngs Moduli (GPa) = 106.32364 128.16707 106.58519
#
# Poissons Ratio (x) = 0.10861 0.42477
# Poissons Ratio (y) = 0.09010 0.15652
# Poissons Ratio (z) = 0.42372 0.18822
#
# Static dielectric constant tensor:
#      x y z
#    x 2.107090 0.000000 0.000000 
#    y 0.000000 2.094760 0.000000 
#    z 0.000000 0.000000 2.023770 
# 
# From -- ./inp_files/95.got.cif
#   From: 2010.05.17/outbox.cif.g08.bks.cpg/sg61_1_cif.got.tgz:95.got - 2010.06.03 15:17:17.
