data_PCOD9460620
_publ_section_title
;
Structure prediction by ZEFSAII (Michael W. Deem and Ramdas Pophale) SiO2 
 PCOD9460620
Probable space group: P B C A
;
_chemical_formula_sum "Si O2"
_cell_formula_units_Z 40
_cell_length_a 7.733184
_cell_length_b 9.079295
_cell_length_c 22.321620
_cell_angle_alpha 90.000000
_cell_angle_beta 90.000000
_cell_angle_gamma 90.000000
_cell_volume 1567.242432
_symmetry_space_group_name_H-M "P B C A"
_symmetry_group_IT_number 61
_symmetry_cell_setting 'orthorhombic'
loop_
_space_group_symop_operation_xyz
x,y,z
1/2-x,-y,1/2+z
1/2+x,1/2-y,-z
-x,1/2+y,1/2-z
-x,-y,-z
1/2+x,y,1/2-z
1/2-x,1/2+y,z
x,1/2-y,1/2+z
loop_
_atom_site_type_symbol
_atom_site_label
_atom_site_fract_x
_atom_site_fract_y
_atom_site_fract_z
Si Si1 0.381468 0.762337 0.789001
Si Si2 0.827158 0.480385 0.790926
Si Si3 0.621378 0.988905 0.916187
Si Si4 0.135250 0.273310 0.524912
Si Si5 0.690690 0.821617 0.090989
O O1 0.310707 0.896783 0.749062
O O2 0.400171 0.616921 0.747882
O O3 0.556729 0.838566 0.809956
O O4 0.257786 0.724915 0.844337
O O5 0.778243 0.539976 0.856255
O O6 0.704602 0.840440 0.938708
O O7 0.657123 0.098268 0.971577
O O8 0.420534 0.027270 0.902734
O O9 0.156227 0.328803 0.457448
O O10 0.955271 0.288177 0.561731
#
# Coordination Sequence:
#
# PCOD9460620 Si02
#       5
#     8   8   8   8   8
#     4  12  27  49  76 114 149 201 249 314 377 458
#     4  12  26  47  77 108 154 195 251 308 383 451
#     4  10  23  44  71 107 145 195 245 305 376 440
#     4  10  24  44  74 103 149 197 246 311 369 445
#     4  10  25  47  72 110 146 195 256 309 372 451
#
# _framework density 25.522535999999999
#
# number of rings (size 3 to 8) (size 9 to 14) (size 15 to 20)
#    1.200    0.000    0.000    5.400    5.600    2.400 
#    0.000    0.000    0.000    0.000    0.000    0.000 
#    0.000    0.000    0.000    0.000    0.000    0.000 
#
# Total GULP energy -223254.225563 kJ/mol
# GULP energy per Si atom -5581.355639 kJ/mol
# Density = 2.546445 g / cm^3
# Si number density = 25.522536 Si / 1000 Ang^3
#
#
#
# Elastic Constant Matrix: (Units=GPa)
#
#
# Indices 1 2 3 4 5 6 
#
# 1 56.2124 22.0442 12.7457 0.0000 0.0000 0.0000
# 2 22.0442 109.6177 16.6683 0.0000 0.0000 0.0000
# 3 12.7457 16.6683 140.1879 0.0000 0.0000 0.0000
# 4 0.0000 0.0000 0.0000 -69.3020 0.0000 0.0000
# 5 0.0000 0.0000 0.0000 0.0000 39.7695 0.0000
# 6 0.0000 0.0000 0.0000 0.0000 0.0000 27.9305
#
#
#
# Elastic Compliance Matrix: (Units=1/GPa)
#
#
# Indices 1 2 3 4 5 6 
#
# 1 0.019555 -0.003730 -0.001334 0.000000 0.000000 0.000000
# 2 -0.003730 0.010002 -0.000850 0.000000 0.000000 0.000000
# 3 -0.001334 -0.000850 0.007356 0.000000 0.000000 0.000000
# 4 0.000000 0.000000 0.000000 -0.014430 0.000000 0.000000
# 5 0.000000 0.000000 0.000000 0.000000 0.025145 0.000000
# 6 0.000000 0.000000 0.000000 0.000000 0.000000 0.035803
#
#
# Mechanical properties :
#
#
# Convention : Reuss Voigt Hill
#
# Bulk Modulus (GPa) = 39.86591 45.43717 42.65154
# Shear Modulus (GPa) = 48.25296 16.65025 32.45160
#
# Velocity S-wave (km/s) = 4.35282 2.55693 3.56966
# Velocity P-wave (km/s) = 6.39660 5.15351 5.80841
#
# Compressibility (1/GPa) = 0.02508409
#
# Stress axis : x y z
#
# Youngs Moduli (GPa) = 51.13827 99.98093 135.94918
#
# Poissons Ratio (x) = 0.37289 0.18142
# Poissons Ratio (y) = 0.19072 0.11558
# Poissons Ratio (z) = 0.06824 0.08500
#
# Static dielectric constant tensor:
#      x y z
#    x 2.132260 0.000000 0.000000 
#    y 0.000000 1.967530 0.000000 
#    z 0.000000 0.000000 2.085040 
# 
# From -- ./inp_files/10798.got.cif
#   From: 2010.05.17/outbox.cif.g08.bks.cpg/sg61_6_cif.got.tgz:10798.got - 2010.06.03 15:17:17.
