data_PCOD9460372
_publ_section_title
;
Structure prediction by ZEFSAII (Michael W. Deem and Ramdas Pophale) SiO2 
 PCOD9460372
Probable space group: P B C A
;
_chemical_formula_sum "Si O2"
_cell_formula_units_Z 60
_cell_length_a 8.781582
_cell_length_b 18.826249
_cell_length_c 15.662215
_cell_angle_alpha 90.000000
_cell_angle_beta 90.000000
_cell_angle_gamma 90.000000
_cell_volume 2589.343938
_symmetry_space_group_name_H-M "P B C A"
_symmetry_group_IT_number 61
_symmetry_cell_setting 'orthorhombic'
loop_
_space_group_symop_operation_xyz
x,y,z
1/2-x,-y,1/2+z
1/2+x,1/2-y,-z
-x,1/2+y,1/2-z
-x,-y,-z
1/2+x,y,1/2-z
1/2-x,1/2+y,z
x,1/2-y,1/2+z
loop_
_atom_site_type_symbol
_atom_site_label
_atom_site_fract_x
_atom_site_fract_y
_atom_site_fract_z
Si Si1 0.000000 0.000000 0.500000
Si Si2 0.421662 0.029367 0.794517
Si Si3 0.806493 0.374788 0.062750
Si Si4 0.412275 0.828210 0.721400
Si Si5 0.508629 0.449874 0.105450
Si Si6 0.670874 0.566892 0.298612
Si Si7 0.190041 0.722390 0.371872
Si Si8 0.192402 0.573950 0.464442
O O1 0.156622 0.028568 0.456233
O O2 0.924167 0.084313 0.502021
O O3 0.360270 0.096113 0.844571
O O4 0.494770 0.054361 0.705920
O O5 0.282601 0.976636 0.766706
O O6 0.566825 0.993083 0.845538
O O7 0.633829 0.402268 0.058903
O O8 0.797760 0.290606 0.068418
O O9 0.290028 0.874851 0.666881
O O10 0.536751 0.884945 0.758116
O O11 0.520570 0.776657 0.668693
O O12 0.315456 0.788761 0.795834
O O13 0.558184 0.529914 0.082139
O O14 0.349691 0.429252 0.063740
O O15 0.204072 0.650939 0.426432
#
# Coordination Sequence:
#
# PCOD9460372 Si02
#       8
#     4   8   8   8   8   8   8   8
#     4  10  26  46  68 100 132 182 250 284 332 436
#     4  11  20  35  66 100 130 168 231 294 346 391
#     4  11  26  43  65  97 139 182 234 295 341 426
#     4   9  20  37  60  99 132 168 221 281 360 420
#     4  10  22  42  66  97 131 179 232 288 346 417
#     4   9  18  32  61  96 127 164 214 285 343 403
#     4  11  24  43  66  97 147 180 223 296 367 421
#     4  10  23  44  68  95 140 182 231 287 355 428
#
# _framework density 23.171893000000001
#
# number of rings (size 3 to 8) (size 9 to 14) (size 15 to 20)
#    0.000    1.867    1.333    2.400   11.200    1.067 
#    2.400    0.000    0.000    0.000    0.000    0.000 
#    0.000    0.000    0.000    0.000    0.000    0.000 
#
# Total GULP energy -334112.890588 kJ/mol
# GULP energy per Si atom -5568.548176 kJ/mol
# Density = 2.311915 g / cm^3
# Si number density = 23.171893 Si / 1000 Ang^3
#
#
#
# Elastic Constant Matrix: (Units=GPa)
#
#
# Indices 1 2 3 4 5 6 
#
# 1 123.9844 18.1885 22.6085 0.0000 0.0000 0.0000
# 2 18.1885 122.4549 12.5923 0.0000 0.0000 0.0000
# 3 22.6085 12.5923 40.7380 0.0000 0.0000 0.0000
# 4 0.0000 0.0000 0.0000 28.9160 0.0000 0.0000
# 5 0.0000 0.0000 0.0000 0.0000 45.5120 0.0000
# 6 0.0000 0.0000 0.0000 0.0000 0.0000 28.1263
#
#
#
# Elastic Compliance Matrix: (Units=1/GPa)
#
#
# Indices 1 2 3 4 5 6 
#
# 1 0.009060 -0.000856 -0.004763 0.000000 0.000000 0.000000
# 2 -0.000856 0.008515 -0.002157 0.000000 0.000000 0.000000
# 3 -0.004763 -0.002157 0.027857 0.000000 0.000000 0.000000
# 4 0.000000 0.000000 0.000000 0.034583 0.000000 0.000000
# 5 0.000000 0.000000 0.000000 0.000000 0.021972 0.000000
# 6 0.000000 0.000000 0.000000 0.000000 0.000000 0.035554
#
#
# Mechanical properties :
#
#
# Convention : Reuss Voigt Hill
#
# Bulk Modulus (GPa) = 33.46755 43.77290 38.62022
# Shear Modulus (GPa) = 30.66474 36.09674 33.38074
#
# Velocity S-wave (km/s) = 3.64175 3.95116 3.79960
# Velocity P-wave (km/s) = 5.67077 6.30452 5.99603
#
# Compressibility (1/GPa) = 0.02987969
#
# Stress axis : x y z
#
# Youngs Moduli (GPa) = 110.37918 117.43695 35.89712
#
# Poissons Ratio (x) = 0.10051 0.17099
# Poissons Ratio (y) = 0.09447 0.07743
# Poissons Ratio (z) = 0.52577 0.25332
#
# Static dielectric constant tensor:
#      x y z
#    x 1.872130 0.000000 0.000000 
#    y 0.000000 1.828490 0.000000 
#    z 0.000000 0.000000 1.856680 
# 
# From -- ./inp_files/8999.got.cif
#   From: 2010.05.17/outbox.cif.g08.bks.cpg/sg61_5_cif.got.tgz:8999.got - 2010.06.03 15:17:17.
