data_PCOD9460079
_publ_section_title
;
Structure prediction by ZEFSAII (Michael W. Deem and Ramdas Pophale) SiO2 
 PCOD9460079
Probable space group: P B C A
;
_chemical_formula_sum "Si O2"
_cell_formula_units_Z 60
_cell_length_a 25.433638
_cell_length_b 11.335451
_cell_length_c 8.968787
_cell_angle_alpha 90.000000
_cell_angle_beta 90.000000
_cell_angle_gamma 90.000000
_cell_volume 2585.717053
_symmetry_space_group_name_H-M "P B C A"
_symmetry_group_IT_number 61
_symmetry_cell_setting 'orthorhombic'
loop_
_space_group_symop_operation_xyz
x,y,z
1/2-x,-y,1/2+z
1/2+x,1/2-y,-z
-x,1/2+y,1/2-z
-x,-y,-z
1/2+x,y,1/2-z
1/2-x,1/2+y,z
x,1/2-y,1/2+z
loop_
_atom_site_type_symbol
_atom_site_label
_atom_site_fract_x
_atom_site_fract_y
_atom_site_fract_z
Si Si1 0.723442 0.019325 0.055042
Si Si2 0.063081 0.919579 0.787220
Si Si3 0.596361 0.123503 0.347449
Si Si4 0.650907 0.253654 0.612083
Si Si5 0.318119 0.511566 0.767654
Si Si6 0.088494 0.757903 0.533393
Si Si7 0.146338 0.618473 0.762346
Si Si8 0.500000 0.000000 0.500000
O O1 0.689659 0.136649 0.086726
O O2 0.783844 0.038754 0.096225
O O3 0.701592 0.917203 0.165911
O O4 0.710949 0.983074 0.886594
O O5 0.053601 0.831894 0.650123
O O6 0.122657 0.963073 0.768271
O O7 0.060580 0.855185 0.953437
O O8 0.023273 0.022584 0.824192
O O9 0.634129 0.192148 0.460380
O O10 0.599189 0.197972 0.196102
O O11 0.543066 0.093173 0.428617
O O12 0.622305 0.999269 0.305658
O O13 0.677525 0.151349 0.709038
O O14 0.137895 0.713521 0.632444
O O15 0.110022 0.836024 0.398605
#
# Coordination Sequence:
#
# PCOD9460079 Si02
#       8
#     8   8   8   8   8   8   8   4
#     4  11  27  42  72 106 143 196 244 294 384 448
#     4  11  24  44  69 100 144 183 241 312 364 439
#     4  11  24  45  73 103 145 192 248 309 369 457
#     4  11  24  48  72 101 153 195 240 304 387 447
#     4  12  25  46  68 104 149 192 247 310 367 463
#     4  10  21  41  70  94 138 182 229 300 372 417
#     4  10  21  44  67 100 142 185 240 303 361 447
#     4  12  24  44  76 102 138 194 246 306 374 438
#
# _framework density 23.204394000000001
#
# number of rings (size 3 to 8) (size 9 to 14) (size 15 to 20)
#    0.000    1.067    5.333    0.000    5.600    3.200 
#    0.000    0.667    0.000    0.000    0.000    0.000 
#    0.000    0.000    0.000    0.000    0.000    0.000 
#
# Total GULP energy -334420.690521 kJ/mol
# GULP energy per Si atom -5573.678175 kJ/mol
# Density = 2.315158 g / cm^3
# Si number density = 23.204394 Si / 1000 Ang^3
#
#
#
# Elastic Constant Matrix: (Units=GPa)
#
#
# Indices 1 2 3 4 5 6 
#
# 1 47.9548 11.1420 8.7306 0.0000 0.0000 0.0000
# 2 11.1420 64.9234 35.5633 0.0000 0.0000 0.0000
# 3 8.7306 35.5633 104.0557 0.0000 0.0000 0.0000
# 4 0.0000 0.0000 0.0000 123.6876 0.0000 0.0000
# 5 0.0000 0.0000 0.0000 0.0000 18.8898 0.0000
# 6 0.0000 0.0000 0.0000 0.0000 0.0000 -2.6018
#
#
#
# Elastic Compliance Matrix: (Units=1/GPa)
#
#
# Indices 1 2 3 4 5 6 
#
# 1 0.021758 -0.003364 -0.000676 0.000000 0.000000 0.000000
# 2 -0.003364 0.019471 -0.006372 0.000000 0.000000 0.000000
# 3 -0.000676 -0.006372 0.011845 0.000000 0.000000 0.000000
# 4 0.000000 0.000000 0.000000 0.008085 0.000000 0.000000
# 5 0.000000 0.000000 0.000000 0.000000 0.052939 0.000000
# 6 0.000000 0.000000 0.000000 0.000000 0.000000 -0.384355
#
#
# Mechanical properties :
#
#
# Convention : Reuss Voigt Hill
#
# Bulk Modulus (GPa) = 31.00858 36.42287 33.71573
# Shear Modulus (GPa) = -20.94810 38.76165 8.90677
#
# Velocity S-wave (km/s) = -3.00786 4.09154 1.96131
# Velocity P-wave (km/s) = 1.15293 6.16859 4.43739
#
# Compressibility (1/GPa) = 0.03224914
#
# Stress axis : x y z
#
# Youngs Moduli (GPa) = 45.96105 51.35946 84.42517
#
# Poissons Ratio (x) = 0.17276 0.05706
# Poissons Ratio (y) = 0.15460 0.53798
# Poissons Ratio (z) = 0.03106 0.32728
#
# Static dielectric constant tensor:
#      x y z
#    x 1.604210 0.000000 0.000000 
#    y 0.000000 1.678890 0.000000 
#    z 0.000000 0.000000 1.913370 
# 
# From -- ./inp_files/4489.got.cif
#   From: 2010.05.17/outbox.cif.g08.bks.cpg/sg61_3_cif.got.tgz:4489.got - 2010.06.03 15:17:17.
