data_PCOD9460311
_publ_section_title
;
Structure prediction by ZEFSAII (Michael W. Deem and Ramdas Pophale) SiO2 
 PCOD9460311
Probable space group: P B C A
;
_chemical_formula_sum "Si O2"
_cell_formula_units_Z 40
_cell_length_a 9.687381
_cell_length_b 15.946533
_cell_length_c 10.029718
_cell_angle_alpha 90.000000
_cell_angle_beta 90.000000
_cell_angle_gamma 90.000000
_cell_volume 1549.392249
_symmetry_space_group_name_H-M "P B C A"
_symmetry_group_IT_number 61
_symmetry_cell_setting 'orthorhombic'
loop_
_space_group_symop_operation_xyz
x,y,z
1/2-x,-y,1/2+z
1/2+x,1/2-y,-z
-x,1/2+y,1/2-z
-x,-y,-z
1/2+x,y,1/2-z
1/2-x,1/2+y,z
x,1/2-y,1/2+z
loop_
_atom_site_type_symbol
_atom_site_label
_atom_site_fract_x
_atom_site_fract_y
_atom_site_fract_z
Si Si1 0.063059 0.703044 0.088245
Si Si2 0.305268 0.739173 0.262188
Si Si3 0.508772 0.967118 0.811320
Si Si4 0.601672 0.859906 0.561721
Si Si5 0.723534 0.576571 0.786784
O O1 0.223980 0.712024 0.128235
O O2 0.027718 0.605511 0.078479
O O3 0.967187 0.734126 0.211299
O O4 0.029051 0.772217 0.979254
O O5 0.240551 0.673527 0.367158
O O6 0.256736 0.834627 0.281506
O O7 0.526221 0.919602 0.667304
O O8 0.365938 0.015848 0.805872
O O9 0.634156 0.031374 0.820429
O O10 0.638938 0.904756 0.422744
#
# Coordination Sequence:
#
# PCOD9460311 Si02
#       5
#     8   8   8   8   8
#     4  10  22  41  64  89 124 167 207 252 309 383
#     4  10  22  41  63  91 125 169 210 250 310 381
#     4  11  23  41  63  93 125 158 206 265 312 359
#     4  10  23  40  63  89 125 170 206 247 317 382
#     4  11  23  41  63  92 125 158 205 266 310 359
#
# _framework density 25.816575
#
# number of rings (size 3 to 8) (size 9 to 14) (size 15 to 20)
#    0.000    1.600    0.000    5.400    0.000   11.200 
#    0.000    3.000    0.000    0.000    0.000    0.000 
#    0.000    0.000    0.000    0.000    0.000    0.000 
#
# Total GULP energy -223862.919093 kJ/mol
# GULP energy per Si atom -5596.572977 kJ/mol
# Density = 2.575782 g / cm^3
# Si number density = 25.816575 Si / 1000 Ang^3
#
#
#
# Elastic Constant Matrix: (Units=GPa)
#
#
# Indices 1 2 3 4 5 6 
#
# 1 94.0981 17.6096 -4.3378 0.0000 0.0000 0.0000
# 2 17.6096 140.8861 2.2022 0.0000 0.0000 0.0000
# 3 -4.3378 2.2022 89.2530 0.0000 0.0000 0.0000
# 4 0.0000 0.0000 0.0000 19.1937 0.0000 0.0000
# 5 0.0000 0.0000 0.0000 0.0000 18.9410 0.0000
# 6 0.0000 0.0000 0.0000 0.0000 0.0000 47.5947
#
#
#
# Elastic Compliance Matrix: (Units=1/GPa)
#
#
# Indices 1 2 3 4 5 6 
#
# 1 0.010910 -0.001372 0.000564 0.000000 0.000000 0.000000
# 2 -0.001372 0.007273 -0.000246 0.000000 0.000000 0.000000
# 3 0.000564 -0.000246 0.011238 0.000000 0.000000 0.000000
# 4 0.000000 0.000000 0.000000 0.052100 0.000000 0.000000
# 5 0.000000 0.000000 0.000000 0.000000 0.052796 0.000000
# 6 0.000000 0.000000 0.000000 0.000000 0.000000 0.021011
#
#
# Mechanical properties :
#
#
# Convention : Reuss Voigt Hill
#
# Bulk Modulus (GPa) = 36.61408 39.46502 38.03955
# Shear Modulus (GPa) = 30.02269 37.73010 33.87639
#
# Velocity S-wave (km/s) = 3.41387 3.82706 3.62635
# Velocity P-wave (km/s) = 5.45458 5.90326 5.68335
#
# Compressibility (1/GPa) = 0.02731190
#
# Stress axis : x y z
#
# Youngs Moduli (GPa) = 91.65857 137.48863 88.98702
#
# Poissons Ratio (x) = 0.18870 -0.05020
# Poissons Ratio (y) = 0.12580 0.02191
# Poissons Ratio (z) = -0.05170 0.03384
#
# Static dielectric constant tensor:
#      x y z
#    x 2.025260 0.000000 0.000000 
#    y 0.000000 2.008770 0.000000 
#    z 0.000000 0.000000 2.098810 
# 
# From -- ./inp_files/2689.got.cif
#   From: 2010.05.17/outbox.cif.g08.bks.cpg/sg61_2_cif.got.tgz:2689.got - 2010.06.03 15:17:17.
