data_PCOD9460723
_publ_section_title
;
Structure prediction by ZEFSAII (Michael W. Deem and Ramdas Pophale) SiO2 
 PCOD9460723
Probable space group: P B C A
;
_chemical_formula_sum "Si O2"
_cell_formula_units_Z 36
_cell_length_a 4.920612
_cell_length_b 9.170969
_cell_length_c 27.874591
_cell_angle_alpha 90.000000
_cell_angle_beta 90.000000
_cell_angle_gamma 90.000000
_cell_volume 1257.890539
_symmetry_space_group_name_H-M "P B C A"
_symmetry_group_IT_number 61
_symmetry_cell_setting 'orthorhombic'
loop_
_space_group_symop_operation_xyz
x,y,z
1/2-x,-y,1/2+z
1/2+x,1/2-y,-z
-x,1/2+y,1/2-z
-x,-y,-z
1/2+x,y,1/2-z
1/2-x,1/2+y,z
x,1/2-y,1/2+z
loop_
_atom_site_type_symbol
_atom_site_label
_atom_site_fract_x
_atom_site_fract_y
_atom_site_fract_z
Si Si1 0.330775 0.572616 0.157297
Si Si2 0.759486 0.757099 0.933249
Si Si3 0.725232 0.060244 0.581058
Si Si4 0.999050 0.155561 0.718676
Si Si5 0.500000 0.000000 0.500000
O O1 0.169014 0.657812 0.115113
O O2 0.579385 0.494631 0.129131
O O3 0.444893 0.688375 0.194970
O O4 0.125927 0.464620 0.183671
O O5 0.544482 0.631422 0.946612
O O6 0.809837 0.870502 0.974045
O O7 0.028210 0.669251 0.915402
O O8 0.757532 0.945447 0.539103
O O9 0.186367 0.142767 0.766412
#
# Coordination Sequence:
#
# PCOD9460723 Si02
#       5
#     8   8   8   8   4
#     4  11  26  49  76 109 147 195 243 311 379 447
#     4  11  25  44  72 107 150 194 248 302 365 447
#     4  11  25  44  72 107 150 194 248 302 365 447
#     4  12  28  48  76 108 146 190 250 312 380 456
#     4  10  24  42  72 106 150 200 246 302 362 436
#
# _framework density 28.619344000000002
#
# number of rings (size 3 to 8) (size 9 to 14) (size 15 to 20)
#    0.000    0.889    2.222    2.667    3.111   12.444 
#    0.000    0.000    0.000    0.000    0.000    0.000 
#    0.000    0.000    0.000    0.000    0.000    0.000 
#
# Total GULP energy -201607.318524 kJ/mol
# GULP energy per Si atom -5600.203292 kJ/mol
# Density = 2.855420 g / cm^3
# Si number density = 28.619344 Si / 1000 Ang^3
#
#
#
# Elastic Constant Matrix: (Units=GPa)
#
#
# Indices 1 2 3 4 5 6 
#
# 1 135.2712 44.2677 31.1997 0.0000 0.0000 0.0000
# 2 44.2677 149.5014 47.3759 0.0000 0.0000 0.0000
# 3 31.1997 47.3759 164.1007 0.0000 0.0000 0.0000
# 4 0.0000 0.0000 0.0000 71.1994 0.0000 0.0000
# 5 0.0000 0.0000 0.0000 0.0000 45.2627 0.0000
# 6 0.0000 0.0000 0.0000 0.0000 0.0000 21.6236
#
#
#
# Elastic Compliance Matrix: (Units=1/GPa)
#
#
# Indices 1 2 3 4 5 6 
#
# 1 0.008320 -0.002160 -0.000958 0.000000 0.000000 0.000000
# 2 -0.002160 0.007923 -0.001877 0.000000 0.000000 0.000000
# 3 -0.000958 -0.001877 0.006818 0.000000 0.000000 0.000000
# 4 0.000000 0.000000 0.000000 0.014045 0.000000 0.000000
# 5 0.000000 0.000000 0.000000 0.000000 0.022093 0.000000
# 6 0.000000 0.000000 0.000000 0.000000 0.000000 0.046246
#
#
# Mechanical properties :
#
#
# Convention : Reuss Voigt Hill
#
# Bulk Modulus (GPa) = 76.50348 77.17332 76.83840
# Shear Modulus (GPa) = 41.73870 49.35248 45.54559
#
# Velocity S-wave (km/s) = 3.82305 4.15715 3.99360
# Velocity P-wave (km/s) = 6.80273 7.07577 6.94059
#
# Compressibility (1/GPa) = 0.01307130
#
# Stress axis : x y z
#
# Youngs Moduli (GPa) = 120.18564 126.21133 146.67397
#
# Poissons Ratio (x) = 0.27262 0.14056
# Poissons Ratio (y) = 0.25960 0.27527
# Poissons Ratio (z) = 0.11518 0.23687
#
# Static dielectric constant tensor:
#      x y z
#    x 2.373240 0.000000 0.000000 
#    y 0.000000 2.337570 0.000000 
#    z 0.000000 0.000000 2.401700 
# 
# From -- ./inp_files/11562.got.cif
#   From: 2010.05.17/outbox.cif.g08.bks.cpg/sg61_6_cif.got.tgz:11562.got - 2010.06.03 15:17:17.
