data_PCOD9460167
_publ_section_title
;
Structure prediction by ZEFSAII (Michael W. Deem and Ramdas Pophale) SiO2 
 PCOD9460167
Probable space group: P B C A
;
_chemical_formula_sum "Si O2"
_cell_formula_units_Z 40
_cell_length_a 8.457785
_cell_length_b 14.737197
_cell_length_c 14.236642
_cell_angle_alpha 90.000000
_cell_angle_beta 90.000000
_cell_angle_gamma 90.000000
_cell_volume 1774.512628
_symmetry_space_group_name_H-M "P B C A"
_symmetry_group_IT_number 61
_symmetry_cell_setting 'orthorhombic'
loop_
_space_group_symop_operation_xyz
x,y,z
1/2-x,-y,1/2+z
1/2+x,1/2-y,-z
-x,1/2+y,1/2-z
-x,-y,-z
1/2+x,y,1/2-z
1/2-x,1/2+y,z
x,1/2-y,1/2+z
loop_
_atom_site_type_symbol
_atom_site_label
_atom_site_fract_x
_atom_site_fract_y
_atom_site_fract_z
Si Si1 0.312606 0.256663 0.194924
Si Si2 0.192134 0.819981 0.905422
Si Si3 0.047010 0.391463 0.240514
Si Si4 0.772170 0.018600 0.619885
Si Si5 0.328625 0.660412 0.031848
O O1 0.318732 0.220137 0.300763
O O2 0.465349 0.320565 0.186855
O O3 0.277010 0.175220 0.125055
O O4 0.170508 0.328887 0.185426
O O5 0.013738 0.838530 0.941984
O O6 0.287674 0.913471 0.901778
O O7 0.279376 0.746989 0.969577
O O8 0.922494 0.434847 0.169398
O O9 0.134613 0.466408 0.302438
O O10 0.721378 0.072775 0.527113
#
# Coordination Sequence:
#
# PCOD9460167 Si02
#       5
#     8   8   8   8   8
#     4  11  22  44  72 100 140 193 231 295 366 415
#     4  12  27  46  72 105 145 193 235 298 361 424
#     4  10  21  45  71  97 144 183 238 291 351 425
#     4  11  25  46  71 108 140 188 242 294 355 430
#     4  12  24  47  72 105 146 188 244 295 352 431
#
# _framework density 22.541399999999999
#
# number of rings (size 3 to 8) (size 9 to 14) (size 15 to 20)
#    0.000    0.800    6.000    1.800    2.800    0.000 
#    3.600    2.000    0.000    0.000    0.000    0.000 
#    0.000    0.000    0.000    0.000    0.000    0.000 
#
# Total GULP energy -223978.986018 kJ/mol
# GULP energy per Si atom -5599.474650 kJ/mol
# Density = 2.249009 g / cm^3
# Si number density = 22.541400 Si / 1000 Ang^3
#
#
#
# Elastic Constant Matrix: (Units=GPa)
#
#
# Indices 1 2 3 4 5 6 
#
# 1 50.4664 -10.9997 5.7363 0.0000 0.0000 0.0000
# 2 -10.9997 60.4172 -1.7418 0.0000 0.0000 0.0000
# 3 5.7363 -1.7418 101.3613 0.0000 0.0000 0.0000
# 4 0.0000 0.0000 0.0000 -16.2849 0.0000 0.0000
# 5 0.0000 0.0000 0.0000 0.0000 18.9854 0.0000
# 6 0.0000 0.0000 0.0000 0.0000 0.0000 13.6442
#
#
#
# Elastic Compliance Matrix: (Units=1/GPa)
#
#
# Indices 1 2 3 4 5 6 
#
# 1 0.020758 0.003747 -0.001110 0.000000 0.000000 0.000000
# 2 0.003747 0.017236 0.000084 0.000000 0.000000 0.000000
# 3 -0.001110 0.000084 0.009930 0.000000 0.000000 0.000000
# 4 0.000000 0.000000 0.000000 -0.061407 0.000000 0.000000
# 5 0.000000 0.000000 0.000000 0.000000 0.052672 0.000000
# 6 0.000000 0.000000 0.000000 0.000000 0.000000 0.073291
#
#
# Mechanical properties :
#
#
# Convention : Reuss Voigt Hill
#
# Bulk Modulus (GPa) = 18.73839 22.02606 20.38223
# Shear Modulus (GPa) = 40.05527 17.88564 28.97045
#
# Velocity S-wave (km/s) = 4.21998 2.81989 3.58887
# Velocity P-wave (km/s) = 5.66350 4.51608 5.12202
#
# Compressibility (1/GPa) = 0.05336638
#
# Stress axis : x y z
#
# Youngs Moduli (GPa) = 48.17392 58.01734 100.70517
#
# Poissons Ratio (x) = -0.21741 0.11182
# Poissons Ratio (y) = -0.18052 -0.00847
# Poissons Ratio (z) = 0.05349 -0.00488
#
# Static dielectric constant tensor:
#      x y z
#    x 1.875720 0.000000 0.000000 
#    y 0.000000 1.780120 0.000000 
#    z 0.000000 0.000000 1.851360 
# 
# From -- ./inp_files/2700.got.cif
#   From: 2010.05.17/outbox.cif.g08.bks.cpg/sg61_2_cif.got.tgz:2700.got - 2010.06.03 15:17:17.
