data_PCOD9460701
_publ_section_title
;
Structure prediction by ZEFSAII (Michael W. Deem and Ramdas Pophale) SiO2 
 PCOD9460701
Probable space group: P B C A
;
_chemical_formula_sum "Si O2"
_cell_formula_units_Z 40
_cell_length_a 10.773619
_cell_length_b 9.907055
_cell_length_c 15.608360
_cell_angle_alpha 90.000000
_cell_angle_beta 90.000000
_cell_angle_gamma 90.000000
_cell_volume 1665.955745
_symmetry_space_group_name_H-M "P B C A"
_symmetry_group_IT_number 61
_symmetry_cell_setting 'orthorhombic'
loop_
_space_group_symop_operation_xyz
x,y,z
1/2-x,-y,1/2+z
1/2+x,1/2-y,-z
-x,1/2+y,1/2-z
-x,-y,-z
1/2+x,y,1/2-z
1/2-x,1/2+y,z
x,1/2-y,1/2+z
loop_
_atom_site_type_symbol
_atom_site_label
_atom_site_fract_x
_atom_site_fract_y
_atom_site_fract_z
Si Si1 0.915257 0.710080 0.322883
Si Si2 0.909991 0.959087 0.217528
Si Si3 0.482508 0.220910 0.496881
Si Si4 0.304706 0.505184 0.956296
Si Si5 0.343228 0.393051 0.611382
O O1 0.772398 0.694533 0.351667
O O2 0.978489 0.560255 0.312693
O O3 0.982769 0.778405 0.404572
O O4 0.935834 0.802897 0.239840
O O5 0.869112 0.011789 0.309654
O O6 0.802121 0.978603 0.146091
O O7 0.587019 0.111237 0.518585
O O8 0.462062 0.312384 0.578496
O O9 0.353664 0.142533 0.480403
O O10 0.196804 0.537966 0.021840
#
# Coordination Sequence:
#
# PCOD9460701 Si02
#       5
#     8   8   8   8   8
#     4  10  24  41  63  95 127 168 213 257 315 377
#     4  11  23  40  65  94 129 165 209 265 314 375
#     4   9  19  39  60  83 124 165 202 253 311 374
#     4   9  20  38  59  86 123 164 202 253 317 370
#     4  11  22  38  65  92 123 166 214 259 313 373
#
# _framework density 24.010241000000001
#
# number of rings (size 3 to 8) (size 9 to 14) (size 15 to 20)
#    0.000    2.000    0.000    3.600    0.000    7.200 
#    0.000    0.000    0.000    0.000    0.000    0.000 
#    0.000    0.000    0.000    0.000    0.000    0.000 
#
# Total GULP energy -223332.620783 kJ/mol
# GULP energy per Si atom -5583.315520 kJ/mol
# Density = 2.395559 g / cm^3
# Si number density = 24.010241 Si / 1000 Ang^3
#
#
#
# Elastic Constant Matrix: (Units=GPa)
#
#
# Indices 1 2 3 4 5 6 
#
# 1 27.2356 1.7510 12.2406 0.0000 0.0000 0.0000
# 2 1.7510 38.6389 47.1374 0.0000 0.0000 0.0000
# 3 12.2406 47.1374 163.1029 0.0000 0.0000 0.0000
# 4 0.0000 0.0000 0.0000 49.0583 0.0000 0.0000
# 5 0.0000 0.0000 0.0000 0.0000 37.6468 0.0000
# 6 0.0000 0.0000 0.0000 0.0000 0.0000 15.2425
#
#
#
# Elastic Compliance Matrix: (Units=1/GPa)
#
#
# Indices 1 2 3 4 5 6 
#
# 1 0.038183 0.002727 -0.003654 0.000000 0.000000 0.000000
# 2 0.002727 0.040169 -0.011814 0.000000 0.000000 0.000000
# 3 -0.003654 -0.011814 0.009820 0.000000 0.000000 0.000000
# 4 0.000000 0.000000 0.000000 0.020384 0.000000 0.000000
# 5 0.000000 0.000000 0.000000 0.000000 0.026563 0.000000
# 6 0.000000 0.000000 0.000000 0.000000 0.000000 0.065606
#
#
# Mechanical properties :
#
#
# Convention : Reuss Voigt Hill
#
# Bulk Modulus (GPa) = 15.95122 39.02617 27.48870
# Shear Modulus (GPa) = 20.23451 31.57942 25.90697
#
# Velocity S-wave (km/s) = 2.90616 3.63057 3.28837
# Velocity P-wave (km/s) = 4.23308 5.81928 5.08836
#
# Compressibility (1/GPa) = 0.06269111
#
# Stress axis : x y z
#
# Youngs Moduli (GPa) = 26.18940 24.89470 101.83802
#
# Poissons Ratio (x) = -0.06789 0.37209
# Poissons Ratio (y) = -0.07142 1.20309
# Poissons Ratio (z) = 0.09569 0.29410
#
# Static dielectric constant tensor:
#      x y z
#    x 1.940850 0.000000 0.000000 
#    y 0.000000 2.025380 0.000000 
#    z 0.000000 0.000000 1.912860 
# 
# From -- ./inp_files/5117.got.cif
#   From: 2010.05.17/outbox.cif.g08.bks.cpg/sg61_3_cif.got.tgz:5117.got - 2010.06.03 15:17:17.
