data_PCOD9460903
_publ_section_title
;
Structure prediction by ZEFSAII (Michael W. Deem and Ramdas Pophale) SiO2 
 PCOD9460903
Probable space group: P B C A
;
_chemical_formula_sum "Si O2"
_cell_formula_units_Z 32
_cell_length_a 8.627144
_cell_length_b 11.730352
_cell_length_c 11.606579
_cell_angle_alpha 90.000000
_cell_angle_beta 90.000000
_cell_angle_gamma 90.000000
_cell_volume 1174.579247
_symmetry_space_group_name_H-M "P B C A"
_symmetry_group_IT_number 61
_symmetry_cell_setting 'orthorhombic'
loop_
_space_group_symop_operation_xyz
x,y,z
1/2-x,-y,1/2+z
1/2+x,1/2-y,-z
-x,1/2+y,1/2-z
-x,-y,-z
1/2+x,y,1/2-z
1/2-x,1/2+y,z
x,1/2-y,1/2+z
loop_
_atom_site_type_symbol
_atom_site_label
_atom_site_fract_x
_atom_site_fract_y
_atom_site_fract_z
Si Si1 0.520988 0.113990 0.399594
Si Si2 0.681964 0.583378 0.806339
Si Si3 0.504414 0.452994 0.652739
Si Si4 0.169421 0.719544 0.030267
O O1 0.551236 0.977815 0.388389
O O2 0.538343 0.131347 0.260804
O O3 0.370523 0.183775 0.437570
O O4 0.664147 0.161439 0.473446
O O5 0.633629 0.549489 0.676744
O O6 0.842562 0.519431 0.829017
O O7 0.683116 0.710620 0.848908
O O8 0.469244 0.372997 0.544683
#
# Coordination Sequence:
#
# PCOD9460903 Si02
#       4
#     8   8   8   8
#     4   9  23  37  59  91 120 152 210 244 293 376
#     4   9  21  39  59  86 121 158 196 250 300 356
#     4   9  22  39  56  92 119 154 213 238 290 380
#     4  11  21  40  64  87 123 164 190 258 306 343
#
# _framework density 27.2438
#
# number of rings (size 3 to 8) (size 9 to 14) (size 15 to 20)
#    1.500    1.000    0.000    0.750    7.000    0.000 
#    0.000    5.000    0.000    0.000    0.000    0.000 
#    0.000    0.000    0.000    0.000    0.000    0.000 
#
# Total GULP energy -178384.947627 kJ/mol
# GULP energy per Si atom -5574.529613 kJ/mol
# Density = 2.718179 g / cm^3
# Si number density = 27.243800 Si / 1000 Ang^3
#
#
#
# Elastic Constant Matrix: (Units=GPa)
#
#
# Indices 1 2 3 4 5 6 
#
# 1 89.1948 35.4653 23.9831 0.0000 0.0000 0.0000
# 2 35.4653 81.8698 17.1284 0.0000 0.0000 0.0000
# 3 23.9831 17.1284 74.6913 0.0000 0.0000 0.0000
# 4 0.0000 0.0000 0.0000 4.2256 0.0000 0.0000
# 5 0.0000 0.0000 0.0000 0.0000 47.4959 0.0000
# 6 0.0000 0.0000 0.0000 0.0000 0.0000 48.5241
#
#
#
# Elastic Compliance Matrix: (Units=1/GPa)
#
#
# Indices 1 2 3 4 5 6 
#
# 1 0.014291 -0.005494 -0.003329 0.000000 0.000000 0.000000
# 2 -0.005494 0.014942 -0.001662 0.000000 0.000000 0.000000
# 3 -0.003329 -0.001662 0.014839 0.000000 0.000000 0.000000
# 4 0.000000 0.000000 0.000000 0.236655 0.000000 0.000000
# 5 0.000000 0.000000 0.000000 0.000000 0.021054 0.000000
# 6 0.000000 0.000000 0.000000 0.000000 0.000000 0.020608
#
#
# Mechanical properties :
#
#
# Convention : Reuss Voigt Hill
#
# Bulk Modulus (GPa) = 43.28843 44.32329 43.80586
# Shear Modulus (GPa) = 14.24253 31.32771 22.78512
#
# Velocity S-wave (km/s) = 2.28892 3.39470 2.89509
# Velocity P-wave (km/s) = 4.78637 5.62759 5.22394
#
# Compressibility (1/GPa) = 0.02310086
#
# Stress axis : x y z
#
# Youngs Moduli (GPa) = 69.97342 66.92345 67.39206
#
# Poissons Ratio (x) = 0.36770 0.22434
# Poissons Ratio (y) = 0.38446 0.11203
# Poissons Ratio (z) = 0.23293 0.11126
#
# Static dielectric constant tensor:
#      x y z
#    x 2.088860 0.000000 0.000000 
#    y 0.000000 2.159170 0.000000 
#    z 0.000000 0.000000 2.379970 
# 
# From -- ./inp_files/1991.got.cif
#   From: 2010.05.17/outbox.cif.g08.bks.cpg/sg61_1_cif.got.tgz:1991.got - 2010.06.03 15:17:17.
