data_PCOD9460147
_publ_section_title
;
Structure prediction by ZEFSAII (Michael W. Deem and Ramdas Pophale) SiO2 
 PCOD9460147
Probable space group: P B C A
;
_chemical_formula_sum "Si O2"
_cell_formula_units_Z 64
_cell_length_a 20.860039
_cell_length_b 16.154652
_cell_length_c 9.709514
_cell_angle_alpha 90.000000
_cell_angle_beta 90.000000
_cell_angle_gamma 90.000000
_cell_volume 3271.976797
_symmetry_space_group_name_H-M "P B C A"
_symmetry_group_IT_number 61
_symmetry_cell_setting 'orthorhombic'
loop_
_space_group_symop_operation_xyz
x,y,z
1/2-x,-y,1/2+z
1/2+x,1/2-y,-z
-x,1/2+y,1/2-z
-x,-y,-z
1/2+x,y,1/2-z
1/2-x,1/2+y,z
x,1/2-y,1/2+z
loop_
_atom_site_type_symbol
_atom_site_label
_atom_site_fract_x
_atom_site_fract_y
_atom_site_fract_z
Si Si1 0.861183 0.617902 0.481487
Si Si2 0.604732 0.955610 0.965280
Si Si3 0.404691 0.470698 0.214641
Si Si4 0.449340 0.582259 0.756583
Si Si5 0.658597 0.704565 0.785730
Si Si6 0.532479 0.700003 0.371790
Si Si7 0.041335 0.262622 0.622521
Si Si8 0.715529 0.668316 0.486587
O O1 0.877336 0.546103 0.372732
O O2 0.900949 0.593293 0.616901
O O3 0.890897 0.703256 0.424395
O O4 0.786698 0.634447 0.505448
O O5 0.552982 0.882005 0.951290
O O6 0.583602 0.023208 0.855899
O O7 0.604941 0.985932 0.122064
O O8 0.671397 0.908337 0.935442
O O9 0.480825 0.452175 0.197336
O O10 0.364170 0.388010 0.175868
O O11 0.458439 0.671633 0.686714
O O12 0.593878 0.758507 0.800101
O O13 0.684928 0.697956 0.631121
O O14 0.708063 0.754118 0.882683
O O15 0.484964 0.681124 0.246611
O O16 0.502902 0.760319 0.486771
#
# Coordination Sequence:
#
# PCOD9460147 Si02
#       8
#     8   8   8   8   8   8   8   8
#     4  12  28  41  61  98 138 174 219 273 331 395
#     4  10  23  41  68  93 127 175 217 270 328 396
#     4  11  22  43  68 100 128 168 221 277 335 391
#     4  12  24  41  67 100 133 168 216 277 346 394
#     4  10  21  43  71  92 127 171 222 271 317 396
#     4  11  20  41  68  98 129 163 219 274 335 387
#     4  12  23  39  64 100 135 166 215 277 342 392
#     4  10  25  45  62  95 127 180 230 260 325 397
#
# _framework density 19.560040999999998
#
# number of rings (size 3 to 8) (size 9 to 14) (size 15 to 20)
#    0.000    1.000    3.750    3.000    3.500    5.000 
#    0.000    0.000    0.000    0.000    0.000    0.000 
#    0.000    0.000    0.000    0.000    0.000    0.000 
#
# Total GULP energy -357546.082630 kJ/mol
# GULP energy per Si atom -5586.657541 kJ/mol
# Density = 1.951552 g / cm^3
# Si number density = 19.560041 Si / 1000 Ang^3
#
#
#
# Elastic Constant Matrix: (Units=GPa)
#
#
# Indices 1 2 3 4 5 6 
#
# 1 65.2081 27.8398 39.5102 0.0000 0.0000 0.0000
# 2 27.8398 71.0432 43.3250 0.0000 0.0000 0.0000
# 3 39.5102 43.3250 93.4660 0.0000 0.0000 0.0000
# 4 0.0000 0.0000 0.0000 31.0131 0.0000 0.0000
# 5 0.0000 0.0000 0.0000 0.0000 -4.2191 0.0000
# 6 0.0000 0.0000 0.0000 0.0000 0.0000 23.4098
#
#
#
# Elastic Compliance Matrix: (Units=1/GPa)
#
#
# Indices 1 2 3 4 5 6 
#
# 1 0.021401 -0.004000 -0.007193 0.000000 0.000000 0.000000
# 2 -0.004000 0.020371 -0.007752 0.000000 0.000000 0.000000
# 3 -0.007193 -0.007752 0.017333 0.000000 0.000000 0.000000
# 4 0.000000 0.000000 0.000000 0.032244 0.000000 0.000000
# 5 0.000000 0.000000 0.000000 0.000000 -0.237015 0.000000
# 6 0.000000 0.000000 0.000000 0.000000 0.000000 0.042717
#
#
# Mechanical properties :
#
#
# Convention : Reuss Voigt Hill
#
# Bulk Modulus (GPa) = 47.13430 50.11857 48.62643
# Shear Modulus (GPa) = -86.22575 17.97691 -34.12442
#
# Velocity S-wave (km/s) = -6.64668 3.03489 -4.18137
# Velocity P-wave (km/s) = 5.89532 6.16111 1.26580
#
# Compressibility (1/GPa) = 0.02121597
#
# Stress axis : x y z
#
# Youngs Moduli (GPa) = 46.72584 49.08992 57.69445
#
# Poissons Ratio (x) = 0.19637 0.41497
# Poissons Ratio (y) = 0.18692 0.44722
# Poissons Ratio (z) = 0.33608 0.38053
#
# Static dielectric constant tensor:
#      x y z
#    x 1.683660 0.000000 0.000000 
#    y 0.000000 1.697610 0.000000 
#    z 0.000000 0.000000 1.696690 
# 
# From -- ./inp_files/4075.got.cif
#   From: 2010.05.17/outbox.cif.g08.bks.cpg/sg61_3_cif.got.tgz:4075.got - 2010.06.03 15:17:17.
