data_PCOD9460960
_publ_section_title
;
Structure prediction by ZEFSAII (Michael W. Deem and Ramdas Pophale) SiO2 
 PCOD9460960
Probable space group: P B C A
;
_chemical_formula_sum "Si O2"
_cell_formula_units_Z 64
_cell_length_a 8.271966
_cell_length_b 11.770618
_cell_length_c 29.493778
_cell_angle_alpha 90.000000
_cell_angle_beta 90.000000
_cell_angle_gamma 90.000000
_cell_volume 2871.695669
_symmetry_space_group_name_H-M "P B C A"
_symmetry_group_IT_number 61
_symmetry_cell_setting 'orthorhombic'
loop_
_space_group_symop_operation_xyz
x,y,z
1/2-x,-y,1/2+z
1/2+x,1/2-y,-z
-x,1/2+y,1/2-z
-x,-y,-z
1/2+x,y,1/2-z
1/2-x,1/2+y,z
x,1/2-y,1/2+z
loop_
_atom_site_type_symbol
_atom_site_label
_atom_site_fract_x
_atom_site_fract_y
_atom_site_fract_z
Si Si1 0.573768 0.444082 0.455395
Si Si2 0.498699 0.283643 0.338034
Si Si3 0.155627 0.348557 0.374655
Si Si4 0.356307 0.780642 0.576805
Si Si5 0.156698 0.493046 0.203219
Si Si6 0.471597 0.028331 0.301428
Si Si7 0.546217 0.875980 0.886696
Si Si8 0.459512 0.483355 0.052474
O O1 0.500000 0.500000 0.500000
O O2 0.561227 0.307605 0.457111
O O3 0.487608 0.513126 0.414489
O O4 0.769024 0.450419 0.446812
O O5 0.341317 0.319281 0.366064
O O6 0.640848 0.280799 0.374847
O O7 0.553002 0.378107 0.302611
O O8 0.479430 0.157172 0.319405
O O9 0.114806 0.441042 0.335654
O O10 0.069744 0.225409 0.372262
O O11 0.083385 0.402473 0.421033
O O12 0.172187 0.823065 0.576067
O O13 0.462082 0.894213 0.576723
O O14 0.348305 0.478137 0.202782
O O15 0.119729 0.573188 0.159788
O O16 0.109457 0.538709 0.252330
O O17 0.500000 0.500000 0.000000
#
# Coordination Sequence:
#
# PCOD9460960 Si02
#       8
#     8   8   8   8   8   8   8   8
#     4  11  25  43  72 107 139 195 252 295 372 444
#     4  12  27  46  77 102 144 197 239 301 376 439
#     4  12  27  47  70 105 150 189 246 302 371 441
#     4  11  22  47  71  97 141 192 242 297 372 432
#     4  12  27  46  76 104 145 188 248 300 370 441
#     4  12  28  49  71 110 147 190 247 306 368 453
#     4  11  24  46  73  98 144 197 235 308 368 433
#     4  11  26  44  68 105 149 187 239 314 369 435
#
# _framework density 22.286483
#
# number of rings (size 3 to 8) (size 9 to 14) (size 15 to 20)
#    0.000    0.500    5.000    2.250    8.750    1.000 
#    0.000    0.000    0.000    0.000    0.000    0.000 
#    0.000    0.000    0.000    0.000    0.000    0.000 
#
# Total GULP energy -357239.135001 kJ/mol
# GULP energy per Si atom -5581.861484 kJ/mol
# Density = 2.223576 g / cm^3
# Si number density = 22.286483 Si / 1000 Ang^3
#
#
#
# Elastic Constant Matrix: (Units=GPa)
#
#
# Indices 1 2 3 4 5 6 
#
# 1 62.1931 29.0582 4.5594 0.0000 0.0000 0.0000
# 2 29.0582 105.1054 4.3505 0.0000 0.0000 0.0000
# 3 4.5594 4.3505 100.7344 0.0000 0.0000 0.0000
# 4 0.0000 0.0000 0.0000 29.2238 0.0000 0.0000
# 5 0.0000 0.0000 0.0000 0.0000 31.2397 0.0000
# 6 0.0000 0.0000 0.0000 0.0000 0.0000 27.2497
#
#
#
# Elastic Compliance Matrix: (Units=1/GPa)
#
#
# Indices 1 2 3 4 5 6 
#
# 1 0.018502 -0.005090 -0.000618 0.000000 0.000000 0.000000
# 2 -0.005090 0.010931 -0.000242 0.000000 0.000000 0.000000
# 3 -0.000618 -0.000242 0.009965 0.000000 0.000000 0.000000
# 4 0.000000 0.000000 0.000000 0.034219 0.000000 0.000000
# 5 0.000000 0.000000 0.000000 0.000000 0.032011 0.000000
# 6 0.000000 0.000000 0.000000 0.000000 0.000000 0.036698
#
#
# Mechanical properties :
#
#
# Convention : Reuss Voigt Hill
#
# Bulk Modulus (GPa) = 36.36227 38.21879 37.29053
# Shear Modulus (GPa) = 30.60139 32.88028 31.74083
#
# Velocity S-wave (km/s) = 3.70955 3.84519 3.77798
# Velocity P-wave (km/s) = 5.89058 6.07454 5.98327
#
# Compressibility (1/GPa) = 0.02750103
#
# Stress axis : x y z
#
# Youngs Moduli (GPa) = 54.04739 91.47961 100.34626
#
# Poissons Ratio (x) = 0.46560 0.06198
# Poissons Ratio (y) = 0.27509 0.02426
# Poissons Ratio (z) = 0.03338 0.02211
#
# Static dielectric constant tensor:
#      x y z
#    x 1.827020 0.000000 0.000000 
#    y 0.000000 1.890130 0.000000 
#    z 0.000000 0.000000 1.828570 
# 
# From -- ./inp_files/11721.got.cif
#   From: 2010.05.17/outbox.cif.g08.bks.cpg/sg61_6_cif.got.tgz:11721.got - 2010.06.03 15:17:17.
