data_PCOD9460402
_publ_section_title
;
Structure prediction by ZEFSAII (Michael W. Deem and Ramdas Pophale) SiO2 
 PCOD9460402
Probable space group: P B C A
;
_chemical_formula_sum "Si O2"
_cell_formula_units_Z 40
_cell_length_a 17.414466
_cell_length_b 6.949610
_cell_length_c 13.583512
_cell_angle_alpha 90.000000
_cell_angle_beta 90.000000
_cell_angle_gamma 90.000000
_cell_volume 1643.927520
_symmetry_space_group_name_H-M "P B C A"
_symmetry_group_IT_number 61
_symmetry_cell_setting 'orthorhombic'
loop_
_space_group_symop_operation_xyz
x,y,z
1/2-x,-y,1/2+z
1/2+x,1/2-y,-z
-x,1/2+y,1/2-z
-x,-y,-z
1/2+x,y,1/2-z
1/2-x,1/2+y,z
x,1/2-y,1/2+z
loop_
_atom_site_type_symbol
_atom_site_label
_atom_site_fract_x
_atom_site_fract_y
_atom_site_fract_z
Si Si1 0.380540 0.176596 0.740651
Si Si2 0.564370 0.236718 0.526125
Si Si3 0.351415 0.110245 0.520967
Si Si4 0.966553 0.994771 0.340465
Si Si5 0.692607 0.982669 0.074985
O O1 0.353317 0.088803 0.637666
O O2 0.400615 0.403140 0.724503
O O3 0.315887 0.124100 0.820761
O O4 0.460663 0.082355 0.778480
O O5 0.498407 0.327812 0.592911
O O6 0.557228 0.326387 0.416172
O O7 0.641451 0.327040 0.573726
O O8 0.578635 0.010216 0.523784
O O9 0.351248 0.333685 0.495902
O O10 0.273898 0.031113 0.471387
#
# Coordination Sequence:
#
# PCOD9460402 Si02
#       5
#     8   8   8   8   8
#     4  11  25  42  70 105 134 189 230 285 353 415
#     4  10  22  44  69  96 140 176 226 297 339 411
#     4  12  24  46  71  94 141 187 223 291 348 398
#     4  10  22  43  65 106 139 174 239 282 344 421
#     4  11  25  45  65 103 138 178 239 280 345 415
#
# _framework density 24.331975
#
# number of rings (size 3 to 8) (size 9 to 14) (size 15 to 20)
#    0.000    1.200    4.000    1.200    2.800    2.400 
#    0.000    0.000    0.000    0.000    0.000    0.000 
#    0.000    0.000    0.000    0.000    0.000    0.000 
#
# Total GULP energy -223857.691203 kJ/mol
# GULP energy per Si atom -5596.442280 kJ/mol
# Density = 2.427659 g / cm^3
# Si number density = 24.331975 Si / 1000 Ang^3
#
#
#
# Elastic Constant Matrix: (Units=GPa)
#
#
# Indices 1 2 3 4 5 6 
#
# 1 78.8940 4.5722 9.9787 0.0000 0.0000 0.0000
# 2 4.5722 54.6355 -6.1153 0.0000 0.0000 0.0000
# 3 9.9787 -6.1153 120.4880 0.0000 0.0000 0.0000
# 4 0.0000 0.0000 0.0000 35.5240 0.0000 0.0000
# 5 0.0000 0.0000 0.0000 0.0000 40.2599 0.0000
# 6 0.0000 0.0000 0.0000 0.0000 0.0000 36.0777
#
#
#
# Elastic Compliance Matrix: (Units=1/GPa)
#
#
# Indices 1 2 3 4 5 6 
#
# 1 0.012888 -0.001205 -0.001129 0.000000 0.000000 0.000000
# 2 -0.001205 0.018520 0.001040 0.000000 0.000000 0.000000
# 3 -0.001129 0.001040 0.008446 0.000000 0.000000 0.000000
# 4 0.000000 0.000000 0.000000 0.028150 0.000000 0.000000
# 5 0.000000 0.000000 0.000000 0.000000 0.024839 0.000000
# 6 0.000000 0.000000 0.000000 0.000000 0.000000 0.027718
#
#
# Mechanical properties :
#
#
# Convention : Reuss Voigt Hill
#
# Bulk Modulus (GPa) = 26.83352 30.09873 28.46613
# Shear Modulus (GPa) = 36.88134 38.74444 37.81289
#
# Velocity S-wave (km/s) = 3.89749 3.99473 3.94641
# Velocity P-wave (km/s) = 5.59518 5.80293 5.70000
#
# Compressibility (1/GPa) = 0.03726682
#
# Stress axis : x y z
#
# Youngs Moduli (GPa) = 77.59276 53.99469 118.40179
#
# Poissons Ratio (x) = 0.06505 0.13362
# Poissons Ratio (y) = 0.09349 -0.12311
# Poissons Ratio (z) = 0.08756 -0.05614
#
# Static dielectric constant tensor:
#      x y z
#    x 1.986680 0.000000 0.000000 
#    y 0.000000 1.946710 0.000000 
#    z 0.000000 0.000000 1.955030 
# 
# From -- ./inp_files/6094.got.cif
#   From: 2010.05.17/outbox.cif.g08.bks.cpg/sg61_4_cif.got.tgz:6094.got - 2010.06.03 15:17:17.
