data_PCOD9460408
_publ_section_title
;
Structure prediction by ZEFSAII (Michael W. Deem and Ramdas Pophale) SiO2 
 PCOD9460408
Probable space group: P B C A
;
_chemical_formula_sum "Si O2"
_cell_formula_units_Z 64
_cell_length_a 17.057373
_cell_length_b 11.166398
_cell_length_c 12.604274
_cell_angle_alpha 90.000000
_cell_angle_beta 90.000000
_cell_angle_gamma 90.000000
_cell_volume 2400.728705
_symmetry_space_group_name_H-M "P B C A"
_symmetry_group_IT_number 61
_symmetry_cell_setting 'orthorhombic'
loop_
_space_group_symop_operation_xyz
x,y,z
1/2-x,-y,1/2+z
1/2+x,1/2-y,-z
-x,1/2+y,1/2-z
-x,-y,-z
1/2+x,y,1/2-z
1/2-x,1/2+y,z
x,1/2-y,1/2+z
loop_
_atom_site_type_symbol
_atom_site_label
_atom_site_fract_x
_atom_site_fract_y
_atom_site_fract_z
Si Si1 0.154275 0.829716 0.601328
Si Si2 0.300732 0.460864 0.821439
Si Si3 0.860323 0.500833 0.102343
Si Si4 0.483807 0.804014 0.960952
Si Si5 0.950170 0.557976 0.612486
Si Si6 0.258232 0.896130 0.141208
Si Si7 0.922843 0.685155 0.833080
Si Si8 0.386286 0.962093 0.665352
O O1 0.174792 0.892554 0.713754
O O2 0.210356 0.716655 0.601499
O O3 0.063023 0.792973 0.604393
O O4 0.157130 0.905870 0.491378
O O5 0.221414 0.424286 0.880428
O O6 0.376992 0.468714 0.894026
O O7 0.275659 0.589988 0.768932
O O8 0.934592 0.583093 0.075329
O O9 0.880841 0.464642 0.223998
O O10 0.436833 0.680433 0.950171
O O11 0.495317 0.814663 0.086451
O O12 0.944051 0.605671 0.733500
O O13 0.036948 0.504170 0.601579
O O14 0.348226 0.875185 0.106974
O O15 0.198645 0.006347 0.115342
O O16 0.897687 0.821633 0.808376
#
# Coordination Sequence:
#
# PCOD9460408 Si02
#       8
#     8   8   8   8   8   8   8   8
#     4  12  24  46  71 105 145 185 245 304 356 442
#     4  10  25  43  70 104 143 190 236 302 361 433
#     4  11  23  44  74 101 135 195 243 284 369 435
#     4  12  25  44  73 105 138 190 243 295 361 438
#     4  11  23  44  66 103 139 178 237 295 365 430
#     4  10  22  43  67  97 140 183 226 295 362 413
#     4  11  25  45  71  98 148 183 237 310 354 432
#     4  11  22  45  72  99 144 187 234 298 365 432
#
# _framework density 26.658574000000002
#
# number of rings (size 3 to 8) (size 9 to 14) (size 15 to 20)
#    0.000    1.000    2.500    4.875    3.500    0.500 
#    0.000    0.000    0.000    0.000    0.000    0.000 
#    0.000    0.000    0.000    0.000    0.000    0.000 
#
# Total GULP energy -357792.103035 kJ/mol
# GULP energy per Si atom -5590.501610 kJ/mol
# Density = 2.659790 g / cm^3
# Si number density = 26.658574 Si / 1000 Ang^3
#
#
#
# Elastic Constant Matrix: (Units=GPa)
#
#
# Indices 1 2 3 4 5 6 
#
# 1 129.4655 10.1775 10.0308 0.0000 0.0000 0.0000
# 2 10.1775 68.6554 -4.1806 0.0000 0.0000 0.0000
# 3 10.0308 -4.1806 77.9719 0.0000 0.0000 0.0000
# 4 0.0000 0.0000 0.0000 37.1989 0.0000 0.0000
# 5 0.0000 0.0000 0.0000 0.0000 52.2489 0.0000
# 6 0.0000 0.0000 0.0000 0.0000 0.0000 34.6972
#
#
#
# Elastic Compliance Matrix: (Units=1/GPa)
#
#
# Indices 1 2 3 4 5 6 
#
# 1 0.007905 -0.001238 -0.001083 0.000000 0.000000 0.000000
# 2 -0.001238 0.014807 0.000953 0.000000 0.000000 0.000000
# 3 -0.001083 0.000953 0.013016 0.000000 0.000000 0.000000
# 4 0.000000 0.000000 0.000000 0.026882 0.000000 0.000000
# 5 0.000000 0.000000 0.000000 0.000000 0.019139 0.000000
# 6 0.000000 0.000000 0.000000 0.000000 0.000000 0.028821
#
#
# Mechanical properties :
#
#
# Convention : Reuss Voigt Hill
#
# Bulk Modulus (GPa) = 30.31052 34.23867 32.27460
# Shear Modulus (GPa) = 40.22405 42.16669 41.19537
#
# Velocity S-wave (km/s) = 3.88862 3.98141 3.93529
# Velocity P-wave (km/s) = 5.61751 5.83154 5.72552
#
# Compressibility (1/GPa) = 0.03299185
#
# Stress axis : x y z
#
# Youngs Moduli (GPa) = 126.49720 67.53545 76.83084
#
# Poissons Ratio (x) = 0.08360 0.08324
# Poissons Ratio (y) = 0.15659 -0.07323
# Poissons Ratio (z) = 0.13704 -0.06437
#
# Static dielectric constant tensor:
#      x y z
#    x 2.117620 0.000000 0.000000 
#    y 0.000000 2.124260 0.000000 
#    z 0.000000 0.000000 2.188940 
# 
# From -- ./inp_files/8199.got.cif
#   From: 2010.05.17/outbox.cif.g08.bks.cpg/sg61_5_cif.got.tgz:8199.got - 2010.06.03 15:17:17.
