data_PCOD9460869
_publ_section_title
;
Structure prediction by ZEFSAII (Michael W. Deem and Ramdas Pophale) SiO2 
 PCOD9460869
Probable space group: P B C A
;
_chemical_formula_sum "Si O2"
_cell_formula_units_Z 64
_cell_length_a 17.474303
_cell_length_b 11.666504
_cell_length_c 14.963375
_cell_angle_alpha 90.000000
_cell_angle_beta 90.000000
_cell_angle_gamma 90.000000
_cell_volume 3050.493868
_symmetry_space_group_name_H-M "P B C A"
_symmetry_group_IT_number 61
_symmetry_cell_setting 'orthorhombic'
loop_
_space_group_symop_operation_xyz
x,y,z
1/2-x,-y,1/2+z
1/2+x,1/2-y,-z
-x,1/2+y,1/2-z
-x,-y,-z
1/2+x,y,1/2-z
1/2-x,1/2+y,z
x,1/2-y,1/2+z
loop_
_atom_site_type_symbol
_atom_site_label
_atom_site_fract_x
_atom_site_fract_y
_atom_site_fract_z
Si Si1 0.114332 0.671735 0.429566
Si Si2 0.052771 0.960650 0.668191
Si Si3 0.656776 0.359270 0.797868
Si Si4 0.418138 0.801241 0.877858
Si Si5 0.037574 0.449801 0.357127
Si Si6 0.051290 0.294889 0.076990
Si Si7 0.629910 0.596927 0.886453
Si Si8 0.675702 0.706704 0.262253
O O1 0.089404 0.542012 0.405584
O O2 0.157744 0.661277 0.523979
O O3 0.164175 0.709952 0.344382
O O4 0.036201 0.747994 0.432726
O O5 0.015276 0.997502 0.761980
O O6 0.054072 0.073709 0.608732
O O7 0.133282 0.905434 0.697271
O O8 0.000925 0.862074 0.626008
O O9 0.632571 0.370948 0.693289
O O10 0.593067 0.285399 0.850321
O O11 0.665240 0.478265 0.851933
O O12 0.737243 0.294677 0.793164
O O13 0.421991 0.671252 0.842990
O O14 0.403227 0.789984 0.983136
O O15 0.958970 0.427942 0.407897
O O16 0.634137 0.684746 0.805042
#
# Coordination Sequence:
#
# PCOD9460869 Si02
#       8
#     8   8   8   8   8   8   8   8
#     4  11  23  42  73 102 123 174 228 273 328 393
#     4  11  22  40  63  95 132 164 213 280 330 380
#     4  12  27  43  63  98 133 181 218 266 331 399
#     4  12  23  40  67  98 128 167 221 277 331 380
#     4  11  19  38  68  97 126 159 216 281 318 379
#     4  12  23  40  70 100 130 164 223 282 330 382
#     4  12  22  44  72  94 131 172 225 271 323 397
#     4  11  27  44  62  94 139 177 215 265 336 398
#
# _framework density 20.980208000000001
#
# number of rings (size 3 to 8) (size 9 to 14) (size 15 to 20)
#    0.000    0.500    6.250    3.000    1.750    1.000 
#    0.000    0.000    0.000    0.000    0.000    0.000 
#    0.000    0.000    0.000    0.000    0.000    0.000 
#
# Total GULP energy -357442.490956 kJ/mol
# GULP energy per Si atom -5585.038921 kJ/mol
# Density = 2.093246 g / cm^3
# Si number density = 20.980208 Si / 1000 Ang^3
#
#
#
# Elastic Constant Matrix: (Units=GPa)
#
#
# Indices 1 2 3 4 5 6 
#
# 1 27.4942 -17.0665 -2.3661 0.0000 0.0000 0.0000
# 2 -17.0665 48.9596 18.0693 0.0000 0.0000 0.0000
# 3 -2.3661 18.0693 122.6291 0.0000 0.0000 0.0000
# 4 0.0000 0.0000 0.0000 27.9719 0.0000 0.0000
# 5 0.0000 0.0000 0.0000 0.0000 9.0270 0.0000
# 6 0.0000 0.0000 0.0000 0.0000 0.0000 7.0532
#
#
#
# Elastic Compliance Matrix: (Units=1/GPa)
#
#
# Indices 1 2 3 4 5 6 
#
# 1 0.046703 0.016865 -0.001584 0.000000 0.000000 0.000000
# 2 0.016865 0.027689 -0.003755 0.000000 0.000000 0.000000
# 3 -0.001584 -0.003755 0.008677 0.000000 0.000000 0.000000
# 4 0.000000 0.000000 0.000000 0.035750 0.000000 0.000000
# 5 0.000000 0.000000 0.000000 0.000000 0.110779 0.000000
# 6 0.000000 0.000000 0.000000 0.000000 0.000000 0.141779
#
#
# Mechanical properties :
#
#
# Convention : Reuss Voigt Hill
#
# Bulk Modulus (GPa) = 9.42307 21.81736 15.62022
# Shear Modulus (GPa) = 13.03100 22.17349 17.60224
#
# Velocity S-wave (km/s) = 2.49491 3.25449 2.89968
# Velocity P-wave (km/s) = 3.57779 4.95418 4.32114
#
# Compressibility (1/GPa) = 0.10612257
#
# Stress axis : x y z
#
# Youngs Moduli (GPa) = 21.41167 36.11485 115.24250
#
# Poissons Ratio (x) = -0.60906 0.18253
# Poissons Ratio (y) = -0.36110 0.43269
# Poissons Ratio (z) = 0.03391 0.13560
#
# Static dielectric constant tensor:
#      x y z
#    x 1.765910 0.000000 0.000000 
#    y 0.000000 1.756200 0.000000 
#    z 0.000000 0.000000 1.818960 
# 
# From -- ./inp_files/8195.got.cif
#   From: 2010.05.17/outbox.cif.g08.bks.cpg/sg61_5_cif.got.tgz:8195.got - 2010.06.03 15:17:17.
