data_PCOD9460559
_publ_section_title
;
Structure prediction by ZEFSAII (Michael W. Deem and Ramdas Pophale) SiO2 
 PCOD9460559
Probable space group: P B C A
;
_chemical_formula_sum "Si O2"
_cell_formula_units_Z 24
_cell_length_a 5.411176
_cell_length_b 13.206096
_cell_length_c 13.428025
_cell_angle_alpha 90.000000
_cell_angle_beta 90.000000
_cell_angle_gamma 90.000000
_cell_volume 959.573511
_symmetry_space_group_name_H-M "P B C A"
_symmetry_group_IT_number 61
_symmetry_cell_setting 'orthorhombic'
loop_
_space_group_symop_operation_xyz
x,y,z
1/2-x,-y,1/2+z
1/2+x,1/2-y,-z
-x,1/2+y,1/2-z
-x,-y,-z
1/2+x,y,1/2-z
1/2-x,1/2+y,z
x,1/2-y,1/2+z
loop_
_atom_site_type_symbol
_atom_site_label
_atom_site_fract_x
_atom_site_fract_y
_atom_site_fract_z
Si Si1 0.746516 0.315990 0.502313
Si Si2 0.633651 0.572721 0.801827
Si Si3 0.848286 0.651242 0.222575
O O1 0.501687 0.247462 0.483509
O O2 0.792173 0.391495 0.411246
O O3 0.688145 0.370373 0.606666
O O4 0.355721 0.603046 0.772747
O O5 0.633282 0.450260 0.788572
O O6 0.607602 0.706533 0.263609
#
# Coordination Sequence:
#
# PCOD9460559 Si02
#       3
#     8   8   8
#     4  12  26  42  66 100 134 168 214 274 332 380
#     4  10  23  42  67  95 130 173 219 264 320 392
#     4  10  23  42  67  95 130 173 219 264 320 392
#
# _framework density 25.011111
#
# number of rings (size 3 to 8) (size 9 to 14) (size 15 to 20)
#    0.000    1.333    0.000    4.000    0.000   18.667 
#    0.000    0.000    0.000    0.000    0.000    0.000 
#    0.000    0.000    0.000    0.000    0.000    0.000 
#
# Total GULP energy -134401.738115 kJ/mol
# GULP energy per Si atom -5600.072421 kJ/mol
# Density = 2.495419 g / cm^3
# Si number density = 25.011111 Si / 1000 Ang^3
#
#
#
# Elastic Constant Matrix: (Units=GPa)
#
#
# Indices 1 2 3 4 5 6 
#
# 1 225.3615 33.9436 23.5963 0.0000 0.0000 0.0000
# 2 33.9436 86.9297 5.4813 0.0000 0.0000 0.0000
# 3 23.5963 5.4813 127.7330 0.0000 0.0000 0.0000
# 4 0.0000 0.0000 0.0000 37.7098 0.0000 0.0000
# 5 0.0000 0.0000 0.0000 0.0000 45.9153 0.0000
# 6 0.0000 0.0000 0.0000 0.0000 0.0000 43.6921
#
#
#
# Elastic Compliance Matrix: (Units=1/GPa)
#
#
# Indices 1 2 3 4 5 6 
#
# 1 0.004796 -0.001822 -0.000808 0.000000 0.000000 0.000000
# 2 -0.001822 0.012227 -0.000188 0.000000 0.000000 0.000000
# 3 -0.000808 -0.000188 0.007986 0.000000 0.000000 0.000000
# 4 0.000000 0.000000 0.000000 0.026518 0.000000 0.000000
# 5 0.000000 0.000000 0.000000 0.000000 0.021779 0.000000
# 6 0.000000 0.000000 0.000000 0.000000 0.000000 0.022887
#
#
# Mechanical properties :
#
#
# Convention : Reuss Voigt Hill
#
# Bulk Modulus (GPa) = 51.61676 62.89627 57.25651
# Shear Modulus (GPa) = 46.17328 50.59699 48.38513
#
# Velocity S-wave (km/s) = 4.30130 4.50263 4.40312
# Velocity P-wave (km/s) = 6.73428 7.22728 6.98513
#
# Compressibility (1/GPa) = 0.01937355
#
# Stress axis : x y z
#
# Youngs Moduli (GPa) = 208.49362 81.78754 125.21693
#
# Poissons Ratio (x) = 0.14901 0.10116
# Poissons Ratio (y) = 0.37985 0.02356
# Poissons Ratio (z) = 0.16843 0.01539
#
# Static dielectric constant tensor:
#      x y z
#    x 2.080320 0.000000 0.000000 
#    y 0.000000 2.025130 0.000000 
#    z 0.000000 0.000000 1.891660 
# 
# From -- ./inp_files/126.got.cif
#   From: 2010.05.17/outbox.cif.g08.bks.cpg/sg61_1_cif.got.tgz:126.got - 2010.06.03 15:17:17.
