data_PCOD9460325
_publ_section_title
;
Structure prediction by ZEFSAII (Michael W. Deem and Ramdas Pophale) SiO2 
 PCOD9460325
Probable space group: P B C A
;
_chemical_formula_sum "Si O2"
_cell_formula_units_Z 48
_cell_length_a 8.373371
_cell_length_b 25.826059
_cell_length_c 8.321245
_cell_angle_alpha 90.000000
_cell_angle_beta 90.000000
_cell_angle_gamma 90.000000
_cell_volume 1799.478996
_symmetry_space_group_name_H-M "P B C A"
_symmetry_group_IT_number 61
_symmetry_cell_setting 'orthorhombic'
loop_
_space_group_symop_operation_xyz
x,y,z
1/2-x,-y,1/2+z
1/2+x,1/2-y,-z
-x,1/2+y,1/2-z
-x,-y,-z
1/2+x,y,1/2-z
1/2-x,1/2+y,z
x,1/2-y,1/2+z
loop_
_atom_site_type_symbol
_atom_site_label
_atom_site_fract_x
_atom_site_fract_y
_atom_site_fract_z
Si Si1 0.646891 0.434264 0.904576
Si Si2 0.319357 0.896281 0.101150
Si Si3 0.860903 0.368835 0.706653
Si Si4 0.881100 0.702177 0.689168
Si Si5 0.676743 0.733405 0.401485
Si Si6 0.978898 0.461603 0.279612
O O1 0.810746 0.409927 0.844204
O O2 0.521989 0.387480 0.877827
O O3 0.594274 0.481695 0.791571
O O4 0.618741 0.456547 0.083151
O O5 0.380224 0.853370 0.227090
O O6 0.730218 0.791181 0.069605
O O7 0.156399 0.921988 0.162665
O O8 0.445974 0.942711 0.113996
O O9 0.721442 0.372173 0.571317
O O10 0.873827 0.313208 0.785972
O O11 0.042942 0.721716 0.605229
O O12 0.837078 0.741199 0.832024
#
# Coordination Sequence:
#
# PCOD9460325 Si02
#       6
#     8   8   8   8   8   8
#     4  10  22  41  66  96 134 174 217 266 321 387
#     4  11  24  42  66  97 131 169 216 267 327 392
#     4  11  24  42  66  97 130 170 216 267 327 392
#     4  12  26  45  69  97 132 175 224 280 338 403
#     4  12  26  45  68  96 131 174 224 277 338 402
#     4  10  22  41  65  97 134 174 217 266 321 386
#
# _framework density 26.674388
#
# number of rings (size 3 to 8) (size 9 to 14) (size 15 to 20)
#    0.000    1.000    0.000    6.000    0.000   10.000 
#    0.000    1.667    0.000    0.000    0.000    0.000 
#    0.000    0.000    0.000    0.000    0.000    0.000 
#
# Total GULP energy -269229.231218 kJ/mol
# GULP energy per Si atom -5608.942317 kJ/mol
# Density = 2.661368 g / cm^3
# Si number density = 26.674388 Si / 1000 Ang^3
#
#
#
# Elastic Constant Matrix: (Units=GPa)
#
#
# Indices 1 2 3 4 5 6 
#
# 1 60.2763 10.4479 24.3330 0.0000 0.0000 0.0000
# 2 10.4479 116.7403 33.1893 0.0000 0.0000 0.0000
# 3 24.3330 33.1893 80.3623 0.0000 0.0000 0.0000
# 4 0.0000 0.0000 0.0000 33.7728 0.0000 0.0000
# 5 0.0000 0.0000 0.0000 0.0000 36.5416 0.0000
# 6 0.0000 0.0000 0.0000 0.0000 0.0000 47.5598
#
#
#
# Elastic Compliance Matrix: (Units=1/GPa)
#
#
# Indices 1 2 3 4 5 6 
#
# 1 0.018901 -0.000073 -0.005693 0.000000 0.000000 0.000000
# 2 -0.000073 0.009706 -0.003986 0.000000 0.000000 0.000000
# 3 -0.005693 -0.003986 0.015814 0.000000 0.000000 0.000000
# 4 0.000000 0.000000 0.000000 0.029610 0.000000 0.000000
# 5 0.000000 0.000000 0.000000 0.000000 0.027366 0.000000
# 6 0.000000 0.000000 0.000000 0.000000 0.000000 0.021026
#
#
# Mechanical properties :
#
#
# Convention : Reuss Voigt Hill
#
# Bulk Modulus (GPa) = 40.13479 43.70214 41.91847
# Shear Modulus (GPa) = 33.28170 36.20208 34.74189
#
# Velocity S-wave (km/s) = 3.53612 3.68800 3.61285
# Velocity P-wave (km/s) = 5.63480 5.87828 5.75783
#
# Compressibility (1/GPa) = 0.02491604
#
# Stress axis : x y z
#
# Youngs Moduli (GPa) = 52.90694 103.03025 63.23607
#
# Poissons Ratio (x) = 0.00753 0.36000
# Poissons Ratio (y) = 0.00387 0.25208
# Poissons Ratio (z) = 0.30119 0.41072
#
# Static dielectric constant tensor:
#      x y z
#    x 2.084470 0.000000 0.000000 
#    y 0.000000 2.001260 0.000000 
#    z 0.000000 0.000000 2.146250 
# 
# From -- ./inp_files/4422.got.cif
#   From: 2010.05.17/outbox.cif.g08.bks.cpg/sg61_3_cif.got.tgz:4422.got - 2010.06.03 15:17:17.
