data_PCOD9460679
_publ_section_title
;
Structure prediction by ZEFSAII (Michael W. Deem and Ramdas Pophale) SiO2 
 PCOD9460679
Probable space group: P B C A
;
_chemical_formula_sum "Si O2"
_cell_formula_units_Z 60
_cell_length_a 24.371100
_cell_length_b 5.390556
_cell_length_c 16.097138
_cell_angle_alpha 90.000000
_cell_angle_beta 90.000000
_cell_angle_gamma 90.000000
_cell_volume 2114.741855
_symmetry_space_group_name_H-M "P B C A"
_symmetry_group_IT_number 61
_symmetry_cell_setting 'orthorhombic'
loop_
_space_group_symop_operation_xyz
x,y,z
1/2-x,-y,1/2+z
1/2+x,1/2-y,-z
-x,1/2+y,1/2-z
-x,-y,-z
1/2+x,y,1/2-z
1/2-x,1/2+y,z
x,1/2-y,1/2+z
loop_
_atom_site_type_symbol
_atom_site_label
_atom_site_fract_x
_atom_site_fract_y
_atom_site_fract_z
Si Si1 0.000000 0.500000 0.500000
Si Si2 0.473277 0.108669 0.133439
Si Si3 0.151149 0.507740 0.341490
Si Si4 0.720115 0.768810 0.776894
Si Si5 0.375482 0.759244 0.004388
Si Si6 0.945638 0.172154 0.708419
Si Si7 0.788174 0.376328 0.961054
Si Si8 0.621774 0.226039 0.314807
O O1 0.970216 0.315592 0.434886
O O2 0.940856 0.688178 0.502612
O O3 0.488208 0.229923 0.223137
O O4 0.524308 0.924469 0.126278
O O5 0.421431 0.939316 0.154606
O O6 0.194165 0.713996 0.315491
O O7 0.153026 0.379537 0.428030
O O8 0.090558 0.611460 0.328924
O O9 0.157241 0.340147 0.259284
O O10 0.764760 0.984213 0.782269
O O11 0.692064 0.836538 0.865061
O O12 0.346884 0.036050 0.997361
O O13 0.356044 0.659164 0.094624
O O14 0.907486 0.998936 0.765724
O O15 0.751466 0.123583 0.975422
#
# Coordination Sequence:
#
# PCOD9460679 Si02
#       8
#     4   8   8   8   8   8   8   8
#     4  12  28  48  66 118 166 214 274 344 418 520
#     4  11  24  45  73 103 151 213 274 328 407 499
#     4  11  27  46  74 115 152 211 278 346 420 524
#     4  10  23  47  82 116 154 211 279 358 443 513
#     4  12  27  48  75 121 162 214 283 337 434 518
#     4  11  23  45  74 100 148 213 275 330 416 494
#     4  10  24  50  83 115 161 218 283 357 438 517
#     4  11  24  47  73 102 158 209 261 346 412 499
#
# _framework density 28.372257999999999
#
# number of rings (size 3 to 8) (size 9 to 14) (size 15 to 20)
#    0.000    1.067    4.000    0.800    5.600    3.733 
#    7.200    0.000    0.000    0.000    0.000    0.000 
#    0.000    0.000    0.000    0.000    0.000    0.000 
#
# Total GULP energy -334057.326464 kJ/mol
# GULP energy per Si atom -5567.622108 kJ/mol
# Density = 2.830768 g / cm^3
# Si number density = 28.372258 Si / 1000 Ang^3
#
#
#
# Elastic Constant Matrix: (Units=GPa)
#
#
# Indices 1 2 3 4 5 6 
#
# 1 61.4646 65.1188 41.1404 0.0000 0.0000 0.0000
# 2 65.1188 138.1841 61.2787 0.0000 0.0000 0.0000
# 3 41.1404 61.2787 152.2584 0.0000 0.0000 0.0000
# 4 0.0000 0.0000 0.0000 25.7352 0.0000 0.0000
# 5 0.0000 0.0000 0.0000 0.0000 42.6222 0.0000
# 6 0.0000 0.0000 0.0000 0.0000 0.0000 56.3160
#
#
#
# Elastic Compliance Matrix: (Units=1/GPa)
#
#
# Indices 1 2 3 4 5 6 
#
# 1 0.033812 -0.014464 -0.003315 0.000000 0.000000 0.000000
# 2 -0.014464 0.014996 -0.002127 0.000000 0.000000 0.000000
# 3 -0.003315 -0.002127 0.008320 0.000000 0.000000 0.000000
# 4 0.000000 0.000000 0.000000 0.038857 0.000000 0.000000
# 5 0.000000 0.000000 0.000000 0.000000 0.023462 0.000000
# 6 0.000000 0.000000 0.000000 0.000000 0.000000 0.017757
#
#
# Mechanical properties :
#
#
# Convention : Reuss Voigt Hill
#
# Bulk Modulus (GPa) = 57.75065 76.33143 67.04104
# Shear Modulus (GPa) = 27.35416 37.22596 32.29006
#
# Velocity S-wave (km/s) = 3.10839 3.62616 3.37721
# Velocity P-wave (km/s) = 5.76902 6.67038 6.23601
#
# Compressibility (1/GPa) = 0.01731582
#
# Stress axis : x y z
#
# Youngs Moduli (GPa) = 29.57536 66.68409 120.19790
#
# Poissons Ratio (x) = 0.96450 0.39844
# Poissons Ratio (y) = 0.42777 0.25569
# Poissons Ratio (z) = 0.09804 0.14185
#
# Static dielectric constant tensor:
#      x y z
#    x 2.524390 0.000000 0.000000 
#    y 0.000000 3.113910 0.000000 
#    z 0.000000 0.000000 2.286560 
# 
# From -- ./inp_files/9871.got.cif
#   From: 2010.05.17/outbox.cif.g08.bks.cpg/sg61_5_cif.got.tgz:9871.got - 2010.06.03 15:17:17.
