data_PCOD9460219
_publ_section_title
;
Structure prediction by ZEFSAII (Michael W. Deem and Ramdas Pophale) SiO2 
 PCOD9460219
Probable space group: P B C A
;
_chemical_formula_sum "Si O2"
_cell_formula_units_Z 48
_cell_length_a 14.514666
_cell_length_b 16.832342
_cell_length_c 8.458246
_cell_angle_alpha 90.000000
_cell_angle_beta 90.000000
_cell_angle_gamma 90.000000
_cell_volume 2066.483325
_symmetry_space_group_name_H-M "P B C A"
_symmetry_group_IT_number 61
_symmetry_cell_setting 'orthorhombic'
loop_
_space_group_symop_operation_xyz
x,y,z
1/2-x,-y,1/2+z
1/2+x,1/2-y,-z
-x,1/2+y,1/2-z
-x,-y,-z
1/2+x,y,1/2-z
1/2-x,1/2+y,z
x,1/2-y,1/2+z
loop_
_atom_site_type_symbol
_atom_site_label
_atom_site_fract_x
_atom_site_fract_y
_atom_site_fract_z
Si Si1 0.599460 0.776613 0.054178
Si Si2 0.820888 0.996572 0.414407
Si Si3 0.656667 0.352806 0.607664
Si Si4 0.136381 0.863695 0.771148
Si Si5 0.593290 0.284470 0.301726
Si Si6 0.261785 0.883263 0.341983
O O1 0.595325 0.681666 0.077537
O O2 0.505542 0.807999 0.131731
O O3 0.686730 0.813614 0.146252
O O4 0.611076 0.806837 0.876419
O O5 0.872678 0.937975 0.536450
O O6 0.756246 0.938989 0.311985
O O7 0.882971 0.047818 0.293119
O O8 0.761069 0.059451 0.512483
O O9 0.755125 0.364684 0.688072
O O10 0.660631 0.296136 0.452311
O O11 0.595423 0.303668 0.730595
O O12 0.637704 0.343510 0.172806
#
# Coordination Sequence:
#
# PCOD9460219 Si02
#       6
#     8   8   8   8   8   8
#     4  11  24  41  65 101 135 173 228 275 328 401
#     4  10  22  38  68  96 130 180 224 270 342 398
#     4  11  22  42  68  97 130 180 226 274 333 394
#     4  11  22  42  68  97 130 180 226 274 333 394
#     4  11  24  41  65 101 135 173 228 275 328 401
#     4  10  22  40  66  94 134 180 226 272 338 390
#
# _framework density 23.227868000000001
#
# number of rings (size 3 to 8) (size 9 to 14) (size 15 to 20)
#    0.000    1.333    3.333    2.000    4.667    0.000 
#    0.000   21.667    0.000    0.000    0.000    0.000 
#    0.000    0.000    0.000    0.000    0.000    0.000 
#
# Total GULP energy -267835.059746 kJ/mol
# GULP energy per Si atom -5579.897078 kJ/mol
# Density = 2.317500 g / cm^3
# Si number density = 23.227868 Si / 1000 Ang^3
#
#
#
# Elastic Constant Matrix: (Units=GPa)
#
#
# Indices 1 2 3 4 5 6 
#
# 1 54.4457 19.8364 4.0593 0.0000 0.0000 0.0000
# 2 19.8364 119.5469 46.2363 0.0000 0.0000 0.0000
# 3 4.0593 46.2363 63.4745 0.0000 0.0000 0.0000
# 4 0.0000 0.0000 0.0000 63.0092 0.0000 0.0000
# 5 0.0000 0.0000 0.0000 0.0000 28.1788 0.0000
# 6 0.0000 0.0000 0.0000 0.0000 0.0000 6.7814
#
#
#
# Elastic Compliance Matrix: (Units=1/GPa)
#
#
# Indices 1 2 3 4 5 6 
#
# 1 0.019659 -0.003864 0.001558 0.000000 0.000000 0.000000
# 2 -0.003864 0.012406 -0.008789 0.000000 0.000000 0.000000
# 3 0.001558 -0.008789 0.022057 0.000000 0.000000 0.000000
# 4 0.000000 0.000000 0.000000 0.015871 0.000000 0.000000
# 5 0.000000 0.000000 0.000000 0.000000 0.035488 0.000000
# 6 0.000000 0.000000 0.000000 0.000000 0.000000 0.147462
#
#
# Mechanical properties :
#
#
# Convention : Reuss Voigt Hill
#
# Bulk Modulus (GPa) = 31.31923 41.97014 36.64468
# Shear Modulus (GPa) = 17.49616 30.74956 24.12286
#
# Velocity S-wave (km/s) = 2.74750 3.64238 3.22612
# Velocity P-wave (km/s) = 4.85569 5.98309 5.44863
#
# Compressibility (1/GPa) = 0.03192927
#
# Stress axis : x y z
#
# Youngs Moduli (GPa) = 50.86795 80.60914 45.33689
#
# Poissons Ratio (x) = 0.31151 -0.07062
# Poissons Ratio (y) = 0.19658 0.39848
# Poissons Ratio (z) = -0.07924 0.70850
#
# Static dielectric constant tensor:
#      x y z
#    x 1.862820 0.000000 0.000000 
#    y 0.000000 1.950780 0.000000 
#    z 0.000000 0.000000 1.951240 
# 
# From -- ./inp_files/3498.got.cif
#   From: 2010.05.17/outbox.cif.g08.bks.cpg/sg61_2_cif.got.tgz:3498.got - 2010.06.03 15:17:17.
