data_PCOD9460301
_publ_section_title
;
Structure prediction by ZEFSAII (Michael W. Deem and Ramdas Pophale) SiO2 
 PCOD9460301
Probable space group: P B C A
;
_chemical_formula_sum "Si O2"
_cell_formula_units_Z 56
_cell_length_a 12.409099
_cell_length_b 13.222112
_cell_length_c 14.893526
_cell_angle_alpha 90.000000
_cell_angle_beta 90.000000
_cell_angle_gamma 90.000000
_cell_volume 2443.647784
_symmetry_space_group_name_H-M "P B C A"
_symmetry_group_IT_number 61
_symmetry_cell_setting 'orthorhombic'
loop_
_space_group_symop_operation_xyz
x,y,z
1/2-x,-y,1/2+z
1/2+x,1/2-y,-z
-x,1/2+y,1/2-z
-x,-y,-z
1/2+x,y,1/2-z
1/2-x,1/2+y,z
x,1/2-y,1/2+z
loop_
_atom_site_type_symbol
_atom_site_label
_atom_site_fract_x
_atom_site_fract_y
_atom_site_fract_z
Si Si1 0.437325 0.359151 0.107949
Si Si2 0.684618 0.003774 0.691829
Si Si3 0.821390 0.411403 0.950128
Si Si4 0.831950 0.685910 0.588808
Si Si5 0.043941 0.659632 0.199688
Si Si6 0.246857 0.110164 0.476774
Si Si7 0.631909 0.437307 0.810363
O O1 0.547303 0.336885 0.052895
O O2 0.430949 0.278598 0.189906
O O3 0.436708 0.475732 0.139789
O O4 0.330581 0.345333 0.048398
O O5 0.659461 0.122412 0.681414
O O6 0.802461 0.996570 0.733975
O O7 0.615977 0.925203 0.750084
O O8 0.684767 0.957014 0.592543
O O9 0.930311 0.372919 0.903799
O O10 0.720526 0.396772 0.880659
O O11 0.773493 0.357407 0.038019
O O12 0.828259 0.530552 0.971452
O O13 0.813373 0.804848 0.580461
O O14 0.935528 0.645682 0.256700
#
# Coordination Sequence:
#
# PCOD9460301 Si02
#       7
#     8   8   8   8   8   8   8
#     4  11  23  39  68  92 125 167 213 252 317 383
#     4  10  23  39  64  88 129 164 209 263 310 361
#     4   9  22  41  63  88 130 162 204 263 305 364
#     4  11  21  42  63  93 121 168 208 255 311 377
#     4  11  21  43  60  95 127 164 204 261 315 366
#     4  10  22  41  63  92 122 168 210 253 308 377
#     4  10  22  41  60  93 126 164 207 258 312 372
#
# _framework density 22.91656
#
# number of rings (size 3 to 8) (size 9 to 14) (size 15 to 20)
#    0.000    1.714    2.857    0.857    4.000    1.714 
#    5.143    2.143    0.000    0.000    0.000    0.000 
#    0.000    0.000    0.000    0.000    0.000    0.000 
#
# Total GULP energy -311835.847206 kJ/mol
# GULP energy per Si atom -5568.497272 kJ/mol
# Density = 2.286440 g / cm^3
# Si number density = 22.916560 Si / 1000 Ang^3
#
#
#
# Elastic Constant Matrix: (Units=GPa)
#
#
# Indices 1 2 3 4 5 6 
#
# 1 25.0072 15.8365 3.7132 0.0000 0.0000 0.0000
# 2 15.8365 71.2919 12.5463 0.0000 0.0000 0.0000
# 3 3.7132 12.5463 45.3043 0.0000 0.0000 0.0000
# 4 0.0000 0.0000 0.0000 36.9733 0.0000 0.0000
# 5 0.0000 0.0000 0.0000 0.0000 33.2641 0.0000
# 6 0.0000 0.0000 0.0000 0.0000 0.0000 35.4985
#
#
#
# Elastic Compliance Matrix: (Units=1/GPa)
#
#
# Indices 1 2 3 4 5 6 
#
# 1 0.046578 -0.010170 -0.001001 0.000000 0.000000 0.000000
# 2 -0.010170 0.016966 -0.003865 0.000000 0.000000 0.000000
# 3 -0.001001 -0.003865 0.023225 0.000000 0.000000 0.000000
# 4 0.000000 0.000000 0.000000 0.027047 0.000000 0.000000
# 5 0.000000 0.000000 0.000000 0.000000 0.030062 0.000000
# 6 0.000000 0.000000 0.000000 0.000000 0.000000 0.028170
#
#
# Mechanical properties :
#
#
# Convention : Reuss Voigt Hill
#
# Bulk Modulus (GPa) = 17.63777 22.86614 20.25195
# Shear Modulus (GPa) = 22.62237 28.44768 25.53502
#
# Velocity S-wave (km/s) = 3.14532 3.52711 3.34168
# Velocity P-wave (km/s) = 4.57209 5.15626 4.87294
#
# Compressibility (1/GPa) = 0.05669651
#
# Stress axis : x y z
#
# Youngs Moduli (GPa) = 21.46947 58.94064 43.05642
#
# Poissons Ratio (x) = 0.59945 0.04310
# Poissons Ratio (y) = 0.21835 0.16641
# Poissons Ratio (z) = 0.02149 0.22780
#
# Static dielectric constant tensor:
#      x y z
#    x 1.945570 0.000000 0.000000 
#    y 0.000000 1.926670 0.000000 
#    z 0.000000 0.000000 1.891220 
# 
# From -- ./inp_files/7832.got.cif
#   From: 2010.05.17/outbox.cif.g08.bks.cpg/sg61_4_cif.got.tgz:7832.got - 2010.06.03 15:17:17.
