data_PCOD9460146
_publ_section_title
;
Structure prediction by ZEFSAII (Michael W. Deem and Ramdas Pophale) SiO2 
 PCOD9460146
Probable space group: P B C A
;
_chemical_formula_sum "Si O2"
_cell_formula_units_Z 64
_cell_length_a 19.839260
_cell_length_b 13.625772
_cell_length_c 9.496245
_cell_angle_alpha 90.000000
_cell_angle_beta 90.000000
_cell_angle_gamma 90.000000
_cell_volume 2567.074646
_symmetry_space_group_name_H-M "P B C A"
_symmetry_group_IT_number 61
_symmetry_cell_setting 'orthorhombic'
loop_
_space_group_symop_operation_xyz
x,y,z
1/2-x,-y,1/2+z
1/2+x,1/2-y,-z
-x,1/2+y,1/2-z
-x,-y,-z
1/2+x,y,1/2-z
1/2-x,1/2+y,z
x,1/2-y,1/2+z
loop_
_atom_site_type_symbol
_atom_site_label
_atom_site_fract_x
_atom_site_fract_y
_atom_site_fract_z
Si Si1 0.787425 0.137989 0.940670
Si Si2 0.261586 0.808598 0.361622
Si Si3 0.573691 0.861236 0.114682
Si Si4 0.953652 0.518370 0.739878
Si Si5 0.611021 0.179622 0.217390
Si Si6 0.646186 0.463568 0.486664
Si Si7 0.967079 0.293976 0.808651
Si Si8 0.632788 0.450720 0.989763
O O1 0.780143 0.237770 0.031929
O O2 0.721770 0.073490 0.982993
O O3 0.849134 0.065323 0.971626
O O4 0.778324 0.156638 0.775348
O O5 0.322184 0.743213 0.294780
O O6 0.303280 0.893118 0.442696
O O7 0.516312 0.932707 0.180148
O O8 0.583617 0.779168 0.232666
O O9 0.633132 0.932588 0.061672
O O10 0.547519 0.807511 0.973204
O O11 0.964468 0.401817 0.741446
O O12 0.933122 0.556427 0.587215
O O13 0.886445 0.532198 0.833819
O O14 0.605655 0.117743 0.074327
O O15 0.542924 0.241535 0.226228
O O16 0.619214 0.103470 0.343667
#
# Coordination Sequence:
#
# PCOD9460146 Si02
#       8
#     8   8   8   8   8   8   8   8
#     4  11  26  47  74 102 134 184 236 295 350 424
#     4  11  24  45  71 104 129 174 241 291 340 415
#     4  11  23  43  67 104 137 187 226 291 346 415
#     4  11  22  46  66 101 137 178 230 281 350 416
#     4  11  23  41  66 104 132 179 231 285 338 415
#     4  10  21  43  71  91 141 178 226 280 349 402
#     4  11  24  39  69 100 138 184 230 278 351 414
#     4  12  27  43  70 105 140 183 231 294 361 411
#
# _framework density 24.931101999999999
#
# number of rings (size 3 to 8) (size 9 to 14) (size 15 to 20)
#    0.000    1.000    5.000    1.500    7.000    1.500 
#    2.250    1.250    0.000    0.000    0.000    0.000 
#    0.000    0.000    0.000    0.000    0.000    0.000 
#
# Total GULP energy -358802.711816 kJ/mol
# GULP energy per Si atom -5606.292372 kJ/mol
# Density = 2.487436 g / cm^3
# Si number density = 24.931102 Si / 1000 Ang^3
#
#
#
# Elastic Constant Matrix: (Units=GPa)
#
#
# Indices 1 2 3 4 5 6 
#
# 1 68.9335 20.4956 30.9284 0.0000 0.0000 0.0000
# 2 20.4956 107.6594 35.1868 0.0000 0.0000 0.0000
# 3 30.9284 35.1868 69.4974 0.0000 0.0000 0.0000
# 4 0.0000 0.0000 0.0000 48.5963 0.0000 0.0000
# 5 0.0000 0.0000 0.0000 0.0000 19.0340 0.0000
# 6 0.0000 0.0000 0.0000 0.0000 0.0000 35.7991
#
#
#
# Elastic Compliance Matrix: (Units=1/GPa)
#
#
# Indices 1 2 3 4 5 6 
#
# 1 0.018212 -0.000980 -0.007608 0.000000 0.000000 0.000000
# 2 -0.000980 0.011183 -0.005226 0.000000 0.000000 0.000000
# 3 -0.007608 -0.005226 0.020421 0.000000 0.000000 0.000000
# 4 0.000000 0.000000 0.000000 0.020578 0.000000 0.000000
# 5 0.000000 0.000000 0.000000 0.000000 0.052537 0.000000
# 6 0.000000 0.000000 0.000000 0.000000 0.000000 0.027934
#
#
# Mechanical properties :
#
#
# Convention : Reuss Voigt Hill
#
# Bulk Modulus (GPa) = 45.07208 46.59019 45.83114
# Shear Modulus (GPa) = 26.89770 31.31787 29.10778
#
# Velocity S-wave (km/s) = 3.28820 3.54810 3.42062
# Velocity P-wave (km/s) = 5.70388 5.95932 5.83300
#
# Compressibility (1/GPa) = 0.02218668
#
# Stress axis : x y z
#
# Youngs Moduli (GPa) = 54.90909 89.42024 48.96954
#
# Poissons Ratio (x) = 0.08766 0.37258
# Poissons Ratio (y) = 0.05383 0.25590
# Poissons Ratio (z) = 0.41777 0.46729
#
# Static dielectric constant tensor:
#      x y z
#    x 1.969860 0.000000 0.000000 
#    y 0.000000 1.975770 0.000000 
#    z 0.000000 0.000000 1.898170 
# 
# From -- ./inp_files/4345.got.cif
#   From: 2010.05.17/outbox.cif.g08.bks.cpg/sg61_3_cif.got.tgz:4345.got - 2010.06.03 15:17:17.
