data_PCOD9460658
_publ_section_title
;
Structure prediction by ZEFSAII (Michael W. Deem and Ramdas Pophale) SiO2 
 PCOD9460658
Probable space group: P B C A
;
_chemical_formula_sum "Si O2"
_cell_formula_units_Z 52
_cell_length_a 16.205028
_cell_length_b 9.412355
_cell_length_c 16.062863
_cell_angle_alpha 90.000000
_cell_angle_beta 90.000000
_cell_angle_gamma 90.000000
_cell_volume 2450.027956
_symmetry_space_group_name_H-M "P B C A"
_symmetry_group_IT_number 61
_symmetry_cell_setting 'orthorhombic'
loop_
_space_group_symop_operation_xyz
x,y,z
1/2-x,-y,1/2+z
1/2+x,1/2-y,-z
-x,1/2+y,1/2-z
-x,-y,-z
1/2+x,y,1/2-z
1/2-x,1/2+y,z
x,1/2-y,1/2+z
loop_
_atom_site_type_symbol
_atom_site_label
_atom_site_fract_x
_atom_site_fract_y
_atom_site_fract_z
Si Si1 0.334026 0.023260 0.913677
Si Si2 0.706028 0.224144 0.507393
Si Si3 0.500000 0.000000 0.000000
Si Si4 0.240073 0.803332 0.156733
Si Si5 0.431791 0.191663 0.558613
Si Si6 0.580346 0.014167 0.596102
Si Si7 0.784597 0.451772 0.731942
O O1 0.294499 0.993872 0.824068
O O2 0.304163 0.887860 0.968376
O O3 0.431233 0.024356 0.925658
O O4 0.289031 0.159308 0.953479
O O5 0.702682 0.218872 0.408171
O O6 0.634302 0.131367 0.546956
O O7 0.463901 0.147521 0.046843
O O8 0.156318 0.820825 0.104075
O O9 0.282649 0.946547 0.187800
O O10 0.223390 0.707811 0.236916
O O11 0.495004 0.094477 0.612025
O O12 0.431119 0.115596 0.467872
O O13 0.634490 0.972900 0.675841
#
# Coordination Sequence:
#
# PCOD9460658 Si02
#       7
#     8   8   4   8   8   8   8
#     4  11  23  42  69  96 126 179 231 276 326 403
#     4  11  21  41  68  92 128 175 233 272 316 401
#     4  12  24  40  74 102 124 172 238 290 320 396
#     4  12  24  41  63 101 134 172 211 276 339 400
#     4  11  24  44  68  98 131 172 228 281 332 390
#     4  10  23  46  69  94 127 179 227 275 326 398
#     4  11  25  42  67  95 137 175 215 266 345 409
#
# _framework density 21.224249
#
# number of rings (size 3 to 8) (size 9 to 14) (size 15 to 20)
#    0.000    0.923    3.077    5.538    2.154    0.000 
#    2.769    3.077    0.000    0.000    0.000    0.000 
#    0.000    0.000    0.000    0.000    0.000    0.000 
#
# Total GULP energy -289560.477614 kJ/mol
# GULP energy per Si atom -5568.470723 kJ/mol
# Density = 2.117594 g / cm^3
# Si number density = 21.224249 Si / 1000 Ang^3
#
#
#
# Elastic Constant Matrix: (Units=GPa)
#
#
# Indices 1 2 3 4 5 6 
#
# 1 21.9658 -5.0745 -6.9193 0.0000 0.0000 0.0000
# 2 -5.0745 64.2839 7.5660 0.0000 0.0000 0.0000
# 3 -6.9193 7.5660 56.7662 0.0000 0.0000 0.0000
# 4 0.0000 0.0000 0.0000 36.9815 0.0000 0.0000
# 5 0.0000 0.0000 0.0000 0.0000 25.9826 0.0000
# 6 0.0000 0.0000 0.0000 0.0000 0.0000 21.9076
#
#
#
# Elastic Compliance Matrix: (Units=1/GPa)
#
#
# Indices 1 2 3 4 5 6 
#
# 1 0.047962 0.003147 0.005427 0.000000 0.000000 0.000000
# 2 0.003147 0.016010 -0.001750 0.000000 0.000000 0.000000
# 3 0.005427 -0.001750 0.018511 0.000000 0.000000 0.000000
# 4 0.000000 0.000000 0.000000 0.027041 0.000000 0.000000
# 5 0.000000 0.000000 0.000000 0.000000 0.038487 0.000000
# 6 0.000000 0.000000 0.000000 0.000000 0.000000 0.045646
#
#
# Mechanical properties :
#
#
# Convention : Reuss Voigt Hill
#
# Bulk Modulus (GPa) = 10.40252 14.90669 12.65461
# Shear Modulus (GPa) = 23.57895 26.80390 25.19143
#
# Velocity S-wave (km/s) = 3.33670 3.55757 3.44890
# Velocity P-wave (km/s) = 4.44484 4.89017 4.67281
#
# Compressibility (1/GPa) = 0.09613057
#
# Stress axis : x y z
#
# Youngs Moduli (GPa) = 20.84989 62.45920 54.02232
#
# Poissons Ratio (x) = -0.19658 -0.29316
# Poissons Ratio (y) = -0.06562 0.09455
# Poissons Ratio (z) = -0.11314 0.10932
#
# Static dielectric constant tensor:
#      x y z
#    x 1.833900 0.000000 0.000000 
#    y 0.000000 1.785830 0.000000 
#    z 0.000000 0.000000 1.763750 
# 
# From -- ./inp_files/9640.got.cif
#   From: 2010.05.17/outbox.cif.g08.bks.cpg/sg61_5_cif.got.tgz:9640.got - 2010.06.03 15:17:17.
