data_PCOD9460829
_publ_section_title
;
Structure prediction by ZEFSAII (Michael W. Deem and Ramdas Pophale) SiO2 
 PCOD9460829
Probable space group: P B C A
;
_chemical_formula_sum "Si O2"
_cell_formula_units_Z 40
_cell_length_a 9.563365
_cell_length_b 17.601776
_cell_length_c 9.490304
_cell_angle_alpha 90.000000
_cell_angle_beta 90.000000
_cell_angle_gamma 90.000000
_cell_volume 1597.523832
_symmetry_space_group_name_H-M "P B C A"
_symmetry_group_IT_number 61
_symmetry_cell_setting 'orthorhombic'
loop_
_space_group_symop_operation_xyz
x,y,z
1/2-x,-y,1/2+z
1/2+x,1/2-y,-z
-x,1/2+y,1/2-z
-x,-y,-z
1/2+x,y,1/2-z
1/2-x,1/2+y,z
x,1/2-y,1/2+z
loop_
_atom_site_type_symbol
_atom_site_label
_atom_site_fract_x
_atom_site_fract_y
_atom_site_fract_z
Si Si1 0.969889 0.109730 0.463673
Si Si2 0.211701 0.024369 0.940794
Si Si3 0.440013 0.275281 0.086142
Si Si4 0.011369 0.599255 0.360855
Si Si5 0.334943 0.843481 0.219130
O O1 0.868276 0.042283 0.512195
O O2 0.889120 0.190970 0.451299
O O3 0.017355 0.099631 0.303870
O O4 0.083593 0.130354 0.579937
O O5 0.180622 0.082402 0.814927
O O6 0.158541 0.942848 0.891859
O O7 0.110320 0.049706 0.067690
O O8 0.576215 0.283520 0.187035
O O9 0.315517 0.314450 0.171948
O O10 0.477272 0.321544 0.944253
#
# Coordination Sequence:
#
# PCOD9460829 Si02
#       5
#     8   8   8   8   8
#     4  12  26  42  76  99 137 188 240 282 360 417
#     4  10  25  48  66 104 145 182 237 290 349 423
#     4  11  26  45  71 107 143 181 236 296 351 415
#     4  10  26  45  71 103 144 183 233 292 351 423
#     4  11  25  46  71 100 144 186 229 297 347 421
#
# _framework density 25.03875
#
# number of rings (size 3 to 8) (size 9 to 14) (size 15 to 20)
#    0.000    1.200    2.000    1.200   14.000    2.400 
#    0.000    0.000    0.000    0.000    0.000    0.000 
#    0.000    0.000    0.000    0.000    0.000    0.000 
#
# Total GULP energy -224358.288787 kJ/mol
# GULP energy per Si atom -5608.957220 kJ/mol
# Density = 2.498176 g / cm^3
# Si number density = 25.038750 Si / 1000 Ang^3
#
#
#
# Elastic Constant Matrix: (Units=GPa)
#
#
# Indices 1 2 3 4 5 6 
#
# 1 70.5125 -3.2297 25.0642 0.0000 0.0000 0.0000
# 2 -3.2297 51.7776 20.4153 0.0000 0.0000 0.0000
# 3 25.0642 20.4153 181.8597 0.0000 0.0000 0.0000
# 4 0.0000 0.0000 0.0000 17.3691 0.0000 0.0000
# 5 0.0000 0.0000 0.0000 0.0000 35.1314 0.0000
# 6 0.0000 0.0000 0.0000 0.0000 0.0000 6.6761
#
#
#
# Elastic Compliance Matrix: (Units=1/GPa)
#
#
# Indices 1 2 3 4 5 6 
#
# 1 0.015078 0.001841 -0.002285 0.000000 0.000000 0.000000
# 2 0.001841 0.020433 -0.002548 0.000000 0.000000 0.000000
# 3 -0.002285 -0.002548 0.006100 0.000000 0.000000 0.000000
# 4 0.000000 0.000000 0.000000 0.057573 0.000000 0.000000
# 5 0.000000 0.000000 0.000000 0.000000 0.028465 0.000000
# 6 0.000000 0.000000 0.000000 0.000000 0.000000 0.149788
#
#
# Mechanical properties :
#
#
# Convention : Reuss Voigt Hill
#
# Bulk Modulus (GPa) = 28.06720 43.18326 35.62523
# Shear Modulus (GPa) = 16.93225 29.29533 23.11379
#
# Velocity S-wave (km/s) = 2.60329 3.42424 3.04159
# Velocity P-wave (km/s) = 4.50222 5.73741 5.15693
#
# Compressibility (1/GPa) = 0.03562878
#
# Stress axis : x y z
#
# Youngs Moduli (GPa) = 66.32014 48.94120 163.94448
#
# Poissons Ratio (x) = -0.09012 0.37459
# Poissons Ratio (y) = -0.12212 0.41765
# Poissons Ratio (z) = 0.15153 0.12468
#
# Static dielectric constant tensor:
#      x y z
#    x 2.023320 0.000000 0.000000 
#    y 0.000000 2.093790 0.000000 
#    z 0.000000 0.000000 1.919180 
# 
# From -- ./inp_files/2152.got.cif
#   From: 2010.05.17/outbox.cif.g08.bks.cpg/sg61_2_cif.got.tgz:2152.got - 2010.06.03 15:17:17.
