data_PCOD9460224
_publ_section_title
;
Structure prediction by ZEFSAII (Michael W. Deem and Ramdas Pophale) SiO2 
 PCOD9460224
Probable space group: P B C A
;
_chemical_formula_sum "Si O2"
_cell_formula_units_Z 56
_cell_length_a 21.515469
_cell_length_b 11.435153
_cell_length_c 9.100880
_cell_angle_alpha 90.000000
_cell_angle_beta 90.000000
_cell_angle_gamma 90.000000
_cell_volume 2239.113896
_symmetry_space_group_name_H-M "P B C A"
_symmetry_group_IT_number 61
_symmetry_cell_setting 'orthorhombic'
loop_
_space_group_symop_operation_xyz
x,y,z
1/2-x,-y,1/2+z
1/2+x,1/2-y,-z
-x,1/2+y,1/2-z
-x,-y,-z
1/2+x,y,1/2-z
1/2-x,1/2+y,z
x,1/2-y,1/2+z
loop_
_atom_site_type_symbol
_atom_site_label
_atom_site_fract_x
_atom_site_fract_y
_atom_site_fract_z
Si Si1 0.717795 0.611306 0.541645
Si Si2 0.834564 0.796807 0.187312
Si Si3 0.318289 0.952586 0.680984
Si Si4 0.414447 0.174738 0.996803
Si Si5 0.455767 0.702218 0.448240
Si Si6 0.553150 0.519607 0.777207
Si Si7 0.577207 0.042345 0.784154
O O1 0.769569 0.695637 0.608390
O O2 0.757930 0.540327 0.421309
O O3 0.693862 0.519751 0.665018
O O4 0.659293 0.693210 0.496331
O O5 0.828819 0.685231 0.291167
O O6 0.897034 0.779337 0.092125
O O7 0.852454 0.925068 0.245819
O O8 0.385126 0.002367 0.625088
O O9 0.473994 0.253120 0.041762
O O10 0.421417 0.069382 0.112119
O O11 0.430026 0.126099 0.834148
O O12 0.450185 0.595299 0.331086
O O13 0.442384 0.648381 0.607799
O O14 0.481169 0.527791 0.825231
#
# Coordination Sequence:
#
# PCOD9460224 Si02
#       7
#     8   8   8   8   8   8   8
#     4  11  22  37  59  86 121 162 196 241 299 359
#     4  11  21  33  55  87 116 150 197 251 300 349
#     4  10  22  39  58  86 121 159 200 246 297 354
#     4   8  15  31  53  76 104 146 193 234 283 346
#     4   8  15  30  51  75 101 136 188 237 278 341
#     4   7  14  30  54  75  98 137 188 237 282 333
#     4   9  15  30  55  77 102 144 192 236 285 346
#
# _framework density 25.009896000000001
#
# number of rings (size 3 to 8) (size 9 to 14) (size 15 to 20)
#    0.000    2.857    0.000    4.286    0.000    1.143 
#    0.000    6.429    0.000    0.000    0.000    0.000 
#    0.000    0.000    0.000    0.000    0.000    0.000 
#
# Total GULP energy -312042.418585 kJ/mol
# GULP energy per Si atom -5572.186046 kJ/mol
# Density = 2.495297 g / cm^3
# Si number density = 25.009896 Si / 1000 Ang^3
#
#
#
# Elastic Constant Matrix: (Units=GPa)
#
#
# Indices 1 2 3 4 5 6 
#
# 1 211.1562 8.0486 14.8201 0.0000 0.0000 0.0000
# 2 8.0486 29.4392 6.1585 0.0000 0.0000 0.0000
# 3 14.8201 6.1585 24.1702 0.0000 0.0000 0.0000
# 4 0.0000 0.0000 0.0000 16.1175 0.0000 0.0000
# 5 0.0000 0.0000 0.0000 0.0000 27.3065 0.0000
# 6 0.0000 0.0000 0.0000 0.0000 0.0000 35.0290
#
#
#
# Elastic Compliance Matrix: (Units=1/GPa)
#
#
# Indices 1 2 3 4 5 6 
#
# 1 0.004965 -0.000761 -0.002850 0.000000 0.000000 0.000000
# 2 -0.000761 0.035997 -0.008705 0.000000 0.000000 0.000000
# 3 -0.002850 -0.008705 0.045339 0.000000 0.000000 0.000000
# 4 0.000000 0.000000 0.000000 0.062045 0.000000 0.000000
# 5 0.000000 0.000000 0.000000 0.000000 0.036621 0.000000
# 6 0.000000 0.000000 0.000000 0.000000 0.000000 0.028548
#
#
# Mechanical properties :
#
#
# Convention : Reuss Voigt Hill
#
# Bulk Modulus (GPa) = 16.21593 35.86890 26.04241
# Shear Modulus (GPa) = 19.32705 31.40649 25.36677
#
# Velocity S-wave (km/s) = 2.78290 3.54752 3.18821
# Velocity P-wave (km/s) = 4.10170 5.58148 4.89780
#
# Compressibility (1/GPa) = 0.06166776
#
# Stress axis : x y z
#
# Youngs Moduli (GPa) = 201.41424 27.77972 22.05601
#
# Poissons Ratio (x) = 0.02114 0.06287
# Poissons Ratio (y) = 0.15330 0.19201
# Poissons Ratio (z) = 0.57409 0.24183
#
# Static dielectric constant tensor:
#      x y z
#    x 2.023540 0.000000 0.000000 
#    y 0.000000 2.080140 0.000000 
#    z 0.000000 0.000000 2.098930 
# 
# From -- ./inp_files/6466.got.cif
#   From: 2010.05.17/outbox.cif.g08.bks.cpg/sg61_4_cif.got.tgz:6466.got - 2010.06.03 15:17:17.
