data_PCOD9460310
_publ_section_title
;
Structure prediction by ZEFSAII (Michael W. Deem and Ramdas Pophale) SiO2 
 PCOD9460310
Probable space group: P B C A
;
_chemical_formula_sum "Si O2"
_cell_formula_units_Z 48
_cell_length_a 16.836674
_cell_length_b 14.623576
_cell_length_c 8.115274
_cell_angle_alpha 90.000000
_cell_angle_beta 90.000000
_cell_angle_gamma 90.000000
_cell_volume 1998.080941
_symmetry_space_group_name_H-M "P B C A"
_symmetry_group_IT_number 61
_symmetry_cell_setting 'orthorhombic'
loop_
_space_group_symop_operation_xyz
x,y,z
1/2-x,-y,1/2+z
1/2+x,1/2-y,-z
-x,1/2+y,1/2-z
-x,-y,-z
1/2+x,y,1/2-z
1/2-x,1/2+y,z
x,1/2-y,1/2+z
loop_
_atom_site_type_symbol
_atom_site_label
_atom_site_fract_x
_atom_site_fract_y
_atom_site_fract_z
Si Si1 0.897690 0.941794 0.152601
Si Si2 0.352034 0.783131 0.151165
Si Si3 0.175312 0.783955 0.021613
Si Si4 0.073446 0.122772 0.345366
Si Si5 0.885296 0.377668 0.808893
Si Si6 0.586140 0.554592 0.819157
O O1 0.853035 0.848259 0.187586
O O2 0.992055 0.925080 0.173004
O O3 0.866878 0.015928 0.285722
O O4 0.890963 0.992198 0.978042
O O5 0.267161 0.783992 0.066230
O O6 0.380213 0.684999 0.213443
O O7 0.411659 0.831468 0.021996
O O8 0.142426 0.681310 0.037161
O O9 0.131553 0.851335 0.151879
O O10 0.155646 0.826676 0.845173
O O11 0.980684 0.127693 0.299043
O O12 0.098392 0.016279 0.330866
#
# Coordination Sequence:
#
# PCOD9460310 Si02
#       6
#     8   8   8   8   8   8
#     4   9  20  40  62  87 117 154 199 245 293 356
#     4  12  24  37  59  91 124 155 198 251 307 357
#     4  11  23  38  59  89 123 157 194 249 308 357
#     4  11  23  40  63  88 118 161 206 248 292 359
#     4  10  22  41  63  85 117 160 204 243 290 355
#     4   9  20  39  62  85 117 157 197 243 296 352
#
# _framework density 24.023050999999999
#
# number of rings (size 3 to 8) (size 9 to 14) (size 15 to 20)
#    0.000    1.667    0.000    5.000    0.000    8.000 
#    0.000    0.000    0.000    0.000    0.000    0.000 
#    0.000    0.000    0.000    0.000    0.000    0.000 
#
# Total GULP energy -268682.430553 kJ/mol
# GULP energy per Si atom -5597.550637 kJ/mol
# Density = 2.396837 g / cm^3
# Si number density = 24.023051 Si / 1000 Ang^3
#
#
#
# Elastic Constant Matrix: (Units=GPa)
#
#
# Indices 1 2 3 4 5 6 
#
# 1 46.9569 11.7235 -7.7826 0.0000 0.0000 0.0000
# 2 11.7235 99.3710 -8.7366 0.0000 0.0000 0.0000
# 3 -7.7826 -8.7366 72.1532 0.0000 0.0000 0.0000
# 4 0.0000 0.0000 0.0000 80.8181 0.0000 0.0000
# 5 0.0000 0.0000 0.0000 0.0000 9.4218 0.0000
# 6 0.0000 0.0000 0.0000 0.0000 0.0000 9.1610
#
#
#
# Elastic Compliance Matrix: (Units=1/GPa)
#
#
# Indices 1 2 3 4 5 6 
#
# 1 0.022254 -0.002440 0.002105 0.000000 0.000000 0.000000
# 2 -0.002440 0.010439 0.001001 0.000000 0.000000 0.000000
# 3 0.002105 0.001001 0.014208 0.000000 0.000000 0.000000
# 4 0.000000 0.000000 0.000000 0.012373 0.000000 0.000000
# 5 0.000000 0.000000 0.000000 0.000000 0.106136 0.000000
# 6 0.000000 0.000000 0.000000 0.000000 0.000000 0.109158
#
#
# Mechanical properties :
#
#
# Convention : Reuss Voigt Hill
#
# Bulk Modulus (GPa) = 20.73332 23.20999 21.97165
# Shear Modulus (GPa) = 17.28215 34.76531 26.02373
#
# Velocity S-wave (km/s) = 2.68507 3.80829 3.29489
# Velocity P-wave (km/s) = 4.27342 5.38702 4.86220
#
# Compressibility (1/GPa) = 0.04823155
#
# Stress axis : x y z
#
# Youngs Moduli (GPa) = 44.93522 95.79278 70.38480
#
# Poissons Ratio (x) = 0.23378 -0.14815
# Poissons Ratio (y) = 0.10966 -0.07044
# Poissons Ratio (z) = -0.09458 -0.09587
#
# Static dielectric constant tensor:
#      x y z
#    x 1.843510 0.000000 0.000000 
#    y 0.000000 1.894040 0.000000 
#    z 0.000000 0.000000 2.030810 
# 
# From -- ./inp_files/3437.got.cif
#   From: 2010.05.17/outbox.cif.g08.bks.cpg/sg61_2_cif.got.tgz:3437.got - 2010.06.03 15:17:17.
