data_PCOD9460604
_publ_section_title
;
Structure prediction by ZEFSAII (Michael W. Deem and Ramdas Pophale) SiO2 
 PCOD9460604
Probable space group: P B C A
;
_chemical_formula_sum "Si O2"
_cell_formula_units_Z 48
_cell_length_a 7.989744
_cell_length_b 9.888907
_cell_length_c 25.459055
_cell_angle_alpha 90.000000
_cell_angle_beta 90.000000
_cell_angle_gamma 90.000000
_cell_volume 2011.515744
_symmetry_space_group_name_H-M "P B C A"
_symmetry_group_IT_number 61
_symmetry_cell_setting 'orthorhombic'
loop_
_space_group_symop_operation_xyz
x,y,z
1/2-x,-y,1/2+z
1/2+x,1/2-y,-z
-x,1/2+y,1/2-z
-x,-y,-z
1/2+x,y,1/2-z
1/2-x,1/2+y,z
x,1/2-y,1/2+z
loop_
_atom_site_type_symbol
_atom_site_label
_atom_site_fract_x
_atom_site_fract_y
_atom_site_fract_z
Si Si1 0.192471 0.990659 0.566116
Si Si2 0.919676 0.473205 0.567994
Si Si3 0.789303 0.977976 0.734049
Si Si4 0.979591 0.584138 0.674616
Si Si5 0.882442 0.331406 0.032031
Si Si6 0.085714 0.867416 0.673282
O O1 0.129775 0.865575 0.529836
O O2 0.627764 0.824793 0.547460
O O3 0.169687 0.955472 0.627515
O O4 0.061284 0.109482 0.551943
O O5 0.941169 0.473837 0.630870
O O6 0.773338 0.581474 0.555599
O O7 0.111489 0.510339 0.551405
O O8 0.691511 0.100515 0.706519
O O9 0.903200 0.035663 0.779400
O O10 0.900657 0.915331 0.688360
O O11 0.676461 0.877550 0.769845
O O12 0.063214 0.716959 0.651634
#
# Coordination Sequence:
#
# PCOD9460604 Si02
#       6
#     8   8   8   8   8   8
#     4  11  27  50  78 111 151 200 251 316 385 465
#     4  12  28  49  81 108 156 200 257 318 383 458
#     4  10  23  44  65 107 140 191 240 310 367 454
#     4  11  24  42  72 103 142 192 241 311 372 451
#     4  11  30  49  76 116 151 202 259 318 385 454
#     4  11  23  44  72 103 145 188 249 301 380 447
#
# _framework density 23.862603
#
# number of rings (size 3 to 8) (size 9 to 14) (size 15 to 20)
#    0.000    1.000    1.667    2.500   11.667    0.000 
#   12.000    0.000    0.000    0.000    0.000    0.000 
#    0.000    0.000    0.000    0.000    0.000    0.000 
#
# Total GULP energy -268109.202272 kJ/mol
# GULP energy per Si atom -5585.608381 kJ/mol
# Density = 2.380829 g / cm^3
# Si number density = 23.862603 Si / 1000 Ang^3
#
#
#
# Elastic Constant Matrix: (Units=GPa)
#
#
# Indices 1 2 3 4 5 6 
#
# 1 155.9978 68.3743 30.5645 0.0000 0.0000 0.0000
# 2 68.3743 124.1102 29.9159 0.0000 0.0000 0.0000
# 3 30.5645 29.9159 81.7339 0.0000 0.0000 0.0000
# 4 0.0000 0.0000 0.0000 28.8874 0.0000 0.0000
# 5 0.0000 0.0000 0.0000 0.0000 64.9127 0.0000
# 6 0.0000 0.0000 0.0000 0.0000 0.0000 16.4136
#
#
#
# Elastic Compliance Matrix: (Units=1/GPa)
#
#
# Indices 1 2 3 4 5 6 
#
# 1 0.008645 -0.004369 -0.001634 0.000000 0.000000 0.000000
# 2 -0.004369 0.011045 -0.002409 0.000000 0.000000 0.000000
# 3 -0.001634 -0.002409 0.013727 0.000000 0.000000 0.000000
# 4 0.000000 0.000000 0.000000 0.034617 0.000000 0.000000
# 5 0.000000 0.000000 0.000000 0.000000 0.015405 0.000000
# 6 0.000000 0.000000 0.000000 0.000000 0.000000 0.060925
#
#
# Mechanical properties :
#
#
# Convention : Reuss Voigt Hill
#
# Bulk Modulus (GPa) = 60.26115 68.83903 64.55009
# Shear Modulus (GPa) = 29.99032 37.57521 33.78276
#
# Velocity S-wave (km/s) = 3.54897 3.97249 3.76669
# Velocity P-wave (km/s) = 6.48859 7.06764 6.78430
#
# Compressibility (1/GPa) = 0.01659444
#
# Stress axis : x y z
#
# Youngs Moduli (GPa) = 115.66782 90.53886 72.84670
#
# Poissons Ratio (x) = 0.39557 0.11902
# Poissons Ratio (y) = 0.50536 0.17547
# Poissons Ratio (z) = 0.18898 0.21809
#
# Static dielectric constant tensor:
#      x y z
#    x 2.003560 0.000000 0.000000 
#    y 0.000000 1.949680 0.000000 
#    z 0.000000 0.000000 1.904180 
# 
# From -- ./inp_files/2318.got.cif
#   From: 2010.05.17/outbox.cif.g08.bks.cpg/sg61_2_cif.got.tgz:2318.got - 2010.06.03 15:17:17.
