data_PCOD9460303
_publ_section_title
;
Structure prediction by ZEFSAII (Michael W. Deem and Ramdas Pophale) SiO2 
 PCOD9460303
Probable space group: P B C A
;
_chemical_formula_sum "Si O2"
_cell_formula_units_Z 40
_cell_length_a 8.871543
_cell_length_b 20.144297
_cell_length_c 9.455591
_cell_angle_alpha 90.000000
_cell_angle_beta 90.000000
_cell_angle_gamma 90.000000
_cell_volume 1689.818095
_symmetry_space_group_name_H-M "P B C A"
_symmetry_group_IT_number 61
_symmetry_cell_setting 'orthorhombic'
loop_
_space_group_symop_operation_xyz
x,y,z
1/2-x,-y,1/2+z
1/2+x,1/2-y,-z
-x,1/2+y,1/2-z
-x,-y,-z
1/2+x,y,1/2-z
1/2-x,1/2+y,z
x,1/2-y,1/2+z
loop_
_atom_site_type_symbol
_atom_site_label
_atom_site_fract_x
_atom_site_fract_y
_atom_site_fract_z
Si Si1 0.492008 0.023787 0.840175
Si Si2 0.285973 0.607307 0.833349
Si Si3 0.945000 0.756690 0.173669
Si Si4 0.356597 0.308519 0.919858
Si Si5 0.967154 0.934909 0.909585
O O1 0.642711 0.050010 0.765416
O O2 0.387611 0.089140 0.828842
O O3 0.434468 0.961890 0.745744
O O4 0.500000 0.000000 0.000000
O O5 0.347068 0.678191 0.784805
O O6 0.338361 0.600877 0.997751
O O7 0.816638 0.709664 0.105753
O O8 0.033933 0.722004 0.299709
O O9 0.073159 0.779240 0.063293
O O10 0.389835 0.386686 0.915174
O O11 0.000000 0.000000 0.000000
#
# Coordination Sequence:
#
# PCOD9460303 Si02
#       5
#     8   8   8   8   8
#     4  11  22  38  65  92 122 168 215 260 314 377
#     4  10  22  41  61  89 128 162 207 264 317 375
#     4  11  24  42  64  95 127 169 214 264 323 382
#     4  11  24  42  67  94 130 169 214 264 320 386
#     4   9  22  41  60  90 129 164 204 260 317 374
#
# _framework density 23.671188000000001
#
# number of rings (size 3 to 8) (size 9 to 14) (size 15 to 20)
#    0.000    1.600    0.000    3.600    0.000   12.800 
#    0.000    0.000    0.000    0.000    0.000    0.000 
#    0.000    0.000    0.000    0.000    0.000    0.000 
#
# Total GULP energy -223789.120032 kJ/mol
# GULP energy per Si atom -5594.728001 kJ/mol
# Density = 2.361731 g / cm^3
# Si number density = 23.671188 Si / 1000 Ang^3
#
#
#
# Elastic Constant Matrix: (Units=GPa)
#
#
# Indices 1 2 3 4 5 6 
#
# 1 60.8765 -10.7429 20.0606 0.0000 0.0000 0.0000
# 2 -10.7429 75.3649 34.7476 0.0000 0.0000 0.0000
# 3 20.0606 34.7476 144.2525 0.0000 0.0000 0.0000
# 4 0.0000 0.0000 0.0000 25.9940 0.0000 0.0000
# 5 0.0000 0.0000 0.0000 0.0000 23.4024 0.0000
# 6 0.0000 0.0000 0.0000 0.0000 0.0000 30.7725
#
#
#
# Elastic Compliance Matrix: (Units=1/GPa)
#
#
# Indices 1 2 3 4 5 6 
#
# 1 0.018360 0.004268 -0.003581 0.000000 0.000000 0.000000
# 2 0.004268 0.015919 -0.004428 0.000000 0.000000 0.000000
# 3 -0.003581 -0.004428 0.008497 0.000000 0.000000 0.000000
# 4 0.000000 0.000000 0.000000 0.038470 0.000000 0.000000
# 5 0.000000 0.000000 0.000000 0.000000 0.042731 0.000000
# 6 0.000000 0.000000 0.000000 0.000000 0.000000 0.032497
#
#
# Mechanical properties :
#
#
# Convention : Reuss Voigt Hill
#
# Bulk Modulus (GPa) = 28.33371 40.95826 34.64599
# Shear Modulus (GPa) = 28.45430 31.79570 30.12500
#
# Velocity S-wave (km/s) = 3.47084 3.66898 3.57128
# Velocity P-wave (km/s) = 5.29698 5.94046 5.62793
#
# Compressibility (1/GPa) = 0.03529364
#
# Stress axis : x y z
#
# Youngs Moduli (GPa) = 54.46581 62.81869 117.68871
#
# Poissons Ratio (x) = -0.26814 0.42149
# Poissons Ratio (y) = -0.23248 0.52114
# Poissons Ratio (z) = 0.19507 0.27817
#
# Static dielectric constant tensor:
#      x y z
#    x 1.805070 0.000000 0.000000 
#    y 0.000000 1.836170 0.000000 
#    z 0.000000 0.000000 1.913770 
# 
# From -- ./inp_files/1753.got.cif
#   From: 2010.05.17/outbox.cif.g08.bks.cpg/sg61_1_cif.got.tgz:1753.got - 2010.06.03 15:17:17.
