data_PCOD9460738
_publ_section_title
;
Structure prediction by ZEFSAII (Michael W. Deem and Ramdas Pophale) SiO2 
 PCOD9460738
Probable space group: P B C A
;
_chemical_formula_sum "Si O2"
_cell_formula_units_Z 40
_cell_length_a 9.479355
_cell_length_b 8.355092
_cell_length_c 20.144316
_cell_angle_alpha 90.000000
_cell_angle_beta 90.000000
_cell_angle_gamma 90.000000
_cell_volume 1595.447617
_symmetry_space_group_name_H-M "P B C A"
_symmetry_group_IT_number 61
_symmetry_cell_setting 'orthorhombic'
loop_
_space_group_symop_operation_xyz
x,y,z
1/2-x,-y,1/2+z
1/2+x,1/2-y,-z
-x,1/2+y,1/2-z
-x,-y,-z
1/2+x,y,1/2-z
1/2-x,1/2+y,z
x,1/2-y,1/2+z
loop_
_atom_site_type_symbol
_atom_site_label
_atom_site_fract_x
_atom_site_fract_y
_atom_site_fract_z
Si Si1 0.934895 0.175046 0.767927
Si Si2 0.468824 0.772837 0.033824
Si Si3 0.193788 0.356198 0.787876
Si Si4 0.524395 0.561937 0.914697
Si Si5 0.194092 0.026765 0.430245
O O1 0.847312 0.326739 0.741310
O O2 0.097055 0.218187 0.756701
O O3 0.925698 0.133456 0.845568
O O4 0.872437 0.024898 0.730375
O O5 0.414853 0.617825 0.074163
O O6 0.578901 0.883590 0.073492
O O7 0.552165 0.689472 0.972603
O O8 0.352056 0.883037 0.997926
O O9 0.182141 0.355384 0.867303
O O10 0.354750 0.532334 0.922936
#
# Coordination Sequence:
#
# PCOD9460738 Si02
#       5
#     8   8   8   8   8
#     4  12  27  51  77 114 150 215 261 338 399 484
#     4  10  24  43  73 110 140 205 253 317 401 482
#     4  12  27  49  79 110 156 205 270 326 409 474
#     4  11  23  48  70 110 152 191 261 327 395 471
#     4  11  23  47  77 104 153 205 255 324 408 474
#
# _framework density 25.071332000000002
#
# number of rings (size 3 to 8) (size 9 to 14) (size 15 to 20)
#    0.000    0.800    2.000    4.800    5.600    0.000 
#   14.400    0.000    0.000    0.000    0.000    0.000 
#    0.000    0.000    0.000    0.000    0.000    0.000 
#
# Total GULP energy -223903.462019 kJ/mol
# GULP energy per Si atom -5597.586550 kJ/mol
# Density = 2.501427 g / cm^3
# Si number density = 25.071332 Si / 1000 Ang^3
#
#
#
# Elastic Constant Matrix: (Units=GPa)
#
#
# Indices 1 2 3 4 5 6 
#
# 1 85.8448 39.8919 54.8964 0.0000 0.0000 0.0000
# 2 39.8919 111.2308 13.3706 0.0000 0.0000 0.0000
# 3 54.8964 13.3706 78.8820 0.0000 0.0000 0.0000
# 4 0.0000 0.0000 0.0000 53.3018 0.0000 0.0000
# 5 0.0000 0.0000 0.0000 0.0000 28.8552 0.0000
# 6 0.0000 0.0000 0.0000 0.0000 0.0000 42.9392
#
#
#
# Elastic Compliance Matrix: (Units=1/GPa)
#
#
# Indices 1 2 3 4 5 6 
#
# 1 0.025605 -0.007187 -0.016601 0.000000 0.000000 0.000000
# 2 -0.007187 0.011195 0.003104 0.000000 0.000000 0.000000
# 3 -0.016601 0.003104 0.023704 0.000000 0.000000 0.000000
# 4 0.000000 0.000000 0.000000 0.018761 0.000000 0.000000
# 5 0.000000 0.000000 0.000000 0.000000 0.034656 0.000000
# 6 0.000000 0.000000 0.000000 0.000000 0.000000 0.023289
#
#
# Mechanical properties :
#
#
# Convention : Reuss Voigt Hill
#
# Bulk Modulus (GPa) = 52.25786 54.69727 53.47756
# Shear Modulus (GPa) = 27.03338 36.20582 31.61960
#
# Velocity S-wave (km/s) = 3.28725 3.80427 3.55517
# Velocity P-wave (km/s) = 5.94112 6.41566 6.18294
#
# Compressibility (1/GPa) = 0.01913588
#
# Stress axis : x y z
#
# Youngs Moduli (GPa) = 39.05478 89.32669 42.18667
#
# Poissons Ratio (x) = 0.64203 0.70034
# Poissons Ratio (y) = 0.28070 -0.13097
# Poissons Ratio (z) = 0.64835 -0.27731
#
# Static dielectric constant tensor:
#      x y z
#    x 1.984310 0.000000 0.000000 
#    y 0.000000 2.051720 0.000000 
#    z 0.000000 0.000000 1.976740 
# 
# From -- ./inp_files/10806.got.cif
#   From: 2010.05.17/outbox.cif.g08.bks.cpg/sg61_6_cif.got.tgz:10806.got - 2010.06.03 15:17:17.
