data_PCOD9460417
_publ_section_title
;
Structure prediction by ZEFSAII (Michael W. Deem and Ramdas Pophale) SiO2 
 PCOD9460417
Probable space group: P B C A
;
_chemical_formula_sum "Si O2"
_cell_formula_units_Z 64
_cell_length_a 11.350653
_cell_length_b 8.558863
_cell_length_c 29.955902
_cell_angle_alpha 90.000000
_cell_angle_beta 90.000000
_cell_angle_gamma 90.000000
_cell_volume 2910.176457
_symmetry_space_group_name_H-M "P B C A"
_symmetry_group_IT_number 61
_symmetry_cell_setting 'orthorhombic'
loop_
_space_group_symop_operation_xyz
x,y,z
1/2-x,-y,1/2+z
1/2+x,1/2-y,-z
-x,1/2+y,1/2-z
-x,-y,-z
1/2+x,y,1/2-z
1/2-x,1/2+y,z
x,1/2-y,1/2+z
loop_
_atom_site_type_symbol
_atom_site_label
_atom_site_fract_x
_atom_site_fract_y
_atom_site_fract_z
Si Si1 0.799587 0.921529 0.830890
Si Si2 0.883881 0.422047 0.950378
Si Si3 0.314417 0.170978 0.391684
Si Si4 0.149299 0.111108 0.831548
Si Si5 0.861551 0.426909 0.237107
Si Si6 0.950325 0.334089 0.794504
Si Si7 0.731308 0.180305 0.894379
Si Si8 0.863563 0.033579 0.553626
O O1 0.660549 0.882961 0.824109
O O2 0.845220 0.769324 0.856542
O O3 0.842627 0.975018 0.782796
O O4 0.809025 0.059632 0.866172
O O5 0.814393 0.295557 0.921834
O O6 0.844891 0.587099 0.929847
O O7 0.024112 0.418973 0.944752
O O8 0.851061 0.415356 0.002327
O O9 0.217276 0.264536 0.362749
O O10 0.381986 0.310794 0.416542
O O11 0.377104 0.047873 0.358608
O O12 0.247327 0.061607 0.427473
O O13 0.242730 0.073886 0.791996
O O14 0.035148 0.200037 0.813954
O O15 0.968106 0.515906 0.213226
O O16 0.895943 0.250544 0.250735
#
# Coordination Sequence:
#
# PCOD9460417 Si02
#       8
#     8   8   8   8   8   8   8   8
#     4  11  24  44  60  96 131 174 224 271 320 386
#     4  10  22  43  69  99 130 173 208 270 331 400
#     4  10  23  41  66  97 133 172 213 277 316 393
#     4  11  24  43  63  96 135 172 225 268 320 387
#     4  12  26  43  64  94 135 174 225 270 325 382
#     4  12  26  41  68  90 129 182 217 273 326 383
#     4  10  23  40  68  94 132 166 215 272 322 385
#     4  10  22  43  70  98 134 168 216 261 337 397
#
# _framework density 21.991793999999999
#
# number of rings (size 3 to 8) (size 9 to 14) (size 15 to 20)
#    0.000    1.250    2.500    2.250    7.000    1.000 
#    0.000    0.000    0.000   10.500    0.000    0.000 
#    0.000    0.000    0.000    0.000    0.000    0.000 
#
# Total GULP energy -357839.987571 kJ/mol
# GULP energy per Si atom -5591.249806 kJ/mol
# Density = 2.194174 g / cm^3
# Si number density = 21.991794 Si / 1000 Ang^3
#
#
#
# Elastic Constant Matrix: (Units=GPa)
#
#
# Indices 1 2 3 4 5 6 
#
# 1 61.8394 15.4503 33.4993 0.0000 0.0000 0.0000
# 2 15.4503 83.0796 16.1939 0.0000 0.0000 0.0000
# 3 33.4993 16.1939 89.9223 0.0000 0.0000 0.0000
# 4 0.0000 0.0000 0.0000 36.7238 0.0000 0.0000
# 5 0.0000 0.0000 0.0000 0.0000 4.2859 0.0000
# 6 0.0000 0.0000 0.0000 0.0000 0.0000 22.5560
#
#
#
# Elastic Compliance Matrix: (Units=1/GPa)
#
#
# Indices 1 2 3 4 5 6 
#
# 1 0.020724 -0.002435 -0.007282 0.000000 0.000000 0.000000
# 2 -0.002435 0.012761 -0.001391 0.000000 0.000000 0.000000
# 3 -0.007282 -0.001391 0.014084 0.000000 0.000000 0.000000
# 4 0.000000 0.000000 0.000000 0.027230 0.000000 0.000000
# 5 0.000000 0.000000 0.000000 0.000000 0.233325 0.000000
# 6 0.000000 0.000000 0.000000 0.000000 0.000000 0.044334
#
#
# Mechanical properties :
#
#
# Convention : Reuss Voigt Hill
#
# Bulk Modulus (GPa) = 39.44266 40.56982 40.00624
# Shear Modulus (GPa) = 13.05060 24.02633 18.53846
#
# Velocity S-wave (km/s) = 2.43869 3.30890 2.90655
# Velocity P-wave (km/s) = 5.08957 5.75206 5.43093
#
# Compressibility (1/GPa) = 0.02535326
#
# Stress axis : x y z
#
# Youngs Moduli (GPa) = 48.25336 78.36649 71.00244
#
# Poissons Ratio (x) = 0.19079 0.51704
# Poissons Ratio (y) = 0.11748 0.09877
# Poissons Ratio (z) = 0.35138 0.10901
#
# Static dielectric constant tensor:
#      x y z
#    x 1.796590 0.000000 0.000000 
#    y 0.000000 1.829090 0.000000 
#    z 0.000000 0.000000 1.818150 
# 
# From -- ./inp_files/11774.got.cif
#   From: 2010.05.17/outbox.cif.g08.bks.cpg/sg61_6_cif.got.tgz:11774.got - 2010.06.03 15:17:17.
