data_PCOD9460058
_publ_section_title
;
Structure prediction by ZEFSAII (Michael W. Deem and Ramdas Pophale) SiO2 
 PCOD9460058
Probable space group: P B C A
;
_chemical_formula_sum "Si O2"
_cell_formula_units_Z 40
_cell_length_a 15.046431
_cell_length_b 11.797968
_cell_length_c 10.239321
_cell_angle_alpha 90.000000
_cell_angle_beta 90.000000
_cell_angle_gamma 90.000000
_cell_volume 1817.656735
_symmetry_space_group_name_H-M "P B C A"
_symmetry_group_IT_number 61
_symmetry_cell_setting 'orthorhombic'
loop_
_space_group_symop_operation_xyz
x,y,z
1/2-x,-y,1/2+z
1/2+x,1/2-y,-z
-x,1/2+y,1/2-z
-x,-y,-z
1/2+x,y,1/2-z
1/2-x,1/2+y,z
x,1/2-y,1/2+z
loop_
_atom_site_type_symbol
_atom_site_label
_atom_site_fract_x
_atom_site_fract_y
_atom_site_fract_z
Si Si1 0.983316 0.511391 0.709539
Si Si2 0.561236 0.827267 0.501537
Si Si3 0.563646 0.131915 0.080373
Si Si4 0.236764 0.297574 0.039343
Si Si5 0.829292 0.823741 0.189425
O O1 0.979010 0.401304 0.617820
O O2 0.022437 0.475502 0.848420
O O3 0.884726 0.563625 0.713555
O O4 0.040712 0.604036 0.631887
O O5 0.510847 0.707192 0.492067
O O6 0.666669 0.822987 0.515124
O O7 0.601792 0.218373 0.191381
O O8 0.654541 0.118429 0.997714
O O9 0.239077 0.297178 0.195471
O O10 0.207004 0.184921 0.958812
#
# Coordination Sequence:
#
# PCOD9460058 Si02
#       5
#     8   8   8   8   8
#     4  10  21  41  65  95 132 180 220 271 341 410
#     4  10  22  39  66  96 131 180 215 280 344 387
#     4   9  21  38  67  90 135 167 227 266 331 394
#     4  10  22  41  62  94 133 173 217 282 328 393
#     4   9  22  41  61  95 133 168 224 272 329 400
#
# _framework density 22.006356
#
# number of rings (size 3 to 8) (size 9 to 14) (size 15 to 20)
#    1.200    1.200    0.000    1.200    5.600    2.400 
#    3.600    0.000    0.000    0.000    0.000    0.000 
#    0.000    0.000    0.000    0.000    0.000    0.000 
#
# Total GULP energy -222815.082366 kJ/mol
# GULP energy per Si atom -5570.377059 kJ/mol
# Density = 2.195627 g / cm^3
# Si number density = 22.006356 Si / 1000 Ang^3
#
#
#
# Elastic Constant Matrix: (Units=GPa)
#
#
# Indices 1 2 3 4 5 6 
#
# 1 85.9427 29.4172 13.7462 0.0000 0.0000 0.0000
# 2 29.4172 50.2744 13.7418 0.0000 0.0000 0.0000
# 3 13.7462 13.7418 67.0231 0.0000 0.0000 0.0000
# 4 0.0000 0.0000 0.0000 13.1693 0.0000 0.0000
# 5 0.0000 0.0000 0.0000 0.0000 -1.2885 0.0000
# 6 0.0000 0.0000 0.0000 0.0000 0.0000 11.7724
#
#
#
# Elastic Compliance Matrix: (Units=1/GPa)
#
#
# Indices 1 2 3 4 5 6 
#
# 1 0.014659 -0.008216 -0.001322 0.000000 0.000000 0.000000
# 2 -0.008216 0.025677 -0.003579 0.000000 0.000000 0.000000
# 3 -0.001322 -0.003579 0.015925 0.000000 0.000000 0.000000
# 4 0.000000 0.000000 0.000000 0.075934 0.000000 0.000000
# 5 0.000000 0.000000 0.000000 0.000000 -0.776083 0.000000
# 6 0.000000 0.000000 0.000000 0.000000 0.000000 0.084945
#
#
# Mechanical properties :
#
#
# Convention : Reuss Voigt Hill
#
# Bulk Modulus (GPa) = 33.30440 35.22784 34.26612
# Shear Modulus (GPa) = -9.56574 14.48630 2.46028
#
# Velocity S-wave (km/s) = -2.08716 2.56848 1.05850
# Velocity P-wave (km/s) = 3.05917 4.98386 4.13506
#
# Compressibility (1/GPa) = 0.03002607
#
# Stress axis : x y z
#
# Youngs Moduli (GPa) = 68.21519 38.94547 62.79338
#
# Poissons Ratio (x) = 0.31999 0.08301
# Poissons Ratio (y) = 0.56048 0.22476
# Poissons Ratio (z) = 0.09018 0.13940
#
# Static dielectric constant tensor:
#      x y z
#    x 1.802490 0.000000 0.000000 
#    y 0.000000 1.816680 0.000000 
#    z 0.000000 0.000000 1.872380 
# 
# From -- ./inp_files/5637.got.cif
#   From: 2010.05.17/outbox.cif.g08.bks.cpg/sg61_3_cif.got.tgz:5637.got - 2010.06.03 15:17:17.
