data_PCOD9460806
_publ_section_title
;
Structure prediction by ZEFSAII (Michael W. Deem and Ramdas Pophale) SiO2 
 PCOD9460806
Probable space group: P B C A
;
_chemical_formula_sum "Si O2"
_cell_formula_units_Z 48
_cell_length_a 9.019772
_cell_length_b 22.282278
_cell_length_c 10.892647
_cell_angle_alpha 90.000000
_cell_angle_beta 90.000000
_cell_angle_gamma 90.000000
_cell_volume 2189.215819
_symmetry_space_group_name_H-M "P B C A"
_symmetry_group_IT_number 61
_symmetry_cell_setting 'orthorhombic'
loop_
_space_group_symop_operation_xyz
x,y,z
1/2-x,-y,1/2+z
1/2+x,1/2-y,-z
-x,1/2+y,1/2-z
-x,-y,-z
1/2+x,y,1/2-z
1/2-x,1/2+y,z
x,1/2-y,1/2+z
loop_
_atom_site_type_symbol
_atom_site_label
_atom_site_fract_x
_atom_site_fract_y
_atom_site_fract_z
Si Si1 0.122982 0.106178 0.922234
Si Si2 0.675583 0.188111 0.963842
Si Si3 0.524426 0.706427 0.092725
Si Si4 0.325273 0.092382 0.714792
Si Si5 0.503321 0.378524 0.679127
Si Si6 0.785030 0.543688 0.348782
O O1 0.277819 0.111223 0.851164
O O2 0.998086 0.094506 0.819657
O O3 0.133365 0.052689 0.020982
O O4 0.069477 0.163332 0.000717
O O5 0.574655 0.234921 0.890574
O O6 0.745035 0.138068 0.876698
O O7 0.817117 0.218836 0.030485
O O8 0.577033 0.156698 0.067790
O O9 0.547402 0.669599 0.217955
O O10 0.270833 0.024962 0.688604
O O11 0.622153 0.421388 0.745345
O O12 0.368375 0.420675 0.640290
#
# Coordination Sequence:
#
# PCOD9460806 Si02
#       6
#     8   8   8   8   8   8
#     4  10  25  44  66 101 138 184 227 287 353 406
#     4  11  26  43  71  98 138 182 229 285 347 409
#     4  10  25  46  66 100 138 179 231 288 341 415
#     4  11  25  44  69 104 139 181 237 288 345 412
#     4  11  24  45  70 102 134 186 230 280 359 409
#     4  11  24  44  73  97 145 179 230 289 347 423
#
# _framework density 21.925657999999999
#
# number of rings (size 3 to 8) (size 9 to 14) (size 15 to 20)
#    0.000    1.333    1.667    1.500   11.667    0.667 
#    0.000    0.000    0.000    0.000    0.000    0.000 
#    0.000    0.000    0.000    0.000    0.000    0.000 
#
# Total GULP energy -268681.297369 kJ/mol
# GULP energy per Si atom -5597.527029 kJ/mol
# Density = 2.187575 g / cm^3
# Si number density = 21.925658 Si / 1000 Ang^3
#
#
#
# Elastic Constant Matrix: (Units=GPa)
#
#
# Indices 1 2 3 4 5 6 
#
# 1 69.2278 22.7576 -6.6175 0.0000 0.0000 0.0000
# 2 22.7576 62.6208 -11.5352 0.0000 0.0000 0.0000
# 3 -6.6175 -11.5352 40.9508 0.0000 0.0000 0.0000
# 4 0.0000 0.0000 0.0000 8.6582 0.0000 0.0000
# 5 0.0000 0.0000 0.0000 0.0000 36.6551 0.0000
# 6 0.0000 0.0000 0.0000 0.0000 0.0000 19.1014
#
#
#
# Elastic Compliance Matrix: (Units=1/GPa)
#
#
# Indices 1 2 3 4 5 6 
#
# 1 0.016446 -0.005787 0.001027 0.000000 0.000000 0.000000
# 2 -0.005787 0.018880 0.004383 0.000000 0.000000 0.000000
# 3 0.001027 0.004383 0.025820 0.000000 0.000000 0.000000
# 4 0.000000 0.000000 0.000000 0.115497 0.000000 0.000000
# 5 0.000000 0.000000 0.000000 0.000000 0.027281 0.000000
# 6 0.000000 0.000000 0.000000 0.000000 0.000000 0.052352
#
#
# Mechanical properties :
#
#
# Convention : Reuss Voigt Hill
#
# Bulk Modulus (GPa) = 16.55869 20.22325 18.39097
# Shear Modulus (GPa) = 18.04004 24.09592 21.06798
#
# Velocity S-wave (km/s) = 2.87153 3.31869 3.10317
# Velocity P-wave (km/s) = 4.30846 4.89168 4.60930
#
# Compressibility (1/GPa) = 0.06039125
#
# Stress axis : x y z
#
# Youngs Moduli (GPa) = 60.80578 52.96678 38.72943
#
# Poissons Ratio (x) = 0.30654 -0.03979
# Poissons Ratio (y) = 0.35191 -0.16975
# Poissons Ratio (z) = -0.06247 -0.23215
#
# Static dielectric constant tensor:
#      x y z
#    x 1.818940 0.000000 0.000000 
#    y 0.000000 1.768990 0.000000 
#    z 0.000000 0.000000 1.781830 
# 
# From -- ./inp_files/4868.got.cif
#   From: 2010.05.17/outbox.cif.g08.bks.cpg/sg61_3_cif.got.tgz:4868.got - 2010.06.03 15:17:17.
