data_PCOD9460071
_publ_section_title
;
Structure prediction by ZEFSAII (Michael W. Deem and Ramdas Pophale) SiO2 
 PCOD9460071
Probable space group: P B C A
;
_chemical_formula_sum "Si O2"
_cell_formula_units_Z 56
_cell_length_a 11.870057
_cell_length_b 14.020581
_cell_length_c 14.589618
_cell_angle_alpha 90.000000
_cell_angle_beta 90.000000
_cell_angle_gamma 90.000000
_cell_volume 2428.078571
_symmetry_space_group_name_H-M "P B C A"
_symmetry_group_IT_number 61
_symmetry_cell_setting 'orthorhombic'
loop_
_space_group_symop_operation_xyz
x,y,z
1/2-x,-y,1/2+z
1/2+x,1/2-y,-z
-x,1/2+y,1/2-z
-x,-y,-z
1/2+x,y,1/2-z
1/2-x,1/2+y,z
x,1/2-y,1/2+z
loop_
_atom_site_type_symbol
_atom_site_label
_atom_site_fract_x
_atom_site_fract_y
_atom_site_fract_z
Si Si1 0.820481 0.834272 0.882030
Si Si2 0.688183 0.122985 0.585266
Si Si3 0.484788 0.196927 0.928395
Si Si4 0.904291 0.479688 0.153712
Si Si5 0.449762 0.702663 0.369747
Si Si6 0.137022 0.811104 0.777433
Si Si7 0.490342 0.490841 0.841698
O O1 0.740670 0.820066 0.794202
O O2 0.897458 0.740812 0.893882
O O3 0.907475 0.922262 0.871226
O O4 0.768214 0.856899 0.982060
O O5 0.779927 0.062368 0.640230
O O6 0.652101 0.223109 0.630005
O O7 0.570722 0.062410 0.588798
O O8 0.478423 0.084066 0.914746
O O9 0.386546 0.246893 0.868155
O O10 0.484414 0.219496 0.035466
O O11 0.910428 0.592624 0.136380
O O12 0.957461 0.457863 0.252963
O O13 0.533681 0.720853 0.287361
O O14 0.106092 0.917759 0.808656
#
# Coordination Sequence:
#
# PCOD9460071 Si02
#       7
#     8   8   8   8   8   8   8
#     4  10  22  41  65  97 133 170 220 279 335 407
#     4  11  23  42  66  95 130 177 226 280 351 408
#     4  10  22  39  64  93 129 172 219 272 336 402
#     4  11  23  40  66  94 128 176 223 278 345 415
#     4  10  23  43  63  95 134 169 224 284 332 407
#     4  10  21  41  67  96 133 175 221 274 334 407
#     4  10  22  40  64  96 132 171 219 277 336 408
#
# _framework density 23.063506
#
# number of rings (size 3 to 8) (size 9 to 14) (size 15 to 20)
#    0.000    1.714    0.000    3.429    0.000    8.000 
#    0.000   11.429    0.000    0.000    0.000    0.000 
#    0.000    0.000    0.000    0.000    0.000    0.000 
#
# Total GULP energy -312785.659928 kJ/mol
# GULP energy per Si atom -5585.458213 kJ/mol
# Density = 2.301101 g / cm^3
# Si number density = 23.063506 Si / 1000 Ang^3
#
#
#
# Elastic Constant Matrix: (Units=GPa)
#
#
# Indices 1 2 3 4 5 6 
#
# 1 82.7829 45.6757 31.9207 0.0000 0.0000 0.0000
# 2 45.6757 118.5435 35.1058 0.0000 0.0000 0.0000
# 3 31.9207 35.1058 134.8923 0.0000 0.0000 0.0000
# 4 0.0000 0.0000 0.0000 28.7203 0.0000 0.0000
# 5 0.0000 0.0000 0.0000 0.0000 23.5800 0.0000
# 6 0.0000 0.0000 0.0000 0.0000 0.0000 19.6173
#
#
#
# Elastic Compliance Matrix: (Units=1/GPa)
#
#
# Indices 1 2 3 4 5 6 
#
# 1 0.016009 -0.005468 -0.002365 0.000000 0.000000 0.000000
# 2 -0.005468 0.011008 -0.001571 0.000000 0.000000 0.000000
# 3 -0.002365 -0.001571 0.008382 0.000000 0.000000 0.000000
# 4 0.000000 0.000000 0.000000 0.034819 0.000000 0.000000
# 5 0.000000 0.000000 0.000000 0.000000 0.042409 0.000000
# 6 0.000000 0.000000 0.000000 0.000000 0.000000 0.050975
#
#
# Mechanical properties :
#
#
# Convention : Reuss Voigt Hill
#
# Bulk Modulus (GPa) = 60.27594 62.40255 61.33924
# Shear Modulus (GPa) = 26.60435 29.28462 27.94449
#
# Velocity S-wave (km/s) = 3.40004 3.56720 3.48463
# Velocity P-wave (km/s) = 6.45021 6.63944 6.54551
#
# Compressibility (1/GPa) = 0.01659037
#
# Stress axis : x y z
#
# Youngs Moduli (GPa) = 62.46595 90.84535 119.30537
#
# Poissons Ratio (x) = 0.49673 0.28219
# Poissons Ratio (y) = 0.34155 0.18741
# Poissons Ratio (z) = 0.14775 0.14271
#
# Static dielectric constant tensor:
#      x y z
#    x 1.960500 0.000000 0.000000 
#    y 0.000000 1.866280 0.000000 
#    z 0.000000 0.000000 1.910350 
# 
# From -- ./inp_files/7514.got.cif
#   From: 2010.05.17/outbox.cif.g08.bks.cpg/sg61_4_cif.got.tgz:7514.got - 2010.06.03 15:17:17.
