data_PCOD9460493
_publ_section_title
;
Structure prediction by ZEFSAII (Michael W. Deem and Ramdas Pophale) SiO2 
 PCOD9460493
Probable space group: P B C A
;
_chemical_formula_sum "Si O2"
_cell_formula_units_Z 60
_cell_length_a 8.921532
_cell_length_b 8.408979
_cell_length_c 27.672896
_cell_angle_alpha 90.000000
_cell_angle_beta 90.000000
_cell_angle_gamma 90.000000
_cell_volume 2076.047646
_symmetry_space_group_name_H-M "P B C A"
_symmetry_group_IT_number 61
_symmetry_cell_setting 'orthorhombic'
loop_
_space_group_symop_operation_xyz
x,y,z
1/2-x,-y,1/2+z
1/2+x,1/2-y,-z
-x,1/2+y,1/2-z
-x,-y,-z
1/2+x,y,1/2-z
1/2-x,1/2+y,z
x,1/2-y,1/2+z
loop_
_atom_site_type_symbol
_atom_site_label
_atom_site_fract_x
_atom_site_fract_y
_atom_site_fract_z
Si Si1 0.857223 0.848510 0.966188
Si Si2 0.000000 0.000000 0.500000
Si Si3 0.873749 0.976617 0.054763
Si Si4 0.739627 0.284142 0.619304
Si Si5 0.686586 0.886777 0.212878
Si Si6 0.975632 0.406163 0.727875
Si Si7 0.951834 0.066981 0.381961
Si Si8 0.193239 0.261677 0.644857
O O1 0.818730 0.820060 0.911295
O O2 0.931407 0.689092 0.988665
O O3 0.758360 0.919985 0.011914
O O4 0.954755 0.011176 0.959864
O O5 0.964734 0.049023 0.440874
O O6 0.841103 0.147673 0.076673
O O7 0.857801 0.853107 0.096645
O O8 0.824347 0.219075 0.664444
O O9 0.626629 0.424262 0.631477
O O10 0.854147 0.543987 0.715381
O O11 0.624916 0.742515 0.246348
O O12 0.578437 0.027101 0.229494
O O13 0.093564 0.356087 0.684561
O O14 0.871243 0.213497 0.354727
O O15 0.865954 0.917094 0.359016
#
# Coordination Sequence:
#
# PCOD9460493 Si02
#       8
#     8   4   8   8   8   8   8   8
#     4  10  23  45  74 117 171 241 291 368 430 525
#     4  10  22  48  74 118 178 244 310 364 436 518
#     4  11  26  42  75 114 174 224 300 352 429 531
#     4  12  27  50  81 125 171 237 293 371 447 552
#     4  12  29  57  97 126 181 220 297 372 477 550
#     4  12  30  60  91 139 168 229 290 381 462 571
#     4  11  28  48  81 123 180 241 303 370 444 545
#     4  11  28  49  83 120 177 229 299 370 458 532
#
# _framework density 28.901071000000002
#
# number of rings (size 3 to 8) (size 9 to 14) (size 15 to 20)
#    0.000    0.800    1.333    3.200   13.067    2.133 
#    0.000    0.000    0.000    0.000    0.000    0.000 
#    0.000    0.000    0.000    0.000    0.000    0.000 
#
# Total GULP energy -334429.596843 kJ/mol
# GULP energy per Si atom -5573.826614 kJ/mol
# Density = 2.883529 g / cm^3
# Si number density = 28.901071 Si / 1000 Ang^3
#
#
#
# Elastic Constant Matrix: (Units=GPa)
#
#
# Indices 1 2 3 4 5 6 
#
# 1 82.5028 23.1520 31.1930 0.0000 0.0000 0.0000
# 2 23.1520 101.1580 53.1419 0.0000 0.0000 0.0000
# 3 31.1930 53.1419 177.0324 0.0000 0.0000 0.0000
# 4 0.0000 0.0000 0.0000 55.2911 0.0000 0.0000
# 5 0.0000 0.0000 0.0000 0.0000 42.3264 0.0000
# 6 0.0000 0.0000 0.0000 0.0000 0.0000 66.9365
#
#
#
# Elastic Compliance Matrix: (Units=1/GPa)
#
#
# Indices 1 2 3 4 5 6 
#
# 1 0.013373 -0.002164 -0.001707 0.000000 0.000000 0.000000
# 2 -0.002164 0.012087 -0.003247 0.000000 0.000000 0.000000
# 3 -0.001707 -0.003247 0.006924 0.000000 0.000000 0.000000
# 4 0.000000 0.000000 0.000000 0.018086 0.000000 0.000000
# 5 0.000000 0.000000 0.000000 0.000000 0.023626 0.000000
# 6 0.000000 0.000000 0.000000 0.000000 0.000000 0.014940
#
#
# Mechanical properties :
#
#
# Convention : Reuss Voigt Hill
#
# Bulk Modulus (GPa) = 55.10094 63.96299 59.53196
# Shear Modulus (GPa) = 45.73710 49.79122 47.76416
#
# Velocity S-wave (km/s) = 3.98243 4.15518 4.06972
# Velocity P-wave (km/s) = 6.34453 6.72313 6.53657
#
# Compressibility (1/GPa) = 0.01814851
#
# Stress axis : x y z
#
# Youngs Moduli (GPa) = 74.77526 82.73690 144.42415
#
# Poissons Ratio (x) = 0.17906 0.24650
# Poissons Ratio (y) = 0.16182 0.46892
# Poissons Ratio (z) = 0.12762 0.26863
#
# Static dielectric constant tensor:
#      x y z
#    x 2.431740 0.000000 0.000000 
#    y 0.000000 2.329910 0.000000 
#    z 0.000000 0.000000 2.810450 
# 
# From -- ./inp_files/11764.got.cif
#   From: 2010.05.17/outbox.cif.g08.bks.cpg/sg61_6_cif.got.tgz:11764.got - 2010.06.03 15:17:17.
