data_PCOD9460180
_publ_section_title
;
Structure prediction by ZEFSAII (Michael W. Deem and Ramdas Pophale) SiO2 
 PCOD9460180
Probable space group: P B C A
;
_chemical_formula_sum "Si O2"
_cell_formula_units_Z 52
_cell_length_a 15.203627
_cell_length_b 25.963408
_cell_length_c 5.040838
_cell_angle_alpha 90.000000
_cell_angle_beta 90.000000
_cell_angle_gamma 90.000000
_cell_volume 1989.810164
_symmetry_space_group_name_H-M "P B C A"
_symmetry_group_IT_number 61
_symmetry_cell_setting 'orthorhombic'
loop_
_space_group_symop_operation_xyz
x,y,z
1/2-x,-y,1/2+z
1/2+x,1/2-y,-z
-x,1/2+y,1/2-z
-x,-y,-z
1/2+x,y,1/2-z
1/2-x,1/2+y,z
x,1/2-y,1/2+z
loop_
_atom_site_type_symbol
_atom_site_label
_atom_site_fract_x
_atom_site_fract_y
_atom_site_fract_z
Si Si1 0.957468 0.113017 0.127154
Si Si2 0.804516 0.485594 0.245157
Si Si3 0.873994 0.647308 0.636390
Si Si4 0.000000 0.500000 0.500000
Si Si5 0.302206 0.374992 0.526751
Si Si6 0.232929 0.716824 0.680946
Si Si7 0.423608 0.943018 0.016084
O O1 0.028316 0.148877 0.979108
O O2 0.004007 0.095323 0.401443
O O3 0.863208 0.130761 0.220414
O O4 0.956886 0.059233 0.973440
O O5 0.741940 0.514873 0.029058
O O6 0.814671 0.430635 0.106245
O O7 0.890356 0.524304 0.246524
O O8 0.801130 0.634277 0.410415
O O9 0.833763 0.696847 0.779876
O O10 0.864097 0.597540 0.826229
O O11 0.943526 0.512064 0.778207
O O12 0.320700 0.330876 0.307742
O O13 0.217906 0.763460 0.886928
#
# Coordination Sequence:
#
# PCOD9460180 Si02
#       7
#     8   8   8   4   8   8   8
#     4  11  22  41  62 100 139 183 233 272 344 415
#     4  12  24  38  63  99 139 185 226 263 330 414
#     4   9  23  43  64  98 130 177 228 284 344 421
#     4  10  22  36  54  94 142 190 216 276 324 404
#     4  10  23  42  68  98 133 186 222 292 341 410
#     4  10  24  48  75  97 133 180 231 301 368 408
#     4  11  22  37  61  94 142 179 227 270 332 414
#
# _framework density 26.133144000000001
#
# number of rings (size 3 to 8) (size 9 to 14) (size 15 to 20)
#    0.923    0.615    3.077    1.385    4.308    1.231 
#    5.538    1.538    0.000    0.000    0.000    0.000 
#    0.000    0.000    0.000    0.000    0.000    0.000 
#
# Total GULP energy -290318.452638 kJ/mol
# GULP energy per Si atom -5583.047166 kJ/mol
# Density = 2.607366 g / cm^3
# Si number density = 26.133144 Si / 1000 Ang^3
#
#
#
# Elastic Constant Matrix: (Units=GPa)
#
#
# Indices 1 2 3 4 5 6 
#
# 1 64.2656 20.3760 16.4293 0.0000 0.0000 0.0000
# 2 20.3760 93.2705 2.3297 0.0000 0.0000 0.0000
# 3 16.4293 2.3297 114.0037 0.0000 0.0000 0.0000
# 4 0.0000 0.0000 0.0000 38.6815 0.0000 0.0000
# 5 0.0000 0.0000 0.0000 0.0000 28.2946 0.0000
# 6 0.0000 0.0000 0.0000 0.0000 0.0000 39.4515
#
#
#
# Elastic Compliance Matrix: (Units=1/GPa)
#
#
# Indices 1 2 3 4 5 6 
#
# 1 0.017364 -0.003733 -0.002426 0.000000 0.000000 0.000000
# 2 -0.003733 0.011529 0.000302 0.000000 0.000000 0.000000
# 3 -0.002426 0.000302 0.009115 0.000000 0.000000 0.000000
# 4 0.000000 0.000000 0.000000 0.025852 0.000000 0.000000
# 5 0.000000 0.000000 0.000000 0.000000 0.035342 0.000000
# 6 0.000000 0.000000 0.000000 0.000000 0.000000 0.025348
#
#
# Mechanical properties :
#
#
# Convention : Reuss Voigt Hill
#
# Bulk Modulus (GPa) = 38.02925 38.86776 38.44851
# Shear Modulus (GPa) = 34.47583 36.77919 35.62751
#
# Velocity S-wave (km/s) = 3.63607 3.75557 3.69630
# Velocity P-wave (km/s) = 5.67554 5.80612 5.74120
#
# Compressibility (1/GPa) = 0.02629555
#
# Stress axis : x y z
#
# Youngs Moduli (GPa) = 57.58986 86.73462 109.70806
#
# Poissons Ratio (x) = 0.32376 0.26616
# Poissons Ratio (y) = 0.21497 -0.03317
# Poissons Ratio (z) = 0.13972 -0.02622
#
# Static dielectric constant tensor:
#      x y z
#    x 2.289360 0.000000 0.000000 
#    y 0.000000 1.971400 0.000000 
#    z 0.000000 0.000000 2.006550 
# 
# From -- ./inp_files/779.got.cif
#   From: 2010.05.17/outbox.cif.g08.bks.cpg/sg61_1_cif.got.tgz:779.got - 2010.06.03 15:17:17.
