data_PCOD9460745
_publ_section_title
;
Structure prediction by ZEFSAII (Michael W. Deem and Ramdas Pophale) SiO2 
 PCOD9460745
Probable space group: P B C A
;
_chemical_formula_sum "Si O2"
_cell_formula_units_Z 48
_cell_length_a 21.464666
_cell_length_b 7.468655
_cell_length_c 10.961606
_cell_angle_alpha 90.000000
_cell_angle_beta 90.000000
_cell_angle_gamma 90.000000
_cell_volume 1757.279009
_symmetry_space_group_name_H-M "P B C A"
_symmetry_group_IT_number 61
_symmetry_cell_setting 'orthorhombic'
loop_
_space_group_symop_operation_xyz
x,y,z
1/2-x,-y,1/2+z
1/2+x,1/2-y,-z
-x,1/2+y,1/2-z
-x,-y,-z
1/2+x,y,1/2-z
1/2-x,1/2+y,z
x,1/2-y,1/2+z
loop_
_atom_site_type_symbol
_atom_site_label
_atom_site_fract_x
_atom_site_fract_y
_atom_site_fract_z
Si Si1 0.084400 0.250212 0.567320
Si Si2 0.849382 0.062884 0.804707
Si Si3 0.228207 0.167028 0.382462
Si Si4 0.438514 0.269245 0.384329
Si Si5 0.327926 0.359586 0.526846
Si Si6 0.619101 0.387997 0.172217
O O1 0.121227 0.438542 0.590514
O O2 0.112305 0.140957 0.682872
O O3 0.089351 0.237871 0.419518
O O4 0.011418 0.238793 0.595957
O O5 0.798920 0.946214 0.730950
O O6 0.909572 0.114105 0.724706
O O7 0.818223 0.246594 0.851496
O O8 0.201503 0.052278 0.498822
O O9 0.295645 0.234274 0.422649
O O10 0.191138 0.355504 0.362532
O O11 0.401450 0.348966 0.500624
O O12 0.415881 0.069251 0.356910
#
# Coordination Sequence:
#
# PCOD9460745 Si02
#       6
#     8   8   8   8   8   8
#     4  11  24  44  71 104 145 183 236 292 353 430
#     4  10  24  44  67 104 138 185 236 289 351 425
#     4  10  25  45  65 103 132 180 234 289 349 416
#     4  11  23  41  69 100 138 187 228 286 352 413
#     4  11  23  43  68  96 141 178 232 285 354 418
#     4  11  24  45  72 101 140 187 232 291 356 416
#
# _framework density 27.314955999999999
#
# number of rings (size 3 to 8) (size 9 to 14) (size 15 to 20)
#    0.000    1.333    1.667    2.500    4.667    2.667 
#    6.000    3.333    0.000    0.000    0.000    0.000 
#    0.000    0.000    0.000    0.000    0.000    0.000 
#
# Total GULP energy -268359.067450 kJ/mol
# GULP energy per Si atom -5590.813905 kJ/mol
# Density = 2.725279 g / cm^3
# Si number density = 27.314956 Si / 1000 Ang^3
#
#
#
# Elastic Constant Matrix: (Units=GPa)
#
#
# Indices 1 2 3 4 5 6 
#
# 1 152.4579 -0.3518 19.0162 0.0000 0.0000 0.0000
# 2 -0.3518 85.4080 17.4976 0.0000 0.0000 0.0000
# 3 19.0162 17.4976 135.0686 0.0000 0.0000 0.0000
# 4 0.0000 0.0000 0.0000 47.9668 0.0000 0.0000
# 5 0.0000 0.0000 0.0000 0.0000 23.3665 0.0000
# 6 0.0000 0.0000 0.0000 0.0000 0.0000 26.1212
#
#
#
# Elastic Compliance Matrix: (Units=1/GPa)
#
#
# Indices 1 2 3 4 5 6 
#
# 1 0.006681 0.000226 -0.000970 0.000000 0.000000 0.000000
# 2 0.000226 0.012035 -0.001591 0.000000 0.000000 0.000000
# 3 -0.000970 -0.001591 0.007746 0.000000 0.000000 0.000000
# 4 0.000000 0.000000 0.000000 0.020848 0.000000 0.000000
# 5 0.000000 0.000000 0.000000 0.000000 0.042796 0.000000
# 6 0.000000 0.000000 0.000000 0.000000 0.000000 0.038283
#
#
# Mechanical properties :
#
#
# Convention : Reuss Voigt Hill
#
# Bulk Modulus (GPa) = 45.88611 49.47316 47.67964
# Shear Modulus (GPa) = 35.63203 41.94239 38.78721
#
# Velocity S-wave (km/s) = 3.61569 3.92281 3.77238
# Velocity P-wave (km/s) = 5.85374 6.21847 6.03886
#
# Compressibility (1/GPa) = 0.02179309
#
# Stress axis : x y z
#
# Youngs Moduli (GPa) = 149.68526 83.08830 129.09390
#
# Poissons Ratio (x) = -0.01880 0.12520
# Poissons Ratio (y) = -0.03386 0.20539
# Poissons Ratio (z) = 0.14518 0.13219
#
# Static dielectric constant tensor:
#      x y z
#    x 2.073830 0.000000 0.000000 
#    y 0.000000 2.269440 0.000000 
#    z 0.000000 0.000000 2.184830 
# 
# From -- ./inp_files/2280.got.cif
#   From: 2010.05.17/outbox.cif.g08.bks.cpg/sg61_2_cif.got.tgz:2280.got - 2010.06.03 15:17:17.
