data_PCOD9460751
_publ_section_title
;
Structure prediction by ZEFSAII (Michael W. Deem and Ramdas Pophale) SiO2 
 PCOD9460751
Probable space group: P B C A
;
_chemical_formula_sum "Si O2"
_cell_formula_units_Z 40
_cell_length_a 8.855547
_cell_length_b 15.977654
_cell_length_c 11.286377
_cell_angle_alpha 90.000000
_cell_angle_beta 90.000000
_cell_angle_gamma 90.000000
_cell_volume 1596.919255
_symmetry_space_group_name_H-M "P B C A"
_symmetry_group_IT_number 61
_symmetry_cell_setting 'orthorhombic'
loop_
_space_group_symop_operation_xyz
x,y,z
1/2-x,-y,1/2+z
1/2+x,1/2-y,-z
-x,1/2+y,1/2-z
-x,-y,-z
1/2+x,y,1/2-z
1/2-x,1/2+y,z
x,1/2-y,1/2+z
loop_
_atom_site_type_symbol
_atom_site_label
_atom_site_fract_x
_atom_site_fract_y
_atom_site_fract_z
Si Si1 0.953662 0.024607 0.845974
Si Si2 0.328061 0.785423 0.774988
Si Si3 0.392482 0.375655 0.936264
Si Si4 0.380889 0.206178 0.074971
Si Si5 0.283946 0.104835 0.868846
O O1 0.891814 0.056316 0.721863
O O2 0.123280 0.058599 0.868455
O O3 0.854251 0.067228 0.949183
O O4 0.975060 0.926323 0.869087
O O5 0.241275 0.859301 0.844383
O O6 0.280008 0.781739 0.638502
O O7 0.499371 0.793010 0.817948
O O8 0.262190 0.697229 0.822987
O O9 0.424447 0.285816 0.995059
O O10 0.366895 0.124552 0.992904
#
# Coordination Sequence:
#
# PCOD9460751 Si02
#       5
#     8   8   8   8   8
#     4  11  24  47  71 104 150 192 246 307 376 438
#     4  11  23  43  69 107 140 192 243 305 356 443
#     4  10  24  44  71 101 145 193 239 311 363 435
#     4  11  25  44  78 108 146 193 257 300 370 442
#     4  11  24  44  73 106 142 197 242 307 368 444
#
# _framework density 25.048228999999999
#
# number of rings (size 3 to 8) (size 9 to 14) (size 15 to 20)
#    0.000    1.200    4.000    0.000    5.600    3.200 
#    3.600    4.000    0.000    0.000    0.000    0.000 
#    0.000    0.000    0.000    0.000    0.000    0.000 
#
# Total GULP energy -223816.962275 kJ/mol
# GULP energy per Si atom -5595.424057 kJ/mol
# Density = 2.499122 g / cm^3
# Si number density = 25.048229 Si / 1000 Ang^3
#
#
#
# Elastic Constant Matrix: (Units=GPa)
#
#
# Indices 1 2 3 4 5 6 
#
# 1 104.7436 60.6151 58.9386 0.0000 0.0000 0.0000
# 2 60.6151 111.7365 41.6525 0.0000 0.0000 0.0000
# 3 58.9386 41.6525 130.0086 0.0000 0.0000 0.0000
# 4 0.0000 0.0000 0.0000 55.0299 0.0000 0.0000
# 5 0.0000 0.0000 0.0000 0.0000 40.2163 0.0000
# 6 0.0000 0.0000 0.0000 0.0000 0.0000 42.7025
#
#
#
# Elastic Compliance Matrix: (Units=1/GPa)
#
#
# Indices 1 2 3 4 5 6 
#
# 1 0.016577 -0.007031 -0.005263 0.000000 0.000000 0.000000
# 2 -0.007031 0.013146 -0.001024 0.000000 0.000000 0.000000
# 3 -0.005263 -0.001024 0.010406 0.000000 0.000000 0.000000
# 4 0.000000 0.000000 0.000000 0.018172 0.000000 0.000000
# 5 0.000000 0.000000 0.000000 0.000000 0.024866 0.000000
# 6 0.000000 0.000000 0.000000 0.000000 0.000000 0.023418
#
#
# Mechanical properties :
#
#
# Convention : Reuss Voigt Hill
#
# Bulk Modulus (GPa) = 74.11265 74.32234 74.21749
# Shear Modulus (GPa) = 36.30633 39.94192 38.12413
#
# Velocity S-wave (km/s) = 3.81130 3.99758 3.90555
# Velocity P-wave (km/s) = 7.00145 7.14448 7.07333
#
# Compressibility (1/GPa) = 0.01349297
#
# Stress axis : x y z
#
# Youngs Moduli (GPa) = 60.32374 76.07081 96.10161
#
# Poissons Ratio (x) = 0.53486 0.50574
# Poissons Ratio (y) = 0.42414 0.09842
# Poissons Ratio (z) = 0.31746 0.07791
#
# Static dielectric constant tensor:
#      x y z
#    x 1.979090 0.000000 0.000000 
#    y 0.000000 2.032680 0.000000 
#    z 0.000000 0.000000 2.015590 
# 
# From -- ./inp_files/4779.got.cif
#   From: 2010.05.17/outbox.cif.g08.bks.cpg/sg61_3_cif.got.tgz:4779.got - 2010.06.03 15:17:17.
