data_PCOD9460143
_publ_section_title
;
Structure prediction by ZEFSAII (Michael W. Deem and Ramdas Pophale) SiO2 
 PCOD9460143
Probable space group: P B C A
;
_chemical_formula_sum "Si O2"
_cell_formula_units_Z 56
_cell_length_a 9.594490
_cell_length_b 14.218675
_cell_length_c 18.105922
_cell_angle_alpha 90.000000
_cell_angle_beta 90.000000
_cell_angle_gamma 90.000000
_cell_volume 2470.026810
_symmetry_space_group_name_H-M "P B C A"
_symmetry_group_IT_number 61
_symmetry_cell_setting 'orthorhombic'
loop_
_space_group_symop_operation_xyz
x,y,z
1/2-x,-y,1/2+z
1/2+x,1/2-y,-z
-x,1/2+y,1/2-z
-x,-y,-z
1/2+x,y,1/2-z
1/2-x,1/2+y,z
x,1/2-y,1/2+z
loop_
_atom_site_type_symbol
_atom_site_label
_atom_site_fract_x
_atom_site_fract_y
_atom_site_fract_z
Si Si1 0.748993 0.514328 0.093141
Si Si2 0.563603 0.663721 0.266804
Si Si3 0.299371 0.693040 0.337916
Si Si4 0.744763 0.177041 0.535030
Si Si5 0.561871 0.855046 0.497861
Si Si6 0.120842 0.047087 0.750458
Si Si7 0.633161 0.854813 0.330234
O O1 0.841556 0.606040 0.109632
O O2 0.807546 0.426163 0.048311
O O3 0.701925 0.478019 0.173522
O O4 0.620699 0.561497 0.048897
O O5 0.399437 0.683957 0.268061
O O6 0.642057 0.683638 0.190219
O O7 0.589530 0.555057 0.284286
O O8 0.622290 0.742002 0.322639
O O9 0.311058 0.786158 0.385008
O O10 0.601589 0.164817 0.489799
O O11 0.849853 0.258864 0.511212
O O12 0.594032 0.882622 0.413168
O O13 0.218324 0.107740 0.697267
O O14 0.980047 0.099786 0.774245
#
# Coordination Sequence:
#
# PCOD9460143 Si02
#       7
#     8   8   8   8   8   8   8
#     4  10  21  43  70  93 133 181 217 284 335 405
#     4  11  21  41  64  95 135 176 217 278 340 401
#     4  10  22  40  65  95 134 173 222 276 344 401
#     4  11  22  47  63  96 132 176 227 287 336 405
#     4  11  25  44  70  97 131 182 237 273 344 409
#     4  11  24  41  69  97 136 173 226 273 351 398
#     4  12  24  44  65 101 136 176 225 290 331 415
#
# _framework density 22.671818999999999
#
# number of rings (size 3 to 8) (size 9 to 14) (size 15 to 20)
#    0.000    1.143    2.857    3.857    0.000    1.143 
#   20.571    1.429    0.000    0.000    0.000    0.000 
#    0.000    0.000    0.000    0.000    0.000    0.000 
#
# Total GULP energy -312769.059881 kJ/mol
# GULP energy per Si atom -5585.161784 kJ/mol
# Density = 2.262022 g / cm^3
# Si number density = 22.671819 Si / 1000 Ang^3
#
#
#
# Elastic Constant Matrix: (Units=GPa)
#
#
# Indices 1 2 3 4 5 6 
#
# 1 28.7290 1.8231 9.6233 0.0000 0.0000 0.0000
# 2 1.8231 132.4173 11.4686 0.0000 0.0000 0.0000
# 3 9.6233 11.4686 48.5668 0.0000 0.0000 0.0000
# 4 0.0000 0.0000 0.0000 37.3093 0.0000 0.0000
# 5 0.0000 0.0000 0.0000 0.0000 25.3060 0.0000
# 6 0.0000 0.0000 0.0000 0.0000 0.0000 22.0445
#
#
#
# Elastic Compliance Matrix: (Units=1/GPa)
#
#
# Indices 1 2 3 4 5 6 
#
# 1 0.037285 0.000129 -0.007418 0.000000 0.000000 0.000000
# 2 0.000129 0.007710 -0.001846 0.000000 0.000000 0.000000
# 3 -0.007418 -0.001846 0.022496 0.000000 0.000000 0.000000
# 4 0.000000 0.000000 0.000000 0.026803 0.000000 0.000000
# 5 0.000000 0.000000 0.000000 0.000000 0.039516 0.000000
# 6 0.000000 0.000000 0.000000 0.000000 0.000000 0.045363
#
#
# Mechanical properties :
#
#
# Convention : Reuss Voigt Hill
#
# Bulk Modulus (GPa) = 20.31692 28.39367 24.35529
# Shear Modulus (GPa) = 23.38084 29.38518 26.38301
#
# Velocity S-wave (km/s) = 3.21483 3.60406 3.41499
# Velocity P-wave (km/s) = 4.77084 5.46534 5.12986
#
# Compressibility (1/GPa) = 0.04922007
#
# Stress axis : x y z
#
# Youngs Moduli (GPa) = 26.82061 129.70152 44.45222
#
# Poissons Ratio (x) = -0.01675 0.32976
# Poissons Ratio (y) = -0.00346 0.08207
# Poissons Ratio (z) = 0.19896 0.23946
#
# Static dielectric constant tensor:
#      x y z
#    x 1.864640 0.000000 0.000000 
#    y 0.000000 1.862430 0.000000 
#    z 0.000000 0.000000 1.834210 
# 
# From -- ./inp_files/10114.got.cif
#   From: 2010.05.17/outbox.cif.g08.bks.cpg/sg61_6_cif.got.tgz:10114.got - 2010.06.03 15:17:17.
