data_PCOD9460321
_publ_section_title
;
Structure prediction by ZEFSAII (Michael W. Deem and Ramdas Pophale) SiO2 
 PCOD9460321
Probable space group: P B C A
;
_chemical_formula_sum "Si O2"
_cell_formula_units_Z 32
_cell_length_a 7.377854
_cell_length_b 13.289579
_cell_length_c 12.289712
_cell_angle_alpha 90.000000
_cell_angle_beta 90.000000
_cell_angle_gamma 90.000000
_cell_volume 1204.988731
_symmetry_space_group_name_H-M "P B C A"
_symmetry_group_IT_number 61
_symmetry_cell_setting 'orthorhombic'
loop_
_space_group_symop_operation_xyz
x,y,z
1/2-x,-y,1/2+z
1/2+x,1/2-y,-z
-x,1/2+y,1/2-z
-x,-y,-z
1/2+x,y,1/2-z
1/2-x,1/2+y,z
x,1/2-y,1/2+z
loop_
_atom_site_type_symbol
_atom_site_label
_atom_site_fract_x
_atom_site_fract_y
_atom_site_fract_z
Si Si1 0.201495 0.895973 0.645557
Si Si2 0.553272 0.091717 0.764311
Si Si3 0.785015 0.186537 0.908370
Si Si4 0.628399 0.575278 0.124319
O O1 0.147731 0.799735 0.575733
O O2 0.198213 0.861537 0.772252
O O3 0.408653 0.922765 0.617020
O O4 0.069959 0.992766 0.655609
O O5 0.593126 0.182270 0.847465
O O6 0.394037 0.131944 0.688540
O O7 0.672195 0.038886 0.664188
O O8 0.794769 0.120546 0.015355
#
# Coordination Sequence:
#
# PCOD9460321 Si02
#       4
#     8   8   8   8
#     4  10  23  41  65  98 131 171 228 270 317 414
#     4  10  22  41  65 100 128 171 228 267 320 414
#     4  12  23  43  72  93 138 183 210 282 345 375
#     4  10  23  46  64  96 138 173 217 283 326 397
#
# _framework density 26.556263999999999
#
# number of rings (size 3 to 8) (size 9 to 14) (size 15 to 20)
#    1.500    0.000    2.500    2.250    0.000    4.000 
#    0.000    7.500    0.000    0.000    0.000    0.000 
#    0.000    0.000    0.000    0.000    0.000    0.000 
#
# Total GULP energy -178149.471756 kJ/mol
# GULP energy per Si atom -5567.170992 kJ/mol
# Density = 2.649582 g / cm^3
# Si number density = 26.556264 Si / 1000 Ang^3
#
#
#
# Elastic Constant Matrix: (Units=GPa)
#
#
# Indices 1 2 3 4 5 6 
#
# 1 45.5413 6.0208 26.4704 0.0000 0.0000 0.0000
# 2 6.0208 102.4014 -0.0619 0.0000 0.0000 0.0000
# 3 26.4704 -0.0619 72.8588 0.0000 0.0000 0.0000
# 4 0.0000 0.0000 0.0000 45.0866 0.0000 0.0000
# 5 0.0000 0.0000 0.0000 0.0000 27.9538 0.0000
# 6 0.0000 0.0000 0.0000 0.0000 0.0000 24.6599
#
#
#
# Elastic Compliance Matrix: (Units=1/GPa)
#
#
# Indices 1 2 3 4 5 6 
#
# 1 0.028115 -0.001659 -0.010216 0.000000 0.000000 0.000000
# 2 -0.001659 0.009863 0.000611 0.000000 0.000000 0.000000
# 3 -0.010216 0.000611 0.017437 0.000000 0.000000 0.000000
# 4 0.000000 0.000000 0.000000 0.022180 0.000000 0.000000
# 5 0.000000 0.000000 0.000000 0.000000 0.035773 0.000000
# 6 0.000000 0.000000 0.000000 0.000000 0.000000 0.040552
#
#
# Mechanical properties :
#
#
# Convention : Reuss Voigt Hill
#
# Bulk Modulus (GPa) = 30.40626 31.74000 31.07313
# Shear Modulus (GPa) = 26.67925 32.09819 29.38872
#
# Velocity S-wave (km/s) = 3.17303 3.48039 3.33026
# Velocity P-wave (km/s) = 4.98987 5.30365 5.14915
#
# Compressibility (1/GPa) = 0.03288797
#
# Stress axis : x y z
#
# Youngs Moduli (GPa) = 35.56766 101.38474 57.34840
#
# Poissons Ratio (x) = 0.16822 0.58587
# Poissons Ratio (y) = 0.05902 -0.03505
# Poissons Ratio (z) = 0.36336 -0.06197
#
# Static dielectric constant tensor:
#      x y z
#    x 2.420750 0.000000 0.000000 
#    y 0.000000 2.117840 0.000000 
#    z 0.000000 0.000000 2.200200 
# 
# From -- ./inp_files/2523.got.cif
#   From: 2010.05.17/outbox.cif.g08.bks.cpg/sg61_2_cif.got.tgz:2523.got - 2010.06.03 15:17:17.
