data_PCOD9460411
_publ_section_title
;
Structure prediction by ZEFSAII (Michael W. Deem and Ramdas Pophale) SiO2 
 PCOD9460411
Probable space group: P B C A
;
_chemical_formula_sum "Si O2"
_cell_formula_units_Z 64
_cell_length_a 13.092792
_cell_length_b 10.860066
_cell_length_c 18.736349
_cell_angle_alpha 90.000000
_cell_angle_beta 90.000000
_cell_angle_gamma 90.000000
_cell_volume 2664.094957
_symmetry_space_group_name_H-M "P B C A"
_symmetry_group_IT_number 61
_symmetry_cell_setting 'orthorhombic'
loop_
_space_group_symop_operation_xyz
x,y,z
1/2-x,-y,1/2+z
1/2+x,1/2-y,-z
-x,1/2+y,1/2-z
-x,-y,-z
1/2+x,y,1/2-z
1/2-x,1/2+y,z
x,1/2-y,1/2+z
loop_
_atom_site_type_symbol
_atom_site_label
_atom_site_fract_x
_atom_site_fract_y
_atom_site_fract_z
Si Si1 0.490671 0.764428 0.030154
Si Si2 0.707326 0.653302 0.689533
Si Si3 0.515292 0.981966 0.122459
Si Si4 0.104087 0.416678 0.250703
Si Si5 0.840643 0.801011 0.578286
Si Si6 0.196347 0.712331 0.544093
Si Si7 0.364624 0.679152 0.150400
Si Si8 0.894618 0.092118 0.823292
O O1 0.413322 0.713321 0.969844
O O2 0.603207 0.776381 0.997706
O O3 0.463191 0.902180 0.059942
O O4 0.466550 0.683269 0.100186
O O5 0.607879 0.605108 0.649377
O O6 0.793056 0.550598 0.708364
O O7 0.772132 0.746359 0.641247
O O8 0.660824 0.683403 0.767223
O O9 0.437079 0.003008 0.187388
O O10 0.574498 0.103820 0.103262
O O11 0.124129 0.289045 0.207580
O O12 0.013563 0.398489 0.306608
O O13 0.762927 0.850170 0.517984
O O14 0.271323 0.792905 0.595253
O O15 0.141669 0.620758 0.598036
O O16 0.361186 0.548939 0.189187
#
# Coordination Sequence:
#
# PCOD9460411 Si02
#       8
#     8   8   8   8   8   8   8   8
#     4  10  22  43  67  99 138 172 224 281 335 407
#     4  11  23  43  62  99 136 171 231 282 330 413
#     4  10  23  42  65 101 131 178 226 270 352 397
#     4  10  23  44  62  94 135 172 230 279 327 410
#     4  11  24  40  72  97 139 179 222 288 332 411
#     4  11  23  43  68 102 136 176 227 284 336 416
#     4  10  24  45  66  97 142 170 224 290 331 409
#     4  11  25  42  68  97 134 188 226 279 356 400
#
# _framework density 24.023167000000001
#
# number of rings (size 3 to 8) (size 9 to 14) (size 15 to 20)
#    0.000    1.500    2.500    1.125    5.250    2.500 
#    2.250    0.000    0.000    0.000    0.000    0.000 
#    0.000    0.000    0.000    0.000    0.000    0.000 
#
# Total GULP energy -357095.175367 kJ/mol
# GULP energy per Si atom -5579.612115 kJ/mol
# Density = 2.396849 g / cm^3
# Si number density = 24.023167 Si / 1000 Ang^3
#
#
#
# Elastic Constant Matrix: (Units=GPa)
#
#
# Indices 1 2 3 4 5 6 
#
# 1 96.9508 0.6732 21.6935 0.0000 0.0000 0.0000
# 2 0.6732 34.8306 32.1630 0.0000 0.0000 0.0000
# 3 21.6935 32.1630 98.8320 0.0000 0.0000 0.0000
# 4 0.0000 0.0000 0.0000 16.9254 0.0000 0.0000
# 5 0.0000 0.0000 0.0000 0.0000 70.2639 0.0000
# 6 0.0000 0.0000 0.0000 0.0000 0.0000 20.2528
#
#
#
# Elastic Compliance Matrix: (Units=1/GPa)
#
#
# Indices 1 2 3 4 5 6 
#
# 1 0.011048 0.002896 -0.003367 0.000000 0.000000 0.000000
# 2 0.002896 0.041804 -0.014240 0.000000 0.000000 0.000000
# 3 -0.003367 -0.014240 0.015491 0.000000 0.000000 0.000000
# 4 0.000000 0.000000 0.000000 0.059083 0.000000 0.000000
# 5 0.000000 0.000000 0.000000 0.000000 0.014232 0.000000
# 6 0.000000 0.000000 0.000000 0.000000 0.000000 0.049376
#
#
# Mechanical properties :
#
#
# Convention : Reuss Voigt Hill
#
# Bulk Modulus (GPa) = 25.69347 37.74141 31.71744
# Shear Modulus (GPa) = 21.41970 33.22733 27.32351
#
# Velocity S-wave (km/s) = 2.98925 3.72309 3.37617
# Velocity P-wave (km/s) = 4.75738 5.85033 5.33193
#
# Compressibility (1/GPa) = 0.03892040
#
# Stress axis : x y z
#
# Youngs Moduli (GPa) = 90.51495 23.92130 64.55171
#
# Poissons Ratio (x) = -0.06928 0.21737
# Poissons Ratio (y) = -0.26213 0.91921
# Poissons Ratio (z) = 0.30481 0.34064
#
# Static dielectric constant tensor:
#      x y z
#    x 1.962070 0.000000 0.000000 
#    y 0.000000 1.928290 0.000000 
#    z 0.000000 0.000000 1.999380 
# 
# From -- ./inp_files/9520.got.cif
#   From: 2010.05.17/outbox.cif.g08.bks.cpg/sg61_5_cif.got.tgz:9520.got - 2010.06.03 15:17:17.
