data_PCOD9460206
_publ_section_title
;
Structure prediction by ZEFSAII (Michael W. Deem and Ramdas Pophale) SiO2 
 PCOD9460206
Probable space group: P B C A
;
_chemical_formula_sum "Si O2"
_cell_formula_units_Z 44
_cell_length_a 27.726643
_cell_length_b 4.799486
_cell_length_c 12.799121
_cell_angle_alpha 90.000000
_cell_angle_beta 90.000000
_cell_angle_gamma 90.000000
_cell_volume 1703.225555
_symmetry_space_group_name_H-M "P B C A"
_symmetry_group_IT_number 61
_symmetry_cell_setting 'orthorhombic'
loop_
_space_group_symop_operation_xyz
x,y,z
1/2-x,-y,1/2+z
1/2+x,1/2-y,-z
-x,1/2+y,1/2-z
-x,-y,-z
1/2+x,y,1/2-z
1/2-x,1/2+y,z
x,1/2-y,1/2+z
loop_
_atom_site_type_symbol
_atom_site_label
_atom_site_fract_x
_atom_site_fract_y
_atom_site_fract_z
Si Si1 0.636796 0.268410 0.310135
Si Si2 0.973849 0.866447 0.797481
Si Si3 0.892631 0.899646 0.532857
Si Si4 0.000000 0.000000 0.500000
Si Si5 0.157653 0.602090 0.389916
Si Si6 0.281972 0.409882 0.088024
O O1 0.583469 0.153891 0.278133
O O2 0.624879 0.445640 0.414533
O O3 0.658931 0.465937 0.222348
O O4 0.674361 0.031716 0.344295
O O5 0.995540 0.175392 0.784233
O O6 0.982406 0.741473 0.912336
O O7 0.945951 0.005160 0.547353
O O8 0.885701 0.573883 0.555291
O O9 0.856345 0.076151 0.604824
O O10 0.202364 0.555825 0.466873
O O11 0.264949 0.098576 0.107289
#
# Coordination Sequence:
#
# PCOD9460206 Si02
#       6
#     8   8   8   4   8   8
#     4  10  24  42  68  95 133 178 219 277 342 400
#     4  11  24  40  63  98 134 175 227 272 328 408
#     4  10  23  39  61  95 130 171 222 267 321 398
#     4  10  22  38  62  90 132 176 216 272 324 376
#     4  11  23  42  64  90 127 167 211 272 337 392
#     4  11  25  44  65  94 124 160 219 274 328 405
#
# _framework density 25.83334
#
# number of rings (size 3 to 8) (size 9 to 14) (size 15 to 20)
#    0.000    1.455    0.000    4.364    0.000   17.455 
#    0.000    0.000    0.000    0.000    0.000    0.000 
#    0.000    0.000    0.000    0.000    0.000    0.000 
#
# Total GULP energy -245778.988685 kJ/mol
# GULP energy per Si atom -5585.886106 kJ/mol
# Density = 2.577454 g / cm^3
# Si number density = 25.833340 Si / 1000 Ang^3
#
#
#
# Elastic Constant Matrix: (Units=GPa)
#
#
# Indices 1 2 3 4 5 6 
#
# 1 137.1200 23.9840 23.8126 0.0000 0.0000 0.0000
# 2 23.9840 94.1842 16.6828 0.0000 0.0000 0.0000
# 3 23.8126 16.6828 113.9183 0.0000 0.0000 0.0000
# 4 0.0000 0.0000 0.0000 30.9972 0.0000 0.0000
# 5 0.0000 0.0000 0.0000 0.0000 38.8606 0.0000
# 6 0.0000 0.0000 0.0000 0.0000 0.0000 29.5863
#
#
#
# Elastic Compliance Matrix: (Units=1/GPa)
#
#
# Indices 1 2 3 4 5 6 
#
# 1 0.007839 -0.001751 -0.001382 0.000000 0.000000 0.000000
# 2 -0.001751 0.011292 -0.001287 0.000000 0.000000 0.000000
# 3 -0.001382 -0.001287 0.009256 0.000000 0.000000 0.000000
# 4 0.000000 0.000000 0.000000 0.032261 0.000000 0.000000
# 5 0.000000 0.000000 0.000000 0.000000 0.025733 0.000000
# 6 0.000000 0.000000 0.000000 0.000000 0.000000 0.033799
#
#
# Mechanical properties :
#
#
# Convention : Reuss Voigt Hill
#
# Bulk Modulus (GPa) = 51.16580 52.68679 51.92630
# Shear Modulus (GPa) = 36.89035 38.60504 37.74769
#
# Velocity S-wave (km/s) = 3.78301 3.86993 3.82671
# Velocity P-wave (km/s) = 6.23944 6.35670 6.29834
#
# Compressibility (1/GPa) = 0.01954431
#
# Stress axis : x y z
#
# Youngs Moduli (GPa) = 127.56307 88.56177 108.04166
#
# Poissons Ratio (x) = 0.15511 0.14933
# Poissons Ratio (y) = 0.22342 0.13910
# Poissons Ratio (z) = 0.17631 0.11402
#
# Static dielectric constant tensor:
#      x y z
#    x 1.881230 0.000000 0.000000 
#    y 0.000000 1.964110 0.000000 
#    z 0.000000 0.000000 2.139000 
# 
# From -- ./inp_files/8560.got.cif
#   From: 2010.05.17/outbox.cif.g08.bks.cpg/sg61_5_cif.got.tgz:8560.got - 2010.06.03 15:17:17.
