data_PCOD9460263
_publ_section_title
;
Structure prediction by ZEFSAII (Michael W. Deem and Ramdas Pophale) SiO2 
 PCOD9460263
Probable space group: P B C A
;
_chemical_formula_sum "Si O2"
_cell_formula_units_Z 32
_cell_length_a 12.692093
_cell_length_b 9.947484
_cell_length_c 8.952815
_cell_angle_alpha 90.000000
_cell_angle_beta 90.000000
_cell_angle_gamma 90.000000
_cell_volume 1130.332215
_symmetry_space_group_name_H-M "P B C A"
_symmetry_group_IT_number 61
_symmetry_cell_setting 'orthorhombic'
loop_
_space_group_symop_operation_xyz
x,y,z
1/2-x,-y,1/2+z
1/2+x,1/2-y,-z
-x,1/2+y,1/2-z
-x,-y,-z
1/2+x,y,1/2-z
1/2-x,1/2+y,z
x,1/2-y,1/2+z
loop_
_atom_site_type_symbol
_atom_site_label
_atom_site_fract_x
_atom_site_fract_y
_atom_site_fract_z
Si Si1 0.472611 0.549881 0.742534
Si Si2 0.781868 0.737965 0.825176
Si Si3 0.123358 0.626478 0.486480
Si Si4 0.312362 0.005213 0.869054
O O1 0.392552 0.655442 0.664383
O O2 0.529523 0.612104 0.892670
O O3 0.563072 0.519423 0.623889
O O4 0.422866 0.414797 0.822024
O O5 0.696576 0.751775 0.959980
O O6 0.720250 0.632878 0.724498
O O7 0.802492 0.870822 0.732672
O O8 0.220107 0.517490 0.489725
#
# Coordination Sequence:
#
# PCOD9460263 Si02
#       4
#     8   8   8   8
#     4   9  20  39  60  88 120 155 196 241 294 354
#     4  10  22  40  62  90 120 155 201 244 292 356
#     4   9  20  39  62  84 122 157 190 249 298 337
#     4  10  22  40  62  90 120 155 201 244 292 356
#
# _framework density 28.31026
#
# number of rings (size 3 to 8) (size 9 to 14) (size 15 to 20)
#    0.000    2.500    0.000    0.000    0.000   19.000 
#    0.000    0.000    0.000    0.000    0.000    0.000 
#    0.000    0.000    0.000    0.000    0.000    0.000 
#
# Total GULP energy -178226.121958 kJ/mol
# GULP energy per Si atom -5569.566311 kJ/mol
# Density = 2.824582 g / cm^3
# Si number density = 28.310260 Si / 1000 Ang^3
#
#
#
# Elastic Constant Matrix: (Units=GPa)
#
#
# Indices 1 2 3 4 5 6 
#
# 1 198.3745 25.7844 38.1237 0.0000 0.0000 0.0000
# 2 25.7844 74.2901 0.9982 0.0000 0.0000 0.0000
# 3 38.1237 0.9982 66.8224 0.0000 0.0000 0.0000
# 4 0.0000 0.0000 0.0000 32.7181 0.0000 0.0000
# 5 0.0000 0.0000 0.0000 0.0000 66.6902 0.0000
# 6 0.0000 0.0000 0.0000 0.0000 0.0000 32.6740
#
#
#
# Elastic Compliance Matrix: (Units=1/GPa)
#
#
# Indices 1 2 3 4 5 6 
#
# 1 0.005950 -0.002020 -0.003364 0.000000 0.000000 0.000000
# 2 -0.002020 0.014149 0.000941 0.000000 0.000000 0.000000
# 3 -0.003364 0.000941 0.016871 0.000000 0.000000 0.000000
# 4 0.000000 0.000000 0.000000 0.030564 0.000000 0.000000
# 5 0.000000 0.000000 0.000000 0.000000 0.014995 0.000000
# 6 0.000000 0.000000 0.000000 0.000000 0.000000 0.030605
#
#
# Mechanical properties :
#
#
# Convention : Reuss Voigt Hill
#
# Bulk Modulus (GPa) = 35.60869 52.14439 43.87654
# Shear Modulus (GPa) = 38.05704 44.72184 41.38944
#
# Velocity S-wave (km/s) = 3.67043 3.97886 3.82775
# Velocity P-wave (km/s) = 5.52884 6.29026 5.92180
#
# Compressibility (1/GPa) = 0.02808303
#
# Stress axis : x y z
#
# Youngs Moduli (GPa) = 168.06416 70.67552 59.27502
#
# Poissons Ratio (x) = 0.14276 0.19943
# Poissons Ratio (y) = 0.33948 -0.05578
# Poissons Ratio (z) = 0.56545 -0.06651
#
# Static dielectric constant tensor:
#      x y z
#    x 2.305010 0.000000 0.000000 
#    y 0.000000 2.245150 0.000000 
#    z 0.000000 0.000000 2.442660 
# 
# From -- ./inp_files/5012.got.cif
#   From: 2010.05.17/outbox.cif.g08.bks.cpg/sg61_3_cif.got.tgz:5012.got - 2010.06.03 15:17:17.
