data_PCOD9460826
_publ_section_title
;
Structure prediction by ZEFSAII (Michael W. Deem and Ramdas Pophale) SiO2 
 PCOD9460826
Probable space group: P B C A
;
_chemical_formula_sum "Si O2"
_cell_formula_units_Z 32
_cell_length_a 8.165661
_cell_length_b 28.171127
_cell_length_c 4.691195
_cell_angle_alpha 90.000000
_cell_angle_beta 90.000000
_cell_angle_gamma 90.000000
_cell_volume 1079.143138
_symmetry_space_group_name_H-M "P B C A"
_symmetry_group_IT_number 61
_symmetry_cell_setting 'orthorhombic'
loop_
_space_group_symop_operation_xyz
x,y,z
1/2-x,-y,1/2+z
1/2+x,1/2-y,-z
-x,1/2+y,1/2-z
-x,-y,-z
1/2+x,y,1/2-z
1/2-x,1/2+y,z
x,1/2-y,1/2+z
loop_
_atom_site_type_symbol
_atom_site_label
_atom_site_fract_x
_atom_site_fract_y
_atom_site_fract_z
Si Si1 0.973349 0.784027 0.969565
Si Si2 0.211091 0.342746 0.075143
Si Si3 0.987838 0.404018 0.682437
Si Si4 0.232587 0.533389 0.947385
O O1 0.951761 0.736272 0.155827
O O2 0.158666 0.801864 0.994121
O O3 0.858656 0.823522 0.123767
O O4 0.338862 0.386325 0.017158
O O5 0.058617 0.361350 0.882601
O O6 0.925309 0.443627 0.904657
O O7 0.128565 0.426975 0.490749
O O8 0.286057 0.488019 0.137081
#
# Coordination Sequence:
#
# PCOD9460826 Si02
#       4
#     8   8   8   8
#     4  12  27  50  77 110 150 200 252 316 391 468
#     4  11  26  48  77 116 158 202 262 325 394 472
#     4  10  25  46  77 116 158 208 262 328 397 466
#     4  11  24  46  73 110 156 208 262 321 390 470
#
# _framework density 29.653157
#
# number of rings (size 3 to 8) (size 9 to 14) (size 15 to 20)
#    0.000    1.000    0.000    4.500    0.000   16.000 
#    0.000    0.000    0.000    0.000    0.000    0.000 
#    0.000    0.000    0.000    0.000    0.000    0.000 
#
# Total GULP energy -179672.092001 kJ/mol
# GULP energy per Si atom -5614.752875 kJ/mol
# Density = 2.958566 g / cm^3
# Si number density = 29.653157 Si / 1000 Ang^3
#
#
#
# Elastic Constant Matrix: (Units=GPa)
#
#
# Indices 1 2 3 4 5 6 
#
# 1 148.7426 44.7196 27.4871 0.0000 0.0000 0.0000
# 2 44.7196 192.0011 18.3622 0.0000 0.0000 0.0000
# 3 27.4871 18.3622 94.3514 0.0000 0.0000 0.0000
# 4 0.0000 0.0000 0.0000 58.6277 0.0000 0.0000
# 5 0.0000 0.0000 0.0000 0.0000 63.8825 0.0000
# 6 0.0000 0.0000 0.0000 0.0000 0.0000 74.2214
#
#
#
# Elastic Compliance Matrix: (Units=1/GPa)
#
#
# Indices 1 2 3 4 5 6 
#
# 1 0.007547 -0.001577 -0.001892 0.000000 0.000000 0.000000
# 2 -0.001577 0.005637 -0.000638 0.000000 0.000000 0.000000
# 3 -0.001892 -0.000638 0.011274 0.000000 0.000000 0.000000
# 4 0.000000 0.000000 0.000000 0.017057 0.000000 0.000000
# 5 0.000000 0.000000 0.000000 0.000000 0.015654 0.000000
# 6 0.000000 0.000000 0.000000 0.000000 0.000000 0.013473
#
#
# Mechanical properties :
#
#
# Convention : Reuss Voigt Hill
#
# Bulk Modulus (GPa) = 61.55770 68.47033 65.01401
# Shear Modulus (GPa) = 59.33456 62.31473 60.82464
#
# Velocity S-wave (km/s) = 4.47805 4.58913 4.53393
# Velocity P-wave (km/s) = 6.89504 7.15687 7.02717
#
# Compressibility (1/GPa) = 0.01624492
#
# Stress axis : x y z
#
# Youngs Moduli (GPa) = 132.50879 177.41387 88.70074
#
# Poissons Ratio (x) = 0.27975 0.16779
# Poissons Ratio (y) = 0.20894 0.05655
# Poissons Ratio (z) = 0.25066 0.11312
#
# Static dielectric constant tensor:
#      x y z
#    x 2.229800 0.000000 0.000000 
#    y 0.000000 2.449820 0.000000 
#    z 0.000000 0.000000 2.259080 
# 
# From -- ./inp_files/80.got.cif
#   From: 2010.05.17/outbox.cif.g08.bks.cpg/sg61_1_cif.got.tgz:80.got - 2010.06.03 15:17:17.
