data_PCOD9460920
_publ_section_title
;
Structure prediction by ZEFSAII (Michael W. Deem and Ramdas Pophale) SiO2 
 PCOD9460920
Probable space group: P B C A
;
_chemical_formula_sum "Si O2"
_cell_formula_units_Z 56
_cell_length_a 13.042189
_cell_length_b 19.140526
_cell_length_c 8.646584
_cell_angle_alpha 90.000000
_cell_angle_beta 90.000000
_cell_angle_gamma 90.000000
_cell_volume 2158.484443
_symmetry_space_group_name_H-M "P B C A"
_symmetry_group_IT_number 61
_symmetry_cell_setting 'orthorhombic'
loop_
_space_group_symop_operation_xyz
x,y,z
1/2-x,-y,1/2+z
1/2+x,1/2-y,-z
-x,1/2+y,1/2-z
-x,-y,-z
1/2+x,y,1/2-z
1/2-x,1/2+y,z
x,1/2-y,1/2+z
loop_
_atom_site_type_symbol
_atom_site_label
_atom_site_fract_x
_atom_site_fract_y
_atom_site_fract_z
Si Si1 0.834832 0.769607 0.763911
Si Si2 0.104957 0.486831 0.341982
Si Si3 0.191965 0.488711 0.993895
Si Si4 0.101202 0.639911 0.965479
Si Si5 0.049725 0.399792 0.766549
Si Si6 0.695934 0.786718 0.503586
Si Si7 0.988119 0.837245 0.142635
O O1 0.899261 0.835624 0.825918
O O2 0.743170 0.805730 0.667371
O O3 0.783666 0.711221 0.873137
O O4 0.910180 0.727667 0.649207
O O5 0.187708 0.516605 0.462108
O O6 0.067462 0.410162 0.384682
O O7 0.009719 0.538994 0.321494
O O8 0.159237 0.481040 0.172315
O O9 0.157973 0.566635 0.944828
O O10 0.130761 0.436483 0.882172
O O11 0.031449 0.656317 0.818262
O O12 0.177092 0.703907 0.983549
O O13 0.033906 0.633706 0.118974
O O14 0.589597 0.822053 0.458496
#
# Coordination Sequence:
#
# PCOD9460920 Si02
#       7
#     8   8   8   8   8   8   8
#     4  12  28  44  73 110 147 195 245 311 375 435
#     4  11  25  47  76 109 144 202 239 306 368 442
#     4  11  24  44  77 102 149 191 249 297 371 443
#     4  11  21  48  71 106 140 197 238 304 367 437
#     4  11  23  46  71 104 151 193 242 305 374 431
#     4  12  27  46  73 111 147 194 254 302 370 447
#     4  12  24  48  78 103 152 194 250 299 371 447
#
# _framework density 25.944130000000001
#
# number of rings (size 3 to 8) (size 9 to 14) (size 15 to 20)
#    0.000    0.571    5.714    2.571    4.000    0.000 
#    0.000    2.143    0.000    0.000    0.000    0.000 
#    0.000    0.000    0.000    0.000    0.000    0.000 
#
# Total GULP energy -314328.437003 kJ/mol
# GULP energy per Si atom -5613.007804 kJ/mol
# Density = 2.588508 g / cm^3
# Si number density = 25.944130 Si / 1000 Ang^3
#
#
#
# Elastic Constant Matrix: (Units=GPa)
#
#
# Indices 1 2 3 4 5 6 
#
# 1 126.9603 38.5464 42.4421 0.0000 0.0000 0.0000
# 2 38.5464 111.8121 18.4969 0.0000 0.0000 0.0000
# 3 42.4421 18.4969 85.2620 0.0000 0.0000 0.0000
# 4 0.0000 0.0000 0.0000 36.1106 0.0000 0.0000
# 5 0.0000 0.0000 0.0000 0.0000 37.6018 0.0000
# 6 0.0000 0.0000 0.0000 0.0000 0.0000 57.6750
#
#
#
# Elastic Compliance Matrix: (Units=1/GPa)
#
#
# Indices 1 2 3 4 5 6 
#
# 1 0.010220 -0.002781 -0.004484 0.000000 0.000000 0.000000
# 2 -0.002781 0.010034 -0.000792 0.000000 0.000000 0.000000
# 3 -0.004484 -0.000792 0.014132 0.000000 0.000000 0.000000
# 4 0.000000 0.000000 0.000000 0.027693 0.000000 0.000000
# 5 0.000000 0.000000 0.000000 0.000000 0.026594 0.000000
# 6 0.000000 0.000000 0.000000 0.000000 0.000000 0.017339
#
#
# Mechanical properties :
#
#
# Convention : Reuss Voigt Hill
#
# Bulk Modulus (GPa) = 54.73197 58.11169 56.42183
# Shear Modulus (GPa) = 38.99648 41.24743 40.12195
#
# Velocity S-wave (km/s) = 3.88118 3.99163 3.93679
# Velocity P-wave (km/s) = 6.42080 6.60995 6.51606
#
# Compressibility (1/GPa) = 0.01827086
#
# Stress axis : x y z
#
# Youngs Moduli (GPa) = 97.84844 99.66611 70.75937
#
# Poissons Ratio (x) = 0.27722 0.31728
# Poissons Ratio (y) = 0.27216 0.05605
# Poissons Ratio (z) = 0.43874 0.07895
#
# Static dielectric constant tensor:
#      x y z
#    x 2.003500 0.000000 0.000000 
#    y 0.000000 1.950660 0.000000 
#    z 0.000000 0.000000 2.080270 
# 
# From -- ./inp_files/5349.got.cif
#   From: 2010.05.17/outbox.cif.g08.bks.cpg/sg61_3_cif.got.tgz:5349.got - 2010.06.03 15:17:17.
