data_PCOD9460030
_publ_section_title
;
Structure prediction by ZEFSAII (Michael W. Deem and Ramdas Pophale) SiO2 
 PCOD9460030
Probable space group: P B C A
;
_chemical_formula_sum "Si O2"
_cell_formula_units_Z 64
_cell_length_a 8.822237
_cell_length_b 19.713820
_cell_length_c 14.914195
_cell_angle_alpha 90.000000
_cell_angle_beta 90.000000
_cell_angle_gamma 90.000000
_cell_volume 2593.876678
_symmetry_space_group_name_H-M "P B C A"
_symmetry_group_IT_number 61
_symmetry_cell_setting 'orthorhombic'
loop_
_space_group_symop_operation_xyz
x,y,z
1/2-x,-y,1/2+z
1/2+x,1/2-y,-z
-x,1/2+y,1/2-z
-x,-y,-z
1/2+x,y,1/2-z
1/2-x,1/2+y,z
x,1/2-y,1/2+z
loop_
_atom_site_type_symbol
_atom_site_label
_atom_site_fract_x
_atom_site_fract_y
_atom_site_fract_z
Si Si1 0.483692 0.202989 0.679430
Si Si2 0.729807 0.055716 0.250111
Si Si3 0.275750 0.494155 0.075159
Si Si4 0.416686 0.082378 0.427431
Si Si5 0.028667 0.857926 0.683350
Si Si6 0.853444 0.664403 0.857363
Si Si7 0.619139 0.200987 0.480930
Si Si8 0.076036 0.889453 0.496834
O O1 0.474105 0.281130 0.713185
O O2 0.576198 0.168026 0.758018
O O3 0.560055 0.209131 0.582227
O O4 0.325402 0.165065 0.664457
O O5 0.752203 0.992788 0.317535
O O6 0.813535 0.057392 0.154987
O O7 0.561699 0.082586 0.233365
O O8 0.799688 0.117827 0.307379
O O9 0.432168 0.536845 0.070427
O O10 0.318347 0.429130 0.017072
O O11 0.149058 0.537924 0.022758
O O12 0.489020 0.156864 0.429987
O O13 0.977223 0.865150 0.581408
O O14 0.968819 0.613359 0.910379
O O15 0.863776 0.731728 0.921479
O O16 0.779982 0.162283 0.498574
#
# Coordination Sequence:
#
# PCOD9460030 Si02
#       8
#     8   8   8   8   8   8   8   8
#     4  12  25  37  65  93 134 177 211 266 333 401
#     4  11  21  37  67  98 120 169 221 275 325 387
#     4   9  21  43  65  95 128 169 226 275 335 382
#     4  10  21  40  68  91 129 173 215 279 333 395
#     4  11  21  37  61  95 129 162 215 271 313 386
#     4  12  23  41  60  96 130 175 215 266 332 402
#     4  11  22  42  63  97 127 173 219 265 341 390
#     4  10  22  41  62  89 130 167 215 277 318 387
#
# _framework density 24.673493000000001
#
# number of rings (size 3 to 8) (size 9 to 14) (size 15 to 20)
#    0.000    1.250    3.750    2.250    3.500    1.000 
#    2.250    2.500    0.000    0.000    0.000    0.000 
#    0.000    0.000    0.000    0.000    0.000    0.000 
#
# Total GULP energy -357350.807989 kJ/mol
# GULP energy per Si atom -5583.606375 kJ/mol
# Density = 2.461734 g / cm^3
# Si number density = 24.673493 Si / 1000 Ang^3
#
#
#
# Elastic Constant Matrix: (Units=GPa)
#
#
# Indices 1 2 3 4 5 6 
#
# 1 125.9850 28.9815 54.8142 0.0000 0.0000 0.0000
# 2 28.9815 48.3941 12.7345 0.0000 0.0000 0.0000
# 3 54.8142 12.7345 151.6480 0.0000 0.0000 0.0000
# 4 0.0000 0.0000 0.0000 30.7985 0.0000 0.0000
# 5 0.0000 0.0000 0.0000 0.0000 48.4028 0.0000
# 6 0.0000 0.0000 0.0000 0.0000 0.0000 20.9909
#
#
#
# Elastic Compliance Matrix: (Units=1/GPa)
#
#
# Indices 1 2 3 4 5 6 
#
# 1 0.010682 -0.005503 -0.003399 0.000000 0.000000 0.000000
# 2 -0.005503 0.023965 -0.000023 0.000000 0.000000 0.000000
# 3 -0.003399 -0.000023 0.007825 0.000000 0.000000 0.000000
# 4 0.000000 0.000000 0.000000 0.032469 0.000000 0.000000
# 5 0.000000 0.000000 0.000000 0.000000 0.020660 0.000000
# 6 0.000000 0.000000 0.000000 0.000000 0.000000 0.047640
#
#
# Mechanical properties :
#
#
# Convention : Reuss Voigt Hill
#
# Bulk Modulus (GPa) = 40.61455 57.67639 49.14547
# Shear Modulus (GPa) = 29.53357 35.33823 32.43590
#
# Velocity S-wave (km/s) = 3.46349 3.78859 3.62968
# Velocity P-wave (km/s) = 5.70008 6.52415 6.12598
#
# Compressibility (1/GPa) = 0.02462172
#
# Stress axis : x y z
#
# Youngs Moduli (GPa) = 93.61381 41.72708 127.79877
#
# Poissons Ratio (x) = 0.22961 0.43440
# Poissons Ratio (y) = 0.51513 0.00300
# Poissons Ratio (z) = 0.31820 0.00098
#
# Static dielectric constant tensor:
#      x y z
#    x 1.939540 0.000000 0.000000 
#    y 0.000000 2.060350 0.000000 
#    z 0.000000 0.000000 2.078840 
# 
# From -- ./inp_files/7240.got.cif
#   From: 2010.05.17/outbox.cif.g08.bks.cpg/sg61_4_cif.got.tgz:7240.got - 2010.06.03 15:17:17.
