data_PCOD9460152
_publ_section_title
;
Structure prediction by ZEFSAII (Michael W. Deem and Ramdas Pophale) SiO2 
 PCOD9460152
Probable space group: P B C A
;
_chemical_formula_sum "Si O2"
_cell_formula_units_Z 52
_cell_length_a 17.179217
_cell_length_b 13.015005
_cell_length_c 9.835089
_cell_angle_alpha 90.000000
_cell_angle_beta 90.000000
_cell_angle_gamma 90.000000
_cell_volume 2199.003898
_symmetry_space_group_name_H-M "P B C A"
_symmetry_group_IT_number 61
_symmetry_cell_setting 'orthorhombic'
loop_
_space_group_symop_operation_xyz
x,y,z
1/2-x,-y,1/2+z
1/2+x,1/2-y,-z
-x,1/2+y,1/2-z
-x,-y,-z
1/2+x,y,1/2-z
1/2-x,1/2+y,z
x,1/2-y,1/2+z
loop_
_atom_site_type_symbol
_atom_site_label
_atom_site_fract_x
_atom_site_fract_y
_atom_site_fract_z
Si Si1 0.856575 0.435528 0.150359
Si Si2 0.477966 0.368251 0.913971
Si Si3 0.700634 0.332340 0.647957
Si Si4 0.628797 0.993735 0.435197
Si Si5 0.753832 0.175297 0.438981
Si Si6 0.000000 0.000000 0.500000
Si Si7 0.026186 0.219272 0.350712
O O1 0.815767 0.547366 0.127214
O O2 0.844118 0.421183 0.310983
O O3 0.946544 0.449687 0.119360
O O4 0.824695 0.360877 0.033652
O O5 0.549011 0.448027 0.891110
O O6 0.478139 0.292144 0.787566
O O7 0.397297 0.427966 0.935547
O O8 0.499544 0.311143 0.053453
O O9 0.725518 0.279508 0.508790
O O10 0.758037 0.316666 0.776140
O O11 0.618112 0.277935 0.686210
O O12 0.689934 0.084186 0.459585
O O13 0.014869 0.114752 0.434222
#
# Coordination Sequence:
#
# PCOD9460152 Si02
#       7
#     8   8   8   8   8   4   8
#     4  10  23  45  65  94 140 176 229 288 341 415
#     4  11  22  40  69  97 139 176 229 284 334 408
#     4  10  21  44  66  97 129 174 236 262 345 417
#     4  10  22  44  63 101 132 177 234 280 337 412
#     4  11  22  45  70  94 136 182 223 292 337 411
#     4  10  22  44  64  98 134 174 234 274 344 406
#     4  11  21  41  68  99 133 181 223 281 336 407
#
# _framework density 23.647071
#
# number of rings (size 3 to 8) (size 9 to 14) (size 15 to 20)
#    0.000    1.538    6.154    0.000    2.154    2.462 
#   16.615    0.000    0.000    0.000    0.000    0.000 
#    0.000    0.000    0.000    0.000    0.000    0.000 
#
# Total GULP energy -289563.432437 kJ/mol
# GULP energy per Si atom -5568.527547 kJ/mol
# Density = 2.359325 g / cm^3
# Si number density = 23.647071 Si / 1000 Ang^3
#
#
#
# Elastic Constant Matrix: (Units=GPa)
#
#
# Indices 1 2 3 4 5 6 
#
# 1 27.6522 3.3456 19.3826 0.0000 0.0000 0.0000
# 2 3.3456 42.5345 29.6901 0.0000 0.0000 0.0000
# 3 19.3826 29.6901 122.2388 0.0000 0.0000 0.0000
# 4 0.0000 0.0000 0.0000 45.0164 0.0000 0.0000
# 5 0.0000 0.0000 0.0000 0.0000 35.6892 0.0000
# 6 0.0000 0.0000 0.0000 0.0000 0.0000 32.7064
#
#
#
# Elastic Compliance Matrix: (Units=1/GPa)
#
#
# Indices 1 2 3 4 5 6 
#
# 1 0.040772 0.001572 -0.006847 0.000000 0.000000 0.000000
# 2 0.001572 0.028371 -0.007140 0.000000 0.000000 0.000000
# 3 -0.006847 -0.007140 0.011001 0.000000 0.000000 0.000000
# 4 0.000000 0.000000 0.000000 0.022214 0.000000 0.000000
# 5 0.000000 0.000000 0.000000 0.000000 0.028020 0.000000
# 6 0.000000 0.000000 0.000000 0.000000 0.000000 0.030575
#
#
# Mechanical properties :
#
#
# Convention : Reuss Voigt Hill
#
# Bulk Modulus (GPa) = 18.07854 33.02912 25.55383
# Shear Modulus (GPa) = 24.48338 32.01622 28.24980
#
# Velocity S-wave (km/s) = 3.22120 3.68356 3.46011
# Velocity P-wave (km/s) = 4.63644 5.66474 5.17619
#
# Compressibility (1/GPa) = 0.05531422
#
# Stress axis : x y z
#
# Youngs Moduli (GPa) = 24.52636 35.24768 90.90401
#
# Poissons Ratio (x) = -0.05542 0.62241
# Poissons Ratio (y) = -0.03856 0.64907
# Poissons Ratio (z) = 0.16793 0.25167
#
# Static dielectric constant tensor:
#      x y z
#    x 1.947290 0.000000 0.000000 
#    y 0.000000 1.900640 0.000000 
#    z 0.000000 0.000000 1.874030 
# 
# From -- ./inp_files/3887.got.cif
#   From: 2010.05.17/outbox.cif.g08.bks.cpg/sg61_2_cif.got.tgz:3887.got - 2010.06.03 15:17:17.
