data_PCOD9460910
_publ_section_title
;
Structure prediction by ZEFSAII (Michael W. Deem and Ramdas Pophale) SiO2 
 PCOD9460910
Probable space group: P B C A
;
_chemical_formula_sum "Si O2"
_cell_formula_units_Z 64
_cell_length_a 18.889771
_cell_length_b 11.696887
_cell_length_c 13.735559
_cell_angle_alpha 90.000000
_cell_angle_beta 90.000000
_cell_angle_gamma 90.000000
_cell_volume 3034.892596
_symmetry_space_group_name_H-M "P B C A"
_symmetry_group_IT_number 61
_symmetry_cell_setting 'orthorhombic'
loop_
_space_group_symop_operation_xyz
x,y,z
1/2-x,-y,1/2+z
1/2+x,1/2-y,-z
-x,1/2+y,1/2-z
-x,-y,-z
1/2+x,y,1/2-z
1/2-x,1/2+y,z
x,1/2-y,1/2+z
loop_
_atom_site_type_symbol
_atom_site_label
_atom_site_fract_x
_atom_site_fract_y
_atom_site_fract_z
Si Si1 0.445732 0.062638 0.073978
Si Si2 0.184498 0.717758 0.998585
Si Si3 0.972035 0.314138 0.740276
Si Si4 0.144262 0.916187 0.121236
Si Si5 0.302421 0.666216 0.157164
Si Si6 0.509666 0.465813 0.113384
Si Si7 0.587659 0.137627 0.779304
Si Si8 0.809821 0.252208 0.719185
O O1 0.382403 0.136400 0.025322
O O2 0.486910 0.146927 0.148571
O O3 0.410976 0.968334 0.146377
O O4 0.500000 0.000000 0.000000
O O5 0.163367 0.849413 0.022465
O O6 0.251837 0.691936 0.065627
O O7 0.203536 0.706623 0.887149
O O8 0.996044 0.417769 0.672932
O O9 0.888513 0.301398 0.726414
O O10 0.014185 0.204622 0.703909
O O11 0.189035 0.851379 0.203718
O O12 0.061185 0.894628 0.136511
O O13 0.158025 0.049866 0.130410
O O14 0.352769 0.770143 0.191943
O O15 0.246911 0.655112 0.246018
O O16 0.577276 0.404353 0.166091
O O17 0.500000 0.500000 0.000000
#
# Coordination Sequence:
#
# PCOD9460910 Si02
#       8
#     8   8   8   8   8   8   8   8
#     4  11  24  42  74 102 136 182 239 295 358 428
#     4  11  25  44  71 101 139 189 239 294 359 438
#     4  11  21  43  66 100 138 178 228 295 349 412
#     4  11  23  45  68  97 146 178 232 301 357 426
#     4  11  26  45  67 103 143 189 232 297 362 431
#     4  11  23  39  68 102 136 182 233 291 354 422
#     4  11  24  43  69 100 144 178 235 298 356 428
#     4  11  24  45  71  96 136 188 234 282 363 424
#
# _framework density 21.088061
#
# number of rings (size 3 to 8) (size 9 to 14) (size 15 to 20)
#    0.000    1.000    5.000    1.500    5.250    3.000 
#    2.250    0.000    0.000    0.000    0.000    0.000 
#    0.000    0.000    0.000    0.000    0.000    0.000 
#
# Total GULP energy -356978.401933 kJ/mol
# GULP energy per Si atom -5577.787530 kJ/mol
# Density = 2.104006 g / cm^3
# Si number density = 21.088061 Si / 1000 Ang^3
#
#
#
# Elastic Constant Matrix: (Units=GPa)
#
#
# Indices 1 2 3 4 5 6 
#
# 1 91.6923 18.9874 24.5446 0.0000 0.0000 0.0000
# 2 18.9874 85.7488 17.6377 0.0000 0.0000 0.0000
# 3 24.5446 17.6377 121.8669 0.0000 0.0000 0.0000
# 4 0.0000 0.0000 0.0000 23.8646 0.0000 0.0000
# 5 0.0000 0.0000 0.0000 0.0000 23.8365 0.0000
# 6 0.0000 0.0000 0.0000 0.0000 0.0000 36.6640
#
#
#
# Elastic Compliance Matrix: (Units=1/GPa)
#
#
# Indices 1 2 3 4 5 6 
#
# 1 0.011921 -0.002212 -0.002081 0.000000 0.000000 0.000000
# 2 -0.002212 0.012430 -0.001354 0.000000 0.000000 0.000000
# 3 -0.002081 -0.001354 0.008821 0.000000 0.000000 0.000000
# 4 0.000000 0.000000 0.000000 0.041903 0.000000 0.000000
# 5 0.000000 0.000000 0.000000 0.000000 0.041952 0.000000
# 6 0.000000 0.000000 0.000000 0.000000 0.000000 0.027275
#
#
# Mechanical properties :
#
#
# Convention : Reuss Voigt Hill
#
# Bulk Modulus (GPa) = 45.70459 46.84971 46.27715
# Shear Modulus (GPa) = 30.69604 32.74891 31.72248
#
# Velocity S-wave (km/s) = 3.81939 3.94504 3.88272
# Velocity P-wave (km/s) = 6.41643 6.55862 6.48792
#
# Compressibility (1/GPa) = 0.02187964
#
# Stress axis : x y z
#
# Youngs Moduli (GPa) = 83.88521 80.44983 113.37003
#
# Poissons Ratio (x) = 0.17793 0.23591
# Poissons Ratio (y) = 0.18553 0.15345
# Poissons Ratio (z) = 0.17455 0.10889
#
# Static dielectric constant tensor:
#      x y z
#    x 1.748520 0.000000 0.000000 
#    y 0.000000 1.491700 0.000000 
#    z 0.000000 0.000000 1.817360 
# 
# From -- ./inp_files/8194.got.cif
#   From: 2010.05.17/outbox.cif.g08.bks.cpg/sg61_5_cif.got.tgz:8194.got - 2010.06.03 15:17:17.
