data_PCOD9460813
_publ_section_title
;
Structure prediction by ZEFSAII (Michael W. Deem and Ramdas Pophale) SiO2 
 PCOD9460813
Probable space group: P B C A
;
_chemical_formula_sum "Si O2"
_cell_formula_units_Z 24
_cell_length_a 13.230064
_cell_length_b 8.843973
_cell_length_c 8.380814
_cell_angle_alpha 90.000000
_cell_angle_beta 90.000000
_cell_angle_gamma 90.000000
_cell_volume 980.608279
_symmetry_space_group_name_H-M "P B C A"
_symmetry_group_IT_number 61
_symmetry_cell_setting 'orthorhombic'
loop_
_space_group_symop_operation_xyz
x,y,z
1/2-x,-y,1/2+z
1/2+x,1/2-y,-z
-x,1/2+y,1/2-z
-x,-y,-z
1/2+x,y,1/2-z
1/2-x,1/2+y,z
x,1/2-y,1/2+z
loop_
_atom_site_type_symbol
_atom_site_label
_atom_site_fract_x
_atom_site_fract_y
_atom_site_fract_z
Si Si1 0.814177 0.414048 0.028705
Si Si2 0.929113 0.261708 0.766455
Si Si3 0.114153 0.066280 0.171707
O O1 0.894403 0.392862 0.885907
O O2 0.704124 0.415175 0.953019
O O3 0.838299 0.271592 0.143216
O O4 0.840123 0.549359 0.148678
O O5 0.937854 0.098283 0.851593
O O6 0.031406 0.304348 0.678503
#
# Coordination Sequence:
#
# PCOD9460813 Si02
#       3
#     8   8   8
#     4  10  25  44  76 111 152 203 248 318 381 450
#     4  10  25  46  77 108 151 203 252 315 380 460
#     4  10  25  49  76 110 157 196 258 311 385 451
#
# _framework density 24.474605
#
# number of rings (size 3 to 8) (size 9 to 14) (size 15 to 20)
#    2.000    0.000    0.000    1.000    4.667    6.667 
#    0.000    0.000    0.000    0.000    0.000    0.000 
#    0.000    0.000    0.000    0.000    0.000    0.000 
#
# Total GULP energy -134035.909132 kJ/mol
# GULP energy per Si atom -5584.829547 kJ/mol
# Density = 2.441890 g / cm^3
# Si number density = 24.474605 Si / 1000 Ang^3
#
#
#
# Elastic Constant Matrix: (Units=GPa)
#
#
# Indices 1 2 3 4 5 6 
#
# 1 117.2033 65.0701 44.9921 0.0000 0.0000 0.0000
# 2 65.0701 62.7814 23.1406 0.0000 0.0000 0.0000
# 3 44.9921 23.1406 99.6709 0.0000 0.0000 0.0000
# 4 0.0000 0.0000 0.0000 27.2597 0.0000 0.0000
# 5 0.0000 0.0000 0.0000 0.0000 38.6643 0.0000
# 6 0.0000 0.0000 0.0000 0.0000 0.0000 29.0916
#
#
#
# Elastic Compliance Matrix: (Units=1/GPa)
#
#
# Indices 1 2 3 4 5 6 
#
# 1 0.022262 -0.021183 -0.005131 0.000000 0.000000 0.000000
# 2 -0.021183 0.037574 0.000838 0.000000 0.000000 0.000000
# 3 -0.005131 0.000838 0.012155 0.000000 0.000000 0.000000
# 4 0.000000 0.000000 0.000000 0.036684 0.000000 0.000000
# 5 0.000000 0.000000 0.000000 0.000000 0.025864 0.000000
# 6 0.000000 0.000000 0.000000 0.000000 0.000000 0.034374
#
#
# Mechanical properties :
#
#
# Convention : Reuss Voigt Hill
#
# Bulk Modulus (GPa) = 47.52871 60.67346 54.10109
# Shear Modulus (GPa) = 22.03832 28.76665 25.40248
#
# Velocity S-wave (km/s) = 3.00402 3.43208 3.22516
# Velocity P-wave (km/s) = 5.61194 6.36787 6.00182
#
# Compressibility (1/GPa) = 0.02103991
#
# Stress axis : x y z
#
# Youngs Moduli (GPa) = 44.91888 26.61415 82.27250
#
# Poissons Ratio (x) = 0.56376 0.42217
# Poissons Ratio (y) = 0.95150 -0.06897
# Poissons Ratio (z) = 0.23050 -0.02231
#
# Static dielectric constant tensor:
#      x y z
#    x 1.882490 0.000000 0.000000 
#    y 0.000000 1.987800 0.000000 
#    z 0.000000 0.000000 2.022210 
# 
# From -- ./inp_files/1571.got.cif
#   From: 2010.05.17/outbox.cif.g08.bks.cpg/sg61_1_cif.got.tgz:1571.got - 2010.06.03 15:17:17.
