data_PCOD9460685
_publ_section_title
;
Structure prediction by ZEFSAII (Michael W. Deem and Ramdas Pophale) SiO2 
 PCOD9460685
Probable space group: P B C A
;
_chemical_formula_sum "Si O2"
_cell_formula_units_Z 44
_cell_length_a 9.984122
_cell_length_b 12.502856
_cell_length_c 13.651347
_cell_angle_alpha 90.000000
_cell_angle_beta 90.000000
_cell_angle_gamma 90.000000
_cell_volume 1704.098187
_symmetry_space_group_name_H-M "P B C A"
_symmetry_group_IT_number 61
_symmetry_cell_setting 'orthorhombic'
loop_
_space_group_symop_operation_xyz
x,y,z
1/2-x,-y,1/2+z
1/2+x,1/2-y,-z
-x,1/2+y,1/2-z
-x,-y,-z
1/2+x,y,1/2-z
1/2-x,1/2+y,z
x,1/2-y,1/2+z
loop_
_atom_site_type_symbol
_atom_site_label
_atom_site_fract_x
_atom_site_fract_y
_atom_site_fract_z
Si Si1 0.938679 0.788941 0.879493
Si Si2 0.924875 0.669093 0.158064
Si Si3 0.800022 0.969131 0.999900
Si Si4 0.808405 0.163504 0.663110
Si Si5 0.844921 0.331214 0.382434
Si Si6 0.000000 0.500000 0.000000
O O1 0.965980 0.838250 0.771838
O O2 0.800455 0.723014 0.884442
O O3 0.054931 0.698305 0.893572
O O4 0.899553 0.887575 0.946673
O O5 0.781568 0.729160 0.162662
O O6 0.032756 0.750065 0.111786
O O7 0.925556 0.565684 0.090476
O O8 0.783248 0.922948 0.108772
O O9 0.648905 0.965621 0.956747
O O10 0.152160 0.914297 0.029875
O O11 0.849475 0.124345 0.770873
#
# Coordination Sequence:
#
# PCOD9460685 Si02
#       6
#     8   8   8   8   8   4
#     4  10  23  49  75 107 153 199 250 319 388 462
#     4  10  24  49  75 107 152 198 249 316 391 461
#     4  12  26  42  80 111 148 198 265 317 382 469
#     4  10  25  47  74 109 151 199 248 316 384 458
#     4  10  23  50  73 105 152 197 252 314 385 457
#     4  12  26  44  78 110 142 202 260 318 382 474
#
# _framework density 25.820108999999999
#
# number of rings (size 3 to 8) (size 9 to 14) (size 15 to 20)
#    0.000    1.455    1.818    1.091    7.636    0.727 
#    3.273    0.000    0.000    0.000    0.000    0.000 
#    0.000    0.000    0.000    0.000    0.000    0.000 
#
# Total GULP energy -245363.925928 kJ/mol
# GULP energy per Si atom -5576.452862 kJ/mol
# Density = 2.576134 g / cm^3
# Si number density = 25.820109 Si / 1000 Ang^3
#
#
#
# Elastic Constant Matrix: (Units=GPa)
#
#
# Indices 1 2 3 4 5 6 
#
# 1 165.1261 16.7759 12.4515 0.0000 0.0000 0.0000
# 2 16.7759 69.8584 37.1130 0.0000 0.0000 0.0000
# 3 12.4515 37.1130 78.1570 0.0000 0.0000 0.0000
# 4 0.0000 0.0000 0.0000 45.7523 0.0000 0.0000
# 5 0.0000 0.0000 0.0000 0.0000 27.5649 0.0000
# 6 0.0000 0.0000 0.0000 0.0000 0.0000 46.8002
#
#
#
# Elastic Compliance Matrix: (Units=1/GPa)
#
#
# Indices 1 2 3 4 5 6 
#
# 1 0.006216 -0.001293 -0.000376 0.000000 0.000000 0.000000
# 2 -0.001293 0.019413 -0.009012 0.000000 0.000000 0.000000
# 3 -0.000376 -0.009012 0.017134 0.000000 0.000000 0.000000
# 4 0.000000 0.000000 0.000000 0.021857 0.000000 0.000000
# 5 0.000000 0.000000 0.000000 0.000000 0.036278 0.000000
# 6 0.000000 0.000000 0.000000 0.000000 0.000000 0.021367
#
#
# Mechanical properties :
#
#
# Convention : Reuss Voigt Hill
#
# Bulk Modulus (GPa) = 46.72882 49.53580 48.13231
# Shear Modulus (GPa) = 33.16496 40.47688 36.82092
#
# Velocity S-wave (km/s) = 3.58783 3.96365 3.78041
# Velocity P-wave (km/s) = 5.94142 6.33829 6.14306
#
# Compressibility (1/GPa) = 0.02140007
#
# Stress axis : x y z
#
# Youngs Moduli (GPa) = 160.88317 51.51189 58.36259
#
# Poissons Ratio (x) = 0.06659 0.02197
# Poissons Ratio (y) = 0.20797 0.52598
# Poissons Ratio (z) = 0.06056 0.46424
#
# Static dielectric constant tensor:
#      x y z
#    x 2.041320 0.000000 0.000000 
#    y 0.000000 4.326470 0.000000 
#    z 0.000000 0.000000 2.122450 
# 
# From -- ./inp_files/7003.got.cif
#   From: 2010.05.17/outbox.cif.g08.bks.cpg/sg61_4_cif.got.tgz:7003.got - 2010.06.03 15:17:17.
