data_PCOD9460963
_publ_section_title
;
Structure prediction by ZEFSAII (Michael W. Deem and Ramdas Pophale) SiO2 
 PCOD9460963
Probable space group: P B C A
;
_chemical_formula_sum "Si O2"
_cell_formula_units_Z 48
_cell_length_a 22.397936
_cell_length_b 8.449284
_cell_length_c 10.650212
_cell_angle_alpha 90.000000
_cell_angle_beta 90.000000
_cell_angle_gamma 90.000000
_cell_volume 2015.515583
_symmetry_space_group_name_H-M "P B C A"
_symmetry_group_IT_number 61
_symmetry_cell_setting 'orthorhombic'
loop_
_space_group_symop_operation_xyz
x,y,z
1/2-x,-y,1/2+z
1/2+x,1/2-y,-z
-x,1/2+y,1/2-z
-x,-y,-z
1/2+x,y,1/2-z
1/2-x,1/2+y,z
x,1/2-y,1/2+z
loop_
_atom_site_type_symbol
_atom_site_label
_atom_site_fract_x
_atom_site_fract_y
_atom_site_fract_z
Si Si1 0.944428 0.924941 0.339126
Si Si2 0.770082 0.025666 0.124345
Si Si3 0.716707 0.234687 0.452997
Si Si4 0.052355 0.331105 0.881821
Si Si5 0.654493 0.474571 0.768658
Si Si6 0.657506 0.684886 0.320017
O O1 0.949081 0.817429 0.466349
O O2 0.948472 0.821393 0.211032
O O3 0.886392 0.039645 0.347777
O O4 0.998602 0.050907 0.344824
O O5 0.721518 0.979740 0.227285
O O6 0.817566 0.147384 0.179700
O O7 0.731149 0.098260 0.012354
O O8 0.800862 0.871177 0.072678
O O9 0.667762 0.181246 0.352524
O O10 0.782386 0.191069 0.401250
O O11 0.112250 0.424624 0.843326
O O12 0.630372 0.637771 0.829221
#
# Coordination Sequence:
#
# PCOD9460963 Si02
#       6
#     8   8   8   8   8   8
#     4  11  27  50  76 104 147 184 250 301 372 437
#     4  11  23  39  62  97 141 189 232 290 348 429
#     4  11  23  39  61  97 142 187 234 287 351 422
#     4  11  27  49  75 107 139 192 239 313 361 441
#     4  11  24  39  68  98 140 188 237 291 360 422
#     4  11  24  42  64 101 139 190 237 295 358 431
#
# _framework density 23.815245999999998
#
# number of rings (size 3 to 8) (size 9 to 14) (size 15 to 20)
#    0.000    1.000    3.333    2.000    7.000    0.667 
#    0.000    0.000    0.000    0.000    0.000    0.000 
#    0.000    0.000    0.000    0.000    0.000    0.000 
#
# Total GULP energy -267937.576730 kJ/mol
# GULP energy per Si atom -5582.032849 kJ/mol
# Density = 2.376104 g / cm^3
# Si number density = 23.815246 Si / 1000 Ang^3
#
#
#
# Elastic Constant Matrix: (Units=GPa)
#
#
# Indices 1 2 3 4 5 6 
#
# 1 84.9875 19.1207 26.0300 0.0000 0.0000 0.0000
# 2 19.1207 116.1543 50.3242 0.0000 0.0000 0.0000
# 3 26.0300 50.3242 94.3381 0.0000 0.0000 0.0000
# 4 0.0000 0.0000 0.0000 47.5159 0.0000 0.0000
# 5 0.0000 0.0000 0.0000 0.0000 32.2178 0.0000
# 6 0.0000 0.0000 0.0000 0.0000 0.0000 26.5536
#
#
#
# Elastic Compliance Matrix: (Units=1/GPa)
#
#
# Indices 1 2 3 4 5 6 
#
# 1 0.012904 -0.000756 -0.003157 0.000000 0.000000 0.000000
# 2 -0.000756 0.011241 -0.005788 0.000000 0.000000 0.000000
# 3 -0.003157 -0.005788 0.014559 0.000000 0.000000 0.000000
# 4 0.000000 0.000000 0.000000 0.021046 0.000000 0.000000
# 5 0.000000 0.000000 0.000000 0.000000 0.031039 0.000000
# 6 0.000000 0.000000 0.000000 0.000000 0.000000 0.037660
#
#
# Mechanical properties :
#
#
# Convention : Reuss Voigt Hill
#
# Bulk Modulus (GPa) = 51.81013 54.04773 52.92893
# Shear Modulus (GPa) = 32.40779 34.59112 33.49945
#
# Velocity S-wave (km/s) = 3.69290 3.81527 3.75459
# Velocity P-wave (km/s) = 6.32342 6.49248 6.40851
#
# Compressibility (1/GPa) = 0.01930124
#
# Stress axis : x y z
#
# Youngs Moduli (GPa) = 77.49833 88.95683 68.68704
#
# Poissons Ratio (x) = 0.06728 0.21684
# Poissons Ratio (y) = 0.05862 0.39756
# Poissons Ratio (z) = 0.24465 0.51488
#
# Static dielectric constant tensor:
#      x y z
#    x 1.891760 0.000000 0.000000 
#    y 0.000000 1.973850 0.000000 
#    z 0.000000 0.000000 1.960870 
# 
# From -- ./inp_files/6583.got.cif
#   From: 2010.05.17/outbox.cif.g08.bks.cpg/sg61_4_cif.got.tgz:6583.got - 2010.06.03 15:17:17.
