data_PCOD9460326
_publ_section_title
;
Structure prediction by ZEFSAII (Michael W. Deem and Ramdas Pophale) SiO2 
 PCOD9460326
Probable space group: P B C A
;
_chemical_formula_sum "Si O2"
_cell_formula_units_Z 56
_cell_length_a 8.762680
_cell_length_b 13.785808
_cell_length_c 19.418604
_cell_angle_alpha 90.000000
_cell_angle_beta 90.000000
_cell_angle_gamma 90.000000
_cell_volume 2345.779481
_symmetry_space_group_name_H-M "P B C A"
_symmetry_group_IT_number 61
_symmetry_cell_setting 'orthorhombic'
loop_
_space_group_symop_operation_xyz
x,y,z
1/2-x,-y,1/2+z
1/2+x,1/2-y,-z
-x,1/2+y,1/2-z
-x,-y,-z
1/2+x,y,1/2-z
1/2-x,1/2+y,z
x,1/2-y,1/2+z
loop_
_atom_site_type_symbol
_atom_site_label
_atom_site_fract_x
_atom_site_fract_y
_atom_site_fract_z
Si Si1 0.303673 0.526715 0.214877
Si Si2 0.168908 0.252208 0.339719
Si Si3 0.940762 0.342478 0.736434
Si Si4 0.183080 0.550924 0.862829
Si Si5 0.768380 0.402546 0.990984
Si Si6 0.333223 0.579133 0.607734
Si Si7 0.421224 0.722235 0.494565
O O1 0.456190 0.581499 0.194551
O O2 0.160111 0.598125 0.208514
O O3 0.312070 0.518371 0.297757
O O4 0.274437 0.427098 0.174784
O O5 0.331561 0.213286 0.314659
O O6 0.195031 0.365942 0.346615
O O7 0.125006 0.210916 0.414475
O O8 0.049688 0.226298 0.280514
O O9 0.006699 0.583915 0.865925
O O10 0.222384 0.527846 0.941687
O O11 0.798305 0.476173 0.929164
O O12 0.909177 0.325172 0.999552
O O13 0.617185 0.335448 0.989066
O O14 0.321648 0.662295 0.550635
#
# Coordination Sequence:
#
# PCOD9460326 Si02
#       7
#     8   8   8   8   8   8   8
#     4  11  22  41  60  96 128 169 222 265 337 397
#     4  10  23  42  64  98 128 175 218 279 336 391
#     4  10  23  38  64  90 131 168 217 278 324 397
#     4  10  22  41  66  91 130 173 222 268 332 402
#     4  10  23  43  70  96 131 177 229 276 345 398
#     4  11  23  41  71  98 132 184 224 278 343 405
#     4  10  22  44  68  96 132 173 225 280 333 417
#
# _framework density 23.872661999999998
#
# number of rings (size 3 to 8) (size 9 to 14) (size 15 to 20)
#    0.000    1.714    1.429    2.571    8.000    3.429 
#   10.286    1.429    0.000    0.000    0.000    0.000 
#    0.000    0.000    0.000    0.000    0.000    0.000 
#
# Total GULP energy -312780.507929 kJ/mol
# GULP energy per Si atom -5585.366213 kJ/mol
# Density = 2.381833 g / cm^3
# Si number density = 23.872662 Si / 1000 Ang^3
#
#
#
# Elastic Constant Matrix: (Units=GPa)
#
#
# Indices 1 2 3 4 5 6 
#
# 1 39.1413 -0.0513 0.8050 0.0000 0.0000 0.0000
# 2 -0.0513 31.7802 6.6969 0.0000 0.0000 0.0000
# 3 0.8050 6.6969 78.7612 0.0000 0.0000 0.0000
# 4 0.0000 0.0000 0.0000 32.8222 0.0000 0.0000
# 5 0.0000 0.0000 0.0000 0.0000 21.5680 0.0000
# 6 0.0000 0.0000 0.0000 0.0000 0.0000 24.9071
#
#
#
# Elastic Compliance Matrix: (Units=1/GPa)
#
#
# Indices 1 2 3 4 5 6 
#
# 1 0.025554 0.000098 -0.000269 0.000000 0.000000 0.000000
# 2 0.000098 0.032041 -0.002725 0.000000 0.000000 0.000000
# 3 -0.000269 -0.002725 0.012931 0.000000 0.000000 0.000000
# 4 0.000000 0.000000 0.000000 0.030467 0.000000 0.000000
# 5 0.000000 0.000000 0.000000 0.000000 0.046365 0.000000
# 6 0.000000 0.000000 0.000000 0.000000 0.000000 0.040149
#
#
# Mechanical properties :
#
#
# Convention : Reuss Voigt Hill
#
# Bulk Modulus (GPa) = 15.44828 18.28710 16.86769
# Shear Modulus (GPa) = 23.26899 25.34160 24.30529
#
# Velocity S-wave (km/s) = 3.12543 3.26165 3.19426
# Velocity P-wave (km/s) = 4.41696 4.67562 4.54813
#
# Compressibility (1/GPa) = 0.06473213
#
# Stress axis : x y z
#
# Youngs Moduli (GPa) = 39.13259 31.21042 77.33294
#
# Poissons Ratio (x) = -0.00306 0.02084
# Poissons Ratio (y) = -0.00384 0.21076
# Poissons Ratio (z) = 0.01055 0.08506
#
# Static dielectric constant tensor:
#      x y z
#    x 1.915100 0.000000 0.000000 
#    y 0.000000 1.947820 0.000000 
#    z 0.000000 0.000000 1.921430 
# 
# From -- ./inp_files/10127.got.cif
#   From: 2010.05.17/outbox.cif.g08.bks.cpg/sg61_6_cif.got.tgz:10127.got - 2010.06.03 15:17:17.
