data_PCOD9460548
_publ_section_title
;
Structure prediction by ZEFSAII (Michael W. Deem and Ramdas Pophale) SiO2 
 PCOD9460548
Probable space group: P B C A
;
_chemical_formula_sum "Si O2"
_cell_formula_units_Z 40
_cell_length_a 12.915179
_cell_length_b 15.460761
_cell_length_c 10.019948
_cell_angle_alpha 90.000000
_cell_angle_beta 90.000000
_cell_angle_gamma 90.000000
_cell_volume 2000.768145
_symmetry_space_group_name_H-M "P B C A"
_symmetry_group_IT_number 61
_symmetry_cell_setting 'orthorhombic'
loop_
_space_group_symop_operation_xyz
x,y,z
1/2-x,-y,1/2+z
1/2+x,1/2-y,-z
-x,1/2+y,1/2-z
-x,-y,-z
1/2+x,y,1/2-z
1/2-x,1/2+y,z
x,1/2-y,1/2+z
loop_
_atom_site_type_symbol
_atom_site_label
_atom_site_fract_x
_atom_site_fract_y
_atom_site_fract_z
Si Si1 0.520671 0.195244 0.567267
Si Si2 0.463418 0.942238 0.663345
Si Si3 0.324465 0.101899 0.592830
Si Si4 0.876323 0.935457 0.268973
Si Si5 0.620665 0.383448 0.556382
O O1 0.533749 0.141589 0.429685
O O2 0.399531 0.184260 0.604968
O O3 0.580436 0.143819 0.683213
O O4 0.567503 0.289590 0.553606
O O5 0.406711 0.923793 0.802548
O O6 0.400696 0.019230 0.589208
O O7 0.576246 0.979266 0.702960
O O8 0.246019 0.079826 0.714118
O O9 0.244268 0.117506 0.472130
O O10 0.916959 0.931913 0.421802
#
# Coordination Sequence:
#
# PCOD9460548 Si02
#       5
#     8   8   8   8   8
#     4  11  22  44  63  95 136 163 214 275 328 375
#     4  11  22  40  71  90 129 171 216 270 312 396
#     4   9  23  40  67  89 129 172 211 259 325 388
#     4   9  21  41  62  93 127 166 217 253 322 391
#     4  10  23  42  61 102 127 168 217 269 323 378
#
# _framework density 19.992322999999999
#
# number of rings (size 3 to 8) (size 9 to 14) (size 15 to 20)
#    1.200    0.800    0.000    4.200    5.600    0.000 
#   14.400    0.000    0.000    0.000    0.000    0.000 
#    0.000    0.000    0.000    0.000    0.000    0.000 
#
# Total GULP energy -222770.957252 kJ/mol
# GULP energy per Si atom -5569.273931 kJ/mol
# Density = 1.994682 g / cm^3
# Si number density = 19.992323 Si / 1000 Ang^3
#
#
#
# Elastic Constant Matrix: (Units=GPa)
#
#
# Indices 1 2 3 4 5 6 
#
# 1 136.9189 40.2359 33.9438 0.0000 0.0000 0.0000
# 2 40.2359 76.0594 25.9116 0.0000 0.0000 0.0000
# 3 33.9438 25.9116 114.8919 0.0000 0.0000 0.0000
# 4 0.0000 0.0000 0.0000 19.4297 0.0000 0.0000
# 5 0.0000 0.0000 0.0000 0.0000 21.8780 0.0000
# 6 0.0000 0.0000 0.0000 0.0000 0.0000 27.0853
#
#
#
# Elastic Compliance Matrix: (Units=1/GPa)
#
#
# Indices 1 2 3 4 5 6 
#
# 1 0.008947 -0.004151 -0.001707 0.000000 0.000000 0.000000
# 2 -0.004151 0.016168 -0.002420 0.000000 0.000000 0.000000
# 3 -0.001707 -0.002420 0.009754 0.000000 0.000000 0.000000
# 4 0.000000 0.000000 0.000000 0.051468 0.000000 0.000000
# 5 0.000000 0.000000 0.000000 0.000000 0.045708 0.000000
# 6 0.000000 0.000000 0.000000 0.000000 0.000000 0.036920
#
#
# Mechanical properties :
#
#
# Convention : Reuss Voigt Hill
#
# Bulk Modulus (GPa) = 54.60824 58.67255 56.64040
# Shear Modulus (GPa) = 26.09259 28.86386 27.47822
#
# Velocity S-wave (km/s) = 3.61658 3.80379 3.71136
# Velocity P-wave (km/s) = 6.69428 6.97875 6.83800
#
# Compressibility (1/GPa) = 0.01831226
#
# Stress axis : x y z
#
# Youngs Moduli (GPa) = 111.77286 61.85011 102.52299
#
# Poissons Ratio (x) = 0.25676 0.17500
# Poissons Ratio (y) = 0.46401 0.24810
# Poissons Ratio (z) = 0.19079 0.14967
#
# Static dielectric constant tensor:
#      x y z
#    x 1.742500 0.000000 0.000000 
#    y 0.000000 1.674420 0.000000 
#    z 0.000000 0.000000 1.538580 
# 
# From -- ./inp_files/2641.got.cif
#   From: 2010.05.17/outbox.cif.g08.bks.cpg/sg61_2_cif.got.tgz:2641.got - 2010.06.03 15:17:17.
