data_PCOD9460305
_publ_section_title
;
Structure prediction by ZEFSAII (Michael W. Deem and Ramdas Pophale) SiO2 
 PCOD9460305
Probable space group: P B C A
;
_chemical_formula_sum "Si O2"
_cell_formula_units_Z 32
_cell_length_a 9.146454
_cell_length_b 8.649486
_cell_length_c 14.885691
_cell_angle_alpha 90.000000
_cell_angle_beta 90.000000
_cell_angle_gamma 90.000000
_cell_volume 1177.638659
_symmetry_space_group_name_H-M "P B C A"
_symmetry_group_IT_number 61
_symmetry_cell_setting 'orthorhombic'
loop_
_space_group_symop_operation_xyz
x,y,z
1/2-x,-y,1/2+z
1/2+x,1/2-y,-z
-x,1/2+y,1/2-z
-x,-y,-z
1/2+x,y,1/2-z
1/2-x,1/2+y,z
x,1/2-y,1/2+z
loop_
_atom_site_type_symbol
_atom_site_label
_atom_site_fract_x
_atom_site_fract_y
_atom_site_fract_z
Si Si1 0.541188 0.752730 0.996909
Si Si2 0.707244 0.436179 0.437570
Si Si3 0.355757 0.650943 0.824928
Si Si4 0.122468 0.483996 0.743988
O O1 0.668054 0.624668 0.007752
O O2 0.437247 0.693053 0.916433
O O3 0.628106 0.905778 0.965226
O O4 0.420313 0.806753 0.068428
O O5 0.791749 0.463499 0.345207
O O6 0.192637 0.584742 0.824679
O O7 0.455575 0.523807 0.775399
O O8 0.356247 0.808087 0.768877
#
# Coordination Sequence:
#
# PCOD9460305 Si02
#       4
#     8   8   8   8
#     4  10  23  41  62  89 121 161 204 251 305 364
#     4  10  22  41  62  89 123 158 203 251 302 363
#     4  11  23  39  64  91 123 163 208 255 309 366
#     4  11  22  41  64  92 125 162 207 257 306 365
#
# _framework density 27.173020999999999
#
# number of rings (size 3 to 8) (size 9 to 14) (size 15 to 20)
#    0.000    1.500    0.000    6.000    0.000    7.000 
#    0.000    2.500    0.000    0.000    0.000    0.000 
#    0.000    0.000    0.000    0.000    0.000    0.000 
#
# Total GULP energy -179587.359776 kJ/mol
# GULP energy per Si atom -5612.104993 kJ/mol
# Density = 2.711117 g / cm^3
# Si number density = 27.173021 Si / 1000 Ang^3
#
#
#
# Elastic Constant Matrix: (Units=GPa)
#
#
# Indices 1 2 3 4 5 6 
#
# 1 118.2601 0.5346 34.0807 0.0000 0.0000 0.0000
# 2 0.5346 98.8211 13.5620 0.0000 0.0000 0.0000
# 3 34.0807 13.5620 49.2042 0.0000 0.0000 0.0000
# 4 0.0000 0.0000 0.0000 24.7665 0.0000 0.0000
# 5 0.0000 0.0000 0.0000 0.0000 60.3120 0.0000
# 6 0.0000 0.0000 0.0000 0.0000 0.0000 67.2470
#
#
#
# Elastic Compliance Matrix: (Units=1/GPa)
#
#
# Indices 1 2 3 4 5 6 
#
# 1 0.010658 0.000993 -0.007656 0.000000 0.000000 0.000000
# 2 0.000993 0.010610 -0.003612 0.000000 0.000000 0.000000
# 3 -0.007656 -0.003612 0.026622 0.000000 0.000000 0.000000
# 4 0.000000 0.000000 0.000000 0.040377 0.000000 0.000000
# 5 0.000000 0.000000 0.000000 0.000000 0.016580 0.000000
# 6 0.000000 0.000000 0.000000 0.000000 0.000000 0.014871
#
#
# Mechanical properties :
#
#
# Convention : Reuss Voigt Hill
#
# Bulk Modulus (GPa) = 36.57710 40.29336 38.43523
# Shear Modulus (GPa) = 33.47175 45.00562 39.23869
#
# Velocity S-wave (km/s) = 3.51351 4.07413 3.80416
# Velocity P-wave (km/s) = 5.47263 6.08211 5.78540
#
# Compressibility (1/GPa) = 0.02733951
#
# Stress axis : x y z
#
# Youngs Moduli (GPa) = 93.82908 94.25393 37.56343
#
# Poissons Ratio (x) = -0.09359 0.28757
# Poissons Ratio (y) = -0.09317 0.13568
# Poissons Ratio (z) = 0.71832 0.34045
#
# Static dielectric constant tensor:
#      x y z
#    x 2.048030 0.000000 0.000000 
#    y 0.000000 2.059500 0.000000 
#    z 0.000000 0.000000 2.184510 
# 
# From -- ./inp_files/1663.got.cif
#   From: 2010.05.17/outbox.cif.g08.bks.cpg/sg61_1_cif.got.tgz:1663.got - 2010.06.03 15:17:17.
