data_PCOD9460836
_publ_section_title
;
Structure prediction by ZEFSAII (Michael W. Deem and Ramdas Pophale) SiO2 
 PCOD9460836
Probable space group: P B C A
;
_chemical_formula_sum "Si O2"
_cell_formula_units_Z 32
_cell_length_a 13.950650
_cell_length_b 9.826251
_cell_length_c 9.429536
_cell_angle_alpha 90.000000
_cell_angle_beta 90.000000
_cell_angle_gamma 90.000000
_cell_volume 1292.625203
_symmetry_space_group_name_H-M "P B C A"
_symmetry_group_IT_number 61
_symmetry_cell_setting 'orthorhombic'
loop_
_space_group_symop_operation_xyz
x,y,z
1/2-x,-y,1/2+z
1/2+x,1/2-y,-z
-x,1/2+y,1/2-z
-x,-y,-z
1/2+x,y,1/2-z
1/2-x,1/2+y,z
x,1/2-y,1/2+z
loop_
_atom_site_type_symbol
_atom_site_label
_atom_site_fract_x
_atom_site_fract_y
_atom_site_fract_z
Si Si1 0.066412 0.240401 0.576957
Si Si2 0.549670 0.864020 0.832414
Si Si3 0.726798 0.763624 0.496048
Si Si4 0.646304 0.044017 0.619510
O O1 0.178632 0.211842 0.598382
O O2 0.074266 0.384894 0.491492
O O3 0.026219 0.136403 0.460257
O O4 0.999655 0.273129 0.709561
O O5 0.642647 0.796409 0.901641
O O6 0.585475 0.002215 0.758062
O O7 0.765407 0.651824 0.609557
O O8 0.690374 0.901615 0.566625
#
# Coordination Sequence:
#
# PCOD9460836 Si02
#       4
#     8   8   8   8
#     4  10  27  47  79 113 158 207 268 323 400 474
#     4  12  23  49  79 114 157 206 259 336 391 473
#     4  10  26  47  78 113 162 203 265 327 396 475
#     4  10  25  52  72 117 160 207 265 325 396 479
#
# _framework density 24.755821999999998
#
# number of rings (size 3 to 8) (size 9 to 14) (size 15 to 20)
#    1.500    0.000    2.500    0.750    3.500    4.000 
#    4.500    2.500    0.000    0.000    0.000    0.000 
#    0.000    0.000    0.000    0.000    0.000    0.000 
#
# Total GULP energy -178808.712972 kJ/mol
# GULP energy per Si atom -5587.772280 kJ/mol
# Density = 2.469948 g / cm^3
# Si number density = 24.755822 Si / 1000 Ang^3
#
#
#
# Elastic Constant Matrix: (Units=GPa)
#
#
# Indices 1 2 3 4 5 6 
#
# 1 130.4472 17.8147 46.6309 0.0000 0.0000 0.0000
# 2 17.8147 122.4430 30.5230 0.0000 0.0000 0.0000
# 3 46.6309 30.5230 141.1340 0.0000 0.0000 0.0000
# 4 0.0000 0.0000 0.0000 30.0934 0.0000 0.0000
# 5 0.0000 0.0000 0.0000 0.0000 25.1863 0.0000
# 6 0.0000 0.0000 0.0000 0.0000 0.0000 45.7140
#
#
#
# Elastic Compliance Matrix: (Units=1/GPa)
#
#
# Indices 1 2 3 4 5 6 
#
# 1 0.008732 -0.000583 -0.002759 0.000000 0.000000 0.000000
# 2 -0.000583 0.008671 -0.001683 0.000000 0.000000 0.000000
# 3 -0.002759 -0.001683 0.008361 0.000000 0.000000 0.000000
# 4 0.000000 0.000000 0.000000 0.033230 0.000000 0.000000
# 5 0.000000 0.000000 0.000000 0.000000 0.039704 0.000000
# 6 0.000000 0.000000 0.000000 0.000000 0.000000 0.021875
#
#
# Mechanical properties :
#
#
# Convention : Reuss Voigt Hill
#
# Bulk Modulus (GPa) = 63.63288 64.88461 64.25874
# Shear Modulus (GPa) = 36.80246 40.13580 38.46913
#
# Velocity S-wave (km/s) = 3.85985 4.03086 3.94628
# Velocity P-wave (km/s) = 6.75460 6.92319 6.83941
#
# Compressibility (1/GPa) = 0.01571515
#
# Stress axis : x y z
#
# Youngs Moduli (GPa) = 114.52445 115.32247 119.60318
#
# Poissons Ratio (x) = 0.06719 0.32998
# Poissons Ratio (y) = 0.06673 0.20127
# Poissons Ratio (z) = 0.31597 0.19407
#
# Static dielectric constant tensor:
#      x y z
#    x 1.909620 0.000000 0.000000 
#    y 0.000000 2.021370 0.000000 
#    z 0.000000 0.000000 2.035470 
# 
# From -- ./inp_files/2516.got.cif
#   From: 2010.05.17/outbox.cif.g08.bks.cpg/sg61_2_cif.got.tgz:2516.got - 2010.06.03 15:17:17.
