data_PCOD9460550
_publ_section_title
;
Structure prediction by ZEFSAII (Michael W. Deem and Ramdas Pophale) SiO2 
 PCOD9460550
Probable space group: P B C A
;
_chemical_formula_sum "Si O2"
_cell_formula_units_Z 64
_cell_length_a 11.387742
_cell_length_b 8.880274
_cell_length_c 29.020159
_cell_angle_alpha 90.000000
_cell_angle_beta 90.000000
_cell_angle_gamma 90.000000
_cell_volume 2934.700411
_symmetry_space_group_name_H-M "P B C A"
_symmetry_group_IT_number 61
_symmetry_cell_setting 'orthorhombic'
loop_
_space_group_symop_operation_xyz
x,y,z
1/2-x,-y,1/2+z
1/2+x,1/2-y,-z
-x,1/2+y,1/2-z
-x,-y,-z
1/2+x,y,1/2-z
1/2-x,1/2+y,z
x,1/2-y,1/2+z
loop_
_atom_site_type_symbol
_atom_site_label
_atom_site_fract_x
_atom_site_fract_y
_atom_site_fract_z
Si Si1 0.357160 0.473715 0.951368
Si Si2 0.680761 0.728336 0.387921
Si Si3 0.024373 0.103784 0.328708
Si Si4 0.790448 0.739870 0.104055
Si Si5 0.623413 0.468720 0.941027
Si Si6 0.832264 0.763201 0.302805
Si Si7 0.415774 0.263453 0.330304
Si Si8 0.151177 0.574425 0.245962
O O1 0.350218 0.622365 0.920718
O O2 0.243554 0.381696 0.934393
O O3 0.488445 0.409482 0.941510
O O4 0.346726 0.509588 0.005165
O O5 0.580927 0.615171 0.367181
O O6 0.780198 0.636949 0.416104
O O7 0.740478 0.804174 0.342891
O O8 0.629174 0.865680 0.417541
O O9 0.128295 0.192886 0.353079
O O10 0.956139 0.153230 0.282512
O O11 0.074662 0.939055 0.316372
O O12 0.662474 0.772492 0.124793
O O13 0.773698 0.629283 0.274939
O O14 0.948740 0.716963 0.329992
O O15 0.854618 0.899278 0.267114
O O16 0.358364 0.140313 0.296616
#
# Coordination Sequence:
#
# PCOD9460550 Si02
#       8
#     8   8   8   8   8   8   8   8
#     4  11  25  42  65 100 140 169 233 271 345 408
#     4  11  21  44  73  93 136 172 224 278 345 399
#     4  10  23  44  63  95 130 172 220 274 334 401
#     4  12  23  44  66  92 136 183 212 283 331 413
#     4  11  23  42  69 103 131 178 220 290 335 412
#     4  10  23  42  62  96 123 167 221 270 329 397
#     4  11  24  40  66  92 129 175 221 265 336 402
#     4  10  24  40  64  91 130 162 219 286 316 401
#
# _framework density 21.808018000000001
#
# number of rings (size 3 to 8) (size 9 to 14) (size 15 to 20)
#    0.000    1.250    2.500    3.750    3.500    1.000 
#    2.250    0.625    0.000    0.000    0.000    0.000 
#    0.000    0.000    0.000    0.000    0.000    0.000 
#
# Total GULP energy -357050.340887 kJ/mol
# GULP energy per Si atom -5578.911576 kJ/mol
# Density = 2.175838 g / cm^3
# Si number density = 21.808018 Si / 1000 Ang^3
#
#
#
# Elastic Constant Matrix: (Units=GPa)
#
#
# Indices 1 2 3 4 5 6 
#
# 1 80.3466 11.4424 11.2645 0.0000 0.0000 0.0000
# 2 11.4424 52.7450 5.8310 0.0000 0.0000 0.0000
# 3 11.2645 5.8310 60.5346 0.0000 0.0000 0.0000
# 4 0.0000 0.0000 0.0000 34.1006 0.0000 0.0000
# 5 0.0000 0.0000 0.0000 0.0000 30.3622 0.0000
# 6 0.0000 0.0000 0.0000 0.0000 0.0000 27.0979
#
#
#
# Elastic Compliance Matrix: (Units=1/GPa)
#
#
# Indices 1 2 3 4 5 6 
#
# 1 0.013124 -0.002605 -0.002191 0.000000 0.000000 0.000000
# 2 -0.002605 0.019680 -0.001411 0.000000 0.000000 0.000000
# 3 -0.002191 -0.001411 0.017063 0.000000 0.000000 0.000000
# 4 0.000000 0.000000 0.000000 0.029325 0.000000 0.000000
# 5 0.000000 0.000000 0.000000 0.000000 0.032936 0.000000
# 6 0.000000 0.000000 0.000000 0.000000 0.000000 0.036903
#
#
# Mechanical properties :
#
#
# Convention : Reuss Voigt Hill
#
# Bulk Modulus (GPa) = 26.69991 27.85578 27.27785
# Shear Modulus (GPa) = 28.74714 29.31802 29.03258
#
# Velocity S-wave (km/s) = 3.63463 3.67054 3.65263
# Velocity P-wave (km/s) = 5.46661 5.54660 5.50675
#
# Compressibility (1/GPa) = 0.03745331
#
# Stress axis : x y z
#
# Youngs Moduli (GPa) = 76.19472 50.81243 58.60578
#
# Poissons Ratio (x) = 0.13236 0.12842
# Poissons Ratio (y) = 0.19848 0.08269
# Poissons Ratio (z) = 0.16696 0.07170
#
# Static dielectric constant tensor:
#      x y z
#    x 1.844670 0.000000 0.000000 
#    y 0.000000 1.801090 0.000000 
#    z 0.000000 0.000000 1.762690 
# 
# From -- ./inp_files/11794.got.cif
#   From: 2010.05.17/outbox.cif.g08.bks.cpg/sg61_6_cif.got.tgz:11794.got - 2010.06.03 15:17:17.
