data_PCOD9460438
_publ_section_title
;
Structure prediction by ZEFSAII (Michael W. Deem and Ramdas Pophale) SiO2 
 PCOD9460438
Probable space group: P B C A
;
_chemical_formula_sum "Si O2"
_cell_formula_units_Z 56
_cell_length_a 9.173527
_cell_length_b 17.858802
_cell_length_c 12.588126
_cell_angle_alpha 90.000000
_cell_angle_beta 90.000000
_cell_angle_gamma 90.000000
_cell_volume 2062.290053
_symmetry_space_group_name_H-M "P B C A"
_symmetry_group_IT_number 61
_symmetry_cell_setting 'orthorhombic'
loop_
_space_group_symop_operation_xyz
x,y,z
1/2-x,-y,1/2+z
1/2+x,1/2-y,-z
-x,1/2+y,1/2-z
-x,-y,-z
1/2+x,y,1/2-z
1/2-x,1/2+y,z
x,1/2-y,1/2+z
loop_
_atom_site_type_symbol
_atom_site_label
_atom_site_fract_x
_atom_site_fract_y
_atom_site_fract_z
Si Si1 0.479480 0.960731 0.819021
Si Si2 0.788402 0.369358 0.333537
Si Si3 0.300259 0.303085 0.878295
Si Si4 0.719711 0.966677 0.527487
Si Si5 0.409554 0.754701 0.038296
Si Si6 0.739117 0.365555 0.831568
Si Si7 0.089950 0.410337 0.338087
O O1 0.375794 0.979443 0.917671
O O2 0.380008 0.911455 0.737589
O O3 0.620244 0.914756 0.856397
O O4 0.530896 0.032528 0.752724
O O5 0.778307 0.445729 0.404306
O O6 0.672562 0.315543 0.388732
O O7 0.736939 0.378496 0.213094
O O8 0.958803 0.351707 0.349289
O O9 0.331431 0.388859 0.915817
O O10 0.422429 0.252242 0.932672
O O11 0.298809 0.303572 0.752291
O O12 0.142871 0.280265 0.923056
O O13 0.623446 0.037046 0.562002
O O14 0.336565 0.676084 0.071548
#
# Coordination Sequence:
#
# PCOD9460438 Si02
#       7
#     8   8   8   8   8   8   8
#     4  11  20  39  71  94 116 168 225 264 306 379
#     4  11  27  40  63  96 136 172 210 267 329 393
#     4  10  23  41  66  94 124 169 212 268 313 386
#     4  10  22  44  68  95 127 165 231 264 317 385
#     4  11  25  42  63  97 133 165 213 265 328 385
#     4  11  21  39  67  92 125 161 217 269 315 366
#     4  12  21  45  66  92 133 173 210 266 324 381
#
# _framework density 27.154278999999999
#
# number of rings (size 3 to 8) (size 9 to 14) (size 15 to 20)
#    0.000    1.143    5.714    0.429    8.000    0.571 
#    2.571    0.000    0.000    0.000    0.000    0.000 
#    0.000    0.000    0.000    0.000    0.000    0.000 
#
# Total GULP energy -314117.486873 kJ/mol
# GULP energy per Si atom -5609.240837 kJ/mol
# Density = 2.709247 g / cm^3
# Si number density = 27.154279 Si / 1000 Ang^3
#
#
#
# Elastic Constant Matrix: (Units=GPa)
#
#
# Indices 1 2 3 4 5 6 
#
# 1 114.6198 43.1126 -1.0156 0.0000 0.0000 0.0000
# 2 43.1126 75.6182 21.0264 0.0000 0.0000 0.0000
# 3 -1.0156 21.0264 59.7092 0.0000 0.0000 0.0000
# 4 0.0000 0.0000 0.0000 50.2634 0.0000 0.0000
# 5 0.0000 0.0000 0.0000 0.0000 44.2793 0.0000
# 6 0.0000 0.0000 0.0000 0.0000 0.0000 53.7578
#
#
#
# Elastic Compliance Matrix: (Units=1/GPa)
#
#
# Indices 1 2 3 4 5 6 
#
# 1 0.011507 -0.007333 0.002778 0.000000 0.000000 0.000000
# 2 -0.007333 0.019333 -0.006933 0.000000 0.000000 0.000000
# 3 0.002778 -0.006933 0.019236 0.000000 0.000000 0.000000
# 4 0.000000 0.000000 0.000000 0.019895 0.000000 0.000000
# 5 0.000000 0.000000 0.000000 0.000000 0.022584 0.000000
# 6 0.000000 0.000000 0.000000 0.000000 0.000000 0.018602
#
#
# Mechanical properties :
#
#
# Convention : Reuss Voigt Hill
#
# Bulk Modulus (GPa) = 36.89900 41.79932 39.34916
# Shear Modulus (GPa) = 34.92415 42.11502 38.51958
#
# Velocity S-wave (km/s) = 3.59017 3.94249 3.77044
# Velocity P-wave (km/s) = 5.55012 6.01257 5.78597
#
# Compressibility (1/GPa) = 0.02710101
#
# Stress axis : x y z
#
# Youngs Moduli (GPa) = 86.90057 51.72505 51.98471
#
# Poissons Ratio (x) = 0.37931 -0.14442
# Poissons Ratio (y) = 0.63726 0.36040
# Poissons Ratio (z) = -0.24142 0.35860
#
# Static dielectric constant tensor:
#      x y z
#    x 2.087030 0.000000 0.000000 
#    y 0.000000 2.138900 0.000000 
#    z 0.000000 0.000000 2.091390 
# 
# From -- ./inp_files/3971.got.cif
#   From: 2010.05.17/outbox.cif.g08.bks.cpg/sg61_2_cif.got.tgz:3971.got - 2010.06.03 15:17:17.
