data_PCOD9460329
_publ_section_title
;
Structure prediction by ZEFSAII (Michael W. Deem and Ramdas Pophale) SiO2 
 PCOD9460329
Probable space group: P B C A
;
_chemical_formula_sum "Si O2"
_cell_formula_units_Z 40
_cell_length_a 16.611059
_cell_length_b 11.242804
_cell_length_c 8.744285
_cell_angle_alpha 90.000000
_cell_angle_beta 90.000000
_cell_angle_gamma 90.000000
_cell_volume 1633.037901
_symmetry_space_group_name_H-M "P B C A"
_symmetry_group_IT_number 61
_symmetry_cell_setting 'orthorhombic'
loop_
_space_group_symop_operation_xyz
x,y,z
1/2-x,-y,1/2+z
1/2+x,1/2-y,-z
-x,1/2+y,1/2-z
-x,-y,-z
1/2+x,y,1/2-z
1/2-x,1/2+y,z
x,1/2-y,1/2+z
loop_
_atom_site_type_symbol
_atom_site_label
_atom_site_fract_x
_atom_site_fract_y
_atom_site_fract_z
Si Si1 0.175364 0.623392 0.960600
Si Si2 0.784586 0.019483 0.869831
Si Si3 0.118572 0.394791 0.026296
Si Si4 0.029438 0.228711 0.263819
Si Si5 0.579185 0.644731 0.016843
O O1 0.203836 0.561079 0.803473
O O2 0.142561 0.753022 0.935303
O O3 0.244696 0.607330 0.088611
O O4 0.102908 0.537002 0.018453
O O5 0.713492 0.103844 0.936499
O O6 0.867272 0.035281 0.961885
O O7 0.070485 0.324487 0.153689
O O8 0.095233 0.336192 0.866721
O O9 0.968947 0.299977 0.374234
O O10 0.981373 0.135296 0.157591
#
# Coordination Sequence:
#
# PCOD9460329 Si02
#       5
#     8   8   8   8   8
#     4  10  24  43  69  97 131 177 230 278 324 403
#     4  10  24  42  69  97 128 181 226 279 325 400
#     4   9  24  43  66  96 137 173 225 269 338 397
#     4  10  22  41  66  98 131 183 204 280 334 393
#     4  11  22  42  70  95 137 172 230 269 343 392
#
# _framework density 24.494226000000001
#
# number of rings (size 3 to 8) (size 9 to 14) (size 15 to 20)
#    1.200    0.800    2.000    0.000    5.600    4.800 
#    3.600    1.000    0.000    0.000    0.000    0.000 
#    0.000    0.000    0.000    0.000    0.000    0.000 
#
# Total GULP energy -223636.425910 kJ/mol
# GULP energy per Si atom -5590.910648 kJ/mol
# Density = 2.443848 g / cm^3
# Si number density = 24.494226 Si / 1000 Ang^3
#
#
#
# Elastic Constant Matrix: (Units=GPa)
#
#
# Indices 1 2 3 4 5 6 
#
# 1 86.9705 7.6525 41.4226 0.0000 0.0000 0.0000
# 2 7.6525 48.0016 1.5284 0.0000 0.0000 0.0000
# 3 41.4226 1.5284 123.8992 0.0000 0.0000 0.0000
# 4 0.0000 0.0000 0.0000 22.6127 0.0000 0.0000
# 5 0.0000 0.0000 0.0000 0.0000 33.3981 0.0000
# 6 0.0000 0.0000 0.0000 0.0000 0.0000 23.7303
#
#
#
# Elastic Compliance Matrix: (Units=1/GPa)
#
#
# Indices 1 2 3 4 5 6 
#
# 1 0.013878 -0.002065 -0.004614 0.000000 0.000000 0.000000
# 2 -0.002065 0.021148 0.000430 0.000000 0.000000 0.000000
# 3 -0.004614 0.000430 0.009608 0.000000 0.000000 0.000000
# 4 0.000000 0.000000 0.000000 0.044223 0.000000 0.000000
# 5 0.000000 0.000000 0.000000 0.000000 0.029942 0.000000
# 6 0.000000 0.000000 0.000000 0.000000 0.000000 0.042140
#
#
# Mechanical properties :
#
#
# Convention : Reuss Voigt Hill
#
# Bulk Modulus (GPa) = 31.11938 40.00870 35.56404
# Shear Modulus (GPa) = 27.15171 29.83274 28.49222
#
# Velocity S-wave (km/s) = 3.33302 3.49370 3.41430
# Velocity P-wave (km/s) = 5.24827 5.71349 5.48582
#
# Compressibility (1/GPa) = 0.03213431
#
# Stress axis : x y z
#
# Youngs Moduli (GPa) = 72.05901 47.28522 104.07570
#
# Poissons Ratio (x) = 0.09767 0.48022
# Poissons Ratio (y) = 0.14884 -0.04472
# Poissons Ratio (z) = 0.33249 -0.02032
#
# Static dielectric constant tensor:
#      x y z
#    x 1.957030 0.000000 0.000000 
#    y 0.000000 2.009820 0.000000 
#    z 0.000000 0.000000 1.934490 
# 
# From -- ./inp_files/2688.got.cif
#   From: 2010.05.17/outbox.cif.g08.bks.cpg/sg61_2_cif.got.tgz:2688.got - 2010.06.03 15:17:17.
