data_PCOD9460253
_publ_section_title
;
Structure prediction by ZEFSAII (Michael W. Deem and Ramdas Pophale) SiO2 
 PCOD9460253
Probable space group: P B C A
;
_chemical_formula_sum "Si O2"
_cell_formula_units_Z 40
_cell_length_a 9.429045
_cell_length_b 9.080537
_cell_length_c 19.454791
_cell_angle_alpha 90.000000
_cell_angle_beta 90.000000
_cell_angle_gamma 90.000000
_cell_volume 1665.734614
_symmetry_space_group_name_H-M "P B C A"
_symmetry_group_IT_number 61
_symmetry_cell_setting 'orthorhombic'
loop_
_space_group_symop_operation_xyz
x,y,z
1/2-x,-y,1/2+z
1/2+x,1/2-y,-z
-x,1/2+y,1/2-z
-x,-y,-z
1/2+x,y,1/2-z
1/2-x,1/2+y,z
x,1/2-y,1/2+z
loop_
_atom_site_type_symbol
_atom_site_label
_atom_site_fract_x
_atom_site_fract_y
_atom_site_fract_z
Si Si1 0.597663 0.891803 0.046539
Si Si2 0.314584 0.733413 0.253732
Si Si3 0.156727 0.935384 0.998779
Si Si4 0.164201 0.076358 0.633492
Si Si5 0.923568 0.042524 0.230640
O O1 0.644804 0.739074 0.012491
O O2 0.484334 0.856178 0.105912
O O3 0.741061 0.985437 0.056972
O O4 0.500000 0.000000 0.000000
O O5 0.258136 0.813196 0.185202
O O6 0.193121 0.656112 0.297756
O O7 0.421274 0.608133 0.226883
O O8 0.395556 0.872370 0.289101
O O9 0.235010 0.966101 0.071326
O O10 0.000000 0.000000 0.000000
O O11 0.109578 0.955616 0.687121
#
# Coordination Sequence:
#
# PCOD9460253 Si02
#       5
#     8   8   8   8   8
#     4  10  22  40  60  90 131 163 215 262 312 391
#     4  10  22  41  65  91 128 167 217 265 320 382
#     4  11  22  39  64  95 128 165 212 261 316 389
#     4   9  24  39  67  91 133 167 212 258 336 366
#     4  10  22  41  65  89 129 165 217 265 320 382
#
# _framework density 24.013428000000001
#
# number of rings (size 3 to 8) (size 9 to 14) (size 15 to 20)
#    1.200    0.800    0.000    3.600    8.400    0.000 
#    3.600    0.000    0.000    0.000    0.000    0.000 
#    0.000    0.000    0.000    0.000    0.000    0.000 
#
# Total GULP energy -222999.020278 kJ/mol
# GULP energy per Si atom -5574.975507 kJ/mol
# Density = 2.395877 g / cm^3
# Si number density = 24.013428 Si / 1000 Ang^3
#
#
#
# Elastic Constant Matrix: (Units=GPa)
#
#
# Indices 1 2 3 4 5 6 
#
# 1 139.9024 33.0175 3.7209 0.0000 0.0000 0.0000
# 2 33.0175 114.4896 9.0272 0.0000 0.0000 0.0000
# 3 3.7209 9.0272 51.4470 0.0000 0.0000 0.0000
# 4 0.0000 0.0000 0.0000 20.7616 0.0000 0.0000
# 5 0.0000 0.0000 0.0000 0.0000 19.1643 0.0000
# 6 0.0000 0.0000 0.0000 0.0000 0.0000 46.9311
#
#
#
# Elastic Compliance Matrix: (Units=1/GPa)
#
#
# Indices 1 2 3 4 5 6 
#
# 1 0.007671 -0.002199 -0.000169 0.000000 0.000000 0.000000
# 2 -0.002199 0.009487 -0.001506 0.000000 0.000000 0.000000
# 3 -0.000169 -0.001506 0.019714 0.000000 0.000000 0.000000
# 4 0.000000 0.000000 0.000000 0.048166 0.000000 0.000000
# 5 0.000000 0.000000 0.000000 0.000000 0.052180 0.000000
# 6 0.000000 0.000000 0.000000 0.000000 0.000000 0.021308
#
#
# Mechanical properties :
#
#
# Convention : Reuss Voigt Hill
#
# Bulk Modulus (GPa) = 34.33447 44.15222 39.24334
# Shear Modulus (GPa) = 28.41199 34.70964 31.56082
#
# Velocity S-wave (km/s) = 3.44346 3.80600 3.62926
# Velocity P-wave (km/s) = 5.48989 6.14334 5.82578
#
# Compressibility (1/GPa) = 0.02912525
#
# Stress axis : x y z
#
# Youngs Moduli (GPa) = 130.35590 105.40412 50.72566
#
# Poissons Ratio (x) = 0.23178 0.00857
# Poissons Ratio (y) = 0.28665 0.07638
# Poissons Ratio (z) = 0.02203 0.15870
#
# Static dielectric constant tensor:
#      x y z
#    x 2.009330 0.000000 0.000000 
#    y 0.000000 1.925420 0.000000 
#    z 0.000000 0.000000 1.977300 
# 
# From -- ./inp_files/1804.got.cif
#   From: 2010.05.17/outbox.cif.g08.bks.cpg/sg61_1_cif.got.tgz:1804.got - 2010.06.03 15:17:17.
