data_PCOD9460414
_publ_section_title
;
Structure prediction by ZEFSAII (Michael W. Deem and Ramdas Pophale) SiO2 
 PCOD9460414
Probable space group: P B C A
;
_chemical_formula_sum "Si O2"
_cell_formula_units_Z 64
_cell_length_a 9.640856
_cell_length_b 15.850819
_cell_length_c 16.570300
_cell_angle_alpha 90.000000
_cell_angle_beta 90.000000
_cell_angle_gamma 90.000000
_cell_volume 2532.198074
_symmetry_space_group_name_H-M "P B C A"
_symmetry_group_IT_number 61
_symmetry_cell_setting 'orthorhombic'
loop_
_space_group_symop_operation_xyz
x,y,z
1/2-x,-y,1/2+z
1/2+x,1/2-y,-z
-x,1/2+y,1/2-z
-x,-y,-z
1/2+x,y,1/2-z
1/2-x,1/2+y,z
x,1/2-y,1/2+z
loop_
_atom_site_type_symbol
_atom_site_label
_atom_site_fract_x
_atom_site_fract_y
_atom_site_fract_z
Si Si1 0.518790 0.808355 0.209642
Si Si2 0.611613 0.384645 0.934058
Si Si3 0.984458 0.929799 0.587059
Si Si4 0.731943 0.049859 0.926424
Si Si5 0.180066 0.937963 0.862924
Si Si6 0.166728 0.841398 0.705746
Si Si7 0.582766 0.290817 0.468675
Si Si8 0.232197 0.411551 0.258390
O O1 0.594630 0.746418 0.271879
O O2 0.494795 0.780695 0.117297
O O3 0.620506 0.888069 0.204560
O O4 0.369792 0.833345 0.244068
O O5 0.670211 0.475844 0.960983
O O6 0.455291 0.403387 0.906413
O O7 0.712418 0.352272 0.860791
O O8 0.614721 0.304917 0.994813
O O9 0.821496 0.946898 0.587576
O O10 0.005070 0.846019 0.531890
O O11 0.077629 0.010442 0.566638
O O12 0.043248 0.901366 0.673793
O O13 0.761538 0.051098 0.830232
O O14 0.716616 0.148294 0.951372
O O15 0.219407 0.874049 0.791261
O O16 0.153714 0.025390 0.817685
#
# Coordination Sequence:
#
# PCOD9460414 Si02
#       8
#     8   8   8   8   8   8   8   8
#     4  11  24  40  67  99 135 174 225 296 339 407
#     4  11  23  40  67  98 134 181 222 289 340 406
#     4  11  25  42  69  98 133 185 222 279 343 421
#     4  10  22  43  68  93 141 179 226 280 341 402
#     4  12  22  38  67  96 127 168 230 278 334 402
#     4  11  23  41  67  92 131 171 229 282 337 391
#     4  11  24  44  66 101 140 180 232 277 354 420
#     4  11  22  38  65  98 130 173 228 282 340 405
#
# _framework density 25.274484000000001
#
# number of rings (size 3 to 8) (size 9 to 14) (size 15 to 20)
#    0.000    1.000    3.750    4.875    1.750    2.000 
#    0.000    1.875    0.000    0.000    0.000    0.000 
#    0.000    0.000    0.000    0.000    0.000    0.000 
#
# Total GULP energy -357954.522363 kJ/mol
# GULP energy per Si atom -5593.039412 kJ/mol
# Density = 2.521696 g / cm^3
# Si number density = 25.274484 Si / 1000 Ang^3
#
#
#
# Elastic Constant Matrix: (Units=GPa)
#
#
# Indices 1 2 3 4 5 6 
#
# 1 124.7752 19.0050 16.7871 0.0000 0.0000 0.0000
# 2 19.0050 100.8224 14.0473 0.0000 0.0000 0.0000
# 3 16.7871 14.0473 40.9159 0.0000 0.0000 0.0000
# 4 0.0000 0.0000 0.0000 36.9571 0.0000 0.0000
# 5 0.0000 0.0000 0.0000 0.0000 32.8302 0.0000
# 6 0.0000 0.0000 0.0000 0.0000 0.0000 44.1234
#
#
#
# Elastic Compliance Matrix: (Units=1/GPa)
#
#
# Indices 1 2 3 4 5 6 
#
# 1 0.008616 -0.001188 -0.003127 0.000000 0.000000 0.000000
# 2 -0.001188 0.010581 -0.003145 0.000000 0.000000 0.000000
# 3 -0.003127 -0.003145 0.026803 0.000000 0.000000 0.000000
# 4 0.000000 0.000000 0.000000 0.027058 0.000000 0.000000
# 5 0.000000 0.000000 0.000000 0.000000 0.030460 0.000000
# 6 0.000000 0.000000 0.000000 0.000000 0.000000 0.022664
#
#
# Mechanical properties :
#
#
# Convention : Reuss Voigt Hill
#
# Bulk Modulus (GPa) = 32.17611 40.68805 36.43208
# Shear Modulus (GPa) = 33.01152 37.22708 35.11930
#
# Velocity S-wave (km/s) = 3.61795 3.84202 3.73167
# Velocity P-wave (km/s) = 5.49646 5.98455 5.74569
#
# Compressibility (1/GPa) = 0.03107895
#
# Stress axis : x y z
#
# Youngs Moduli (GPa) = 116.06124 94.51232 37.30913
#
# Poissons Ratio (x) = 0.11232 0.11667
# Poissons Ratio (y) = 0.13793 0.11734
# Poissons Ratio (z) = 0.36293 0.29724
#
# Static dielectric constant tensor:
#      x y z
#    x 1.937170 0.000000 0.000000 
#    y 0.000000 2.068630 0.000000 
#    z 0.000000 0.000000 2.068020 
# 
# From -- ./inp_files/10172.got.cif
#   From: 2010.05.17/outbox.cif.g08.bks.cpg/sg61_6_cif.got.tgz:10172.got - 2010.06.03 15:17:17.
