data_PCOD9460760
_publ_section_title
;
Structure prediction by ZEFSAII (Michael W. Deem and Ramdas Pophale) SiO2 
 PCOD9460760
Probable space group: P B C A
;
_chemical_formula_sum "Si O2"
_cell_formula_units_Z 40
_cell_length_a 9.431197
_cell_length_b 20.639960
_cell_length_c 8.124859
_cell_angle_alpha 90.000000
_cell_angle_beta 90.000000
_cell_angle_gamma 90.000000
_cell_volume 1581.581225
_symmetry_space_group_name_H-M "P B C A"
_symmetry_group_IT_number 61
_symmetry_cell_setting 'orthorhombic'
loop_
_space_group_symop_operation_xyz
x,y,z
1/2-x,-y,1/2+z
1/2+x,1/2-y,-z
-x,1/2+y,1/2-z
-x,-y,-z
1/2+x,y,1/2-z
1/2-x,1/2+y,z
x,1/2-y,1/2+z
loop_
_atom_site_type_symbol
_atom_site_label
_atom_site_fract_x
_atom_site_fract_y
_atom_site_fract_z
Si Si1 0.832563 0.652943 0.178166
Si Si2 0.728771 0.664069 0.638348
Si Si3 0.166910 0.442237 0.572004
Si Si4 0.052803 0.226045 0.644888
Si Si5 0.865732 0.415014 0.453624
O O1 0.883558 0.583723 0.250424
O O2 0.871594 0.704842 0.322985
O O3 0.900506 0.685816 0.016244
O O4 0.679996 0.629399 0.108093
O O5 0.724577 0.612535 0.490987
O O6 0.882877 0.688911 0.695575
O O7 0.617413 0.723663 0.630071
O O8 0.672835 0.623997 0.792962
O O9 0.214853 0.515767 0.557900
O O10 0.029560 0.434103 0.457627
#
# Coordination Sequence:
#
# PCOD9460760 Si02
#       5
#     8   8   8   8   8
#     4  11  26  45  70 106 142 197 247 306 376 447
#     4  11  23  46  67 107 141 195 238 307 369 446
#     4  11  23  44  72 103 148 194 251 310 366 444
#     4  11  26  42  72 101 149 187 245 303 378 447
#     4  10  24  45  70 105 144 197 255 306 368 442
#
# _framework density 25.291146000000001
#
# number of rings (size 3 to 8) (size 9 to 14) (size 15 to 20)
#    0.000    1.200    2.000    2.400    5.600    1.600 
#    0.000    3.000    0.000    0.000    0.000    0.000 
#    0.000    0.000    0.000    0.000    0.000    0.000 
#
# Total GULP energy -223061.023983 kJ/mol
# GULP energy per Si atom -5576.525600 kJ/mol
# Density = 2.523358 g / cm^3
# Si number density = 25.291146 Si / 1000 Ang^3
#
#
#
# Elastic Constant Matrix: (Units=GPa)
#
#
# Indices 1 2 3 4 5 6 
#
# 1 68.9887 24.9664 -8.8133 0.0000 0.0000 0.0000
# 2 24.9664 159.0799 30.2632 0.0000 0.0000 0.0000
# 3 -8.8133 30.2632 87.1269 0.0000 0.0000 0.0000
# 4 0.0000 0.0000 0.0000 37.9218 0.0000 0.0000
# 5 0.0000 0.0000 0.0000 0.0000 10.8379 0.0000
# 6 0.0000 0.0000 0.0000 0.0000 0.0000 30.3745
#
#
#
# Elastic Compliance Matrix: (Units=1/GPa)
#
#
# Indices 1 2 3 4 5 6 
#
# 1 0.015921 -0.003004 0.002654 0.000000 0.000000 0.000000
# 2 -0.003004 0.007298 -0.002839 0.000000 0.000000 0.000000
# 3 0.002654 -0.002839 0.012732 0.000000 0.000000 0.000000
# 4 0.000000 0.000000 0.000000 0.026370 0.000000 0.000000
# 5 0.000000 0.000000 0.000000 0.000000 0.092269 0.000000
# 6 0.000000 0.000000 0.000000 0.000000 0.000000 0.032922
#
#
# Mechanical properties :
#
#
# Convention : Reuss Voigt Hill
#
# Bulk Modulus (GPa) = 33.81370 45.33645 39.57508
# Shear Modulus (GPa) = 24.54030 33.74544 29.14287
#
# Velocity S-wave (km/s) = 3.11836 3.65674 3.39823
# Velocity P-wave (km/s) = 5.13463 5.98279 5.57486
#
# Compressibility (1/GPa) = 0.02957381
#
# Stress axis : x y z
#
# Youngs Moduli (GPa) = 62.80971 137.03240 78.54273
#
# Poissons Ratio (x) = 0.41158 -0.20843
# Poissons Ratio (y) = 0.18865 0.22295
# Poissons Ratio (z) = -0.16668 0.38898
#
# Static dielectric constant tensor:
#      x y z
#    x 2.036030 0.000000 0.000000 
#    y 0.000000 2.046510 0.000000 
#    z 0.000000 0.000000 2.038750 
# 
# From -- ./inp_files/2161.got.cif
#   From: 2010.05.17/outbox.cif.g08.bks.cpg/sg61_2_cif.got.tgz:2161.got - 2010.06.03 15:17:17.
