data_PCOD9460470
_publ_section_title
;
Structure prediction by ZEFSAII (Michael W. Deem and Ramdas Pophale) SiO2 
 PCOD9460470
Probable space group: P B C A
;
_chemical_formula_sum "Si O2"
_cell_formula_units_Z 60
_cell_length_a 9.288724
_cell_length_b 8.071421
_cell_length_c 29.519336
_cell_angle_alpha 90.000000
_cell_angle_beta 90.000000
_cell_angle_gamma 90.000000
_cell_volume 2213.159140
_symmetry_space_group_name_H-M "P B C A"
_symmetry_group_IT_number 61
_symmetry_cell_setting 'orthorhombic'
loop_
_space_group_symop_operation_xyz
x,y,z
1/2-x,-y,1/2+z
1/2+x,1/2-y,-z
-x,1/2+y,1/2-z
-x,-y,-z
1/2+x,y,1/2-z
1/2-x,1/2+y,z
x,1/2-y,1/2+z
loop_
_atom_site_type_symbol
_atom_site_label
_atom_site_fract_x
_atom_site_fract_y
_atom_site_fract_z
Si Si1 0.282490 0.755335 0.032915
Si Si2 0.175578 0.853877 0.161442
Si Si3 0.945387 0.961820 0.217636
Si Si4 0.202020 0.240189 0.438013
Si Si5 0.952451 0.995569 0.324760
Si Si6 0.945598 0.456794 0.424826
Si Si7 0.500000 0.000000 0.000000
Si Si8 0.267605 0.672086 0.334454
O O1 0.153058 0.796548 0.065230
O O2 0.382517 0.602145 0.045103
O O3 0.387485 0.912255 0.034264
O O4 0.202866 0.730506 0.983646
O O5 0.345080 0.862551 0.153805
O O6 0.114417 0.928578 0.208308
O O7 0.120659 0.667623 0.159840
O O8 0.085833 0.971541 0.127523
O O9 0.933879 0.975132 0.271138
O O10 0.872052 0.120324 0.193814
O O11 0.859172 0.808241 0.194071
O O12 0.093445 0.100040 0.457626
O O13 0.258755 0.211783 0.387638
O O14 0.107430 0.408435 0.435023
O O15 0.119252 0.016324 0.336467
#
# Coordination Sequence:
#
# PCOD9460470 Si02
#       8
#     8   8   8   8   8   8   4   8
#     4  10  24  37  71  94 136 181 224 288 339 423
#     4  11  25  42  70 104 135 181 230 291 342 422
#     4  11  24  46  66 102 137 184 224 289 362 414
#     4  10  22  46  62  97 137 177 232 282 347 410
#     4  11  23  43  72  98 137 175 234 286 347 419
#     4  12  21  44  66  98 140 176 237 287 352 408
#     4   8  22  42  62  98 128 174 230 270 344 410
#     4  11  25  46  71  99 147 178 231 295 338 436
#
# _framework density 27.110569000000002
#
# number of rings (size 3 to 8) (size 9 to 14) (size 15 to 20)
#    0.800    0.533    2.667    3.600    1.867    4.267 
#    4.800    0.000    0.000    0.000    0.000    0.000 
#    0.000    0.000    0.000    0.000    0.000    0.000 
#
# Total GULP energy -334832.767374 kJ/mol
# GULP energy per Si atom -5580.546123 kJ/mol
# Density = 2.704886 g / cm^3
# Si number density = 27.110569 Si / 1000 Ang^3
#
#
#
# Elastic Constant Matrix: (Units=GPa)
#
#
# Indices 1 2 3 4 5 6 
#
# 1 72.2773 14.3667 -6.3759 0.0000 0.0000 0.0000
# 2 14.3667 77.6871 23.3617 0.0000 0.0000 0.0000
# 3 -6.3759 23.3617 124.8569 0.0000 0.0000 0.0000
# 4 0.0000 0.0000 0.0000 35.5983 0.0000 0.0000
# 5 0.0000 0.0000 0.0000 0.0000 29.2849 0.0000
# 6 0.0000 0.0000 0.0000 0.0000 0.0000 39.4086
#
#
#
# Elastic Compliance Matrix: (Units=1/GPa)
#
#
# Indices 1 2 3 4 5 6 
#
# 1 0.014567 -0.003091 0.001322 0.000000 0.000000 0.000000
# 2 -0.003091 0.014296 -0.002833 0.000000 0.000000 0.000000
# 3 0.001322 -0.002833 0.008607 0.000000 0.000000 0.000000
# 4 0.000000 0.000000 0.000000 0.028091 0.000000 0.000000
# 5 0.000000 0.000000 0.000000 0.000000 0.034147 0.000000
# 6 0.000000 0.000000 0.000000 0.000000 0.000000 0.025375
#
#
# Mechanical properties :
#
#
# Convention : Reuss Voigt Hill
#
# Bulk Modulus (GPa) = 35.37892 37.50290 36.44091
# Shear Modulus (GPa) = 34.79267 37.08961 35.94114
#
# Velocity S-wave (km/s) = 3.58629 3.70278 3.64500
# Velocity P-wave (km/s) = 5.49789 5.66958 5.58439
#
# Compressibility (1/GPa) = 0.02826542
#
# Stress axis : x y z
#
# Youngs Moduli (GPa) = 68.64952 69.95112 116.18833
#
# Poissons Ratio (x) = 0.21625 -0.15364
# Poissons Ratio (y) = 0.21223 0.32913
# Poissons Ratio (z) = -0.09078 0.19815
#
# Static dielectric constant tensor:
#      x y z
#    x 1.519440 0.000000 0.000000 
#    y 0.000000 2.124310 0.000000 
#    z 0.000000 0.000000 2.120610 
# 
# From -- ./inp_files/11770.got.cif
#   From: 2010.05.17/outbox.cif.g08.bks.cpg/sg61_6_cif.got.tgz:11770.got - 2010.06.03 15:17:17.
