data_PCOD9460412
_publ_section_title
;
Structure prediction by ZEFSAII (Michael W. Deem and Ramdas Pophale) SiO2 
 PCOD9460412
Probable space group: P B C A
;
_chemical_formula_sum "Si O2"
_cell_formula_units_Z 40
_cell_length_a 8.437070
_cell_length_b 9.337340
_cell_length_c 20.156600
_cell_angle_alpha 90.000000
_cell_angle_beta 90.000000
_cell_angle_gamma 90.000000
_cell_volume 1587.932739
_symmetry_space_group_name_H-M "P B C A"
_symmetry_group_IT_number 61
_symmetry_cell_setting 'orthorhombic'
loop_
_space_group_symop_operation_xyz
x,y,z
1/2-x,-y,1/2+z
1/2+x,1/2-y,-z
-x,1/2+y,1/2-z
-x,-y,-z
1/2+x,y,1/2-z
1/2-x,1/2+y,z
x,1/2-y,1/2+z
loop_
_atom_site_type_symbol
_atom_site_label
_atom_site_fract_x
_atom_site_fract_y
_atom_site_fract_z
Si Si1 0.132255 0.111910 0.577457
Si Si2 0.190642 0.336203 0.817222
Si Si3 0.117961 0.439727 0.393121
Si Si4 0.546375 0.323161 0.820393
Si Si5 0.679374 0.835838 0.992037
O O1 0.133866 0.187095 0.648459
O O2 0.273715 0.182632 0.535395
O O3 0.969060 0.163036 0.541721
O O4 0.138821 0.943162 0.567765
O O5 0.229902 0.469645 0.864836
O O6 0.367361 0.276706 0.804265
O O7 0.119298 0.379284 0.747268
O O8 0.098537 0.207529 0.852623
O O9 0.170616 0.394699 0.466117
O O10 0.977535 0.549794 0.374734
#
# Coordination Sequence:
#
# PCOD9460412 Si02
#       5
#     8   8   8   8   8
#     4  11  24  44  67 101 130 180 219 279 334 404
#     4  10  23  41  67  92 131 173 214 275 319 398
#     4  10  22  43  68  91 134 172 213 269 334 390
#     4  10  24  41  64  98 130 168 225 260 338 382
#     4  11  23  45  70  95 140 169 225 273 342 399
#
# _framework density 25.189982000000001
#
# number of rings (size 3 to 8) (size 9 to 14) (size 15 to 20)
#    1.200    0.400    2.000    2.400    2.800    4.800 
#   10.800    0.000    0.000    0.000    0.000    0.000 
#    0.000    0.000    0.000    0.000    0.000    0.000 
#
# Total GULP energy -223736.150088 kJ/mol
# GULP energy per Si atom -5593.403752 kJ/mol
# Density = 2.513265 g / cm^3
# Si number density = 25.189982 Si / 1000 Ang^3
#
#
#
# Elastic Constant Matrix: (Units=GPa)
#
#
# Indices 1 2 3 4 5 6 
#
# 1 47.3038 -7.7686 15.3437 0.0000 0.0000 0.0000
# 2 -7.7686 109.9895 34.7624 0.0000 0.0000 0.0000
# 3 15.3437 34.7624 53.7653 0.0000 0.0000 0.0000
# 4 0.0000 0.0000 0.0000 34.8563 0.0000 0.0000
# 5 0.0000 0.0000 0.0000 0.0000 36.8759 0.0000
# 6 0.0000 0.0000 0.0000 0.0000 0.0000 28.1486
#
#
#
# Elastic Compliance Matrix: (Units=1/GPa)
#
#
# Indices 1 2 3 4 5 6 
#
# 1 0.025413 0.005137 -0.010574 0.000000 0.000000 0.000000
# 2 0.005137 0.012465 -0.009525 0.000000 0.000000 0.000000
# 3 -0.010574 -0.009525 0.027776 0.000000 0.000000 0.000000
# 4 0.000000 0.000000 0.000000 0.028689 0.000000 0.000000
# 5 0.000000 0.000000 0.000000 0.000000 0.027118 0.000000
# 6 0.000000 0.000000 0.000000 0.000000 0.000000 0.035526
#
#
# Mechanical properties :
#
#
# Convention : Reuss Voigt Hill
#
# Bulk Modulus (GPa) = 27.98815 32.85927 30.42371
# Shear Modulus (GPa) = 25.14820 31.22424 28.18622
#
# Velocity S-wave (km/s) = 3.16308 3.52454 3.34869
# Velocity P-wave (km/s) = 4.94723 5.44391 5.20150
#
# Compressibility (1/GPa) = 0.03572941
#
# Stress axis : x y z
#
# Youngs Moduli (GPa) = 39.34946 80.22404 36.00281
#
# Poissons Ratio (x) = -0.41210 0.38069
# Poissons Ratio (y) = -0.20213 0.34294
# Poissons Ratio (z) = 0.41607 0.76416
#
# Static dielectric constant tensor:
#      x y z
#    x 2.049020 0.000000 0.000000 
#    y 0.000000 1.920370 0.000000 
#    z 0.000000 0.000000 1.969930 
# 
# From -- ./inp_files/10804.got.cif
#   From: 2010.05.17/outbox.cif.g08.bks.cpg/sg61_6_cif.got.tgz:10804.got - 2010.06.03 15:17:17.
