data_PCOD9460196
_publ_section_title
;
Structure prediction by ZEFSAII (Michael W. Deem and Ramdas Pophale) SiO2 
 PCOD9460196
Probable space group: P B C A
;
_chemical_formula_sum "Si O2"
_cell_formula_units_Z 56
_cell_length_a 16.276108
_cell_length_b 11.111668
_cell_length_c 14.095934
_cell_angle_alpha 90.000000
_cell_angle_beta 90.000000
_cell_angle_gamma 90.000000
_cell_volume 2549.316034
_symmetry_space_group_name_H-M "P B C A"
_symmetry_group_IT_number 61
_symmetry_cell_setting 'orthorhombic'
loop_
_space_group_symop_operation_xyz
x,y,z
1/2-x,-y,1/2+z
1/2+x,1/2-y,-z
-x,1/2+y,1/2-z
-x,-y,-z
1/2+x,y,1/2-z
1/2-x,1/2+y,z
x,1/2-y,1/2+z
loop_
_atom_site_type_symbol
_atom_site_label
_atom_site_fract_x
_atom_site_fract_y
_atom_site_fract_z
Si Si1 0.803834 0.187463 0.854171
Si Si2 0.462524 0.699837 0.013399
Si Si3 0.514457 0.862990 0.306566
Si Si4 0.212098 0.709961 0.336600
Si Si5 0.966166 0.112266 0.202055
Si Si6 0.622183 0.861524 0.007479
Si Si7 0.322276 0.879239 0.998177
O O1 0.887621 0.123855 0.821422
O O2 0.757512 0.233915 0.761381
O O3 0.835727 0.301054 0.915660
O O4 0.749178 0.108728 0.923879
O O5 0.486483 0.615619 0.101140
O O6 0.533181 0.802247 0.016474
O O7 0.470867 0.643003 0.909159
O O8 0.374892 0.761898 0.023281
O O9 0.504586 0.732328 0.257421
O O10 0.483044 0.981880 0.252831
O O11 0.131171 0.630144 0.314765
O O12 0.176720 0.815088 0.404448
O O13 0.279387 0.640089 0.396773
O O14 0.622607 0.003268 0.002387
#
# Coordination Sequence:
#
# PCOD9460196 Si02
#       7
#     8   8   8   8   8   8   8
#     4   9  21  39  57  85 121 154 194 254 309 348
#     4  10  22  38  58  87 122 160 202 243 295 358
#     4  10  22  41  66  91 119 157 202 249 300 359
#     4   9  21  39  57  85 121 154 194 254 309 348
#     4  10  22  41  66  91 119 157 202 249 300 359
#     4   9  20  38  57  84 119 156 204 256 296 342
#     4  11  22  36  60  87 120 164 205 241 295 364
#
# _framework density 21.966674999999999
#
# number of rings (size 3 to 8) (size 9 to 14) (size 15 to 20)
#    0.000    2.286    0.000    1.714    0.000   13.714 
#    0.000    0.000    0.000    0.000    0.000    0.000 
#    0.000    0.000    0.000    0.000    0.000    0.000 
#
# Total GULP energy -312950.184731 kJ/mol
# GULP energy per Si atom -5588.396156 kJ/mol
# Density = 2.191668 g / cm^3
# Si number density = 21.966675 Si / 1000 Ang^3
#
#
#
# Elastic Constant Matrix: (Units=GPa)
#
#
# Indices 1 2 3 4 5 6 
#
# 1 13.7453 5.0110 -12.6366 0.0000 0.0000 0.0000
# 2 5.0110 79.9452 -6.6369 0.0000 0.0000 0.0000
# 3 -12.6366 -6.6369 77.2517 0.0000 0.0000 0.0000
# 4 0.0000 0.0000 0.0000 -5.1686 0.0000 0.0000
# 5 0.0000 0.0000 0.0000 0.0000 7.2149 0.0000
# 6 0.0000 0.0000 0.0000 0.0000 0.0000 15.5096
#
#
#
# Elastic Compliance Matrix: (Units=1/GPa)
#
#
# Indices 1 2 3 4 5 6 
#
# 1 0.087076 -0.004306 0.013874 0.000000 0.000000 0.000000
# 2 -0.004306 0.012811 0.000396 0.000000 0.000000 0.000000
# 3 0.013874 0.000396 0.015248 0.000000 0.000000 0.000000
# 4 0.000000 0.000000 0.000000 -0.193475 0.000000 0.000000
# 5 0.000000 0.000000 0.000000 0.000000 0.138602 0.000000
# 6 0.000000 0.000000 0.000000 0.000000 0.000000 0.064476
#
#
# Mechanical properties :
#
#
# Convention : Reuss Voigt Hill
#
# Bulk Modulus (GPa) = 7.40393 15.82415 11.61404
# Shear Modulus (GPa) = 33.37053 15.85816 24.61435
#
# Velocity S-wave (km/s) = 3.90185 2.68977 3.35107
# Velocity P-wave (km/s) = 4.86591 4.10680 4.50238
#
# Compressibility (1/GPa) = 0.13506335
#
# Stress axis : x y z
#
# Youngs Moduli (GPa) = 11.48418 78.05568 65.58175
#
# Poissons Ratio (x) = 0.33612 -0.90986
# Poissons Ratio (y) = 0.04945 -0.02599
# Poissons Ratio (z) = -0.15933 -0.03093
#
# Static dielectric constant tensor:
#      x y z
#    x 1.779210 0.000000 0.000000 
#    y 0.000000 1.804200 0.000000 
#    z 0.000000 0.000000 1.847230 
# 
# From -- ./inp_files/7834.got.cif
#   From: 2010.05.17/outbox.cif.g08.bks.cpg/sg61_4_cif.got.tgz:7834.got - 2010.06.03 15:17:17.
