data_PCOD9460277
_publ_section_title
;
Structure prediction by ZEFSAII (Michael W. Deem and Ramdas Pophale) SiO2 
 PCOD9460277
Probable space group: P B C A
;
_chemical_formula_sum "Si O2"
_cell_formula_units_Z 40
_cell_length_a 30.765479
_cell_length_b 4.771890
_cell_length_c 10.239148
_cell_angle_alpha 90.000000
_cell_angle_beta 90.000000
_cell_angle_gamma 90.000000
_cell_volume 1503.204010
_symmetry_space_group_name_H-M "P B C A"
_symmetry_group_IT_number 61
_symmetry_cell_setting 'orthorhombic'
loop_
_space_group_symop_operation_xyz
x,y,z
1/2-x,-y,1/2+z
1/2+x,1/2-y,-z
-x,1/2+y,1/2-z
-x,-y,-z
1/2+x,y,1/2-z
1/2-x,1/2+y,z
x,1/2-y,1/2+z
loop_
_atom_site_type_symbol
_atom_site_label
_atom_site_fract_x
_atom_site_fract_y
_atom_site_fract_z
Si Si1 0.611904 0.894209 0.948313
Si Si2 0.943546 0.726287 0.283387
Si Si3 0.168031 0.346776 0.504563
Si Si4 0.535559 0.717344 0.117835
Si Si5 0.779281 0.943633 0.260075
O O1 0.644289 0.628567 0.943569
O O2 0.598835 0.110958 0.833059
O O3 0.633143 0.118589 0.047526
O O4 0.566622 0.772911 0.998355
O O5 0.943551 0.409493 0.233389
O O6 0.984188 0.767516 0.382511
O O7 0.959143 0.897485 0.157764
O O8 0.199234 0.408330 0.382272
O O9 0.192108 0.176870 0.620916
O O10 0.734676 0.765868 0.270572
#
# Coordination Sequence:
#
# PCOD9460277 Si02
#       5
#     8   8   8   8   8
#     4  12  25  41  66 102 147 175 238 298 356 406
#     4  10  22  40  64  93 136 194 244 289 348 413
#     4  12  28  43  77 110 139 185 226 292 360 420
#     4  10  22  40  64  93 136 194 244 289 348 413
#     4  12  26  52  76 104 142 180 230 276 354 448
#
# _framework density 26.609826999999999
#
# number of rings (size 3 to 8) (size 9 to 14) (size 15 to 20)
#    0.000    0.800    0.000    6.600    8.400    0.000 
#    0.000    8.000    0.000    0.000    0.000    0.000 
#    0.000    0.000    0.000    0.000    0.000    0.000 
#
# Total GULP energy -223904.777316 kJ/mol
# GULP energy per Si atom -5597.619433 kJ/mol
# Density = 2.654926 g / cm^3
# Si number density = 26.609827 Si / 1000 Ang^3
#
#
#
# Elastic Constant Matrix: (Units=GPa)
#
#
# Indices 1 2 3 4 5 6 
#
# 1 87.3697 24.7049 45.2726 0.0000 0.0000 0.0000
# 2 24.7049 125.4965 25.2370 0.0000 0.0000 0.0000
# 3 45.2726 25.2370 124.8820 0.0000 0.0000 0.0000
# 4 0.0000 0.0000 0.0000 35.7320 0.0000 0.0000
# 5 0.0000 0.0000 0.0000 0.0000 37.2219 0.0000
# 6 0.0000 0.0000 0.0000 0.0000 0.0000 62.9834
#
#
#
# Elastic Compliance Matrix: (Units=1/GPa)
#
#
# Indices 1 2 3 4 5 6 
#
# 1 0.014504 -0.001874 -0.004879 0.000000 0.000000 0.000000
# 2 -0.001874 0.008548 -0.001048 0.000000 0.000000 0.000000
# 3 -0.004879 -0.001048 0.009988 0.000000 0.000000 0.000000
# 4 0.000000 0.000000 0.000000 0.027986 0.000000 0.000000
# 5 0.000000 0.000000 0.000000 0.000000 0.026866 0.000000
# 6 0.000000 0.000000 0.000000 0.000000 0.000000 0.015877
#
#
# Mechanical properties :
#
#
# Convention : Reuss Voigt Hill
#
# Bulk Modulus (GPa) = 57.34799 58.68635 58.01717
# Shear Modulus (GPa) = 39.94109 43.35636 41.64872
#
# Velocity S-wave (km/s) = 3.87846 4.04088 3.96051
# Velocity P-wave (km/s) = 6.45406 6.62374 6.53945
#
# Compressibility (1/GPa) = 0.01743740
#
# Stress axis : x y z
#
# Youngs Moduli (GPa) = 68.94746 116.98608 100.11812
#
# Poissons Ratio (x) = 0.21923 0.48850
# Poissons Ratio (y) = 0.12921 0.10493
# Poissons Ratio (z) = 0.33641 0.12261
#
# Static dielectric constant tensor:
#      x y z
#    x 2.204160 0.000000 0.000000 
#    y 0.000000 2.006290 0.000000 
#    z 0.000000 0.000000 2.106740 
# 
# From -- ./inp_files/6662.got.cif
#   From: 2010.05.17/outbox.cif.g08.bks.cpg/sg61_4_cif.got.tgz:6662.got - 2010.06.03 15:17:17.
