data_PCOD9460557
_publ_section_title
;
Structure prediction by ZEFSAII (Michael W. Deem and Ramdas Pophale) SiO2 
 PCOD9460557
Probable space group: P B C A
;
_chemical_formula_sum "Si O2"
_cell_formula_units_Z 48
_cell_length_a 13.194414
_cell_length_b 9.284337
_cell_length_c 14.973615
_cell_angle_alpha 90.000000
_cell_angle_beta 90.000000
_cell_angle_gamma 90.000000
_cell_volume 1834.288592
_symmetry_space_group_name_H-M "P B C A"
_symmetry_group_IT_number 61
_symmetry_cell_setting 'orthorhombic'
loop_
_space_group_symop_operation_xyz
x,y,z
1/2-x,-y,1/2+z
1/2+x,1/2-y,-z
-x,1/2+y,1/2-z
-x,-y,-z
1/2+x,y,1/2-z
1/2-x,1/2+y,z
x,1/2-y,1/2+z
loop_
_atom_site_type_symbol
_atom_site_label
_atom_site_fract_x
_atom_site_fract_y
_atom_site_fract_z
Si Si1 0.875920 0.913139 0.447907
Si Si2 0.294974 0.682846 0.835143
Si Si3 0.465291 0.228185 0.057808
Si Si4 0.375840 0.394561 0.895869
Si Si5 0.176974 0.916843 0.157121
Si Si6 0.938627 0.698190 0.305077
O O1 0.760001 0.890658 0.420161
O O2 0.937798 0.842619 0.364754
O O3 0.922708 0.831300 0.533106
O O4 0.900040 0.081695 0.454240
O O5 0.335558 0.555337 0.896613
O O6 0.216765 0.787818 0.881555
O O7 0.232964 0.611405 0.751174
O O8 0.387969 0.764319 0.788149
O O9 0.417638 0.310131 0.142635
O O10 0.439798 0.344466 0.980667
O O11 0.452084 0.374615 0.811982
O O12 0.137593 0.079652 0.153216
#
# Coordination Sequence:
#
# PCOD9460557 Si02
#       6
#     8   8   8   8   8   8
#     4   9  20  41  65  99 136 173 228 285 350 421
#     4  11  24  46  65  97 141 180 233 288 357 430
#     4  10  23  42  67 103 135 178 230 295 349 418
#     4  11  26  44  65 104 137 177 237 297 357 410
#     4  11  22  43  70  97 134 192 229 277 361 436
#     4  10  23  43  70 100 130 187 238 281 358 435
#
# _framework density 26.168182999999999
#
# number of rings (size 3 to 8) (size 9 to 14) (size 15 to 20)
#    0.000    1.667    1.667    2.000    7.000    2.667 
#    3.000    0.000    0.000    0.000    0.000    0.000 
#    0.000    0.000    0.000    0.000    0.000    0.000 
#
# Total GULP energy -269071.247578 kJ/mol
# GULP energy per Si atom -5605.650991 kJ/mol
# Density = 2.610862 g / cm^3
# Si number density = 26.168183 Si / 1000 Ang^3
#
#
#
# Elastic Constant Matrix: (Units=GPa)
#
#
# Indices 1 2 3 4 5 6 
#
# 1 134.6221 38.7043 -4.6527 0.0000 0.0000 0.0000
# 2 38.7043 163.0688 21.2984 0.0000 0.0000 0.0000
# 3 -4.6527 21.2984 71.8665 0.0000 0.0000 0.0000
# 4 0.0000 0.0000 0.0000 31.7957 0.0000 0.0000
# 5 0.0000 0.0000 0.0000 0.0000 30.2293 0.0000
# 6 0.0000 0.0000 0.0000 0.0000 0.0000 39.6022
#
#
#
# Elastic Compliance Matrix: (Units=1/GPa)
#
#
# Indices 1 2 3 4 5 6 
#
# 1 0.008060 -0.002061 0.001133 0.000000 0.000000 0.000000
# 2 -0.002061 0.006906 -0.002180 0.000000 0.000000 0.000000
# 3 0.001133 -0.002180 0.014634 0.000000 0.000000 0.000000
# 4 0.000000 0.000000 0.000000 0.031451 0.000000 0.000000
# 5 0.000000 0.000000 0.000000 0.000000 0.033081 0.000000
# 6 0.000000 0.000000 0.000000 0.000000 0.000000 0.025251
#
#
# Mechanical properties :
#
#
# Convention : Reuss Voigt Hill
#
# Bulk Modulus (GPa) = 42.76568 53.36192 48.06380
# Shear Modulus (GPa) = 37.48288 41.27259 39.37773
#
# Velocity S-wave (km/s) = 3.78879 3.97571 3.88338
# Velocity P-wave (km/s) = 5.95970 6.44292 6.20601
#
# Compressibility (1/GPa) = 0.02338324
#
# Stress axis : x y z
#
# Youngs Moduli (GPa) = 124.07144 144.79540 68.33341
#
# Poissons Ratio (x) = 0.29841 -0.07739
# Poissons Ratio (y) = 0.25570 0.14898
# Poissons Ratio (z) = -0.14052 0.31568
#
# Static dielectric constant tensor:
#      x y z
#    x 2.046180 0.000000 0.000000 
#    y 0.000000 1.922330 0.000000 
#    z 0.000000 0.000000 2.138420 
# 
# From -- ./inp_files/9445.got.cif
#   From: 2010.05.17/outbox.cif.g08.bks.cpg/sg61_5_cif.got.tgz:9445.got - 2010.06.03 15:17:17.
