data_PCOD9460181
_publ_section_title
;
Structure prediction by ZEFSAII (Michael W. Deem and Ramdas Pophale) SiO2 
 PCOD9460181
Probable space group: P B C A
;
_chemical_formula_sum "Si O2"
_cell_formula_units_Z 64
_cell_length_a 9.407321
_cell_length_b 17.841722
_cell_length_c 17.738354
_cell_angle_alpha 90.000000
_cell_angle_beta 90.000000
_cell_angle_gamma 90.000000
_cell_volume 2977.255110
_symmetry_space_group_name_H-M "P B C A"
_symmetry_group_IT_number 61
_symmetry_cell_setting 'orthorhombic'
loop_
_space_group_symop_operation_xyz
x,y,z
1/2-x,-y,1/2+z
1/2+x,1/2-y,-z
-x,1/2+y,1/2-z
-x,-y,-z
1/2+x,y,1/2-z
1/2-x,1/2+y,z
x,1/2-y,1/2+z
loop_
_atom_site_type_symbol
_atom_site_label
_atom_site_fract_x
_atom_site_fract_y
_atom_site_fract_z
Si Si1 0.001027 0.046581 0.728026
Si Si2 0.209790 0.177719 0.083256
Si Si3 0.226653 0.744937 0.425931
Si Si4 0.559438 0.904386 0.547232
Si Si5 0.515987 0.775400 0.847640
Si Si6 0.282660 0.509340 0.837091
Si Si7 0.482848 0.785332 0.181643
Si Si8 0.978301 0.395737 0.380387
O O1 0.884849 0.011606 0.673199
O O2 0.052266 0.128323 0.700040
O O3 0.915513 0.065256 0.806262
O O4 0.131741 0.997387 0.758324
O O5 0.099346 0.108885 0.079482
O O6 0.131422 0.244232 0.129330
O O7 0.360832 0.169303 0.124633
O O8 0.233514 0.204060 0.997174
O O9 0.127530 0.678159 0.455161
O O10 0.365777 0.710027 0.387086
O O11 0.131708 0.784689 0.362481
O O12 0.558056 0.930276 0.460641
O O13 0.656737 0.951796 0.602566
O O14 0.498924 0.763067 0.758262
O O15 0.554206 0.691509 0.876967
O O16 0.353526 0.588165 0.864677
#
# Coordination Sequence:
#
# PCOD9460181 Si02
#       8
#     8   8   8   8   8   8   8   8
#     4   9  22  37  64  90 115 158 211 263 287 371
#     4  11  22  37  61  94 126 161 200 253 317 373
#     4  11  21  38  58  90 127 159 198 251 316 371
#     4  11  22  41  60  89 130 165 194 258 316 376
#     4  11  19  37  61  92 120 156 211 255 300 365
#     4  10  22  41  61  88 119 161 211 248 311 358
#     4  10  22  36  61  90 119 157 207 258 304 354
#     4   9  19  36  68  85 118 156 211 252 296 364
#
# _framework density 21.496310999999999
#
# number of rings (size 3 to 8) (size 9 to 14) (size 15 to 20)
#    0.750    1.000    2.500    2.625    3.500    0.000 
#    9.000    0.000    0.000    1.500    0.000    0.000 
#    0.000    0.000    0.000    0.000    0.000    0.000 
#
# Total GULP energy -356932.975763 kJ/mol
# GULP energy per Si atom -5577.077746 kJ/mol
# Density = 2.144738 g / cm^3
# Si number density = 21.496311 Si / 1000 Ang^3
#
#
#
# Elastic Constant Matrix: (Units=GPa)
#
#
# Indices 1 2 3 4 5 6 
#
# 1 58.3985 -17.8242 10.3747 0.0000 0.0000 0.0000
# 2 -17.8242 15.4523 -2.8616 0.0000 0.0000 0.0000
# 3 10.3747 -2.8616 96.5180 0.0000 0.0000 0.0000
# 4 0.0000 0.0000 0.0000 25.2010 0.0000 0.0000
# 5 0.0000 0.0000 0.0000 0.0000 31.3683 0.0000
# 6 0.0000 0.0000 0.0000 0.0000 0.0000 -6.9093
#
#
#
# Elastic Compliance Matrix: (Units=1/GPa)
#
#
# Indices 1 2 3 4 5 6 
#
# 1 0.026798 0.030545 -0.001975 0.000000 0.000000 0.000000
# 2 0.030545 0.099890 -0.000322 0.000000 0.000000 0.000000
# 3 -0.001975 -0.000322 0.010563 0.000000 0.000000 0.000000
# 4 0.000000 0.000000 0.000000 0.039681 0.000000 0.000000
# 5 0.000000 0.000000 0.000000 0.000000 0.031879 0.000000
# 6 0.000000 0.000000 0.000000 0.000000 0.000000 -0.144733
#
#
# Mechanical properties :
#
#
# Convention : Reuss Voigt Hill
#
# Bulk Modulus (GPa) = 5.16133 16.63849 10.89991
# Shear Modulus (GPa) = 69.28734 21.97734 45.63234
#
# Velocity S-wave (km/s) = 5.68350 3.20093 4.61238
# Velocity P-wave (km/s) = 6.74358 4.62799 5.78334
#
# Compressibility (1/GPa) = 0.19374837
#
# Stress axis : x y z
#
# Youngs Moduli (GPa) = 37.31689 10.01102 94.66564
#
# Poissons Ratio (x) = -0.30579 0.18695
# Poissons Ratio (y) = -1.13985 0.03045
# Poissons Ratio (z) = 0.07369 0.00322
#
# Static dielectric constant tensor:
#      x y z
#    x 1.808960 0.000000 0.000000 
#    y 0.000000 1.815430 0.000000 
#    z 0.000000 0.000000 1.797970 
# 
# From -- ./inp_files/9037.got.cif
#   From: 2010.05.17/outbox.cif.g08.bks.cpg/sg61_5_cif.got.tgz:9037.got - 2010.06.03 15:17:17.
