data_PCOD9460338
_publ_section_title
;
Structure prediction by ZEFSAII (Michael W. Deem and Ramdas Pophale) SiO2 
 PCOD9460338
Probable space group: P B C A
;
_chemical_formula_sum "Si O2"
_cell_formula_units_Z 60
_cell_length_a 25.484035
_cell_length_b 5.707355
_cell_length_c 16.590360
_cell_angle_alpha 90.000000
_cell_angle_beta 90.000000
_cell_angle_gamma 90.000000
_cell_volume 2413.008710
_symmetry_space_group_name_H-M "P B C A"
_symmetry_group_IT_number 61
_symmetry_cell_setting 'orthorhombic'
loop_
_space_group_symop_operation_xyz
x,y,z
1/2-x,-y,1/2+z
1/2+x,1/2-y,-z
-x,1/2+y,1/2-z
-x,-y,-z
1/2+x,y,1/2-z
1/2-x,1/2+y,z
x,1/2-y,1/2+z
loop_
_atom_site_type_symbol
_atom_site_label
_atom_site_fract_x
_atom_site_fract_y
_atom_site_fract_z
Si Si1 0.371076 0.068500 0.006458
Si Si2 0.878199 0.568939 0.417209
Si Si3 0.988203 0.074298 0.877250
Si Si4 0.000000 0.500000 0.000000
Si Si5 0.633082 0.174014 0.760572
Si Si6 0.562468 0.693534 0.224103
Si Si7 0.255898 0.981142 0.200901
Si Si8 0.835167 0.456028 0.164345
O O1 0.361718 0.307663 0.057598
O O2 0.358794 0.810467 0.042952
O O3 0.434485 0.055284 0.994101
O O4 0.333491 0.098572 0.929151
O O5 0.941602 0.560093 0.422989
O O6 0.864955 0.613662 0.323781
O O7 0.004598 0.300615 0.927162
O O8 0.967448 0.149573 0.788413
O O9 0.031581 0.883242 0.855191
O O10 0.683734 0.019256 0.773977
O O11 0.639394 0.284116 0.673033
O O12 0.579327 0.040557 0.772281
O O13 0.617628 0.795642 0.196334
O O14 0.251264 0.729561 0.157966
O O15 0.217481 0.964775 0.280338
#
# Coordination Sequence:
#
# PCOD9460338 Si02
#       8
#     8   8   8   4   8   8   8   8
#     4  11  27  41  68  98 148 188 238 284 363 432
#     4  11  25  45  65 102 143 193 231 294 354 445
#     4  11  25  41  68 102 151 187 258 289 373 434
#     4  10  24  42  62  98 138 208 226 290 352 452
#     4  11  22  44  75  99 138 184 241 305 369 431
#     4  12  24  42  68 108 139 192 240 319 351 437
#     4  10  22  41  71 105 130 171 237 300 362 427
#     4  11  25  43  70 107 136 187 246 308 366 431
#
# _framework density 24.865223
#
# number of rings (size 3 to 8) (size 9 to 14) (size 15 to 20)
#    0.000    1.067    2.667    3.200    7.467    1.067 
#    0.000    0.000    0.000   19.200    0.000    0.000 
#    0.000    0.000    0.000    0.000    0.000    0.000 
#
# Total GULP energy -334045.299633 kJ/mol
# GULP energy per Si atom -5567.421661 kJ/mol
# Density = 2.480863 g / cm^3
# Si number density = 24.865223 Si / 1000 Ang^3
#
#
#
# Elastic Constant Matrix: (Units=GPa)
#
#
# Indices 1 2 3 4 5 6 
#
# 1 83.0108 16.3207 13.7193 0.0000 0.0000 0.0000
# 2 16.3207 153.1001 31.3389 0.0000 0.0000 0.0000
# 3 13.7193 31.3389 72.5459 0.0000 0.0000 0.0000
# 4 0.0000 0.0000 0.0000 44.5222 0.0000 0.0000
# 5 0.0000 0.0000 0.0000 0.0000 23.5778 0.0000
# 6 0.0000 0.0000 0.0000 0.0000 0.0000 32.9844
#
#
#
# Elastic Compliance Matrix: (Units=1/GPa)
#
#
# Indices 1 2 3 4 5 6 
#
# 1 0.012556 -0.000935 -0.001971 0.000000 0.000000 0.000000
# 2 -0.000935 0.007235 -0.002949 0.000000 0.000000 0.000000
# 3 -0.001971 -0.002949 0.015431 0.000000 0.000000 0.000000
# 4 0.000000 0.000000 0.000000 0.022461 0.000000 0.000000
# 5 0.000000 0.000000 0.000000 0.000000 0.042413 0.000000
# 6 0.000000 0.000000 0.000000 0.000000 0.000000 0.030317
#
#
# Mechanical properties :
#
#
# Convention : Reuss Voigt Hill
#
# Bulk Modulus (GPa) = 42.52900 47.93495 45.23197
# Shear Modulus (GPa) = 33.34248 36.70209 35.02229
#
# Velocity S-wave (km/s) = 3.66584 3.84610 3.75705
# Velocity P-wave (km/s) = 5.92105 6.24844 6.08695
#
# Compressibility (1/GPa) = 0.02351337
#
# Stress axis : x y z
#
# Youngs Moduli (GPa) = 79.64224 138.21869 64.80557
#
# Poissons Ratio (x) = 0.12925 0.12770
# Poissons Ratio (y) = 0.07448 0.19108
# Poissons Ratio (z) = 0.15694 0.40754
#
# Static dielectric constant tensor:
#      x y z
#    x 2.003970 0.000000 0.000000 
#    y 0.000000 1.512610 0.000000 
#    z 0.000000 0.000000 2.016560 
# 
# From -- ./inp_files/9875.got.cif
#   From: 2010.05.17/outbox.cif.g08.bks.cpg/sg61_5_cif.got.tgz:9875.got - 2010.06.03 15:17:17.
