data_PCOD9460914
_publ_section_title
;
Structure prediction by ZEFSAII (Michael W. Deem and Ramdas Pophale) SiO2 
 PCOD9460914
Probable space group: P B C A
;
_chemical_formula_sum "Si O2"
_cell_formula_units_Z 36
_cell_length_a 7.320887
_cell_length_b 14.467990
_cell_length_c 12.479068
_cell_angle_alpha 90.000000
_cell_angle_beta 90.000000
_cell_angle_gamma 90.000000
_cell_volume 1321.764412
_symmetry_space_group_name_H-M "P B C A"
_symmetry_group_IT_number 61
_symmetry_cell_setting 'orthorhombic'
loop_
_space_group_symop_operation_xyz
x,y,z
1/2-x,-y,1/2+z
1/2+x,1/2-y,-z
-x,1/2+y,1/2-z
-x,-y,-z
1/2+x,y,1/2-z
1/2-x,1/2+y,z
x,1/2-y,1/2+z
loop_
_atom_site_type_symbol
_atom_site_label
_atom_site_fract_x
_atom_site_fract_y
_atom_site_fract_z
Si Si1 0.953305 0.833109 0.639442
Si Si2 0.120242 0.186838 0.127972
Si Si3 0.874629 0.630461 0.598162
Si Si4 0.515265 0.100881 0.829399
Si Si5 0.500000 0.000000 0.000000
O O1 0.931522 0.862675 0.762002
O O2 0.838794 0.738897 0.624764
O O3 0.906727 0.907066 0.551843
O O4 0.162147 0.805392 0.619269
O O5 0.060861 0.293706 0.142744
O O6 0.051113 0.135026 0.021578
O O7 0.674465 0.581486 0.602622
O O8 0.986846 0.596228 0.701328
O O9 0.621712 0.017983 0.884836
#
# Coordination Sequence:
#
# PCOD9460914 Si02
#       5
#     8   8   8   8   4
#     4  11  24  41  73  97 135 168 227 268 335 373
#     4  11  21  44  67  97 121 183 223 262 312 416
#     4  11  21  44  67  97 121 183 223 262 312 416
#     4  11  24  41  73  97 135 168 227 268 335 373
#     4  12  24  44  62 106 140 166 204 300 324 380
#
# _framework density 27.236321
#
# number of rings (size 3 to 8) (size 9 to 14) (size 15 to 20)
#    0.000    0.889    4.444    5.333    0.000    1.778 
#    4.000    1.111    0.000    0.000    0.000    0.000 
#    0.000    0.000    0.000    0.000    0.000    0.000 
#
# Total GULP energy -200695.502860 kJ/mol
# GULP energy per Si atom -5574.875079 kJ/mol
# Density = 2.717433 g / cm^3
# Si number density = 27.236321 Si / 1000 Ang^3
#
#
#
# Elastic Constant Matrix: (Units=GPa)
#
#
# Indices 1 2 3 4 5 6 
#
# 1 78.5916 19.5323 1.8001 0.0000 0.0000 0.0000
# 2 19.5323 72.6131 6.9015 0.0000 0.0000 0.0000
# 3 1.8001 6.9015 221.1195 0.0000 0.0000 0.0000
# 4 0.0000 0.0000 0.0000 40.2855 0.0000 0.0000
# 5 0.0000 0.0000 0.0000 0.0000 32.4330 0.0000
# 6 0.0000 0.0000 0.0000 0.0000 0.0000 15.2954
#
#
#
# Elastic Compliance Matrix: (Units=1/GPa)
#
#
# Indices 1 2 3 4 5 6 
#
# 1 0.013636 -0.003668 0.000003 0.000000 0.000000 0.000000
# 2 -0.003668 0.014799 -0.000432 0.000000 0.000000 0.000000
# 3 0.000003 -0.000432 0.004536 0.000000 0.000000 0.000000
# 4 0.000000 0.000000 0.000000 0.024823 0.000000 0.000000
# 5 0.000000 0.000000 0.000000 0.000000 0.030833 0.000000
# 6 0.000000 0.000000 0.000000 0.000000 0.000000 0.065379
#
#
# Mechanical properties :
#
#
# Convention : Reuss Voigt Hill
#
# Bulk Modulus (GPa) = 40.35941 47.64356 44.00148
# Shear Modulus (GPa) = 29.33271 40.54213 34.93742
#
# Velocity S-wave (km/s) = 3.28528 3.86234 3.58544
# Velocity P-wave (km/s) = 5.40751 6.11725 5.77330
#
# Compressibility (1/GPa) = 0.02477737
#
# Stress axis : x y z
#
# Youngs Moduli (GPa) = 73.33760 67.57031 220.46348
#
# Poissons Ratio (x) = 0.24786 -0.00077
# Poissons Ratio (y) = 0.26902 0.09525
# Poissons Ratio (z) = -0.00026 0.02919
#
# Static dielectric constant tensor:
#      x y z
#    x 1.877330 0.000000 0.000000 
#    y 0.000000 1.522310 0.000000 
#    z 0.000000 0.000000 2.018880 
# 
# From -- ./inp_files/6942.got.cif
#   From: 2010.05.17/outbox.cif.g08.bks.cpg/sg61_4_cif.got.tgz:6942.got - 2010.06.03 15:17:17.
