data_PCOD9460132
_publ_section_title
;
Structure prediction by ZEFSAII (Michael W. Deem and Ramdas Pophale) SiO2 
 PCOD9460132
Probable space group: P B C A
;
_chemical_formula_sum "Si O2"
_cell_formula_units_Z 40
_cell_length_a 16.284749
_cell_length_b 10.178546
_cell_length_c 10.967165
_cell_angle_alpha 90.000000
_cell_angle_beta 90.000000
_cell_angle_gamma 90.000000
_cell_volume 1817.863167
_symmetry_space_group_name_H-M "P B C A"
_symmetry_group_IT_number 61
_symmetry_cell_setting 'orthorhombic'
loop_
_space_group_symop_operation_xyz
x,y,z
1/2-x,-y,1/2+z
1/2+x,1/2-y,-z
-x,1/2+y,1/2-z
-x,-y,-z
1/2+x,y,1/2-z
1/2-x,1/2+y,z
x,1/2-y,1/2+z
loop_
_atom_site_type_symbol
_atom_site_label
_atom_site_fract_x
_atom_site_fract_y
_atom_site_fract_z
Si Si1 0.442885 0.096389 0.920527
Si Si2 0.991304 0.365975 0.577489
Si Si3 0.416469 0.555016 0.749875
Si Si4 0.837937 0.832495 0.009812
Si Si5 0.702826 0.456591 0.480974
O O1 0.442645 0.242075 0.977006
O O2 0.495813 0.109742 0.797420
O O3 0.355191 0.027650 0.918037
O O4 0.500000 0.000000 0.000000
O O5 0.085760 0.318859 0.583691
O O6 0.000000 0.500000 0.500000
O O7 0.942417 0.413936 0.695242
O O8 0.377592 0.641805 0.857527
O O9 0.349898 0.536804 0.643621
O O10 0.787972 0.696984 0.009714
O O11 0.784489 0.958461 0.975316
#
# Coordination Sequence:
#
# PCOD9460132 Si02
#       5
#     8   8   8   8   8
#     4  10  21  43  67  97 130 180 227 278 327 405
#     4  10  22  41  68  99 131 175 233 275 328 405
#     4  10  24  42  73  96 132 186 227 273 350 383
#     4  11  25  46  66 102 140 174 224 284 332 410
#     4  11  26  45  68 102 142 173 227 280 341 406
#
# _framework density 22.003855999999999
#
# number of rings (size 3 to 8) (size 9 to 14) (size 15 to 20)
#    0.000    1.600    4.000    0.000    8.400    4.800 
#    0.000    0.000    0.000    0.000    0.000    0.000 
#    0.000    0.000    0.000    0.000    0.000    0.000 
#
# Total GULP energy -223142.217892 kJ/mol
# GULP energy per Si atom -5578.555447 kJ/mol
# Density = 2.195377 g / cm^3
# Si number density = 22.003856 Si / 1000 Ang^3
#
#
#
# Elastic Constant Matrix: (Units=GPa)
#
#
# Indices 1 2 3 4 5 6 
#
# 1 43.1034 12.7691 15.7221 0.0000 0.0000 0.0000
# 2 12.7691 163.1952 16.8516 0.0000 0.0000 0.0000
# 3 15.7221 16.8516 76.4337 0.0000 0.0000 0.0000
# 4 0.0000 0.0000 0.0000 26.6493 0.0000 0.0000
# 5 0.0000 0.0000 0.0000 0.0000 28.9704 0.0000
# 6 0.0000 0.0000 0.0000 0.0000 0.0000 49.1507
#
#
#
# Elastic Compliance Matrix: (Units=1/GPa)
#
#
# Indices 1 2 3 4 5 6 
#
# 1 0.025428 -0.001483 -0.004903 0.000000 0.000000 0.000000
# 2 -0.001483 0.006357 -0.001096 0.000000 0.000000 0.000000
# 3 -0.004903 -0.001096 0.014334 0.000000 0.000000 0.000000
# 4 0.000000 0.000000 0.000000 0.037524 0.000000 0.000000
# 5 0.000000 0.000000 0.000000 0.000000 0.034518 0.000000
# 6 0.000000 0.000000 0.000000 0.000000 0.000000 0.020346
#
#
# Mechanical properties :
#
#
# Convention : Reuss Voigt Hill
#
# Bulk Modulus (GPa) = 32.10039 41.49086 36.79563
# Shear Modulus (GPa) = 30.51443 36.78003 33.64723
#
# Velocity S-wave (km/s) = 3.72798 4.09287 3.91468
# Velocity P-wave (km/s) = 5.75766 6.42125 6.09849
#
# Compressibility (1/GPa) = 0.03115227
#
# Stress axis : x y z
#
# Youngs Moduli (GPa) = 39.32672 157.30922 69.76618
#
# Poissons Ratio (x) = 0.23333 0.34209
# Poissons Ratio (y) = 0.05833 0.07649
# Poissons Ratio (z) = 0.19284 0.17248
#
# Static dielectric constant tensor:
#      x y z
#    x 1.821450 0.000000 0.000000 
#    y 0.000000 1.867610 0.000000 
#    z 0.000000 0.000000 1.904760 
# 
# From -- ./inp_files/2121.got.cif
#   From: 2010.05.17/outbox.cif.g08.bks.cpg/sg61_2_cif.got.tgz:2121.got - 2010.06.03 15:17:17.
