data_PCOD9460337
_publ_section_title
;
Structure prediction by ZEFSAII (Michael W. Deem and Ramdas Pophale) SiO2 
 PCOD9460337
Probable space group: P B C A
;
_chemical_formula_sum "Si O2"
_cell_formula_units_Z 48
_cell_length_a 7.994288
_cell_length_b 16.010907
_cell_length_c 14.366661
_cell_angle_alpha 90.000000
_cell_angle_beta 90.000000
_cell_angle_gamma 90.000000
_cell_volume 1838.872292
_symmetry_space_group_name_H-M "P B C A"
_symmetry_group_IT_number 61
_symmetry_cell_setting 'orthorhombic'
loop_
_space_group_symop_operation_xyz
x,y,z
1/2-x,-y,1/2+z
1/2+x,1/2-y,-z
-x,1/2+y,1/2-z
-x,-y,-z
1/2+x,y,1/2-z
1/2-x,1/2+y,z
x,1/2-y,1/2+z
loop_
_atom_site_type_symbol
_atom_site_label
_atom_site_fract_x
_atom_site_fract_y
_atom_site_fract_z
Si Si1 0.975535 0.795376 0.691690
Si Si2 0.523156 0.234429 0.885663
Si Si3 0.854574 0.068486 0.602686
Si Si4 0.737421 0.924064 0.717714
Si Si5 0.765863 0.002290 0.407128
Si Si6 0.864741 0.171075 0.957972
O O1 0.905260 0.749139 0.782989
O O2 0.104103 0.859120 0.741585
O O3 0.042728 0.729573 0.618235
O O4 0.848754 0.864129 0.652691
O O5 0.376676 0.165600 0.874549
O O6 0.672868 0.200218 0.948795
O O7 0.450888 0.311099 0.943921
O O8 0.044615 0.031575 0.616728
O O9 0.729081 0.011458 0.662730
O O10 0.799308 0.060574 0.495646
O O11 0.811600 0.954162 0.817233
O O12 0.647228 0.925885 0.434546
#
# Coordination Sequence:
#
# PCOD9460337 Si02
#       6
#     8   8   8   8   8   8
#     4  12  25  43  68  98 139 178 226 286 339 408
#     4  11  25  43  68 101 134 178 226 279 344 406
#     4  10  22  41  70  94 135 180 220 279 341 404
#     4  12  23  44  69  98 132 177 231 278 339 406
#     4  10  22  43  68  98 134 177 226 274 342 407
#     4  11  25  44  68  99 138 176 226 279 341 407
#
# _framework density 26.102955999999999
#
# number of rings (size 3 to 8) (size 9 to 14) (size 15 to 20)
#    0.000    1.000    3.333    3.000    7.000    0.000 
#    3.000    1.667    0.000    0.000    0.000    0.000 
#    0.000    0.000    0.000    0.000    0.000    0.000 
#
# Total GULP energy -268458.318099 kJ/mol
# GULP energy per Si atom -5592.881627 kJ/mol
# Density = 2.604354 g / cm^3
# Si number density = 26.102956 Si / 1000 Ang^3
#
#
#
# Elastic Constant Matrix: (Units=GPa)
#
#
# Indices 1 2 3 4 5 6 
#
# 1 47.9100 11.1508 8.5510 0.0000 0.0000 0.0000
# 2 11.1508 63.2867 21.6127 0.0000 0.0000 0.0000
# 3 8.5510 21.6127 130.0166 0.0000 0.0000 0.0000
# 4 0.0000 0.0000 0.0000 57.9445 0.0000 0.0000
# 5 0.0000 0.0000 0.0000 0.0000 38.3142 0.0000
# 6 0.0000 0.0000 0.0000 0.0000 0.0000 16.6939
#
#
#
# Elastic Compliance Matrix: (Units=1/GPa)
#
#
# Indices 1 2 3 4 5 6 
#
# 1 0.021852 -0.003562 -0.000845 0.000000 0.000000 0.000000
# 2 -0.003562 0.017333 -0.002647 0.000000 0.000000 0.000000
# 3 -0.000845 -0.002647 0.008187 0.000000 0.000000 0.000000
# 4 0.000000 0.000000 0.000000 0.017258 0.000000 0.000000
# 5 0.000000 0.000000 0.000000 0.000000 0.026100 0.000000
# 6 0.000000 0.000000 0.000000 0.000000 0.000000 0.059902
#
#
# Mechanical properties :
#
#
# Convention : Reuss Voigt Hill
#
# Bulk Modulus (GPa) = 30.06225 35.98248 33.02237
# Shear Modulus (GPa) = 28.43699 35.91711 32.17705
#
# Velocity S-wave (km/s) = 3.30421 3.71344 3.51479
# Velocity P-wave (km/s) = 5.10871 5.67459 5.39907
#
# Compressibility (1/GPa) = 0.03326431
#
# Stress axis : x y z
#
# Youngs Moduli (GPa) = 45.76188 57.69473 122.14612
#
# Poissons Ratio (x) = 0.20549 0.10323
# Poissons Ratio (y) = 0.16299 0.32332
# Poissons Ratio (z) = 0.03868 0.15272
#
# Static dielectric constant tensor:
#      x y z
#    x 2.200880 0.000000 0.000000 
#    y 0.000000 2.031170 0.000000 
#    z 0.000000 0.000000 2.234820 
# 
# From -- ./inp_files/7052.got.cif
#   From: 2010.05.17/outbox.cif.g08.bks.cpg/sg61_4_cif.got.tgz:7052.got - 2010.06.03 15:17:17.
