data_PCOD9460527
_publ_section_title
;
Structure prediction by ZEFSAII (Michael W. Deem and Ramdas Pophale) SiO2 
 PCOD9460527
Probable space group: P B C A
;
_chemical_formula_sum "Si O2"
_cell_formula_units_Z 40
_cell_length_a 16.118384
_cell_length_b 8.820623
_cell_length_c 8.921126
_cell_angle_alpha 90.000000
_cell_angle_beta 90.000000
_cell_angle_gamma 90.000000
_cell_volume 1268.353851
_symmetry_space_group_name_H-M "P B C A"
_symmetry_group_IT_number 61
_symmetry_cell_setting 'orthorhombic'
loop_
_space_group_symop_operation_xyz
x,y,z
1/2-x,-y,1/2+z
1/2+x,1/2-y,-z
-x,1/2+y,1/2-z
-x,-y,-z
1/2+x,y,1/2-z
1/2-x,1/2+y,z
x,1/2-y,1/2+z
loop_
_atom_site_type_symbol
_atom_site_label
_atom_site_fract_x
_atom_site_fract_y
_atom_site_fract_z
Si Si1 0.778731 0.915686 0.803794
Si Si2 0.930387 0.292913 0.063504
Si Si3 0.986551 0.451710 0.764454
Si Si4 0.236277 0.621372 0.483532
Si Si5 0.825360 0.865074 0.250510
O O1 0.774663 0.747961 0.883674
O O2 0.699175 0.007425 0.897099
O O3 0.814003 0.802354 0.660769
O O4 0.734698 0.012670 0.659777
O O5 0.993009 0.161717 0.124561
O O6 0.838471 0.227912 0.091685
O O7 0.943125 0.448752 0.156240
O O8 0.953035 0.338724 0.894925
O O9 0.917834 0.580873 0.729279
O O10 0.165353 0.525728 0.598204
#
# Coordination Sequence:
#
# PCOD9460527 Si02
#       5
#     8   8   8   8   8
#     4  10  23  40  72 104 149 190 243 312 370 437
#     4  11  25  52  74 109 150 205 245 317 362 462
#     4  11  26  51  76 107 152 197 260 298 389 442
#     4  10  23  42  74 105 148 187 247 311 371 423
#     4  10  23  43  68 108 142 192 242 304 364 445
#
# _framework density 31.536940000000001
#
# number of rings (size 3 to 8) (size 9 to 14) (size 15 to 20)
#    1.200    0.400    2.000    1.200    2.800    2.400 
#   21.600    0.000    0.000    0.000    0.000    0.000 
#    0.000    0.000    0.000    0.000    0.000    0.000 
#
# Total GULP energy -223020.169875 kJ/mol
# GULP energy per Si atom -5575.504247 kJ/mol
# Density = 3.146516 g / cm^3
# Si number density = 31.536940 Si / 1000 Ang^3
#
#
#
# Elastic Constant Matrix: (Units=GPa)
#
#
# Indices 1 2 3 4 5 6 
#
# 1 71.5885 67.6218 35.1859 0.0000 0.0000 0.0000
# 2 67.6218 313.1992 63.2831 0.0000 0.0000 0.0000
# 3 35.1859 63.2831 301.1787 0.0000 0.0000 0.0000
# 4 0.0000 0.0000 0.0000 76.6431 0.0000 0.0000
# 5 0.0000 0.0000 0.0000 0.0000 36.8492 0.0000
# 6 0.0000 0.0000 0.0000 0.0000 0.0000 79.1428
#
#
#
# Elastic Compliance Matrix: (Units=1/GPa)
#
#
# Indices 1 2 3 4 5 6 
#
# 1 0.018056 -0.003626 -0.001348 0.000000 0.000000 0.000000
# 2 -0.003626 0.004063 -0.000430 0.000000 0.000000 0.000000
# 3 -0.001348 -0.000430 0.003568 0.000000 0.000000 0.000000
# 4 0.000000 0.000000 0.000000 0.013047 0.000000 0.000000
# 5 0.000000 0.000000 0.000000 0.000000 0.027138 0.000000
# 6 0.000000 0.000000 0.000000 0.000000 0.000000 0.012635
#
#
# Mechanical properties :
#
#
# Convention : Reuss Voigt Hill
#
# Bulk Modulus (GPa) = 67.20631 113.12756 90.16693
# Shear Modulus (GPa) = 53.03638 73.18538 63.11088
#
# Velocity S-wave (km/s) = 4.10533 4.82251 4.47830
# Velocity P-wave (km/s) = 6.62029 8.18280 7.44266
#
# Compressibility (1/GPa) = 0.01487956
#
# Stress axis : x y z
#
# Youngs Moduli (GPa) = 55.38228 246.14407 280.26366
#
# Poissons Ratio (x) = 0.89257 0.37767
# Poissons Ratio (y) = 0.20083 0.12051
# Poissons Ratio (z) = 0.07463 0.10584
#
# Static dielectric constant tensor:
#      x y z
#    x 2.405110 0.000000 0.000000 
#    y 0.000000 2.320910 0.000000 
#    z 0.000000 0.000000 2.556640 
# 
# From -- ./inp_files/3821.got.cif
#   From: 2010.05.17/outbox.cif.g08.bks.cpg/sg61_2_cif.got.tgz:3821.got - 2010.06.03 15:17:17.
