data_PCOD9460879
_publ_section_title
;
Structure prediction by ZEFSAII (Michael W. Deem and Ramdas Pophale) SiO2 
 PCOD9460879
Probable space group: P B C A
;
_chemical_formula_sum "Si O2"
_cell_formula_units_Z 48
_cell_length_a 12.812333
_cell_length_b 9.015057
_cell_length_c 17.020761
_cell_angle_alpha 90.000000
_cell_angle_beta 90.000000
_cell_angle_gamma 90.000000
_cell_volume 1965.964486
_symmetry_space_group_name_H-M "P B C A"
_symmetry_group_IT_number 61
_symmetry_cell_setting 'orthorhombic'
loop_
_space_group_symop_operation_xyz
x,y,z
1/2-x,-y,1/2+z
1/2+x,1/2-y,-z
-x,1/2+y,1/2-z
-x,-y,-z
1/2+x,y,1/2-z
1/2-x,1/2+y,z
x,1/2-y,1/2+z
loop_
_atom_site_type_symbol
_atom_site_label
_atom_site_fract_x
_atom_site_fract_y
_atom_site_fract_z
Si Si1 0.241163 0.661983 0.702391
Si Si2 0.749173 0.085827 0.401964
Si Si3 0.494938 0.877099 0.635738
Si Si4 0.471409 0.439638 0.286185
Si Si5 0.817989 0.514185 0.566593
Si Si6 0.844688 0.682604 0.153207
O O1 0.297033 0.521679 0.663741
O O2 0.210396 0.755208 0.624923
O O3 0.140513 0.612612 0.750139
O O4 0.313537 0.753268 0.761464
O O5 0.623344 0.090733 0.389541
O O6 0.755274 0.031328 0.490268
O O7 0.498211 0.707082 0.665517
O O8 0.524529 0.988685 0.708268
O O9 0.576809 0.915910 0.566955
O O10 0.447627 0.583021 0.340097
O O11 0.747095 0.428208 0.628939
O O12 0.846651 0.680112 0.593968
#
# Coordination Sequence:
#
# PCOD9460879 Si02
#       6
#     8   8   8   8   8   8
#     4  11  20  41  61  89 118 159 218 252 295 375
#     4  11  25  39  62  92 129 165 203 259 328 365
#     4  11  23  39  61  91 132 157 210 258 323 377
#     4  11  23  38  66  96 118 169 212 267 305 365
#     4  12  23  40  62  93 129 167 203 265 315 384
#     4  12  21  41  67  91 119 167 224 255 306 368
#
# _framework density 24.415497999999999
#
# number of rings (size 3 to 8) (size 9 to 14) (size 15 to 20)
#    0.000    0.667    6.667    2.500    0.000    0.000 
#    0.000    0.833    0.000    0.000    0.000    0.000 
#    0.000    0.000    0.000    0.000    0.000    0.000 
#
# Total GULP energy -268366.263301 kJ/mol
# GULP energy per Si atom -5590.963819 kJ/mol
# Density = 2.435993 g / cm^3
# Si number density = 24.415498 Si / 1000 Ang^3
#
#
#
# Elastic Constant Matrix: (Units=GPa)
#
#
# Indices 1 2 3 4 5 6 
#
# 1 27.2176 -0.0969 2.8019 0.0000 0.0000 0.0000
# 2 -0.0969 109.9758 19.0121 0.0000 0.0000 0.0000
# 3 2.8019 19.0121 63.4521 0.0000 0.0000 0.0000
# 4 0.0000 0.0000 0.0000 34.6896 0.0000 0.0000
# 5 0.0000 0.0000 0.0000 0.0000 25.2839 0.0000
# 6 0.0000 0.0000 0.0000 0.0000 0.0000 36.2251
#
#
#
# Elastic Compliance Matrix: (Units=1/GPa)
#
#
# Indices 1 2 3 4 5 6 
#
# 1 0.036920 0.000332 -0.001730 0.000000 0.000000 0.000000
# 2 0.000332 0.009593 -0.002889 0.000000 0.000000 0.000000
# 3 -0.001730 -0.002889 0.016702 0.000000 0.000000 0.000000
# 4 0.000000 0.000000 0.000000 0.028827 0.000000 0.000000
# 5 0.000000 0.000000 0.000000 0.000000 0.039551 0.000000
# 6 0.000000 0.000000 0.000000 0.000000 0.000000 0.027605
#
#
# Mechanical properties :
#
#
# Convention : Reuss Voigt Hill
#
# Bulk Modulus (GPa) = 18.30139 27.11998 22.71069
# Shear Modulus (GPa) = 26.88383 31.16826 29.02605
#
# Velocity S-wave (km/s) = 3.32188 3.57680 3.45169
# Velocity P-wave (km/s) = 4.71437 5.30941 5.02071
#
# Compressibility (1/GPa) = 0.05464066
#
# Stress axis : x y z
#
# Youngs Moduli (GPa) = 27.08549 104.24685 59.87350
#
# Poissons Ratio (x) = -0.03456 0.10356
# Poissons Ratio (y) = -0.00898 0.17297
# Poissons Ratio (z) = 0.04685 0.30116
#
# Static dielectric constant tensor:
#      x y z
#    x 1.983280 0.000000 0.000000 
#    y 0.000000 1.934120 0.000000 
#    z 0.000000 0.000000 1.953980 
# 
# From -- ./inp_files/7093.got.cif
#   From: 2010.05.17/outbox.cif.g08.bks.cpg/sg61_4_cif.got.tgz:7093.got - 2010.06.03 15:17:17.
