data_PCOD9460073
_publ_section_title
;
Structure prediction by ZEFSAII (Michael W. Deem and Ramdas Pophale) SiO2 
 PCOD9460073
Probable space group: P B C A
;
_chemical_formula_sum "Si O2"
_cell_formula_units_Z 48
_cell_length_a 8.504354
_cell_length_b 24.615227
_cell_length_c 9.028952
_cell_angle_alpha 90.000000
_cell_angle_beta 90.000000
_cell_angle_gamma 90.000000
_cell_volume 1890.090151
_symmetry_space_group_name_H-M "P B C A"
_symmetry_group_IT_number 61
_symmetry_cell_setting 'orthorhombic'
loop_
_space_group_symop_operation_xyz
x,y,z
1/2-x,-y,1/2+z
1/2+x,1/2-y,-z
-x,1/2+y,1/2-z
-x,-y,-z
1/2+x,y,1/2-z
1/2-x,1/2+y,z
x,1/2-y,1/2+z
loop_
_atom_site_type_symbol
_atom_site_label
_atom_site_fract_x
_atom_site_fract_y
_atom_site_fract_z
Si Si1 0.804641 0.848527 0.582590
Si Si2 0.506628 0.300324 0.350352
Si Si3 0.228562 0.449433 0.468189
Si Si4 0.920722 0.410820 0.763011
Si Si5 0.667365 0.273615 0.070654
Si Si6 0.074092 0.973202 0.181425
O O1 0.658533 0.885239 0.619702
O O2 0.776176 0.786197 0.625624
O O3 0.876461 0.845638 0.418042
O O4 0.943194 0.872150 0.681741
O O5 0.531301 0.296641 0.176345
O O6 0.329801 0.306515 0.411918
O O7 0.583659 0.244848 0.419425
O O8 0.296603 0.414074 0.601578
O O9 0.346622 0.452065 0.330420
O O10 0.197631 0.506763 0.555957
O O11 0.060462 0.437117 0.393969
O O12 0.987124 0.470633 0.730896
#
# Coordination Sequence:
#
# PCOD9460073 Si02
#       6
#     8   8   8   8   8   8
#     4  10  25  38  68  97 131 172 214 277 339 382
#     4  10  22  39  68  94 129 170 231 259 328 399
#     4  11  23  41  70  97 130 178 233 270 329 408
#     4  12  21  44  64 101 133 173 220 281 342 390
#     4  10  21  41  67  97 123 177 223 269 313 416
#     4  11  23  41  71  98 129 182 231 273 323 412
#
# _framework density 25.395613000000001
#
# number of rings (size 3 to 8) (size 9 to 14) (size 15 to 20)
#    1.000    0.333    3.333    2.500    2.333    0.000 
#    0.000    1.667    0.000    0.000    0.000    0.000 
#    0.000    0.000    0.000    0.000    0.000    0.000 
#
# Total GULP energy -268193.102672 kJ/mol
# GULP energy per Si atom -5587.356306 kJ/mol
# Density = 2.533781 g / cm^3
# Si number density = 25.395613 Si / 1000 Ang^3
#
#
#
# Elastic Constant Matrix: (Units=GPa)
#
#
# Indices 1 2 3 4 5 6 
#
# 1 51.6978 13.9380 20.3130 0.0000 0.0000 0.0000
# 2 13.9380 52.3416 9.7952 0.0000 0.0000 0.0000
# 3 20.3130 9.7952 96.4928 0.0000 0.0000 0.0000
# 4 0.0000 0.0000 0.0000 24.9973 0.0000 0.0000
# 5 0.0000 0.0000 0.0000 0.0000 49.3893 0.0000
# 6 0.0000 0.0000 0.0000 0.0000 0.0000 18.4022
#
#
#
# Elastic Compliance Matrix: (Units=1/GPa)
#
#
# Indices 1 2 3 4 5 6 
#
# 1 0.022384 -0.005177 -0.004187 0.000000 0.000000 0.000000
# 2 -0.005177 0.020673 -0.001009 0.000000 0.000000 0.000000
# 3 -0.004187 -0.001009 0.011347 0.000000 0.000000 0.000000
# 4 0.000000 0.000000 0.000000 0.040004 0.000000 0.000000
# 5 0.000000 0.000000 0.000000 0.000000 0.020247 0.000000
# 6 0.000000 0.000000 0.000000 0.000000 0.000000 0.054341
#
#
# Mechanical properties :
#
#
# Convention : Reuss Voigt Hill
#
# Bulk Modulus (GPa) = 29.70973 32.06942 30.88958
# Shear Modulus (GPa) = 24.88045 28.99018 26.93531
#
# Velocity S-wave (km/s) = 3.13343 3.38234 3.26026
# Velocity P-wave (km/s) = 4.98150 5.28289 5.13441
#
# Compressibility (1/GPa) = 0.03365901
#
# Stress axis : x y z
#
# Youngs Moduli (GPa) = 44.67492 48.37314 88.12757
#
# Poissons Ratio (x) = 0.25043 0.36895
# Poissons Ratio (y) = 0.23129 0.08889
# Poissons Ratio (z) = 0.18703 0.04879
#
# Static dielectric constant tensor:
#      x y z
#    x 2.009030 0.000000 0.000000 
#    y 0.000000 2.012080 0.000000 
#    z 0.000000 0.000000 2.010050 
# 
# From -- ./inp_files/1859.got.cif
#   From: 2010.05.17/outbox.cif.g08.bks.cpg/sg61_1_cif.got.tgz:1859.got - 2010.06.03 15:17:17.
