data_PCOD9460874
_publ_section_title
;
Structure prediction by ZEFSAII (Michael W. Deem and Ramdas Pophale) SiO2 
 PCOD9460874
Probable space group: P B C A
;
_chemical_formula_sum "Si O2"
_cell_formula_units_Z 64
_cell_length_a 22.009045
_cell_length_b 9.263745
_cell_length_c 13.648104
_cell_angle_alpha 90.000000
_cell_angle_beta 90.000000
_cell_angle_gamma 90.000000
_cell_volume 2782.659797
_symmetry_space_group_name_H-M "P B C A"
_symmetry_group_IT_number 61
_symmetry_cell_setting 'orthorhombic'
loop_
_space_group_symop_operation_xyz
x,y,z
1/2-x,-y,1/2+z
1/2+x,1/2-y,-z
-x,1/2+y,1/2-z
-x,-y,-z
1/2+x,y,1/2-z
1/2-x,1/2+y,z
x,1/2-y,1/2+z
loop_
_atom_site_type_symbol
_atom_site_label
_atom_site_fract_x
_atom_site_fract_y
_atom_site_fract_z
Si Si1 0.765832 0.974861 0.252831
Si Si2 0.945148 0.326673 0.496976
Si Si3 0.890160 0.120087 0.619313
Si Si4 0.729469 0.764450 0.613236
Si Si5 0.366977 0.032177 0.671882
Si Si6 0.442116 0.597022 0.868929
Si Si7 0.355205 0.816973 0.961302
Si Si8 0.612488 0.312232 0.321682
O O1 0.749780 0.889197 0.154446
O O2 0.825137 0.897359 0.294367
O O3 0.773536 0.135161 0.210234
O O4 0.706474 0.965265 0.321400
O O5 0.942681 0.170796 0.547953
O O6 0.894260 0.399304 0.426084
O O7 0.948649 0.434962 0.590811
O O8 0.002859 0.327288 0.425119
O O9 0.838489 0.232563 0.580765
O O10 0.893084 0.125269 0.736538
O O11 0.870749 0.957043 0.600944
O O12 0.781655 0.809399 0.537303
O O13 0.384138 0.862761 0.686347
O O14 0.437463 0.623206 0.752642
O O15 0.381234 0.674399 0.909311
O O16 0.389621 0.835071 0.062942
#
# Coordination Sequence:
#
# PCOD9460874 Si02
#       8
#     8   8   8   8   8   8   8   8
#     4  11  20  39  68  98 138 177 213 278 338 410
#     4  11  27  45  73  97 136 186 230 290 347 408
#     4  11  25  43  67 106 139 173 230 289 336 415
#     4  11  21  40  66  99 144 174 213 279 343 406
#     4  11  23  45  66 101 140 177 225 283 349 409
#     4  11  24  50  68  97 135 184 235 285 348 400
#     4  12  24  42  70 102 131 187 231 272 354 411
#     4  12  24  42  73 100 140 181 229 282 341 417
#
# _framework density 22.999576999999999
#
# number of rings (size 3 to 8) (size 9 to 14) (size 15 to 20)
#    0.000    0.750    7.500    0.750    1.750    5.500 
#    2.250    0.000    0.000    0.000    0.000    0.000 
#    0.000    0.000    0.000    0.000    0.000    0.000 
#
# Total GULP energy -357063.167717 kJ/mol
# GULP energy per Si atom -5579.111996 kJ/mol
# Density = 2.294723 g / cm^3
# Si number density = 22.999577 Si / 1000 Ang^3
#
#
#
# Elastic Constant Matrix: (Units=GPa)
#
#
# Indices 1 2 3 4 5 6 
#
# 1 18.4466 -0.2021 -5.9432 0.0000 0.0000 0.0000
# 2 -0.2021 23.5700 12.1136 0.0000 0.0000 0.0000
# 3 -5.9432 12.1136 86.2349 0.0000 0.0000 0.0000
# 4 0.0000 0.0000 0.0000 22.0347 0.0000 0.0000
# 5 0.0000 0.0000 0.0000 0.0000 51.8395 0.0000
# 6 0.0000 0.0000 0.0000 0.0000 0.0000 20.6961
#
#
#
# Elastic Compliance Matrix: (Units=1/GPa)
#
#
# Indices 1 2 3 4 5 6 
#
# 1 0.055498 -0.001606 0.004050 0.000000 0.000000 0.000000
# 2 -0.001606 0.045775 -0.006541 0.000000 0.000000 0.000000
# 3 0.004050 -0.006541 0.012794 0.000000 0.000000 0.000000
# 4 0.000000 0.000000 0.000000 0.045383 0.000000 0.000000
# 5 0.000000 0.000000 0.000000 0.000000 0.019290 0.000000
# 6 0.000000 0.000000 0.000000 0.000000 0.000000 0.048318
#
#
# Mechanical properties :
#
#
# Convention : Reuss Voigt Hill
#
# Bulk Modulus (GPa) = 9.44512 15.57644 12.51078
# Shear Modulus (GPa) = 18.48142 27.06627 22.77384
#
# Velocity S-wave (km/s) = 2.83778 3.43420 3.15013
# Velocity P-wave (km/s) = 3.85394 4.74470 4.32233
#
# Compressibility (1/GPa) = 0.10587477
#
# Stress axis : x y z
#
# Youngs Moduli (GPa) = 18.01865 21.84620 78.16055
#
# Poissons Ratio (x) = 0.03508 -0.31658
# Poissons Ratio (y) = 0.02893 0.51123
# Poissons Ratio (z) = -0.07298 0.14289
#
# Static dielectric constant tensor:
#      x y z
#    x 2.039470 0.000000 0.000000 
#    y 0.000000 1.859230 0.000000 
#    z 0.000000 0.000000 1.842280 
# 
# From -- ./inp_files/8506.got.cif
#   From: 2010.05.17/outbox.cif.g08.bks.cpg/sg61_5_cif.got.tgz:8506.got - 2010.06.03 15:17:17.
