data_PCOD9460612
_publ_section_title
;
Structure prediction by ZEFSAII (Michael W. Deem and Ramdas Pophale) SiO2 
 PCOD9460612
Probable space group: P B C A
;
_chemical_formula_sum "Si O2"
_cell_formula_units_Z 40
_cell_length_a 8.857124
_cell_length_b 22.972869
_cell_length_c 7.299048
_cell_angle_alpha 90.000000
_cell_angle_beta 90.000000
_cell_angle_gamma 90.000000
_cell_volume 1485.163204
_symmetry_space_group_name_H-M "P B C A"
_symmetry_group_IT_number 61
_symmetry_cell_setting 'orthorhombic'
loop_
_space_group_symop_operation_xyz
x,y,z
1/2-x,-y,1/2+z
1/2+x,1/2-y,-z
-x,1/2+y,1/2-z
-x,-y,-z
1/2+x,y,1/2-z
1/2-x,1/2+y,z
x,1/2-y,1/2+z
loop_
_atom_site_type_symbol
_atom_site_label
_atom_site_fract_x
_atom_site_fract_y
_atom_site_fract_z
Si Si1 0.166433 0.870612 0.462600
Si Si2 0.125558 0.706305 0.333423
Si Si3 0.148710 0.476807 0.600912
Si Si4 0.395950 0.556745 0.506434
Si Si5 0.398289 0.712343 0.865686
O O1 0.258465 0.929712 0.488432
O O2 0.268005 0.833662 0.325045
O O3 0.156098 0.833572 0.655146
O O4 0.995910 0.890355 0.421211
O O5 0.018017 0.759969 0.271215
O O6 0.009764 0.681741 0.484846
O O7 0.284590 0.731801 0.409400
O O8 0.249406 0.535329 0.612765
O O9 0.134705 0.440951 0.789853
O O10 0.000000 0.500000 0.500000
O O11 0.500000 0.500000 0.500000
#
# Coordination Sequence:
#
# PCOD9460612 Si02
#       5
#     8   8   8   8   8
#     4  11  24  45  73 102 142 197 229 293 383 429
#     4  12  24  45  71 104 146 194 250 304 360 440
#     4  11  23  46  74 104 141 186 239 305 360 452
#     4  10  23  44  69 103 140 180 241 291 368 442
#     4  12  24  46  70 103 148 191 254 302 355 443
#
# _framework density 26.933066
#
# number of rings (size 3 to 8) (size 9 to 14) (size 15 to 20)
#    0.000    0.800    4.000    3.600    0.000    0.000 
#   14.400    0.000    0.000    0.000    0.000    0.000 
#    0.000    0.000    0.000    0.000    0.000    0.000 
#
# Total GULP energy -223324.441491 kJ/mol
# GULP energy per Si atom -5583.111037 kJ/mol
# Density = 2.687177 g / cm^3
# Si number density = 26.933066 Si / 1000 Ang^3
#
#
#
# Elastic Constant Matrix: (Units=GPa)
#
#
# Indices 1 2 3 4 5 6 
#
# 1 193.9937 54.9754 49.6127 0.0000 0.0000 0.0000
# 2 54.9754 95.4392 21.1704 0.0000 0.0000 0.0000
# 3 49.6127 21.1704 76.6645 0.0000 0.0000 0.0000
# 4 0.0000 0.0000 0.0000 32.5392 0.0000 0.0000
# 5 0.0000 0.0000 0.0000 0.0000 54.1447 0.0000
# 6 0.0000 0.0000 0.0000 0.0000 0.0000 65.6351
#
#
#
# Elastic Compliance Matrix: (Units=1/GPa)
#
#
# Indices 1 2 3 4 5 6 
#
# 1 0.006999 -0.003225 -0.003639 0.000000 0.000000 0.000000
# 2 -0.003225 0.012647 -0.001406 0.000000 0.000000 0.000000
# 3 -0.003639 -0.001406 0.015787 0.000000 0.000000 0.000000
# 4 0.000000 0.000000 0.000000 0.030732 0.000000 0.000000
# 5 0.000000 0.000000 0.000000 0.000000 0.018469 0.000000
# 6 0.000000 0.000000 0.000000 0.000000 0.000000 0.015236
#
#
# Mechanical properties :
#
#
# Convention : Reuss Voigt Hill
#
# Bulk Modulus (GPa) = 52.92464 68.62383 60.77424
# Shear Modulus (GPa) = 40.74742 46.48639 43.61690
#
# Velocity S-wave (km/s) = 3.89384 4.15902 4.02861
# Velocity P-wave (km/s) = 6.31736 6.97122 6.65233
#
# Compressibility (1/GPa) = 0.01889479
#
# Stress axis : x y z
#
# Youngs Moduli (GPa) = 142.87199 79.06948 63.34323
#
# Poissons Ratio (x) = 0.25496 0.23051
# Poissons Ratio (y) = 0.46070 0.08904
# Poissons Ratio (z) = 0.51992 0.11115
#
# Static dielectric constant tensor:
#      x y z
#    x 2.850850 0.000000 0.000000 
#    y 0.000000 2.203440 0.000000 
#    z 0.000000 0.000000 2.386060 
# 
# From -- ./inp_files/1754.got.cif
#   From: 2010.05.17/outbox.cif.g08.bks.cpg/sg61_1_cif.got.tgz:1754.got - 2010.06.03 15:17:17.
