data_PCOD9460924
_publ_section_title
;
Structure prediction by ZEFSAII (Michael W. Deem and Ramdas Pophale) SiO2 
 PCOD9460924
Probable space group: P B C A
;
_chemical_formula_sum "Si O2"
_cell_formula_units_Z 40
_cell_length_a 21.099445
_cell_length_b 5.142757
_cell_length_c 18.587274
_cell_angle_alpha 90.000000
_cell_angle_beta 90.000000
_cell_angle_gamma 90.000000
_cell_volume 2016.892434
_symmetry_space_group_name_H-M "P B C A"
_symmetry_group_IT_number 61
_symmetry_cell_setting 'orthorhombic'
loop_
_space_group_symop_operation_xyz
x,y,z
1/2-x,-y,1/2+z
1/2+x,1/2-y,-z
-x,1/2+y,1/2-z
-x,-y,-z
1/2+x,y,1/2-z
1/2-x,1/2+y,z
x,1/2-y,1/2+z
loop_
_atom_site_type_symbol
_atom_site_label
_atom_site_fract_x
_atom_site_fract_y
_atom_site_fract_z
Si Si1 0.054643 0.313381 0.212460
Si Si2 0.613129 0.688401 0.865979
Si Si3 0.709779 0.638273 0.753261
Si Si4 0.084125 0.822968 0.826027
Si Si5 0.545197 0.746236 0.010773
O O1 0.081443 0.558095 0.168722
O O2 0.077719 0.382228 0.293644
O O3 0.978878 0.309470 0.207651
O O4 0.080330 0.065735 0.169028
O O5 0.683997 0.672470 0.834887
O O6 0.598921 0.718854 0.949704
O O7 0.735937 0.351144 0.741006
O O8 0.649389 0.706490 0.703634
O O9 0.075396 0.780703 0.910382
O O10 0.500000 0.500000 0.000000
O O11 0.500000 0.000000 0.000000
#
# Coordination Sequence:
#
# PCOD9460924 Si02
#       5
#     8   8   8   8   8
#     4  11  22  37  66  97 129 167 206 275 334 387
#     4  11  22  43  63  96 133 168 212 264 334 392
#     4  11  25  42  63  88 126 180 231 263 299 376
#     4  11  23  40  67  97 134 165 222 267 332 381
#     4  12  24  40  65 104 139 165 199 273 354 408
#
# _framework density 19.832491999999998
#
# number of rings (size 3 to 8) (size 9 to 14) (size 15 to 20)
#    0.000    0.800    4.000    4.800    0.000    6.400 
#    0.000    2.000    0.000    0.000    0.000    0.000 
#    0.000    0.000    0.000    0.000    0.000    0.000 
#
# Total GULP energy -223373.002347 kJ/mol
# GULP energy per Si atom -5584.325059 kJ/mol
# Density = 1.978735 g / cm^3
# Si number density = 19.832492 Si / 1000 Ang^3
#
#
#
# Elastic Constant Matrix: (Units=GPa)
#
#
# Indices 1 2 3 4 5 6 
#
# 1 72.3046 7.8181 30.6552 0.0000 0.0000 0.0000
# 2 7.8181 119.2962 26.3229 0.0000 0.0000 0.0000
# 3 30.6552 26.3229 177.3789 0.0000 0.0000 0.0000
# 4 0.0000 0.0000 0.0000 22.5665 0.0000 0.0000
# 5 0.0000 0.0000 0.0000 0.0000 34.5598 0.0000
# 6 0.0000 0.0000 0.0000 0.0000 0.0000 34.3876
#
#
#
# Elastic Compliance Matrix: (Units=1/GPa)
#
#
# Indices 1 2 3 4 5 6 
#
# 1 0.014945 -0.000423 -0.002520 0.000000 0.000000 0.000000
# 2 -0.000423 0.008678 -0.001215 0.000000 0.000000 0.000000
# 3 -0.002520 -0.001215 0.006253 0.000000 0.000000 0.000000
# 4 0.000000 0.000000 0.000000 0.044313 0.000000 0.000000
# 5 0.000000 0.000000 0.000000 0.000000 0.028935 0.000000
# 6 0.000000 0.000000 0.000000 0.000000 0.000000 0.029080
#
#
# Mechanical properties :
#
#
# Convention : Reuss Voigt Hill
#
# Bulk Modulus (GPa) = 46.38164 55.39689 50.88926
# Shear Modulus (GPa) = 33.85059 38.58170 36.21614
#
# Velocity S-wave (km/s) = 4.13586 4.41543 4.27793
# Velocity P-wave (km/s) = 6.80033 7.34763 7.07927
#
# Compressibility (1/GPa) = 0.02156026
#
# Stress axis : x y z
#
# Youngs Moduli (GPa) = 66.91409 115.23041 159.91272
#
# Poissons Ratio (x) = 0.04878 0.40297
# Poissons Ratio (y) = 0.02833 0.19424
# Poissons Ratio (z) = 0.16862 0.13997
#
# Static dielectric constant tensor:
#      x y z
#    x 1.719900 0.000000 0.000000 
#    y 0.000000 1.792390 0.000000 
#    z 0.000000 0.000000 1.761480 
# 
# From -- ./inp_files/9736.got.cif
#   From: 2010.05.17/outbox.cif.g08.bks.cpg/sg61_5_cif.got.tgz:9736.got - 2010.06.03 15:17:17.
