data_PCOD9460832
_publ_section_title
;
Structure prediction by ZEFSAII (Michael W. Deem and Ramdas Pophale) SiO2 
 PCOD9460832
Probable space group: P B C A
;
_chemical_formula_sum "Si O2"
_cell_formula_units_Z 40
_cell_length_a 18.066614
_cell_length_b 10.855233
_cell_length_c 7.925788
_cell_angle_alpha 90.000000
_cell_angle_beta 90.000000
_cell_angle_gamma 90.000000
_cell_volume 1554.384179
_symmetry_space_group_name_H-M "P B C A"
_symmetry_group_IT_number 61
_symmetry_cell_setting 'orthorhombic'
loop_
_space_group_symop_operation_xyz
x,y,z
1/2-x,-y,1/2+z
1/2+x,1/2-y,-z
-x,1/2+y,1/2-z
-x,-y,-z
1/2+x,y,1/2-z
1/2-x,1/2+y,z
x,1/2-y,1/2+z
loop_
_atom_site_type_symbol
_atom_site_label
_atom_site_fract_x
_atom_site_fract_y
_atom_site_fract_z
Si Si1 0.986838 0.369985 0.767306
Si Si2 0.298942 0.711071 0.744550
Si Si3 0.602850 0.048347 0.969014
Si Si4 0.368818 0.155178 0.749081
Si Si5 0.624083 0.416693 0.939303
O O1 0.938011 0.491236 0.804898
O O2 0.934037 0.253328 0.760516
O O3 0.039377 0.383621 0.605213
O O4 0.042809 0.371620 0.927786
O O5 0.326941 0.626261 0.588760
O O6 0.211440 0.715399 0.760076
O O7 0.330248 0.846426 0.709181
O O8 0.337860 0.641416 0.898955
O O9 0.620629 0.932118 0.087871
O O10 0.369035 0.062234 0.589646
#
# Coordination Sequence:
#
# PCOD9460832 Si02
#       5
#     8   8   8   8   8
#     4  10  25  48  78 105 151 199 254 306 386 450
#     4  12  27  48  75 108 161 193 255 319 386 452
#     4  10  25  51  76 112 156 197 255 323 371 455
#     4  11  26  47  82 112 148 204 255 311 391 451
#     4  11  27  48  73 112 151 205 253 314 383 453
#
# _framework density 25.733663
#
# number of rings (size 3 to 8) (size 9 to 14) (size 15 to 20)
#    0.000    1.200    0.000    3.600   16.800    2.400 
#    0.000    0.000    0.000    0.000    0.000    0.000 
#    0.000    0.000    0.000    0.000    0.000    0.000 
#
# Total GULP energy -224353.943456 kJ/mol
# GULP energy per Si atom -5608.848586 kJ/mol
# Density = 2.567509 g / cm^3
# Si number density = 25.733663 Si / 1000 Ang^3
#
#
#
# Elastic Constant Matrix: (Units=GPa)
#
#
# Indices 1 2 3 4 5 6 
#
# 1 185.1805 85.2859 26.7622 0.0000 0.0000 0.0000
# 2 85.2859 113.3819 20.6818 0.0000 0.0000 0.0000
# 3 26.7622 20.6818 84.2125 0.0000 0.0000 0.0000
# 4 0.0000 0.0000 0.0000 44.3241 0.0000 0.0000
# 5 0.0000 0.0000 0.0000 0.0000 27.3995 0.0000
# 6 0.0000 0.0000 0.0000 0.0000 0.0000 37.0844
#
#
#
# Elastic Compliance Matrix: (Units=1/GPa)
#
#
# Indices 1 2 3 4 5 6 
#
# 1 0.008370 -0.006084 -0.001166 0.000000 0.000000 0.000000
# 2 -0.006084 0.013655 -0.001420 0.000000 0.000000 0.000000
# 3 -0.001166 -0.001420 0.012594 0.000000 0.000000 0.000000
# 4 0.000000 0.000000 0.000000 0.022561 0.000000 0.000000
# 5 0.000000 0.000000 0.000000 0.000000 0.036497 0.000000
# 6 0.000000 0.000000 0.000000 0.000000 0.000000 0.026966
#
#
# Mechanical properties :
#
#
# Convention : Reuss Voigt Hill
#
# Bulk Modulus (GPa) = 57.87089 72.02606 64.94847
# Shear Modulus (GPa) = 34.78441 38.43127 36.60784
#
# Velocity S-wave (km/s) = 3.68055 3.86868 3.77578
# Velocity P-wave (km/s) = 6.37174 6.92859 6.65599
#
# Compressibility (1/GPa) = 0.01727985
#
# Stress axis : x y z
#
# Youngs Moduli (GPa) = 119.46753 73.23389 79.40256
#
# Poissons Ratio (x) = 0.44552 0.09258
# Poissons Ratio (y) = 0.72679 0.11277
# Poissons Ratio (z) = 0.13930 0.10401
#
# Static dielectric constant tensor:
#      x y z
#    x 1.950440 0.000000 0.000000 
#    y 0.000000 2.001690 0.000000 
#    z 0.000000 0.000000 2.158130 
# 
# From -- ./inp_files/3306.got.cif
#   From: 2010.05.17/outbox.cif.g08.bks.cpg/sg61_2_cif.got.tgz:3306.got - 2010.06.03 15:17:17.
