data_PCOD9460002
_publ_section_title
;
Structure prediction by ZEFSAII (Michael W. Deem and Ramdas Pophale) SiO2 
 PCOD9460002
Probable space group: P B C A
;
_chemical_formula_sum "Si O2"
_cell_formula_units_Z 64
_cell_length_a 13.976365
_cell_length_b 22.015391
_cell_length_c 10.478818
_cell_angle_alpha 90.000000
_cell_angle_beta 90.000000
_cell_angle_gamma 90.000000
_cell_volume 3224.281374
_symmetry_space_group_name_H-M "P B C A"
_symmetry_group_IT_number 61
_symmetry_cell_setting 'orthorhombic'
loop_
_space_group_symop_operation_xyz
x,y,z
1/2-x,-y,1/2+z
1/2+x,1/2-y,-z
-x,1/2+y,1/2-z
-x,-y,-z
1/2+x,y,1/2-z
1/2-x,1/2+y,z
x,1/2-y,1/2+z
loop_
_atom_site_type_symbol
_atom_site_label
_atom_site_fract_x
_atom_site_fract_y
_atom_site_fract_z
Si Si1 0.424033 0.037731 0.760424
Si Si2 0.601951 0.691142 0.455476
Si Si3 0.021011 0.742813 0.782688
Si Si4 0.428390 0.873252 0.345679
Si Si5 0.081555 0.359298 0.647314
Si Si6 0.452280 0.068365 0.176790
Si Si7 0.765598 0.547168 0.353928
Si Si8 0.728624 0.610346 0.600688
O O1 0.508466 0.067066 0.677806
O O2 0.368955 0.091400 0.832207
O O3 0.475540 0.987303 0.849606
O O4 0.338039 0.005512 0.684023
O O5 0.594487 0.729680 0.324130
O O6 0.559045 0.728484 0.574803
O O7 0.550787 0.626179 0.419707
O O8 0.703744 0.667774 0.510238
O O9 0.977693 0.681764 0.726338
O O10 0.938976 0.793668 0.796338
O O11 0.421798 0.858698 0.495326
O O12 0.317403 0.879906 0.306531
O O13 0.178511 0.392163 0.692700
O O14 0.995094 0.402357 0.694907
O O15 0.343526 0.045493 0.192000
O O16 0.757005 0.555329 0.506340
#
# Coordination Sequence:
#
# PCOD9460002 Si02
#       8
#     8   8   8   8   8   8   8   8
#     4  11  21  37  62  89 124 166 210 256 320 376
#     4  10  21  40  65  89 121 162 201 258 307 366
#     4  11  20  41  64  88 122 163 205 251 316 365
#     4  11  22  38  61  89 125 167 208 262 311 377
#     4   9  20  38  61  85 119 161 202 252 313 373
#     4   9  20  38  63  89 123 160 199 260 310 370
#     4   9  20  37  58  88 119 158 203 252 311 371
#     4  10  22  40  56  90 128 158 210 261 311 371
#
# _framework density 19.849385000000002
#
# number of rings (size 3 to 8) (size 9 to 14) (size 15 to 20)
#    0.000    2.000    2.500    0.750    0.000    7.500 
#   11.250    0.000    2.750    0.000    0.000    0.000 
#    0.000    0.000    0.000    0.000    0.000    0.000 
#
# Total GULP energy -356367.104340 kJ/mol
# GULP energy per Si atom -5568.236005 kJ/mol
# Density = 1.980421 g / cm^3
# Si number density = 19.849385 Si / 1000 Ang^3
#
#
#
# Elastic Constant Matrix: (Units=GPa)
#
#
# Indices 1 2 3 4 5 6 
#
# 1 114.9609 39.5415 22.7535 0.0000 0.0000 0.0000
# 2 39.5415 68.8140 10.3975 0.0000 0.0000 0.0000
# 3 22.7535 10.3975 58.7954 0.0000 0.0000 0.0000
# 4 0.0000 0.0000 0.0000 22.5377 0.0000 0.0000
# 5 0.0000 0.0000 0.0000 0.0000 27.8785 0.0000
# 6 0.0000 0.0000 0.0000 0.0000 0.0000 29.9717
#
#
#
# Elastic Compliance Matrix: (Units=1/GPa)
#
#
# Indices 1 2 3 4 5 6 
#
# 1 0.011452 -0.006073 -0.003358 0.000000 0.000000 0.000000
# 2 -0.006073 0.018152 -0.000860 0.000000 0.000000 0.000000
# 3 -0.003358 -0.000860 0.018460 0.000000 0.000000 0.000000
# 4 0.000000 0.000000 0.000000 0.044370 0.000000 0.000000
# 5 0.000000 0.000000 0.000000 0.000000 0.035870 0.000000
# 6 0.000000 0.000000 0.000000 0.000000 0.000000 0.033365
#
#
# Mechanical properties :
#
#
# Convention : Reuss Voigt Hill
#
# Bulk Modulus (GPa) = 36.38769 43.10612 39.74690
# Shear Modulus (GPa) = 26.12190 27.40277 26.76233
#
# Velocity S-wave (km/s) = 3.63161 3.71959 3.67586
# Velocity P-wave (km/s) = 5.99638 6.34120 6.17120
#
# Compressibility (1/GPa) = 0.02748182
#
# Stress axis : x y z
#
# Youngs Moduli (GPa) = 87.31992 55.09165 54.17218
#
# Poissons Ratio (x) = 0.33458 0.18191
# Poissons Ratio (y) = 0.53031 0.04657
# Poissons Ratio (z) = 0.29321 0.04736
#
# Static dielectric constant tensor:
#      x y z
#    x 1.749300 0.000000 0.000000 
#    y 0.000000 1.740370 0.000000 
#    z 0.000000 0.000000 1.727260 
# 
# From -- ./inp_files/5471.got.cif
#   From: 2010.05.17/outbox.cif.g08.bks.cpg/sg61_3_cif.got.tgz:5471.got - 2010.06.03 15:17:17.
