data_PCOD9460456
_publ_section_title
;
Structure prediction by ZEFSAII (Michael W. Deem and Ramdas Pophale) SiO2 
 PCOD9460456
Probable space group: P B C A
;
_chemical_formula_sum "Si O2"
_cell_formula_units_Z 48
_cell_length_a 17.571107
_cell_length_b 14.285833
_cell_length_c 8.728971
_cell_angle_alpha 90.000000
_cell_angle_beta 90.000000
_cell_angle_gamma 90.000000
_cell_volume 2191.127972
_symmetry_space_group_name_H-M "P B C A"
_symmetry_group_IT_number 61
_symmetry_cell_setting 'orthorhombic'
loop_
_space_group_symop_operation_xyz
x,y,z
1/2-x,-y,1/2+z
1/2+x,1/2-y,-z
-x,1/2+y,1/2-z
-x,-y,-z
1/2+x,y,1/2-z
1/2-x,1/2+y,z
x,1/2-y,1/2+z
loop_
_atom_site_type_symbol
_atom_site_label
_atom_site_fract_x
_atom_site_fract_y
_atom_site_fract_z
Si Si1 0.807248 0.765715 0.584241
Si Si2 0.696696 0.907119 0.024565
Si Si3 0.557383 0.521771 0.139721
Si Si4 0.973319 0.393961 0.957900
Si Si5 0.280313 0.063234 0.316643
Si Si6 0.405034 0.830683 0.178855
O O1 0.761288 0.671433 0.545062
O O2 0.750306 0.832676 0.672742
O O3 0.879961 0.742604 0.690740
O O4 0.832388 0.822661 0.433714
O O5 0.610223 0.873289 0.025930
O O6 0.700612 0.953772 0.858541
O O7 0.716003 0.989657 0.139906
O O8 0.529649 0.596791 0.270883
O O9 0.641986 0.552772 0.086787
O O10 0.575206 0.424510 0.228091
O O11 0.500000 0.500000 0.000000
O O12 0.000000 0.500000 0.000000
O O13 0.027385 0.324649 0.054137
#
# Coordination Sequence:
#
# PCOD9460456 Si02
#       6
#     8   8   8   8   8   8
#     4  12  24  46  68 104 142 192 249 298 370 435
#     4  11  24  44  71 103 138 191 241 298 359 438
#     4  10  22  44  74 111 139 189 245 296 380 446
#     4   9  21  44  68 101 141 183 236 300 362 426
#     4  11  23  42  74  99 143 187 239 300 353 437
#     4  11  24  46  66 101 145 186 238 303 368 433
#
# _framework density 21.906524999999998
#
# number of rings (size 3 to 8) (size 9 to 14) (size 15 to 20)
#    0.000    1.333    3.333    3.000    0.000    5.333 
#    9.000    0.000    0.000    0.000    0.000    0.000 
#    0.000    0.000    0.000    0.000    0.000    0.000 
#
# Total GULP energy -267482.314648 kJ/mol
# GULP energy per Si atom -5572.548222 kJ/mol
# Density = 2.185666 g / cm^3
# Si number density = 21.906525 Si / 1000 Ang^3
#
#
#
# Elastic Constant Matrix: (Units=GPa)
#
#
# Indices 1 2 3 4 5 6 
#
# 1 109.4837 25.6999 52.7789 0.0000 0.0000 0.0000
# 2 25.6999 42.7297 27.9745 0.0000 0.0000 0.0000
# 3 52.7789 27.9745 75.4327 0.0000 0.0000 0.0000
# 4 0.0000 0.0000 0.0000 15.9163 0.0000 0.0000
# 5 0.0000 0.0000 0.0000 0.0000 38.9817 0.0000
# 6 0.0000 0.0000 0.0000 0.0000 0.0000 32.1399
#
#
#
# Elastic Compliance Matrix: (Units=1/GPa)
#
#
# Indices 1 2 3 4 5 6 
#
# 1 0.014007 -0.002652 -0.008817 0.000000 0.000000 0.000000
# 2 -0.002652 0.031409 -0.009793 0.000000 0.000000 0.000000
# 3 -0.008817 -0.009793 0.023057 0.000000 0.000000 0.000000
# 4 0.000000 0.000000 0.000000 0.062829 0.000000 0.000000
# 5 0.000000 0.000000 0.000000 0.000000 0.025653 0.000000
# 6 0.000000 0.000000 0.000000 0.000000 0.000000 0.031114
#
#
# Mechanical properties :
#
#
# Convention : Reuss Voigt Hill
#
# Bulk Modulus (GPa) = 38.53510 48.95031 43.74270
# Shear Modulus (GPa) = 20.89938 25.48708 23.19323
#
# Velocity S-wave (km/s) = 3.09208 3.41463 3.25735
# Velocity P-wave (km/s) = 5.51152 6.15954 5.84452
#
# Compressibility (1/GPa) = 0.02595037
#
# Stress axis : x y z
#
# Youngs Moduli (GPa) = 71.39507 31.83785 43.37031
#
# Poissons Ratio (x) = 0.08444 0.38238
# Poissons Ratio (y) = 0.18936 0.42470
# Poissons Ratio (z) = 0.62946 0.31177
#
# Static dielectric constant tensor:
#      x y z
#    x 1.890260 0.000000 0.000000 
#    y 0.000000 1.848810 0.000000 
#    z 0.000000 0.000000 1.974170 
# 
# From -- ./inp_files/3469.got.cif
#   From: 2010.05.17/outbox.cif.g08.bks.cpg/sg61_2_cif.got.tgz:3469.got - 2010.06.03 15:17:17.
