data_PCOD9460049
_publ_section_title
;
Structure prediction by ZEFSAII (Michael W. Deem and Ramdas Pophale) SiO2 
 PCOD9460049
Probable space group: P B C A
;
_chemical_formula_sum "Si O2"
_cell_formula_units_Z 64
_cell_length_a 9.069466
_cell_length_b 13.809888
_cell_length_c 20.136988
_cell_angle_alpha 90.000000
_cell_angle_beta 90.000000
_cell_angle_gamma 90.000000
_cell_volume 2522.123709
_symmetry_space_group_name_H-M "P B C A"
_symmetry_group_IT_number 61
_symmetry_cell_setting 'orthorhombic'
loop_
_space_group_symop_operation_xyz
x,y,z
1/2-x,-y,1/2+z
1/2+x,1/2-y,-z
-x,1/2+y,1/2-z
-x,-y,-z
1/2+x,y,1/2-z
1/2-x,1/2+y,z
x,1/2-y,1/2+z
loop_
_atom_site_type_symbol
_atom_site_label
_atom_site_fract_x
_atom_site_fract_y
_atom_site_fract_z
Si Si1 0.194343 0.616968 0.236942
Si Si2 0.019864 0.293169 0.679204
Si Si3 0.922497 0.912778 0.075905
Si Si4 0.787548 0.825597 0.945394
Si Si5 0.431112 0.574940 0.676173
Si Si6 0.338285 0.550809 0.410852
Si Si7 0.479295 0.232783 0.125248
Si Si8 0.246763 0.041253 0.558285
O O1 0.364335 0.640371 0.221528
O O2 0.140893 0.506733 0.224010
O O3 0.111927 0.689226 0.185749
O O4 0.136142 0.657468 0.306635
O O5 0.078602 0.298144 0.603384
O O6 0.020365 0.180447 0.701094
O O7 0.954669 0.838437 0.134975
O O8 0.080109 0.945969 0.048588
O O9 0.822254 0.002369 0.096067
O O10 0.839561 0.848727 0.019578
O O11 0.641462 0.761606 0.935322
O O12 0.728844 0.929858 0.920538
O O13 0.558238 0.522156 0.632170
O O14 0.307126 0.599648 0.621315
O O15 0.394635 0.656078 0.391233
O O16 0.346509 0.554781 0.491751
#
# Coordination Sequence:
#
# PCOD9460049 Si02
#       8
#     8   8   8   8   8   8   8   8
#     4  10  24  49  65  96 129 173 227 290 330 397
#     4  11  24  45  70  94 130 175 232 275 339 401
#     4  11  25  37  65 109 136 172 224 273 331 400
#     4  10  21  41  64  95 135 179 210 275 337 398
#     4  11  23  44  72  93 132 184 214 269 356 397
#     4  10  22  40  64  98 135 176 217 259 323 412
#     4  10  22  43  64  91 141 178 217 276 340 398
#     4  11  20  42  65  99 140 175 213 272 335 410
#
# _framework density 25.375440000000001
#
# number of rings (size 3 to 8) (size 9 to 14) (size 15 to 20)
#    0.000    1.500    3.750    3.375    5.250    2.000 
#   13.500    0.000    0.000    0.000    0.000    0.000 
#    0.000    0.000    0.000    0.000    0.000    0.000 
#
# Total GULP energy -357775.026430 kJ/mol
# GULP energy per Si atom -5590.234788 kJ/mol
# Density = 2.531768 g / cm^3
# Si number density = 25.375440 Si / 1000 Ang^3
#
#
#
# Elastic Constant Matrix: (Units=GPa)
#
#
# Indices 1 2 3 4 5 6 
#
# 1 105.9358 10.1511 25.8289 0.0000 0.0000 0.0000
# 2 10.1511 93.5735 17.2144 0.0000 0.0000 0.0000
# 3 25.8289 17.2144 59.9433 0.0000 0.0000 0.0000
# 4 0.0000 0.0000 0.0000 21.8733 0.0000 0.0000
# 5 0.0000 0.0000 0.0000 0.0000 32.4644 0.0000
# 6 0.0000 0.0000 0.0000 0.0000 0.0000 28.1856
#
#
#
# Elastic Compliance Matrix: (Units=1/GPa)
#
#
# Indices 1 2 3 4 5 6 
#
# 1 0.010557 -0.000326 -0.004455 0.000000 0.000000 0.000000
# 2 -0.000326 0.011293 -0.003103 0.000000 0.000000 0.000000
# 3 -0.004455 -0.003103 0.019493 0.000000 0.000000 0.000000
# 4 0.000000 0.000000 0.000000 0.045718 0.000000 0.000000
# 5 0.000000 0.000000 0.000000 0.000000 0.030803 0.000000
# 6 0.000000 0.000000 0.000000 0.000000 0.000000 0.035479
#
#
# Mechanical properties :
#
#
# Convention : Reuss Voigt Hill
#
# Bulk Modulus (GPa) = 39.09963 40.64905 39.87434
# Shear Modulus (GPa) = 28.14739 30.25519 29.20129
#
# Velocity S-wave (km/s) = 3.33414 3.45672 3.39598
# Velocity P-wave (km/s) = 5.50126 5.65559 5.57896
#
# Compressibility (1/GPa) = 0.02557569
#
# Stress axis : x y z
#
# Youngs Moduli (GPa) = 94.72213 88.55105 51.29967
#
# Poissons Ratio (x) = 0.02883 0.22856
# Poissons Ratio (y) = 0.03084 0.15917
# Poissons Ratio (z) = 0.42203 0.27475
#
# Static dielectric constant tensor:
#      x y z
#    x 2.016420 0.000000 0.000000 
#    y 0.000000 1.980690 0.000000 
#    z 0.000000 0.000000 2.099670 
# 
# From -- ./inp_files/10908.got.cif
#   From: 2010.05.17/outbox.cif.g08.bks.cpg/sg61_6_cif.got.tgz:10908.got - 2010.06.03 15:17:17.
