data_PCOD9460096
_publ_section_title
;
Structure prediction by ZEFSAII (Michael W. Deem and Ramdas Pophale) SiO2 
 PCOD9460096
Probable space group: P B C A
;
_chemical_formula_sum "Si O2"
_cell_formula_units_Z 48
_cell_length_a 25.909945
_cell_length_b 7.606022
_cell_length_c 9.377942
_cell_angle_alpha 90.000000
_cell_angle_beta 90.000000
_cell_angle_gamma 90.000000
_cell_volume 1848.126144
_symmetry_space_group_name_H-M "P B C A"
_symmetry_group_IT_number 61
_symmetry_cell_setting 'orthorhombic'
loop_
_space_group_symop_operation_xyz
x,y,z
1/2-x,-y,1/2+z
1/2+x,1/2-y,-z
-x,1/2+y,1/2-z
-x,-y,-z
1/2+x,y,1/2-z
1/2-x,1/2+y,z
x,1/2-y,1/2+z
loop_
_atom_site_type_symbol
_atom_site_label
_atom_site_fract_x
_atom_site_fract_y
_atom_site_fract_z
Si Si1 0.848244 0.574124 0.454514
Si Si2 0.186570 0.351400 0.270529
Si Si3 0.042557 0.552236 0.205978
Si Si4 0.107396 0.651907 0.768909
Si Si5 0.707688 0.798788 0.632418
Si Si6 0.491444 0.237341 0.939081
O O1 0.825874 0.728767 0.359693
O O2 0.859823 0.644609 0.612689
O O3 0.892197 0.479920 0.362954
O O4 0.808460 0.413731 0.493790
O O5 0.202998 0.552142 0.243619
O O6 0.235645 0.275494 0.357755
O O7 0.097310 0.649219 0.213086
O O8 0.018684 0.576536 0.363786
O O9 0.038793 0.364548 0.134057
O O10 0.011142 0.688974 0.103492
O O11 0.163247 0.654251 0.842463
O O12 0.059743 0.632282 0.876107
#
# Coordination Sequence:
#
# PCOD9460096 Si02
#       6
#     8   8   8   8   8   8
#     4  10  24  44  63  98 127 175 217 270 322 386
#     4  10  24  41  64  94 129 172 218 262 331 377
#     4   9  20  40  65  93 124 167 211 266 331 382
#     4  10  21  42  65  92 132 170 214 269 317 397
#     4  10  23  39  65  92 132 169 217 265 324 384
#     4   9  20  40  64  93 121 168 212 263 327 389
#
# _framework density 25.972252999999998
#
# number of rings (size 3 to 8) (size 9 to 14) (size 15 to 20)
#    2.000    0.333    0.000    2.000    4.667    0.667 
#    9.000    1.667    0.000    0.000    0.000    0.000 
#    0.000    0.000    0.000    0.000    0.000    0.000 
#
# Total GULP energy -267642.199979 kJ/mol
# GULP energy per Si atom -5575.879166 kJ/mol
# Density = 2.591314 g / cm^3
# Si number density = 25.972253 Si / 1000 Ang^3
#
#
#
# Elastic Constant Matrix: (Units=GPa)
#
#
# Indices 1 2 3 4 5 6 
#
# 1 52.8625 20.0859 12.5997 0.0000 0.0000 0.0000
# 2 20.0859 48.8628 3.4713 0.0000 0.0000 0.0000
# 3 12.5997 3.4713 103.7701 0.0000 0.0000 0.0000
# 4 0.0000 0.0000 0.0000 35.6391 0.0000 0.0000
# 5 0.0000 0.0000 0.0000 0.0000 29.3128 0.0000
# 6 0.0000 0.0000 0.0000 0.0000 0.0000 25.4694
#
#
#
# Elastic Compliance Matrix: (Units=1/GPa)
#
#
# Indices 1 2 3 4 5 6 
#
# 1 0.023041 -0.009295 -0.002487 0.000000 0.000000 0.000000
# 2 -0.009295 0.024264 0.000317 0.000000 0.000000 0.000000
# 3 -0.002487 0.000317 0.009928 0.000000 0.000000 0.000000
# 4 0.000000 0.000000 0.000000 0.028059 0.000000 0.000000
# 5 0.000000 0.000000 0.000000 0.000000 0.034115 0.000000
# 6 0.000000 0.000000 0.000000 0.000000 0.000000 0.039263
#
#
# Mechanical properties :
#
#
# Convention : Reuss Voigt Hill
#
# Bulk Modulus (GPa) = 29.15133 30.86769 30.00951
# Shear Modulus (GPa) = 25.90217 29.37350 27.63783
#
# Velocity S-wave (km/s) = 3.16143 3.36662 3.26564
# Velocity P-wave (km/s) = 4.95728 5.19835 5.07924
#
# Compressibility (1/GPa) = 0.03430375
#
# Stress axis : x y z
#
# Youngs Moduli (GPa) = 43.39999 41.21368 100.72498
#
# Poissons Ratio (x) = 0.38308 0.25048
# Poissons Ratio (y) = 0.40340 -0.03192
# Poissons Ratio (z) = 0.10792 -0.01306
#
# Static dielectric constant tensor:
#      x y z
#    x 2.061530 0.000000 0.000000 
#    y 0.000000 2.067930 0.000000 
#    z 0.000000 0.000000 2.059410 
# 
# From -- ./inp_files/4566.got.cif
#   From: 2010.05.17/outbox.cif.g08.bks.cpg/sg61_3_cif.got.tgz:4566.got - 2010.06.03 15:17:17.
