data_PCOD9460448
_publ_section_title
;
Structure prediction by ZEFSAII (Michael W. Deem and Ramdas Pophale) SiO2 
 PCOD9460448
Probable space group: P B C A
;
_chemical_formula_sum "Si O2"
_cell_formula_units_Z 32
_cell_length_a 12.727021
_cell_length_b 8.879206
_cell_length_c 8.889554
_cell_angle_alpha 90.000000
_cell_angle_beta 90.000000
_cell_angle_gamma 90.000000
_cell_volume 1004.571528
_symmetry_space_group_name_H-M "P B C A"
_symmetry_group_IT_number 61
_symmetry_cell_setting 'orthorhombic'
loop_
_space_group_symop_operation_xyz
x,y,z
1/2-x,-y,1/2+z
1/2+x,1/2-y,-z
-x,1/2+y,1/2-z
-x,-y,-z
1/2+x,y,1/2-z
1/2-x,1/2+y,z
x,1/2-y,1/2+z
loop_
_atom_site_type_symbol
_atom_site_label
_atom_site_fract_x
_atom_site_fract_y
_atom_site_fract_z
Si Si1 0.180200 0.268778 0.893151
Si Si2 0.429281 0.951344 0.178856
Si Si3 0.916502 0.291008 0.590679
Si Si4 0.311596 0.976774 0.638049
O O1 0.096248 0.165777 0.810331
O O2 0.302432 0.239511 0.850756
O O3 0.169601 0.430892 0.810972
O O4 0.174842 0.183173 0.053363
O O5 0.508752 0.855727 0.071314
O O6 0.458205 0.098044 0.277948
O O7 0.311733 0.982275 0.114856
O O8 0.881958 0.396849 0.447663
#
# Coordination Sequence:
#
# PCOD9460448 Si02
#       4
#     8   8   8   8
#     4  10  22  44  70 110 156 202 256 324 392 464
#     4  10  23  44  74 111 158 208 262 328 405 479
#     4  10  23  44  74 111 158 208 262 328 405 479
#     4  10  22  44  76 112 156 202 262 328 392 470
#
# _framework density 31.854376999999999
#
# number of rings (size 3 to 8) (size 9 to 14) (size 15 to 20)
#    0.000    2.000    0.000    1.500    0.000    8.000 
#    0.000   17.500    0.000   39.000    0.000   14.000 
#    0.000    0.000    0.000    0.000    0.000    0.000 
#
# Total GULP energy -179003.898193 kJ/mol
# GULP energy per Si atom -5593.871819 kJ/mol
# Density = 3.178187 g / cm^3
# Si number density = 31.854377 Si / 1000 Ang^3
#
#
#
# Elastic Constant Matrix: (Units=GPa)
#
#
# Indices 1 2 3 4 5 6 
#
# 1 206.5391 89.2989 48.4354 0.0000 0.0000 0.0000
# 2 89.2989 261.4236 111.5139 0.0000 0.0000 0.0000
# 3 48.4354 111.5139 194.2540 0.0000 0.0000 0.0000
# 4 0.0000 0.0000 0.0000 47.6447 0.0000 0.0000
# 5 0.0000 0.0000 0.0000 0.0000 39.1796 0.0000
# 6 0.0000 0.0000 0.0000 0.0000 0.0000 92.7801
#
#
#
# Elastic Compliance Matrix: (Units=1/GPa)
#
#
# Indices 1 2 3 4 5 6 
#
# 1 0.005704 -0.001777 -0.000402 0.000000 0.000000 0.000000
# 2 -0.001777 0.005619 -0.002783 0.000000 0.000000 0.000000
# 3 -0.000402 -0.002783 0.006846 0.000000 0.000000 0.000000
# 4 0.000000 0.000000 0.000000 0.020989 0.000000 0.000000
# 5 0.000000 0.000000 0.000000 0.000000 0.025523 0.000000
# 6 0.000000 0.000000 0.000000 0.000000 0.000000 0.010778
#
#
# Mechanical properties :
#
#
# Convention : Reuss Voigt Hill
#
# Bulk Modulus (GPa) = 121.28020 128.96814 125.12417
# Shear Modulus (GPa) = 56.73328 63.45211 60.09270
#
# Velocity S-wave (km/s) = 4.22479 4.46796 4.34808
# Velocity P-wave (km/s) = 7.87112 8.19705 8.03573
#
# Compressibility (1/GPa) = 0.00824537
#
# Stress axis : x y z
#
# Youngs Moduli (GPa) = 175.30638 177.96162 146.07835
#
# Poissons Ratio (x) = 0.31623 0.05876
# Poissons Ratio (y) = 0.31151 0.40649
# Poissons Ratio (z) = 0.07052 0.49521
#
# Static dielectric constant tensor:
#      x y z
#    x 2.515260 0.000000 0.000000 
#    y 0.000000 2.439070 0.000000 
#    z 0.000000 0.000000 2.719220 
# 
# From -- ./inp_files/5512.got.cif
#   From: 2010.05.17/outbox.cif.g08.bks.cpg/sg61_3_cif.got.tgz:5512.got - 2010.06.03 15:17:17.
