data_PCOD9460577
_publ_section_title
;
Structure prediction by ZEFSAII (Michael W. Deem and Ramdas Pophale) SiO2 
 PCOD9460577
Probable space group: P B C A
;
_chemical_formula_sum "Si O2"
_cell_formula_units_Z 40
_cell_length_a 19.682120
_cell_length_b 9.405477
_cell_length_c 9.134510
_cell_angle_alpha 90.000000
_cell_angle_beta 90.000000
_cell_angle_gamma 90.000000
_cell_volume 1690.977997
_symmetry_space_group_name_H-M "P B C A"
_symmetry_group_IT_number 61
_symmetry_cell_setting 'orthorhombic'
loop_
_space_group_symop_operation_xyz
x,y,z
1/2-x,-y,1/2+z
1/2+x,1/2-y,-z
-x,1/2+y,1/2-z
-x,-y,-z
1/2+x,y,1/2-z
1/2-x,1/2+y,z
x,1/2-y,1/2+z
loop_
_atom_site_type_symbol
_atom_site_label
_atom_site_fract_x
_atom_site_fract_y
_atom_site_fract_z
Si Si1 0.758954 0.849420 0.657535
Si Si2 0.019604 0.163097 0.509248
Si Si3 0.604921 0.323772 0.217382
Si Si4 0.930951 0.084229 0.034312
Si Si5 0.805441 0.378521 0.338653
O O1 0.824519 0.748787 0.678214
O O2 0.700808 0.766323 0.747531
O O3 0.738217 0.866596 0.488723
O O4 0.777788 0.996275 0.735916
O O5 0.084779 0.178128 0.614195
O O6 0.045247 0.231561 0.358828
O O7 0.956235 0.256785 0.566377
O O8 0.000000 0.000000 0.500000
O O9 0.602847 0.484520 0.156908
O O10 0.880682 0.087773 0.896413
O O11 0.000000 0.000000 0.000000
#
# Coordination Sequence:
#
# PCOD9460577 Si02
#       5
#     8   8   8   8   8
#     4  12  26  46  70 102 138 185 237 292 357 425
#     4  11  24  41  69 101 134 179 230 285 346 416
#     4  11  23  45  68  95 137 179 225 285 348 418
#     4  10  23  43  65  96 135 176 223 281 348 420
#     4  12  26  45  70 100 137 181 232 289 350 425
#
# _framework density 23.654948999999998
#
# number of rings (size 3 to 8) (size 9 to 14) (size 15 to 20)
#    0.000    0.800    0.000    8.400    0.000   11.200 
#    0.000    0.000    0.000    0.000    0.000    0.000 
#    0.000    0.000    0.000    0.000    0.000    0.000 
#
# Total GULP energy -224125.449634 kJ/mol
# GULP energy per Si atom -5603.136241 kJ/mol
# Density = 2.360111 g / cm^3
# Si number density = 23.654949 Si / 1000 Ang^3
#
#
#
# Elastic Constant Matrix: (Units=GPa)
#
#
# Indices 1 2 3 4 5 6 
#
# 1 90.9374 35.3632 10.4497 0.0000 0.0000 0.0000
# 2 35.3632 175.2874 27.9388 0.0000 0.0000 0.0000
# 3 10.4497 27.9388 90.3641 0.0000 0.0000 0.0000
# 4 0.0000 0.0000 0.0000 37.8852 0.0000 0.0000
# 5 0.0000 0.0000 0.0000 0.0000 40.8916 0.0000
# 6 0.0000 0.0000 0.0000 0.0000 0.0000 29.4468
#
#
#
# Elastic Compliance Matrix: (Units=1/GPa)
#
#
# Indices 1 2 3 4 5 6 
#
# 1 0.011971 -0.002308 -0.000671 0.000000 0.000000 0.000000
# 2 -0.002308 0.006446 -0.001726 0.000000 0.000000 0.000000
# 3 -0.000671 -0.001726 0.011678 0.000000 0.000000 0.000000
# 4 0.000000 0.000000 0.000000 0.026396 0.000000 0.000000
# 5 0.000000 0.000000 0.000000 0.000000 0.024455 0.000000
# 6 0.000000 0.000000 0.000000 0.000000 0.000000 0.033959
#
#
# Mechanical properties :
#
#
# Convention : Reuss Voigt Hill
#
# Bulk Modulus (GPa) = 48.34487 56.01025 52.17756
# Shear Modulus (GPa) = 38.10712 40.50054 39.30383
#
# Velocity S-wave (km/s) = 4.01803 4.14229 4.08063
# Velocity P-wave (km/s) = 6.48135 6.82697 6.65641
#
# Compressibility (1/GPa) = 0.02068472
#
# Stress axis : x y z
#
# Youngs Moduli (GPa) = 83.53338 155.14250 85.63454
#
# Poissons Ratio (x) = 0.35811 0.05743
# Poissons Ratio (y) = 0.19281 0.14780
# Poissons Ratio (z) = 0.05603 0.26777
#
# Static dielectric constant tensor:
#      x y z
#    x 1.943850 0.000000 0.000000 
#    y 0.000000 1.873340 0.000000 
#    z 0.000000 0.000000 1.848000 
# 
# From -- ./inp_files/1773.got.cif
#   From: 2010.05.17/outbox.cif.g08.bks.cpg/sg61_1_cif.got.tgz:1773.got - 2010.06.03 15:17:17.
