data_PCOD9460485
_publ_section_title
;
Structure prediction by ZEFSAII (Michael W. Deem and Ramdas Pophale) SiO2 
 PCOD9460485
Probable space group: P B C A
;
_chemical_formula_sum "Si O2"
_cell_formula_units_Z 48
_cell_length_a 8.294740
_cell_length_b 11.470604
_cell_length_c 21.938745
_cell_angle_alpha 90.000000
_cell_angle_beta 90.000000
_cell_angle_gamma 90.000000
_cell_volume 2087.376764
_symmetry_space_group_name_H-M "P B C A"
_symmetry_group_IT_number 61
_symmetry_cell_setting 'orthorhombic'
loop_
_space_group_symop_operation_xyz
x,y,z
1/2-x,-y,1/2+z
1/2+x,1/2-y,-z
-x,1/2+y,1/2-z
-x,-y,-z
1/2+x,y,1/2-z
1/2-x,1/2+y,z
x,1/2-y,1/2+z
loop_
_atom_site_type_symbol
_atom_site_label
_atom_site_fract_x
_atom_site_fract_y
_atom_site_fract_z
Si Si1 0.674441 0.820720 0.941331
Si Si2 0.396284 0.403091 0.841749
Si Si3 0.545237 0.646092 0.843876
Si Si4 0.382580 0.528835 0.651050
Si Si5 0.921042 0.853269 0.732980
Si Si6 0.030777 0.717734 0.930144
O O1 0.569306 0.726917 0.903118
O O2 0.667880 0.939784 0.902983
O O3 0.854228 0.769895 0.944072
O O4 0.606981 0.832734 0.008972
O O5 0.426484 0.538079 0.854950
O O6 0.252748 0.376099 0.795358
O O7 0.557390 0.360929 0.805369
O O8 0.370998 0.325110 0.901157
O O9 0.722167 0.595841 0.827950
O O10 0.481800 0.728934 0.790652
O O11 0.468771 0.454448 0.703092
O O12 0.506072 0.619867 0.621163
#
# Coordination Sequence:
#
# PCOD9460485 Si02
#       6
#     8   8   8   8   8   8
#     4  10  23  44  68 103 138 185 227 287 345 410
#     4  12  27  45  69 104 135 187 231 286 356 406
#     4  10  24  47  70  99 140 183 229 290 342 410
#     4  10  22  47  71  98 140 183 234 284 352 399
#     4  11  28  43  72 100 141 180 238 286 349 419
#     4  11  25  42  71 101 141 182 234 286 347 415
#
# _framework density 22.995370999999999
#
# number of rings (size 3 to 8) (size 9 to 14) (size 15 to 20)
#    0.000    1.333    1.667    1.500   14.000    0.667 
#    0.000    0.000    0.000    0.000    0.000    0.000 
#    0.000    0.000    0.000    0.000    0.000    0.000 
#
# Total GULP energy -268966.447286 kJ/mol
# GULP energy per Si atom -5603.467652 kJ/mol
# Density = 2.294303 g / cm^3
# Si number density = 22.995371 Si / 1000 Ang^3
#
#
#
# Elastic Constant Matrix: (Units=GPa)
#
#
# Indices 1 2 3 4 5 6 
#
# 1 56.5051 20.7769 9.9874 0.0000 0.0000 0.0000
# 2 20.7769 123.5592 13.4770 0.0000 0.0000 0.0000
# 3 9.9874 13.4770 55.3689 0.0000 0.0000 0.0000
# 4 0.0000 0.0000 0.0000 19.6695 0.0000 0.0000
# 5 0.0000 0.0000 0.0000 0.0000 33.8712 0.0000
# 6 0.0000 0.0000 0.0000 0.0000 0.0000 27.6644
#
#
#
# Elastic Compliance Matrix: (Units=1/GPa)
#
#
# Indices 1 2 3 4 5 6 
#
# 1 0.019266 -0.002939 -0.002760 0.000000 0.000000 0.000000
# 2 -0.002939 0.008762 -0.001603 0.000000 0.000000 0.000000
# 3 -0.002760 -0.001603 0.018949 0.000000 0.000000 0.000000
# 4 0.000000 0.000000 0.000000 0.050840 0.000000 0.000000
# 5 0.000000 0.000000 0.000000 0.000000 0.029524 0.000000
# 6 0.000000 0.000000 0.000000 0.000000 0.000000 0.036147
#
#
# Mechanical properties :
#
#
# Convention : Reuss Voigt Hill
#
# Bulk Modulus (GPa) = 30.88869 35.99066 33.43967
# Shear Modulus (GPa) = 26.47157 28.98714 27.72936
#
# Velocity S-wave (km/s) = 3.39657 3.55429 3.47633
# Velocity P-wave (km/s) = 5.37066 5.70344 5.53955
#
# Compressibility (1/GPa) = 0.03237431
#
# Stress axis : x y z
#
# Youngs Moduli (GPa) = 51.90532 114.12612 52.77430
#
# Poissons Ratio (x) = 0.33537 0.14565
# Poissons Ratio (y) = 0.15253 0.08458
# Poissons Ratio (z) = 0.14325 0.18291
#
# Static dielectric constant tensor:
#      x y z
#    x 1.902920 0.000000 0.000000 
#    y 0.000000 1.844440 0.000000 
#    z 0.000000 0.000000 1.797910 
# 
# From -- ./inp_files/6574.got.cif
#   From: 2010.05.17/outbox.cif.g08.bks.cpg/sg61_4_cif.got.tgz:6574.got - 2010.06.03 15:17:17.
