data_PCOD9460975
_publ_section_title
;
Structure prediction by ZEFSAII (Michael W. Deem and Ramdas Pophale) SiO2 
 PCOD9460975
Probable space group: P B C A
;
_chemical_formula_sum "Si O2"
_cell_formula_units_Z 32
_cell_length_a 11.925075
_cell_length_b 13.988476
_cell_length_c 8.292759
_cell_angle_alpha 90.000000
_cell_angle_beta 90.000000
_cell_angle_gamma 90.000000
_cell_volume 1383.345194
_symmetry_space_group_name_H-M "P B C A"
_symmetry_group_IT_number 61
_symmetry_cell_setting 'orthorhombic'
loop_
_space_group_symop_operation_xyz
x,y,z
1/2-x,-y,1/2+z
1/2+x,1/2-y,-z
-x,1/2+y,1/2-z
-x,-y,-z
1/2+x,y,1/2-z
1/2-x,1/2+y,z
x,1/2-y,1/2+z
loop_
_atom_site_type_symbol
_atom_site_label
_atom_site_fract_x
_atom_site_fract_y
_atom_site_fract_z
Si Si1 0.607088 0.058504 0.695445
Si Si2 0.975808 0.286876 0.501343
Si Si3 0.542765 0.110932 0.174767
Si Si4 0.767118 0.410708 0.489938
O O1 0.541345 0.150138 0.631876
O O2 0.524527 0.985591 0.788879
O O3 0.654917 0.999978 0.541073
O O4 0.707466 0.081436 0.817977
O O5 0.846730 0.318727 0.497223
O O6 0.027587 0.323876 0.667697
O O7 0.989886 0.175475 0.467332
O O8 0.669837 0.094358 0.123329
#
# Coordination Sequence:
#
# PCOD9460975 Si02
#       4
#     8   8   8   8
#     4  11  23  42  66  95 128 166 214 259 313 381
#     4  11  25  43  63  95 128 163 215 262 311 383
#     4  11  24  42  64  94 127 166 213 260 313 380
#     4  11  23  41  67  92 129 173 204 261 321 364
#
# _framework density 23.132331000000001
#
# number of rings (size 3 to 8) (size 9 to 14) (size 15 to 20)
#    0.000    1.000    0.000    8.250    0.000   12.000 
#    0.000    0.000    0.000    0.000    0.000    0.000 
#    0.000    0.000    0.000    0.000    0.000    0.000 
#
# Total GULP energy -179303.002588 kJ/mol
# GULP energy per Si atom -5603.218831 kJ/mol
# Density = 2.307968 g / cm^3
# Si number density = 23.132331 Si / 1000 Ang^3
#
#
#
# Elastic Constant Matrix: (Units=GPa)
#
#
# Indices 1 2 3 4 5 6 
#
# 1 105.5673 17.2956 0.5671 0.0000 0.0000 0.0000
# 2 17.2956 66.1921 -0.4284 0.0000 0.0000 0.0000
# 3 0.5671 -0.4284 60.7875 0.0000 0.0000 0.0000
# 4 0.0000 0.0000 0.0000 33.9306 0.0000 0.0000
# 5 0.0000 0.0000 0.0000 0.0000 -148.5029 0.0000
# 6 0.0000 0.0000 0.0000 0.0000 0.0000 12.2699
#
#
#
# Elastic Compliance Matrix: (Units=1/GPa)
#
#
# Indices 1 2 3 4 5 6 
#
# 1 0.009897 -0.002587 -0.000111 0.000000 0.000000 0.000000
# 2 -0.002587 0.015784 0.000135 0.000000 0.000000 0.000000
# 3 -0.000111 0.000135 0.016453 0.000000 0.000000 0.000000
# 4 0.000000 0.000000 0.000000 0.029472 0.000000 0.000000
# 5 0.000000 0.000000 0.000000 0.000000 -0.006734 0.000000
# 6 0.000000 0.000000 0.000000 0.000000 0.000000 0.081500
#
#
# Mechanical properties :
#
#
# Convention : Reuss Voigt Hill
#
# Bulk Modulus (GPa) = 27.01957 29.71283 28.36620
# Shear Modulus (GPa) = 30.51892 -6.11963 12.19965
#
# Velocity S-wave (km/s) = 3.63618 -1.62826 2.29898
# Velocity P-wave (km/s) = 5.41617 3.05575 4.39730
#
# Compressibility (1/GPa) = 0.03701021
#
# Stress axis : x y z
#
# Youngs Moduli (GPa) = 101.04048 63.35400 60.78016
#
# Poissons Ratio (x) = 0.16388 0.00672
# Poissons Ratio (y) = 0.26137 -0.00823
# Poissons Ratio (z) = 0.01117 -0.00858
#
# Static dielectric constant tensor:
#      x y z
#    x 1.829610 0.000000 0.000000 
#    y 0.000000 1.829880 0.000000 
#    z 0.000000 0.000000 1.918780 
# 
# From -- ./inp_files/1979.got.cif
#   From: 2010.05.17/outbox.cif.g08.bks.cpg/sg61_1_cif.got.tgz:1979.got - 2010.06.03 15:17:17.
