data_PCOD9460297
_publ_section_title
;
Structure prediction by ZEFSAII (Michael W. Deem and Ramdas Pophale) SiO2 
 PCOD9460297
Probable space group: P B C A
;
_chemical_formula_sum "Si O2"
_cell_formula_units_Z 32
_cell_length_a 4.903258
_cell_length_b 15.822354
_cell_length_c 15.388197
_cell_angle_alpha 90.000000
_cell_angle_beta 90.000000
_cell_angle_gamma 90.000000
_cell_volume 1193.833001
_symmetry_space_group_name_H-M "P B C A"
_symmetry_group_IT_number 61
_symmetry_cell_setting 'orthorhombic'
loop_
_space_group_symop_operation_xyz
x,y,z
1/2-x,-y,1/2+z
1/2+x,1/2-y,-z
-x,1/2+y,1/2-z
-x,-y,-z
1/2+x,y,1/2-z
1/2-x,1/2+y,z
x,1/2-y,1/2+z
loop_
_atom_site_type_symbol
_atom_site_label
_atom_site_fract_x
_atom_site_fract_y
_atom_site_fract_z
Si Si1 0.352653 0.849901 0.065355
Si Si2 0.748988 0.199227 0.690267
Si Si3 0.493873 0.835928 0.601842
Si Si4 0.787667 0.491554 0.812280
O O1 0.674532 0.844098 0.097766
O O2 0.306436 0.748387 0.083341
O O3 0.260637 0.929416 0.122551
O O4 0.201164 0.861254 0.974593
O O5 0.802576 0.298176 0.674841
O O6 0.977213 0.177575 0.761382
O O7 0.912095 0.992915 0.728840
O O8 0.302427 0.910125 0.633016
#
# Coordination Sequence:
#
# PCOD9460297 Si02
#       4
#     8   8   8   8
#     4  10  25  44  75 107 151 190 248 304 379 436
#     4  10  22  40  68  98 140 184 236 290 352 432
#     4  10  25  44  75 107 151 190 248 304 379 436
#     4  12  27  48  75 108 148 198 250 306 368 447
#
# _framework density 26.804417999999998
#
# number of rings (size 3 to 8) (size 9 to 14) (size 15 to 20)
#    1.500    0.000    0.000    3.750    3.500    4.000 
#    0.000    3.750    0.000    0.000    0.000    0.000 
#    0.000    0.000    0.000    0.000    0.000    0.000 
#
# Total GULP energy -178598.860688 kJ/mol
# GULP energy per Si atom -5581.214397 kJ/mol
# Density = 2.674341 g / cm^3
# Si number density = 26.804418 Si / 1000 Ang^3
#
#
#
# Elastic Constant Matrix: (Units=GPa)
#
#
# Indices 1 2 3 4 5 6 
#
# 1 79.0410 0.9483 8.5517 0.0000 0.0000 0.0000
# 2 0.9483 120.9695 30.1732 0.0000 0.0000 0.0000
# 3 8.5517 30.1732 65.2355 0.0000 0.0000 0.0000
# 4 0.0000 0.0000 0.0000 52.1383 0.0000 0.0000
# 5 0.0000 0.0000 0.0000 0.0000 22.8860 0.0000
# 6 0.0000 0.0000 0.0000 0.0000 0.0000 27.3578
#
#
#
# Elastic Compliance Matrix: (Units=1/GPa)
#
#
# Indices 1 2 3 4 5 6 
#
# 1 0.012848 0.000361 -0.001851 0.000000 0.000000 0.000000
# 2 0.000361 0.009355 -0.004374 0.000000 0.000000 0.000000
# 3 -0.001851 -0.004374 0.017595 0.000000 0.000000 0.000000
# 4 0.000000 0.000000 0.000000 0.019180 0.000000 0.000000
# 5 0.000000 0.000000 0.000000 0.000000 0.043695 0.000000
# 6 0.000000 0.000000 0.000000 0.000000 0.000000 0.036553
#
#
# Mechanical properties :
#
#
# Convention : Reuss Voigt Hill
#
# Bulk Modulus (GPa) = 35.62692 38.28805 36.95749
# Shear Modulus (GPa) = 31.18968 35.51460 33.35214
#
# Velocity S-wave (km/s) = 3.41486 3.64394 3.53126
# Velocity P-wave (km/s) = 5.37296 5.65859 5.51762
#
# Compressibility (1/GPa) = 0.02806866
#
# Stress axis : x y z
#
# Youngs Moduli (GPa) = 77.83547 106.89751 56.83461
#
# Poissons Ratio (x) = -0.03859 0.10521
# Poissons Ratio (y) = -0.02810 0.24860
# Poissons Ratio (z) = 0.14409 0.46759
#
# Static dielectric constant tensor:
#      x y z
#    x 2.176240 0.000000 0.000000 
#    y 0.000000 2.116160 0.000000 
#    z 0.000000 0.000000 2.189900 
# 
# From -- ./inp_files/1976.got.cif
#   From: 2010.05.17/outbox.cif.g08.bks.cpg/sg61_1_cif.got.tgz:1976.got - 2010.06.03 15:17:17.
