data_PCOD9460990
_publ_section_title
;
Structure prediction by ZEFSAII (Michael W. Deem and Ramdas Pophale) SiO2 
 PCOD9460990
Probable space group: P B C A
;
_chemical_formula_sum "Si O2"
_cell_formula_units_Z 44
_cell_length_a 13.672252
_cell_length_b 26.788653
_cell_length_c 5.023462
_cell_angle_alpha 90.000000
_cell_angle_beta 90.000000
_cell_angle_gamma 90.000000
_cell_volume 1839.899293
_symmetry_space_group_name_H-M "P B C A"
_symmetry_group_IT_number 61
_symmetry_cell_setting 'orthorhombic'
loop_
_space_group_symop_operation_xyz
x,y,z
1/2-x,-y,1/2+z
1/2+x,1/2-y,-z
-x,1/2+y,1/2-z
-x,-y,-z
1/2+x,y,1/2-z
1/2-x,1/2+y,z
x,1/2-y,1/2+z
loop_
_atom_site_type_symbol
_atom_site_label
_atom_site_fract_x
_atom_site_fract_y
_atom_site_fract_z
Si Si1 0.150408 0.046728 0.152690
Si Si2 0.128349 0.542492 0.011153
Si Si3 0.797731 0.853394 0.587231
Si Si4 0.338367 0.345044 0.416379
Si Si5 0.000000 0.000000 0.000000
Si Si6 0.970049 0.781796 0.401577
O O1 0.254345 0.035067 0.026718
O O2 0.170032 0.089175 0.365716
O O3 0.097769 0.995611 0.272061
O O4 0.062165 0.056434 0.956210
O O5 0.114410 0.600476 0.962632
O O6 0.077976 0.526152 0.278948
O O7 0.746903 0.837926 0.864765
O O8 0.889083 0.821028 0.496228
O O9 0.714252 0.848049 0.366804
O O10 0.421825 0.304079 0.437186
O O11 0.957977 0.734521 0.596752
#
# Coordination Sequence:
#
# PCOD9460990 Si02
#       6
#     8   8   8   8   4   8
#     4  11  23  43  67 102 148 191 241 288 347 437
#     4  11  23  43  67 102 148 191 241 288 347 437
#     4  11  26  47  75 108 148 193 243 300 366 438
#     4  11  26  47  75 108 148 193 243 300 366 438
#     4  12  24  38  68  96 140 200 234 288 352 392
#     4  12  27  49  75 109 144 183 251 314 373 443
#
# _framework density 23.914349999999999
#
# number of rings (size 3 to 8) (size 9 to 14) (size 15 to 20)
#    0.000    0.727    1.818    4.909    5.091    4.364 
#    6.545    0.000    0.000    0.000    0.000    0.000 
#    0.000    0.000    0.000    0.000    0.000    0.000 
#
# Total GULP energy -245775.345301 kJ/mol
# GULP energy per Si atom -5585.803302 kJ/mol
# Density = 2.385992 g / cm^3
# Si number density = 23.914350 Si / 1000 Ang^3
#
#
#
# Elastic Constant Matrix: (Units=GPa)
#
#
# Indices 1 2 3 4 5 6 
#
# 1 114.7089 41.0279 35.2610 0.0000 0.0000 0.0000
# 2 41.0279 58.9926 19.3666 0.0000 0.0000 0.0000
# 3 35.2610 19.3666 52.4791 0.0000 0.0000 0.0000
# 4 0.0000 0.0000 0.0000 38.7039 0.0000 0.0000
# 5 0.0000 0.0000 0.0000 0.0000 50.3800 0.0000
# 6 0.0000 0.0000 0.0000 0.0000 0.0000 35.0539
#
#
#
# Elastic Compliance Matrix: (Units=1/GPa)
#
#
# Indices 1 2 3 4 5 6 
#
# 1 0.013179 -0.007121 -0.006227 0.000000 0.000000 0.000000
# 2 -0.007121 0.023136 -0.003753 0.000000 0.000000 0.000000
# 3 -0.006227 -0.003753 0.024624 0.000000 0.000000 0.000000
# 4 0.000000 0.000000 0.000000 0.025837 0.000000 0.000000
# 5 0.000000 0.000000 0.000000 0.000000 0.019849 0.000000
# 6 0.000000 0.000000 0.000000 0.000000 0.000000 0.028527
#
#
# Mechanical properties :
#
#
# Convention : Reuss Voigt Hill
#
# Bulk Modulus (GPa) = 37.40237 46.38797 41.89517
# Shear Modulus (GPa) = 28.04762 33.52924 30.78843
#
# Velocity S-wave (km/s) = 3.42839 3.74846 3.59199
# Velocity P-wave (km/s) = 5.59874 6.17854 5.89577
#
# Compressibility (1/GPa) = 0.02673627
#
# Stress axis : x y z
#
# Youngs Moduli (GPa) = 75.87840 43.22241 40.61049
#
# Poissons Ratio (x) = 0.30780 0.25288
# Poissons Ratio (y) = 0.54036 0.15242
# Poissons Ratio (z) = 0.47249 0.16222
#
# Static dielectric constant tensor:
#      x y z
#    x 1.956430 0.000000 0.000000 
#    y 0.000000 1.950060 0.000000 
#    z 0.000000 0.000000 2.003090 
# 
# From -- ./inp_files/487.got.cif
#   From: 2010.05.17/outbox.cif.g08.bks.cpg/sg61_1_cif.got.tgz:487.got - 2010.06.03 15:17:17.
