data_PCOD9460930
_publ_section_title
;
Structure prediction by ZEFSAII (Michael W. Deem and Ramdas Pophale) SiO2 
 PCOD9460930
Probable space group: P B C A
;
_chemical_formula_sum "Si O2"
_cell_formula_units_Z 32
_cell_length_a 8.178334
_cell_length_b 8.732113
_cell_length_c 17.045281
_cell_angle_alpha 90.000000
_cell_angle_beta 90.000000
_cell_angle_gamma 90.000000
_cell_volume 1217.274026
_symmetry_space_group_name_H-M "P B C A"
_symmetry_group_IT_number 61
_symmetry_cell_setting 'orthorhombic'
loop_
_space_group_symop_operation_xyz
x,y,z
1/2-x,-y,1/2+z
1/2+x,1/2-y,-z
-x,1/2+y,1/2-z
-x,-y,-z
1/2+x,y,1/2-z
1/2-x,1/2+y,z
x,1/2-y,1/2+z
loop_
_atom_site_type_symbol
_atom_site_label
_atom_site_fract_x
_atom_site_fract_y
_atom_site_fract_z
Si Si1 0.932913 0.642243 0.837608
Si Si2 0.326216 0.643486 0.840382
Si Si3 0.435581 0.369064 0.560602
Si Si4 0.550343 0.871256 0.561092
O O1 0.130366 0.649713 0.841182
O O2 0.867424 0.483130 0.872202
O O3 0.900712 0.781657 0.897233
O O4 0.877630 0.664981 0.749566
O O5 0.430834 0.764782 0.892263
O O6 0.365730 0.473157 0.871819
O O7 0.500000 0.500000 0.500000
O O8 0.361141 0.250462 0.496750
O O9 0.500000 0.000000 0.500000
#
# Coordination Sequence:
#
# PCOD9460930 Si02
#       4
#     8   8   8   8
#     4  11  22  40  63  93 129 167 207 257 314 378
#     4  11  22  40  63  93 129 167 207 257 314 378
#     4   9  20  40  62  87 119 165 213 259 309 364
#     4   9  20  40  62  87 119 165 213 259 309 364
#
# _framework density 26.288246000000001
#
# number of rings (size 3 to 8) (size 9 to 14) (size 15 to 20)
#    0.000    2.000    0.000    3.000    0.000    0.000 
#    0.000   50.000    0.000    0.000    0.000    0.000 
#    0.000    0.000    0.000    0.000    0.000    0.000 
#
# Total GULP energy -178710.137409 kJ/mol
# GULP energy per Si atom -5584.691794 kJ/mol
# Density = 2.622841 g / cm^3
# Si number density = 26.288246 Si / 1000 Ang^3
#
#
#
# Elastic Constant Matrix: (Units=GPa)
#
#
# Indices 1 2 3 4 5 6 
#
# 1 45.6776 37.3424 57.7596 0.0000 0.0000 0.0000
# 2 37.3424 203.0306 71.1004 0.0000 0.0000 0.0000
# 3 57.7596 71.1004 238.3146 0.0000 0.0000 0.0000
# 4 0.0000 0.0000 0.0000 60.5321 0.0000 0.0000
# 5 0.0000 0.0000 0.0000 0.0000 44.6972 0.0000
# 6 0.0000 0.0000 0.0000 0.0000 0.0000 29.8212
#
#
#
# Elastic Compliance Matrix: (Units=1/GPa)
#
#
# Indices 1 2 3 4 5 6 
#
# 1 0.033951 -0.003755 -0.007108 0.000000 0.000000 0.000000
# 2 -0.003755 0.005915 -0.000855 0.000000 0.000000 0.000000
# 3 -0.007108 -0.000855 0.006174 0.000000 0.000000 0.000000
# 4 0.000000 0.000000 0.000000 0.016520 0.000000 0.000000
# 5 0.000000 0.000000 0.000000 0.000000 0.022373 0.000000
# 6 0.000000 0.000000 0.000000 0.000000 0.000000 0.033533
#
#
# Mechanical properties :
#
#
# Convention : Reuss Voigt Hill
#
# Bulk Modulus (GPa) = 44.23996 91.04751 67.64373
# Shear Modulus (GPa) = 33.45890 48.39814 40.92852
#
# Velocity S-wave (km/s) = 3.57146 4.29541 3.95005
# Velocity P-wave (km/s) = 5.82000 7.70131 6.82578
#
# Compressibility (1/GPa) = 0.02260400
#
# Stress axis : x y z
#
# Youngs Moduli (GPa) = 29.45431 169.05196 161.97138
#
# Poissons Ratio (x) = 0.63481 1.15133
# Poissons Ratio (y) = 0.11061 0.13844
# Poissons Ratio (z) = 0.20937 0.14449
#
# Static dielectric constant tensor:
#      x y z
#    x 2.528160 0.000000 0.000000 
#    y 0.000000 2.200230 0.000000 
#    z 0.000000 0.000000 2.143300 
# 
# From -- ./inp_files/3261.got.cif
#   From: 2010.05.17/outbox.cif.g08.bks.cpg/sg61_2_cif.got.tgz:3261.got - 2010.06.03 15:17:17.
