data_PCOD9460870
_publ_section_title
;
Structure prediction by ZEFSAII (Michael W. Deem and Ramdas Pophale) SiO2 
 PCOD9460870
Probable space group: P B C A
;
_chemical_formula_sum "Si O2"
_cell_formula_units_Z 48
_cell_length_a 8.699971
_cell_length_b 15.639173
_cell_length_c 17.290222
_cell_angle_alpha 90.000000
_cell_angle_beta 90.000000
_cell_angle_gamma 90.000000
_cell_volume 2352.513684
_symmetry_space_group_name_H-M "P B C A"
_symmetry_group_IT_number 61
_symmetry_cell_setting 'orthorhombic'
loop_
_space_group_symop_operation_xyz
x,y,z
1/2-x,-y,1/2+z
1/2+x,1/2-y,-z
-x,1/2+y,1/2-z
-x,-y,-z
1/2+x,y,1/2-z
1/2-x,1/2+y,z
x,1/2-y,1/2+z
loop_
_atom_site_type_symbol
_atom_site_label
_atom_site_fract_x
_atom_site_fract_y
_atom_site_fract_z
Si Si1 0.772391 0.068365 0.642703
Si Si2 0.132663 0.281661 0.459894
Si Si3 0.476371 0.184612 0.241292
Si Si4 0.741585 0.378440 0.639101
Si Si5 0.594947 0.127894 0.791242
Si Si6 0.297939 0.265422 0.106340
O O1 0.718461 0.141470 0.583735
O O2 0.667305 0.076899 0.719770
O O3 0.946801 0.085966 0.669730
O O4 0.753725 0.974176 0.608365
O O5 0.194534 0.193467 0.422157
O O6 0.175025 0.276956 0.549458
O O7 0.952314 0.286094 0.441276
O O8 0.396614 0.147826 0.316936
O O9 0.607949 0.126754 0.204372
O O10 0.542813 0.279179 0.258500
O O11 0.350115 0.201895 0.174643
O O12 0.725130 0.151281 0.853721
#
# Coordination Sequence:
#
# PCOD9460870 Si02
#       6
#     8   8   8   8   8   8
#     4  12  22  39  64  94 127 165 210 259 311 372
#     4  11  23  42  61  91 131 166 209 250 320 383
#     4  11  19  40  64  91 122 162 215 256 308 361
#     4  11  23  38  63  93 127 164 208 261 310 369
#     4  12  19  40  66  92 122 164 216 258 308 364
#     4  11  22  39  69  90 123 175 202 257 319 367
#
# _framework density 20.403707000000001
#
# number of rings (size 3 to 8) (size 9 to 14) (size 15 to 20)
#    0.000    0.667    8.333    2.000    0.000    0.000 
#    0.000   10.000    0.000    0.000    0.000    0.000 
#    0.000    0.000    0.000    0.000    0.000    0.000 
#
# Total GULP energy -268429.147916 kJ/mol
# GULP energy per Si atom -5592.273915 kJ/mol
# Density = 2.035727 g / cm^3
# Si number density = 20.403707 Si / 1000 Ang^3
#
#
#
# Elastic Constant Matrix: (Units=GPa)
#
#
# Indices 1 2 3 4 5 6 
#
# 1 33.6964 4.3303 20.5421 0.0000 0.0000 0.0000
# 2 4.3303 92.4011 7.5061 0.0000 0.0000 0.0000
# 3 20.5421 7.5061 47.9561 0.0000 0.0000 0.0000
# 4 0.0000 0.0000 0.0000 0.8646 0.0000 0.0000
# 5 0.0000 0.0000 0.0000 0.0000 47.7619 0.0000
# 6 0.0000 0.0000 0.0000 0.0000 0.0000 14.7388
#
#
#
# Elastic Compliance Matrix: (Units=1/GPa)
#
#
# Indices 1 2 3 4 5 6 
#
# 1 0.040187 -0.000491 -0.017138 0.000000 0.000000 0.000000
# 2 -0.000491 0.010968 -0.001506 0.000000 0.000000 0.000000
# 3 -0.017138 -0.001506 0.028429 0.000000 0.000000 0.000000
# 4 0.000000 0.000000 0.000000 1.156629 0.000000 0.000000
# 5 0.000000 0.000000 0.000000 0.000000 0.020937 0.000000
# 6 0.000000 0.000000 0.000000 0.000000 0.000000 0.067848
#
#
# Mechanical properties :
#
#
# Convention : Reuss Voigt Hill
#
# Bulk Modulus (GPa) = 24.20472 26.53451 25.36962
# Shear Modulus (GPa) = 3.63098 22.11806 12.87452
#
# Velocity S-wave (km/s) = 1.33545 3.29602 2.51468
# Velocity P-wave (km/s) = 3.77711 5.24576 4.57081
#
# Compressibility (1/GPa) = 0.04131425
#
# Stress axis : x y z
#
# Youngs Moduli (GPa) = 24.88344 91.17627 35.17524
#
# Poissons Ratio (x) = 0.04479 0.60282
# Poissons Ratio (y) = 0.01222 0.05298
# Poissons Ratio (z) = 0.42644 0.13733
#
# Static dielectric constant tensor:
#      x y z
#    x 1.753960 0.000000 0.000000 
#    y 0.000000 1.701040 0.000000 
#    z 0.000000 0.000000 1.719330 
# 
# From -- ./inp_files/2832.got.cif
#   From: 2010.05.17/outbox.cif.g08.bks.cpg/sg61_2_cif.got.tgz:2832.got - 2010.06.03 15:17:17.
