data_PCOD9460172
_publ_section_title
;
Structure prediction by ZEFSAII (Michael W. Deem and Ramdas Pophale) SiO2 
 PCOD9460172
Probable space group: P B C A
;
_chemical_formula_sum "Si O2"
_cell_formula_units_Z 64
_cell_length_a 11.762301
_cell_length_b 11.115950
_cell_length_c 18.870601
_cell_angle_alpha 90.000000
_cell_angle_beta 90.000000
_cell_angle_gamma 90.000000
_cell_volume 2467.315037
_symmetry_space_group_name_H-M "P B C A"
_symmetry_group_IT_number 61
_symmetry_cell_setting 'orthorhombic'
loop_
_space_group_symop_operation_xyz
x,y,z
1/2-x,-y,1/2+z
1/2+x,1/2-y,-z
-x,1/2+y,1/2-z
-x,-y,-z
1/2+x,y,1/2-z
1/2-x,1/2+y,z
x,1/2-y,1/2+z
loop_
_atom_site_type_symbol
_atom_site_label
_atom_site_fract_x
_atom_site_fract_y
_atom_site_fract_z
Si Si1 0.923085 0.299794 0.138173
Si Si2 0.202795 0.102933 0.864919
Si Si3 0.945561 0.422976 0.383635
Si Si4 0.139062 0.181022 0.120124
Si Si5 0.746094 0.139302 0.974138
Si Si6 0.664548 0.123622 0.131273
Si Si7 0.332727 0.223401 0.213492
Si Si8 0.425163 0.489308 0.627981
O O1 0.819259 0.356656 0.094584
O O2 0.873612 0.233377 0.206289
O O3 0.013155 0.221939 0.097177
O O4 0.005824 0.404659 0.166005
O O5 0.167067 0.239728 0.838445
O O6 0.080436 0.062862 0.892472
O O7 0.266402 0.985620 0.827894
O O8 0.885402 0.545454 0.359369
O O9 0.874618 0.390365 0.453539
O O10 0.908417 0.321214 0.328049
O O11 0.216637 0.227027 0.055421
O O12 0.203374 0.244162 0.186457
O O13 0.657072 0.050725 0.930781
O O14 0.728308 0.125967 0.056432
O O15 0.534727 0.092557 0.108285
O O16 0.356916 0.092834 0.181385
#
# Coordination Sequence:
#
# PCOD9460172 Si02
#       8
#     8   8   8   8   8   8   8   8
#     4  10  25  43  66  95 136 184 216 280 346 409
#     4  11  25  46  64 104 140 175 231 283 336 420
#     4  11  23  42  66  98 137 171 228 289 329 411
#     4  10  23  44  64 100 131 169 234 289 328 410
#     4  10  23  43  69  96 134 179 224 281 352 400
#     4  11  24  43  72  97 139 187 222 283 349 407
#     4  11  23  41  71  95 132 180 226 280 349 394
#     4  10  21  46  65  99 136 172 235 277 332 423
#
# _framework density 25.939128
#
# number of rings (size 3 to 8) (size 9 to 14) (size 15 to 20)
#    0.000    1.500    2.500    1.125    5.250    0.500 
#   11.250    0.000    0.000    0.000    0.000    0.000 
#    0.000    0.000    0.000    0.000    0.000    0.000 
#
# Total GULP energy -356279.466853 kJ/mol
# GULP energy per Si atom -5566.866670 kJ/mol
# Density = 2.588009 g / cm^3
# Si number density = 25.939128 Si / 1000 Ang^3
#
#
#
# Elastic Constant Matrix: (Units=GPa)
#
#
# Indices 1 2 3 4 5 6 
#
# 1 203.5261 30.4586 5.9265 0.0000 0.0000 0.0000
# 2 30.4586 130.8073 -10.8343 0.0000 0.0000 0.0000
# 3 5.9265 -10.8343 58.4064 0.0000 0.0000 0.0000
# 4 0.0000 0.0000 0.0000 10.7416 0.0000 0.0000
# 5 0.0000 0.0000 0.0000 0.0000 8.8848 0.0000
# 6 0.0000 0.0000 0.0000 0.0000 0.0000 33.7687
#
#
#
# Elastic Compliance Matrix: (Units=1/GPa)
#
#
# Indices 1 2 3 4 5 6 
#
# 1 0.005123 -0.001255 -0.000753 0.000000 0.000000 0.000000
# 2 -0.001255 0.008072 0.001625 0.000000 0.000000 0.000000
# 3 -0.000753 0.001625 0.017499 0.000000 0.000000 0.000000
# 4 0.000000 0.000000 0.000000 0.093096 0.000000 0.000000
# 5 0.000000 0.000000 0.000000 0.000000 0.112552 0.000000
# 6 0.000000 0.000000 0.000000 0.000000 0.000000 0.029613
#
#
# Mechanical properties :
#
#
# Convention : Reuss Voigt Hill
#
# Bulk Modulus (GPa) = 33.41423 49.31571 41.36497
# Shear Modulus (GPa) = 18.07027 35.15829 26.61428
#
# Velocity S-wave (km/s) = 2.64226 3.68559 3.20664
# Velocity P-wave (km/s) = 4.71365 6.09629 5.44900
#
# Compressibility (1/GPa) = 0.02992737
#
# Stress axis : x y z
#
# Youngs Moduli (GPa) = 195.19242 123.88976 57.14564
#
# Poissons Ratio (x) = 0.15552 0.04301
# Poissons Ratio (y) = 0.24502 -0.09284
# Poissons Ratio (z) = 0.14692 -0.20128
#
# Static dielectric constant tensor:
#      x y z
#    x 2.084390 0.000000 0.000000 
#    y 0.000000 2.264860 0.000000 
#    z 0.000000 0.000000 2.030070 
# 
# From -- ./inp_files/11022.got.cif
#   From: 2010.05.17/outbox.cif.g08.bks.cpg/sg61_6_cif.got.tgz:11022.got - 2010.06.03 15:17:17.
