data_PCOD9460209
_publ_section_title
;
Structure prediction by ZEFSAII (Michael W. Deem and Ramdas Pophale) SiO2 
 PCOD9460209
Probable space group: P B C A
;
_chemical_formula_sum "Si O2"
_cell_formula_units_Z 32
_cell_length_a 9.034162
_cell_length_b 10.752305
_cell_length_c 12.121790
_cell_angle_alpha 90.000000
_cell_angle_beta 90.000000
_cell_angle_gamma 90.000000
_cell_volume 1177.487228
_symmetry_space_group_name_H-M "P B C A"
_symmetry_group_IT_number 61
_symmetry_cell_setting 'orthorhombic'
loop_
_space_group_symop_operation_xyz
x,y,z
1/2-x,-y,1/2+z
1/2+x,1/2-y,-z
-x,1/2+y,1/2-z
-x,-y,-z
1/2+x,y,1/2-z
1/2-x,1/2+y,z
x,1/2-y,1/2+z
loop_
_atom_site_type_symbol
_atom_site_label
_atom_site_fract_x
_atom_site_fract_y
_atom_site_fract_z
Si Si1 0.872676 0.575579 0.856783
Si Si2 0.481714 0.631361 0.858347
Si Si3 0.213235 0.565177 0.448096
Si Si4 0.687609 0.684045 0.282751
O O1 0.000532 0.566251 0.763850
O O2 0.781689 0.447997 0.837845
O O3 0.795043 0.703892 0.817223
O O4 0.868774 0.582494 0.988914
O O5 0.328047 0.571798 0.901570
O O6 0.528226 0.770680 0.827502
O O7 0.592132 0.598625 0.958370
O O8 0.189977 0.658279 0.346926
#
# Coordination Sequence:
#
# PCOD9460209 Si02
#       4
#     8   8   8   8
#     4  10  22  39  64  93 127 169 216 265 318 382
#     4   9  20  37  61  89 123 164 213 260 313 377
#     4   9  20  40  63  88 129 171 208 265 319 366
#     4  10  22  38  62  95 125 167 217 261 318 383
#
# _framework density 27.176515999999999
#
# number of rings (size 3 to 8) (size 9 to 14) (size 15 to 20)
#    0.000    2.500    0.000    0.000    0.000   20.000 
#    0.000    0.000    0.000   67.500    0.000    0.000 
#    0.000    0.000    0.000    0.000    0.000    0.000 
#
# Total GULP energy -178321.479846 kJ/mol
# GULP energy per Si atom -5572.546245 kJ/mol
# Density = 2.711466 g / cm^3
# Si number density = 27.176516 Si / 1000 Ang^3
#
#
#
# Elastic Constant Matrix: (Units=GPa)
#
#
# Indices 1 2 3 4 5 6 
#
# 1 65.2960 36.6350 41.5389 0.0000 0.0000 0.0000
# 2 36.6350 182.3666 57.5276 0.0000 0.0000 0.0000
# 3 41.5389 57.5276 199.9491 0.0000 0.0000 0.0000
# 4 0.0000 0.0000 0.0000 42.5194 0.0000 0.0000
# 5 0.0000 0.0000 0.0000 0.0000 56.1580 0.0000
# 6 0.0000 0.0000 0.0000 0.0000 0.0000 32.6307
#
#
#
# Elastic Compliance Matrix: (Units=1/GPa)
#
#
# Indices 1 2 3 4 5 6 
#
# 1 0.018871 -0.002809 -0.003112 0.000000 0.000000 0.000000
# 2 -0.002809 0.006449 -0.001272 0.000000 0.000000 0.000000
# 3 -0.003112 -0.001272 0.006014 0.000000 0.000000 0.000000
# 4 0.000000 0.000000 0.000000 0.023519 0.000000 0.000000
# 5 0.000000 0.000000 0.000000 0.000000 0.017807 0.000000
# 6 0.000000 0.000000 0.000000 0.000000 0.000000 0.030646
#
#
# Mechanical properties :
#
#
# Convention : Reuss Voigt Hill
#
# Bulk Modulus (GPa) = 59.00664 79.89050 69.44857
# Shear Modulus (GPa) = 40.53820 47.05564 43.79692
#
# Velocity S-wave (km/s) = 3.86640 4.16562 4.01879
# Velocity P-wave (km/s) = 6.45690 7.25240 6.86618
#
# Compressibility (1/GPa) = 0.01694724
#
# Stress axis : x y z
#
# Youngs Moduli (GPa) = 52.99186 155.06306 166.28598
#
# Poissons Ratio (x) = 0.43560 0.51750
# Poissons Ratio (y) = 0.14886 0.21149
# Poissons Ratio (z) = 0.16492 0.19722
#
# Static dielectric constant tensor:
#      x y z
#    x 2.380400 0.000000 0.000000 
#    y 0.000000 2.075450 0.000000 
#    z 0.000000 0.000000 2.156730 
# 
# From -- ./inp_files/5009.got.cif
#   From: 2010.05.17/outbox.cif.g08.bks.cpg/sg61_3_cif.got.tgz:5009.got - 2010.06.03 15:17:17.
