data_PCOD9460119
_publ_section_title
;
Structure prediction by ZEFSAII (Michael W. Deem and Ramdas Pophale) SiO2 
 PCOD9460119
Probable space group: P B C A
;
_chemical_formula_sum "Si O2"
_cell_formula_units_Z 48
_cell_length_a 11.817584
_cell_length_b 7.301257
_cell_length_c 21.593022
_cell_angle_alpha 90.000000
_cell_angle_beta 90.000000
_cell_angle_gamma 90.000000
_cell_volume 1863.115422
_symmetry_space_group_name_H-M "P B C A"
_symmetry_group_IT_number 61
_symmetry_cell_setting 'orthorhombic'
loop_
_space_group_symop_operation_xyz
x,y,z
1/2-x,-y,1/2+z
1/2+x,1/2-y,-z
-x,1/2+y,1/2-z
-x,-y,-z
1/2+x,y,1/2-z
1/2-x,1/2+y,z
x,1/2-y,1/2+z
loop_
_atom_site_type_symbol
_atom_site_label
_atom_site_fract_x
_atom_site_fract_y
_atom_site_fract_z
Si Si1 0.791327 0.013544 0.960234
Si Si2 0.922671 0.134811 0.419702
Si Si3 0.615811 0.314752 0.838566
Si Si4 0.873672 0.162281 0.156626
Si Si5 0.158266 0.696520 0.707488
Si Si6 0.653692 0.303017 0.086238
O O1 0.656976 0.028544 0.944656
O O2 0.837369 0.904267 0.901011
O O3 0.864389 0.198239 0.958549
O O4 0.817009 0.909225 0.023356
O O5 0.896847 0.188654 0.348439
O O6 0.057063 0.152000 0.426374
O O7 0.492982 0.235339 0.852509
O O8 0.709377 0.182285 0.810636
O O9 0.608130 0.490851 0.792049
O O10 0.848298 0.199032 0.228081
O O11 0.767706 0.227210 0.116422
O O12 0.893308 0.954039 0.134621
#
# Coordination Sequence:
#
# PCOD9460119 Si02
#       6
#     8   8   8   8   8   8
#     4  10  21  42  73  94 136 180 231 277 346 399
#     4  10  22  44  70  98 132 184 232 283 335 409
#     4  10  23  44  70  98 129 184 226 283 331 405
#     4  12  26  43  67 104 141 181 225 287 346 401
#     4  10  22  43  70  94 132 176 235 270 344 395
#     4  12  25  44  66 105 142 181 224 287 347 403
#
# _framework density 25.763299
#
# number of rings (size 3 to 8) (size 9 to 14) (size 15 to 20)
#    0.000    1.333    3.333    2.500    4.667    1.333 
#   12.000    1.667    0.000    0.000    0.000    0.000 
#    0.000    0.000    0.000    0.000    0.000    0.000 
#
# Total GULP energy -268889.997398 kJ/mol
# GULP energy per Si atom -5601.874946 kJ/mol
# Density = 2.570466 g / cm^3
# Si number density = 25.763299 Si / 1000 Ang^3
#
#
#
# Elastic Constant Matrix: (Units=GPa)
#
#
# Indices 1 2 3 4 5 6 
#
# 1 193.8748 5.2896 50.8181 0.0000 0.0000 0.0000
# 2 5.2896 59.4990 19.3404 0.0000 0.0000 0.0000
# 3 50.8181 19.3404 127.6971 0.0000 0.0000 0.0000
# 4 0.0000 0.0000 0.0000 18.8432 0.0000 0.0000
# 5 0.0000 0.0000 0.0000 0.0000 22.5422 0.0000
# 6 0.0000 0.0000 0.0000 0.0000 0.0000 24.6981
#
#
#
# Elastic Compliance Matrix: (Units=1/GPa)
#
#
# Indices 1 2 3 4 5 6 
#
# 1 0.005762 0.000245 -0.002330 0.000000 0.000000 0.000000
# 2 0.000245 0.017688 -0.002776 0.000000 0.000000 0.000000
# 3 -0.002330 -0.002776 0.009179 0.000000 0.000000 0.000000
# 4 0.000000 0.000000 0.000000 0.053070 0.000000 0.000000
# 5 0.000000 0.000000 0.000000 0.000000 0.044361 0.000000
# 6 0.000000 0.000000 0.000000 0.000000 0.000000 0.040489
#
#
# Mechanical properties :
#
#
# Convention : Reuss Voigt Hill
#
# Bulk Modulus (GPa) = 43.65732 59.10748 51.38240
# Shear Modulus (GPa) = 26.60895 33.59154 30.10024
#
# Velocity S-wave (km/s) = 3.21724 3.61481 3.42180
# Velocity P-wave (km/s) = 5.54826 6.35726 5.96649
#
# Compressibility (1/GPa) = 0.02290567
#
# Stress axis : x y z
#
# Youngs Moduli (GPa) = 173.54890 56.53638 108.94597
#
# Poissons Ratio (x) = -0.01386 0.25387
# Poissons Ratio (y) = -0.04255 0.30249
# Poissons Ratio (z) = 0.40440 0.15697
#
# Static dielectric constant tensor:
#      x y z
#    x 2.047700 0.000000 0.000000 
#    y 0.000000 2.161640 0.000000 
#    z 0.000000 0.000000 1.961590 
# 
# From -- ./inp_files/10969.got.cif
#   From: 2010.05.17/outbox.cif.g08.bks.cpg/sg61_6_cif.got.tgz:10969.got - 2010.06.03 15:17:17.
