data_PCOD9460418
_publ_section_title
;
Structure prediction by ZEFSAII (Michael W. Deem and Ramdas Pophale) SiO2 
 PCOD9460418
Probable space group: P B C A
;
_chemical_formula_sum "Si O2"
_cell_formula_units_Z 48
_cell_length_a 16.136669
_cell_length_b 11.123240
_cell_length_c 10.426105
_cell_angle_alpha 90.000000
_cell_angle_beta 90.000000
_cell_angle_gamma 90.000000
_cell_volume 1871.402877
_symmetry_space_group_name_H-M "P B C A"
_symmetry_group_IT_number 61
_symmetry_cell_setting 'orthorhombic'
loop_
_space_group_symop_operation_xyz
x,y,z
1/2-x,-y,1/2+z
1/2+x,1/2-y,-z
-x,1/2+y,1/2-z
-x,-y,-z
1/2+x,y,1/2-z
1/2-x,1/2+y,z
x,1/2-y,1/2+z
loop_
_atom_site_type_symbol
_atom_site_label
_atom_site_fract_x
_atom_site_fract_y
_atom_site_fract_z
Si Si1 0.175421 0.003003 0.021832
Si Si2 0.264809 0.285511 0.889027
Si Si3 0.912497 0.727603 0.606630
Si Si4 0.124873 0.835558 0.231188
Si Si5 0.350116 0.395812 0.595292
Si Si6 0.972424 0.622608 0.879808
O O1 0.118232 0.926422 0.115950
O O2 0.260153 0.035356 0.098772
O O3 0.197468 0.917265 0.902733
O O4 0.125925 0.114580 0.968551
O O5 0.168153 0.311088 0.886047
O O6 0.281067 0.190622 0.775197
O O7 0.312028 0.211007 0.001146
O O8 0.940776 0.687651 0.747992
O O9 0.971450 0.792219 0.504363
O O10 0.107041 0.695712 0.198719
O O11 0.068754 0.892316 0.342382
O O12 0.416758 0.505445 0.592553
#
# Coordination Sequence:
#
# PCOD9460418 Si02
#       6
#     8   8   8   8   8   8
#     4  10  22  45  69  98 134 192 241 288 346 425
#     4  10  22  43  70 100 133 186 241 292 343 423
#     4  11  26  44  71  99 141 189 234 288 356 424
#     4  11  26  41  74 102 144 184 236 296 363 427
#     4  10  23  45  67 101 140 182 243 290 346 430
#     4  12  27  46  68 107 147 186 228 296 365 425
#
# _framework density 25.649207000000001
#
# number of rings (size 3 to 8) (size 9 to 14) (size 15 to 20)
#    0.000    1.333    1.667    2.000   11.667    4.000 
#    0.000    0.000    0.000    0.000    0.000    0.000 
#    0.000    0.000    0.000    0.000    0.000    0.000 
#
# Total GULP energy -267304.826633 kJ/mol
# GULP energy per Si atom -5568.850555 kJ/mol
# Density = 2.559083 g / cm^3
# Si number density = 25.649207 Si / 1000 Ang^3
#
#
#
# Elastic Constant Matrix: (Units=GPa)
#
#
# Indices 1 2 3 4 5 6 
#
# 1 62.6081 12.1030 16.7784 0.0000 0.0000 0.0000
# 2 12.1030 113.8724 37.3569 0.0000 0.0000 0.0000
# 3 16.7784 37.3569 91.4480 0.0000 0.0000 0.0000
# 4 0.0000 0.0000 0.0000 29.1482 0.0000 0.0000
# 5 0.0000 0.0000 0.0000 0.0000 27.0812 0.0000
# 6 0.0000 0.0000 0.0000 0.0000 0.0000 27.6477
#
#
#
# Elastic Compliance Matrix: (Units=1/GPa)
#
#
# Indices 1 2 3 4 5 6 
#
# 1 0.016878 -0.000898 -0.002730 0.000000 0.000000 0.000000
# 2 -0.000898 0.010189 -0.003997 0.000000 0.000000 0.000000
# 3 -0.002730 -0.003997 0.013069 0.000000 0.000000 0.000000
# 4 0.000000 0.000000 0.000000 0.034307 0.000000 0.000000
# 5 0.000000 0.000000 0.000000 0.000000 0.036926 0.000000
# 6 0.000000 0.000000 0.000000 0.000000 0.000000 0.036169
#
#
# Mechanical properties :
#
#
# Convention : Reuss Voigt Hill
#
# Bulk Modulus (GPa) = 40.18560 44.48948 42.33754
# Shear Modulus (GPa) = 29.22555 30.22143 29.72349
#
# Velocity S-wave (km/s) = 3.37921 3.43630 3.40788
# Velocity P-wave (km/s) = 5.56119 5.75563 5.65924
#
# Compressibility (1/GPa) = 0.02488454
#
# Stress axis : x y z
#
# Youngs Moduli (GPa) = 59.25030 98.14907 76.51762
#
# Poissons Ratio (x) = 0.08817 0.20886
# Poissons Ratio (y) = 0.05323 0.30586
# Poissons Ratio (z) = 0.16173 0.39233
#
# Static dielectric constant tensor:
#      x y z
#    x 2.230920 0.000000 0.000000 
#    y 0.000000 1.983960 0.000000 
#    z 0.000000 0.000000 2.397240 
# 
# From -- ./inp_files/6148.got.cif
#   From: 2010.05.17/outbox.cif.g08.bks.cpg/sg61_4_cif.got.tgz:6148.got - 2010.06.03 15:17:17.
