data_PCOD9460591
_publ_section_title
;
Structure prediction by ZEFSAII (Michael W. Deem and Ramdas Pophale) SiO2 
 PCOD9460591
Probable space group: P B C A
;
_chemical_formula_sum "Si O2"
_cell_formula_units_Z 40
_cell_length_a 22.079570
_cell_length_b 7.655835
_cell_length_c 9.483616
_cell_angle_alpha 90.000000
_cell_angle_beta 90.000000
_cell_angle_gamma 90.000000
_cell_volume 1603.087164
_symmetry_space_group_name_H-M "P B C A"
_symmetry_group_IT_number 61
_symmetry_cell_setting 'orthorhombic'
loop_
_space_group_symop_operation_xyz
x,y,z
1/2-x,-y,1/2+z
1/2+x,1/2-y,-z
-x,1/2+y,1/2-z
-x,-y,-z
1/2+x,y,1/2-z
1/2-x,1/2+y,z
x,1/2-y,1/2+z
loop_
_atom_site_type_symbol
_atom_site_label
_atom_site_fract_x
_atom_site_fract_y
_atom_site_fract_z
Si Si1 0.361543 0.614262 0.661429
Si Si2 0.990729 0.470277 0.789819
Si Si3 0.177775 0.807156 0.851666
Si Si4 0.310055 0.905627 0.862049
Si Si5 0.451534 0.256749 0.953414
O O1 0.431957 0.594974 0.698016
O O2 0.333608 0.432406 0.718353
O O3 0.329342 0.771734 0.741473
O O4 0.352054 0.628340 0.496352
O O5 0.991493 0.396536 0.632664
O O6 0.044832 0.581772 0.854754
O O7 0.975812 0.310270 0.897486
O O8 0.241395 0.870042 0.913709
O O9 0.185356 0.604985 0.814130
O O10 0.117763 0.821221 0.948849
#
# Coordination Sequence:
#
# PCOD9460591 Si02
#       5
#     8   8   8   8   8
#     4  11  27  45  69 108 137 190 236 289 356 417
#     4  10  23  45  68 100 138 177 233 286 350 415
#     4  11  25  45  68 104 143 186 230 292 347 421
#     4  12  26  44  73  99 145 187 239 288 354 422
#     4  10  23  43  69  98 138 175 229 287 344 417
#
# _framework density 24.951855999999999
#
# number of rings (size 3 to 8) (size 9 to 14) (size 15 to 20)
#    0.000    1.200    4.000    0.000    5.600    2.400 
#    3.600    0.000    0.000    0.000    0.000    0.000 
#    0.000    0.000    0.000    0.000    0.000    0.000 
#
# Total GULP energy -224112.087024 kJ/mol
# GULP energy per Si atom -5602.802176 kJ/mol
# Density = 2.489506 g / cm^3
# Si number density = 24.951856 Si / 1000 Ang^3
#
#
#
# Elastic Constant Matrix: (Units=GPa)
#
#
# Indices 1 2 3 4 5 6 
#
# 1 73.1781 4.4319 3.7194 0.0000 0.0000 0.0000
# 2 4.4319 108.2159 31.1819 0.0000 0.0000 0.0000
# 3 3.7194 31.1819 79.6194 0.0000 0.0000 0.0000
# 4 0.0000 0.0000 0.0000 -21.0310 0.0000 0.0000
# 5 0.0000 0.0000 0.0000 0.0000 18.2372 0.0000
# 6 0.0000 0.0000 0.0000 0.0000 0.0000 42.6186
#
#
#
# Elastic Compliance Matrix: (Units=1/GPa)
#
#
# Indices 1 2 3 4 5 6 
#
# 1 0.013715 -0.000425 -0.000474 0.000000 0.000000 0.000000
# 2 -0.000425 0.010429 -0.004065 0.000000 0.000000 0.000000
# 3 -0.000474 -0.004065 0.014174 0.000000 0.000000 0.000000
# 4 0.000000 0.000000 0.000000 -0.047549 0.000000 0.000000
# 5 0.000000 0.000000 0.000000 0.000000 0.054833 0.000000
# 6 0.000000 0.000000 0.000000 0.000000 0.000000 0.023464
#
#
# Mechanical properties :
#
#
# Convention : Reuss Voigt Hill
#
# Bulk Modulus (GPa) = 35.22316 37.74219 36.48268
# Shear Modulus (GPa) = 56.52416 22.74364 39.63390
#
# Velocity S-wave (km/s) = 4.76471 3.02238 3.98982
# Velocity P-wave (km/s) = 6.66461 5.22863 5.98981
#
# Compressibility (1/GPa) = 0.02839041
#
# Stress axis : x y z
#
# Youngs Moduli (GPa) = 72.91218 95.88264 70.55273
#
# Poissons Ratio (x) = 0.04075 0.03346
# Poissons Ratio (y) = 0.03099 0.28677
# Poissons Ratio (z) = 0.03458 0.38973
#
# Static dielectric constant tensor:
#      x y z
#    x 1.989930 0.000000 0.000000 
#    y 0.000000 2.008480 0.000000 
#    z 0.000000 0.000000 1.910340 
# 
# From -- ./inp_files/4152.got.cif
#   From: 2010.05.17/outbox.cif.g08.bks.cpg/sg61_3_cif.got.tgz:4152.got - 2010.06.03 15:17:17.
