data_PCOD9460387
_publ_section_title
;
Structure prediction by ZEFSAII (Michael W. Deem and Ramdas Pophale) SiO2 
 PCOD9460387
Probable space group: P B C A
;
_chemical_formula_sum "Si O2"
_cell_formula_units_Z 48
_cell_length_a 13.085548
_cell_length_b 10.414992
_cell_length_c 14.333554
_cell_angle_alpha 90.000000
_cell_angle_beta 90.000000
_cell_angle_gamma 90.000000
_cell_volume 1953.460988
_symmetry_space_group_name_H-M "P B C A"
_symmetry_group_IT_number 61
_symmetry_cell_setting 'orthorhombic'
loop_
_space_group_symop_operation_xyz
x,y,z
1/2-x,-y,1/2+z
1/2+x,1/2-y,-z
-x,1/2+y,1/2-z
-x,-y,-z
1/2+x,y,1/2-z
1/2-x,1/2+y,z
x,1/2-y,1/2+z
loop_
_atom_site_type_symbol
_atom_site_label
_atom_site_fract_x
_atom_site_fract_y
_atom_site_fract_z
Si Si1 0.303850 0.544826 0.153538
Si Si2 0.735761 0.699413 0.518008
Si Si3 0.528869 0.432136 0.163817
Si Si4 0.008515 0.806954 0.548704
Si Si5 0.238994 0.944065 0.862930
Si Si6 0.581997 0.063555 0.867765
O O1 0.296594 0.651689 0.073188
O O2 0.414599 0.481775 0.150037
O O3 0.284015 0.582804 0.260753
O O4 0.204334 0.455991 0.132567
O O5 0.767839 0.826652 0.571796
O O6 0.622849 0.729746 0.480663
O O7 0.726761 0.578364 0.589750
O O8 0.616328 0.538342 0.147377
O O9 0.546254 0.382295 0.268962
O O10 0.544320 0.315492 0.093276
O O11 0.955425 0.859987 0.456724
O O12 0.527113 0.923905 0.878935
#
# Coordination Sequence:
#
# PCOD9460387 Si02
#       6
#     8   8   8   8   8   8
#     4  10  24  47  74 104 144 189 239 292 357 424
#     4  11  25  46  71 105 145 186 236 293 357 423
#     4  11  24  45  73 106 140 186 240 291 351 426
#     4  10  22  42  70 101 141 185 236 291 353 422
#     4  11  27  48  74 107 145 188 238 296 355 424
#     4   9  22  44  68 101 141 187 235 294 355 416
#
# _framework density 24.571771999999999
#
# number of rings (size 3 to 8) (size 9 to 14) (size 15 to 20)
#    0.000    1.667    0.000    2.000    0.000   18.667 
#    0.000   16.667    0.000    0.000    0.000    0.000 
#    0.000    0.000    0.000    0.000    0.000    0.000 
#
# Total GULP energy -269206.482203 kJ/mol
# GULP energy per Si atom -5608.468379 kJ/mol
# Density = 2.451585 g / cm^3
# Si number density = 24.571772 Si / 1000 Ang^3
#
#
#
# Elastic Constant Matrix: (Units=GPa)
#
#
# Indices 1 2 3 4 5 6 
#
# 1 148.3745 47.6840 44.9957 0.0000 0.0000 0.0000
# 2 47.6840 116.0648 84.2455 0.0000 0.0000 0.0000
# 3 44.9957 84.2455 174.9082 0.0000 0.0000 0.0000
# 4 0.0000 0.0000 0.0000 29.2414 0.0000 0.0000
# 5 0.0000 0.0000 0.0000 0.0000 40.1996 0.0000
# 6 0.0000 0.0000 0.0000 0.0000 0.0000 25.5253
#
#
#
# Elastic Compliance Matrix: (Units=1/GPa)
#
#
# Indices 1 2 3 4 5 6 
#
# 1 0.007823 -0.002695 -0.000714 0.000000 0.000000 0.000000
# 2 -0.002695 0.014176 -0.006135 0.000000 0.000000 0.000000
# 3 -0.000714 -0.006135 0.008856 0.000000 0.000000 0.000000
# 4 0.000000 0.000000 0.000000 0.034198 0.000000 0.000000
# 5 0.000000 0.000000 0.000000 0.000000 0.024876 0.000000
# 6 0.000000 0.000000 0.000000 0.000000 0.000000 0.039177
#
#
# Mechanical properties :
#
#
# Convention : Reuss Voigt Hill
#
# Bulk Modulus (GPa) = 84.99019 88.13311 86.56165
# Shear Modulus (GPa) = 32.86982 36.48810 34.67896
#
# Velocity S-wave (km/s) = 3.66144 3.85770 3.76085
# Velocity P-wave (km/s) = 7.24834 7.46913 7.35956
#
# Compressibility (1/GPa) = 0.01176606
#
# Stress axis : x y z
#
# Youngs Moduli (GPa) = 127.83618 70.54155 112.92136
#
# Poissons Ratio (x) = 0.19014 0.08063
# Poissons Ratio (y) = 0.34458 0.69272
# Poissons Ratio (z) = 0.09128 0.43274
#
# Static dielectric constant tensor:
#      x y z
#    x 1.949300 0.000000 0.000000 
#    y 0.000000 1.948250 0.000000 
#    z 0.000000 0.000000 1.912880 
# 
# From -- ./inp_files/7465.got.cif
#   From: 2010.05.17/outbox.cif.g08.bks.cpg/sg61_4_cif.got.tgz:7465.got - 2010.06.03 15:17:17.
