data_PCOD9460139
_publ_section_title
;
Structure prediction by ZEFSAII (Michael W. Deem and Ramdas Pophale) SiO2 
 PCOD9460139
Probable space group: P B C A
;
_chemical_formula_sum "Si O2"
_cell_formula_units_Z 48
_cell_length_a 15.109165
_cell_length_b 16.820544
_cell_length_c 6.908990
_cell_angle_alpha 90.000000
_cell_angle_beta 90.000000
_cell_angle_gamma 90.000000
_cell_volume 1755.880943
_symmetry_space_group_name_H-M "P B C A"
_symmetry_group_IT_number 61
_symmetry_cell_setting 'orthorhombic'
loop_
_space_group_symop_operation_xyz
x,y,z
1/2-x,-y,1/2+z
1/2+x,1/2-y,-z
-x,1/2+y,1/2-z
-x,-y,-z
1/2+x,y,1/2-z
1/2-x,1/2+y,z
x,1/2-y,1/2+z
loop_
_atom_site_type_symbol
_atom_site_label
_atom_site_fract_x
_atom_site_fract_y
_atom_site_fract_z
Si Si1 0.566341 0.244992 0.418169
Si Si2 0.871141 0.575584 0.319267
Si Si3 0.428672 0.259065 0.667123
Si Si4 0.326266 0.422846 0.646698
Si Si5 0.582108 0.414995 0.393927
Si Si6 0.383050 0.091764 0.727336
O O1 0.598489 0.153211 0.434220
O O2 0.453402 0.255616 0.416218
O O3 0.542795 0.240398 0.165590
O O4 0.623081 0.326390 0.393085
O O5 0.769475 0.589345 0.264138
O O6 0.874271 0.486226 0.404776
O O7 0.928816 0.568464 0.123643
O O8 0.386800 0.346457 0.686983
O O9 0.367971 0.179825 0.650952
O O10 0.364948 0.510236 0.684401
O O11 0.320442 0.420838 0.411777
O O12 0.486369 0.408510 0.294395
#
# Coordination Sequence:
#
# PCOD9460139 Si02
#       6
#     8   8   8   8   8   8
#     4  11  21  41  68  93 119 171 219 258 306 389
#     4  11  23  39  63  95 130 162 213 267 326 374
#     4  11  21  41  69  92 120 169 222 254 314 381
#     4  11  22  40  63  91 130 164 206 268 324 372
#     4  10  21  43  69  85 126 178 212 255 322 394
#     4  10  22  44  66  89 129 172 214 260 320 393
#
# _framework density 27.336706
#
# number of rings (size 3 to 8) (size 9 to 14) (size 15 to 20)
#    0.000    1.333    5.000    3.000    0.000    3.333 
#   18.000    0.000    0.000    0.000    0.000    0.000 
#    0.000    0.000    0.000    0.000    0.000    0.000 
#
# Total GULP energy -268077.982649 kJ/mol
# GULP energy per Si atom -5584.957972 kJ/mol
# Density = 2.727449 g / cm^3
# Si number density = 27.336706 Si / 1000 Ang^3
#
#
#
# Elastic Constant Matrix: (Units=GPa)
#
#
# Indices 1 2 3 4 5 6 
#
# 1 78.8431 35.1976 -6.6919 0.0000 0.0000 0.0000
# 2 35.1976 271.8730 0.3509 0.0000 0.0000 0.0000
# 3 -6.6919 0.3509 136.9926 0.0000 0.0000 0.0000
# 4 0.0000 0.0000 0.0000 40.2062 0.0000 0.0000
# 5 0.0000 0.0000 0.0000 0.0000 14.4746 0.0000
# 6 0.0000 0.0000 0.0000 0.0000 0.0000 21.3001
#
#
#
# Elastic Compliance Matrix: (Units=1/GPa)
#
#
# Indices 1 2 3 4 5 6 
#
# 1 0.013522 -0.001751 0.000665 0.000000 0.000000 0.000000
# 2 -0.001751 0.003905 -0.000096 0.000000 0.000000 0.000000
# 3 0.000665 -0.000096 0.007332 0.000000 0.000000 0.000000
# 4 0.000000 0.000000 0.000000 0.024872 0.000000 0.000000
# 5 0.000000 0.000000 0.000000 0.000000 0.069087 0.000000
# 6 0.000000 0.000000 0.000000 0.000000 0.000000 0.046948
#
#
# Mechanical properties :
#
#
# Convention : Reuss Voigt Hill
#
# Bulk Modulus (GPa) = 44.65233 60.60241 52.62737
# Shear Modulus (GPa) = 28.49084 45.78632 37.13858
#
# Velocity S-wave (km/s) = 3.23184 4.09700 3.68986
# Velocity P-wave (km/s) = 5.50419 6.67814 6.11938
#
# Compressibility (1/GPa) = 0.02239525
#
# Stress axis : x y z
#
# Youngs Moduli (GPa) = 73.95493 256.07825 136.38109
#
# Poissons Ratio (x) = 0.44850 -0.09069
# Poissons Ratio (y) = 0.12953 0.01303
# Poissons Ratio (z) = -0.04918 0.02447
#
# Static dielectric constant tensor:
#      x y z
#    x 2.054840 0.000000 0.000000 
#    y 0.000000 2.014020 0.000000 
#    z 0.000000 0.000000 2.471130 
# 
# From -- ./inp_files/2821.got.cif
#   From: 2010.05.17/outbox.cif.g08.bks.cpg/sg61_2_cif.got.tgz:2821.got - 2010.06.03 15:17:17.
