data_PCOD9460067
_publ_section_title
;
Structure prediction by ZEFSAII (Michael W. Deem and Ramdas Pophale) SiO2 
 PCOD9460067
Probable space group: P B C A
;
_chemical_formula_sum "Si O2"
_cell_formula_units_Z 48
_cell_length_a 10.621371
_cell_length_b 14.795703
_cell_length_c 13.456086
_cell_angle_alpha 90.000000
_cell_angle_beta 90.000000
_cell_angle_gamma 90.000000
_cell_volume 2114.632672
_symmetry_space_group_name_H-M "P B C A"
_symmetry_group_IT_number 61
_symmetry_cell_setting 'orthorhombic'
loop_
_space_group_symop_operation_xyz
x,y,z
1/2-x,-y,1/2+z
1/2+x,1/2-y,-z
-x,1/2+y,1/2-z
-x,-y,-z
1/2+x,y,1/2-z
1/2-x,1/2+y,z
x,1/2-y,1/2+z
loop_
_atom_site_type_symbol
_atom_site_label
_atom_site_fract_x
_atom_site_fract_y
_atom_site_fract_z
Si Si1 0.318289 0.878487 0.964324
Si Si2 0.209917 0.446921 0.515542
Si Si3 0.072056 0.609308 0.140023
Si Si4 0.973900 0.849203 0.853223
Si Si5 0.762516 0.223965 0.840697
Si Si6 0.195099 0.787157 0.375438
O O1 0.456528 0.910373 0.933548
O O2 0.293682 0.793400 0.893719
O O3 0.289033 0.839665 0.073430
O O4 0.220843 0.960994 0.954353
O O5 0.310854 0.452509 0.606508
O O6 0.077476 0.416270 0.561622
O O7 0.267364 0.366807 0.448545
O O8 0.119470 0.713448 0.127849
O O9 0.032633 0.603486 0.255726
O O10 0.847912 0.796121 0.821319
O O11 0.066318 0.769246 0.890483
O O12 0.798713 0.178483 0.737288
#
# Coordination Sequence:
#
# PCOD9460067 Si02
#       6
#     8   8   8   8   8   8
#     4  12  23  41  69  96 132 167 224 262 330 387
#     4  11  25  41  69  99 130 172 218 269 330 387
#     4  10  21  41  67  95 128 171 216 268 323 384
#     4  10  21  41  67  92 131 172 214 264 325 391
#     4  10  22  40  65  96 128 176 212 268 328 383
#     4  11  23  42  66  93 132 173 216 270 325 385
#
# _framework density 22.698976999999999
#
# number of rings (size 3 to 8) (size 9 to 14) (size 15 to 20)
#    0.000    1.333    5.000    1.500    0.000    2.000 
#    0.000    1.667    0.000    0.000    0.000    0.000 
#    0.000    0.000    0.000    0.000    0.000    0.000 
#
# Total GULP energy -267974.235379 kJ/mol
# GULP energy per Si atom -5582.796570 kJ/mol
# Density = 2.264731 g / cm^3
# Si number density = 22.698977 Si / 1000 Ang^3
#
#
#
# Elastic Constant Matrix: (Units=GPa)
#
#
# Indices 1 2 3 4 5 6 
#
# 1 67.2492 -14.9069 15.8770 0.0000 0.0000 0.0000
# 2 -14.9069 61.7429 29.5928 0.0000 0.0000 0.0000
# 3 15.8770 29.5928 120.9693 0.0000 0.0000 0.0000
# 4 0.0000 0.0000 0.0000 -3.6328 0.0000 0.0000
# 5 0.0000 0.0000 0.0000 0.0000 32.0504 0.0000
# 6 0.0000 0.0000 0.0000 0.0000 0.0000 7.5033
#
#
#
# Elastic Compliance Matrix: (Units=1/GPa)
#
#
# Indices 1 2 3 4 5 6 
#
# 1 0.017040 0.005875 -0.003674 0.000000 0.000000 0.000000
# 2 0.005875 0.020373 -0.005755 0.000000 0.000000 0.000000
# 3 -0.003674 -0.005755 0.010157 0.000000 0.000000 0.000000
# 4 0.000000 0.000000 0.000000 -0.275266 0.000000 0.000000
# 5 0.000000 0.000000 0.000000 0.000000 0.031201 0.000000
# 6 0.000000 0.000000 0.000000 0.000000 0.000000 0.133275
#
#
# Mechanical properties :
#
#
# Convention : Reuss Voigt Hill
#
# Bulk Modulus (GPa) = 24.71493 34.56524 29.64009
# Shear Modulus (GPa) = -117.29771 21.81073 -47.74349
#
# Velocity S-wave (km/s) = -7.19635 3.10315 -4.59119
# Velocity P-wave (km/s) = 7.62484 5.30095 3.87544
#
# Compressibility (1/GPa) = 0.04046137
#
# Stress axis : x y z
#
# Youngs Moduli (GPa) = 58.68702 49.08510 98.45903
#
# Poissons Ratio (x) = -0.28836 0.36169
# Poissons Ratio (y) = -0.34476 0.56662
# Poissons Ratio (z) = 0.21559 0.28248
#
# Static dielectric constant tensor:
#      x y z
#    x 1.904840 0.000000 0.000000 
#    y 0.000000 1.847970 0.000000 
#    z 0.000000 0.000000 1.902450 
# 
# From -- ./inp_files/7470.got.cif
#   From: 2010.05.17/outbox.cif.g08.bks.cpg/sg61_4_cif.got.tgz:7470.got - 2010.06.03 15:17:17.
