data_PCOD9460133
_publ_section_title
;
Structure prediction by ZEFSAII (Michael W. Deem and Ramdas Pophale) SiO2 
 PCOD9460133
Probable space group: P B C A
;
_chemical_formula_sum "Si O2"
_cell_formula_units_Z 48
_cell_length_a 15.791770
_cell_length_b 12.042605
_cell_length_c 9.898555
_cell_angle_alpha 90.000000
_cell_angle_beta 90.000000
_cell_angle_gamma 90.000000
_cell_volume 1882.448277
_symmetry_space_group_name_H-M "P B C A"
_symmetry_group_IT_number 61
_symmetry_cell_setting 'orthorhombic'
loop_
_space_group_symop_operation_xyz
x,y,z
1/2-x,-y,1/2+z
1/2+x,1/2-y,-z
-x,1/2+y,1/2-z
-x,-y,-z
1/2+x,y,1/2-z
1/2-x,1/2+y,z
x,1/2-y,1/2+z
loop_
_atom_site_type_symbol
_atom_site_label
_atom_site_fract_x
_atom_site_fract_y
_atom_site_fract_z
Si Si1 0.427374 0.273617 0.892658
Si Si2 0.664243 0.358976 0.505887
Si Si3 0.137114 0.021735 0.243368
Si Si4 0.177003 0.771727 0.153533
Si Si5 0.462421 0.561185 0.693694
Si Si6 0.417345 0.629303 0.978425
O O1 0.360120 0.302711 0.775622
O O2 0.492232 0.181313 0.834148
O O3 0.487872 0.365440 0.960635
O O4 0.374130 0.233394 0.021391
O O5 0.693435 0.422714 0.640526
O O6 0.730609 0.299620 0.405837
O O7 0.608251 0.445407 0.420262
O O8 0.608992 0.254869 0.555805
O O9 0.139380 0.080884 0.098536
O O10 0.155452 0.894128 0.212974
O O11 0.040034 0.024481 0.299939
O O12 0.417844 0.566516 0.838056
#
# Coordination Sequence:
#
# PCOD9460133 Si02
#       6
#     8   8   8   8   8   8
#     4  10  21  43  67  98 133 177 229 274 343 409
#     4  11  25  43  67 102 141 179 226 287 350 408
#     4  11  24  45  67 102 135 177 237 279 340 414
#     4  11  26  44  68 102 139 183 223 289 351 409
#     4  10  22  42  67 101 129 180 231 281 337 407
#     4  11  22  43  72 100 132 184 233 281 337 415
#
# _framework density 25.498708000000001
#
# number of rings (size 3 to 8) (size 9 to 14) (size 15 to 20)
#    0.000    1.333    3.333    3.000    7.000    1.333 
#    3.000    0.000    0.000    0.000    0.000    0.000 
#    0.000    0.000    0.000    0.000    0.000    0.000 
#
# Total GULP energy -268218.679310 kJ/mol
# GULP energy per Si atom -5587.889152 kJ/mol
# Density = 2.544067 g / cm^3
# Si number density = 25.498708 Si / 1000 Ang^3
#
#
#
# Elastic Constant Matrix: (Units=GPa)
#
#
# Indices 1 2 3 4 5 6 
#
# 1 58.5708 -2.4139 31.0199 0.0000 0.0000 0.0000
# 2 -2.4139 54.8196 17.7191 0.0000 0.0000 0.0000
# 3 31.0199 17.7191 194.3914 0.0000 0.0000 0.0000
# 4 0.0000 0.0000 0.0000 27.1523 0.0000 0.0000
# 5 0.0000 0.0000 0.0000 0.0000 30.4248 0.0000
# 6 0.0000 0.0000 0.0000 0.0000 0.0000 18.9142
#
#
#
# Elastic Compliance Matrix: (Units=1/GPa)
#
#
# Indices 1 2 3 4 5 6 
#
# 1 0.018831 0.001855 -0.003174 0.000000 0.000000 0.000000
# 2 0.001855 0.018978 -0.002026 0.000000 0.000000 0.000000
# 3 -0.003174 -0.002026 0.005835 0.000000 0.000000 0.000000
# 4 0.000000 0.000000 0.000000 0.036829 0.000000 0.000000
# 5 0.000000 0.000000 0.000000 0.000000 0.032868 0.000000
# 6 0.000000 0.000000 0.000000 0.000000 0.000000 0.052870
#
#
# Mechanical properties :
#
#
# Convention : Reuss Voigt Hill
#
# Bulk Modulus (GPa) = 27.06009 44.49242 35.77626
# Shear Modulus (GPa) = 26.99496 32.72872 29.86184
#
# Velocity S-wave (km/s) = 3.25727 3.58655 3.42586
# Velocity P-wave (km/s) = 4.97813 5.88539 5.45067
#
# Compressibility (1/GPa) = 0.03695479
#
# Stress axis : x y z
#
# Youngs Moduli (GPa) = 53.10446 52.69208 171.36740
#
# Poissons Ratio (x) = -0.09775 0.54392
# Poissons Ratio (y) = -0.09852 0.34718
# Poissons Ratio (z) = 0.16855 0.10675
#
# Static dielectric constant tensor:
#      x y z
#    x 2.095540 0.000000 0.000000 
#    y 0.000000 2.015170 0.000000 
#    z 0.000000 0.000000 1.985500 
# 
# From -- ./inp_files/3473.got.cif
#   From: 2010.05.17/outbox.cif.g08.bks.cpg/sg61_2_cif.got.tgz:3473.got - 2010.06.03 15:17:17.
