data_PCOD9460547
_publ_section_title
;
Structure prediction by ZEFSAII (Michael W. Deem and Ramdas Pophale) SiO2 
 PCOD9460547
Probable space group: P B C A
;
_chemical_formula_sum "Si O2"
_cell_formula_units_Z 56
_cell_length_a 14.955937
_cell_length_b 9.752539
_cell_length_c 18.519887
_cell_angle_alpha 90.000000
_cell_angle_beta 90.000000
_cell_angle_gamma 90.000000
_cell_volume 2701.280324
_symmetry_space_group_name_H-M "P B C A"
_symmetry_group_IT_number 61
_symmetry_cell_setting 'orthorhombic'
loop_
_space_group_symop_operation_xyz
x,y,z
1/2-x,-y,1/2+z
1/2+x,1/2-y,-z
-x,1/2+y,1/2-z
-x,-y,-z
1/2+x,y,1/2-z
1/2-x,1/2+y,z
x,1/2-y,1/2+z
loop_
_atom_site_type_symbol
_atom_site_label
_atom_site_fract_x
_atom_site_fract_y
_atom_site_fract_z
Si Si1 0.034019 0.612634 0.241291
Si Si2 0.728394 0.405325 0.085123
Si Si3 0.921303 0.214175 0.621084
Si Si4 0.231967 0.158467 0.514713
Si Si5 0.419267 0.502454 0.600686
Si Si6 0.949829 0.640304 0.665105
Si Si7 0.430411 0.284148 0.034337
O O1 0.073466 0.703560 0.305250
O O2 0.101458 0.570841 0.177028
O O3 0.007704 0.472142 0.281391
O O4 0.960636 0.709550 0.201899
O O5 0.823194 0.347899 0.111548
O O6 0.651525 0.398991 0.145095
O O7 0.747919 0.552578 0.050411
O O8 0.700287 0.301100 0.020489
O O9 0.942018 0.308776 0.550794
O O10 0.995449 0.095776 0.617694
O O11 0.159248 0.092166 0.566893
O O12 0.327401 0.182996 0.552117
O O13 0.441850 0.379415 0.545978
O O14 0.003964 0.644686 0.590034
#
# Coordination Sequence:
#
# PCOD9460547 Si02
#       7
#     8   8   8   8   8   8   8
#     4  11  25  45  64  98 140 180 232 269 351 424
#     4  11  25  40  73 104 133 176 233 289 342 405
#     4  11  22  44  72 101 135 181 229 282 343 414
#     4  11  22  43  67 109 135 172 237 288 335 400
#     4  11  22  44  68  98 141 181 219 283 344 406
#     4  11  24  47  66 101 140 181 228 283 346 411
#     4  10  23  41  73  99 134 175 239 285 330 408
#
# _framework density 20.730910000000002
#
# number of rings (size 3 to 8) (size 9 to 14) (size 15 to 20)
#    0.000    1.143    4.286    3.000    4.000    3.429 
#    7.714    0.000    0.000    0.000    0.000    0.000 
#    0.000    0.000    0.000    0.000    0.000    0.000 
#
# Total GULP energy -312842.293349 kJ/mol
# GULP energy per Si atom -5586.469524 kJ/mol
# Density = 2.068373 g / cm^3
# Si number density = 20.730910 Si / 1000 Ang^3
#
#
#
# Elastic Constant Matrix: (Units=GPa)
#
#
# Indices 1 2 3 4 5 6 
#
# 1 85.5264 25.7766 40.8976 0.0000 0.0000 0.0000
# 2 25.7766 58.8221 1.2287 0.0000 0.0000 0.0000
# 3 40.8976 1.2287 102.5322 0.0000 0.0000 0.0000
# 4 0.0000 0.0000 0.0000 42.3336 0.0000 0.0000
# 5 0.0000 0.0000 0.0000 0.0000 13.1033 0.0000
# 6 0.0000 0.0000 0.0000 0.0000 0.0000 16.4623
#
#
#
# Elastic Compliance Matrix: (Units=1/GPa)
#
#
# Indices 1 2 3 4 5 6 
#
# 1 0.017141 -0.007370 -0.006749 0.000000 0.000000 0.000000
# 2 -0.007370 0.020174 0.002698 0.000000 0.000000 0.000000
# 3 -0.006749 0.002698 0.012413 0.000000 0.000000 0.000000
# 4 0.000000 0.000000 0.000000 0.023622 0.000000 0.000000
# 5 0.000000 0.000000 0.000000 0.000000 0.076317 0.000000
# 6 0.000000 0.000000 0.000000 0.000000 0.000000 0.060745
#
#
# Mechanical properties :
#
#
# Convention : Reuss Voigt Hill
#
# Bulk Modulus (GPa) = 37.19506 42.52074 39.85790
# Shear Modulus (GPa) = 20.64287 26.31168 23.47728
#
# Velocity S-wave (km/s) = 3.15898 3.56645 3.36888
# Velocity P-wave (km/s) = 5.59342 6.12493 5.86520
#
# Compressibility (1/GPa) = 0.02688529
#
# Stress axis : x y z
#
# Youngs Moduli (GPa) = 58.34045 49.56915 80.56332
#
# Poissons Ratio (x) = 0.36534 0.54370
# Poissons Ratio (y) = 0.42999 -0.21737
# Poissons Ratio (z) = 0.39372 -0.13374
#
# Static dielectric constant tensor:
#      x y z
#    x 1.715450 0.000000 0.000000 
#    y 0.000000 1.799340 0.000000 
#    z 0.000000 0.000000 1.780430 
# 
# From -- ./inp_files/10470.got.cif
#   From: 2010.05.17/outbox.cif.g08.bks.cpg/sg61_6_cif.got.tgz:10470.got - 2010.06.03 15:17:17.
