data_PCOD9460288
_publ_section_title
;
Structure prediction by ZEFSAII (Michael W. Deem and Ramdas Pophale) SiO2 
 PCOD9460288
Probable space group: P B C A
;
_chemical_formula_sum "Si O2"
_cell_formula_units_Z 60
_cell_length_a 26.289735
_cell_length_b 10.054697
_cell_length_c 9.113118
_cell_angle_alpha 90.000000
_cell_angle_beta 90.000000
_cell_angle_gamma 90.000000
_cell_volume 2408.918959
_symmetry_space_group_name_H-M "P B C A"
_symmetry_group_IT_number 61
_symmetry_cell_setting 'orthorhombic'
loop_
_space_group_symop_operation_xyz
x,y,z
1/2-x,-y,1/2+z
1/2+x,1/2-y,-z
-x,1/2+y,1/2-z
-x,-y,-z
1/2+x,y,1/2-z
1/2-x,1/2+y,z
x,1/2-y,1/2+z
loop_
_atom_site_type_symbol
_atom_site_label
_atom_site_fract_x
_atom_site_fract_y
_atom_site_fract_z
Si Si1 0.796508 0.768844 0.449174
Si Si2 0.149021 0.911419 0.239746
Si Si3 0.152943 0.476199 0.409385
Si Si4 0.109173 0.082129 0.504933
Si Si5 0.500000 0.500000 0.500000
Si Si6 0.446897 0.860413 0.481409
Si Si7 0.274850 0.318164 0.804489
Si Si8 0.041089 0.588169 0.698570
O O1 0.819711 0.663915 0.564579
O O2 0.843882 0.859924 0.399888
O O3 0.754589 0.844914 0.544301
O O4 0.766407 0.690344 0.323799
O O5 0.194340 0.820520 0.298970
O O6 0.094155 0.838943 0.224732
O O7 0.136955 0.025897 0.358821
O O8 0.157592 0.959469 0.073651
O O9 0.093001 0.448879 0.387593
O O10 0.182105 0.570011 0.297247
O O11 0.063501 0.982453 0.541914
O O12 0.075378 0.213989 0.478466
O O13 0.489606 0.427456 0.346079
O O14 0.503576 0.851680 0.421084
O O15 0.447753 0.937923 0.636477
#
# Coordination Sequence:
#
# PCOD9460288 Si02
#       8
#     8   8   8   8   4   8   8   8
#     4  11  26  43  74  98 137 191 239 299 357 441
#     4  10  22  45  66 100 147 181 237 307 360 439
#     4  10  23  44  67 102 136 186 242 293 361 433
#     4  10  23  46  72 106 139 188 243 299 377 441
#     4  10  22  40  66 104 142 174 228 304 360 434
#     4   9  20  44  74  94 137 190 243 296 363 446
#     4  12  25  45  69 103 145 192 235 307 358 431
#     4   9  20  42  65 102 136 184 238 299 362 438
#
# _framework density 24.907437000000002
#
# number of rings (size 3 to 8) (size 9 to 14) (size 15 to 20)
#    0.000    1.867    1.333    0.800    3.733    7.467 
#   24.000    0.000    0.000    0.000    0.000    0.000 
#    0.000    0.000    0.000    0.000    0.000    0.000 
#
# Total GULP energy -334198.614777 kJ/mol
# GULP energy per Si atom -5569.976913 kJ/mol
# Density = 2.485075 g / cm^3
# Si number density = 24.907437 Si / 1000 Ang^3
#
#
#
# Elastic Constant Matrix: (Units=GPa)
#
#
# Indices 1 2 3 4 5 6 
#
# 1 137.8002 16.9947 23.9749 0.0000 0.0000 0.0000
# 2 16.9947 58.0198 7.1258 0.0000 0.0000 0.0000
# 3 23.9749 7.1258 52.9884 0.0000 0.0000 0.0000
# 4 0.0000 0.0000 0.0000 22.4793 0.0000 0.0000
# 5 0.0000 0.0000 0.0000 0.0000 45.3608 0.0000
# 6 0.0000 0.0000 0.0000 0.0000 0.0000 38.0289
#
#
#
# Elastic Compliance Matrix: (Units=1/GPa)
#
#
# Indices 1 2 3 4 5 6 
#
# 1 0.008089 -0.001952 -0.003397 0.000000 0.000000 0.000000
# 2 -0.001952 0.017996 -0.001537 0.000000 0.000000 0.000000
# 3 -0.003397 -0.001537 0.020616 0.000000 0.000000 0.000000
# 4 0.000000 0.000000 0.000000 0.044485 0.000000 0.000000
# 5 0.000000 0.000000 0.000000 0.000000 0.022045 0.000000
# 6 0.000000 0.000000 0.000000 0.000000 0.000000 0.026296
#
#
# Mechanical properties :
#
#
# Convention : Reuss Voigt Hill
#
# Bulk Modulus (GPa) = 30.36907 38.33323 34.35115
# Shear Modulus (GPa) = 30.43666 34.55468 32.49567
#
# Velocity S-wave (km/s) = 3.49949 3.72872 3.61592
# Velocity P-wave (km/s) = 5.34302 5.82765 5.59059
#
# Compressibility (1/GPa) = 0.03292824
#
# Stress axis : x y z
#
# Youngs Moduli (GPa) = 123.62938 55.56783 48.50638
#
# Poissons Ratio (x) = 0.10847 0.16479
# Poissons Ratio (y) = 0.24133 0.07455
# Poissons Ratio (z) = 0.42000 0.08540
#
# Static dielectric constant tensor:
#      x y z
#    x 2.042230 0.000000 0.000000 
#    y 0.000000 2.049090 0.000000 
#    z 0.000000 0.000000 2.016690 
# 
# From -- ./inp_files/4470.got.cif
#   From: 2010.05.17/outbox.cif.g08.bks.cpg/sg61_3_cif.got.tgz:4470.got - 2010.06.03 15:17:17.
