data_PCOD9460861
_publ_section_title
;
Structure prediction by ZEFSAII (Michael W. Deem and Ramdas Pophale) SiO2 
 PCOD9460861
Probable space group: P B C A
;
_chemical_formula_sum "Si O2"
_cell_formula_units_Z 40
_cell_length_a 11.659774
_cell_length_b 13.570535
_cell_length_c 9.367031
_cell_angle_alpha 90.000000
_cell_angle_beta 90.000000
_cell_angle_gamma 90.000000
_cell_volume 1482.139425
_symmetry_space_group_name_H-M "P B C A"
_symmetry_group_IT_number 61
_symmetry_cell_setting 'orthorhombic'
loop_
_space_group_symop_operation_xyz
x,y,z
1/2-x,-y,1/2+z
1/2+x,1/2-y,-z
-x,1/2+y,1/2-z
-x,-y,-z
1/2+x,y,1/2-z
1/2-x,1/2+y,z
x,1/2-y,1/2+z
loop_
_atom_site_type_symbol
_atom_site_label
_atom_site_fract_x
_atom_site_fract_y
_atom_site_fract_z
Si Si1 0.039729 0.613331 0.496535
Si Si2 0.327617 0.637382 0.199587
Si Si3 0.772534 0.094127 0.791420
Si Si4 0.943406 0.609627 0.999740
Si Si5 0.321927 0.279029 0.466244
O O1 0.099078 0.625358 0.652153
O O2 0.150439 0.665763 0.418652
O O3 0.000000 0.500000 0.500000
O O4 0.930084 0.653029 0.414598
O O5 0.158949 0.389105 0.114283
O O6 0.388356 0.648513 0.352405
O O7 0.232151 0.704769 0.122918
O O8 0.755784 0.149225 0.641919
O O9 0.783294 0.975470 0.791919
O O10 0.000000 0.500000 0.000000
O O11 0.051347 0.677729 0.973105
#
# Coordination Sequence:
#
# PCOD9460861 Si02
#       5
#     8   8   8   8   8
#     4  10  28  52  81 118 171 230 297 368 433 522
#     4  11  25  49  81 117 168 219 282 360 441 523
#     4  11  25  48  79 120 166 217 283 357 440 529
#     4  12  26  47  82 129 172 214 281 356 446 540
#     4  12  28  50  83 119 167 229 288 352 448 531
#
# _framework density 26.988015999999998
#
# number of rings (size 3 to 8) (size 9 to 14) (size 15 to 20)
#    0.000    0.800    4.000    0.000   11.200    1.600 
#    0.000    0.000    0.000    0.000    0.000    0.000 
#    0.000    0.000    0.000    0.000    0.000    0.000 
#
# Total GULP energy -223197.219540 kJ/mol
# GULP energy per Si atom -5579.930489 kJ/mol
# Density = 2.692659 g / cm^3
# Si number density = 26.988016 Si / 1000 Ang^3
#
#
#
# Elastic Constant Matrix: (Units=GPa)
#
#
# Indices 1 2 3 4 5 6 
#
# 1 161.6218 68.8064 89.2284 0.0000 0.0000 0.0000
# 2 68.8064 153.2351 46.2744 0.0000 0.0000 0.0000
# 3 89.2284 46.2744 163.1826 0.0000 0.0000 0.0000
# 4 0.0000 0.0000 0.0000 37.4373 0.0000 0.0000
# 5 0.0000 0.0000 0.0000 0.0000 41.6083 0.0000
# 6 0.0000 0.0000 0.0000 0.0000 0.0000 69.3555
#
#
#
# Elastic Compliance Matrix: (Units=1/GPa)
#
#
# Indices 1 2 3 4 5 6 
#
# 1 0.010068 -0.003126 -0.004619 0.000000 0.000000 0.000000
# 2 -0.003126 0.008108 -0.000590 0.000000 0.000000 0.000000
# 3 -0.004619 -0.000590 0.008821 0.000000 0.000000 0.000000
# 4 0.000000 0.000000 0.000000 0.026711 0.000000 0.000000
# 5 0.000000 0.000000 0.000000 0.000000 0.024034 0.000000
# 6 0.000000 0.000000 0.000000 0.000000 0.000000 0.014418
#
#
# Mechanical properties :
#
#
# Convention : Reuss Voigt Hill
#
# Bulk Modulus (GPa) = 96.82937 98.51754 97.67345
# Shear Modulus (GPa) = 44.53478 47.92890 46.23184
#
# Velocity S-wave (km/s) = 4.06663 4.21875 4.14339
# Velocity P-wave (km/s) = 7.61620 7.76620 7.69157
#
# Compressibility (1/GPa) = 0.01032745
#
# Stress axis : x y z
#
# Youngs Moduli (GPa) = 99.32425 123.33959 113.36708
#
# Poissons Ratio (x) = 0.38556 0.52361
# Poissons Ratio (y) = 0.31049 0.06687
# Poissons Ratio (z) = 0.45875 0.07275
#
# Static dielectric constant tensor:
#      x y z
#    x 2.002270 0.000000 0.000000 
#    y 0.000000 2.306170 0.000000 
#    z 0.000000 0.000000 1.858850 
# 
# From -- ./inp_files/5113.got.cif
#   From: 2010.05.17/outbox.cif.g08.bks.cpg/sg61_3_cif.got.tgz:5113.got - 2010.06.03 15:17:17.
