data_PCOD9460385
_publ_section_title
;
Structure prediction by ZEFSAII (Michael W. Deem and Ramdas Pophale) SiO2 
 PCOD9460385
Probable space group: P B C A
;
_chemical_formula_sum "Si O2"
_cell_formula_units_Z 48
_cell_length_a 12.428141
_cell_length_b 9.748881
_cell_length_c 16.573011
_cell_angle_alpha 90.000000
_cell_angle_beta 90.000000
_cell_angle_gamma 90.000000
_cell_volume 2007.993763
_symmetry_space_group_name_H-M "P B C A"
_symmetry_group_IT_number 61
_symmetry_cell_setting 'orthorhombic'
loop_
_space_group_symop_operation_xyz
x,y,z
1/2-x,-y,1/2+z
1/2+x,1/2-y,-z
-x,1/2+y,1/2-z
-x,-y,-z
1/2+x,y,1/2-z
1/2-x,1/2+y,z
x,1/2-y,1/2+z
loop_
_atom_site_type_symbol
_atom_site_label
_atom_site_fract_x
_atom_site_fract_y
_atom_site_fract_z
Si Si1 0.083183 0.165691 0.562907
Si Si2 0.807275 0.085992 0.875681
Si Si3 0.136015 0.959889 0.416517
Si Si4 0.476995 0.886840 0.308156
Si Si5 0.118806 0.393628 0.755577
Si Si6 0.640587 0.071256 0.527116
O O1 0.083178 0.316783 0.527622
O O2 0.967991 0.131975 0.600591
O O3 0.187201 0.140771 0.618361
O O4 0.101272 0.067041 0.485558
O O5 0.812700 0.946328 0.821348
O O6 0.843181 0.056606 0.967729
O O7 0.903721 0.170724 0.833880
O O8 0.238812 0.880068 0.450134
O O9 0.168838 0.043604 0.336980
O O10 0.408643 0.764268 0.270270
O O11 0.421758 0.940695 0.389721
O O12 0.507424 0.020696 0.256694
#
# Coordination Sequence:
#
# PCOD9460385 Si02
#       6
#     8   8   8   8   8   8
#     4  10  22  42  69  93 142 179 235 285 343 427
#     4   9  24  41  67 106 133 189 231 287 352 415
#     4  10  23  41  64 100 127 189 229 282 350 412
#     4  10  23  44  70 104 139 180 232 287 359 417
#     4  10  23  45  66 106 138 181 229 294 350 417
#     4  11  22  42  71 100 140 183 234 291 347 427
#
# _framework density 23.904458000000002
#
# number of rings (size 3 to 8) (size 9 to 14) (size 15 to 20)
#    1.000    1.000    1.667    0.500    4.667    2.667 
#    6.000    0.000    0.000    0.000    0.000    0.000 
#    0.000    0.000    0.000    0.000    0.000    0.000 
#
# Total GULP energy -268015.498783 kJ/mol
# GULP energy per Si atom -5583.656225 kJ/mol
# Density = 2.385005 g / cm^3
# Si number density = 23.904458 Si / 1000 Ang^3
#
#
#
# Elastic Constant Matrix: (Units=GPa)
#
#
# Indices 1 2 3 4 5 6 
#
# 1 66.1781 -1.4250 15.4107 0.0000 0.0000 0.0000
# 2 -1.4250 48.1107 22.5026 0.0000 0.0000 0.0000
# 3 15.4107 22.5026 110.0039 0.0000 0.0000 0.0000
# 4 0.0000 0.0000 0.0000 24.7967 0.0000 0.0000
# 5 0.0000 0.0000 0.0000 0.0000 39.6996 0.0000
# 6 0.0000 0.0000 0.0000 0.0000 0.0000 21.1372
#
#
#
# Elastic Compliance Matrix: (Units=1/GPa)
#
#
# Indices 1 2 3 4 5 6 
#
# 1 0.015739 0.001656 -0.002544 0.000000 0.000000 0.000000
# 2 0.001656 0.023159 -0.004969 0.000000 0.000000 0.000000
# 3 -0.002544 -0.004969 0.010463 0.000000 0.000000 0.000000
# 4 0.000000 0.000000 0.000000 0.040328 0.000000 0.000000
# 5 0.000000 0.000000 0.000000 0.000000 0.025189 0.000000
# 6 0.000000 0.000000 0.000000 0.000000 0.000000 0.047310
#
#
# Mechanical properties :
#
#
# Convention : Reuss Voigt Hill
#
# Bulk Modulus (GPa) = 26.56273 33.02992 29.79632
# Shear Modulus (GPa) = 26.81670 29.64700 28.23185
#
# Velocity S-wave (km/s) = 3.35300 3.52551 3.44034
# Velocity P-wave (km/s) = 5.11139 5.51541 5.31724
#
# Compressibility (1/GPa) = 0.03764674
#
# Stress axis : x y z
#
# Youngs Moduli (GPa) = 63.53761 43.18026 95.57062
#
# Poissons Ratio (x) = -0.07150 0.24309
# Poissons Ratio (y) = -0.10521 0.47493
# Poissons Ratio (z) = 0.16161 0.21458
#
# Static dielectric constant tensor:
#      x y z
#    x 1.916260 0.000000 0.000000 
#    y 0.000000 1.882100 0.000000 
#    z 0.000000 0.000000 1.930880 
# 
# From -- ./inp_files/10269.got.cif
#   From: 2010.05.17/outbox.cif.g08.bks.cpg/sg61_6_cif.got.tgz:10269.got - 2010.06.03 15:17:17.
