data_PCOD9460233
_publ_section_title
;
Structure prediction by ZEFSAII (Michael W. Deem and Ramdas Pophale) SiO2 
 PCOD9460233
Probable space group: P B C A
;
_chemical_formula_sum "Si O2"
_cell_formula_units_Z 64
_cell_length_a 16.710943
_cell_length_b 11.497865
_cell_length_c 17.400981
_cell_angle_alpha 90.000000
_cell_angle_beta 90.000000
_cell_angle_gamma 90.000000
_cell_volume 3343.427389
_symmetry_space_group_name_H-M "P B C A"
_symmetry_group_IT_number 61
_symmetry_cell_setting 'orthorhombic'
loop_
_space_group_symop_operation_xyz
x,y,z
1/2-x,-y,1/2+z
1/2+x,1/2-y,-z
-x,1/2+y,1/2-z
-x,-y,-z
1/2+x,y,1/2-z
1/2-x,1/2+y,z
x,1/2-y,1/2+z
loop_
_atom_site_type_symbol
_atom_site_label
_atom_site_fract_x
_atom_site_fract_y
_atom_site_fract_z
Si Si1 0.359989 0.153494 0.174535
Si Si2 0.007870 0.766059 0.071690
Si Si3 0.684093 0.675944 0.687767
Si Si4 0.947354 0.926921 0.276242
Si Si5 0.643822 0.249063 0.678566
Si Si6 0.310741 0.550925 0.202908
Si Si7 0.968171 0.990179 0.869102
Si Si8 0.029629 0.766005 0.396978
O O1 0.408526 0.228247 0.111899
O O2 0.349395 0.231481 0.250300
O O3 0.271690 0.098153 0.165875
O O4 0.417670 0.045384 0.188605
O O5 0.928985 0.727375 0.119801
O O6 0.007039 0.906901 0.073865
O O7 0.007230 0.719817 0.985613
O O8 0.766523 0.722521 0.650499
O O9 0.699004 0.560540 0.739948
O O10 0.615655 0.677809 0.623144
O O11 0.880978 0.867293 0.223601
O O12 0.971590 0.835341 0.340219
O O13 0.016870 0.956618 0.216123
O O14 0.652798 0.350560 0.741068
O O15 0.373685 0.532009 0.134060
O O16 0.018386 0.871810 0.878932
#
# Coordination Sequence:
#
# PCOD9460233 Si02
#       8
#     8   8   8   8   8   8   8   8
#     4  11  22  39  64  93 125 162 217 271 317 375
#     4  11  25  42  60  93 141 170 206 259 338 400
#     4  11  21  40  65  95 121 166 223 278 308 374
#     4  11  20  36  65  88 121 164 220 264 311 376
#     4  10  22  39  62  93 123 162 217 272 314 375
#     4  11  20  37  69  94 118 160 229 270 315 359
#     4  11  21  41  65  92 121 170 220 266 308 389
#     4  12  24  40  65  95 132 174 210 259 338 395
#
# _framework density 19.142033000000001
#
# number of rings (size 3 to 8) (size 9 to 14) (size 15 to 20)
#    0.000    1.000    6.250    1.875    0.000    0.500 
#    2.250    0.000    0.000    0.000    0.000    0.000 
#    0.000    0.000    0.000    0.000    0.000    0.000 
#
# Total GULP energy -356830.848652 kJ/mol
# GULP energy per Si atom -5575.482010 kJ/mol
# Density = 1.909847 g / cm^3
# Si number density = 19.142033 Si / 1000 Ang^3
#
#
#
# Elastic Constant Matrix: (Units=GPa)
#
#
# Indices 1 2 3 4 5 6 
#
# 1 92.9704 2.4474 25.4840 0.0000 0.0000 0.0000
# 2 2.4474 70.8975 -0.2783 0.0000 0.0000 0.0000
# 3 25.4840 -0.2783 60.7238 0.0000 0.0000 0.0000
# 4 0.0000 0.0000 0.0000 10.2239 0.0000 0.0000
# 5 0.0000 0.0000 0.0000 0.0000 7.8550 0.0000
# 6 0.0000 0.0000 0.0000 0.0000 0.0000 29.5420
#
#
#
# Elastic Compliance Matrix: (Units=1/GPa)
#
#
# Indices 1 2 3 4 5 6 
#
# 1 0.012168 -0.000440 -0.005109 0.000000 0.000000 0.000000
# 2 -0.000440 0.014121 0.000249 0.000000 0.000000 0.000000
# 3 -0.005109 0.000249 0.018613 0.000000 0.000000 0.000000
# 4 0.000000 0.000000 0.000000 0.097810 0.000000 0.000000
# 5 0.000000 0.000000 0.000000 0.000000 0.127307 0.000000
# 6 0.000000 0.000000 0.000000 0.000000 0.000000 0.033850
#
#
# Mechanical properties :
#
#
# Convention : Reuss Voigt Hill
#
# Bulk Modulus (GPa) = 29.15145 31.09977 30.12561
# Shear Modulus (GPa) = 15.34199 22.65341 18.99770
#
# Velocity S-wave (km/s) = 2.83412 3.44385 3.15375
# Velocity P-wave (km/s) = 5.09624 5.66529 5.38829
#
# Compressibility (1/GPa) = 0.03430362
#
# Stress axis : x y z
#
# Youngs Moduli (GPa) = 82.18277 70.81629 53.72563
#
# Poissons Ratio (x) = 0.03117 0.27446
# Poissons Ratio (y) = 0.03617 -0.01340
# Poissons Ratio (z) = 0.41984 -0.01766
#
# Static dielectric constant tensor:
#      x y z
#    x 1.781770 0.000000 0.000000 
#    y 0.000000 1.683120 0.000000 
#    z 0.000000 0.000000 1.639570 
# 
# From -- ./inp_files/8208.got.cif
#   From: 2010.05.17/outbox.cif.g08.bks.cpg/sg61_5_cif.got.tgz:8208.got - 2010.06.03 15:17:17.
