data_PCOD9460601
_publ_section_title
;
Structure prediction by ZEFSAII (Michael W. Deem and Ramdas Pophale) SiO2 
 PCOD9460601
Probable space group: P B C A
;
_chemical_formula_sum "Si O2"
_cell_formula_units_Z 40
_cell_length_a 14.724227
_cell_length_b 13.297612
_cell_length_c 7.687093
_cell_angle_alpha 90.000000
_cell_angle_beta 90.000000
_cell_angle_gamma 90.000000
_cell_volume 1505.110191
_symmetry_space_group_name_H-M "P B C A"
_symmetry_group_IT_number 61
_symmetry_cell_setting 'orthorhombic'
loop_
_space_group_symop_operation_xyz
x,y,z
1/2-x,-y,1/2+z
1/2+x,1/2-y,-z
-x,1/2+y,1/2-z
-x,-y,-z
1/2+x,y,1/2-z
1/2-x,1/2+y,z
x,1/2-y,1/2+z
loop_
_atom_site_type_symbol
_atom_site_label
_atom_site_fract_x
_atom_site_fract_y
_atom_site_fract_z
Si Si1 0.192414 0.416387 0.379926
Si Si2 0.598549 0.920016 0.160373
Si Si3 0.380387 0.134750 0.459918
Si Si4 0.509494 0.365500 0.662980
Si Si5 0.183838 0.213934 0.526573
O O1 0.297050 0.449513 0.368095
O O2 0.135864 0.516664 0.412375
O O3 0.182663 0.335295 0.534943
O O4 0.174717 0.355131 0.199636
O O5 0.593306 0.859468 0.338855
O O6 0.538354 0.018491 0.183406
O O7 0.565109 0.863962 0.989443
O O8 0.461449 0.169405 0.337574
O O9 0.282351 0.188078 0.442467
O O10 0.599015 0.311897 0.594773
#
# Coordination Sequence:
#
# PCOD9460601 Si02
#       5
#     8   8   8   8   8
#     4  11  25  46  74 107 151 197 242 303 382 431
#     4  10  23  43  74 106 140 190 245 298 365 436
#     4  11  25  48  77 104 147 199 244 306 373 437
#     4  11  23  47  74 107 142 192 249 304 362 437
#     4  11  27  47  71 112 151 194 248 310 364 448
#
# _framework density 26.576127
#
# number of rings (size 3 to 8) (size 9 to 14) (size 15 to 20)
#    0.000    1.200    2.000    3.000    8.400    0.000 
#    7.200    0.000    0.000    0.000    0.000    0.000 
#    0.000    0.000    0.000    0.000    0.000    0.000 
#
# Total GULP energy -224669.214832 kJ/mol
# GULP energy per Si atom -5616.730371 kJ/mol
# Density = 2.651564 g / cm^3
# Si number density = 26.576127 Si / 1000 Ang^3
#
#
#
# Elastic Constant Matrix: (Units=GPa)
#
#
# Indices 1 2 3 4 5 6 
#
# 1 105.3667 8.0259 55.4979 0.0000 0.0000 0.0000
# 2 8.0259 108.1229 -7.7821 0.0000 0.0000 0.0000
# 3 55.4979 -7.7821 96.7283 0.0000 0.0000 0.0000
# 4 0.0000 0.0000 0.0000 38.0913 0.0000 0.0000
# 5 0.0000 0.0000 0.0000 0.0000 41.3078 0.0000
# 6 0.0000 0.0000 0.0000 0.0000 0.0000 23.2170
#
#
#
# Elastic Compliance Matrix: (Units=1/GPa)
#
#
# Indices 1 2 3 4 5 6 
#
# 1 0.013875 -0.001612 -0.008090 0.000000 0.000000 0.000000
# 2 -0.001612 0.009490 0.001689 0.000000 0.000000 0.000000
# 3 -0.008090 0.001689 0.015116 0.000000 0.000000 0.000000
# 4 0.000000 0.000000 0.000000 0.026253 0.000000 0.000000
# 5 0.000000 0.000000 0.000000 0.000000 0.024208 0.000000
# 6 0.000000 0.000000 0.000000 0.000000 0.000000 0.043072
#
#
# Mechanical properties :
#
#
# Convention : Reuss Voigt Hill
#
# Bulk Modulus (GPa) = 44.53848 46.85569 45.69709
# Shear Modulus (GPa) = 32.14897 37.48831 34.81864
#
# Velocity S-wave (km/s) = 3.48184 3.75987 3.62352
# Velocity P-wave (km/s) = 5.74103 6.04300 5.89395
#
# Compressibility (1/GPa) = 0.02245250
#
# Stress axis : x y z
#
# Youngs Moduli (GPa) = 72.07337 105.37479 66.15539
#
# Poissons Ratio (x) = 0.16989 0.53522
# Poissons Ratio (y) = 0.11620 -0.11170
# Poissons Ratio (z) = 0.58310 -0.17793
#
# Static dielectric constant tensor:
#      x y z
#    x 2.011470 0.000000 0.000000 
#    y 0.000000 2.089970 0.000000 
#    z 0.000000 0.000000 2.072910 
# 
# From -- ./inp_files/2695.got.cif
#   From: 2010.05.17/outbox.cif.g08.bks.cpg/sg61_2_cif.got.tgz:2695.got - 2010.06.03 15:17:17.
