data_PCOD9460600
_publ_section_title
;
Structure prediction by ZEFSAII (Michael W. Deem and Ramdas Pophale) SiO2 
 PCOD9460600
Probable space group: P B C A
;
_chemical_formula_sum "Si O2"
_cell_formula_units_Z 48
_cell_length_a 9.916411
_cell_length_b 14.931977
_cell_length_c 13.009886
_cell_angle_alpha 90.000000
_cell_angle_beta 90.000000
_cell_angle_gamma 90.000000
_cell_volume 1926.394909
_symmetry_space_group_name_H-M "P B C A"
_symmetry_group_IT_number 61
_symmetry_cell_setting 'orthorhombic'
loop_
_space_group_symop_operation_xyz
x,y,z
1/2-x,-y,1/2+z
1/2+x,1/2-y,-z
-x,1/2+y,1/2-z
-x,-y,-z
1/2+x,y,1/2-z
1/2-x,1/2+y,z
x,1/2-y,1/2+z
loop_
_atom_site_type_symbol
_atom_site_label
_atom_site_fract_x
_atom_site_fract_y
_atom_site_fract_z
Si Si1 0.106088 0.647505 0.258850
Si Si2 0.681889 0.502991 0.072155
Si Si3 0.715978 0.767414 0.931318
Si Si4 0.504000 0.201053 0.903241
Si Si5 0.078424 0.917646 0.128424
Si Si6 0.045872 0.984326 0.341316
O O1 0.153455 0.590933 0.357884
O O2 0.216080 0.676674 0.174767
O O3 0.034877 0.735384 0.306800
O O4 0.016622 0.577772 0.192926
O O5 0.584565 0.427568 0.121740
O O6 0.841192 0.494129 0.073210
O O7 0.632643 0.513729 0.956438
O O8 0.637000 0.676976 0.901823
O O9 0.869048 0.745470 0.959832
O O10 0.626273 0.805729 0.023470
O O11 0.545454 0.100839 0.869634
O O12 0.123575 0.948516 0.240080
#
# Coordination Sequence:
#
# PCOD9460600 Si02
#       6
#     8   8   8   8   8   8
#     4  11  25  47  73 111 148 197 250 316 375 454
#     4  10  23  45  71 104 149 188 249 305 384 442
#     4  12  28  47  75 108 154 198 254 306 385 450
#     4  12  29  49  75 112 154 198 252 314 381 455
#     4  10  23  43  73 104 143 198 238 304 379 446
#     4  11  26  45  79 109 147 195 253 312 375 455
#
# _framework density 24.917009
#
# number of rings (size 3 to 8) (size 9 to 14) (size 15 to 20)
#    0.000    1.000    3.333    1.000    9.333    3.333 
#    0.000    0.000    0.000    0.000    0.000    0.000 
#    0.000    0.000    0.000    0.000    0.000    0.000 
#
# Total GULP energy -268616.613286 kJ/mol
# GULP energy per Si atom -5596.179443 kJ/mol
# Density = 2.486030 g / cm^3
# Si number density = 24.917009 Si / 1000 Ang^3
#
#
#
# Elastic Constant Matrix: (Units=GPa)
#
#
# Indices 1 2 3 4 5 6 
#
# 1 77.4146 19.1794 25.3915 0.0000 0.0000 0.0000
# 2 19.1794 64.0898 15.5872 0.0000 0.0000 0.0000
# 3 25.3915 15.5872 86.7075 0.0000 0.0000 0.0000
# 4 0.0000 0.0000 0.0000 38.8376 0.0000 0.0000
# 5 0.0000 0.0000 0.0000 0.0000 28.1243 0.0000
# 6 0.0000 0.0000 0.0000 0.0000 0.0000 18.5332
#
#
#
# Elastic Compliance Matrix: (Units=1/GPa)
#
#
# Indices 1 2 3 4 5 6 
#
# 1 0.015039 -0.003586 -0.003759 0.000000 0.000000 0.000000
# 2 -0.003586 0.017172 -0.002037 0.000000 0.000000 0.000000
# 3 -0.003759 -0.002037 0.013000 0.000000 0.000000 0.000000
# 4 0.000000 0.000000 0.000000 0.025748 0.000000 0.000000
# 5 0.000000 0.000000 0.000000 0.000000 0.035556 0.000000
# 6 0.000000 0.000000 0.000000 0.000000 0.000000 0.053957
#
#
# Mechanical properties :
#
#
# Convention : Reuss Voigt Hill
#
# Bulk Modulus (GPa) = 37.81272 38.72534 38.26903
# Shear Modulus (GPa) = 26.58829 28.30259 27.44544
#
# Velocity S-wave (km/s) = 3.27015 3.37393 3.32245
# Velocity P-wave (km/s) = 5.42835 5.54557 5.48727
#
# Compressibility (1/GPa) = 0.02644612
#
# Stress axis : x y z
#
# Youngs Moduli (GPa) = 66.49391 58.23546 76.92274
#
# Poissons Ratio (x) = 0.20885 0.28918
# Poissons Ratio (y) = 0.23846 0.15667
# Poissons Ratio (z) = 0.24997 0.11861
#
# Static dielectric constant tensor:
#      x y z
#    x 1.983200 0.000000 0.000000 
#    y 0.000000 2.004850 0.000000 
#    z 0.000000 0.000000 1.982020 
# 
# From -- ./inp_files/7039.got.cif
#   From: 2010.05.17/outbox.cif.g08.bks.cpg/sg61_4_cif.got.tgz:7039.got - 2010.06.03 15:17:17.
