data_PCOD9460858
_publ_section_title
;
Structure prediction by ZEFSAII (Michael W. Deem and Ramdas Pophale) SiO2 
 PCOD9460858
Probable space group: P B C A
;
_chemical_formula_sum "Si O2"
_cell_formula_units_Z 40
_cell_length_a 8.953752
_cell_length_b 17.683139
_cell_length_c 9.529318
_cell_angle_alpha 90.000000
_cell_angle_beta 90.000000
_cell_angle_gamma 90.000000
_cell_volume 1508.781123
_symmetry_space_group_name_H-M "P B C A"
_symmetry_group_IT_number 61
_symmetry_cell_setting 'orthorhombic'
loop_
_space_group_symop_operation_xyz
x,y,z
1/2-x,-y,1/2+z
1/2+x,1/2-y,-z
-x,1/2+y,1/2-z
-x,-y,-z
1/2+x,y,1/2-z
1/2-x,1/2+y,z
x,1/2-y,1/2+z
loop_
_atom_site_type_symbol
_atom_site_label
_atom_site_fract_x
_atom_site_fract_y
_atom_site_fract_z
Si Si1 0.680425 0.515712 0.695251
Si Si2 0.222535 0.882184 0.971827
Si Si3 0.948809 0.650542 0.822417
Si Si4 0.625771 0.416682 0.963044
Si Si5 0.623135 0.259735 0.049315
O O1 0.686305 0.474577 0.846669
O O2 0.748311 0.300207 0.595415
O O3 0.550088 0.576683 0.679129
O O4 0.821185 0.553459 0.614696
O O5 0.277942 0.871563 0.132293
O O6 0.053464 0.908895 0.954321
O O7 0.162878 0.440722 0.901843
O O8 0.951270 0.699922 0.681943
O O9 0.981051 0.706496 0.953527
O O10 0.679642 0.329993 0.955072
#
# Coordination Sequence:
#
# PCOD9460858 Si02
#       5
#     8   8   8   8   8
#     4  12  29  53  88 129 178 234 296 366 446 527
#     4  10  27  54  86 125 171 234 288 368 432 537
#     4  10  26  52  89 126 174 228 293 367 438 529
#     4  12  30  55  87 126 179 231 294 366 442 531
#     4  10  26  52  88 127 171 230 298 359 449 519
#
# _framework density 26.511465999999999
#
# number of rings (size 3 to 8) (size 9 to 14) (size 15 to 20)
#    1.200    0.000    0.000    2.400   11.200    1.600 
#    3.600    0.000    4.400    0.000    0.000    0.000 
#    0.000    0.000    0.000    0.000    0.000    0.000 
#
# Total GULP energy -223638.995621 kJ/mol
# GULP energy per Si atom -5590.974891 kJ/mol
# Density = 2.645113 g / cm^3
# Si number density = 26.511466 Si / 1000 Ang^3
#
#
#
# Elastic Constant Matrix: (Units=GPa)
#
#
# Indices 1 2 3 4 5 6 
#
# 1 120.6239 90.7931 49.7499 0.0000 0.0000 0.0000
# 2 90.7931 242.7434 70.4568 0.0000 0.0000 0.0000
# 3 49.7499 70.4568 172.6540 0.0000 0.0000 0.0000
# 4 0.0000 0.0000 0.0000 54.3054 0.0000 0.0000
# 5 0.0000 0.0000 0.0000 0.0000 30.0683 0.0000
# 6 0.0000 0.0000 0.0000 0.0000 0.0000 62.9946
#
#
#
# Elastic Compliance Matrix: (Units=1/GPa)
#
#
# Indices 1 2 3 4 5 6 
#
# 1 0.012038 -0.003966 -0.001851 0.000000 0.000000 0.000000
# 2 -0.003966 0.005979 -0.001297 0.000000 0.000000 0.000000
# 3 -0.001851 -0.001297 0.006855 0.000000 0.000000 0.000000
# 4 0.000000 0.000000 0.000000 0.018414 0.000000 0.000000
# 5 0.000000 0.000000 0.000000 0.000000 0.033258 0.000000
# 6 0.000000 0.000000 0.000000 0.000000 0.000000 0.015874
#
#
# Mechanical properties :
#
#
# Convention : Reuss Voigt Hill
#
# Bulk Modulus (GPa) = 93.93824 106.44675 100.19249
# Shear Modulus (GPa) = 45.37446 51.14177 48.25811
#
# Velocity S-wave (km/s) = 4.14152 4.39685 4.27109
# Velocity P-wave (km/s) = 7.64065 8.12495 7.88652
#
# Compressibility (1/GPa) = 0.01064529
#
# Stress axis : x y z
#
# Youngs Moduli (GPa) = 83.06807 167.24130 145.88722
#
# Poissons Ratio (x) = 0.66320 0.26997
# Poissons Ratio (y) = 0.32941 0.18927
# Poissons Ratio (z) = 0.15372 0.21698
#
# Static dielectric constant tensor:
#      x y z
#    x 2.164780 0.000000 0.000000 
#    y 0.000000 2.188820 0.000000 
#    z 0.000000 0.000000 2.166060 
# 
# From -- ./inp_files/5136.got.cif
#   From: 2010.05.17/outbox.cif.g08.bks.cpg/sg61_3_cif.got.tgz:5136.got - 2010.06.03 15:17:17.
