data_PCOD9460452
_publ_section_title
;
Structure prediction by ZEFSAII (Michael W. Deem and Ramdas Pophale) SiO2 
 PCOD9460452
Probable space group: P B C A
;
_chemical_formula_sum "Si O2"
_cell_formula_units_Z 40
_cell_length_a 10.466796
_cell_length_b 10.689973
_cell_length_c 14.677548
_cell_angle_alpha 90.000000
_cell_angle_beta 90.000000
_cell_angle_gamma 90.000000
_cell_volume 1642.267421
_symmetry_space_group_name_H-M "P B C A"
_symmetry_group_IT_number 61
_symmetry_cell_setting 'orthorhombic'
loop_
_space_group_symop_operation_xyz
x,y,z
1/2-x,-y,1/2+z
1/2+x,1/2-y,-z
-x,1/2+y,1/2-z
-x,-y,-z
1/2+x,y,1/2-z
1/2-x,1/2+y,z
x,1/2-y,1/2+z
loop_
_atom_site_type_symbol
_atom_site_label
_atom_site_fract_x
_atom_site_fract_y
_atom_site_fract_z
Si Si1 0.743378 0.064162 0.360210
Si Si2 0.490842 0.880743 0.932641
Si Si3 0.359597 0.015842 0.458001
Si Si4 0.000065 0.266762 0.612312
Si Si5 0.175185 0.947199 0.323584
O O1 0.878398 0.131242 0.375785
O O2 0.628031 0.164631 0.354585
O O3 0.731286 0.973190 0.274788
O O4 0.724365 0.980006 0.451109
O O5 0.382083 0.922284 0.863036
O O6 0.474547 0.772983 0.006901
O O7 0.500000 0.000000 0.000000
O O8 0.385070 0.133854 0.393690
O O9 0.289013 0.914813 0.394235
O O10 0.500000 0.000000 0.500000
O O11 0.941454 0.151022 0.668704
#
# Coordination Sequence:
#
# PCOD9460452 Si02
#       5
#     8   8   8   8   8
#     4  11  24  44  73 107 144 192 252 303 368 445
#     4  10  22  44  70  99 145 190 240 301 366 442
#     4  10  23  44  68 102 148 188 244 298 363 449
#     4  10  24  45  73 100 147 203 230 306 383 427
#     4  11  25  46  70 112 149 186 251 303 364 458
#
# _framework density 24.356567999999999
#
# number of rings (size 3 to 8) (size 9 to 14) (size 15 to 20)
#    0.000    1.600    4.000    0.000    8.400    1.600 
#    7.200    0.000    0.000    0.000    0.000    0.000 
#    0.000    0.000    0.000    0.000    0.000    0.000 
#
# Total GULP energy -223334.452318 kJ/mol
# GULP energy per Si atom -5583.361308 kJ/mol
# Density = 2.430113 g / cm^3
# Si number density = 24.356568 Si / 1000 Ang^3
#
#
#
# Elastic Constant Matrix: (Units=GPa)
#
#
# Indices 1 2 3 4 5 6 
#
# 1 143.7702 25.1448 29.5009 0.0000 0.0000 0.0000
# 2 25.1448 57.1775 3.1264 0.0000 0.0000 0.0000
# 3 29.5009 3.1264 119.3640 0.0000 0.0000 0.0000
# 4 0.0000 0.0000 0.0000 31.3859 0.0000 0.0000
# 5 0.0000 0.0000 0.0000 0.0000 23.1236 0.0000
# 6 0.0000 0.0000 0.0000 0.0000 0.0000 30.4023
#
#
#
# Elastic Compliance Matrix: (Units=1/GPa)
#
#
# Indices 1 2 3 4 5 6 
#
# 1 0.007932 -0.003386 -0.001872 0.000000 0.000000 0.000000
# 2 -0.003386 0.018960 0.000340 0.000000 0.000000 0.000000
# 3 -0.001872 0.000340 0.008831 0.000000 0.000000 0.000000
# 4 0.000000 0.000000 0.000000 0.031861 0.000000 0.000000
# 5 0.000000 0.000000 0.000000 0.000000 0.043246 0.000000
# 6 0.000000 0.000000 0.000000 0.000000 0.000000 0.032892
#
#
# Mechanical properties :
#
#
# Convention : Reuss Voigt Hill
#
# Bulk Modulus (GPa) = 38.62732 48.42845 43.52788
# Shear Modulus (GPa) = 30.82871 34.48499 32.65685
#
# Velocity S-wave (km/s) = 3.56156 3.76685 3.66564
# Velocity P-wave (km/s) = 5.72769 6.23259 5.98547
#
# Compressibility (1/GPa) = 0.02588841
#
# Stress axis : x y z
#
# Youngs Moduli (GPa) = 126.07537 52.74333 113.23223
#
# Poissons Ratio (x) = 0.17858 0.21193
# Poissons Ratio (y) = 0.42686 -0.03852
# Poissons Ratio (z) = 0.23597 -0.01794
#
# Static dielectric constant tensor:
#      x y z
#    x 1.999240 0.000000 0.000000 
#    y 0.000000 2.028830 0.000000 
#    z 0.000000 0.000000 1.959260 
# 
# From -- ./inp_files/7359.got.cif
#   From: 2010.05.17/outbox.cif.g08.bks.cpg/sg61_4_cif.got.tgz:7359.got - 2010.06.03 15:17:17.
