data_PCOD9460240
_publ_section_title
;
Structure prediction by ZEFSAII (Michael W. Deem and Ramdas Pophale) SiO2 
 PCOD9460240
Probable space group: P B C A
;
_chemical_formula_sum "Si O2"
_cell_formula_units_Z 40
_cell_length_a 7.550161
_cell_length_b 21.603678
_cell_length_c 9.087233
_cell_angle_alpha 90.000000
_cell_angle_beta 90.000000
_cell_angle_gamma 90.000000
_cell_volume 1482.229907
_symmetry_space_group_name_H-M "P B C A"
_symmetry_group_IT_number 61
_symmetry_cell_setting 'orthorhombic'
loop_
_space_group_symop_operation_xyz
x,y,z
1/2-x,-y,1/2+z
1/2+x,1/2-y,-z
-x,1/2+y,1/2-z
-x,-y,-z
1/2+x,y,1/2-z
1/2-x,1/2+y,z
x,1/2-y,1/2+z
loop_
_atom_site_type_symbol
_atom_site_label
_atom_site_fract_x
_atom_site_fract_y
_atom_site_fract_z
Si Si1 0.782023 0.736552 0.885611
Si Si2 0.284013 0.028259 0.947256
Si Si3 0.931913 0.166336 0.088243
Si Si4 0.526156 0.038042 0.285725
Si Si5 0.768215 0.162271 0.591400
O O1 0.732828 0.698553 0.742896
O O2 0.961085 0.774315 0.849764
O O3 0.754419 0.688233 0.021218
O O4 0.671163 0.794661 0.953787
O O5 0.416169 0.976855 0.880364
O O6 0.355091 0.095770 0.902921
O O7 0.105969 0.012366 0.853470
O O8 0.202922 0.032295 0.110987
O O9 0.061440 0.150879 0.950592
O O10 0.943378 0.106062 0.188133
#
# Coordination Sequence:
#
# PCOD9460240 Si02
#       5
#     8   8   8   8   8
#     4  10  22  39  64  91 132 166 218 267 332 390
#     4  10  23  42  69  93 138 167 231 269 343 386
#     4   9  23  42  63  95 130 164 219 266 329 391
#     4  10  23  46  66  97 132 179 216 284 327 403
#     4   9  23  39  63  94 126 170 212 272 326 394
#
# _framework density 26.986366
#
# number of rings (size 3 to 8) (size 9 to 14) (size 15 to 20)
#    1.200    1.200    0.000    0.000   11.200    2.400 
#    0.000    0.000    0.000    0.000    0.000    0.000 
#    0.000    0.000    0.000    0.000    0.000    0.000 
#
# Total GULP energy -223143.051364 kJ/mol
# GULP energy per Si atom -5578.576284 kJ/mol
# Density = 2.692494 g / cm^3
# Si number density = 26.986366 Si / 1000 Ang^3
#
#
#
# Elastic Constant Matrix: (Units=GPa)
#
#
# Indices 1 2 3 4 5 6 
#
# 1 44.8711 41.4279 33.6741 0.0000 0.0000 0.0000
# 2 41.4279 195.2544 95.7413 0.0000 0.0000 0.0000
# 3 33.6741 95.7413 168.6830 0.0000 0.0000 0.0000
# 4 0.0000 0.0000 0.0000 52.0565 0.0000 0.0000
# 5 0.0000 0.0000 0.0000 0.0000 21.8310 0.0000
# 6 0.0000 0.0000 0.0000 0.0000 0.0000 42.1676
#
#
#
# Elastic Compliance Matrix: (Units=1/GPa)
#
#
# Indices 1 2 3 4 5 6 
#
# 1 0.028889 -0.004575 -0.003171 0.000000 0.000000 0.000000
# 2 -0.004575 0.007821 -0.003526 0.000000 0.000000 0.000000
# 3 -0.003171 -0.003526 0.008562 0.000000 0.000000 0.000000
# 4 0.000000 0.000000 0.000000 0.019210 0.000000 0.000000
# 5 0.000000 0.000000 0.000000 0.000000 0.045806 0.000000
# 6 0.000000 0.000000 0.000000 0.000000 0.000000 0.023715
#
#
# Mechanical properties :
#
#
# Convention : Reuss Voigt Hill
#
# Bulk Modulus (GPa) = 43.99426 83.38835 63.69131
# Shear Modulus (GPa) = 30.46497 39.07538 34.77017
#
# Velocity S-wave (km/s) = 3.36356 3.80934 3.59337
# Velocity P-wave (km/s) = 5.60558 7.09333 6.39288
#
# Compressibility (1/GPa) = 0.02273024
#
# Stress axis : x y z
#
# Youngs Moduli (GPa) = 34.61498 127.86027 116.79000
#
# Poissons Ratio (x) = 0.58495 0.37028
# Poissons Ratio (y) = 0.15836 0.41178
# Poissons Ratio (z) = 0.10975 0.45081
#
# Static dielectric constant tensor:
#      x y z
#    x 2.218070 0.000000 0.000000 
#    y 0.000000 2.069440 0.000000 
#    z 0.000000 0.000000 2.099540 
# 
# From -- ./inp_files/4839.got.cif
#   From: 2010.05.17/outbox.cif.g08.bks.cpg/sg61_3_cif.got.tgz:4839.got - 2010.06.03 15:17:17.
