data_PCOD9460677
_publ_section_title
;
Structure prediction by ZEFSAII (Michael W. Deem and Ramdas Pophale) SiO2 
 PCOD9460677
Probable space group: P B C A
;
_chemical_formula_sum "Si O2"
_cell_formula_units_Z 60
_cell_length_a 16.966416
_cell_length_b 13.691629
_cell_length_c 9.932985
_cell_angle_alpha 90.000000
_cell_angle_beta 90.000000
_cell_angle_gamma 90.000000
_cell_volume 2307.411291
_symmetry_space_group_name_H-M "P B C A"
_symmetry_group_IT_number 61
_symmetry_cell_setting 'orthorhombic'
loop_
_space_group_symop_operation_xyz
x,y,z
1/2-x,-y,1/2+z
1/2+x,1/2-y,-z
-x,1/2+y,1/2-z
-x,-y,-z
1/2+x,y,1/2-z
1/2-x,1/2+y,z
x,1/2-y,1/2+z
loop_
_atom_site_type_symbol
_atom_site_label
_atom_site_fract_x
_atom_site_fract_y
_atom_site_fract_z
Si Si1 0.444344 0.126809 0.044260
Si Si2 0.817885 0.990415 0.046016
Si Si3 0.977900 0.083203 0.737607
Si Si4 0.357402 0.541731 0.673196
Si Si5 0.850469 0.305396 0.412960
Si Si6 0.500000 0.500000 0.000000
Si Si7 0.373346 0.830944 0.929617
Si Si8 0.201460 0.318205 0.634650
O O1 0.398232 0.064011 0.154289
O O2 0.395272 0.222314 0.003787
O O3 0.532279 0.159348 0.080717
O O4 0.448383 0.061645 0.910326
O O5 0.797738 0.965137 0.201495
O O6 0.661858 0.082644 0.974553
O O7 0.823197 0.104080 0.003864
O O8 0.911220 0.965946 0.038647
O O9 0.918575 0.156775 0.811960
O O10 0.977332 0.994088 0.839843
O O11 0.068642 0.114064 0.712903
O O12 0.223296 0.421219 0.563695
O O13 0.776933 0.252065 0.345859
O O14 0.337556 0.830769 0.780243
O O15 0.349565 0.736332 0.018624
#
# Coordination Sequence:
#
# PCOD9460677 Si02
#       8
#     8   8   8   8   8   4   8   8
#     4  11  26  42  80 115 159 200 268 333 390 477
#     4  10  24  46  80 108 155 204 260 332 392 491
#     4   9  20  42  70 109 153 188 259 327 380 473
#     4  10  23  47  78 124 147 200 266 334 409 458
#     4  11  28  46  75 115 155 216 271 314 410 483
#     4   8  18  36  76 110 138 186 258 312 400 442
#     4  11  27  46  76 114 159 205 262 335 388 480
#     4  12  29  49  75 112 163 215 263 329 411 476
#
# _framework density 26.003166
#
# number of rings (size 3 to 8) (size 9 to 14) (size 15 to 20)
#    0.000    1.600    0.000    2.400   22.400    1.067 
#    0.000    1.333    0.000    0.000    0.000    0.000 
#    0.000    0.000    0.000    0.000    0.000    0.000 
#
# Total GULP energy -334397.820569 kJ/mol
# GULP energy per Si atom -5573.297009 kJ/mol
# Density = 2.594398 g / cm^3
# Si number density = 26.003166 Si / 1000 Ang^3
#
#
#
# Elastic Constant Matrix: (Units=GPa)
#
#
# Indices 1 2 3 4 5 6 
#
# 1 63.4088 45.4279 38.4762 0.0000 0.0000 0.0000
# 2 45.4279 140.7019 63.1282 0.0000 0.0000 0.0000
# 3 38.4762 63.1282 214.1901 0.0000 0.0000 0.0000
# 4 0.0000 0.0000 0.0000 36.7824 0.0000 0.0000
# 5 0.0000 0.0000 0.0000 0.0000 28.7268 0.0000
# 6 0.0000 0.0000 0.0000 0.0000 0.0000 23.3633
#
#
#
# Elastic Compliance Matrix: (Units=1/GPa)
#
#
# Indices 1 2 3 4 5 6 
#
# 1 0.021286 -0.005943 -0.002072 0.000000 0.000000 0.000000
# 2 -0.005943 0.009849 -0.001835 0.000000 0.000000 0.000000
# 3 -0.002072 -0.001835 0.005582 0.000000 0.000000 0.000000
# 4 0.000000 0.000000 0.000000 0.027187 0.000000 0.000000
# 5 0.000000 0.000000 0.000000 0.000000 0.034811 0.000000
# 6 0.000000 0.000000 0.000000 0.000000 0.000000 0.042802
#
#
# Mechanical properties :
#
#
# Convention : Reuss Voigt Hill
#
# Bulk Modulus (GPa) = 58.76676 79.15171 68.95924
# Shear Modulus (GPa) = 29.95999 35.85908 32.90954
#
# Velocity S-wave (km/s) = 3.39804 3.71755 3.56138
# Velocity P-wave (km/s) = 6.16802 6.99516 6.59457
#
# Compressibility (1/GPa) = 0.01701642
#
# Stress axis : x y z
#
# Youngs Moduli (GPa) = 46.98017 101.52909 179.14961
#
# Poissons Ratio (x) = 0.60336 0.37123
# Poissons Ratio (y) = 0.27919 0.32881
# Poissons Ratio (z) = 0.09735 0.18635
#
# Static dielectric constant tensor:
#      x y z
#    x 2.106060 0.000000 0.000000 
#    y 0.000000 2.169940 0.000000 
#    z 0.000000 0.000000 2.048820 
# 
# From -- ./inp_files/5968.got.cif
#   From: 2010.05.17/outbox.cif.g08.bks.cpg/sg61_3_cif.got.tgz:5968.got - 2010.06.03 15:17:17.
