data_PCOD9460363
_publ_section_title
;
Structure prediction by ZEFSAII (Michael W. Deem and Ramdas Pophale) SiO2 
 PCOD9460363
Probable space group: P B C A
;
_chemical_formula_sum "Si O2"
_cell_formula_units_Z 32
_cell_length_a 8.611688
_cell_length_b 14.469389
_cell_length_c 9.494315
_cell_angle_alpha 90.000000
_cell_angle_beta 90.000000
_cell_angle_gamma 90.000000
_cell_volume 1183.047320
_symmetry_space_group_name_H-M "P B C A"
_symmetry_group_IT_number 61
_symmetry_cell_setting 'orthorhombic'
loop_
_space_group_symop_operation_xyz
x,y,z
1/2-x,-y,1/2+z
1/2+x,1/2-y,-z
-x,1/2+y,1/2-z
-x,-y,-z
1/2+x,y,1/2-z
1/2-x,1/2+y,z
x,1/2-y,1/2+z
loop_
_atom_site_type_symbol
_atom_site_label
_atom_site_fract_x
_atom_site_fract_y
_atom_site_fract_z
Si Si1 0.756323 0.053893 0.544388
Si Si2 0.913689 0.213605 0.188640
Si Si3 0.780063 0.764745 0.444736
Si Si4 0.050385 0.512841 0.215805
O O1 0.733330 0.160356 0.503445
O O2 0.607256 0.025798 0.635325
O O3 0.903761 0.034278 0.644193
O O4 0.807581 0.006357 0.397198
O O5 0.830222 0.271107 0.309918
O O6 0.045179 0.271623 0.108759
O O7 0.983520 0.121739 0.259055
O O8 0.787249 0.178622 0.074698
#
# Coordination Sequence:
#
# PCOD9460363 Si02
#       4
#     8   8   8   8
#     4  10  23  41  65  95 128 172 218 270 328 391
#     4  11  24  44  67  98 135 174 220 276 334 396
#     4  11  25  43  67  96 132 174 221 275 334 400
#     4  10  22  42  65  93 131 170 217 270 328 392
#
# _framework density 27.048793
#
# number of rings (size 3 to 8) (size 9 to 14) (size 15 to 20)
#    0.000    1.500    0.000    4.500    0.000   14.000 
#    0.000    0.000    0.000    0.000    0.000    0.000 
#    0.000    0.000    0.000    0.000    0.000    0.000 
#
# Total GULP energy -179616.906214 kJ/mol
# GULP energy per Si atom -5613.028319 kJ/mol
# Density = 2.698723 g / cm^3
# Si number density = 27.048793 Si / 1000 Ang^3
#
#
#
# Elastic Constant Matrix: (Units=GPa)
#
#
# Indices 1 2 3 4 5 6 
#
# 1 113.1157 18.2412 71.2044 0.0000 0.0000 0.0000
# 2 18.2412 38.4498 23.7991 0.0000 0.0000 0.0000
# 3 71.2044 23.7991 180.6259 0.0000 0.0000 0.0000
# 4 0.0000 0.0000 0.0000 43.8944 0.0000 0.0000
# 5 0.0000 0.0000 0.0000 0.0000 78.4868 0.0000
# 6 0.0000 0.0000 0.0000 0.0000 0.0000 32.0010
#
#
#
# Elastic Compliance Matrix: (Units=1/GPa)
#
#
# Indices 1 2 3 4 5 6 
#
# 1 0.012074 -0.003029 -0.004361 0.000000 0.000000 0.000000
# 2 -0.003029 0.029077 -0.002637 0.000000 0.000000 0.000000
# 3 -0.004361 -0.002637 0.007603 0.000000 0.000000 0.000000
# 4 0.000000 0.000000 0.000000 0.022782 0.000000 0.000000
# 5 0.000000 0.000000 0.000000 0.000000 0.012741 0.000000
# 6 0.000000 0.000000 0.000000 0.000000 0.000000 0.031249
#
#
# Mechanical properties :
#
#
# Convention : Reuss Voigt Hill
#
# Bulk Modulus (GPa) = 34.84260 62.07564 48.45912
# Shear Modulus (GPa) = 34.44808 45.47288 39.96048
#
# Velocity S-wave (km/s) = 3.57256 4.10462 3.84780
# Velocity P-wave (km/s) = 5.47055 6.74264 6.13963
#
# Compressibility (1/GPa) = 0.02870050
#
# Stress axis : x y z
#
# Youngs Moduli (GPa) = 82.82366 34.39114 131.53179
#
# Poissons Ratio (x) = 0.10417 0.57355
# Poissons Ratio (y) = 0.25088 0.34686
# Poissons Ratio (z) = 0.36115 0.09069
#
# Static dielectric constant tensor:
#      x y z
#    x 2.086140 0.000000 0.000000 
#    y 0.000000 2.127630 0.000000 
#    z 0.000000 0.000000 2.069270 
# 
# From -- ./inp_files/1662.got.cif
#   From: 2010.05.17/outbox.cif.g08.bks.cpg/sg61_1_cif.got.tgz:1662.got - 2010.06.03 15:17:17.
