data_PCOD9460841
_publ_section_title
;
Structure prediction by ZEFSAII (Michael W. Deem and Ramdas Pophale) SiO2 
 PCOD9460841
Probable space group: P B C A
;
_chemical_formula_sum "Si O2"
_cell_formula_units_Z 40
_cell_length_a 13.038080
_cell_length_b 13.235817
_cell_length_c 9.372501
_cell_angle_alpha 90.000000
_cell_angle_beta 90.000000
_cell_angle_gamma 90.000000
_cell_volume 1617.409132
_symmetry_space_group_name_H-M "P B C A"
_symmetry_group_IT_number 61
_symmetry_cell_setting 'orthorhombic'
loop_
_space_group_symop_operation_xyz
x,y,z
1/2-x,-y,1/2+z
1/2+x,1/2-y,-z
-x,1/2+y,1/2-z
-x,-y,-z
1/2+x,y,1/2-z
1/2-x,1/2+y,z
x,1/2-y,1/2+z
loop_
_atom_site_type_symbol
_atom_site_label
_atom_site_fract_x
_atom_site_fract_y
_atom_site_fract_z
Si Si1 0.784040 0.025261 0.325340
Si Si2 0.858149 0.196339 0.530087
Si Si3 0.949656 0.685921 0.433396
Si Si4 0.331787 0.813951 0.268835
Si Si5 0.147756 0.580429 0.475584
O O1 0.843178 0.108015 0.417944
O O2 0.781689 0.057896 0.160983
O O3 0.840864 0.916900 0.321009
O O4 0.677085 0.000806 0.405652
O O5 0.974041 0.216521 0.577516
O O6 0.781085 0.183595 0.661151
O O7 0.829422 0.306956 0.467320
O O8 0.031905 0.594939 0.417605
O O9 0.904501 0.680659 0.591777
O O10 0.862738 0.714588 0.319814
#
# Coordination Sequence:
#
# PCOD9460841 Si02
#       5
#     8   8   8   8   8
#     4  12  24  46  77 114 144 209 256 312 386 466
#     4  10  26  48  74 109 161 195 252 323 381 446
#     4  10  27  47  76 114 152 202 254 319 381 460
#     4  12  25  46  78 112 147 210 253 305 399 449
#     4  10  26  45  77 108 155 196 252 322 375 450
#
# _framework density 24.730910000000002
#
# number of rings (size 3 to 8) (size 9 to 14) (size 15 to 20)
#    1.200    0.000    2.000    2.400    8.400    1.600 
#    0.000    4.000    0.000    0.000    0.000    0.000 
#    0.000    0.000    0.000    0.000    0.000    0.000 
#
# Total GULP energy -223603.273055 kJ/mol
# GULP energy per Si atom -5590.081826 kJ/mol
# Density = 2.467462 g / cm^3
# Si number density = 24.730910 Si / 1000 Ang^3
#
#
#
# Elastic Constant Matrix: (Units=GPa)
#
#
# Indices 1 2 3 4 5 6 
#
# 1 107.0665 20.6264 43.0337 0.0000 0.0000 0.0000
# 2 20.6264 111.6556 32.2740 0.0000 0.0000 0.0000
# 3 43.0337 32.2740 119.9222 0.0000 0.0000 0.0000
# 4 0.0000 0.0000 0.0000 45.9838 0.0000 0.0000
# 5 0.0000 0.0000 0.0000 0.0000 22.9764 0.0000
# 6 0.0000 0.0000 0.0000 0.0000 0.0000 42.0734
#
#
#
# Elastic Compliance Matrix: (Units=1/GPa)
#
#
# Indices 1 2 3 4 5 6 
#
# 1 0.011010 -0.000967 -0.003691 0.000000 0.000000 0.000000
# 2 -0.000967 0.009797 -0.002289 0.000000 0.000000 0.000000
# 3 -0.003691 -0.002289 0.010279 0.000000 0.000000 0.000000
# 4 0.000000 0.000000 0.000000 0.021747 0.000000 0.000000
# 5 0.000000 0.000000 0.000000 0.000000 0.043523 0.000000
# 6 0.000000 0.000000 0.000000 0.000000 0.000000 0.023768
#
#
# Mechanical properties :
#
#
# Convention : Reuss Voigt Hill
#
# Bulk Modulus (GPa) = 58.16902 58.94584 58.55743
# Shear Modulus (GPa) = 35.77881 38.38741 37.08311
#
# Velocity S-wave (km/s) = 3.80771 3.94408 3.87649
# Velocity P-wave (km/s) = 6.55007 6.68039 6.61555
#
# Compressibility (1/GPa) = 0.01719128
#
# Stress axis : x y z
#
# Youngs Moduli (GPa) = 90.82950 102.07694 97.28376
#
# Poissons Ratio (x) = 0.09872 0.35903
# Poissons Ratio (y) = 0.08784 0.22273
# Poissons Ratio (z) = 0.33521 0.23370
#
# Static dielectric constant tensor:
#      x y z
#    x 2.045200 0.000000 0.000000 
#    y 0.000000 2.034050 0.000000 
#    z 0.000000 0.000000 1.929290 
# 
# From -- ./inp_files/2656.got.cif
#   From: 2010.05.17/outbox.cif.g08.bks.cpg/sg61_2_cif.got.tgz:2656.got - 2010.06.03 15:17:17.
