data_PCOD9460360
_publ_section_title
;
Structure prediction by ZEFSAII (Michael W. Deem and Ramdas Pophale) SiO2 
 PCOD9460360
Probable space group: P B C A
;
_chemical_formula_sum "Si O2"
_cell_formula_units_Z 56
_cell_length_a 12.137474
_cell_length_b 13.835189
_cell_length_c 13.510050
_cell_angle_alpha 90.000000
_cell_angle_beta 90.000000
_cell_angle_gamma 90.000000
_cell_volume 2268.664970
_symmetry_space_group_name_H-M "P B C A"
_symmetry_group_IT_number 61
_symmetry_cell_setting 'orthorhombic'
loop_
_space_group_symop_operation_xyz
x,y,z
1/2-x,-y,1/2+z
1/2+x,1/2-y,-z
-x,1/2+y,1/2-z
-x,-y,-z
1/2+x,y,1/2-z
1/2-x,1/2+y,z
x,1/2-y,1/2+z
loop_
_atom_site_type_symbol
_atom_site_label
_atom_site_fract_x
_atom_site_fract_y
_atom_site_fract_z
Si Si1 0.466914 0.250782 0.406672
Si Si2 0.606546 0.151135 0.035930
Si Si3 0.560075 0.610659 0.923156
Si Si4 0.765762 0.757261 0.693988
Si Si5 0.286015 0.492505 0.558841
Si Si6 0.593626 0.102101 0.762301
Si Si7 0.274537 0.220077 0.093750
O O1 0.488669 0.332365 0.490282
O O2 0.492162 0.151003 0.471383
O O3 0.343004 0.233423 0.371152
O O4 0.528648 0.307157 0.315877
O O5 0.652155 0.044759 0.031754
O O6 0.683995 0.212805 0.959644
O O7 0.629114 0.200592 0.138227
O O8 0.662128 0.536626 0.935660
O O9 0.478301 0.575956 0.835420
O O10 0.623396 0.708456 0.890063
O O11 0.793249 0.647650 0.721100
O O12 0.755300 0.812622 0.796036
O O13 0.363905 0.525109 0.654194
O O14 0.277303 0.380464 0.539282
#
# Coordination Sequence:
#
# PCOD9460360 Si02
#       7
#     8   8   8   8   8   8   8
#     4  11  20  37  68  90 119 169 214 252 329 375
#     4  10  22  42  64  91 130 165 214 272 317 392
#     4  11  21  41  66  88 131 172 206 271 323 384
#     4  12  20  39  71  91 123 178 209 259 327 382
#     4  10  22  43  59  96 129 165 219 271 312 389
#     4  11  21  40  65  91 126 168 217 266 322 384
#     4  11  22  42  66  93 132 168 219 267 326 384
#
# _framework density 24.68412
#
# number of rings (size 3 to 8) (size 9 to 14) (size 15 to 20)
#    0.000    1.143   10.000    0.000    0.000    0.000 
#    7.714    3.571    0.000    0.000    0.000    0.000 
#    0.000    0.000    0.000    0.000    0.000    0.000 
#
# Total GULP energy -311955.779392 kJ/mol
# GULP energy per Si atom -5570.638918 kJ/mol
# Density = 2.462794 g / cm^3
# Si number density = 24.684120 Si / 1000 Ang^3
#
#
#
# Elastic Constant Matrix: (Units=GPa)
#
#
# Indices 1 2 3 4 5 6 
#
# 1 69.9108 17.6707 8.2667 0.0000 0.0000 0.0000
# 2 17.6707 73.3490 -10.6190 0.0000 0.0000 0.0000
# 3 8.2667 -10.6190 68.0698 0.0000 0.0000 0.0000
# 4 0.0000 0.0000 0.0000 3.4745 0.0000 0.0000
# 5 0.0000 0.0000 0.0000 0.0000 40.2665 0.0000
# 6 0.0000 0.0000 0.0000 0.0000 0.0000 22.6346
#
#
#
# Elastic Compliance Matrix: (Units=1/GPa)
#
#
# Indices 1 2 3 4 5 6 
#
# 1 0.015651 -0.004139 -0.002546 0.000000 0.000000 0.000000
# 2 -0.004139 0.015043 0.002849 0.000000 0.000000 0.000000
# 3 -0.002546 0.002849 0.015445 0.000000 0.000000 0.000000
# 4 0.000000 0.000000 0.000000 0.287810 0.000000 0.000000
# 5 0.000000 0.000000 0.000000 0.000000 0.024835 0.000000
# 6 0.000000 0.000000 0.000000 0.000000 0.000000 0.044180
#
#
# Mechanical properties :
#
#
# Convention : Reuss Voigt Hill
#
# Bulk Modulus (GPa) = 25.99667 26.88514 26.44090
# Shear Modulus (GPa) = 11.80754 26.34254 19.07504
#
# Velocity S-wave (km/s) = 2.18948 3.27032 2.78288
# Velocity P-wave (km/s) = 4.11660 5.01750 4.58921
#
# Compressibility (1/GPa) = 0.03846647
#
# Stress axis : x y z
#
# Youngs Moduli (GPa) = 63.89248 66.47529 64.74764
#
# Poissons Ratio (x) = 0.27516 0.16488
# Poissons Ratio (y) = 0.26447 -0.18450
# Poissons Ratio (z) = 0.16270 -0.18942
#
# Static dielectric constant tensor:
#      x y z
#    x 2.125060 0.000000 0.000000 
#    y 0.000000 1.945460 0.000000 
#    z 0.000000 0.000000 2.056060 
# 
# From -- ./inp_files/7924.got.cif
#   From: 2010.05.17/outbox.cif.g08.bks.cpg/sg61_4_cif.got.tgz:7924.got - 2010.06.03 15:17:17.
