data_PCOD9460353
_publ_section_title
;
Structure prediction by ZEFSAII (Michael W. Deem and Ramdas Pophale) SiO2 
 PCOD9460353
Probable space group: P B C A
;
_chemical_formula_sum "Si O2"
_cell_formula_units_Z 40
_cell_length_a 20.962957
_cell_length_b 9.341225
_cell_length_c 9.128019
_cell_angle_alpha 90.000000
_cell_angle_beta 90.000000
_cell_angle_gamma 90.000000
_cell_volume 1787.445924
_symmetry_space_group_name_H-M "P B C A"
_symmetry_group_IT_number 61
_symmetry_cell_setting 'orthorhombic'
loop_
_space_group_symop_operation_xyz
x,y,z
1/2-x,-y,1/2+z
1/2+x,1/2-y,-z
-x,1/2+y,1/2-z
-x,-y,-z
1/2+x,y,1/2-z
1/2-x,1/2+y,z
x,1/2-y,1/2+z
loop_
_atom_site_type_symbol
_atom_site_label
_atom_site_fract_x
_atom_site_fract_y
_atom_site_fract_z
Si Si1 0.238148 0.403605 0.670201
Si Si2 0.501394 0.073517 0.344175
Si Si3 0.031541 0.880231 0.396424
Si Si4 0.699812 0.357890 0.498553
Si Si5 0.381222 0.413045 0.634844
O O1 0.204111 0.304781 0.550198
O O2 0.245818 0.559113 0.596662
O O3 0.312806 0.357085 0.686507
O O4 0.207918 0.388421 0.829977
O O5 0.511826 0.244049 0.355772
O O6 0.432664 0.068838 0.261958
O O7 0.500000 0.000000 0.500000
O O8 0.547612 0.973879 0.245999
O O9 0.088650 0.824579 0.499723
O O10 0.000000 0.000000 0.500000
O O11 0.636682 0.434556 0.438500
#
# Coordination Sequence:
#
# PCOD9460353 Si02
#       5
#     8   8   8   8   8
#     4  10  22  42  63  93 134 175 223 281 329 413
#     4  11  22  44  69  97 132 178 224 282 341 411
#     4  10  22  45  64  98 134 167 225 278 338 427
#     4  10  22  42  63  95 134 173 230 273 335 409
#     4   9  24  41  66  95 131 177 216 270 359 397
#
# _framework density 22.378298999999998
#
# number of rings (size 3 to 8) (size 9 to 14) (size 15 to 20)
#    1.200    0.800    0.000    3.600    2.800    0.000 
#   18.000    0.000    0.000    0.000    0.000    0.000 
#    0.000    0.000    0.000    0.000    0.000    0.000 
#
# Total GULP energy -222802.910722 kJ/mol
# GULP energy per Si atom -5570.072768 kJ/mol
# Density = 2.232736 g / cm^3
# Si number density = 22.378299 Si / 1000 Ang^3
#
#
#
# Elastic Constant Matrix: (Units=GPa)
#
#
# Indices 1 2 3 4 5 6 
#
# 1 24.6626 5.1583 3.1607 0.0000 0.0000 0.0000
# 2 5.1583 106.7316 26.0512 0.0000 0.0000 0.0000
# 3 3.1607 26.0512 111.4371 0.0000 0.0000 0.0000
# 4 0.0000 0.0000 0.0000 37.3903 0.0000 0.0000
# 5 0.0000 0.0000 0.0000 0.0000 36.6795 0.0000
# 6 0.0000 0.0000 0.0000 0.0000 0.0000 18.3757
#
#
#
# Elastic Compliance Matrix: (Units=1/GPa)
#
#
# Indices 1 2 3 4 5 6 
#
# 1 0.041019 -0.001801 -0.000742 0.000000 0.000000 0.000000
# 2 -0.001801 0.010015 -0.002290 0.000000 0.000000 0.000000
# 3 -0.000742 -0.002290 0.009530 0.000000 0.000000 0.000000
# 4 0.000000 0.000000 0.000000 0.026745 0.000000 0.000000
# 5 0.000000 0.000000 0.000000 0.000000 0.027263 0.000000
# 6 0.000000 0.000000 0.000000 0.000000 0.000000 0.054420
#
#
# Mechanical properties :
#
#
# Convention : Reuss Voigt Hill
#
# Bulk Modulus (GPa) = 19.64755 34.61907 27.13331
# Shear Modulus (GPa) = 25.55903 32.38652 28.97277
#
# Velocity S-wave (km/s) = 3.38321 3.80837 3.60207
# Velocity P-wave (km/s) = 4.90513 5.90269 5.42688
#
# Compressibility (1/GPa) = 0.05089693
#
# Stress axis : x y z
#
# Youngs Moduli (GPa) = 24.37888 99.84664 104.93035
#
# Poissons Ratio (x) = 0.17985 0.07789
# Poissons Ratio (y) = 0.04391 0.24032
# Poissons Ratio (z) = 0.01810 0.22867
#
# Static dielectric constant tensor:
#      x y z
#    x 1.908060 0.000000 0.000000 
#    y 0.000000 1.894230 0.000000 
#    z 0.000000 0.000000 1.825920 
# 
# From -- ./inp_files/4155.got.cif
#   From: 2010.05.17/outbox.cif.g08.bks.cpg/sg61_3_cif.got.tgz:4155.got - 2010.06.03 15:17:17.
