data_PCOD9460106
_publ_section_title
;
Structure prediction by ZEFSAII (Michael W. Deem and Ramdas Pophale) SiO2 
 PCOD9460106
Probable space group: P B C A
;
_chemical_formula_sum "Si O2"
_cell_formula_units_Z 60
_cell_length_a 16.032377
_cell_length_b 13.486745
_cell_length_c 10.045184
_cell_angle_alpha 90.000000
_cell_angle_beta 90.000000
_cell_angle_gamma 90.000000
_cell_volume 2172.015695
_symmetry_space_group_name_H-M "P B C A"
_symmetry_group_IT_number 61
_symmetry_cell_setting 'orthorhombic'
loop_
_space_group_symop_operation_xyz
x,y,z
1/2-x,-y,1/2+z
1/2+x,1/2-y,-z
-x,1/2+y,1/2-z
-x,-y,-z
1/2+x,y,1/2-z
1/2-x,1/2+y,z
x,1/2-y,1/2+z
loop_
_atom_site_type_symbol
_atom_site_label
_atom_site_fract_x
_atom_site_fract_y
_atom_site_fract_z
Si Si1 0.295017 0.280447 0.599161
Si Si2 0.537202 0.998191 0.207016
Si Si3 0.712118 0.470194 0.600960
Si Si4 0.527894 0.265263 0.672712
Si Si5 0.293764 0.733920 0.848797
Si Si6 0.000000 0.500000 0.500000
Si Si7 0.344798 0.496203 0.681111
Si Si8 0.563368 0.797983 0.581332
O O1 0.219509 0.308453 0.497706
O O2 0.266756 0.216549 0.724415
O O3 0.341397 0.377003 0.655486
O O4 0.351991 0.228535 0.489621
O O5 0.625187 0.971696 0.135269
O O6 0.538732 0.117351 0.185868
O O7 0.545788 0.967752 0.360953
O O8 0.441889 0.970466 0.163677
O O9 0.706847 0.354675 0.642105
O O10 0.712162 0.467593 0.441842
O O11 0.791414 0.512992 0.682875
O O12 0.613704 0.209960 0.701571
O O13 0.505997 0.237357 0.523622
O O14 0.458110 0.242529 0.782400
O O15 0.948410 0.415636 0.585769
#
# Coordination Sequence:
#
# PCOD9460106 Si02
#       8
#     8   8   8   8   8   4   8   8
#     4  11  23  41  70  95 134 176 234 284 348 419
#     4  10  22  45  67  98 142 184 235 289 352 427
#     4  10  25  42  68  98 141 178 228 294 357 417
#     4  10  21  42  67  92 134 176 231 280 345 417
#     4  10  23  42  61  97 130 172 221 291 341 416
#     4  10  26  40  72  98 142 178 238 288 360 424
#     4  11  24  45  70 101 139 185 234 290 357 433
#     4  11  22  42  69  97 129 182 229 287 345 422
#
# _framework density 27.624110999999999
#
# number of rings (size 3 to 8) (size 9 to 14) (size 15 to 20)
#    0.000    1.600    1.333    2.000    7.467    4.267 
#    7.200    0.000    0.000    0.000    0.000    0.000 
#    0.000    0.000    0.000    0.000    0.000    0.000 
#
# Total GULP energy -334814.876146 kJ/mol
# GULP energy per Si atom -5580.247936 kJ/mol
# Density = 2.756124 g / cm^3
# Si number density = 27.624111 Si / 1000 Ang^3
#
#
#
# Elastic Constant Matrix: (Units=GPa)
#
#
# Indices 1 2 3 4 5 6 
#
# 1 150.7404 19.1863 53.9336 0.0000 0.0000 0.0000
# 2 19.1863 64.1288 -8.4274 0.0000 0.0000 0.0000
# 3 53.9336 -8.4274 105.3975 0.0000 0.0000 0.0000
# 4 0.0000 0.0000 0.0000 46.1634 0.0000 0.0000
# 5 0.0000 0.0000 0.0000 0.0000 49.4964 0.0000
# 6 0.0000 0.0000 0.0000 0.0000 0.0000 18.9792
#
#
#
# Elastic Compliance Matrix: (Units=1/GPa)
#
#
# Indices 1 2 3 4 5 6 
#
# 1 0.008738 -0.003236 -0.004730 0.000000 0.000000 0.000000
# 2 -0.003236 0.016958 0.003012 0.000000 0.000000 0.000000
# 3 -0.004730 0.003012 0.012149 0.000000 0.000000 0.000000
# 4 0.000000 0.000000 0.000000 0.021662 0.000000 0.000000
# 5 0.000000 0.000000 0.000000 0.000000 0.020203 0.000000
# 6 0.000000 0.000000 0.000000 0.000000 0.000000 0.052689
#
#
# Mechanical properties :
#
#
# Convention : Reuss Voigt Hill
#
# Bulk Modulus (GPa) = 35.79583 49.96131 42.87857
# Shear Modulus (GPa) = 32.97698 39.96607 36.47152
#
# Velocity S-wave (km/s) = 3.45885 3.80779 3.63751
# Velocity P-wave (km/s) = 5.37939 6.12027 5.76175
#
# Compressibility (1/GPa) = 0.02793621
#
# Stress axis : x y z
#
# Youngs Moduli (GPa) = 114.43960 58.97079 82.30964
#
# Poissons Ratio (x) = 0.19083 0.38934
# Poissons Ratio (y) = 0.37032 -0.24790
# Poissons Ratio (z) = 0.54133 -0.17761
#
# Static dielectric constant tensor:
#      x y z
#    x 2.302570 0.000000 0.000000 
#    y 0.000000 2.242120 0.000000 
#    z 0.000000 0.000000 2.119540 
# 
# From -- ./inp_files/3604.got.cif
#   From: 2010.05.17/outbox.cif.g08.bks.cpg/sg61_2_cif.got.tgz:3604.got - 2010.06.03 15:17:17.
