data_PCOD9460050
_publ_section_title
;
Structure prediction by ZEFSAII (Michael W. Deem and Ramdas Pophale) SiO2 
 PCOD9460050
Probable space group: P B C A
;
_chemical_formula_sum "Si O2"
_cell_formula_units_Z 48
_cell_length_a 25.497901
_cell_length_b 8.255147
_cell_length_c 10.930568
_cell_angle_alpha 90.000000
_cell_angle_beta 90.000000
_cell_angle_gamma 90.000000
_cell_volume 2300.763464
_symmetry_space_group_name_H-M "P B C A"
_symmetry_group_IT_number 61
_symmetry_cell_setting 'orthorhombic'
loop_
_space_group_symop_operation_xyz
x,y,z
1/2-x,-y,1/2+z
1/2+x,1/2-y,-z
-x,1/2+y,1/2-z
-x,-y,-z
1/2+x,y,1/2-z
1/2-x,1/2+y,z
x,1/2-y,1/2+z
loop_
_atom_site_type_symbol
_atom_site_label
_atom_site_fract_x
_atom_site_fract_y
_atom_site_fract_z
Si Si1 0.815719 0.903217 0.566252
Si Si2 0.246389 0.667098 0.810401
Si Si3 0.575124 0.273371 0.108746
Si Si4 0.181695 0.581093 0.189528
Si Si5 0.068054 0.611717 0.286308
Si Si6 0.522379 0.330053 0.356728
O O1 0.800541 0.046257 0.658838
O O2 0.766189 0.781635 0.579627
O O3 0.868164 0.805864 0.594568
O O4 0.822196 0.994778 0.439443
O O5 0.296491 0.560942 0.776133
O O6 0.225459 0.780763 0.702326
O O7 0.541790 0.212707 0.992226
O O8 0.573949 0.470642 0.110650
O O9 0.554818 0.238901 0.247357
O O10 0.125630 0.644113 0.234409
O O11 0.035312 0.515467 0.180095
O O12 0.036458 0.765906 0.335020
#
# Coordination Sequence:
#
# PCOD9460050 Si02
#       6
#     8   8   8   8   8   8
#     4  11  20  41  64  91 126 168 205 264 326 371
#     4  10  23  37  63  93 123 161 215 254 320 380
#     4  10  21  41  65  88 126 167 206 262 316 376
#     4  11  21  42  60  92 126 162 210 262 312 386
#     4  10  22  40  62  91 124 166 211 255 317 376
#     4  10  22  40  64  89 124 166 209 263 312 378
#
# _framework density 20.862639999999999
#
# number of rings (size 3 to 8) (size 9 to 14) (size 15 to 20)
#    1.000    0.667    3.333    1.500    0.000    2.000 
#    3.000    1.667    0.000    0.000    0.000    0.000 
#    0.000    0.000    0.000    0.000    0.000    0.000 
#
# Total GULP energy -267359.222023 kJ/mol
# GULP energy per Si atom -5569.983792 kJ/mol
# Density = 2.081516 g / cm^3
# Si number density = 20.862640 Si / 1000 Ang^3
#
#
#
# Elastic Constant Matrix: (Units=GPa)
#
#
# Indices 1 2 3 4 5 6 
#
# 1 112.4510 31.7087 23.4505 0.0000 0.0000 0.0000
# 2 31.7087 41.9791 5.5303 0.0000 0.0000 0.0000
# 3 23.4505 5.5303 83.3535 0.0000 0.0000 0.0000
# 4 0.0000 0.0000 0.0000 14.3417 0.0000 0.0000
# 5 0.0000 0.0000 0.0000 0.0000 26.7182 0.0000
# 6 0.0000 0.0000 0.0000 0.0000 0.0000 45.4076
#
#
#
# Elastic Compliance Matrix: (Units=1/GPa)
#
#
# Indices 1 2 3 4 5 6 
#
# 1 0.011904 -0.008626 -0.002777 0.000000 0.000000 0.000000
# 2 -0.008626 0.030282 0.000418 0.000000 0.000000 0.000000
# 3 -0.002777 0.000418 0.012751 0.000000 0.000000 0.000000
# 4 0.000000 0.000000 0.000000 0.069727 0.000000 0.000000
# 5 0.000000 0.000000 0.000000 0.000000 0.037428 0.000000
# 6 0.000000 0.000000 0.000000 0.000000 0.000000 0.022023
#
#
# Mechanical properties :
#
#
# Convention : Reuss Voigt Hill
#
# Bulk Modulus (GPa) = 30.33374 39.90695 35.12034
# Shear Modulus (GPa) = 23.03372 29.09976 26.06674
#
# Velocity S-wave (km/s) = 3.32635 3.73879 3.53859
# Velocity P-wave (km/s) = 5.41518 6.14882 5.79362
#
# Compressibility (1/GPa) = 0.03296659
#
# Stress axis : x y z
#
# Youngs Moduli (GPa) = 84.00428 33.02298 78.42766
#
# Poissons Ratio (x) = 0.28485 0.21778
# Poissons Ratio (y) = 0.72462 -0.03276
# Poissons Ratio (z) = 0.23326 -0.01379
#
# Static dielectric constant tensor:
#      x y z
#    x 1.740950 0.000000 0.000000 
#    y 0.000000 1.806490 0.000000 
#    z 0.000000 0.000000 1.746250 
# 
# From -- ./inp_files/2290.got.cif
#   From: 2010.05.17/outbox.cif.g08.bks.cpg/sg61_2_cif.got.tgz:2290.got - 2010.06.03 15:17:17.
