data_PCOD9460426
_publ_section_title
;
Structure prediction by ZEFSAII (Michael W. Deem and Ramdas Pophale) SiO2 
 PCOD9460426
Probable space group: P B C A
;
_chemical_formula_sum "Si O2"
_cell_formula_units_Z 64
_cell_length_a 5.113073
_cell_length_b 29.903515
_cell_length_c 21.364255
_cell_angle_alpha 90.000000
_cell_angle_beta 90.000000
_cell_angle_gamma 90.000000
_cell_volume 3266.570131
_symmetry_space_group_name_H-M "P B C A"
_symmetry_group_IT_number 61
_symmetry_cell_setting 'orthorhombic'
loop_
_space_group_symop_operation_xyz
x,y,z
1/2-x,-y,1/2+z
1/2+x,1/2-y,-z
-x,1/2+y,1/2-z
-x,-y,-z
1/2+x,y,1/2-z
1/2-x,1/2+y,z
x,1/2-y,1/2+z
loop_
_atom_site_type_symbol
_atom_site_label
_atom_site_fract_x
_atom_site_fract_y
_atom_site_fract_z
Si Si1 0.634567 0.098696 0.499780
Si Si2 0.559932 0.694245 0.207254
Si Si3 0.003572 0.303012 0.459788
Si Si4 0.415890 0.989993 0.711021
Si Si5 0.028599 0.452686 0.932850
Si Si6 0.499896 0.254224 0.413660
Si Si7 0.475911 0.016312 0.581052
Si Si8 0.596881 0.901679 0.641240
O O1 0.584207 0.145746 0.532124
O O2 0.497542 0.061033 0.541829
O O3 0.524843 0.102125 0.428587
O O4 0.930793 0.080736 0.487563
O O5 0.841999 0.699528 0.239230
O O6 0.489700 0.728601 0.151823
O O7 0.568158 0.644770 0.176501
O O8 0.222632 0.278117 0.419754
O O9 0.011988 0.281674 0.529577
O O10 0.726693 0.290082 0.429124
O O11 0.120259 0.995424 0.732889
O O12 0.465215 0.940686 0.682123
O O13 0.493627 0.023413 0.655278
O O14 0.279872 0.484856 0.938861
O O15 0.111426 0.420486 0.874840
O O16 0.212082 0.512948 0.074415
#
# Coordination Sequence:
#
# PCOD9460426 Si02
#       8
#     8   8   8   8   8   8   8   8
#     4  12  24  39  66  99 129 164 211 281 329 380
#     4  12  26  42  68  97 137 175 209 257 318 409
#     4  10  23  39  69  90 129 164 208 279 321 389
#     4  11  22  39  56  78 120 172 214 252 297 370
#     4  11  23  38  58  91 134 169 203 265 313 387
#     4  10  22  44  62  96 126 167 213 255 337 388
#     4  11  25  39  61  89 127 175 221 266 325 379
#     4  11  25  38  62  96 133 165 213 254 328 392
#
# _framework density 19.592414999999999
#
# number of rings (size 3 to 8) (size 9 to 14) (size 15 to 20)
#    0.000    1.000    3.750    3.750    5.250    1.000 
#    0.000    0.000    0.000    4.500    0.000    0.000 
#    0.000    0.000    0.000    0.000    0.000    0.000 
#
# Total GULP energy -357384.241815 kJ/mol
# GULP energy per Si atom -5584.128778 kJ/mol
# Density = 1.954782 g / cm^3
# Si number density = 19.592415 Si / 1000 Ang^3
#
#
#
# Elastic Constant Matrix: (Units=GPa)
#
#
# Indices 1 2 3 4 5 6 
#
# 1 88.5496 11.3383 2.9940 0.0000 0.0000 0.0000
# 2 11.3383 70.0900 24.7561 0.0000 0.0000 0.0000
# 3 2.9940 24.7561 73.6136 0.0000 0.0000 0.0000
# 4 0.0000 0.0000 0.0000 39.8363 0.0000 0.0000
# 5 0.0000 0.0000 0.0000 0.0000 27.7344 0.0000
# 6 0.0000 0.0000 0.0000 0.0000 0.0000 14.5471
#
#
#
# Elastic Compliance Matrix: (Units=1/GPa)
#
#
# Indices 1 2 3 4 5 6 
#
# 1 0.011534 -0.001929 0.000180 0.000000 0.000000 0.000000
# 2 -0.001929 0.016513 -0.005475 0.000000 0.000000 0.000000
# 3 0.000180 -0.005475 0.015418 0.000000 0.000000 0.000000
# 4 0.000000 0.000000 0.000000 0.025103 0.000000 0.000000
# 5 0.000000 0.000000 0.000000 0.000000 0.036056 0.000000
# 6 0.000000 0.000000 0.000000 0.000000 0.000000 0.068742
#
#
# Mechanical properties :
#
#
# Convention : Reuss Voigt Hill
#
# Bulk Modulus (GPa) = 34.46298 34.49222 34.47760
# Shear Modulus (GPa) = 25.31795 29.30120 27.30958
#
# Velocity S-wave (km/s) = 3.59866 3.87141 3.73753
# Velocity P-wave (km/s) = 5.90723 6.13408 6.02172
#
# Compressibility (1/GPa) = 0.02901664
#
# Stress axis : x y z
#
# Youngs Moduli (GPa) = 86.69966 60.55752 64.85780
#
# Poissons Ratio (x) = 0.11683 -0.01166
# Poissons Ratio (y) = 0.16727 0.35509
# Poissons Ratio (z) = -0.01558 0.33155
#
# Static dielectric constant tensor:
#      x y z
#    x 1.748140 0.000000 0.000000 
#    y 0.000000 1.668240 0.000000 
#    z 0.000000 0.000000 1.737880 
# 
# From -- ./inp_files/8796.got.cif
#   From: 2010.05.17/outbox.cif.g08.bks.cpg/sg61_5_cif.got.tgz:8796.got - 2010.06.03 15:17:17.
