data_PCOD9460268
_publ_section_title
;
Structure prediction by ZEFSAII (Michael W. Deem and Ramdas Pophale) SiO2 
 PCOD9460268
Probable space group: P B C A
;
_chemical_formula_sum "Si O2"
_cell_formula_units_Z 56
_cell_length_a 5.349433
_cell_length_b 13.995685
_cell_length_c 32.544878
_cell_angle_alpha 90.000000
_cell_angle_beta 90.000000
_cell_angle_gamma 90.000000
_cell_volume 2436.601794
_symmetry_space_group_name_H-M "P B C A"
_symmetry_group_IT_number 61
_symmetry_cell_setting 'orthorhombic'
loop_
_space_group_symop_operation_xyz
x,y,z
1/2-x,-y,1/2+z
1/2+x,1/2-y,-z
-x,1/2+y,1/2-z
-x,-y,-z
1/2+x,y,1/2-z
1/2-x,1/2+y,z
x,1/2-y,1/2+z
loop_
_atom_site_type_symbol
_atom_site_label
_atom_site_fract_x
_atom_site_fract_y
_atom_site_fract_z
Si Si1 0.598943 0.284932 0.270731
Si Si2 0.453428 0.009684 0.232795
Si Si3 0.347673 0.797793 0.641786
Si Si4 0.150516 0.080517 0.352012
Si Si5 0.544475 0.761111 0.553222
Si Si6 0.645412 0.442809 0.559800
Si Si7 0.267165 0.594685 0.995386
O O1 0.843191 0.244131 0.248009
O O2 0.585919 0.397147 0.260524
O O3 0.618638 0.272175 0.319576
O O4 0.168995 0.047816 0.236322
O O5 0.582427 0.024437 0.188897
O O6 0.571554 0.875243 0.647947
O O7 0.388016 0.759157 0.595471
O O8 0.070873 0.841172 0.645134
O O9 0.126805 0.020739 0.394035
O O10 0.777407 0.831357 0.563161
O O11 0.599801 0.656419 0.536739
O O12 0.429058 0.821284 0.515400
O O13 0.395606 0.444892 0.533245
O O14 0.843284 0.504874 0.533280
#
# Coordination Sequence:
#
# PCOD9460268 Si02
#       7
#     8   8   8   8   8   8   8
#     4  10  22  41  63  91 125 164 207 254 312 383
#     4  10  22  40  63  88 125 163 206 253 311 385
#     4  11  24  39  64  92 128 159 207 266 307 377
#     4  11  23  41  61  94 126 159 209 262 312 370
#     4  11  22  40  62  93 126 165 216 264 318 383
#     4  10  23  39  61  90 125 164 214 263 309 386
#     4  11  21  40  64  86 124 171 208 260 326 371
#
# _framework density 22.982828000000001
#
# number of rings (size 3 to 8) (size 9 to 14) (size 15 to 20)
#    0.000    1.429    2.857    2.143    2.000    3.429 
#    0.000    0.000    6.286    0.000    0.000    0.000 
#    0.000    0.000    0.000    0.000    0.000    0.000 
#
# Total GULP energy -312548.188970 kJ/mol
# GULP energy per Si atom -5581.217660 kJ/mol
# Density = 2.293052 g / cm^3
# Si number density = 22.982828 Si / 1000 Ang^3
#
#
#
# Elastic Constant Matrix: (Units=GPa)
#
#
# Indices 1 2 3 4 5 6 
#
# 1 72.8775 19.8599 16.5528 0.0000 0.0000 0.0000
# 2 19.8599 38.6242 -2.8502 0.0000 0.0000 0.0000
# 3 16.5528 -2.8502 102.3823 0.0000 0.0000 0.0000
# 4 0.0000 0.0000 0.0000 40.1755 0.0000 0.0000
# 5 0.0000 0.0000 0.0000 0.0000 38.6005 0.0000
# 6 0.0000 0.0000 0.0000 0.0000 0.0000 12.9556
#
#
#
# Elastic Compliance Matrix: (Units=1/GPa)
#
#
# Indices 1 2 3 4 5 6 
#
# 1 0.016810 -0.008862 -0.002964 0.000000 0.000000 0.000000
# 2 -0.008862 0.030616 0.002285 0.000000 0.000000 0.000000
# 3 -0.002964 0.002285 0.010310 0.000000 0.000000 0.000000
# 4 0.000000 0.000000 0.000000 0.024891 0.000000 0.000000
# 5 0.000000 0.000000 0.000000 0.000000 0.025906 0.000000
# 6 0.000000 0.000000 0.000000 0.000000 0.000000 0.077187
#
#
# Mechanical properties :
#
#
# Convention : Reuss Voigt Hill
#
# Bulk Modulus (GPa) = 25.87119 31.22323 28.54721
# Shear Modulus (GPa) = 22.96870 30.36777 26.66823
#
# Velocity S-wave (km/s) = 3.16474 3.63895 3.41009
# Velocity P-wave (km/s) = 4.96339 5.59204 5.28706
#
# Compressibility (1/GPa) = 0.03865303
#
# Stress axis : x y z
#
# Youngs Moduli (GPa) = 59.48831 32.66271 96.99121
#
# Poissons Ratio (x) = 0.28946 0.28753
# Poissons Ratio (y) = 0.52720 -0.22164
# Poissons Ratio (z) = 0.17635 -0.07464
#
# Static dielectric constant tensor:
#      x y z
#    x 1.974720 0.000000 0.000000 
#    y 0.000000 1.868260 0.000000 
#    z 0.000000 0.000000 1.888310 
# 
# From -- ./inp_files/593.got.cif
#   From: 2010.05.17/outbox.cif.g08.bks.cpg/sg61_1_cif.got.tgz:593.got - 2010.06.03 15:17:17.
