data_PCOD9460843
_publ_section_title
;
Structure prediction by ZEFSAII (Michael W. Deem and Ramdas Pophale) SiO2 
 PCOD9460843
Probable space group: P B C A
;
_chemical_formula_sum "Si O2"
_cell_formula_units_Z 44
_cell_length_a 5.166507
_cell_length_b 27.182155
_cell_length_c 14.383360
_cell_angle_alpha 90.000000
_cell_angle_beta 90.000000
_cell_angle_gamma 90.000000
_cell_volume 2019.952967
_symmetry_space_group_name_H-M "P B C A"
_symmetry_group_IT_number 61
_symmetry_cell_setting 'orthorhombic'
loop_
_space_group_symop_operation_xyz
x,y,z
1/2-x,-y,1/2+z
1/2+x,1/2-y,-z
-x,1/2+y,1/2-z
-x,-y,-z
1/2+x,y,1/2-z
1/2-x,1/2+y,z
x,1/2-y,1/2+z
loop_
_atom_site_type_symbol
_atom_site_label
_atom_site_fract_x
_atom_site_fract_y
_atom_site_fract_z
Si Si1 0.305939 0.751656 0.434124
Si Si2 0.242196 0.139658 0.899776
Si Si3 0.251226 0.897372 0.996040
Si Si4 0.282876 0.540016 0.806276
Si Si5 0.500000 0.500000 0.000000
Si Si6 0.248898 0.154143 0.311177
O O1 0.576819 0.750131 0.489426
O O2 0.274281 0.802823 0.378403
O O3 0.284568 0.705239 0.366569
O O4 0.203528 0.099446 0.819631
O O5 0.514318 0.125960 0.947035
O O6 0.014788 0.129452 0.974494
O O7 0.294533 0.888033 0.887462
O O8 0.203720 0.954037 0.016921
O O9 0.507115 0.525577 0.734693
O O10 0.342163 0.516698 0.905652
O O11 0.533243 0.150975 0.268105
#
# Coordination Sequence:
#
# PCOD9460843 Si02
#       6
#     8   8   8   8   4   8
#     4  12  22  41  69  96 133 187 233 272 346 433
#     4  11  22  42  69  95 132 180 228 284 348 414
#     4  11  23  43  67  95 132 181 229 282 353 429
#     4  11  25  43  69 103 141 178 238 293 348 428
#     4  10  26  46  74 102 138 192 236 296 370 418
#     4  12  25  40  63 102 137 173 224 290 345 416
#
# _framework density 21.782686000000002
#
# number of rings (size 3 to 8) (size 9 to 14) (size 15 to 20)
#    0.000    0.727    3.636    4.364    0.000    9.455 
#    0.000    0.000    0.000    0.000    0.000    0.000 
#    0.000    0.000    0.000    0.000    0.000    0.000 
#
# Total GULP energy -245181.535001 kJ/mol
# GULP energy per Si atom -5572.307614 kJ/mol
# Density = 2.173311 g / cm^3
# Si number density = 21.782686 Si / 1000 Ang^3
#
#
#
# Elastic Constant Matrix: (Units=GPa)
#
#
# Indices 1 2 3 4 5 6 
#
# 1 247.8524 63.5731 26.4866 0.0000 0.0000 0.0000
# 2 63.5731 39.4771 6.4127 0.0000 0.0000 0.0000
# 3 26.4866 6.4127 22.4822 0.0000 0.0000 0.0000
# 4 0.0000 0.0000 0.0000 41.0897 0.0000 0.0000
# 5 0.0000 0.0000 0.0000 0.0000 30.5378 0.0000
# 6 0.0000 0.0000 0.0000 0.0000 0.0000 -33.6025
#
#
#
# Elastic Compliance Matrix: (Units=1/GPa)
#
#
# Indices 1 2 3 4 5 6 
#
# 1 0.007502 -0.011163 -0.005654 0.000000 0.000000 0.000000
# 2 -0.011163 0.043171 0.000837 0.000000 0.000000 0.000000
# 3 -0.005654 0.000837 0.050902 0.000000 0.000000 0.000000
# 4 0.000000 0.000000 0.000000 0.024337 0.000000 0.000000
# 5 0.000000 0.000000 0.000000 0.000000 0.032746 0.000000
# 6 0.000000 0.000000 0.000000 0.000000 0.000000 -0.029760
#
#
# Mechanical properties :
#
#
# Convention : Reuss Voigt Hill
#
# Bulk Modulus (GPa) = 14.36459 55.86185 35.11322
# Shear Modulus (GPa) = 27.16436 21.82763 24.49599
#
# Velocity S-wave (km/s) = 3.53521 3.16897 3.35709
# Velocity P-wave (km/s) = 4.82415 6.25225 5.58404
#
# Compressibility (1/GPa) = 0.06961563
#
# Stress axis : x y z
#
# Youngs Moduli (GPa) = 133.29604 23.16350 19.64548
#
# Poissons Ratio (x) = 0.25857 0.11108
# Poissons Ratio (y) = 1.48795 -0.01644
# Poissons Ratio (z) = 0.75370 -0.01939
#
# Static dielectric constant tensor:
#      x y z
#    x 1.759360 0.000000 0.000000 
#    y 0.000000 1.837670 0.000000 
#    z 0.000000 0.000000 1.771860 
# 
# From -- ./inp_files/6850.got.cif
#   From: 2010.05.17/outbox.cif.g08.bks.cpg/sg61_4_cif.got.tgz:6850.got - 2010.06.03 15:17:17.
