data_PCOD9460589
_publ_section_title
;
Structure prediction by ZEFSAII (Michael W. Deem and Ramdas Pophale) SiO2 
 PCOD9460589
Probable space group: P B C A
;
_chemical_formula_sum "Si O2"
_cell_formula_units_Z 36
_cell_length_a 4.819930
_cell_length_b 11.909069
_cell_length_c 23.062364
_cell_angle_alpha 90.000000
_cell_angle_beta 90.000000
_cell_angle_gamma 90.000000
_cell_volume 1323.799964
_symmetry_space_group_name_H-M "P B C A"
_symmetry_group_IT_number 61
_symmetry_cell_setting 'orthorhombic'
loop_
_space_group_symop_operation_xyz
x,y,z
1/2-x,-y,1/2+z
1/2+x,1/2-y,-z
-x,1/2+y,1/2-z
-x,-y,-z
1/2+x,y,1/2-z
1/2-x,1/2+y,z
x,1/2-y,1/2+z
loop_
_atom_site_type_symbol
_atom_site_label
_atom_site_fract_x
_atom_site_fract_y
_atom_site_fract_z
Si Si1 0.128004 0.875711 0.116145
Si Si2 0.634342 0.968248 0.710090
Si Si3 0.025259 0.716752 0.795081
Si Si4 0.000000 0.000000 0.000000
Si Si5 0.131740 0.294935 0.964700
O O1 0.978972 0.761267 0.094129
O O2 0.412279 0.844209 0.147682
O O3 0.144901 0.950205 0.058751
O O4 0.950880 0.943324 0.162407
O O5 0.949132 0.977492 0.731321
O O6 0.555708 0.846346 0.687029
O O7 0.788433 0.700804 0.746351
O O8 0.206278 0.911329 0.962147
O O9 0.351302 0.205920 0.994815
#
# Coordination Sequence:
#
# PCOD9460589 Si02
#       5
#     8   8   8   4   8
#     4  11  24  44  75 104 146 195 251 308 372 446
#     4  10  23  43  71 106 140 182 237 302 372 438
#     4  10  23  43  69 103 141 184 237 300 374 448
#     4  10  26  46  70 106 150 198 250 308 370 444
#     4  10  25  47  70 102 142 191 246 302 367 439
#
# _framework density 27.194444000000001
#
# number of rings (size 3 to 8) (size 9 to 14) (size 15 to 20)
#    0.000    1.778    0.000    1.333    0.000   23.111 
#    0.000    2.222    0.000    0.000    0.000    0.000 
#    0.000    0.000    0.000    0.000    0.000    0.000 
#
# Total GULP energy -200815.012406 kJ/mol
# GULP energy per Si atom -5578.194789 kJ/mol
# Density = 2.713255 g / cm^3
# Si number density = 27.194444 Si / 1000 Ang^3
#
#
#
# Elastic Constant Matrix: (Units=GPa)
#
#
# Indices 1 2 3 4 5 6 
#
# 1 177.5214 50.4112 48.7274 0.0000 0.0000 0.0000
# 2 50.4112 79.5144 68.6634 0.0000 0.0000 0.0000
# 3 48.7274 68.6634 162.1911 0.0000 0.0000 0.0000
# 4 0.0000 0.0000 0.0000 78.2424 0.0000 0.0000
# 5 0.0000 0.0000 0.0000 0.0000 53.3655 0.0000
# 6 0.0000 0.0000 0.0000 0.0000 0.0000 42.5416
#
#
#
# Elastic Compliance Matrix: (Units=1/GPa)
#
#
# Indices 1 2 3 4 5 6 
#
# 1 0.006882 -0.004063 -0.000348 0.000000 0.000000 0.000000
# 2 -0.004063 0.022222 -0.008187 0.000000 0.000000 0.000000
# 3 -0.000348 -0.008187 0.009736 0.000000 0.000000 0.000000
# 4 0.000000 0.000000 0.000000 0.012781 0.000000 0.000000
# 5 0.000000 0.000000 0.000000 0.000000 0.018739 0.000000
# 6 0.000000 0.000000 0.000000 0.000000 0.000000 0.023506
#
#
# Mechanical properties :
#
#
# Convention : Reuss Voigt Hill
#
# Bulk Modulus (GPa) = 73.28730 83.87010 78.57870
# Shear Modulus (GPa) = 40.44979 51.59157 46.02068
#
# Velocity S-wave (km/s) = 3.86090 4.36034 4.11820
# Velocity P-wave (km/s) = 6.84714 7.50053 7.18127
#
# Compressibility (1/GPa) = 0.01364493
#
# Stress axis : x y z
#
# Youngs Moduli (GPa) = 145.29895 45.00022 102.71255
#
# Poissons Ratio (x) = 0.18285 0.03569
# Poissons Ratio (y) = 0.59039 0.84090
# Poissons Ratio (z) = 0.05049 0.36842
#
# Static dielectric constant tensor:
#      x y z
#    x 2.182110 0.000000 0.000000 
#    y 0.000000 2.384790 0.000000 
#    z 0.000000 0.000000 2.077580 
# 
# From -- ./inp_files/9938.got.cif
#   From: 2010.05.17/outbox.cif.g08.bks.cpg/sg61_5_cif.got.tgz:9938.got - 2010.06.03 15:17:17.
