data_PCOD9460467
_publ_section_title
;
Structure prediction by ZEFSAII (Michael W. Deem and Ramdas Pophale) SiO2 
 PCOD9460467
Probable space group: P B C A
;
_chemical_formula_sum "Si O2"
_cell_formula_units_Z 56
_cell_length_a 11.811769
_cell_length_b 12.485454
_cell_length_c 16.355972
_cell_angle_alpha 90.000000
_cell_angle_beta 90.000000
_cell_angle_gamma 90.000000
_cell_volume 2412.101853
_symmetry_space_group_name_H-M "P B C A"
_symmetry_group_IT_number 61
_symmetry_cell_setting 'orthorhombic'
loop_
_space_group_symop_operation_xyz
x,y,z
1/2-x,-y,1/2+z
1/2+x,1/2-y,-z
-x,1/2+y,1/2-z
-x,-y,-z
1/2+x,y,1/2-z
1/2-x,1/2+y,z
x,1/2-y,1/2+z
loop_
_atom_site_type_symbol
_atom_site_label
_atom_site_fract_x
_atom_site_fract_y
_atom_site_fract_z
Si Si1 0.321249 0.072248 0.102367
Si Si2 0.660446 0.566976 0.813295
Si Si3 0.016949 0.890422 0.868011
Si Si4 0.228928 0.042988 0.862802
Si Si5 0.641165 0.193521 0.501446
Si Si6 0.452147 0.288869 0.711694
Si Si7 0.927519 0.593399 0.074477
O O1 0.352865 0.125689 0.189864
O O2 0.443242 0.056064 0.062349
O O3 0.250170 0.965465 0.117013
O O4 0.246354 0.159295 0.055314
O O5 0.569002 0.471597 0.821929
O O6 0.729408 0.570132 0.728262
O O7 0.591269 0.676162 0.821264
O O8 0.024606 0.788673 0.807755
O O9 0.136771 0.948612 0.870363
O O10 0.033745 0.139022 0.043989
O O11 0.172714 0.140383 0.912040
O O12 0.339605 0.999499 0.908737
O O13 0.615634 0.317898 0.511594
O O14 0.555284 0.337013 0.659200
#
# Coordination Sequence:
#
# PCOD9460467 Si02
#       7
#     8   8   8   8   8   8   8
#     4   9  23  46  65 106 143 180 243 307 338 443
#     4  11  22  44  74 104 137 191 240 294 375 416
#     4  11  24  47  67 108 139 181 248 300 348 444
#     4  12  24  41  71 101 141 185 237 298 350 441
#     4  11  26  41  72  99 143 192 228 297 377 418
#     4  10  22  45  72  96 140 187 233 296 358 423
#     4  10  24  46  67 102 144 184 238 298 356 436
#
# _framework density 23.216266999999998
#
# number of rings (size 3 to 8) (size 9 to 14) (size 15 to 20)
#    0.857    0.571    2.857    1.286    4.000    4.000 
#    5.143    1.429    0.000    0.000    0.000    0.000 
#    0.000    0.000    0.000    0.000    0.000    0.000 
#
# Total GULP energy -312842.906176 kJ/mol
# GULP energy per Si atom -5586.480467 kJ/mol
# Density = 2.316343 g / cm^3
# Si number density = 23.216267 Si / 1000 Ang^3
#
#
#
# Elastic Constant Matrix: (Units=GPa)
#
#
# Indices 1 2 3 4 5 6 
#
# 1 112.9754 13.7629 19.2092 0.0000 0.0000 0.0000
# 2 13.7629 71.2393 0.7867 0.0000 0.0000 0.0000
# 3 19.2092 0.7867 49.0249 0.0000 0.0000 0.0000
# 4 0.0000 0.0000 0.0000 30.5684 0.0000 0.0000
# 5 0.0000 0.0000 0.0000 0.0000 15.3770 0.0000
# 6 0.0000 0.0000 0.0000 0.0000 0.0000 33.0448
#
#
#
# Elastic Compliance Matrix: (Units=1/GPa)
#
#
# Indices 1 2 3 4 5 6 
#
# 1 0.009717 -0.001836 -0.003778 0.000000 0.000000 0.000000
# 2 -0.001836 0.014386 0.000488 0.000000 0.000000 0.000000
# 3 -0.003778 0.000488 0.021870 0.000000 0.000000 0.000000
# 4 0.000000 0.000000 0.000000 0.032714 0.000000 0.000000
# 5 0.000000 0.000000 0.000000 0.000000 0.065032 0.000000
# 6 0.000000 0.000000 0.000000 0.000000 0.000000 0.030262
#
#
# Mechanical properties :
#
#
# Convention : Reuss Voigt Hill
#
# Bulk Modulus (GPa) = 27.99276 33.41749 30.70513
# Shear Modulus (GPa) = 25.49193 29.09674 27.29434
#
# Velocity S-wave (km/s) = 3.31723 3.54403 3.43250
# Velocity P-wave (km/s) = 5.17258 5.58320 5.38181
#
# Compressibility (1/GPa) = 0.03572352
#
# Stress axis : x y z
#
# Youngs Moduli (GPa) = 102.90717 69.50998 45.72409
#
# Poissons Ratio (x) = 0.12759 0.17275
# Poissons Ratio (y) = 0.18890 -0.02233
# Poissons Ratio (z) = 0.38879 -0.03395
#
# Static dielectric constant tensor:
#      x y z
#    x 1.845210 0.000000 0.000000 
#    y 0.000000 1.845070 0.000000 
#    z 0.000000 0.000000 1.956470 
# 
# From -- ./inp_files/10293.got.cif
#   From: 2010.05.17/outbox.cif.g08.bks.cpg/sg61_6_cif.got.tgz:10293.got - 2010.06.03 15:17:17.
