data_PCOD9460681
_publ_section_title
;
Structure prediction by ZEFSAII (Michael W. Deem and Ramdas Pophale) SiO2 
 PCOD9460681
Probable space group: P B C A
;
_chemical_formula_sum "Si O2"
_cell_formula_units_Z 40
_cell_length_a 15.512723
_cell_length_b 9.673915
_cell_length_c 10.549884
_cell_angle_alpha 90.000000
_cell_angle_beta 90.000000
_cell_angle_gamma 90.000000
_cell_volume 1583.208049
_symmetry_space_group_name_H-M "P B C A"
_symmetry_group_IT_number 61
_symmetry_cell_setting 'orthorhombic'
loop_
_space_group_symop_operation_xyz
x,y,z
1/2-x,-y,1/2+z
1/2+x,1/2-y,-z
-x,1/2+y,1/2-z
-x,-y,-z
1/2+x,y,1/2-z
1/2-x,1/2+y,z
x,1/2-y,1/2+z
loop_
_atom_site_type_symbol
_atom_site_label
_atom_site_fract_x
_atom_site_fract_y
_atom_site_fract_z
Si Si1 0.803898 0.212386 0.380831
Si Si2 0.946195 0.768884 0.985278
Si Si3 0.800012 0.768132 0.145013
Si Si4 0.916768 0.969120 0.291855
Si Si5 0.920085 0.045847 0.878379
O O1 0.763784 0.225007 0.522566
O O2 0.738697 0.186845 0.263986
O O3 0.841729 0.361178 0.334442
O O4 0.876841 0.094414 0.370838
O O5 0.949539 0.657950 0.876661
O O6 0.892616 0.905817 0.945564
O O7 0.888775 0.699264 0.094279
O O8 0.033496 0.841030 0.029590
O O9 0.839786 0.909436 0.204162
O O10 0.001679 0.002466 0.211238
#
# Coordination Sequence:
#
# PCOD9460681 Si02
#       5
#     8   8   8   8   8
#     4  12  28  46  77 108 145 194 249 301 363 438
#     4  10  23  48  72 106 148 195 234 305 365 433
#     4  11  27  45  71 107 150 186 242 300 369 427
#     4  11  25  47  75 108 146 194 243 302 367 433
#     4  10  25  46  76 104 151 189 246 298 366 436
#
# _framework density 25.265156000000001
#
# number of rings (size 3 to 8) (size 9 to 14) (size 15 to 20)
#    0.000    1.200    2.000    1.200   16.800    0.800 
#    3.600    0.000    0.000    0.000    0.000    0.000 
#    0.000    0.000    0.000    0.000    0.000    0.000 
#
# Total GULP energy -223394.970792 kJ/mol
# GULP energy per Si atom -5584.874270 kJ/mol
# Density = 2.520765 g / cm^3
# Si number density = 25.265156 Si / 1000 Ang^3
#
#
#
# Elastic Constant Matrix: (Units=GPa)
#
#
# Indices 1 2 3 4 5 6 
#
# 1 74.2038 19.6398 36.9684 0.0000 0.0000 0.0000
# 2 19.6398 71.8957 27.6285 0.0000 0.0000 0.0000
# 3 36.9684 27.6285 128.5452 0.0000 0.0000 0.0000
# 4 0.0000 0.0000 0.0000 -24.4293 0.0000 0.0000
# 5 0.0000 0.0000 0.0000 0.0000 45.0996 0.0000
# 6 0.0000 0.0000 0.0000 0.0000 0.0000 32.1807
#
#
#
# Elastic Compliance Matrix: (Units=1/GPa)
#
#
# Indices 1 2 3 4 5 6 
#
# 1 0.016261 -0.002883 -0.004057 0.000000 0.000000 0.000000
# 2 -0.002883 0.015672 -0.002539 0.000000 0.000000 0.000000
# 3 -0.004057 -0.002539 0.009492 0.000000 0.000000 0.000000
# 4 0.000000 0.000000 0.000000 -0.040934 0.000000 0.000000
# 5 0.000000 0.000000 0.000000 0.000000 0.022173 0.000000
# 6 0.000000 0.000000 0.000000 0.000000 0.000000 0.031075
#
#
# Mechanical properties :
#
#
# Convention : Reuss Voigt Hill
#
# Bulk Modulus (GPa) = 44.51048 49.23535 46.87291
# Shear Modulus (GPa) = 62.35570 23.26405 42.80987
#
# Velocity S-wave (km/s) = 4.97334 3.03775 4.12080
# Velocity P-wave (km/s) = 7.11578 5.64213 6.42137
#
# Compressibility (1/GPa) = 0.02246662
#
# Stress axis : x y z
#
# Youngs Moduli (GPa) = 61.49866 63.80635 105.35357
#
# Poissons Ratio (x) = 0.18395 0.42739
# Poissons Ratio (y) = 0.17730 0.26754
# Poissons Ratio (z) = 0.24948 0.16203
#
# Static dielectric constant tensor:
#      x y z
#    x 2.087750 0.000000 0.000000 
#    y 0.000000 1.951220 0.000000 
#    z 0.000000 0.000000 2.109970 
# 
# From -- ./inp_files/6086.got.cif
#   From: 2010.05.17/outbox.cif.g08.bks.cpg/sg61_4_cif.got.tgz:6086.got - 2010.06.03 15:17:17.
