data_PCOD9460000
_publ_section_title
;
Structure prediction by ZEFSAII (Michael W. Deem and Ramdas Pophale) SiO2 
 PCOD9460000
Probable space group: P B C A
;
_chemical_formula_sum "Si O2"
_cell_formula_units_Z 64
_cell_length_a 14.432919
_cell_length_b 13.516994
_cell_length_c 16.027204
_cell_angle_alpha 90.000000
_cell_angle_beta 90.000000
_cell_angle_gamma 90.000000
_cell_volume 3126.742092
_symmetry_space_group_name_H-M "P B C A"
_symmetry_group_IT_number 61
_symmetry_cell_setting 'orthorhombic'
loop_
_space_group_symop_operation_xyz
x,y,z
1/2-x,-y,1/2+z
1/2+x,1/2-y,-z
-x,1/2+y,1/2-z
-x,-y,-z
1/2+x,y,1/2-z
1/2-x,1/2+y,z
x,1/2-y,1/2+z
loop_
_atom_site_type_symbol
_atom_site_label
_atom_site_fract_x
_atom_site_fract_y
_atom_site_fract_z
Si Si1 0.722834 0.538888 0.747423
Si Si2 0.936332 0.351498 0.343496
Si Si3 0.020843 0.720845 0.316808
Si Si4 0.704069 0.786717 0.454755
Si Si5 0.260998 0.998323 0.503082
Si Si6 0.395002 0.003415 0.340670
Si Si7 0.318098 0.641714 0.151179
Si Si8 0.644736 0.859650 0.082183
O O1 0.659641 0.597741 0.812811
O O2 0.833367 0.542673 0.735027
O O3 0.705219 0.423478 0.767539
O O4 0.682435 0.585232 0.663363
O O5 0.965713 0.271690 0.273804
O O6 0.903930 0.304970 0.431116
O O7 0.014679 0.435099 0.351661
O O8 0.077263 0.617217 0.323184
O O9 0.055981 0.800909 0.384978
O O10 0.916046 0.691661 0.334968
O O11 0.753739 0.889839 0.469720
O O12 0.745791 0.724054 0.378565
O O13 0.708855 0.724633 0.540281
O O14 0.329713 0.000380 0.422915
O O15 0.312958 0.935327 0.574097
O O16 0.161690 0.945758 0.485932
#
# Coordination Sequence:
#
# PCOD9460000 Si02
#       8
#     8   8   8   8   8   8   8   8
#     4  10  21  42  61  92 130 165 211 273 318 369
#     4  11  24  38  62  96 124 168 223 262 324 379
#     4  11  22  40  61  94 126 167 217 264 315 390
#     4  11  21  40  65  92 125 169 213 265 322 387
#     4  10  21  40  64  94 124 167 213 262 327 376
#     4  11  22  40  67  90 127 169 213 270 315 385
#     4  11  23  39  66  94 128 168 216 262 325 386
#     4   9  22  39  63  89 130 165 209 265 323 377
#
# _framework density 20.468589000000001
#
# number of rings (size 3 to 8) (size 9 to 14) (size 15 to 20)
#    0.000    1.500    3.750    0.750    3.500    1.000 
#    2.250    0.625    0.000    0.000    0.000    0.000 
#    0.000    0.000    0.000    0.000    0.000    0.000 
#
# Total GULP energy -356331.673429 kJ/mol
# GULP energy per Si atom -5567.682397 kJ/mol
# Density = 2.042200 g / cm^3
# Si number density = 20.468589 Si / 1000 Ang^3
#
#
#
# Elastic Constant Matrix: (Units=GPa)
#
#
# Indices 1 2 3 4 5 6 
#
# 1 63.0864 40.9883 29.9409 0.0000 0.0000 0.0000
# 2 40.9883 138.9769 39.9207 0.0000 0.0000 0.0000
# 3 29.9409 39.9207 49.1594 0.0000 0.0000 0.0000
# 4 0.0000 0.0000 0.0000 -44.4652 0.0000 0.0000
# 5 0.0000 0.0000 0.0000 0.0000 15.8815 0.0000
# 6 0.0000 0.0000 0.0000 0.0000 0.0000 -17.4837
#
#
#
# Elastic Compliance Matrix: (Units=1/GPa)
#
#
# Indices 1 2 3 4 5 6 
#
# 1 0.023673 -0.003704 -0.011410 0.000000 0.000000 0.000000
# 2 -0.003704 0.009964 -0.005835 0.000000 0.000000 0.000000
# 3 -0.011410 -0.005835 0.032030 0.000000 0.000000 0.000000
# 4 0.000000 0.000000 0.000000 -0.022490 0.000000 0.000000
# 5 0.000000 0.000000 0.000000 0.000000 0.062966 0.000000
# 6 0.000000 0.000000 0.000000 0.000000 0.000000 -0.057196
#
#
# Mechanical properties :
#
#
# Convention : Reuss Voigt Hill
#
# Bulk Modulus (GPa) = 42.07385 52.54694 47.31040
# Shear Modulus (GPa) = 50.62209 0.14471 25.38340
#
# Velocity S-wave (km/s) = 4.97848 0.26618 3.52535
# Velocity P-wave (km/s) = 7.32441 5.08155 6.30354
#
# Compressibility (1/GPa) = 0.02376773
#
# Stress axis : x y z
#
# Youngs Moduli (GPa) = 42.24148 100.35963 31.22060
#
# Poissons Ratio (x) = 0.37178 0.35623
# Poissons Ratio (y) = 0.15648 0.18218
# Poissons Ratio (z) = 0.48198 0.58563
#
# Static dielectric constant tensor:
#      x y z
#    x 1.706380 0.000000 0.000000 
#    y 0.000000 1.770190 0.000000 
#    z 0.000000 0.000000 1.841330 
# 
# From -- ./inp_files/9552.got.cif
#   From: 2010.05.17/outbox.cif.g08.bks.cpg/sg61_5_cif.got.tgz:9552.got - 2010.06.03 15:17:17.
