data_PCOD9460150
_publ_section_title
;
Structure prediction by ZEFSAII (Michael W. Deem and Ramdas Pophale) SiO2 
 PCOD9460150
Probable space group: P B C A
;
_chemical_formula_sum "Si O2"
_cell_formula_units_Z 32
_cell_length_a 8.052224
_cell_length_b 14.189941
_cell_length_c 11.254231
_cell_angle_alpha 90.000000
_cell_angle_beta 90.000000
_cell_angle_gamma 90.000000
_cell_volume 1285.915001
_symmetry_space_group_name_H-M "P B C A"
_symmetry_group_IT_number 61
_symmetry_cell_setting 'orthorhombic'
loop_
_space_group_symop_operation_xyz
x,y,z
1/2-x,-y,1/2+z
1/2+x,1/2-y,-z
-x,1/2+y,1/2-z
-x,-y,-z
1/2+x,y,1/2-z
1/2-x,1/2+y,z
x,1/2-y,1/2+z
loop_
_atom_site_type_symbol
_atom_site_label
_atom_site_fract_x
_atom_site_fract_y
_atom_site_fract_z
Si Si1 0.228695 0.364209 0.524853
Si Si2 0.639980 0.682064 0.086234
Si Si3 0.678486 0.437182 0.418928
Si Si4 0.354209 0.357219 0.290497
O O1 0.324232 0.264909 0.512121
O O2 0.329804 0.450474 0.579612
O O3 0.211209 0.388140 0.383831
O O4 0.047430 0.353329 0.579237
O O5 0.771975 0.603401 0.048306
O O6 0.660379 0.743163 0.206367
O O7 0.521020 0.387629 0.359076
O O8 0.828347 0.406794 0.332893
#
# Coordination Sequence:
#
# PCOD9460150 Si02
#       4
#     8   8   8   8
#     4  10  22  43  67  94 134 169 215 273 320 387
#     4  10  21  44  63  94 130 172 216 267 323 381
#     4  12  22  43  66  96 131 172 218 268 331 386
#     4  10  23  41  62  94 130 164 222 265 313 401
#
# _framework density 24.885003999999999
#
# number of rings (size 3 to 8) (size 9 to 14) (size 15 to 20)
#    1.500    0.000    2.500    3.000    0.000    0.000 
#    9.000    0.000    0.000    0.000    0.000    0.000 
#    0.000    0.000    0.000    0.000    0.000    0.000 
#
# Total GULP energy -178526.819675 kJ/mol
# GULP energy per Si atom -5578.963115 kJ/mol
# Density = 2.482836 g / cm^3
# Si number density = 24.885004 Si / 1000 Ang^3
#
#
#
# Elastic Constant Matrix: (Units=GPa)
#
#
# Indices 1 2 3 4 5 6 
#
# 1 90.1564 5.2407 -8.5628 0.0000 0.0000 0.0000
# 2 5.2407 113.5051 -2.2282 0.0000 0.0000 0.0000
# 3 -8.5628 -2.2282 32.4527 0.0000 0.0000 0.0000
# 4 0.0000 0.0000 0.0000 21.8749 0.0000 0.0000
# 5 0.0000 0.0000 0.0000 0.0000 14.1655 0.0000
# 6 0.0000 0.0000 0.0000 0.0000 0.0000 29.5638
#
#
#
# Elastic Compliance Matrix: (Units=1/GPa)
#
#
# Indices 1 2 3 4 5 6 
#
# 1 0.011402 -0.000468 0.002976 0.000000 0.000000 0.000000
# 2 -0.000468 0.008841 0.000484 0.000000 0.000000 0.000000
# 3 0.002976 0.000484 0.031633 0.000000 0.000000 0.000000
# 4 0.000000 0.000000 0.000000 0.045715 0.000000 0.000000
# 5 0.000000 0.000000 0.000000 0.000000 0.070594 0.000000
# 6 0.000000 0.000000 0.000000 0.000000 0.000000 0.033825
#
#
# Mechanical properties :
#
#
# Convention : Reuss Voigt Hill
#
# Bulk Modulus (GPa) = 17.28334 25.00152 21.14243
# Shear Modulus (GPa) = 23.22210 29.23181 26.22695
#
# Velocity S-wave (km/s) = 3.05811 3.43107 3.24994
# Velocity P-wave (km/s) = 4.40792 5.07592 4.75367
#
# Compressibility (1/GPa) = 0.05785918
#
# Stress axis : x y z
#
# Youngs Moduli (GPa) = 87.70612 113.10587 31.61295
#
# Poissons Ratio (x) = 0.05293 -0.09409
# Poissons Ratio (y) = 0.04105 -0.01529
# Poissons Ratio (z) = -0.26104 -0.05469
#
# Static dielectric constant tensor:
#      x y z
#    x 1.975490 0.000000 0.000000 
#    y 0.000000 2.002320 0.000000 
#    z 0.000000 0.000000 2.073000 
# 
# From -- ./inp_files/1990.got.cif
#   From: 2010.05.17/outbox.cif.g08.bks.cpg/sg61_1_cif.got.tgz:1990.got - 2010.06.03 15:17:17.
