data_PCOD9460602
_publ_section_title
;
Structure prediction by ZEFSAII (Michael W. Deem and Ramdas Pophale) SiO2 
 PCOD9460602
Probable space group: P B C A
;
_chemical_formula_sum "Si O2"
_cell_formula_units_Z 48
_cell_length_a 10.371376
_cell_length_b 10.851003
_cell_length_c 18.522721
_cell_angle_alpha 90.000000
_cell_angle_beta 90.000000
_cell_angle_gamma 90.000000
_cell_volume 2084.543911
_symmetry_space_group_name_H-M "P B C A"
_symmetry_group_IT_number 61
_symmetry_cell_setting 'orthorhombic'
loop_
_space_group_symop_operation_xyz
x,y,z
1/2-x,-y,1/2+z
1/2+x,1/2-y,-z
-x,1/2+y,1/2-z
-x,-y,-z
1/2+x,y,1/2-z
1/2-x,1/2+y,z
x,1/2-y,1/2+z
loop_
_atom_site_type_symbol
_atom_site_label
_atom_site_fract_x
_atom_site_fract_y
_atom_site_fract_z
Si Si1 0.339958 0.589791 0.193534
Si Si2 0.511209 0.625818 0.545501
Si Si3 0.218577 0.350962 0.147084
Si Si4 0.989235 0.262012 0.408878
Si Si5 0.660404 0.461838 0.639747
Si Si6 0.935352 0.483125 0.580629
O O1 0.227063 0.497871 0.163040
O O2 0.325461 0.738454 0.198947
O O3 0.343555 0.536983 0.274131
O O4 0.459433 0.568998 0.137874
O O5 0.500000 0.500000 0.500000
O O6 0.373692 0.659326 0.578311
O O7 0.550998 0.732643 0.491284
O O8 0.608276 0.591334 0.608878
O O9 0.362488 0.307755 0.130513
O O10 0.087480 0.373241 0.401290
O O11 0.055434 0.141367 0.379403
O O12 0.795008 0.427925 0.599548
O O13 0.000000 0.500000 0.500000
#
# Coordination Sequence:
#
# PCOD9460602 Si02
#       6
#     8   8   8   8   8   8
#     4  11  27  46  75 108 154 201 252 325 390 469
#     4  10  23  43  75 102 145 196 250 315 383 461
#     4  11  25  47  75 105 153 198 257 313 393 458
#     4  10  25  43  73 106 142 193 257 314 384 469
#     4  11  27  45  73 108 151 198 259 311 400 472
#     4  11  27  46  72 110 151 197 262 327 381 460
#
# _framework density 23.026619
#
# number of rings (size 3 to 8) (size 9 to 14) (size 15 to 20)
#    0.000    1.333    0.000    3.000   21.000    2.667 
#    0.000    0.000    0.000    0.000    0.000    0.000 
#    0.000    0.000    0.000    0.000    0.000    0.000 
#
# Total GULP energy -267479.558707 kJ/mol
# GULP energy per Si atom -5572.490806 kJ/mol
# Density = 2.297421 g / cm^3
# Si number density = 23.026619 Si / 1000 Ang^3
#
#
#
# Elastic Constant Matrix: (Units=GPa)
#
#
# Indices 1 2 3 4 5 6 
#
# 1 93.4014 7.9868 27.4760 0.0000 0.0000 0.0000
# 2 7.9868 68.0751 -19.4627 0.0000 0.0000 0.0000
# 3 27.4760 -19.4627 84.0871 0.0000 0.0000 0.0000
# 4 0.0000 0.0000 0.0000 27.0589 0.0000 0.0000
# 5 0.0000 0.0000 0.0000 0.0000 10.3453 0.0000
# 6 0.0000 0.0000 0.0000 0.0000 0.0000 20.8070
#
#
#
# Elastic Compliance Matrix: (Units=1/GPa)
#
#
# Indices 1 2 3 4 5 6 
#
# 1 0.012317 -0.002780 -0.004668 0.000000 0.000000 0.000000
# 2 -0.002780 0.016358 0.004694 0.000000 0.000000 0.000000
# 3 -0.004668 0.004694 0.014504 0.000000 0.000000 0.000000
# 4 0.000000 0.000000 0.000000 0.036956 0.000000 0.000000
# 5 0.000000 0.000000 0.000000 0.000000 0.096662 0.000000
# 6 0.000000 0.000000 0.000000 0.000000 0.000000 0.048061
#
#
# Mechanical properties :
#
#
# Convention : Reuss Voigt Hill
#
# Bulk Modulus (GPa) = 26.54434 30.84042 28.69238
# Shear Modulus (GPa) = 20.58259 26.94647 23.76453
#
# Velocity S-wave (km/s) = 2.99299 3.42458 3.21603
# Velocity P-wave (km/s) = 4.84734 5.39068 5.12621
#
# Compressibility (1/GPa) = 0.03767281
#
# Stress axis : x y z
#
# Youngs Moduli (GPa) = 81.18577 61.13238 68.94473
#
# Poissons Ratio (x) = 0.16993 0.32185
# Poissons Ratio (y) = 0.22568 -0.32366
# Poissons Ratio (z) = 0.37899 -0.28699
#
# Static dielectric constant tensor:
#      x y z
#    x 1.869810 0.000000 0.000000 
#    y 0.000000 1.923920 0.000000 
#    z 0.000000 0.000000 2.011780 
# 
# From -- ./inp_files/9159.got.cif
#   From: 2010.05.17/outbox.cif.g08.bks.cpg/sg61_5_cif.got.tgz:9159.got - 2010.06.03 15:17:17.
