data_PCOD9460235
_publ_section_title
;
Structure prediction by ZEFSAII (Michael W. Deem and Ramdas Pophale) SiO2 
 PCOD9460235
Probable space group: P B C A
;
_chemical_formula_sum "Si O2"
_cell_formula_units_Z 64
_cell_length_a 18.406735
_cell_length_b 10.919954
_cell_length_c 13.167797
_cell_angle_alpha 90.000000
_cell_angle_beta 90.000000
_cell_angle_gamma 90.000000
_cell_volume 2646.736408
_symmetry_space_group_name_H-M "P B C A"
_symmetry_group_IT_number 61
_symmetry_cell_setting 'orthorhombic'
loop_
_space_group_symop_operation_xyz
x,y,z
1/2-x,-y,1/2+z
1/2+x,1/2-y,-z
-x,1/2+y,1/2-z
-x,-y,-z
1/2+x,y,1/2-z
1/2-x,1/2+y,z
x,1/2-y,1/2+z
loop_
_atom_site_type_symbol
_atom_site_label
_atom_site_fract_x
_atom_site_fract_y
_atom_site_fract_z
Si Si1 0.011120 0.944571 0.337091
Si Si2 0.858123 0.236337 0.419679
Si Si3 0.601100 0.051603 0.353727
Si Si4 0.229922 0.969883 0.257352
Si Si5 0.469068 0.331023 0.931906
Si Si6 0.195306 0.209641 0.628225
Si Si7 0.635726 0.019236 0.038792
Si Si8 0.618708 0.917146 0.751191
O O1 0.052485 0.987968 0.233888
O O2 0.053846 0.032165 0.417576
O O3 0.928627 0.982201 0.311758
O O4 0.017401 0.804735 0.379397
O O5 0.918699 0.320978 0.470123
O O6 0.771949 0.252795 0.422246
O O7 0.888369 0.211529 0.307774
O O8 0.864655 0.107678 0.478954
O O9 0.675601 0.974264 0.340244
O O10 0.544071 0.094193 0.439659
O O11 0.640143 0.184446 0.338494
O O12 0.186526 0.994476 0.361191
O O13 0.295486 0.064900 0.250987
O O14 0.276958 0.849326 0.234804
O O15 0.416403 0.404273 0.856836
O O16 0.161733 0.123999 0.538427
#
# Coordination Sequence:
#
# PCOD9460235 Si02
#       8
#     8   8   8   8   8   8   8   8
#     4   9  22  39  63  92 125 166 213 254 318 379
#     4  11  24  38  63  96 118 169 216 254 320 383
#     4  10  22  39  62  96 122 169 216 254 324 384
#     4  11  23  41  65  89 130 167 209 271 315 384
#     4  10  23  41  65  89 133 166 210 272 314 376
#     4  12  22  39  64  93 130 164 210 271 320 372
#     4  10  23  39  61  92 122 164 213 260 313 381
#     4  11  21  41  63  96 124 167 214 252 323 386
#
# _framework density 24.180723
#
# number of rings (size 3 to 8) (size 9 to 14) (size 15 to 20)
#    0.000    1.500    2.500    1.500    7.000    3.000 
#    0.000    0.625    2.750    0.000    0.000    0.000 
#    0.000    0.000    0.000    0.000    0.000    0.000 
#
# Total GULP energy -356466.730012 kJ/mol
# GULP energy per Si atom -5569.792656 kJ/mol
# Density = 2.412569 g / cm^3
# Si number density = 24.180723 Si / 1000 Ang^3
#
#
#
# Elastic Constant Matrix: (Units=GPa)
#
#
# Indices 1 2 3 4 5 6 
#
# 1 129.9992 16.7103 35.8513 0.0000 0.0000 0.0000
# 2 16.7103 49.3803 8.1558 0.0000 0.0000 0.0000
# 3 35.8513 8.1558 65.8537 0.0000 0.0000 0.0000
# 4 0.0000 0.0000 0.0000 25.2153 0.0000 0.0000
# 5 0.0000 0.0000 0.0000 0.0000 32.9296 0.0000
# 6 0.0000 0.0000 0.0000 0.0000 0.0000 46.8506
#
#
#
# Elastic Compliance Matrix: (Units=1/GPa)
#
#
# Indices 1 2 3 4 5 6 
#
# 1 0.009314 -0.002363 -0.004778 0.000000 0.000000 0.000000
# 2 -0.002363 0.021273 -0.001348 0.000000 0.000000 0.000000
# 3 -0.004778 -0.001348 0.017953 0.000000 0.000000 0.000000
# 4 0.000000 0.000000 0.000000 0.039659 0.000000 0.000000
# 5 0.000000 0.000000 0.000000 0.000000 0.030368 0.000000
# 6 0.000000 0.000000 0.000000 0.000000 0.000000 0.021344
#
#
# Mechanical properties :
#
#
# Convention : Reuss Voigt Hill
#
# Bulk Modulus (GPa) = 31.68322 40.74087 36.21204
# Shear Modulus (GPa) = 29.86688 33.30014 31.58351
#
# Velocity S-wave (km/s) = 3.51829 3.71500 3.61798
# Velocity P-wave (km/s) = 5.44386 5.94026 5.69747
#
# Compressibility (1/GPa) = 0.03156245
#
# Stress axis : x y z
#
# Youngs Moduli (GPa) = 107.36882 47.00751 55.70014
#
# Poissons Ratio (x) = 0.11106 0.26613
# Poissons Ratio (y) = 0.25367 0.07510
# Poissons Ratio (z) = 0.51299 0.06338
#
# Static dielectric constant tensor:
#      x y z
#    x 1.915140 0.000000 0.000000 
#    y 0.000000 2.053610 0.000000 
#    z 0.000000 0.000000 1.969460 
# 
# From -- ./inp_files/8214.got.cif
#   From: 2010.05.17/outbox.cif.g08.bks.cpg/sg61_5_cif.got.tgz:8214.got - 2010.06.03 15:17:17.
