data_PCOD9460515
_publ_section_title
;
Structure prediction by ZEFSAII (Michael W. Deem and Ramdas Pophale) SiO2 
 PCOD9460515
Probable space group: P B C A
;
_chemical_formula_sum "Si O2"
_cell_formula_units_Z 40
_cell_length_a 12.880070
_cell_length_b 19.965123
_cell_length_c 5.847568
_cell_angle_alpha 90.000000
_cell_angle_beta 90.000000
_cell_angle_gamma 90.000000
_cell_volume 1503.714869
_symmetry_space_group_name_H-M "P B C A"
_symmetry_group_IT_number 61
_symmetry_cell_setting 'orthorhombic'
loop_
_space_group_symop_operation_xyz
x,y,z
1/2-x,-y,1/2+z
1/2+x,1/2-y,-z
-x,1/2+y,1/2-z
-x,-y,-z
1/2+x,y,1/2-z
1/2-x,1/2+y,z
x,1/2-y,1/2+z
loop_
_atom_site_type_symbol
_atom_site_label
_atom_site_fract_x
_atom_site_fract_y
_atom_site_fract_z
Si Si1 0.737389 0.221091 0.374222
Si Si2 0.745274 0.920567 0.006013
Si Si3 0.519320 0.572698 0.297404
Si Si4 0.116390 0.958016 0.126145
Si Si5 0.009074 0.718639 0.096814
O O1 0.708309 0.256469 0.616227
O O2 0.702763 0.144352 0.406240
O O3 0.864133 0.220678 0.387631
O O4 0.639498 0.933692 0.868796
O O5 0.816488 0.985072 0.998972
O O6 0.699370 0.909495 0.258295
O O7 0.450833 0.505442 0.295911
O O8 0.480337 0.639498 0.417842
O O9 0.536090 0.582972 0.024173
O O10 0.979648 0.747541 0.351485
#
# Coordination Sequence:
#
# PCOD9460515 Si02
#       5
#     8   8   8   8   8
#     4   9  20  35  61  91 121 164 213 260 315 375
#     4  11  22  39  65  88 128 164 210 262 316 383
#     4  10  23  40  62  89 127 162 210 260 312 384
#     4  11  23  40  60  95 122 167 208 257 323 374
#     4   9  19  36  61  90 120 164 210 258 315 373
#
# _framework density 26.600788999999999
#
# number of rings (size 3 to 8) (size 9 to 14) (size 15 to 20)
#    0.000    2.000    2.000    0.600   14.000    0.000 
#    0.000    2.000    0.000    0.000    0.000    0.000 
#    0.000    0.000    0.000    0.000    0.000    0.000 
#
# Total GULP energy -223363.435227 kJ/mol
# GULP energy per Si atom -5584.085881 kJ/mol
# Density = 2.654024 g / cm^3
# Si number density = 26.600789 Si / 1000 Ang^3
#
#
#
# Elastic Constant Matrix: (Units=GPa)
#
#
# Indices 1 2 3 4 5 6 
#
# 1 65.8396 6.1329 29.5252 0.0000 0.0000 0.0000
# 2 6.1329 69.7294 43.6247 0.0000 0.0000 0.0000
# 3 29.5252 43.6247 130.6294 0.0000 0.0000 0.0000
# 4 0.0000 0.0000 0.0000 71.0277 0.0000 0.0000
# 5 0.0000 0.0000 0.0000 0.0000 65.8348 0.0000
# 6 0.0000 0.0000 0.0000 0.0000 0.0000 20.2357
#
#
#
# Elastic Compliance Matrix: (Units=1/GPa)
#
#
# Indices 1 2 3 4 5 6 
#
# 1 0.016974 0.001147 -0.004219 0.000000 0.000000 0.000000
# 2 0.001147 0.018206 -0.006339 0.000000 0.000000 0.000000
# 3 -0.004219 -0.006339 0.010726 0.000000 0.000000 0.000000
# 4 0.000000 0.000000 0.000000 0.014079 0.000000 0.000000
# 5 0.000000 0.000000 0.000000 0.000000 0.015190 0.000000
# 6 0.000000 0.000000 0.000000 0.000000 0.000000 0.049418
#
#
# Mechanical properties :
#
#
# Convention : Reuss Voigt Hill
#
# Bulk Modulus (GPa) = 36.92448 47.19599 42.06023
# Shear Modulus (GPa) = 32.79903 43.88070 38.33986
#
# Velocity S-wave (km/s) = 3.51523 4.06593 3.80057
# Velocity P-wave (km/s) = 5.51243 6.31057 5.92496
#
# Compressibility (1/GPa) = 0.02708230
#
# Stress axis : x y z
#
# Youngs Moduli (GPa) = 58.91436 54.92584 93.23113
#
# Poissons Ratio (x) = -0.06300 0.39339
# Poissons Ratio (y) = -0.06757 0.59103
# Poissons Ratio (z) = 0.24859 0.34820
#
# Static dielectric constant tensor:
#      x y z
#    x 2.103430 0.000000 0.000000 
#    y 0.000000 1.975070 0.000000 
#    z 0.000000 0.000000 2.375350 
# 
# From -- ./inp_files/722.got.cif
#   From: 2010.05.17/outbox.cif.g08.bks.cpg/sg61_1_cif.got.tgz:722.got - 2010.06.03 15:17:17.
