data_PCOD9460932
_publ_section_title
;
Structure prediction by ZEFSAII (Michael W. Deem and Ramdas Pophale) SiO2 
 PCOD9460932
Probable space group: P B C A
;
_chemical_formula_sum "Si O2"
_cell_formula_units_Z 48
_cell_length_a 8.196016
_cell_length_b 17.814159
_cell_length_c 13.550531
_cell_angle_alpha 90.000000
_cell_angle_beta 90.000000
_cell_angle_gamma 90.000000
_cell_volume 1978.447070
_symmetry_space_group_name_H-M "P B C A"
_symmetry_group_IT_number 61
_symmetry_cell_setting 'orthorhombic'
loop_
_space_group_symop_operation_xyz
x,y,z
1/2-x,-y,1/2+z
1/2+x,1/2-y,-z
-x,1/2+y,1/2-z
-x,-y,-z
1/2+x,y,1/2-z
1/2-x,1/2+y,z
x,1/2-y,1/2+z
loop_
_atom_site_type_symbol
_atom_site_label
_atom_site_fract_x
_atom_site_fract_y
_atom_site_fract_z
Si Si1 0.320724 0.073738 0.898564
Si Si2 0.161124 0.644967 0.218622
Si Si3 0.512122 0.332678 0.906234
Si Si4 0.301225 0.067298 0.521608
Si Si5 0.483419 0.683097 0.474511
Si Si6 0.651320 0.033240 0.783615
O O1 0.367651 0.143296 0.966191
O O2 0.485005 0.053149 0.838693
O O3 0.184402 0.080136 0.814799
O O4 0.277607 0.003576 0.967281
O O5 0.129066 0.682198 0.324433
O O6 0.329910 0.659173 0.162487
O O7 0.149314 0.555526 0.237734
O O8 0.025873 0.671940 0.139791
O O9 0.466627 0.407182 0.968339
O O10 0.528653 0.266278 0.984212
O O11 0.294891 0.049921 0.637210
O O12 0.178026 0.136957 0.503323
#
# Coordination Sequence:
#
# PCOD9460932 Si02
#       6
#     8   8   8   8   8   8
#     4  11  22  40  67  93 125 171 217 269 312 382
#     4  12  23  43  66  94 129 172 211 265 324 385
#     4  12  27  39  68  95 134 169 214 262 328 392
#     4  11  22  44  66  95 127 173 216 267 318 380
#     4  11  24  45  64  93 132 171 212 267 324 381
#     4  11  22  40  69  94 125 165 222 266 318 375
#
# _framework density 24.261454000000001
#
# number of rings (size 3 to 8) (size 9 to 14) (size 15 to 20)
#    0.000    0.667    5.000    4.000    0.000    6.000 
#    0.000    0.000    0.000    0.000    0.000    0.000 
#    0.000    0.000    0.000    0.000    0.000    0.000 
#
# Total GULP energy -269061.492063 kJ/mol
# GULP energy per Si atom -5605.447751 kJ/mol
# Density = 2.420623 g / cm^3
# Si number density = 24.261454 Si / 1000 Ang^3
#
#
#
# Elastic Constant Matrix: (Units=GPa)
#
#
# Indices 1 2 3 4 5 6 
#
# 1 75.4191 7.2798 -0.8819 0.0000 0.0000 0.0000
# 2 7.2798 46.9309 5.4116 0.0000 0.0000 0.0000
# 3 -0.8819 5.4116 125.1217 0.0000 0.0000 0.0000
# 4 0.0000 0.0000 0.0000 27.8771 0.0000 0.0000
# 5 0.0000 0.0000 0.0000 0.0000 39.3480 0.0000
# 6 0.0000 0.0000 0.0000 0.0000 0.0000 9.5522
#
#
#
# Elastic Compliance Matrix: (Units=1/GPa)
#
#
# Indices 1 2 3 4 5 6 
#
# 1 0.013465 -0.002110 0.000186 0.000000 0.000000 0.000000
# 2 -0.002110 0.021745 -0.000955 0.000000 0.000000 0.000000
# 3 0.000186 -0.000955 0.008035 0.000000 0.000000 0.000000
# 4 0.000000 0.000000 0.000000 0.035872 0.000000 0.000000
# 5 0.000000 0.000000 0.000000 0.000000 0.025414 0.000000
# 6 0.000000 0.000000 0.000000 0.000000 0.000000 0.104688
#
#
# Mechanical properties :
#
#
# Convention : Reuss Voigt Hill
#
# Bulk Modulus (GPa) = 26.67613 30.12117 28.39865
# Shear Modulus (GPa) = 21.98062 31.06628 26.52345
#
# Velocity S-wave (km/s) = 3.01323 3.58226 3.31000
# Velocity P-wave (km/s) = 4.80887 5.43620 5.13213
#
# Compressibility (1/GPa) = 0.03748670
#
# Stress axis : x y z
#
# Youngs Moduli (GPa) = 74.26610 45.98673 124.45777
#
# Poissons Ratio (x) = 0.09704 -0.02317
# Poissons Ratio (y) = 0.15671 0.11890
# Poissons Ratio (z) = -0.01383 0.04393
#
# Static dielectric constant tensor:
#      x y z
#    x 2.057730 0.000000 0.000000 
#    y 0.000000 1.840890 0.000000 
#    z 0.000000 0.000000 1.896790 
# 
# From -- ./inp_files/3839.got.cif
#   From: 2010.05.17/outbox.cif.g08.bks.cpg/sg61_2_cif.got.tgz:3839.got - 2010.06.03 15:17:17.
