data_PCOD9460136
_publ_section_title
;
Structure prediction by ZEFSAII (Michael W. Deem and Ramdas Pophale) SiO2 
 PCOD9460136
Probable space group: P B C A
;
_chemical_formula_sum "Si O2"
_cell_formula_units_Z 64
_cell_length_a 20.951066
_cell_length_b 17.639128
_cell_length_c 9.083297
_cell_angle_alpha 90.000000
_cell_angle_beta 90.000000
_cell_angle_gamma 90.000000
_cell_volume 3356.809931
_symmetry_space_group_name_H-M "P B C A"
_symmetry_group_IT_number 61
_symmetry_cell_setting 'orthorhombic'
loop_
_space_group_symop_operation_xyz
x,y,z
1/2-x,-y,1/2+z
1/2+x,1/2-y,-z
-x,1/2+y,1/2-z
-x,-y,-z
1/2+x,y,1/2-z
1/2-x,1/2+y,z
x,1/2-y,1/2+z
loop_
_atom_site_type_symbol
_atom_site_label
_atom_site_fract_x
_atom_site_fract_y
_atom_site_fract_z
Si Si1 0.434995 0.735569 0.681615
Si Si2 0.432862 0.917937 0.317789
Si Si3 0.424119 0.374327 0.082371
Si Si4 0.903724 0.082080 0.259179
Si Si5 0.646247 0.377922 0.904083
Si Si6 0.827283 0.019885 0.745505
Si Si7 0.526638 0.713182 0.423136
Si Si8 0.223913 0.558281 0.076698
O O1 0.408542 0.653409 0.722993
O O2 0.386885 0.796915 0.614661
O O3 0.498391 0.719573 0.585686
O O4 0.463063 0.773383 0.827731
O O5 0.504670 0.901389 0.372479
O O6 0.389091 0.920775 0.462673
O O7 0.428834 0.996305 0.232936
O O8 0.373868 0.417778 0.184645
O O9 0.425779 0.283665 0.100853
O O10 0.412927 0.392233 0.909991
O O11 0.941537 0.136652 0.369386
O O12 0.830567 0.081699 0.309600
O O13 0.641016 0.435931 0.765689
O O14 0.721546 0.377229 0.939005
O O15 0.806618 0.037556 0.579803
O O16 0.764806 0.010098 0.850021
#
# Coordination Sequence:
#
# PCOD9460136 Si02
#       8
#     8   8   8   8   8   8   8   8
#     4  11  22  43  65 100 134 170 222 280 340 404
#     4  11  23  40  71 102 132 177 224 284 349 410
#     4  11  22  40  69  97 130 180 219 277 356 401
#     4  12  23  41  67  97 135 173 230 276 344 408
#     4  10  21  43  68  91 137 183 215 275 346 392
#     4  10  22  40  71  93 135 175 226 277 326 411
#     4  11  24  39  66  97 139 166 217 287 344 403
#     4  10  24  42  64  98 131 179 231 271 327 407
#
# _framework density 19.065719000000001
#
# number of rings (size 3 to 8) (size 9 to 14) (size 15 to 20)
#    0.750    0.500    5.000    1.875    5.250    1.500 
#    0.000    3.750    0.000    0.000    0.000    0.000 
#    0.000    0.000    0.000    0.000    0.000    0.000 
#
# Total GULP energy -356886.766291 kJ/mol
# GULP energy per Si atom -5576.355723 kJ/mol
# Density = 1.902232 g / cm^3
# Si number density = 19.065719 Si / 1000 Ang^3
#
#
#
# Elastic Constant Matrix: (Units=GPa)
#
#
# Indices 1 2 3 4 5 6 
#
# 1 67.0775 56.1423 22.5009 0.0000 0.0000 0.0000
# 2 56.1423 121.3408 32.1862 0.0000 0.0000 0.0000
# 3 22.5009 32.1862 56.6847 0.0000 0.0000 0.0000
# 4 0.0000 0.0000 0.0000 26.5239 0.0000 0.0000
# 5 0.0000 0.0000 0.0000 0.0000 23.9511 0.0000
# 6 0.0000 0.0000 0.0000 0.0000 0.0000 19.7993
#
#
#
# Elastic Compliance Matrix: (Units=1/GPa)
#
#
# Indices 1 2 3 4 5 6 
#
# 1 0.025063 -0.010546 -0.003961 0.000000 0.000000 0.000000
# 2 -0.010546 0.014140 -0.003843 0.000000 0.000000 0.000000
# 3 -0.003961 -0.003843 0.021396 0.000000 0.000000 0.000000
# 4 0.000000 0.000000 0.000000 0.037702 0.000000 0.000000
# 5 0.000000 0.000000 0.000000 0.000000 0.041752 0.000000
# 6 0.000000 0.000000 0.000000 0.000000 0.000000 0.050507
#
#
# Mechanical properties :
#
#
# Convention : Reuss Voigt Hill
#
# Bulk Modulus (GPa) = 41.84050 51.86240 46.85145
# Shear Modulus (GPa) = 21.25630 23.00644 22.13137
#
# Velocity S-wave (km/s) = 3.34263 3.47751 3.41074
# Velocity P-wave (km/s) = 6.07376 6.58674 6.33544
#
# Compressibility (1/GPa) = 0.02390029
#
# Stress axis : x y z
#
# Youngs Moduli (GPa) = 39.89902 70.72207 46.73858
#
# Poissons Ratio (x) = 0.74581 0.18512
# Poissons Ratio (y) = 0.42076 0.17960
# Poissons Ratio (z) = 0.15803 0.27176
#
# Static dielectric constant tensor:
#      x y z
#    x 1.654300 0.000000 0.000000 
#    y 0.000000 1.680640 0.000000 
#    z 0.000000 0.000000 1.663890 
# 
# From -- ./inp_files/4064.got.cif
#   From: 2010.05.17/outbox.cif.g08.bks.cpg/sg61_3_cif.got.tgz:4064.got - 2010.06.03 15:17:17.
