data_PCOD9460259
_publ_section_title
;
Structure prediction by ZEFSAII (Michael W. Deem and Ramdas Pophale) SiO2 
 PCOD9460259
Probable space group: P B C A
;
_chemical_formula_sum "Si O2"
_cell_formula_units_Z 40
_cell_length_a 7.932726
_cell_length_b 10.849395
_cell_length_c 20.244057
_cell_angle_alpha 90.000000
_cell_angle_beta 90.000000
_cell_angle_gamma 90.000000
_cell_volume 1742.310390
_symmetry_space_group_name_H-M "P B C A"
_symmetry_group_IT_number 61
_symmetry_cell_setting 'orthorhombic'
loop_
_space_group_symop_operation_xyz
x,y,z
1/2-x,-y,1/2+z
1/2+x,1/2-y,-z
-x,1/2+y,1/2-z
-x,-y,-z
1/2+x,y,1/2-z
1/2-x,1/2+y,z
x,1/2-y,1/2+z
loop_
_atom_site_type_symbol
_atom_site_label
_atom_site_fract_x
_atom_site_fract_y
_atom_site_fract_z
Si Si1 0.080444 0.288817 0.619503
Si Si2 0.622656 0.634670 0.916857
Si Si3 0.420905 0.029561 0.842656
Si Si4 0.223818 0.480119 0.707395
Si Si5 0.171583 0.519194 0.449368
O O1 0.258727 0.255139 0.583763
O O2 0.124790 0.357153 0.687874
O O3 0.982393 0.164416 0.636429
O O4 0.959427 0.377108 0.577193
O O5 0.649030 0.580747 0.843589
O O6 0.424974 0.611199 0.934090
O O7 0.703342 0.548127 0.974251
O O8 0.584330 0.962437 0.814185
O O9 0.290708 0.024655 0.781991
O O10 0.337133 0.970433 0.906228
#
# Coordination Sequence:
#
# PCOD9460259 Si02
#       5
#     8   8   8   8   8
#     4  10  23  40  62  88 123 168 203 249 317 364
#     4   9  21  40  61  89 125 159 203 253 299 366
#     4  11  24  41  63  90 123 158 205 258 304 365
#     4  10  22  40  61  90 123 159 207 257 307 370
#     4  10  22  40  63  94 126 160 208 256 303 367
#
# _framework density 22.958023000000001
#
# number of rings (size 3 to 8) (size 9 to 14) (size 15 to 20)
#    0.000    2.000    0.000    2.400    0.000   17.600 
#    0.000    0.000    0.000    0.000    0.000    0.000 
#    0.000    0.000    0.000    0.000    0.000    0.000 
#
# Total GULP energy -223162.117034 kJ/mol
# GULP energy per Si atom -5579.052926 kJ/mol
# Density = 2.290577 g / cm^3
# Si number density = 22.958023 Si / 1000 Ang^3
#
#
#
# Elastic Constant Matrix: (Units=GPa)
#
#
# Indices 1 2 3 4 5 6 
#
# 1 47.2590 10.7247 -14.4204 0.0000 0.0000 0.0000
# 2 10.7247 69.6627 -0.8705 0.0000 0.0000 0.0000
# 3 -14.4204 -0.8705 66.9517 0.0000 0.0000 0.0000
# 4 0.0000 0.0000 0.0000 21.4490 0.0000 0.0000
# 5 0.0000 0.0000 0.0000 0.0000 38.5990 0.0000
# 6 0.0000 0.0000 0.0000 0.0000 0.0000 36.7762
#
#
#
# Elastic Compliance Matrix: (Units=1/GPa)
#
#
# Indices 1 2 3 4 5 6 
#
# 1 0.023497 -0.003555 0.005015 0.000000 0.000000 0.000000
# 2 -0.003555 0.014895 -0.000572 0.000000 0.000000 0.000000
# 3 0.005015 -0.000572 0.016009 0.000000 0.000000 0.000000
# 4 0.000000 0.000000 0.000000 0.046622 0.000000 0.000000
# 5 0.000000 0.000000 0.000000 0.000000 0.025907 0.000000
# 6 0.000000 0.000000 0.000000 0.000000 0.000000 0.027192
#
#
# Mechanical properties :
#
#
# Convention : Reuss Voigt Hill
#
# Bulk Modulus (GPa) = 17.80103 19.41566 18.60834
# Shear Modulus (GPa) = 29.22756 31.92746 30.57751
#
# Velocity S-wave (km/s) = 3.57191 3.73324 3.65346
# Velocity P-wave (km/s) = 4.97814 5.20175 5.09117
#
# Compressibility (1/GPa) = 0.05617653
#
# Stress axis : x y z
#
# Youngs Moduli (GPa) = 42.55895 67.13661 62.46568
#
# Poissons Ratio (x) = 0.23865 -0.31324
# Poissons Ratio (y) = 0.15129 0.03573
# Poissons Ratio (z) = -0.21342 0.03840
#
# Static dielectric constant tensor:
#      x y z
#    x 1.944130 0.000000 0.000000 
#    y 0.000000 1.905350 0.000000 
#    z 0.000000 0.000000 1.828650 
# 
# From -- ./inp_files/2142.got.cif
#   From: 2010.05.17/outbox.cif.g08.bks.cpg/sg61_2_cif.got.tgz:2142.got - 2010.06.03 15:17:17.
