data_PCOD9460505
_publ_section_title
;
Structure prediction by ZEFSAII (Michael W. Deem and Ramdas Pophale) SiO2 
 PCOD9460505
Probable space group: P B C A
;
_chemical_formula_sum "Si O2"
_cell_formula_units_Z 48
_cell_length_a 16.480370
_cell_length_b 18.542641
_cell_length_c 8.272921
_cell_angle_alpha 90.000000
_cell_angle_beta 90.000000
_cell_angle_gamma 90.000000
_cell_volume 2528.118491
_symmetry_space_group_name_H-M "P B C A"
_symmetry_group_IT_number 61
_symmetry_cell_setting 'orthorhombic'
loop_
_space_group_symop_operation_xyz
x,y,z
1/2-x,-y,1/2+z
1/2+x,1/2-y,-z
-x,1/2+y,1/2-z
-x,-y,-z
1/2+x,y,1/2-z
1/2-x,1/2+y,z
x,1/2-y,1/2+z
loop_
_atom_site_type_symbol
_atom_site_label
_atom_site_fract_x
_atom_site_fract_y
_atom_site_fract_z
Si Si1 0.502749 0.080635 0.062888
Si Si2 0.769480 0.462212 0.326500
Si Si3 0.930708 0.952300 0.915945
Si Si4 0.838497 0.658208 0.994872
Si Si5 0.180792 0.590033 0.029032
Si Si6 0.172617 0.179563 0.118254
O O1 0.529499 0.072411 0.247547
O O2 0.573505 0.122345 0.970472
O O3 0.412815 0.110574 0.039924
O O4 0.500000 0.000000 0.000000
O O5 0.852257 0.495765 0.398728
O O6 0.729992 0.393937 0.418052
O O7 0.793876 0.442801 0.144129
O O8 0.704142 0.527102 0.342801
O O9 0.890142 0.875835 0.971499
O O10 0.000000 0.000000 0.000000
O O11 0.828539 0.664829 0.189061
O O12 0.840566 0.737339 0.919293
O O13 0.238605 0.657079 0.059303
#
# Coordination Sequence:
#
# PCOD9460505 Si02
#       6
#     8   8   8   8   8   8
#     4  11  21  40  64  94 127 160 208 261 311 366
#     4  11  21  37  63  89 123 160 207 247 312 370
#     4  10  23  38  62  95 120 161 208 258 313 369
#     4  11  23  44  63  89 126 167 206 262 316 378
#     4  11  22  39  63  95 122 167 206 257 310 374
#     4  10  24  42  62  89 124 165 209 254 323 373
#
# _framework density 18.986450999999999
#
# number of rings (size 3 to 8) (size 9 to 14) (size 15 to 20)
#    0.000    1.333    3.333    3.000    7.000    1.333 
#    3.000    1.667    0.000    0.000    0.000    0.000 
#    0.000    0.000    0.000    0.000    0.000    0.000 
#
# Total GULP energy -267780.138189 kJ/mol
# GULP energy per Si atom -5578.752879 kJ/mol
# Density = 1.894324 g / cm^3
# Si number density = 18.986451 Si / 1000 Ang^3
#
#
#
# Elastic Constant Matrix: (Units=GPa)
#
#
# Indices 1 2 3 4 5 6 
#
# 1 147.9521 69.3620 33.6343 0.0000 0.0000 0.0000
# 2 69.3620 139.4388 23.8182 0.0000 0.0000 0.0000
# 3 33.6343 23.8182 41.3852 0.0000 0.0000 0.0000
# 4 0.0000 0.0000 0.0000 29.3068 0.0000 0.0000
# 5 0.0000 0.0000 0.0000 0.0000 23.2358 0.0000
# 6 0.0000 0.0000 0.0000 0.0000 0.0000 30.0422
#
#
#
# Elastic Compliance Matrix: (Units=1/GPa)
#
#
# Indices 1 2 3 4 5 6 
#
# 1 0.009928 -0.003948 -0.005796 0.000000 0.000000 0.000000
# 2 -0.003948 0.009524 -0.002272 0.000000 0.000000 0.000000
# 3 -0.005796 -0.002272 0.030181 0.000000 0.000000 0.000000
# 4 0.000000 0.000000 0.000000 0.034122 0.000000 0.000000
# 5 0.000000 0.000000 0.000000 0.000000 0.043037 0.000000
# 6 0.000000 0.000000 0.000000 0.000000 0.000000 0.033286
#
#
# Mechanical properties :
#
#
# Convention : Reuss Voigt Hill
#
# Bulk Modulus (GPa) = 39.06299 64.71166 51.88732
# Shear Modulus (GPa) = 25.95456 29.98107 27.96782
#
# Velocity S-wave (km/s) = 3.70131 3.97807 3.84218
# Velocity P-wave (km/s) = 6.23579 7.43351 6.86084
#
# Compressibility (1/GPa) = 0.02559968
#
# Stress axis : x y z
#
# Youngs Moduli (GPa) = 100.72959 105.00024 33.13298
#
# Poissons Ratio (x) = 0.41457 0.19204
# Poissons Ratio (y) = 0.39771 0.07529
# Poissons Ratio (z) = 0.58382 0.23859
#
# Static dielectric constant tensor:
#      x y z
#    x 1.623610 0.000000 0.000000 
#    y 0.000000 1.632000 0.000000 
#    z 0.000000 0.000000 1.701660 
# 
# From -- ./inp_files/2830.got.cif
#   From: 2010.05.17/outbox.cif.g08.bks.cpg/sg61_2_cif.got.tgz:2830.got - 2010.06.03 15:17:17.
