data_PCOD9460215
_publ_section_title
;
Structure prediction by ZEFSAII (Michael W. Deem and Ramdas Pophale) SiO2 
 PCOD9460215
Probable space group: P B C A
;
_chemical_formula_sum "Si O2"
_cell_formula_units_Z 40
_cell_length_a 18.112356
_cell_length_b 10.644522
_cell_length_c 8.981323
_cell_angle_alpha 90.000000
_cell_angle_beta 90.000000
_cell_angle_gamma 90.000000
_cell_volume 1731.575471
_symmetry_space_group_name_H-M "P B C A"
_symmetry_group_IT_number 61
_symmetry_cell_setting 'orthorhombic'
loop_
_space_group_symop_operation_xyz
x,y,z
1/2-x,-y,1/2+z
1/2+x,1/2-y,-z
-x,1/2+y,1/2-z
-x,-y,-z
1/2+x,y,1/2-z
1/2-x,1/2+y,z
x,1/2-y,1/2+z
loop_
_atom_site_type_symbol
_atom_site_label
_atom_site_fract_x
_atom_site_fract_y
_atom_site_fract_z
Si Si1 0.793355 0.633302 0.900268
Si Si2 0.950098 0.245156 0.308373
Si Si3 0.534987 0.372092 0.448762
Si Si4 0.920842 0.060721 0.046989
Si Si5 0.777164 0.602957 0.558975
O O1 0.882089 0.634196 0.896252
O O2 0.762642 0.622722 0.733535
O O3 0.772120 0.509009 0.992451
O O4 0.769285 0.763988 0.976522
O O5 0.021941 0.211531 0.405667
O O6 0.979574 0.331355 0.178881
O O7 0.903327 0.328101 0.425945
O O8 0.000000 0.000000 0.500000
O O9 0.578984 0.625191 0.212573
O O10 0.859588 0.953427 0.039988
O O11 0.000000 0.000000 0.000000
#
# Coordination Sequence:
#
# PCOD9460215 Si02
#       5
#     8   8   8   8   8
#     4  12  27  48  70 102 139 185 235 289 351 421
#     4  10  22  38  65 101 134 170 226 286 340 404
#     4  11  22  40  67  97 132 173 221 274 334 403
#     4  11  23  42  68 100 137 181 231 289 351 417
#     4  12  28  48  72 100 140 185 235 290 353 423
#
# _framework density 23.100349000000001
#
# number of rings (size 3 to 8) (size 9 to 14) (size 15 to 20)
#    0.000    0.800    0.000    8.400    0.000   11.200 
#    0.000    0.000    0.000    0.000    0.000    0.000 
#    0.000    0.000    0.000    0.000    0.000    0.000 
#
# Total GULP energy -223700.292359 kJ/mol
# GULP energy per Si atom -5592.507309 kJ/mol
# Density = 2.304777 g / cm^3
# Si number density = 23.100349 Si / 1000 Ang^3
#
#
#
# Elastic Constant Matrix: (Units=GPa)
#
#
# Indices 1 2 3 4 5 6 
#
# 1 24.3303 10.6753 0.3799 0.0000 0.0000 0.0000
# 2 10.6753 158.5216 77.3754 0.0000 0.0000 0.0000
# 3 0.3799 77.3754 165.8578 0.0000 0.0000 0.0000
# 4 0.0000 0.0000 0.0000 60.2502 0.0000 0.0000
# 5 0.0000 0.0000 0.0000 0.0000 24.1021 0.0000
# 6 0.0000 0.0000 0.0000 0.0000 0.0000 42.4307
#
#
#
# Elastic Compliance Matrix: (Units=1/GPa)
#
#
# Indices 1 2 3 4 5 6 
#
# 1 0.042682 -0.003660 0.001610 0.000000 0.000000 0.000000
# 2 -0.003660 0.008482 -0.003949 0.000000 0.000000 0.000000
# 3 0.001610 -0.003949 0.007868 0.000000 0.000000 0.000000
# 4 0.000000 0.000000 0.000000 0.016597 0.000000 0.000000
# 5 0.000000 0.000000 0.000000 0.000000 0.041490 0.000000
# 6 0.000000 0.000000 0.000000 0.000000 0.000000 0.023568
#
#
# Mechanical properties :
#
#
# Convention : Reuss Voigt Hill
#
# Bulk Modulus (GPa) = 21.26138 58.39675 39.82907
# Shear Modulus (GPa) = 29.69774 42.70854 36.20314
#
# Velocity S-wave (km/s) = 3.58941 4.30446 3.96310
# Velocity P-wave (km/s) = 5.13833 7.07383 6.18229
#
# Compressibility (1/GPa) = 0.04703363
#
# Stress axis : x y z
#
# Youngs Moduli (GPa) = 23.42920 117.89481 127.10207
#
# Poissons Ratio (x) = 0.43150 -0.20460
# Poissons Ratio (y) = 0.08575 0.50188
# Poissons Ratio (z) = -0.03771 0.46553
#
# Static dielectric constant tensor:
#      x y z
#    x 1.853870 0.000000 0.000000 
#    y 0.000000 2.798930 0.000000 
#    z 0.000000 0.000000 1.865340 
# 
# From -- ./inp_files/4168.got.cif
#   From: 2010.05.17/outbox.cif.g08.bks.cpg/sg61_3_cif.got.tgz:4168.got - 2010.06.03 15:17:17.
