data_PCOD9460538
_publ_section_title
;
Structure prediction by ZEFSAII (Michael W. Deem and Ramdas Pophale) SiO2 
 PCOD9460538
Probable space group: P B C A
;
_chemical_formula_sum "Si O2"
_cell_formula_units_Z 40
_cell_length_a 12.625664
_cell_length_b 9.035375
_cell_length_c 13.909325
_cell_angle_alpha 90.000000
_cell_angle_beta 90.000000
_cell_angle_gamma 90.000000
_cell_volume 1586.742537
_symmetry_space_group_name_H-M "P B C A"
_symmetry_group_IT_number 61
_symmetry_cell_setting 'orthorhombic'
loop_
_space_group_symop_operation_xyz
x,y,z
1/2-x,-y,1/2+z
1/2+x,1/2-y,-z
-x,1/2+y,1/2-z
-x,-y,-z
1/2+x,y,1/2-z
1/2-x,1/2+y,z
x,1/2-y,1/2+z
loop_
_atom_site_type_symbol
_atom_site_label
_atom_site_fract_x
_atom_site_fract_y
_atom_site_fract_z
Si Si1 0.710311 0.183817 0.518102
Si Si2 0.059068 0.537575 0.687513
Si Si3 0.816694 0.191606 0.337919
Si Si4 0.362415 0.387209 0.881157
Si Si5 0.457716 0.662485 0.361050
O O1 0.717055 0.163481 0.404080
O O2 0.821058 0.251297 0.556128
O O3 0.619770 0.296850 0.553461
O O4 0.688255 0.030933 0.570733
O O5 0.160324 0.631947 0.655530
O O6 0.178733 0.856592 0.772768
O O7 0.977956 0.680217 0.695632
O O8 0.082984 0.458287 0.787085
O O9 0.921822 0.117875 0.384458
O O10 0.487786 0.424762 0.875311
#
# Coordination Sequence:
#
# PCOD9460538 Si02
#       5
#     8   8   8   8   8
#     4  11  23  41  68 103 139 178 235 292 346 416
#     4   8  17  39  69  95 132 189 228 284 342 409
#     4   9  21  43  70 100 138 184 233 284 354 409
#     4  10  23  41  68  98 142 184 233 289 342 418
#     4   8  18  38  68  99 132 185 235 278 345 414
#
# _framework density 25.208877999999999
#
# number of rings (size 3 to 8) (size 9 to 14) (size 15 to 20)
#    1.200    1.600    0.000    0.000    2.800    2.400 
#    0.000    3.000    0.000    0.000    0.000    0.000 
#    0.000    0.000    0.000    0.000    0.000    0.000 
#
# Total GULP energy -223302.103494 kJ/mol
# GULP energy per Si atom -5582.552587 kJ/mol
# Density = 2.515150 g / cm^3
# Si number density = 25.208878 Si / 1000 Ang^3
#
#
#
# Elastic Constant Matrix: (Units=GPa)
#
#
# Indices 1 2 3 4 5 6 
#
# 1 58.0186 27.7908 24.6221 0.0000 0.0000 0.0000
# 2 27.7908 54.1764 28.5845 0.0000 0.0000 0.0000
# 3 24.6221 28.5845 121.0647 0.0000 0.0000 0.0000
# 4 0.0000 0.0000 0.0000 36.3001 0.0000 0.0000
# 5 0.0000 0.0000 0.0000 0.0000 29.3128 0.0000
# 6 0.0000 0.0000 0.0000 0.0000 0.0000 37.9532
#
#
#
# Elastic Compliance Matrix: (Units=1/GPa)
#
#
# Indices 1 2 3 4 5 6 
#
# 1 0.023350 -0.010820 -0.002194 0.000000 0.000000 0.000000
# 2 -0.010820 0.026099 -0.003962 0.000000 0.000000 0.000000
# 3 -0.002194 -0.003962 0.009642 0.000000 0.000000 0.000000
# 4 0.000000 0.000000 0.000000 0.027548 0.000000 0.000000
# 5 0.000000 0.000000 0.000000 0.000000 0.034115 0.000000
# 6 0.000000 0.000000 0.000000 0.000000 0.000000 0.026348
#
#
# Mechanical properties :
#
#
# Convention : Reuss Voigt Hill
#
# Bulk Modulus (GPa) = 39.77937 43.91716 41.84827
# Shear Modulus (GPa) = 26.39463 30.86403 28.62933
#
# Velocity S-wave (km/s) = 3.23931 3.50284 3.37365
# Velocity P-wave (km/s) = 5.45939 5.81541 5.64021
#
# Compressibility (1/GPa) = 0.02513866
#
# Stress axis : x y z
#
# Youngs Moduli (GPa) = 42.82698 38.31600 103.71652
#
# Poissons Ratio (x) = 0.41458 0.22757
# Poissons Ratio (y) = 0.46339 0.41088
# Poissons Ratio (z) = 0.09397 0.15179
#
# Static dielectric constant tensor:
#      x y z
#    x 2.106990 0.000000 0.000000 
#    y 0.000000 1.978710 0.000000 
#    z 0.000000 0.000000 1.976310 
# 
# From -- ./inp_files/7729.got.cif
#   From: 2010.05.17/outbox.cif.g08.bks.cpg/sg61_4_cif.got.tgz:7729.got - 2010.06.03 15:17:17.
