data_PCOD9460776
_publ_section_title
;
Structure prediction by ZEFSAII (Michael W. Deem and Ramdas Pophale) SiO2 
 PCOD9460776
Probable space group: P B C A
;
_chemical_formula_sum "Si O2"
_cell_formula_units_Z 32
_cell_length_a 10.824047
_cell_length_b 9.527230
_cell_length_c 13.137023
_cell_angle_alpha 90.000000
_cell_angle_beta 90.000000
_cell_angle_gamma 90.000000
_cell_volume 1354.731657
_symmetry_space_group_name_H-M "P B C A"
_symmetry_group_IT_number 61
_symmetry_cell_setting 'orthorhombic'
loop_
_space_group_symop_operation_xyz
x,y,z
1/2-x,-y,1/2+z
1/2+x,1/2-y,-z
-x,1/2+y,1/2-z
-x,-y,-z
1/2+x,y,1/2-z
1/2-x,1/2+y,z
x,1/2-y,1/2+z
loop_
_atom_site_type_symbol
_atom_site_label
_atom_site_fract_x
_atom_site_fract_y
_atom_site_fract_z
Si Si1 0.592834 0.364674 0.295002
Si Si2 0.734025 0.408762 0.872742
Si Si3 0.092163 0.877580 0.465444
Si Si4 0.476382 0.394494 0.091772
O O1 0.648910 0.519772 0.316776
O O2 0.682787 0.243369 0.340555
O O3 0.460467 0.345704 0.353245
O O4 0.577036 0.351425 0.174741
O O5 0.771407 0.417534 0.993593
O O6 0.626259 0.518061 0.847444
O O7 0.069103 0.743933 0.536258
O O8 0.000000 0.000000 0.500000
O O9 0.500000 0.500000 0.000000
#
# Coordination Sequence:
#
# PCOD9460776 Si02
#       4
#     8   8   8   8
#     4  11  26  47  74 105 151 193 249 311 373 450
#     4  11  24  47  72 111 143 199 248 300 392 435
#     4  10  24  46  70 104 151 186 249 305 366 449
#     4  12  26  47  70 110 151 196 256 314 374 465
#
# _framework density 23.620915
#
# number of rings (size 3 to 8) (size 9 to 14) (size 15 to 20)
#    0.000    1.000    5.000    0.000    7.000    2.000 
#    9.000    0.000    0.000    0.000    0.000    0.000 
#    0.000    0.000    0.000    0.000    0.000    0.000 
#
# Total GULP energy -178388.374686 kJ/mol
# GULP energy per Si atom -5574.636709 kJ/mol
# Density = 2.356715 g / cm^3
# Si number density = 23.620915 Si / 1000 Ang^3
#
#
#
# Elastic Constant Matrix: (Units=GPa)
#
#
# Indices 1 2 3 4 5 6 
#
# 1 67.4930 18.3630 40.5052 0.0000 0.0000 0.0000
# 2 18.3630 116.7255 4.3683 0.0000 0.0000 0.0000
# 3 40.5052 4.3683 107.7280 0.0000 0.0000 0.0000
# 4 0.0000 0.0000 0.0000 20.7506 0.0000 0.0000
# 5 0.0000 0.0000 0.0000 0.0000 33.4465 0.0000
# 6 0.0000 0.0000 0.0000 0.0000 0.0000 42.9464
#
#
#
# Elastic Compliance Matrix: (Units=1/GPa)
#
#
# Indices 1 2 3 4 5 6 
#
# 1 0.020054 -0.002877 -0.007424 0.000000 0.000000 0.000000
# 2 -0.002877 0.008993 0.000717 0.000000 0.000000 0.000000
# 3 -0.007424 0.000717 0.012045 0.000000 0.000000 0.000000
# 4 0.000000 0.000000 0.000000 0.048191 0.000000 0.000000
# 5 0.000000 0.000000 0.000000 0.000000 0.029898 0.000000
# 6 0.000000 0.000000 0.000000 0.000000 0.000000 0.023285
#
#
# Mechanical properties :
#
#
# Convention : Reuss Voigt Hill
#
# Bulk Modulus (GPa) = 45.61050 46.49106 46.05078
# Shear Modulus (GPa) = 29.59588 34.67603 32.13595
#
# Velocity S-wave (km/s) = 3.54355 3.83563 3.69248
# Velocity P-wave (km/s) = 6.00779 6.27224 6.14144
#
# Compressibility (1/GPa) = 0.02192478
#
# Stress axis : x y z
#
# Youngs Moduli (GPa) = 49.86446 111.19899 83.02319
#
# Poissons Ratio (x) = 0.31993 0.61634
# Poissons Ratio (y) = 0.14346 -0.05954
# Poissons Ratio (z) = 0.37018 -0.07974
#
# Static dielectric constant tensor:
#      x y z
#    x 1.869580 0.000000 0.000000 
#    y 0.000000 1.809430 0.000000 
#    z 0.000000 0.000000 1.924090 
# 
# From -- ./inp_files/2554.got.cif
#   From: 2010.05.17/outbox.cif.g08.bks.cpg/sg61_2_cif.got.tgz:2554.got - 2010.06.03 15:17:17.
