data_PCOD9460808
_publ_section_title
;
Structure prediction by ZEFSAII (Michael W. Deem and Ramdas Pophale) SiO2 
 PCOD9460808
Probable space group: P B C A
;
_chemical_formula_sum "Si O2"
_cell_formula_units_Z 48
_cell_length_a 10.188254
_cell_length_b 23.504603
_cell_length_c 8.697492
_cell_angle_alpha 90.000000
_cell_angle_beta 90.000000
_cell_angle_gamma 90.000000
_cell_volume 2082.795937
_symmetry_space_group_name_H-M "P B C A"
_symmetry_group_IT_number 61
_symmetry_cell_setting 'orthorhombic'
loop_
_space_group_symop_operation_xyz
x,y,z
1/2-x,-y,1/2+z
1/2+x,1/2-y,-z
-x,1/2+y,1/2-z
-x,-y,-z
1/2+x,y,1/2-z
1/2-x,1/2+y,z
x,1/2-y,1/2+z
loop_
_atom_site_type_symbol
_atom_site_label
_atom_site_fract_x
_atom_site_fract_y
_atom_site_fract_z
Si Si1 0.689685 0.377101 0.958903
Si Si2 0.095514 0.686383 0.214149
Si Si3 0.862780 0.529700 0.873566
Si Si4 0.461434 0.569514 0.304201
Si Si5 0.548415 0.808148 0.427077
Si Si6 0.127146 0.589768 0.770332
O O1 0.763797 0.334325 0.844638
O O2 0.609125 0.423527 0.860186
O O3 0.592900 0.337968 0.058372
O O4 0.796082 0.404611 0.070171
O O5 0.999406 0.634975 0.164027
O O6 0.098501 0.691352 0.397812
O O7 0.051409 0.745185 0.139532
O O8 0.978679 0.569161 0.799406
O O9 0.906746 0.468526 0.807038
O O10 0.717550 0.547468 0.827685
O O11 0.880781 0.540346 0.056742
O O12 0.628316 0.850090 0.316391
#
# Coordination Sequence:
#
# PCOD9460808 Si02
#       6
#     8   8   8   8   8   8
#     4  11  24  46  70 103 143 184 243 293 361 424
#     4  11  24  45  69 102 142 185 239 295 358 432
#     4  11  25  45  74 103 149 185 239 296 363 433
#     4  10  25  44  68 106 141 191 233 297 357 429
#     4  11  26  45  71 105 137 190 236 300 360 427
#     4  12  24  45  72 105 140 187 235 295 356 434
#
# _framework density 23.045946000000001
#
# number of rings (size 3 to 8) (size 9 to 14) (size 15 to 20)
#    0.000    1.000    3.333    2.000    2.333    7.333 
#    3.000    0.000    0.000    0.000    0.000    0.000 
#    0.000    0.000    0.000    0.000    0.000    0.000 
#
# Total GULP energy -268585.333929 kJ/mol
# GULP energy per Si atom -5595.527790 kJ/mol
# Density = 2.299349 g / cm^3
# Si number density = 23.045946 Si / 1000 Ang^3
#
#
#
# Elastic Constant Matrix: (Units=GPa)
#
#
# Indices 1 2 3 4 5 6 
#
# 1 52.0504 22.1002 11.5907 0.0000 0.0000 0.0000
# 2 22.1002 176.7962 44.2237 0.0000 0.0000 0.0000
# 3 11.5907 44.2237 77.2416 0.0000 0.0000 0.0000
# 4 0.0000 0.0000 0.0000 42.5790 0.0000 0.0000
# 5 0.0000 0.0000 0.0000 0.0000 31.5798 0.0000
# 6 0.0000 0.0000 0.0000 0.0000 0.0000 26.2891
#
#
#
# Elastic Compliance Matrix: (Units=1/GPa)
#
#
# Indices 1 2 3 4 5 6 
#
# 1 0.020520 -0.002095 -0.001880 0.000000 0.000000 0.000000
# 2 -0.002095 0.006816 -0.003588 0.000000 0.000000 0.000000
# 3 -0.001880 -0.003588 0.015283 0.000000 0.000000 0.000000
# 4 0.000000 0.000000 0.000000 0.023486 0.000000 0.000000
# 5 0.000000 0.000000 0.000000 0.000000 0.031666 0.000000
# 6 0.000000 0.000000 0.000000 0.000000 0.000000 0.038039
#
#
# Mechanical properties :
#
#
# Convention : Reuss Voigt Hill
#
# Bulk Modulus (GPa) = 36.37238 51.32416 43.84827
# Shear Modulus (GPa) = 31.23086 35.30115 33.26600
#
# Velocity S-wave (km/s) = 3.68524 3.91803 3.80342
# Velocity P-wave (km/s) = 5.82450 6.54115 6.19320
#
# Compressibility (1/GPa) = 0.02749339
#
# Stress axis : x y z
#
# Youngs Moduli (GPa) = 48.73238 146.72319 65.43374
#
# Poissons Ratio (x) = 0.30737 0.12300
# Poissons Ratio (y) = 0.10209 0.23476
# Poissons Ratio (z) = 0.09161 0.52641
#
# Static dielectric constant tensor:
#      x y z
#    x 1.895280 0.000000 0.000000 
#    y 0.000000 1.850730 0.000000 
#    z 0.000000 0.000000 1.872480 
# 
# From -- ./inp_files/2271.got.cif
#   From: 2010.05.17/outbox.cif.g08.bks.cpg/sg61_2_cif.got.tgz:2271.got - 2010.06.03 15:17:17.
