data_PCOD9460552
_publ_section_title
;
Structure prediction by ZEFSAII (Michael W. Deem and Ramdas Pophale) SiO2 
 PCOD9460552
Probable space group: P B C A
;
_chemical_formula_sum "Si O2"
_cell_formula_units_Z 48
_cell_length_a 10.031649
_cell_length_b 17.411806
_cell_length_c 11.296078
_cell_angle_alpha 90.000000
_cell_angle_beta 90.000000
_cell_angle_gamma 90.000000
_cell_volume 1973.076074
_symmetry_space_group_name_H-M "P B C A"
_symmetry_group_IT_number 61
_symmetry_cell_setting 'orthorhombic'
loop_
_space_group_symop_operation_xyz
x,y,z
1/2-x,-y,1/2+z
1/2+x,1/2-y,-z
-x,1/2+y,1/2-z
-x,-y,-z
1/2+x,y,1/2-z
1/2-x,1/2+y,z
x,1/2-y,1/2+z
loop_
_atom_site_type_symbol
_atom_site_label
_atom_site_fract_x
_atom_site_fract_y
_atom_site_fract_z
Si Si1 0.717295 0.320036 0.434180
Si Si2 0.415053 0.518266 0.117414
Si Si3 0.332043 0.090954 0.787390
Si Si4 0.090114 0.308293 0.709192
Si Si5 0.166814 0.751781 0.862634
Si Si6 0.654142 0.479540 0.515180
O O1 0.748165 0.362386 0.310340
O O2 0.636854 0.243235 0.404033
O O3 0.843936 0.293727 0.511272
O O4 0.654863 0.388084 0.510828
O O5 0.447631 0.450151 0.210953
O O6 0.422883 0.602495 0.174295
O O7 0.500000 0.500000 0.000000
O O8 0.258496 0.507595 0.084134
O O9 0.357772 0.161012 0.876643
O O10 0.287018 0.019249 0.866664
O O11 0.192117 0.280004 0.809468
O O12 0.940961 0.279987 0.732043
O O13 0.500000 0.500000 0.500000
#
# Coordination Sequence:
#
# PCOD9460552 Si02
#       6
#     8   8   8   8   8   8
#     4  10  23  42  66 100 137 179 230 283 351 422
#     4  11  25  43  66  96 133 179 225 279 349 417
#     4  10  23  43  68  97 134 177 224 280 345 411
#     4  11  24  42  67  98 133 181 231 288 353 419
#     4  11  24  43  66  97 136 179 232 290 348 424
#     4  11  23  41  67 100 135 175 225 282 338 411
#
# _framework density 24.327496
#
# number of rings (size 3 to 8) (size 9 to 14) (size 15 to 20)
#    0.000    1.333    0.000    5.000    0.000   12.000 
#    0.000    0.000    0.000    0.000    0.000    0.000 
#    0.000    0.000    0.000    0.000    0.000    0.000 
#
# Total GULP energy -267624.832900 kJ/mol
# GULP energy per Si atom -5575.517352 kJ/mol
# Density = 2.427213 g / cm^3
# Si number density = 24.327496 Si / 1000 Ang^3
#
#
#
# Elastic Constant Matrix: (Units=GPa)
#
#
# Indices 1 2 3 4 5 6 
#
# 1 57.2480 7.8422 6.9482 0.0000 0.0000 0.0000
# 2 7.8422 176.4659 38.8356 0.0000 0.0000 0.0000
# 3 6.9482 38.8356 74.6228 0.0000 0.0000 0.0000
# 4 0.0000 0.0000 0.0000 57.3143 0.0000 0.0000
# 5 0.0000 0.0000 0.0000 0.0000 33.2121 0.0000
# 6 0.0000 0.0000 0.0000 0.0000 0.0000 21.2988
#
#
#
# Elastic Compliance Matrix: (Units=1/GPa)
#
#
# Indices 1 2 3 4 5 6 
#
# 1 0.017703 -0.000479 -0.001399 0.000000 0.000000 0.000000
# 2 -0.000479 0.006413 -0.003293 0.000000 0.000000 0.000000
# 3 -0.001399 -0.003293 0.015245 0.000000 0.000000 0.000000
# 4 0.000000 0.000000 0.000000 0.017448 0.000000 0.000000
# 5 0.000000 0.000000 0.000000 0.000000 0.030109 0.000000
# 6 0.000000 0.000000 0.000000 0.000000 0.000000 0.046951
#
#
# Mechanical properties :
#
#
# Convention : Reuss Voigt Hill
#
# Bulk Modulus (GPa) = 34.46000 46.17649 40.31825
# Shear Modulus (GPa) = 32.49215 39.34577 35.91896
#
# Velocity S-wave (km/s) = 3.65857 4.02598 3.84666
# Velocity P-wave (km/s) = 5.66062 6.37446 6.02812
#
# Compressibility (1/GPa) = 0.02901915
#
# Stress axis : x y z
#
# Youngs Moduli (GPa) = 56.48672 155.93932 65.59674
#
# Poissons Ratio (x) = 0.07467 0.09178
# Poissons Ratio (y) = 0.02705 0.21600
# Poissons Ratio (z) = 0.07904 0.51347
#
# Static dielectric constant tensor:
#      x y z
#    x 2.009380 0.000000 0.000000 
#    y 0.000000 1.946130 0.000000 
#    z 0.000000 0.000000 2.091580 
# 
# From -- ./inp_files/5240.got.cif
#   From: 2010.05.17/outbox.cif.g08.bks.cpg/sg61_3_cif.got.tgz:5240.got - 2010.06.03 15:17:17.
