data_PCOD9460563
_publ_section_title
;
Structure prediction by ZEFSAII (Michael W. Deem and Ramdas Pophale) SiO2 
 PCOD9460563
Probable space group: P B C A
;
_chemical_formula_sum "Si O2"
_cell_formula_units_Z 44
_cell_length_a 25.048574
_cell_length_b 5.332699
_cell_length_c 12.816034
_cell_angle_alpha 90.000000
_cell_angle_beta 90.000000
_cell_angle_gamma 90.000000
_cell_volume 1711.921036
_symmetry_space_group_name_H-M "P B C A"
_symmetry_group_IT_number 61
_symmetry_cell_setting 'orthorhombic'
loop_
_space_group_symop_operation_xyz
x,y,z
1/2-x,-y,1/2+z
1/2+x,1/2-y,-z
-x,1/2+y,1/2-z
-x,-y,-z
1/2+x,y,1/2-z
1/2-x,1/2+y,z
x,1/2-y,1/2+z
loop_
_atom_site_type_symbol
_atom_site_label
_atom_site_fract_x
_atom_site_fract_y
_atom_site_fract_z
Si Si1 0.025058 0.754767 0.202890
Si Si2 0.393226 0.807261 0.988671
Si Si3 0.381709 0.191763 0.350094
Si Si4 0.000000 0.000000 0.500000
Si Si5 0.263984 0.352552 0.310827
Si Si6 0.723369 0.377113 0.427145
O O1 0.084325 0.704633 0.244951
O O2 0.991767 0.525865 0.254561
O O3 0.014074 0.724248 0.081779
O O4 0.390731 0.560146 0.916555
O O5 0.397668 0.063097 0.918396
O O6 0.339033 0.821112 0.056473
O O7 0.448899 0.832153 0.048568
O O8 0.320465 0.216856 0.319912
O O9 0.274292 0.632765 0.353120
O O10 0.241918 0.394107 0.193784
O O11 0.740397 0.648848 0.469390
#
# Coordination Sequence:
#
# PCOD9460563 Si02
#       6
#     8   8   8   4   8   8
#     4  12  26  51  75 112 151 197 264 319 394 476
#     4  12  27  46  77 112 149 200 256 320 389 476
#     4  12  25  48  72 108 149 193 249 321 387 463
#     4  12  28  50  82 112 156 210 264 328 410 470
#     4  10  23  42  68 102 137 191 238 297 379 443
#     4  10  23  45  67 105 144 192 248 307 374 458
#
# _framework density 25.702119
#
# number of rings (size 3 to 8) (size 9 to 14) (size 15 to 20)
#    0.000    0.727    3.636    2.182    5.091    7.273 
#    3.273    0.000    0.000    0.000    0.000    0.000 
#    0.000    0.000    0.000    0.000    0.000    0.000 
#
# Total GULP energy -245251.186778 kJ/mol
# GULP energy per Si atom -5573.890609 kJ/mol
# Density = 2.564362 g / cm^3
# Si number density = 25.702119 Si / 1000 Ang^3
#
#
#
# Elastic Constant Matrix: (Units=GPa)
#
#
# Indices 1 2 3 4 5 6 
#
# 1 70.7312 19.4538 -0.1499 0.0000 0.0000 0.0000
# 2 19.4538 179.7335 28.9782 0.0000 0.0000 0.0000
# 3 -0.1499 28.9782 64.4243 0.0000 0.0000 0.0000
# 4 0.0000 0.0000 0.0000 30.1917 0.0000 0.0000
# 5 0.0000 0.0000 0.0000 0.0000 38.2353 0.0000
# 6 0.0000 0.0000 0.0000 0.0000 0.0000 77.5414
#
#
#
# Elastic Compliance Matrix: (Units=1/GPa)
#
#
# Indices 1 2 3 4 5 6 
#
# 1 0.014610 -0.001711 0.000804 0.000000 0.000000 0.000000
# 2 -0.001711 0.006199 -0.002792 0.000000 0.000000 0.000000
# 3 0.000804 -0.002792 0.016780 0.000000 0.000000 0.000000
# 4 0.000000 0.000000 0.000000 0.033122 0.000000 0.000000
# 5 0.000000 0.000000 0.000000 0.000000 0.026154 0.000000
# 6 0.000000 0.000000 0.000000 0.000000 0.000000 0.012896
#
#
# Mechanical properties :
#
#
# Convention : Reuss Voigt Hill
#
# Bulk Modulus (GPa) = 33.12355 45.71701 39.42028
# Shear Modulus (GPa) = 39.30070 46.96747 43.13409
#
# Velocity S-wave (km/s) = 3.91459 4.27942 4.10107
# Velocity P-wave (km/s) = 5.77473 6.49952 6.14782
#
# Compressibility (1/GPa) = 0.03019000
#
# Stress axis : x y z
#
# Youngs Moduli (GPa) = 68.44484 161.31125 59.59478
#
# Poissons Ratio (x) = 0.27599 -0.04789
# Poissons Ratio (y) = 0.11710 0.16641
# Poissons Ratio (z) = -0.05500 0.45045
#
# Static dielectric constant tensor:
#      x y z
#    x 2.055050 0.000000 0.000000 
#    y 0.000000 3.002130 0.000000 
#    z 0.000000 0.000000 2.310390 
# 
# From -- ./inp_files/8559.got.cif
#   From: 2010.05.17/outbox.cif.g08.bks.cpg/sg61_5_cif.got.tgz:8559.got - 2010.06.03 15:17:17.
