data_PCOD9460569
_publ_section_title
;
Structure prediction by ZEFSAII (Michael W. Deem and Ramdas Pophale) SiO2 
 PCOD9460569
Probable space group: P B C A
;
_chemical_formula_sum "Si O2"
_cell_formula_units_Z 48
_cell_length_a 25.684579
_cell_length_b 5.720517
_cell_length_c 13.105419
_cell_angle_alpha 90.000000
_cell_angle_beta 90.000000
_cell_angle_gamma 90.000000
_cell_volume 1925.567036
_symmetry_space_group_name_H-M "P B C A"
_symmetry_group_IT_number 61
_symmetry_cell_setting 'orthorhombic'
loop_
_space_group_symop_operation_xyz
x,y,z
1/2-x,-y,1/2+z
1/2+x,1/2-y,-z
-x,1/2+y,1/2-z
-x,-y,-z
1/2+x,y,1/2-z
1/2-x,1/2+y,z
x,1/2-y,1/2+z
loop_
_atom_site_type_symbol
_atom_site_label
_atom_site_fract_x
_atom_site_fract_y
_atom_site_fract_z
Si Si1 0.730910 0.138525 0.233791
Si Si2 0.611157 0.275229 0.244803
Si Si3 0.056773 0.555037 0.621255
Si Si4 0.733566 0.089126 0.999249
Si Si5 0.118123 0.568081 0.046821
Si Si6 0.954945 0.759382 0.569197
O O1 0.755478 0.380577 0.276337
O O2 0.669276 0.183085 0.230432
O O3 0.751337 0.119708 0.116829
O O4 0.611614 0.441658 0.343192
O O5 0.585615 0.376768 0.142645
O O6 0.572402 0.062726 0.273798
O O7 0.038484 0.361623 0.540905
O O8 0.011011 0.746256 0.622910
O O9 0.109094 0.663594 0.573515
O O10 0.736839 0.356579 0.958479
O O11 0.673830 0.007358 0.993463
O O12 0.074711 0.494151 0.963947
#
# Coordination Sequence:
#
# PCOD9460569 Si02
#       6
#     8   8   8   8   8   8
#     4  10  23  43  68 101 139 186 237 290 362 426
#     4  11  25  41  68 105 134 180 234 295 354 424
#     4  10  25  43  69 100 135 186 233 286 359 425
#     4  10  23  42  70  99 137 187 234 289 356 428
#     4  11  24  42  69  99 135 181 234 283 358 422
#     4  10  23  47  66  97 142 179 229 293 350 425
#
# _framework density 24.927723
#
# number of rings (size 3 to 8) (size 9 to 14) (size 15 to 20)
#    0.000    1.667    1.667    0.500    9.333    4.000 
#    0.000    0.000    0.000    0.000    0.000    0.000 
#    0.000    0.000    0.000    0.000    0.000    0.000 
#
# Total GULP energy -268027.479738 kJ/mol
# GULP energy per Si atom -5583.905828 kJ/mol
# Density = 2.487099 g / cm^3
# Si number density = 24.927723 Si / 1000 Ang^3
#
#
#
# Elastic Constant Matrix: (Units=GPa)
#
#
# Indices 1 2 3 4 5 6 
#
# 1 116.0345 29.5985 -2.0581 0.0000 0.0000 0.0000
# 2 29.5985 89.3812 4.0126 0.0000 0.0000 0.0000
# 3 -2.0581 4.0126 60.4004 0.0000 0.0000 0.0000
# 4 0.0000 0.0000 0.0000 30.0916 0.0000 0.0000
# 5 0.0000 0.0000 0.0000 0.0000 30.7625 0.0000
# 6 0.0000 0.0000 0.0000 0.0000 0.0000 22.8473
#
#
#
# Elastic Compliance Matrix: (Units=1/GPa)
#
#
# Indices 1 2 3 4 5 6 
#
# 1 0.009430 -0.003147 0.000530 0.000000 0.000000 0.000000
# 2 -0.003147 0.012271 -0.000922 0.000000 0.000000 0.000000
# 3 0.000530 -0.000922 0.016636 0.000000 0.000000 0.000000
# 4 0.000000 0.000000 0.000000 0.033232 0.000000 0.000000
# 5 0.000000 0.000000 0.000000 0.000000 0.032507 0.000000
# 6 0.000000 0.000000 0.000000 0.000000 0.000000 0.043769
#
#
# Mechanical properties :
#
#
# Convention : Reuss Voigt Hill
#
# Bulk Modulus (GPa) = 31.98999 36.54690 34.26845
# Shear Modulus (GPa) = 30.24028 32.35781 31.29905
#
# Velocity S-wave (km/s) = 3.48676 3.60678 3.54728
# Velocity P-wave (km/s) = 5.39175 5.66022 5.52762
#
# Compressibility (1/GPa) = 0.03125978
#
# Stress axis : x y z
#
# Youngs Moduli (GPa) = 106.04249 81.49001 60.11224
#
# Poissons Ratio (x) = 0.25642 -0.03188
# Poissons Ratio (y) = 0.33367 0.05545
# Poissons Ratio (z) = -0.05624 0.07517
#
# Static dielectric constant tensor:
#      x y z
#    x 1.953850 0.000000 0.000000 
#    y 0.000000 2.021440 0.000000 
#    z 0.000000 0.000000 2.033970 
# 
# From -- ./inp_files/538.got.cif
#   From: 2010.05.17/outbox.cif.g08.bks.cpg/sg61_1_cif.got.tgz:538.got - 2010.06.03 15:17:17.
