data_PCOD9460646
_publ_section_title
;
Structure prediction by ZEFSAII (Michael W. Deem and Ramdas Pophale) SiO2 
 PCOD9460646
Probable space group: P B C A
;
_chemical_formula_sum "Si O2"
_cell_formula_units_Z 56
_cell_length_a 13.121424
_cell_length_b 7.768821
_cell_length_c 21.253566
_cell_angle_alpha 90.000000
_cell_angle_beta 90.000000
_cell_angle_gamma 90.000000
_cell_volume 2166.545890
_symmetry_space_group_name_H-M "P B C A"
_symmetry_group_IT_number 61
_symmetry_cell_setting 'orthorhombic'
loop_
_space_group_symop_operation_xyz
x,y,z
1/2-x,-y,1/2+z
1/2+x,1/2-y,-z
-x,1/2+y,1/2-z
-x,-y,-z
1/2+x,y,1/2-z
1/2-x,1/2+y,z
x,1/2-y,1/2+z
loop_
_atom_site_type_symbol
_atom_site_label
_atom_site_fract_x
_atom_site_fract_y
_atom_site_fract_z
Si Si1 0.035846 0.400369 0.420356
Si Si2 0.519092 0.399488 0.808674
Si Si3 0.160948 0.896080 0.281676
Si Si4 0.214410 0.205605 0.369442
Si Si5 0.860844 0.387037 0.919442
Si Si6 0.330068 0.773815 0.009232
Si Si7 0.867088 0.953142 0.286237
O O1 0.988431 0.557233 0.382384
O O2 0.131904 0.359100 0.373890
O O3 0.092371 0.378970 0.487505
O O4 0.955129 0.244175 0.420247
O O5 0.589677 0.546328 0.776376
O O6 0.423853 0.415787 0.760515
O O7 0.560789 0.206914 0.802969
O O8 0.162375 0.068295 0.324479
O O9 0.268908 0.875491 0.246827
O O10 0.178617 0.764334 0.340768
O O11 0.217654 0.155524 0.442946
O O12 0.838876 0.444382 0.848535
O O13 0.881769 0.563160 0.957746
O O14 0.761178 0.298726 0.949038
#
# Coordination Sequence:
#
# PCOD9460646 Si02
#       7
#     8   8   8   8   8   8   8
#     4  10  25  50  77 107 155 192 258 312 379 456
#     4  12  26  49  74 120 152 199 251 313 395 456
#     4  12  23  43  73 109 148 191 244 307 376 453
#     4  10  23  45  74 107 144 197 243 308 379 437
#     4  12  26  49  76 109 153 198 257 313 372 465
#     4  10  26  49  75 108 146 204 253 310 375 443
#     4  12  28  44  75 113 156 192 247 317 383 453
#
# _framework density 25.847595999999999
#
# number of rings (size 3 to 8) (size 9 to 14) (size 15 to 20)
#    0.857    0.000    2.857    3.000    8.000    0.000 
#    2.571    1.429    0.000    0.000    0.000    0.000 
#    0.000    0.000    0.000    0.000    0.000    0.000 
#
# Total GULP energy -312996.415834 kJ/mol
# GULP energy per Si atom -5589.221711 kJ/mol
# Density = 2.578877 g / cm^3
# Si number density = 25.847596 Si / 1000 Ang^3
#
#
#
# Elastic Constant Matrix: (Units=GPa)
#
#
# Indices 1 2 3 4 5 6 
#
# 1 41.2085 0.8816 39.3917 0.0000 0.0000 0.0000
# 2 0.8816 13.2473 25.8962 0.0000 0.0000 0.0000
# 3 39.3917 25.8962 179.4381 0.0000 0.0000 0.0000
# 4 0.0000 0.0000 0.0000 50.4973 0.0000 0.0000
# 5 0.0000 0.0000 0.0000 0.0000 13.2283 0.0000
# 6 0.0000 0.0000 0.0000 0.0000 0.0000 -58.6883
#
#
#
# Elastic Compliance Matrix: (Units=1/GPa)
#
#
# Indices 1 2 3 4 5 6 
#
# 1 0.033184 0.016761 -0.009704 0.000000 0.000000 0.000000
# 2 0.016761 0.113618 -0.020077 0.000000 0.000000 0.000000
# 3 -0.009704 -0.020077 0.010601 0.000000 0.000000 0.000000
# 4 0.000000 0.000000 0.000000 0.019803 0.000000 0.000000
# 5 0.000000 0.000000 0.000000 0.000000 0.075596 0.000000
# 6 0.000000 0.000000 0.000000 0.000000 0.000000 -0.017039
#
#
# Mechanical properties :
#
#
# Convention : Reuss Voigt Hill
#
# Bulk Modulus (GPa) = 7.61246 40.69254 24.15250
# Shear Modulus (GPa) = 16.36184 12.18909 14.27547
#
# Velocity S-wave (km/s) = 2.51870 2.17393 2.35264
# Velocity P-wave (km/s) = 3.37787 4.69880 4.09199
#
# Compressibility (1/GPa) = 0.13136360
#
# Stress axis : x y z
#
# Youngs Moduli (GPa) = 30.13485 8.80143 94.33422
#
# Poissons Ratio (x) = -0.14752 0.91539
# Poissons Ratio (y) = -0.50508 1.89391
# Poissons Ratio (z) = 0.29242 0.17670
#
# Static dielectric constant tensor:
#      x y z
#    x 2.233090 0.000000 0.000000 
#    y 0.000000 2.174930 0.000000 
#    z 0.000000 0.000000 1.987160 
# 
# From -- ./inp_files/10453.got.cif
#   From: 2010.05.17/outbox.cif.g08.bks.cpg/sg61_6_cif.got.tgz:10453.got - 2010.06.03 15:17:17.
