data_PCOD9460691
_publ_section_title
;
Structure prediction by ZEFSAII (Michael W. Deem and Ramdas Pophale) SiO2 
 PCOD9460691
Probable space group: P B C A
;
_chemical_formula_sum "Si O2"
_cell_formula_units_Z 60
_cell_length_a 28.511382
_cell_length_b 9.171820
_cell_length_c 8.287095
_cell_angle_alpha 90.000000
_cell_angle_beta 90.000000
_cell_angle_gamma 90.000000
_cell_volume 2167.085815
_symmetry_space_group_name_H-M "P B C A"
_symmetry_group_IT_number 61
_symmetry_cell_setting 'orthorhombic'
loop_
_space_group_symop_operation_xyz
x,y,z
1/2-x,-y,1/2+z
1/2+x,1/2-y,-z
-x,1/2+y,1/2-z
-x,-y,-z
1/2+x,y,1/2-z
1/2-x,1/2+y,z
x,1/2-y,1/2+z
loop_
_atom_site_type_symbol
_atom_site_label
_atom_site_fract_x
_atom_site_fract_y
_atom_site_fract_z
Si Si1 0.926853 0.547976 0.484449
Si Si2 0.944812 0.213945 0.778621
Si Si3 0.327771 0.549779 0.490585
Si Si4 0.716922 0.557333 0.970843
Si Si5 0.461970 0.797110 0.831282
Si Si6 0.000000 0.000000 0.500000
Si Si7 0.839578 0.674024 0.357328
Si Si8 0.337099 0.231960 0.815031
O O1 0.940806 0.385313 0.441072
O O2 0.941280 0.638371 0.326236
O O3 0.950995 0.632622 0.627853
O O4 0.872260 0.577451 0.475031
O O5 0.891651 0.253537 0.734096
O O6 0.981736 0.342288 0.828667
O O7 0.973659 0.121070 0.645470
O O8 0.272031 0.569130 0.503100
O O9 0.347203 0.655226 0.627689
O O10 0.339754 0.381538 0.467074
O O11 0.345466 0.624947 0.325294
O O12 0.709523 0.387129 0.924119
O O13 0.690961 0.626797 0.126077
O O14 0.693906 0.644520 0.818171
O O15 0.452359 0.898377 0.984614
#
# Coordination Sequence:
#
# PCOD9460691 Si02
#       8
#     8   8   8   8   8   4   8   8
#     4  11  22  42  65  94 135 169 225 270 330 390
#     4  11  23  44  65  95 137 173 229 268 335 387
#     4  11  23  44  70  95 135 170 225 279 337 405
#     4  11  24  45  67  99 132 177 222 277 350 399
#     4  11  23  41  66  94 130 177 215 275 321 394
#     4  10  24  40  64  96 130 174 218 272 322 396
#     4  11  24  43  67 100 132 174 220 280 329 406
#     4  11  26  44  70 100 140 177 225 288 327 422
#
# _framework density 27.686952999999999
#
# number of rings (size 3 to 8) (size 9 to 14) (size 15 to 20)
#    0.000    1.067    4.000    2.800    3.733    3.200 
#    4.800    0.000    0.000    0.000    0.000    0.000 
#    0.000    0.000    0.000    0.000    0.000    0.000 
#
# Total GULP energy -334834.565909 kJ/mol
# GULP energy per Si atom -5580.576098 kJ/mol
# Density = 2.762394 g / cm^3
# Si number density = 27.686953 Si / 1000 Ang^3
#
#
#
# Elastic Constant Matrix: (Units=GPa)
#
#
# Indices 1 2 3 4 5 6 
#
# 1 109.2277 3.8545 33.4657 0.0000 0.0000 0.0000
# 2 3.8545 77.7983 30.4821 0.0000 0.0000 0.0000
# 3 33.4657 30.4821 85.5528 0.0000 0.0000 0.0000
# 4 0.0000 0.0000 0.0000 49.8535 0.0000 0.0000
# 5 0.0000 0.0000 0.0000 0.0000 37.7934 0.0000
# 6 0.0000 0.0000 0.0000 0.0000 0.0000 18.9379
#
#
#
# Elastic Compliance Matrix: (Units=1/GPa)
#
#
# Indices 1 2 3 4 5 6 
#
# 1 0.010508 0.001267 -0.004562 0.000000 0.000000 0.000000
# 2 0.001267 0.015092 -0.005873 0.000000 0.000000 0.000000
# 3 -0.004562 -0.005873 0.015566 0.000000 0.000000 0.000000
# 4 0.000000 0.000000 0.000000 0.020059 0.000000 0.000000
# 5 0.000000 0.000000 0.000000 0.000000 0.026460 0.000000
# 6 0.000000 0.000000 0.000000 0.000000 0.000000 0.052804
#
#
# Mechanical properties :
#
#
# Convention : Reuss Voigt Hill
#
# Bulk Modulus (GPa) = 43.80180 45.35370 44.57775
# Shear Modulus (GPa) = 30.04196 34.96872 32.50534
#
# Velocity S-wave (km/s) = 3.29760 3.55773 3.43013
# Velocity P-wave (km/s) = 5.50941 5.77001 5.64122
#
# Compressibility (1/GPa) = 0.02283011
#
# Stress axis : x y z
#
# Youngs Moduli (GPa) = 95.16418 66.26043 64.24443
#
# Poissons Ratio (x) = -0.08393 0.29307
# Poissons Ratio (y) = -0.12055 0.37729
# Poissons Ratio (z) = 0.43412 0.38913
#
# Static dielectric constant tensor:
#      x y z
#    x 2.225940 0.000000 0.000000 
#    y 0.000000 1.637570 0.000000 
#    z 0.000000 0.000000 1.765380 
# 
# From -- ./inp_files/4484.got.cif
#   From: 2010.05.17/outbox.cif.g08.bks.cpg/sg61_3_cif.got.tgz:4484.got - 2010.06.03 15:17:17.
