data_PCOD9460730
_publ_section_title
;
Structure prediction by ZEFSAII (Michael W. Deem and Ramdas Pophale) SiO2 
 PCOD9460730
Probable space group: P B C A
;
_chemical_formula_sum "Si O2"
_cell_formula_units_Z 32
_cell_length_a 10.060024
_cell_length_b 15.522266
_cell_length_c 7.967229
_cell_angle_alpha 90.000000
_cell_angle_beta 90.000000
_cell_angle_gamma 90.000000
_cell_volume 1244.117613
_symmetry_space_group_name_H-M "P B C A"
_symmetry_group_IT_number 61
_symmetry_cell_setting 'orthorhombic'
loop_
_space_group_symop_operation_xyz
x,y,z
1/2-x,-y,1/2+z
1/2+x,1/2-y,-z
-x,1/2+y,1/2-z
-x,-y,-z
1/2+x,y,1/2-z
1/2-x,1/2+y,z
x,1/2-y,1/2+z
loop_
_atom_site_type_symbol
_atom_site_label
_atom_site_fract_x
_atom_site_fract_y
_atom_site_fract_z
Si Si1 0.531621 0.592969 0.746049
Si Si2 0.871784 0.662360 0.441894
Si Si3 0.287657 0.991288 0.119052
Si Si4 0.394131 0.661038 0.436479
O O1 0.678516 0.562158 0.778064
O O2 0.429991 0.512767 0.711676
O O3 0.507879 0.648742 0.578297
O O4 0.476177 0.637461 0.913451
O O5 0.769014 0.583872 0.423555
O O6 0.815369 0.754362 0.501504
O O7 0.932028 0.672471 0.255729
O O8 0.311539 0.926942 0.961230
#
# Coordination Sequence:
#
# PCOD9460730 Si02
#       4
#     8   8   8   8
#     4  10  24  48  66 107 135 181 234 283 348 410
#     4  12  21  47  70 101 142 186 224 299 336 419
#     4  10  24  48  71 102 143 179 237 285 351 407
#     4  10  24  43  67 107 132 185 235 275 352 409
#
# _framework density 25.721039999999999
#
# number of rings (size 3 to 8) (size 9 to 14) (size 15 to 20)
#    1.500    0.000    2.500    2.250    0.000    1.000 
#   18.000    0.000    0.000    0.000    0.000    0.000 
#    0.000    0.000    0.000    0.000    0.000    0.000 
#
# Total GULP energy -178982.439387 kJ/mol
# GULP energy per Si atom -5593.201231 kJ/mol
# Density = 2.566250 g / cm^3
# Si number density = 25.721040 Si / 1000 Ang^3
#
#
#
# Elastic Constant Matrix: (Units=GPa)
#
#
# Indices 1 2 3 4 5 6 
#
# 1 61.1173 8.9133 32.2064 0.0000 0.0000 0.0000
# 2 8.9133 126.1758 55.6315 0.0000 0.0000 0.0000
# 3 32.2064 55.6315 242.6518 0.0000 0.0000 0.0000
# 4 0.0000 0.0000 0.0000 45.5558 0.0000 0.0000
# 5 0.0000 0.0000 0.0000 0.0000 31.7733 0.0000
# 6 0.0000 0.0000 0.0000 0.0000 0.0000 23.4766
#
#
#
# Elastic Compliance Matrix: (Units=1/GPa)
#
#
# Indices 1 2 3 4 5 6 
#
# 1 0.017599 -0.000237 -0.002281 0.000000 0.000000 0.000000
# 2 -0.000237 0.008820 -0.001991 0.000000 0.000000 0.000000
# 3 -0.002281 -0.001991 0.004880 0.000000 0.000000 0.000000
# 4 0.000000 0.000000 0.000000 0.021951 0.000000 0.000000
# 5 0.000000 0.000000 0.000000 0.000000 0.031473 0.000000
# 6 0.000000 0.000000 0.000000 0.000000 0.000000 0.042596
#
#
# Mechanical properties :
#
#
# Convention : Reuss Voigt Hill
#
# Bulk Modulus (GPa) = 44.88266 69.27194 57.07730
# Shear Modulus (GPa) = 34.77919 42.37405 38.57662
#
# Velocity S-wave (km/s) = 3.68117 4.06328 3.87694
# Velocity P-wave (km/s) = 5.96286 7.00029 6.50230
#
# Compressibility (1/GPa) = 0.02228032
#
# Stress axis : x y z
#
# Youngs Moduli (GPa) = 56.82205 113.38032 204.90498
#
# Poissons Ratio (x) = 0.02691 0.46748
# Poissons Ratio (y) = 0.01348 0.40788
# Poissons Ratio (z) = 0.12964 0.22569
#
# Static dielectric constant tensor:
#      x y z
#    x 1.975370 0.000000 0.000000 
#    y 0.000000 2.049120 0.000000 
#    z 0.000000 0.000000 2.055790 
# 
# From -- ./inp_files/2083.got.cif
#   From: 2010.05.17/outbox.cif.g08.bks.cpg/sg61_2_cif.got.tgz:2083.got - 2010.06.03 15:17:17.
