data_PCOD9460373
_publ_section_title
;
Structure prediction by ZEFSAII (Michael W. Deem and Ramdas Pophale) SiO2 
 PCOD9460373
Probable space group: P B C A
;
_chemical_formula_sum "Si O2"
_cell_formula_units_Z 64
_cell_length_a 10.310751
_cell_length_b 22.588962
_cell_length_c 12.140953
_cell_angle_alpha 90.000000
_cell_angle_beta 90.000000
_cell_angle_gamma 90.000000
_cell_volume 2827.739196
_symmetry_space_group_name_H-M "P B C A"
_symmetry_group_IT_number 61
_symmetry_cell_setting 'orthorhombic'
loop_
_space_group_symop_operation_xyz
x,y,z
1/2-x,-y,1/2+z
1/2+x,1/2-y,-z
-x,1/2+y,1/2-z
-x,-y,-z
1/2+x,y,1/2-z
1/2-x,1/2+y,z
x,1/2-y,1/2+z
loop_
_atom_site_type_symbol
_atom_site_label
_atom_site_fract_x
_atom_site_fract_y
_atom_site_fract_z
Si Si1 0.021132 0.953593 0.160652
Si Si2 0.008290 0.318498 0.390772
Si Si3 0.703866 0.678695 0.575602
Si Si4 0.784257 0.011923 0.028857
Si Si5 0.130217 0.696828 0.403865
Si Si6 0.099776 0.810553 0.656083
Si Si7 0.937164 0.435720 0.101571
Si Si8 0.359264 0.626045 0.447866
O O1 0.031636 0.971516 0.288158
O O2 0.019035 0.882010 0.161393
O O3 0.890438 0.978157 0.103584
O O4 0.142097 0.974429 0.085511
O O5 0.158318 0.303999 0.377241
O O6 0.982243 0.329275 0.521109
O O7 0.929731 0.260057 0.355351
O O8 0.608120 0.732876 0.598665
O O9 0.696731 0.672249 0.442910
O O10 0.658928 0.618326 0.628822
O O11 0.650629 0.974910 0.019504
O O12 0.738373 0.073292 0.084774
O O13 0.144390 0.676683 0.279142
O O14 0.261636 0.680253 0.469932
O O15 0.968888 0.847873 0.631954
O O16 0.560345 0.403049 0.451851
#
# Coordination Sequence:
#
# PCOD9460373 Si02
#       8
#     8   8   8   8   8   8   8   8
#     4  11  25  45  71 101 133 183 230 288 344 392
#     4  11  21  42  68  97 134 174 226 278 330 415
#     4  10  22  42  67  98 136 174 230 280 320 429
#     4  11  25  46  67 101 138 172 240 287 328 412
#     4  11  23  42  65 101 138 173 221 284 346 398
#     4  10  24  41  65 100 135 181 217 276 352 402
#     4  11  25  47  72  96 136 186 229 278 349 400
#     4  11  24  45  65 100 138 174 227 280 333 421
#
# _framework density 22.632921
#
# number of rings (size 3 to 8) (size 9 to 14) (size 15 to 20)
#    0.000    1.250    3.750    1.125    3.500    1.000 
#    9.000    0.000    0.000    0.000    0.000    0.000 
#    0.000    0.000    0.000    0.000    0.000    0.000 
#
# Total GULP energy -357187.833494 kJ/mol
# GULP energy per Si atom -5581.059898 kJ/mol
# Density = 2.258141 g / cm^3
# Si number density = 22.632921 Si / 1000 Ang^3
#
#
#
# Elastic Constant Matrix: (Units=GPa)
#
#
# Indices 1 2 3 4 5 6 
#
# 1 69.8360 17.7543 24.2837 0.0000 0.0000 0.0000
# 2 17.7543 82.3574 12.5316 0.0000 0.0000 0.0000
# 3 24.2837 12.5316 93.9373 0.0000 0.0000 0.0000
# 4 0.0000 0.0000 0.0000 20.2907 0.0000 0.0000
# 5 0.0000 0.0000 0.0000 0.0000 10.6078 0.0000
# 6 0.0000 0.0000 0.0000 0.0000 0.0000 33.9155
#
#
#
# Elastic Compliance Matrix: (Units=1/GPa)
#
#
# Indices 1 2 3 4 5 6 
#
# 1 0.016408 -0.002952 -0.003848 0.000000 0.000000 0.000000
# 2 -0.002952 0.012925 -0.000961 0.000000 0.000000 0.000000
# 3 -0.003848 -0.000961 0.011768 0.000000 0.000000 0.000000
# 4 0.000000 0.000000 0.000000 0.049284 0.000000 0.000000
# 5 0.000000 0.000000 0.000000 0.000000 0.094270 0.000000
# 6 0.000000 0.000000 0.000000 0.000000 0.000000 0.029485
#
#
# Mechanical properties :
#
#
# Convention : Reuss Voigt Hill
#
# Bulk Modulus (GPa) = 39.09376 39.47444 39.28410
# Shear Modulus (GPa) = 20.99187 25.73354 23.36270
#
# Velocity S-wave (km/s) = 3.04878 3.37559 3.21634
# Velocity P-wave (km/s) = 5.45013 5.71593 5.58461
#
# Compressibility (1/GPa) = 0.02557953
#
# Stress axis : x y z
#
# Youngs Moduli (GPa) = 60.94733 77.37095 84.97394
#
# Poissons Ratio (x) = 0.22837 0.32696
# Poissons Ratio (y) = 0.17989 0.08168
# Poissons Ratio (z) = 0.23451 0.07437
#
# Static dielectric constant tensor:
#      x y z
#    x 1.841840 0.000000 0.000000 
#    y 0.000000 1.889890 0.000000 
#    z 0.000000 0.000000 1.869870 
# 
# From -- ./inp_files/5473.got.cif
#   From: 2010.05.17/outbox.cif.g08.bks.cpg/sg61_3_cif.got.tgz:5473.got - 2010.06.03 15:17:17.
