data_PCOD9460766
_publ_section_title
;
Structure prediction by ZEFSAII (Michael W. Deem and Ramdas Pophale) SiO2 
 PCOD9460766
Probable space group: P B C A
;
_chemical_formula_sum "Si O2"
_cell_formula_units_Z 64
_cell_length_a 10.482325
_cell_length_b 13.579965
_cell_length_c 17.046701
_cell_angle_alpha 90.000000
_cell_angle_beta 90.000000
_cell_angle_gamma 90.000000
_cell_volume 2426.591181
_symmetry_space_group_name_H-M "P B C A"
_symmetry_group_IT_number 61
_symmetry_cell_setting 'orthorhombic'
loop_
_space_group_symop_operation_xyz
x,y,z
1/2-x,-y,1/2+z
1/2+x,1/2-y,-z
-x,1/2+y,1/2-z
-x,-y,-z
1/2+x,y,1/2-z
1/2-x,1/2+y,z
x,1/2-y,1/2+z
loop_
_atom_site_type_symbol
_atom_site_label
_atom_site_fract_x
_atom_site_fract_y
_atom_site_fract_z
Si Si1 0.089757 0.788586 0.145974
Si Si2 0.968234 0.964022 0.198751
Si Si3 0.367227 0.597219 0.095175
Si Si4 0.689006 0.073964 0.924438
Si Si5 0.787308 0.362315 0.749629
Si Si6 0.418350 0.071868 0.861068
Si Si7 0.220175 0.113095 0.416350
Si Si8 0.949955 0.256493 0.527835
O O1 0.964363 0.855702 0.161058
O O2 0.216860 0.857014 0.127774
O O3 0.112043 0.718754 0.220496
O O4 0.072636 0.731906 0.063526
O O5 0.073160 0.940611 0.267092
O O6 0.020351 0.028659 0.127410
O O7 0.858789 0.033720 0.233920
O O8 0.270251 0.522631 0.054813
O O9 0.304871 0.632999 0.176289
O O10 0.417519 0.687512 0.045581
O O11 0.561803 0.038336 0.882724
O O12 0.637073 0.123644 0.004521
O O13 0.714279 0.336952 0.669136
O O14 0.414798 0.175737 0.906120
O O15 0.311377 0.999253 0.892954
O O16 0.349905 0.154335 0.453586
#
# Coordination Sequence:
#
# PCOD9460766 Si02
#       8
#     8   8   8   8   8   8   8   8
#     4  10  26  47  73 111 147 202 265 322 392 479
#     4  11  24  43  72 109 147 199 248 322 389 462
#     4  11  23  44  77 108 156 198 251 322 397 472
#     4  10  24  45  75 105 154 198 251 324 392 469
#     4  12  23  46  72 112 151 198 254 322 391 463
#     4  12  24  47  72 113 154 201 259 324 394 468
#     4  11  25  44  76 110 150 201 257 320 396 469
#     4  11  26  48  78 111 152 207 265 325 395 482
#
# _framework density 26.374447
#
# number of rings (size 3 to 8) (size 9 to 14) (size 15 to 20)
#    0.000    1.000    3.750    1.875    3.500    2.500 
#    0.000    1.250    0.000    0.000    0.000    0.000 
#    0.000    0.000    0.000    0.000    0.000    0.000 
#
# Total GULP energy -357283.888364 kJ/mol
# GULP energy per Si atom -5582.560756 kJ/mol
# Density = 2.631442 g / cm^3
# Si number density = 26.374447 Si / 1000 Ang^3
#
#
#
# Elastic Constant Matrix: (Units=GPa)
#
#
# Indices 1 2 3 4 5 6 
#
# 1 34.5278 35.8950 8.4094 0.0000 0.0000 0.0000
# 2 35.8950 129.0241 41.6836 0.0000 0.0000 0.0000
# 3 8.4094 41.6836 151.9723 0.0000 0.0000 0.0000
# 4 0.0000 0.0000 0.0000 43.0324 0.0000 0.0000
# 5 0.0000 0.0000 0.0000 0.0000 34.0605 0.0000
# 6 0.0000 0.0000 0.0000 0.0000 0.0000 30.1231
#
#
#
# Elastic Compliance Matrix: (Units=1/GPa)
#
#
# Indices 1 2 3 4 5 6 
#
# 1 0.040869 -0.011674 0.000940 0.000000 0.000000 0.000000
# 2 -0.011674 0.011839 -0.002601 0.000000 0.000000 0.000000
# 3 0.000940 -0.002601 0.007242 0.000000 0.000000 0.000000
# 4 0.000000 0.000000 0.000000 0.023238 0.000000 0.000000
# 5 0.000000 0.000000 0.000000 0.000000 0.029360 0.000000
# 6 0.000000 0.000000 0.000000 0.000000 0.000000 0.033197
#
#
# Mechanical properties :
#
#
# Convention : Reuss Voigt Hill
#
# Bulk Modulus (GPa) = 30.04785 54.16670 42.10727
# Shear Modulus (GPa) = 27.24698 36.74561 31.99629
#
# Velocity S-wave (km/s) = 3.21765 3.73665 3.48682
# Velocity P-wave (km/s) = 5.02214 6.26090 5.67542
#
# Compressibility (1/GPa) = 0.03328025
#
# Stress axis : x y z
#
# Youngs Moduli (GPa) = 24.46833 84.46991 138.09176
#
# Poissons Ratio (x) = 0.98608 -0.12987
# Poissons Ratio (y) = 0.28564 0.35920
# Poissons Ratio (z) = -0.02301 0.21972
#
# Static dielectric constant tensor:
#      x y z
#    x 2.180990 0.000000 0.000000 
#    y 0.000000 2.127080 0.000000 
#    z 0.000000 0.000000 2.063250 
# 
# From -- ./inp_files/9300.got.cif
#   From: 2010.05.17/outbox.cif.g08.bks.cpg/sg61_5_cif.got.tgz:9300.got - 2010.06.03 15:17:17.
