data_PCOD9460904
_publ_section_title
;
Structure prediction by ZEFSAII (Michael W. Deem and Ramdas Pophale) SiO2 
 PCOD9460904
Probable space group: P B C A
;
_chemical_formula_sum "Si O2"
_cell_formula_units_Z 56
_cell_length_a 14.411874
_cell_length_b 14.701745
_cell_length_c 11.297047
_cell_angle_alpha 90.000000
_cell_angle_beta 90.000000
_cell_angle_gamma 90.000000
_cell_volume 2393.614890
_symmetry_space_group_name_H-M "P B C A"
_symmetry_group_IT_number 61
_symmetry_cell_setting 'orthorhombic'
loop_
_space_group_symop_operation_xyz
x,y,z
1/2-x,-y,1/2+z
1/2+x,1/2-y,-z
-x,1/2+y,1/2-z
-x,-y,-z
1/2+x,y,1/2-z
1/2-x,1/2+y,z
x,1/2-y,1/2+z
loop_
_atom_site_type_symbol
_atom_site_label
_atom_site_fract_x
_atom_site_fract_y
_atom_site_fract_z
Si Si1 0.068849 0.102364 0.427105
Si Si2 0.271019 0.148841 0.412755
Si Si3 0.295698 0.838196 0.390764
Si Si4 0.116379 0.564074 0.799880
Si Si5 0.433651 0.630953 0.700609
Si Si6 0.382021 0.420496 0.696747
Si Si7 0.190480 0.023349 0.076671
O O1 0.166621 0.128231 0.367060
O O2 0.079560 0.140367 0.559792
O O3 0.970982 0.124888 0.366479
O O4 0.076952 0.992457 0.412091
O O5 0.259276 0.253754 0.447459
O O6 0.346330 0.133461 0.310959
O O7 0.291097 0.073144 0.511851
O O8 0.217448 0.900715 0.330270
O O9 0.366698 0.813556 0.285806
O O10 0.346743 0.900662 0.487046
O O11 0.124776 0.500222 0.685734
O O12 0.042389 0.642509 0.774756
O O13 0.411923 0.524183 0.729106
O O14 0.289638 0.436749 0.618750
#
# Coordination Sequence:
#
# PCOD9460904 Si02
#       7
#     8   8   8   8   8   8   8
#     4  11  21  42  70  98 126 184 226 275 338 406
#     4  12  25  42  67 103 137 178 224 280 341 406
#     4  12  25  42  67 103 136 176 223 284 342 403
#     4  11  22  41  71  96 130 180 229 274 335 408
#     4  11  21  42  71  95 131 179 231 275 336 406
#     4  11  21  40  72  93 130 176 230 265 334 408
#     4  12  21  45  67  98 138 179 221 280 342 399
#
# _framework density 23.395575999999998
#
# number of rings (size 3 to 8) (size 9 to 14) (size 15 to 20)
#    0.000    0.571    7.143    2.571    0.000    4.000 
#    0.000    1.429    0.000    0.000    0.000    0.000 
#    0.000    0.000    0.000    0.000    0.000    0.000 
#
# Total GULP energy -312778.811991 kJ/mol
# GULP energy per Si atom -5585.335928 kJ/mol
# Density = 2.334233 g / cm^3
# Si number density = 23.395576 Si / 1000 Ang^3
#
#
#
# Elastic Constant Matrix: (Units=GPa)
#
#
# Indices 1 2 3 4 5 6 
#
# 1 86.5434 -30.7849 24.5085 0.0000 0.0000 0.0000
# 2 -30.7849 59.6800 22.4036 0.0000 0.0000 0.0000
# 3 24.5085 22.4036 93.0060 0.0000 0.0000 0.0000
# 4 0.0000 0.0000 0.0000 4.7640 0.0000 0.0000
# 5 0.0000 0.0000 0.0000 0.0000 39.9628 0.0000
# 6 0.0000 0.0000 0.0000 0.0000 0.0000 6.0734
#
#
#
# Elastic Compliance Matrix: (Units=1/GPa)
#
#
# Indices 1 2 3 4 5 6 
#
# 1 0.018087 0.012224 -0.007711 0.000000 0.000000 0.000000
# 2 0.012224 0.026684 -0.009649 0.000000 0.000000 0.000000
# 3 -0.007711 -0.009649 0.015108 0.000000 0.000000 0.000000
# 4 0.000000 0.000000 0.000000 0.209908 0.000000 0.000000
# 5 0.000000 0.000000 0.000000 0.000000 0.025023 0.000000
# 6 0.000000 0.000000 0.000000 0.000000 0.000000 0.164653
#
#
# Mechanical properties :
#
#
# Convention : Reuss Voigt Hill
#
# Bulk Modulus (GPa) = 20.15790 30.16489 25.16139
# Shear Modulus (GPa) = 10.28236 25.03351 17.65793
#
# Velocity S-wave (km/s) = 2.09870 3.27465 2.75026
# Velocity P-wave (km/s) = 3.80888 5.21720 4.56764
#
# Compressibility (1/GPa) = 0.04960835
#
# Stress axis : x y z
#
# Youngs Moduli (GPa) = 55.28831 37.47557 66.18910
#
# Poissons Ratio (x) = -0.45812 0.51038
# Poissons Ratio (y) = -0.67587 0.63866
# Poissons Ratio (z) = 0.42632 0.36160
#
# Static dielectric constant tensor:
#      x y z
#    x 1.895530 0.000000 0.000000 
#    y 0.000000 1.998060 0.000000 
#    z 0.000000 0.000000 1.910810 
# 
# From -- ./inp_files/5834.got.cif
#   From: 2010.05.17/outbox.cif.g08.bks.cpg/sg61_3_cif.got.tgz:5834.got - 2010.06.03 15:17:17.
