data_PCOD9460149
_publ_section_title
;
Structure prediction by ZEFSAII (Michael W. Deem and Ramdas Pophale) SiO2 
 PCOD9460149
Probable space group: P B C A
;
_chemical_formula_sum "Si O2"
_cell_formula_units_Z 32
_cell_length_a 8.453701
_cell_length_b 14.629276
_cell_length_c 11.635013
_cell_angle_alpha 90.000000
_cell_angle_beta 90.000000
_cell_angle_gamma 90.000000
_cell_volume 1438.919803
_symmetry_space_group_name_H-M "P B C A"
_symmetry_group_IT_number 61
_symmetry_cell_setting 'orthorhombic'
loop_
_space_group_symop_operation_xyz
x,y,z
1/2-x,-y,1/2+z
1/2+x,1/2-y,-z
-x,1/2+y,1/2-z
-x,-y,-z
1/2+x,y,1/2-z
1/2-x,1/2+y,z
x,1/2-y,1/2+z
loop_
_atom_site_type_symbol
_atom_site_label
_atom_site_fract_x
_atom_site_fract_y
_atom_site_fract_z
Si Si1 0.173863 0.979393 0.361786
Si Si2 0.792990 0.685477 0.520029
Si Si3 0.137791 0.581805 0.185859
Si Si4 0.871790 0.367136 0.561681
O O1 0.198910 0.873672 0.384992
O O2 0.236218 0.009769 0.236822
O O3 0.292524 0.033103 0.449327
O O4 0.002737 0.024026 0.370142
O O5 0.713603 0.652325 0.401548
O O6 0.762430 0.791543 0.540912
O O7 0.976566 0.657582 0.513578
O O8 0.081743 0.633060 0.302583
#
# Coordination Sequence:
#
# PCOD9460149 Si02
#       4
#     8   8   8   8
#     4  10  22  43  65  95 128 176 211 275 321 386
#     4  12  22  43  69  93 134 176 212 271 337 375
#     4  10  21  44  61  93 135 157 224 272 303 406
#     4  10  23  41  63  99 131 168 224 268 318 394
#
# _framework density 22.238904999999999
#
# number of rings (size 3 to 8) (size 9 to 14) (size 15 to 20)
#    1.500    0.000    2.500    3.000    0.000    0.000 
#   18.000    0.000    0.000    0.000    0.000    0.000 
#    0.000    0.000    0.000    0.000    0.000    0.000 
#
# Total GULP energy -178580.255578 kJ/mol
# GULP energy per Si atom -5580.632987 kJ/mol
# Density = 2.218829 g / cm^3
# Si number density = 22.238905 Si / 1000 Ang^3
#
#
#
# Elastic Constant Matrix: (Units=GPa)
#
#
# Indices 1 2 3 4 5 6 
#
# 1 72.0481 -13.1001 -12.3470 0.0000 0.0000 0.0000
# 2 -13.1001 53.0351 -7.7729 0.0000 0.0000 0.0000
# 3 -12.3470 -7.7729 60.4182 0.0000 0.0000 0.0000
# 4 0.0000 0.0000 0.0000 15.8028 0.0000 0.0000
# 5 0.0000 0.0000 0.0000 0.0000 32.7332 0.0000
# 6 0.0000 0.0000 0.0000 0.0000 0.0000 22.4707
#
#
#
# Elastic Compliance Matrix: (Units=1/GPa)
#
#
# Indices 1 2 3 4 5 6 
#
# 1 0.015296 0.004318 0.003681 0.000000 0.000000 0.000000
# 2 0.004318 0.020437 0.003512 0.000000 0.000000 0.000000
# 3 0.003681 0.003512 0.017755 0.000000 0.000000 0.000000
# 4 0.000000 0.000000 0.000000 0.063280 0.000000 0.000000
# 5 0.000000 0.000000 0.000000 0.000000 0.030550 0.000000
# 6 0.000000 0.000000 0.000000 0.000000 0.000000 0.044502
#
#
# Mechanical properties :
#
#
# Convention : Reuss Voigt Hill
#
# Bulk Modulus (GPa) = 13.07046 13.22904 13.14975
# Shear Modulus (GPa) = 25.73316 28.78276 27.25796
#
# Velocity S-wave (km/s) = 3.40534 3.60148 3.50478
# Velocity P-wave (km/s) = 4.62081 4.82241 4.72269
#
# Compressibility (1/GPa) = 0.07650841
#
# Stress axis : x y z
#
# Youngs Moduli (GPa) = 65.37858 48.93180 56.32103
#
# Poissons Ratio (x) = -0.21127 -0.20733
# Poissons Ratio (y) = -0.28228 -0.19777
# Poissons Ratio (z) = -0.24068 -0.17183
#
# Static dielectric constant tensor:
#      x y z
#    x 1.833530 0.000000 0.000000 
#    y 0.000000 1.738500 0.000000 
#    z 0.000000 0.000000 1.841580 
# 
# From -- ./inp_files/2030.got.cif
#   From: 2010.05.17/outbox.cif.g08.bks.cpg/sg61_2_cif.got.tgz:2030.got - 2010.06.03 15:17:17.
