data_PCOD9460090
_publ_section_title
;
Structure prediction by ZEFSAII (Michael W. Deem and Ramdas Pophale) SiO2 
 PCOD9460090
Probable space group: P B C A
;
_chemical_formula_sum "Si O2"
_cell_formula_units_Z 64
_cell_length_a 9.050923
_cell_length_b 19.782028
_cell_length_c 14.459747
_cell_angle_alpha 90.000000
_cell_angle_beta 90.000000
_cell_angle_gamma 90.000000
_cell_volume 2588.954254
_symmetry_space_group_name_H-M "P B C A"
_symmetry_group_IT_number 61
_symmetry_cell_setting 'orthorhombic'
loop_
_space_group_symop_operation_xyz
x,y,z
1/2-x,-y,1/2+z
1/2+x,1/2-y,-z
-x,1/2+y,1/2-z
-x,-y,-z
1/2+x,y,1/2-z
1/2-x,1/2+y,z
x,1/2-y,1/2+z
loop_
_atom_site_type_symbol
_atom_site_label
_atom_site_fract_x
_atom_site_fract_y
_atom_site_fract_z
Si Si1 0.076686 0.941857 0.592289
Si Si2 0.654772 0.769042 0.039753
Si Si3 0.788504 0.860477 0.185583
Si Si4 0.823678 0.697872 0.882402
Si Si5 0.961802 0.040725 0.756561
Si Si6 0.169194 0.407062 0.691199
Si Si7 0.209298 0.067836 0.508504
Si Si8 0.640261 0.630534 0.137419
O O1 0.200004 0.889521 0.622103
O O2 0.934237 0.907735 0.550125
O O3 0.160435 0.991576 0.522754
O O4 0.032085 0.990956 0.678162
O O5 0.758368 0.825374 0.087450
O O6 0.484085 0.785280 0.070925
O O7 0.688671 0.701207 0.097594
O O8 0.703352 0.744430 0.936606
O O9 0.816730 0.806077 0.269996
O O10 0.643781 0.904959 0.208709
O O11 0.919347 0.915249 0.188922
O O12 0.786736 0.619081 0.906596
O O13 0.874280 0.986195 0.818227
O O14 0.246352 0.397190 0.788491
O O15 0.022177 0.365319 0.678733
O O16 0.353658 0.078237 0.447703
#
# Coordination Sequence:
#
# PCOD9460090 Si02
#       8
#     8   8   8   8   8   8   8   8
#     4  11  21  38  67  96 134 173 217 274 347 411
#     4  11  28  46  70 100 135 186 235 292 343 409
#     4  12  24  44  72  99 137 182 239 287 350 411
#     4  11  25  48  67 100 136 183 238 287 347 409
#     4  12  21  39  69  99 132 178 227 284 346 417
#     4  12  22  41  63 102 131 173 219 274 338 416
#     4  10  21  42  63  92 133 176 215 280 340 406
#     4  11  24  40  65  92 136 170 223 274 338 409
#
# _framework density 24.720405
#
# number of rings (size 3 to 8) (size 9 to 14) (size 15 to 20)
#    0.000    0.750    6.250    0.000    3.500    1.500 
#    2.250    0.000    0.000    0.000    0.000    0.000 
#    0.000    0.000    0.000    0.000    0.000    0.000 
#
# Total GULP energy -357729.494569 kJ/mol
# GULP energy per Si atom -5589.523353 kJ/mol
# Density = 2.466414 g / cm^3
# Si number density = 24.720405 Si / 1000 Ang^3
#
#
#
# Elastic Constant Matrix: (Units=GPa)
#
#
# Indices 1 2 3 4 5 6 
#
# 1 68.8799 8.7549 5.4704 0.0000 0.0000 0.0000
# 2 8.7549 91.9933 9.5988 0.0000 0.0000 0.0000
# 3 5.4704 9.5988 59.3322 0.0000 0.0000 0.0000
# 4 0.0000 0.0000 0.0000 24.4132 0.0000 0.0000
# 5 0.0000 0.0000 0.0000 0.0000 20.0785 0.0000
# 6 0.0000 0.0000 0.0000 0.0000 0.0000 37.7034
#
#
#
# Elastic Compliance Matrix: (Units=1/GPa)
#
#
# Indices 1 2 3 4 5 6 
#
# 1 0.014773 -0.001286 -0.001154 0.000000 0.000000 0.000000
# 2 -0.001286 0.011169 -0.001688 0.000000 0.000000 0.000000
# 3 -0.001154 -0.001688 0.017234 0.000000 0.000000 0.000000
# 4 0.000000 0.000000 0.000000 0.040961 0.000000 0.000000
# 5 0.000000 0.000000 0.000000 0.000000 0.049805 0.000000
# 6 0.000000 0.000000 0.000000 0.000000 0.000000 0.026523
#
#
# Mechanical properties :
#
#
# Convention : Reuss Voigt Hill
#
# Bulk Modulus (GPa) = 28.63707 29.76150 29.19928
# Shear Modulus (GPa) = 27.72226 29.53111 28.62668
#
# Velocity S-wave (km/s) = 3.35241 3.46005 3.40666
# Velocity P-wave (km/s) = 5.15698 5.29415 5.22601
#
# Compressibility (1/GPa) = 0.03491978
#
# Stress axis : x y z
#
# Youngs Moduli (GPa) = 67.69071 89.53458 58.02548
#
# Poissons Ratio (x) = 0.11510 0.06697
# Poissons Ratio (y) = 0.08702 0.09797
# Poissons Ratio (z) = 0.07812 0.15117
#
# Static dielectric constant tensor:
#      x y z
#    x 2.039780 0.000000 0.000000 
#    y 0.000000 1.939540 0.000000 
#    z 0.000000 0.000000 2.050580 
# 
# From -- ./inp_files/9072.got.cif
#   From: 2010.05.17/outbox.cif.g08.bks.cpg/sg61_5_cif.got.tgz:9072.got - 2010.06.03 15:17:17.
