data_PCOD9460107
_publ_section_title
;
Structure prediction by ZEFSAII (Michael W. Deem and Ramdas Pophale) SiO2 
 PCOD9460107
Probable space group: P B C A
;
_chemical_formula_sum "Si O2"
_cell_formula_units_Z 56
_cell_length_a 18.684358
_cell_length_b 5.112836
_cell_length_c 20.956137
_cell_angle_alpha 90.000000
_cell_angle_beta 90.000000
_cell_angle_gamma 90.000000
_cell_volume 2001.940988
_symmetry_space_group_name_H-M "P B C A"
_symmetry_group_IT_number 61
_symmetry_cell_setting 'orthorhombic'
loop_
_space_group_symop_operation_xyz
x,y,z
1/2-x,-y,1/2+z
1/2+x,1/2-y,-z
-x,1/2+y,1/2-z
-x,-y,-z
1/2+x,y,1/2-z
1/2-x,1/2+y,z
x,1/2-y,1/2+z
loop_
_atom_site_type_symbol
_atom_site_label
_atom_site_fract_x
_atom_site_fract_y
_atom_site_fract_z
Si Si1 0.298366 0.114627 0.337475
Si Si2 0.800707 0.154081 0.302156
Si Si3 0.697686 0.774854 0.527109
Si Si4 0.405022 0.593795 0.536513
Si Si5 0.451375 0.684297 0.262161
Si Si6 0.966284 0.708771 0.094715
Si Si7 0.898084 0.506787 0.366513
O O1 0.267535 0.821853 0.338377
O O2 0.333968 0.154609 0.269203
O O3 0.337159 0.193009 0.402206
O O4 0.754703 0.894771 0.308700
O O5 0.860708 0.230319 0.352230
O O6 0.754409 0.534136 0.521476
O O7 0.635266 0.673786 0.481715
O O8 0.479351 0.520153 0.571469
O O9 0.417846 0.734928 0.467945
O O10 0.364790 0.796911 0.582442
O O11 0.508447 0.452857 0.252513
O O12 0.428489 0.670378 0.336522
O O13 0.397648 0.639886 0.203582
O O14 0.021943 0.941758 0.109790
#
# Coordination Sequence:
#
# PCOD9460107 Si02
#       7
#     8   8   8   8   8   8   8
#     4   8  16  36  58  87 126 165 216 261 316 390
#     4  10  23  39  65  97 134 175 220 280 341 400
#     4  10  23  42  66  99 134 177 225 276 337 411
#     4  11  24  43  70  95 140 178 227 282 344 404
#     4  10  21  42  67  94 127 168 217 274 325 391
#     4  10  24  45  66  99 134 181 231 276 342 405
#     4  11  24  41  69  95 140 174 232 279 343 405
#
# _framework density 27.972850999999999
#
# number of rings (size 3 to 8) (size 9 to 14) (size 15 to 20)
#    0.000    2.000    1.429    0.429    6.000    1.143 
#    0.000    0.000    3.143    0.000    0.000    0.000 
#    0.000    0.000    0.000    0.000    0.000    0.000 
#
# Total GULP energy -313889.233964 kJ/mol
# GULP energy per Si atom -5605.164892 kJ/mol
# Density = 2.790918 g / cm^3
# Si number density = 27.972851 Si / 1000 Ang^3
#
#
#
# Elastic Constant Matrix: (Units=GPa)
#
#
# Indices 1 2 3 4 5 6 
#
# 1 68.8370 40.3483 45.2139 0.0000 0.0000 0.0000
# 2 40.3483 143.3559 21.9767 0.0000 0.0000 0.0000
# 3 45.2139 21.9767 231.2613 0.0000 0.0000 0.0000
# 4 0.0000 0.0000 0.0000 47.0776 0.0000 0.0000
# 5 0.0000 0.0000 0.0000 0.0000 34.9803 0.0000
# 6 0.0000 0.0000 0.0000 0.0000 0.0000 33.7783
#
#
#
# Elastic Compliance Matrix: (Units=1/GPa)
#
#
# Indices 1 2 3 4 5 6 
#
# 1 0.019686 -0.005024 -0.003371 0.000000 0.000000 0.000000
# 2 -0.005024 0.008361 0.000188 0.000000 0.000000 0.000000
# 3 -0.003371 0.000188 0.004965 0.000000 0.000000 0.000000
# 4 0.000000 0.000000 0.000000 0.021242 0.000000 0.000000
# 5 0.000000 0.000000 0.000000 0.000000 0.028588 0.000000
# 6 0.000000 0.000000 0.000000 0.000000 0.000000 0.029605
#
#
# Mechanical properties :
#
#
# Convention : Reuss Voigt Hill
#
# Bulk Modulus (GPa) = 60.25114 73.17025 66.71069
# Shear Modulus (GPa) = 37.20395 45.56158 41.38276
#
# Velocity S-wave (km/s) = 3.65088 4.04019 3.85046
# Velocity P-wave (km/s) = 6.27358 6.92666 6.60819
#
# Compressibility (1/GPa) = 0.01659720
#
# Stress axis : x y z
#
# Youngs Moduli (GPa) = 50.79673 119.60438 201.39258
#
# Poissons Ratio (x) = 0.60089 0.67898
# Poissons Ratio (y) = 0.25520 -0.03780
# Poissons Ratio (z) = 0.17126 -0.02245
#
# Static dielectric constant tensor:
#      x y z
#    x 2.129380 0.000000 0.000000 
#    y 0.000000 2.206120 0.000000 
#    z 0.000000 0.000000 2.226220 
# 
# From -- ./inp_files/10631.got.cif
#   From: 2010.05.17/outbox.cif.g08.bks.cpg/sg61_6_cif.got.tgz:10631.got - 2010.06.03 15:17:17.
