data_PCOD9460500
_publ_section_title
;
Structure prediction by ZEFSAII (Michael W. Deem and Ramdas Pophale) SiO2 
 PCOD9460500
Probable space group: P B C A
;
_chemical_formula_sum "Si O2"
_cell_formula_units_Z 32
_cell_length_a 17.155485
_cell_length_b 4.929490
_cell_length_c 18.096218
_cell_angle_alpha 90.000000
_cell_angle_beta 90.000000
_cell_angle_gamma 90.000000
_cell_volume 1530.357195
_symmetry_space_group_name_H-M "P B C A"
_symmetry_group_IT_number 61
_symmetry_cell_setting 'orthorhombic'
loop_
_space_group_symop_operation_xyz
x,y,z
1/2-x,-y,1/2+z
1/2+x,1/2-y,-z
-x,1/2+y,1/2-z
-x,-y,-z
1/2+x,y,1/2-z
1/2-x,1/2+y,z
x,1/2-y,1/2+z
loop_
_atom_site_type_symbol
_atom_site_label
_atom_site_fract_x
_atom_site_fract_y
_atom_site_fract_z
Si Si1 0.592085 0.639740 0.578374
Si Si2 0.556808 0.746079 0.923854
Si Si3 0.009632 0.599664 0.300664
Si Si4 0.700021 0.432950 0.463845
O O1 0.522302 0.421022 0.581167
O O2 0.570423 0.837277 0.509364
O O3 0.585900 0.798557 0.654642
O O4 0.668541 0.491789 0.547341
O O5 0.548308 0.513919 0.863704
O O6 0.629669 0.951412 0.914108
O O7 0.023153 0.351972 0.245187
O O8 0.725609 0.126872 0.452287
#
# Coordination Sequence:
#
# PCOD9460500 Si02
#       4
#     8   8   8   8
#     4   9  21  39  65  89 123 153 208 257 291 349
#     4   9  21  39  65  89 123 153 208 257 291 349
#     4  12  23  36  61  94 122 156 200 254 301 352
#     4  10  23  35  62  94 120 154 198 254 303 350
#
# _framework density 20.910153999999999
#
# number of rings (size 3 to 8) (size 9 to 14) (size 15 to 20)
#    1.500    0.500    2.500    0.750    7.000    0.000 
#    0.000    0.000    0.000    9.000    0.000    0.000 
#    0.000    0.000    0.000    0.000    0.000    0.000 
#
# Total GULP energy -178296.391489 kJ/mol
# GULP energy per Si atom -5571.762234 kJ/mol
# Density = 2.086256 g / cm^3
# Si number density = 20.910154 Si / 1000 Ang^3
#
#
#
# Elastic Constant Matrix: (Units=GPa)
#
#
# Indices 1 2 3 4 5 6 
#
# 1 40.4688 10.7249 -17.2802 0.0000 0.0000 0.0000
# 2 10.7249 94.2775 34.1653 0.0000 0.0000 0.0000
# 3 -17.2802 34.1653 93.0503 0.0000 0.0000 0.0000
# 4 0.0000 0.0000 0.0000 147.9208 0.0000 0.0000
# 5 0.0000 0.0000 0.0000 0.0000 8.4177 0.0000
# 6 0.0000 0.0000 0.0000 0.0000 0.0000 34.1174
#
#
#
# Elastic Compliance Matrix: (Units=1/GPa)
#
#
# Indices 1 2 3 4 5 6 
#
# 1 0.029678 -0.006198 0.007787 0.000000 0.000000 0.000000
# 2 -0.006198 0.013529 -0.006119 0.000000 0.000000 0.000000
# 3 0.007787 -0.006119 0.014440 0.000000 0.000000 0.000000
# 4 0.000000 0.000000 0.000000 0.006760 0.000000 0.000000
# 5 0.000000 0.000000 0.000000 0.000000 0.118797 0.000000
# 6 0.000000 0.000000 0.000000 0.000000 0.000000 0.029311
#
#
# Mechanical properties :
#
#
# Convention : Reuss Voigt Hill
#
# Bulk Modulus (GPa) = 20.58117 31.44629 26.01373
# Shear Modulus (GPa) = 21.02868 51.43696 36.23282
#
# Velocity S-wave (km/s) = 3.17467 4.96512 4.16719
# Velocity P-wave (km/s) = 4.82722 6.92397 5.96839
#
# Compressibility (1/GPa) = 0.04858811
#
# Stress axis : x y z
#
# Youngs Moduli (GPa) = 33.69478 73.91293 69.25382
#
# Poissons Ratio (x) = 0.45813 -0.53930
# Poissons Ratio (y) = 0.20885 0.42374
# Poissons Ratio (z) = -0.26239 0.45225
#
# Static dielectric constant tensor:
#      x y z
#    x 1.775710 0.000000 0.000000 
#    y 0.000000 1.808010 0.000000 
#    z 0.000000 0.000000 1.800930 
# 
# From -- ./inp_files/10500.got.cif
#   From: 2010.05.17/outbox.cif.g08.bks.cpg/sg61_6_cif.got.tgz:10500.got - 2010.06.03 15:17:17.
