data_PCOD9460919
_publ_section_title
;
Structure prediction by ZEFSAII (Michael W. Deem and Ramdas Pophale) SiO2 
 PCOD9460919
Probable space group: P B C A
;
_chemical_formula_sum "Si O2"
_cell_formula_units_Z 40
_cell_length_a 12.709103
_cell_length_b 7.910964
_cell_length_c 16.175313
_cell_angle_alpha 90.000000
_cell_angle_beta 90.000000
_cell_angle_gamma 90.000000
_cell_volume 1626.286290
_symmetry_space_group_name_H-M "P B C A"
_symmetry_group_IT_number 61
_symmetry_cell_setting 'orthorhombic'
loop_
_space_group_symop_operation_xyz
x,y,z
1/2-x,-y,1/2+z
1/2+x,1/2-y,-z
-x,1/2+y,1/2-z
-x,-y,-z
1/2+x,y,1/2-z
1/2-x,1/2+y,z
x,1/2-y,1/2+z
loop_
_atom_site_type_symbol
_atom_site_label
_atom_site_fract_x
_atom_site_fract_y
_atom_site_fract_z
Si Si1 0.858570 0.312526 0.424792
Si Si2 0.284904 0.488596 0.476406
Si Si3 0.934780 0.969955 0.127235
Si Si4 0.370812 0.240016 0.761012
Si Si5 0.640452 0.358904 0.682321
O O1 0.847396 0.178661 0.498732
O O2 0.753670 0.422436 0.439693
O O3 0.864510 0.223409 0.336385
O O4 0.960896 0.430487 0.424435
O O5 0.174568 0.464593 0.425511
O O6 0.356910 0.596771 0.415517
O O7 0.927932 0.809918 0.190476
O O8 0.940802 0.141789 0.179607
O O9 0.254906 0.295370 0.791786
O O10 0.382906 0.038440 0.775312
#
# Coordination Sequence:
#
# PCOD9460919 Si02
#       5
#     8   8   8   8   8
#     4  12  26  43  72 108 136 183 242 296 338 417
#     4  11  22  47  69 101 141 183 233 293 347 413
#     4  11  25  46  71  99 146 186 233 283 359 416
#     4  11  23  43  70 101 142 182 234 283 348 416
#     4  11  21  45  73  93 144 196 217 280 364 410
#
# _framework density 24.595915000000002
#
# number of rings (size 3 to 8) (size 9 to 14) (size 15 to 20)
#    0.000    0.800    6.000    3.000    2.800    0.800 
#    3.600    0.000    0.000    0.000    0.000    0.000 
#    0.000    0.000    0.000    0.000    0.000    0.000 
#
# Total GULP energy -223490.983143 kJ/mol
# GULP energy per Si atom -5587.274579 kJ/mol
# Density = 2.453993 g / cm^3
# Si number density = 24.595915 Si / 1000 Ang^3
#
#
#
# Elastic Constant Matrix: (Units=GPa)
#
#
# Indices 1 2 3 4 5 6 
#
# 1 22.8018 -12.1439 4.8911 0.0000 0.0000 0.0000
# 2 -12.1439 84.1795 -1.6298 0.0000 0.0000 0.0000
# 3 4.8911 -1.6298 81.1030 0.0000 0.0000 0.0000
# 4 0.0000 0.0000 0.0000 64.4048 0.0000 0.0000
# 5 0.0000 0.0000 0.0000 0.0000 27.3350 0.0000
# 6 0.0000 0.0000 0.0000 0.0000 0.0000 34.5968
#
#
#
# Elastic Compliance Matrix: (Units=1/GPa)
#
#
# Indices 1 2 3 4 5 6 
#
# 1 0.048117 0.006888 -0.002763 0.000000 0.000000 0.000000
# 2 0.006888 0.012870 -0.000157 0.000000 0.000000 0.000000
# 3 -0.002763 -0.000157 0.012494 0.000000 0.000000 0.000000
# 4 0.000000 0.000000 0.000000 0.015527 0.000000 0.000000
# 5 0.000000 0.000000 0.000000 0.000000 0.036583 0.000000
# 6 0.000000 0.000000 0.000000 0.000000 0.000000 0.028904
#
#
# Mechanical properties :
#
#
# Convention : Reuss Voigt Hill
#
# Bulk Modulus (GPa) = 12.28249 18.92433 15.60341
# Shear Modulus (GPa) = 28.78549 38.39844 33.59196
#
# Velocity S-wave (km/s) = 3.42473 3.95545 3.69962
# Velocity P-wave (km/s) = 4.54345 5.34524 4.96057
#
# Compressibility (1/GPa) = 0.08141673
#
# Stress axis : x y z
#
# Youngs Moduli (GPa) = 20.78246 77.69997 80.04157
#
# Poissons Ratio (x) = -0.53520 0.22119
# Poissons Ratio (y) = -0.14315 0.01255
# Poissons Ratio (z) = 0.05743 0.01218
#
# Static dielectric constant tensor:
#      x y z
#    x 2.027030 0.000000 0.000000 
#    y 0.000000 2.025660 0.000000 
#    z 0.000000 0.000000 1.992920 
# 
# From -- ./inp_files/7706.got.cif
#   From: 2010.05.17/outbox.cif.g08.bks.cpg/sg61_4_cif.got.tgz:7706.got - 2010.06.03 15:17:17.
