data_PCOD9460014
_publ_section_title
;
Structure prediction by ZEFSAII (Michael W. Deem and Ramdas Pophale) SiO2 
 PCOD9460014
Probable space group: P B C A
;
_chemical_formula_sum "Si O2"
_cell_formula_units_Z 64
_cell_length_a 8.607916
_cell_length_b 21.421289
_cell_length_c 13.860471
_cell_angle_alpha 90.000000
_cell_angle_beta 90.000000
_cell_angle_gamma 90.000000
_cell_volume 2555.769066
_symmetry_space_group_name_H-M "P B C A"
_symmetry_group_IT_number 61
_symmetry_cell_setting 'orthorhombic'
loop_
_space_group_symop_operation_xyz
x,y,z
1/2-x,-y,1/2+z
1/2+x,1/2-y,-z
-x,1/2+y,1/2-z
-x,-y,-z
1/2+x,y,1/2-z
1/2-x,1/2+y,z
x,1/2-y,1/2+z
loop_
_atom_site_type_symbol
_atom_site_label
_atom_site_fract_x
_atom_site_fract_y
_atom_site_fract_z
Si Si1 0.659385 0.013320 0.845222
Si Si2 0.337450 0.579802 0.013883
Si Si3 0.671836 0.597801 0.970480
Si Si4 0.026259 0.733685 0.542930
Si Si5 0.310124 0.261995 0.735708
Si Si6 0.953976 0.844802 0.801975
Si Si7 0.334433 0.953962 0.834512
Si Si8 0.688075 0.818057 0.096551
O O1 0.748840 0.971961 0.925742
O O2 0.477623 0.000276 0.855544
O O3 0.718387 0.988503 0.740898
O O4 0.718750 0.080988 0.879540
O O5 0.393294 0.627305 0.098362
O O6 0.499792 0.565871 0.960379
O O7 0.219689 0.612928 0.940635
O O8 0.628582 0.671031 0.972494
O O9 0.749705 0.571826 0.069504
O O10 0.097496 0.764990 0.637306
O O11 0.050131 0.783291 0.458567
O O12 0.848743 0.716229 0.563678
O O13 0.135140 0.280232 0.715114
O O14 0.370679 0.321217 0.798401
O O15 0.327427 0.197496 0.791540
O O16 0.917454 0.896641 0.722171
#
# Coordination Sequence:
#
# PCOD9460014 Si02
#       8
#     8   8   8   8   8   8   8   8
#     4  11  24  44  68  99 123 168 220 269 324 383
#     4  10  21  40  66  94 126 170 217 265 324 376
#     4  11  24  45  65  95 131 170 216 270 320 385
#     4  11  25  42  62  97 131 173 212 260 323 385
#     4  12  22  38  59  95 130 170 207 259 319 385
#     4  11  20  38  65  92 128 166 216 261 307 380
#     4  11  23  43  70  97 124 168 220 272 318 376
#     4  11  23  40  62  91 133 168 211 264 322 382
#
# _framework density 25.041384999999998
#
# number of rings (size 3 to 8) (size 9 to 14) (size 15 to 20)
#    0.000    1.000    2.500    6.750    0.000    0.000 
#    6.750    0.000    0.000    0.000    0.000    0.000 
#    0.000    0.000    0.000    0.000    0.000    0.000 
#
# Total GULP energy -358237.842710 kJ/mol
# GULP energy per Si atom -5597.466292 kJ/mol
# Density = 2.498439 g / cm^3
# Si number density = 25.041385 Si / 1000 Ang^3
#
#
#
# Elastic Constant Matrix: (Units=GPa)
#
#
# Indices 1 2 3 4 5 6 
#
# 1 74.2457 11.1121 0.8843 0.0000 0.0000 0.0000
# 2 11.1121 47.8329 17.0067 0.0000 0.0000 0.0000
# 3 0.8843 17.0067 75.2928 0.0000 0.0000 0.0000
# 4 0.0000 0.0000 0.0000 38.3990 0.0000 0.0000
# 5 0.0000 0.0000 0.0000 0.0000 30.2010 0.0000
# 6 0.0000 0.0000 0.0000 0.0000 0.0000 38.5282
#
#
#
# Elastic Compliance Matrix: (Units=1/GPa)
#
#
# Indices 1 2 3 4 5 6 
#
# 1 0.013980 -0.003468 0.000619 0.000000 0.000000 0.000000
# 2 -0.003468 0.023592 -0.005288 0.000000 0.000000 0.000000
# 3 0.000619 -0.005288 0.014469 0.000000 0.000000 0.000000
# 4 0.000000 0.000000 0.000000 0.026042 0.000000 0.000000
# 5 0.000000 0.000000 0.000000 0.000000 0.033112 0.000000
# 6 0.000000 0.000000 0.000000 0.000000 0.000000 0.025955
#
#
# Mechanical properties :
#
#
# Convention : Reuss Voigt Hill
#
# Bulk Modulus (GPa) = 27.95854 28.37527 28.16691
# Shear Modulus (GPa) = 30.23960 32.65018 31.44489
#
# Velocity S-wave (km/s) = 3.47880 3.61480 3.54745
# Velocity P-wave (km/s) = 5.22736 5.36454 5.29640
#
# Compressibility (1/GPa) = 0.03576724
#
# Stress axis : x y z
#
# Youngs Moduli (GPa) = 71.52839 42.38742 69.11500
#
# Poissons Ratio (x) = 0.14700 -0.04279
# Poissons Ratio (y) = 0.24806 0.36548
# Poissons Ratio (z) = -0.04429 0.22415
#
# Static dielectric constant tensor:
#      x y z
#    x 1.965740 0.000000 0.000000 
#    y 0.000000 2.075010 0.000000 
#    z 0.000000 0.000000 1.989610 
# 
# From -- ./inp_files/7239.got.cif
#   From: 2010.05.17/outbox.cif.g08.bks.cpg/sg61_4_cif.got.tgz:7239.got - 2010.06.03 15:17:17.
