data_PCOD9460066
_publ_section_title
;
Structure prediction by ZEFSAII (Michael W. Deem and Ramdas Pophale) SiO2 
 PCOD9460066
Probable space group: P B C A
;
_chemical_formula_sum "Si O2"
_cell_formula_units_Z 56
_cell_length_a 18.081788
_cell_length_b 8.389910
_cell_length_c 13.802494
_cell_angle_alpha 90.000000
_cell_angle_beta 90.000000
_cell_angle_gamma 90.000000
_cell_volume 2093.901472
_symmetry_space_group_name_H-M "P B C A"
_symmetry_group_IT_number 61
_symmetry_cell_setting 'orthorhombic'
loop_
_space_group_symop_operation_xyz
x,y,z
1/2-x,-y,1/2+z
1/2+x,1/2-y,-z
-x,1/2+y,1/2-z
-x,-y,-z
1/2+x,y,1/2-z
1/2-x,1/2+y,z
x,1/2-y,1/2+z
loop_
_atom_site_type_symbol
_atom_site_label
_atom_site_fract_x
_atom_site_fract_y
_atom_site_fract_z
Si Si1 0.608723 0.235808 0.957481
Si Si2 0.687283 0.978600 0.841455
Si Si3 0.430109 0.439944 0.798794
Si Si4 0.453411 0.813690 0.852867
Si Si5 0.776368 0.265856 0.027557
Si Si6 0.124807 0.630107 0.811245
Si Si7 0.350435 0.447059 0.107958
O O1 0.633521 0.122068 0.871517
O O2 0.594752 0.408725 0.913387
O O3 0.546609 0.178497 0.030440
O O4 0.688742 0.249668 0.013449
O O5 0.773556 0.014855 0.836496
O O6 0.655021 0.933805 0.738381
O O7 0.689113 0.865495 0.936218
O O8 0.443955 0.622154 0.833978
O O9 0.482842 0.400893 0.707735
O O10 0.431131 0.267415 0.855238
O O11 0.389249 0.941785 0.827110
O O12 0.800737 0.337090 0.128347
O O13 0.819119 0.104490 0.997049
O O14 0.114610 0.651905 0.694985
#
# Coordination Sequence:
#
# PCOD9460066 Si02
#       7
#     8   8   8   8   8   8   8
#     4  10  22  42  65 101 139 175 228 291 346 425
#     4  10  21  42  65  97 138 174 220 285 352 414
#     4  12  26  45  68  98 138 187 238 287 337 421
#     4  12  26  45  68  99 141 187 242 287 338 422
#     4  10  21  41  67 102 139 171 222 289 354 420
#     4  12  24  44  74 100 138 187 228 293 362 413
#     4  10  22  41  68 105 140 172 227 293 353 427
#
# _framework density 26.744333000000001
#
# number of rings (size 3 to 8) (size 9 to 14) (size 15 to 20)
#    0.000    1.143    4.286    1.714    2.000    1.714 
#    0.000    0.714    0.000    0.000    0.000    0.000 
#    0.000    0.000    0.000    0.000    0.000    0.000 
#
# Total GULP energy -311940.477723 kJ/mol
# GULP energy per Si atom -5570.365674 kJ/mol
# Density = 2.668346 g / cm^3
# Si number density = 26.744333 Si / 1000 Ang^3
#
#
#
# Elastic Constant Matrix: (Units=GPa)
#
#
# Indices 1 2 3 4 5 6 
#
# 1 18.5005 2.1543 25.8397 0.0000 0.0000 0.0000
# 2 2.1543 135.4048 19.7309 0.0000 0.0000 0.0000
# 3 25.8397 19.7309 98.8770 0.0000 0.0000 0.0000
# 4 0.0000 0.0000 0.0000 25.5810 0.0000 0.0000
# 5 0.0000 0.0000 0.0000 0.0000 29.3405 0.0000
# 6 0.0000 0.0000 0.0000 0.0000 0.0000-2585.4559
#
#
#
# Elastic Compliance Matrix: (Units=1/GPa)
#
#
# Indices 1 2 3 4 5 6 
#
# 1 0.085622 0.001955 -0.022766 0.000000 0.000000 0.000000
# 2 0.001955 0.007651 -0.002038 0.000000 0.000000 0.000000
# 3 -0.022766 -0.002038 0.016470 0.000000 0.000000 0.000000
# 4 0.000000 0.000000 0.000000 0.039092 0.000000 0.000000
# 5 0.000000 0.000000 0.000000 0.000000 0.034083 0.000000
# 6 0.000000 0.000000 0.000000 0.000000 0.000000 -0.000387
#
#
# Mechanical properties :
#
#
# Convention : Reuss Voigt Hill
#
# Bulk Modulus (GPa) = 15.61382 38.69245 27.15314
# Shear Modulus (GPa) = 20.03400 -492.43639 -236.20119
#
# Velocity S-wave (km/s) = 2.73993 -13.58408 -9.40797
# Velocity P-wave (km/s) = 3.98252 15.21635 10.38453
#
# Compressibility (1/GPa) = 0.06404582
#
# Stress axis : x y z
#
# Youngs Moduli (GPa) = 11.67924 130.70036 60.71765
#
# Poissons Ratio (x) = -0.25554 1.38229
# Poissons Ratio (y) = -0.02284 0.12373
# Poissons Ratio (z) = 0.26589 0.26633
#
# Static dielectric constant tensor:
#      x y z
#    x 2.176740 0.000000 0.000000 
#    y 0.000000 2.575160 0.000000 
#    z 0.000000 0.000000 2.110890 
# 
# From -- ./inp_files/8375.got.cif
#   From: 2010.05.17/outbox.cif.g08.bks.cpg/sg61_5_cif.got.tgz:8375.got - 2010.06.03 15:17:17.
