data_PCOD9460164
_publ_section_title
;
Structure prediction by ZEFSAII (Michael W. Deem and Ramdas Pophale) SiO2 
 PCOD9460164
Probable space group: P B C A
;
_chemical_formula_sum "Si O2"
_cell_formula_units_Z 44
_cell_length_a 13.816206
_cell_length_b 13.211281
_cell_length_c 9.568754
_cell_angle_alpha 90.000000
_cell_angle_beta 90.000000
_cell_angle_gamma 90.000000
_cell_volume 1746.582561
_symmetry_space_group_name_H-M "P B C A"
_symmetry_group_IT_number 61
_symmetry_cell_setting 'orthorhombic'
loop_
_space_group_symop_operation_xyz
x,y,z
1/2-x,-y,1/2+z
1/2+x,1/2-y,-z
-x,1/2+y,1/2-z
-x,-y,-z
1/2+x,y,1/2-z
1/2-x,1/2+y,z
x,1/2-y,1/2+z
loop_
_atom_site_type_symbol
_atom_site_label
_atom_site_fract_x
_atom_site_fract_y
_atom_site_fract_z
Si Si1 0.002433 0.133456 0.726347
Si Si2 0.632944 0.953605 0.006671
Si Si3 0.500000 0.000000 0.500000
Si Si4 0.667695 0.370681 0.095398
Si Si5 0.725978 0.326986 0.488115
Si Si6 0.147528 0.703504 0.234023
O O1 0.962273 0.069637 0.597366
O O2 0.952010 0.242455 0.722440
O O3 0.116819 0.141386 0.754732
O O4 0.972613 0.073731 0.866965
O O5 0.719695 0.896233 0.091191
O O6 0.672327 0.066213 0.993112
O O7 0.627310 0.895909 0.858643
O O8 0.611519 0.042013 0.513261
O O9 0.650906 0.264715 0.017367
O O10 0.793741 0.282042 0.364691
O O11 0.793134 0.326032 0.628897
#
# Coordination Sequence:
#
# PCOD9460164 Si02
#       6
#     8   8   4   8   8   8
#     4  10  21  45  68 105 139 193 242 293 373 439
#     4  11  24  43  69 108 144 192 242 303 377 442
#     4   8  20  38  74  98 140 190 242 302 366 434
#     4   9  21  44  67 104 136 199 234 307 365 442
#     4  11  25  42  74  99 145 186 252 297 373 439
#     4  11  23  45  69 103 141 192 241 307 358 455
#
# _framework density 25.192053999999999
#
# number of rings (size 3 to 8) (size 9 to 14) (size 15 to 20)
#    1.091    0.727    3.636    1.091    7.636    0.000 
#   13.091    0.909    0.000    0.000    0.000    0.000 
#    0.000    0.000    0.000    0.000    0.000    0.000 
#
# Total GULP energy -245213.766758 kJ/mol
# GULP energy per Si atom -5573.040154 kJ/mol
# Density = 2.513472 g / cm^3
# Si number density = 25.192054 Si / 1000 Ang^3
#
#
#
# Elastic Constant Matrix: (Units=GPa)
#
#
# Indices 1 2 3 4 5 6 
#
# 1 67.7577 24.3361 13.5627 0.0000 0.0000 0.0000
# 2 24.3361 83.5145 52.0751 0.0000 0.0000 0.0000
# 3 13.5627 52.0751 92.4059 0.0000 0.0000 0.0000
# 4 0.0000 0.0000 0.0000 45.6543 0.0000 0.0000
# 5 0.0000 0.0000 0.0000 0.0000 43.4431 0.0000
# 6 0.0000 0.0000 0.0000 0.0000 0.0000 27.3312
#
#
#
# Elastic Compliance Matrix: (Units=1/GPa)
#
#
# Indices 1 2 3 4 5 6 
#
# 1 0.016495 -0.005083 0.000444 0.000000 0.000000 0.000000
# 2 -0.005083 0.020028 -0.010540 0.000000 0.000000 0.000000
# 3 0.000444 -0.010540 0.016697 0.000000 0.000000 0.000000
# 4 0.000000 0.000000 0.000000 0.021904 0.000000 0.000000
# 5 0.000000 0.000000 0.000000 0.000000 0.023019 0.000000
# 6 0.000000 0.000000 0.000000 0.000000 0.000000 0.036588
#
#
# Mechanical properties :
#
#
# Convention : Reuss Voigt Hill
#
# Bulk Modulus (GPa) = 43.74550 47.06954 45.40752
# Shear Modulus (GPa) = 28.95012 33.53266 31.24139
#
# Velocity S-wave (km/s) = 3.39363 3.65236 3.52537
# Velocity P-wave (km/s) = 5.72347 6.04244 5.88512
#
# Compressibility (1/GPa) = 0.02285949
#
# Stress axis : x y z
#
# Youngs Moduli (GPa) = 60.62282 49.93068 59.89182
#
# Poissons Ratio (x) = 0.25382 -0.02657
# Poissons Ratio (y) = 0.30817 0.63129
# Poissons Ratio (z) = -0.02690 0.52629
#
# Static dielectric constant tensor:
#      x y z
#    x 2.083880 0.000000 0.000000 
#    y 0.000000 1.995230 0.000000 
#    z 0.000000 0.000000 1.998590 
# 
# From -- ./inp_files/3378.got.cif
#   From: 2010.05.17/outbox.cif.g08.bks.cpg/sg61_2_cif.got.tgz:3378.got - 2010.06.03 15:17:17.
