data_PCOD9460818
_publ_section_title
;
Structure prediction by ZEFSAII (Michael W. Deem and Ramdas Pophale) SiO2 
 PCOD9460818
Probable space group: P B C A
;
_chemical_formula_sum "Si O2"
_cell_formula_units_Z 44
_cell_length_a 14.417421
_cell_length_b 6.873650
_cell_length_c 17.645268
_cell_angle_alpha 90.000000
_cell_angle_beta 90.000000
_cell_angle_gamma 90.000000
_cell_volume 1748.651456
_symmetry_space_group_name_H-M "P B C A"
_symmetry_group_IT_number 61
_symmetry_cell_setting 'orthorhombic'
loop_
_space_group_symop_operation_xyz
x,y,z
1/2-x,-y,1/2+z
1/2+x,1/2-y,-z
-x,1/2+y,1/2-z
-x,-y,-z
1/2+x,y,1/2-z
1/2-x,1/2+y,z
x,1/2-y,1/2+z
loop_
_atom_site_type_symbol
_atom_site_label
_atom_site_fract_x
_atom_site_fract_y
_atom_site_fract_z
Si Si1 0.387713 0.635700 0.306376
Si Si2 0.641868 0.806178 0.033558
Si Si3 0.421142 0.569287 0.679438
Si Si4 0.000000 0.500000 0.500000
Si Si5 0.339908 0.795403 0.024065
Si Si6 0.822941 0.449836 0.680532
O O1 0.474801 0.507082 0.330223
O O2 0.416006 0.722720 0.222931
O O3 0.359701 0.538918 0.461212
O O4 0.367922 0.844949 0.346761
O O5 0.732878 0.759610 0.984558
O O6 0.655835 0.698826 0.114058
O O7 0.713511 0.038084 0.196918
O O8 0.548392 0.717650 0.000580
O O9 0.367303 0.598669 0.602066
O O10 0.371286 0.420889 0.738109
O O11 0.899575 0.600807 0.482089
#
# Coordination Sequence:
#
# PCOD9460818 Si02
#       6
#     8   8   8   4   8   8
#     4  10  25  45  77 110 159 203 273 332 410 480
#     4  12  27  51  80 121 163 220 269 341 410 507
#     4  10  28  48  78 117 158 212 271 343 407 491
#     4  12  30  52  82 118 162 218 270 342 418 502
#     4  12  28  51  83 118 169 215 280 336 424 485
#     4  10  26  47  79 110 159 211 267 333 412 487
#
# _framework density 25.162247000000001
#
# number of rings (size 3 to 8) (size 9 to 14) (size 15 to 20)
#    1.091    0.000    1.818    1.636   10.182    1.455 
#    0.000    0.000    0.000    0.000    0.000    0.000 
#    0.000    0.000    0.000    0.000    0.000    0.000 
#
# Total GULP energy -245372.344315 kJ/mol
# GULP energy per Si atom -5576.644189 kJ/mol
# Density = 2.510498 g / cm^3
# Si number density = 25.162247 Si / 1000 Ang^3
#
#
#
# Elastic Constant Matrix: (Units=GPa)
#
#
# Indices 1 2 3 4 5 6 
#
# 1 145.1350 40.3407 51.6581 0.0000 0.0000 0.0000
# 2 40.3407 112.6741 27.6742 0.0000 0.0000 0.0000
# 3 51.6581 27.6742 118.8073 0.0000 0.0000 0.0000
# 4 0.0000 0.0000 0.0000 29.7005 0.0000 0.0000
# 5 0.0000 0.0000 0.0000 0.0000 24.7344 0.0000
# 6 0.0000 0.0000 0.0000 0.0000 0.0000 64.3704
#
#
#
# Elastic Compliance Matrix: (Units=1/GPa)
#
#
# Indices 1 2 3 4 5 6 
#
# 1 0.008686 -0.002315 -0.003237 0.000000 0.000000 0.000000
# 2 -0.002315 0.010031 -0.001330 0.000000 0.000000 0.000000
# 3 -0.003237 -0.001330 0.010134 0.000000 0.000000 0.000000
# 4 0.000000 0.000000 0.000000 0.033669 0.000000 0.000000
# 5 0.000000 0.000000 0.000000 0.000000 0.040430 0.000000
# 6 0.000000 0.000000 0.000000 0.000000 0.000000 0.015535
#
#
# Mechanical properties :
#
#
# Convention : Reuss Voigt Hill
#
# Bulk Modulus (GPa) = 66.28427 68.44029 67.36228
# Shear Modulus (GPa) = 36.42241 40.89060 38.65651
#
# Velocity S-wave (km/s) = 3.80873 4.03560 3.92381
# Velocity P-wave (km/s) = 6.76327 6.99810 6.88169
#
# Compressibility (1/GPa) = 0.01508654
#
# Stress axis : x y z
#
# Youngs Moduli (GPa) = 115.13027 99.69562 98.67299
#
# Poissons Ratio (x) = 0.23076 0.31945
# Poissons Ratio (y) = 0.26648 0.13124
# Poissons Ratio (z) = 0.37273 0.13260
#
# Static dielectric constant tensor:
#      x y z
#    x 1.917560 0.000000 0.000000 
#    y 0.000000 1.969890 0.000000 
#    z 0.000000 0.000000 2.084230 
# 
# From -- ./inp_files/9419.got.cif
#   From: 2010.05.17/outbox.cif.g08.bks.cpg/sg61_5_cif.got.tgz:9419.got - 2010.06.03 15:17:17.
