data_PCOD9460099
_publ_section_title
;
Structure prediction by ZEFSAII (Michael W. Deem and Ramdas Pophale) SiO2 
 PCOD9460099
Probable space group: P B C A
;
_chemical_formula_sum "Si O2"
_cell_formula_units_Z 48
_cell_length_a 12.927059
_cell_length_b 9.617583
_cell_length_c 15.459957
_cell_angle_alpha 90.000000
_cell_angle_beta 90.000000
_cell_angle_gamma 90.000000
_cell_volume 1922.091046
_symmetry_space_group_name_H-M "P B C A"
_symmetry_group_IT_number 61
_symmetry_cell_setting 'orthorhombic'
loop_
_space_group_symop_operation_xyz
x,y,z
1/2-x,-y,1/2+z
1/2+x,1/2-y,-z
-x,1/2+y,1/2-z
-x,-y,-z
1/2+x,y,1/2-z
1/2-x,1/2+y,z
x,1/2-y,1/2+z
loop_
_atom_site_type_symbol
_atom_site_label
_atom_site_fract_x
_atom_site_fract_y
_atom_site_fract_z
Si Si1 0.169420 0.529467 0.382790
Si Si2 0.043278 0.919518 0.180455
Si Si3 0.656372 0.115438 0.435927
Si Si4 0.756914 0.770335 0.208251
Si Si5 0.630798 0.661601 0.371588
Si Si6 0.436548 0.849541 0.161019
O O1 0.145854 0.473476 0.478011
O O2 0.242151 0.422761 0.331189
O O3 0.231053 0.671770 0.372641
O O4 0.056572 0.516269 0.337492
O O5 0.041196 0.777317 0.123526
O O6 0.037489 0.882975 0.282075
O O7 0.140059 0.005625 0.143339
O O8 0.772051 0.176637 0.434915
O O9 0.575702 0.240436 0.416936
O O10 0.681126 0.708617 0.280576
O O11 0.863555 0.779600 0.264313
O O12 0.599627 0.501229 0.370278
#
# Coordination Sequence:
#
# PCOD9460099 Si02
#       6
#     8   8   8   8   8   8
#     4  11  25  43  67  99 137 178 218 290 342 404
#     4  11  23  43  66  94 133 173 228 275 337 399
#     4  11  24  41  68  97 138 173 226 280 344 398
#     4  10  21  42  65  95 133 173 226 265 346 397
#     4  11  22  42  66  98 128 180 228 272 331 408
#     4  10  22  41  65  99 126 179 225 274 321 404
#
# _framework density 24.972802999999999
#
# number of rings (size 3 to 8) (size 9 to 14) (size 15 to 20)
#    0.000    1.333    3.333    3.500    7.000    0.000 
#    0.000    0.833    0.000    0.000    0.000    0.000 
#    0.000    0.000    0.000    0.000    0.000    0.000 
#
# Total GULP energy -267715.599744 kJ/mol
# GULP energy per Si atom -5577.408328 kJ/mol
# Density = 2.491596 g / cm^3
# Si number density = 24.972803 Si / 1000 Ang^3
#
#
#
# Elastic Constant Matrix: (Units=GPa)
#
#
# Indices 1 2 3 4 5 6 
#
# 1 62.5761 16.3297 0.6241 0.0000 0.0000 0.0000
# 2 16.3297 91.7271 -8.1716 0.0000 0.0000 0.0000
# 3 0.6241 -8.1716 62.3456 0.0000 0.0000 0.0000
# 4 0.0000 0.0000 0.0000 30.9903 0.0000 0.0000
# 5 0.0000 0.0000 0.0000 0.0000 7.1140 0.0000
# 6 0.0000 0.0000 0.0000 0.0000 0.0000 33.7849
#
#
#
# Elastic Compliance Matrix: (Units=1/GPa)
#
#
# Indices 1 2 3 4 5 6 
#
# 1 0.016779 -0.003037 -0.000566 0.000000 0.000000 0.000000
# 2 -0.003037 0.011581 0.001548 0.000000 0.000000 0.000000
# 3 -0.000566 0.001548 0.016248 0.000000 0.000000 0.000000
# 4 0.000000 0.000000 0.000000 0.032268 0.000000 0.000000
# 5 0.000000 0.000000 0.000000 0.000000 0.140568 0.000000
# 6 0.000000 0.000000 0.000000 0.000000 0.000000 0.029599
#
#
# Mechanical properties :
#
#
# Convention : Reuss Voigt Hill
#
# Bulk Modulus (GPa) = 24.69317 26.02370 25.35844
# Shear Modulus (GPa) = 18.89270 28.23561 23.56416
#
# Velocity S-wave (km/s) = 2.75350 3.36617 3.07513
# Velocity P-wave (km/s) = 4.47420 5.05486 4.77337
#
# Compressibility (1/GPa) = 0.04049703
#
# Stress axis : x y z
#
# Youngs Moduli (GPa) = 59.59883 86.35147 61.54524
#
# Poissons Ratio (x) = 0.26229 0.03484
# Poissons Ratio (y) = 0.18103 -0.09529
# Poissons Ratio (z) = 0.03374 -0.13369
#
# Static dielectric constant tensor:
#      x y z
#    x 2.069640 0.000000 0.000000 
#    y 0.000000 2.029170 0.000000 
#    z 0.000000 0.000000 2.019310 
# 
# From -- ./inp_files/7059.got.cif
#   From: 2010.05.17/outbox.cif.g08.bks.cpg/sg61_4_cif.got.tgz:7059.got - 2010.06.03 15:17:17.
