data_PCOD9460854
_publ_section_title
;
Structure prediction by ZEFSAII (Michael W. Deem and Ramdas Pophale) SiO2 
 PCOD9460854
Probable space group: P B C A
;
_chemical_formula_sum "Si O2"
_cell_formula_units_Z 48
_cell_length_a 20.497554
_cell_length_b 8.915629
_cell_length_c 12.129996
_cell_angle_alpha 90.000000
_cell_angle_beta 90.000000
_cell_angle_gamma 90.000000
_cell_volume 2216.739628
_symmetry_space_group_name_H-M "P B C A"
_symmetry_group_IT_number 61
_symmetry_cell_setting 'orthorhombic'
loop_
_space_group_symop_operation_xyz
x,y,z
1/2-x,-y,1/2+z
1/2+x,1/2-y,-z
-x,1/2+y,1/2-z
-x,-y,-z
1/2+x,y,1/2-z
1/2-x,1/2+y,z
x,1/2-y,1/2+z
loop_
_atom_site_type_symbol
_atom_site_label
_atom_site_fract_x
_atom_site_fract_y
_atom_site_fract_z
Si Si1 0.332054 0.492385 0.734650
Si Si2 0.615053 0.943966 0.158160
Si Si3 0.656108 0.159497 0.988895
Si Si4 0.591201 0.463346 0.903546
Si Si5 0.754707 0.262335 0.153817
Si Si6 0.557477 0.859761 0.614767
O O1 0.340747 0.540481 0.609452
O O2 0.280412 0.359877 0.758798
O O3 0.302941 0.637160 0.796800
O O4 0.398985 0.437098 0.790302
O O5 0.683648 0.865847 0.127567
O O6 0.561595 0.818294 0.131824
O O7 0.609955 0.092137 0.084770
O O8 0.617436 0.978945 0.287304
O O9 0.726235 0.183810 0.045658
O O10 0.630041 0.317777 0.944868
O O11 0.516193 0.415736 0.884083
O O12 0.589877 0.588149 0.999415
#
# Coordination Sequence:
#
# PCOD9460854 Si02
#       6
#     8   8   8   8   8   8
#     4  11  25  43  69 102 141 185 234 303 354 433
#     4  11  27  45  71 106 144 191 235 303 365 429
#     4  12  26  44  71 106 145 192 242 297 366 433
#     4  11  26  48  75 103 146 192 244 303 356 442
#     4  11  24  44  67 104 139 186 239 290 368 433
#     4  10  26  48  73 106 142 187 251 297 366 431
#
# _framework density 21.653421999999999
#
# number of rings (size 3 to 8) (size 9 to 14) (size 15 to 20)
#    0.000    1.000    3.333    1.000    9.333    3.333 
#    0.000    0.000    0.000    0.000    0.000    0.000 
#    0.000    0.000    0.000    0.000    0.000    0.000 
#
# Total GULP energy -268649.021729 kJ/mol
# GULP energy per Si atom -5596.854619 kJ/mol
# Density = 2.160414 g / cm^3
# Si number density = 21.653422 Si / 1000 Ang^3
#
#
#
# Elastic Constant Matrix: (Units=GPa)
#
#
# Indices 1 2 3 4 5 6 
#
# 1 49.5508 2.1515 11.8412 0.0000 0.0000 0.0000
# 2 2.1515 93.9926 42.8316 0.0000 0.0000 0.0000
# 3 11.8412 42.8316 104.8558 0.0000 0.0000 0.0000
# 4 0.0000 0.0000 0.0000 41.2133 0.0000 0.0000
# 5 0.0000 0.0000 0.0000 0.0000 21.9443 0.0000
# 6 0.0000 0.0000 0.0000 0.0000 0.0000 24.5743
#
#
#
# Elastic Compliance Matrix: (Units=1/GPa)
#
#
# Indices 1 2 3 4 5 6 
#
# 1 0.020782 0.000730 -0.002645 0.000000 0.000000 0.000000
# 2 0.000730 0.013098 -0.005433 0.000000 0.000000 0.000000
# 3 -0.002645 -0.005433 0.012055 0.000000 0.000000 0.000000
# 4 0.000000 0.000000 0.000000 0.024264 0.000000 0.000000
# 5 0.000000 0.000000 0.000000 0.000000 0.045570 0.000000
# 6 0.000000 0.000000 0.000000 0.000000 0.000000 0.040693
#
#
# Mechanical properties :
#
#
# Convention : Reuss Voigt Hill
#
# Bulk Modulus (GPa) = 32.01180 40.22753 36.11967
# Shear Modulus (GPa) = 27.53757 30.31806 28.92782
#
# Velocity S-wave (km/s) = 3.57002 3.74592 3.65903
# Velocity P-wave (km/s) = 5.63996 6.10962 5.87948
#
# Compressibility (1/GPa) = 0.03123848
#
# Stress axis : x y z
#
# Youngs Moduli (GPa) = 48.11934 76.34710 82.95494
#
# Poissons Ratio (x) = -0.05570 0.21940
# Poissons Ratio (y) = -0.03511 0.45067
# Poissons Ratio (z) = 0.12727 0.41477
#
# Static dielectric constant tensor:
#      x y z
#    x 1.772900 0.000000 0.000000 
#    y 0.000000 1.803180 0.000000 
#    z 0.000000 0.000000 1.773570 
# 
# From -- ./inp_files/6595.got.cif
#   From: 2010.05.17/outbox.cif.g08.bks.cpg/sg61_4_cif.got.tgz:6595.got - 2010.06.03 15:17:17.
