data_PCOD9460647
_publ_section_title
;
Structure prediction by ZEFSAII (Michael W. Deem and Ramdas Pophale) SiO2 
 PCOD9460647
Probable space group: P B C A
;
_chemical_formula_sum "Si O2"
_cell_formula_units_Z 40
_cell_length_a 17.809029
_cell_length_b 8.252974
_cell_length_c 9.708915
_cell_angle_alpha 90.000000
_cell_angle_beta 90.000000
_cell_angle_gamma 90.000000
_cell_volume 1426.991601
_symmetry_space_group_name_H-M "P B C A"
_symmetry_group_IT_number 61
_symmetry_cell_setting 'orthorhombic'
loop_
_space_group_symop_operation_xyz
x,y,z
1/2-x,-y,1/2+z
1/2+x,1/2-y,-z
-x,1/2+y,1/2-z
-x,-y,-z
1/2+x,y,1/2-z
1/2-x,1/2+y,z
x,1/2-y,1/2+z
loop_
_atom_site_type_symbol
_atom_site_label
_atom_site_fract_x
_atom_site_fract_y
_atom_site_fract_z
Si Si1 0.974688 0.751281 0.259918
Si Si2 0.337471 0.206343 0.934922
Si Si3 0.896454 0.626400 0.997546
Si Si4 0.253330 0.308798 0.174408
Si Si5 0.597743 0.935062 0.383732
O O1 0.957798 0.886849 0.376032
O O2 0.951362 0.590775 0.347307
O O3 0.056548 0.788257 0.198057
O O4 0.922763 0.745432 0.121427
O O5 0.299620 0.183010 0.083385
O O6 0.390122 0.363082 0.961994
O O7 0.380571 0.039298 0.922524
O O8 0.268067 0.235763 0.832120
O O9 0.824520 0.671689 0.902660
O O10 0.314922 0.456598 0.159563
#
# Coordination Sequence:
#
# PCOD9460647 Si02
#       5
#     8   8   8   8   8
#     4  12  27  47  74 116 149 203 245 310 372 455
#     4  10  23  45  74  99 147 190 243 304 365 435
#     4  12  26  45  74 108 154 189 255 305 379 440
#     4  10  24  43  74 105 143 197 242 308 369 437
#     4  10  26  46  77 105 156 191 254 295 381 439
#
# _framework density 28.030998
#
# number of rings (size 3 to 8) (size 9 to 14) (size 15 to 20)
#    1.200    0.000    2.000    2.400    5.600    5.600 
#    0.000    0.000    0.000    0.000    0.000    0.000 
#    0.000    0.000    0.000    0.000    0.000    0.000 
#
# Total GULP energy -223055.058428 kJ/mol
# GULP energy per Si atom -5576.376461 kJ/mol
# Density = 2.796720 g / cm^3
# Si number density = 28.030998 Si / 1000 Ang^3
#
#
#
# Elastic Constant Matrix: (Units=GPa)
#
#
# Indices 1 2 3 4 5 6 
#
# 1 179.0155 29.1773 65.5719 0.0000 0.0000 0.0000
# 2 29.1773 78.9455 42.8562 0.0000 0.0000 0.0000
# 3 65.5719 42.8562 199.7703 0.0000 0.0000 0.0000
# 4 0.0000 0.0000 0.0000 40.6399 0.0000 0.0000
# 5 0.0000 0.0000 0.0000 0.0000 69.6833 0.0000
# 6 0.0000 0.0000 0.0000 0.0000 0.0000 37.6705
#
#
#
# Elastic Compliance Matrix: (Units=1/GPa)
#
#
# Indices 1 2 3 4 5 6 
#
# 1 0.006484 -0.001405 -0.001827 0.000000 0.000000 0.000000
# 2 -0.001405 0.014641 -0.002680 0.000000 0.000000 0.000000
# 3 -0.001827 -0.002680 0.006180 0.000000 0.000000 0.000000
# 4 0.000000 0.000000 0.000000 0.024606 0.000000 0.000000
# 5 0.000000 0.000000 0.000000 0.000000 0.014351 0.000000
# 6 0.000000 0.000000 0.000000 0.000000 0.000000 0.026546
#
#
# Mechanical properties :
#
#
# Convention : Reuss Voigt Hill
#
# Bulk Modulus (GPa) = 64.58928 81.43800 73.01364
# Shear Modulus (GPa) = 45.54052 50.94047 48.24050
#
# Velocity S-wave (km/s) = 4.03507 4.26759 4.15296
# Velocity P-wave (km/s) = 6.69336 7.30747 7.00715
#
# Compressibility (1/GPa) = 0.01548245
#
# Stress axis : x y z
#
# Youngs Moduli (GPa) = 154.21908 68.30197 161.80344
#
# Poissons Ratio (x) = 0.09594 0.29562
# Poissons Ratio (y) = 0.21663 0.43360
# Poissons Ratio (z) = 0.28176 0.18304
#
# Static dielectric constant tensor:
#      x y z
#    x 2.171180 0.000000 0.000000 
#    y 0.000000 2.318740 0.000000 
#    z 0.000000 0.000000 2.231080 
# 
# From -- ./inp_files/6400.got.cif
#   From: 2010.05.17/outbox.cif.g08.bks.cpg/sg61_4_cif.got.tgz:6400.got - 2010.06.03 15:17:17.
