data_PCOD9460991
_publ_section_title
;
Structure prediction by ZEFSAII (Michael W. Deem and Ramdas Pophale) SiO2 
 PCOD9460991
Probable space group: P B C A
;
_chemical_formula_sum "Si O2"
_cell_formula_units_Z 48
_cell_length_a 8.655086
_cell_length_b 9.528025
_cell_length_c 26.834926
_cell_angle_alpha 90.000000
_cell_angle_beta 90.000000
_cell_angle_gamma 90.000000
_cell_volume 2212.965674
_symmetry_space_group_name_H-M "P B C A"
_symmetry_group_IT_number 61
_symmetry_cell_setting 'orthorhombic'
loop_
_space_group_symop_operation_xyz
x,y,z
1/2-x,-y,1/2+z
1/2+x,1/2-y,-z
-x,1/2+y,1/2-z
-x,-y,-z
1/2+x,y,1/2-z
1/2-x,1/2+y,z
x,1/2-y,1/2+z
loop_
_atom_site_type_symbol
_atom_site_label
_atom_site_fract_x
_atom_site_fract_y
_atom_site_fract_z
Si Si1 0.393268 0.365614 0.948270
Si Si2 0.388484 0.803164 0.203409
Si Si3 0.943354 0.634497 0.905725
Si Si4 0.432893 0.138447 0.210906
Si Si5 0.386605 0.392282 0.063455
Si Si6 0.584053 0.150395 0.104549
O O1 0.527209 0.248597 0.947871
O O2 0.474908 0.501260 0.925248
O O3 0.251940 0.309205 0.915562
O O4 0.349492 0.398959 0.004821
O O5 0.460488 0.796119 0.148273
O O6 0.485012 0.709065 0.241847
O O7 0.219402 0.732389 0.201208
O O8 0.391993 0.971444 0.216627
O O9 0.769929 0.575495 0.907548
O O10 0.061347 0.509259 0.912136
O O11 0.547947 0.153085 0.163412
O O12 0.451740 0.242096 0.078698
#
# Coordination Sequence:
#
# PCOD9460991 Si02
#       6
#     8   8   8   8   8   8
#     4  11  25  40  67 100 134 182 227 280 337 405
#     4  11  25  45  70 101 132 183 227 287 353 412
#     4  11  24  43  67  95 135 180 220 282 346 402
#     4  11  25  46  71 100 137 178 231 290 349 420
#     4  11  23  43  67  96 137 181 227 278 338 408
#     4  11  24  43  66 100 134 174 227 283 341 407
#
# _framework density 21.690349000000001
#
# number of rings (size 3 to 8) (size 9 to 14) (size 15 to 20)
#    0.000    1.000    1.667    4.000    4.667    6.667 
#    0.000    0.000    0.000    0.000    0.000    0.000 
#    0.000    0.000    0.000    0.000    0.000    0.000 
#
# Total GULP energy -268242.427233 kJ/mol
# GULP energy per Si atom -5588.383901 kJ/mol
# Density = 2.164098 g / cm^3
# Si number density = 21.690349 Si / 1000 Ang^3
#
#
#
# Elastic Constant Matrix: (Units=GPa)
#
#
# Indices 1 2 3 4 5 6 
#
# 1 72.1975 15.1529 6.4087 0.0000 0.0000 0.0000
# 2 15.1529 76.5377 24.3384 0.0000 0.0000 0.0000
# 3 6.4087 24.3384 33.3415 0.0000 0.0000 0.0000
# 4 0.0000 0.0000 0.0000 25.0483 0.0000 0.0000
# 5 0.0000 0.0000 0.0000 0.0000 27.4672 0.0000
# 6 0.0000 0.0000 0.0000 0.0000 0.0000 41.4798
#
#
#
# Elastic Compliance Matrix: (Units=1/GPa)
#
#
# Indices 1 2 3 4 5 6 
#
# 1 0.014472 -0.002579 -0.000899 0.000000 0.000000 0.000000
# 2 -0.002579 0.017475 -0.012260 0.000000 0.000000 0.000000
# 3 -0.000899 -0.012260 0.039115 0.000000 0.000000 0.000000
# 4 0.000000 0.000000 0.000000 0.039923 0.000000 0.000000
# 5 0.000000 0.000000 0.000000 0.000000 0.036407 0.000000
# 6 0.000000 0.000000 0.000000 0.000000 0.000000 0.024108
#
#
# Mechanical properties :
#
#
# Convention : Reuss Voigt Hill
#
# Bulk Modulus (GPa) = 25.26221 30.43076 27.84649
# Shear Modulus (GPa) = 23.12971 27.87749 25.50360
#
# Velocity S-wave (km/s) = 3.26906 3.58893 3.43272
# Velocity P-wave (km/s) = 5.09127 5.58873 5.34579
#
# Compressibility (1/GPa) = 0.03958481
#
# Stress axis : x y z
#
# Youngs Moduli (GPa) = 69.09881 57.22520 25.56555
#
# Poissons Ratio (x) = 0.14760 0.02298
# Poissons Ratio (y) = 0.17823 0.31344
# Poissons Ratio (z) = 0.06211 0.70160
#
# Static dielectric constant tensor:
#      x y z
#    x 1.752640 0.000000 0.000000 
#    y 0.000000 1.780080 0.000000 
#    z 0.000000 0.000000 1.758520 
# 
# From -- ./inp_files/4583.got.cif
#   From: 2010.05.17/outbox.cif.g08.bks.cpg/sg61_3_cif.got.tgz:4583.got - 2010.06.03 15:17:17.
