data_PCOD9460873
_publ_section_title
;
Structure prediction by ZEFSAII (Michael W. Deem and Ramdas Pophale) SiO2 
 PCOD9460873
Probable space group: P B C A
;
_chemical_formula_sum "Si O2"
_cell_formula_units_Z 64
_cell_length_a 8.478353
_cell_length_b 14.540516
_cell_length_c 22.693152
_cell_angle_alpha 90.000000
_cell_angle_beta 90.000000
_cell_angle_gamma 90.000000
_cell_volume 2797.603324
_symmetry_space_group_name_H-M "P B C A"
_symmetry_group_IT_number 61
_symmetry_cell_setting 'orthorhombic'
loop_
_space_group_symop_operation_xyz
x,y,z
1/2-x,-y,1/2+z
1/2+x,1/2-y,-z
-x,1/2+y,1/2-z
-x,-y,-z
1/2+x,y,1/2-z
1/2-x,1/2+y,z
x,1/2-y,1/2+z
loop_
_atom_site_type_symbol
_atom_site_label
_atom_site_fract_x
_atom_site_fract_y
_atom_site_fract_z
Si Si1 0.429580 0.996806 0.611265
Si Si2 0.339763 0.658197 0.022047
Si Si3 0.629367 0.122373 0.733627
Si Si4 0.191984 0.645313 0.531985
Si Si5 0.217421 0.991976 0.441871
Si Si6 0.096289 0.991910 0.319227
Si Si7 0.383554 0.619125 0.217051
Si Si8 0.608489 0.761784 0.776127
O O1 0.354854 0.909506 0.577545
O O2 0.606726 0.001355 0.586364
O O3 0.422283 0.970548 0.679337
O O4 0.336383 0.086873 0.591229
O O5 0.278228 0.758314 0.038117
O O6 0.224034 0.604478 0.976721
O O7 0.515789 0.661846 0.994253
O O8 0.738035 0.057049 0.695311
O O9 0.478219 0.304919 0.781971
O O10 0.520152 0.193165 0.696364
O O11 0.754445 0.191212 0.761476
O O12 0.285062 0.576799 0.487526
O O13 0.090325 0.997869 0.389596
O O14 0.963465 0.932714 0.284952
O O15 0.113535 0.089237 0.285707
O O16 0.212836 0.655743 0.197795
#
# Coordination Sequence:
#
# PCOD9460873 Si02
#       8
#     8   8   8   8   8   8   8   8
#     4   9  19  38  63  86 125 163 203 257 325 377
#     4   9  19  41  62  89 117 161 210 261 323 378
#     4   9  20  38  55  82 126 158 205 253 290 373
#     4   9  19  41  65  88 119 157 212 267 317 381
#     4   9  19  38  63  88 120 165 206 254 312 388
#     4  11  20  37  61  89 125 168 205 250 318 372
#     4  11  20  37  61  86 122 167 202 250 313 379
#     4   9  20  38  54  82 124 158 206 247 295 370
#
# _framework density 22.876723999999999
#
# number of rings (size 3 to 8) (size 9 to 14) (size 15 to 20)
#    0.000    2.500    0.000    3.750    0.000    0.000 
#   31.500    5.000    0.000    0.000    0.000    0.000 
#    0.000    0.000    0.000    0.000    0.000    0.000 
#
# Total GULP energy -357075.276701 kJ/mol
# GULP energy per Si atom -5579.301198 kJ/mol
# Density = 2.282466 g / cm^3
# Si number density = 22.876724 Si / 1000 Ang^3
#
#
#
# Elastic Constant Matrix: (Units=GPa)
#
#
# Indices 1 2 3 4 5 6 
#
# 1 63.7447 31.5682 8.8948 0.0000 0.0000 0.0000
# 2 31.5682 116.7433 19.3323 0.0000 0.0000 0.0000
# 3 8.8948 19.3323 74.5705 0.0000 0.0000 0.0000
# 4 0.0000 0.0000 0.0000 4.4468 0.0000 0.0000
# 5 0.0000 0.0000 0.0000 0.0000 11.4426 0.0000
# 6 0.0000 0.0000 0.0000 0.0000 0.0000 45.7344
#
#
#
# Elastic Compliance Matrix: (Units=1/GPa)
#
#
# Indices 1 2 3 4 5 6 
#
# 1 0.018175 -0.004760 -0.000934 0.000000 0.000000 0.000000
# 2 -0.004760 0.010197 -0.002076 0.000000 0.000000 0.000000
# 3 -0.000934 -0.002076 0.014060 0.000000 0.000000 0.000000
# 4 0.000000 0.000000 0.000000 0.224883 0.000000 0.000000
# 5 0.000000 0.000000 0.000000 0.000000 0.087393 0.000000
# 6 0.000000 0.000000 0.000000 0.000000 0.000000 0.021865
#
#
# Mechanical properties :
#
#
# Convention : Reuss Voigt Hill
#
# Bulk Modulus (GPa) = 37.18546 41.62766 39.40656
# Shear Modulus (GPa) = 12.46644 25.34229 18.90437
#
# Velocity S-wave (km/s) = 2.33693 3.33194 2.87776
# Velocity P-wave (km/s) = 4.85506 5.74791 5.32025
#
# Compressibility (1/GPa) = 0.02689223
#
# Stress axis : x y z
#
# Youngs Moduli (GPa) = 55.02005 98.07111 71.12551
#
# Poissons Ratio (x) = 0.46682 0.06642
# Poissons Ratio (y) = 0.26190 0.14763
# Poissons Ratio (z) = 0.05138 0.20357
#
# Static dielectric constant tensor:
#      x y z
#    x 1.919810 0.000000 0.000000 
#    y 0.000000 1.928960 0.000000 
#    z 0.000000 0.000000 1.893410 
# 
# From -- ./inp_files/11013.got.cif
#   From: 2010.05.17/outbox.cif.g08.bks.cpg/sg61_6_cif.got.tgz:11013.got - 2010.06.03 15:17:17.
