data_PCOD9460086
_publ_section_title
;
Structure prediction by ZEFSAII (Michael W. Deem and Ramdas Pophale) SiO2 
 PCOD9460086
Probable space group: P B C A
;
_chemical_formula_sum "Si O2"
_cell_formula_units_Z 64
_cell_length_a 25.255056
_cell_length_b 9.027895
_cell_length_c 13.503377
_cell_angle_alpha 90.000000
_cell_angle_beta 90.000000
_cell_angle_gamma 90.000000
_cell_volume 3078.769872
_symmetry_space_group_name_H-M "P B C A"
_symmetry_group_IT_number 61
_symmetry_cell_setting 'orthorhombic'
loop_
_space_group_symop_operation_xyz
x,y,z
1/2-x,-y,1/2+z
1/2+x,1/2-y,-z
-x,1/2+y,1/2-z
-x,-y,-z
1/2+x,y,1/2-z
1/2-x,1/2+y,z
x,1/2-y,1/2+z
loop_
_atom_site_type_symbol
_atom_site_label
_atom_site_fract_x
_atom_site_fract_y
_atom_site_fract_z
Si Si1 0.784534 0.325270 0.103163
Si Si2 0.098887 0.795606 0.344055
Si Si3 0.370654 0.770661 0.172085
Si Si4 0.687399 0.943492 0.898724
Si Si5 0.952464 0.014800 0.259417
Si Si6 0.573807 0.815358 0.942985
Si Si7 0.272290 0.891513 0.773309
Si Si8 0.066630 0.518314 0.661316
O O1 0.843222 0.261439 0.114422
O O2 0.780096 0.442195 0.191634
O O3 0.743738 0.198450 0.128579
O O4 0.780470 0.405414 0.998053
O O5 0.074822 0.646766 0.300866
O O6 0.068347 0.851980 0.441683
O O7 0.098759 0.913176 0.255018
O O8 0.324553 0.686506 0.231767
O O9 0.407001 0.637014 0.129261
O O10 0.336758 0.889855 0.107433
O O11 0.412773 0.874889 0.231196
O O12 0.633824 0.847378 0.905511
O O13 0.724386 0.899256 0.806453
O O14 0.960483 0.082676 0.369712
O O15 0.007736 0.988837 0.205908
O O16 0.564995 0.641941 0.923831
#
# Coordination Sequence:
#
# PCOD9460086 Si02
#       8
#     8   8   8   8   8   8   8   8
#     4  11  24  41  63  93 124 172 209 251 317 380
#     4  10  21  42  62  86 127 165 207 253 319 379
#     4  11  22  40  63  93 127 164 208 268 307 375
#     4  10  24  43  62  92 132 166 208 256 318 379
#     4  10  22  41  63  90 125 162 209 265 320 372
#     4   9  21  41  63  86 123 169 202 259 317 369
#     4  12  23  40  63  90 129 166 209 259 309 379
#     4  11  21  40  67  92 119 164 218 260 319 374
#
# _framework density 20.787523
#
# number of rings (size 3 to 8) (size 9 to 14) (size 15 to 20)
#    0.000    1.500    2.500    3.750    1.750    1.000 
#    4.500    1.250    0.000    0.000    0.000    0.000 
#    0.000    0.000    0.000    0.000    0.000    0.000 
#
# Total GULP energy -356960.979355 kJ/mol
# GULP energy per Si atom -5577.515302 kJ/mol
# Density = 2.074021 g / cm^3
# Si number density = 20.787523 Si / 1000 Ang^3
#
#
#
# Elastic Constant Matrix: (Units=GPa)
#
#
# Indices 1 2 3 4 5 6 
#
# 1 36.3710 20.5899 -10.8170 0.0000 0.0000 0.0000
# 2 20.5899 81.7255 -5.0390 0.0000 0.0000 0.0000
# 3 -10.8170 -5.0390 55.6760 0.0000 0.0000 0.0000
# 4 0.0000 0.0000 0.0000 15.6598 0.0000 0.0000
# 5 0.0000 0.0000 0.0000 0.0000 15.5588 0.0000
# 6 0.0000 0.0000 0.0000 0.0000 0.0000 22.2660
#
#
#
# Elastic Compliance Matrix: (Units=1/GPa)
#
#
# Indices 1 2 3 4 5 6 
#
# 1 0.033856 -0.008170 0.005838 0.000000 0.000000 0.000000
# 2 -0.008170 0.014276 -0.000295 0.000000 0.000000 0.000000
# 3 0.005838 -0.000295 0.019069 0.000000 0.000000 0.000000
# 4 0.000000 0.000000 0.000000 0.063858 0.000000 0.000000
# 5 0.000000 0.000000 0.000000 0.000000 0.064272 0.000000
# 6 0.000000 0.000000 0.000000 0.000000 0.000000 0.044912
#
#
# Mechanical properties :
#
#
# Convention : Reuss Voigt Hill
#
# Bulk Modulus (GPa) = 16.14273 20.36004 18.25138
# Shear Modulus (GPa) = 18.78680 21.96615 20.37648
#
# Velocity S-wave (km/s) = 3.00951 3.25422 3.13425
# Velocity P-wave (km/s) = 4.45630 4.89239 4.67943
#
# Compressibility (1/GPa) = 0.06194739
#
# Stress axis : x y z
#
# Youngs Moduli (GPa) = 29.53710 70.04689 52.44218
#
# Poissons Ratio (x) = 0.57226 -0.30617
# Poissons Ratio (y) = 0.24131 0.01548
# Poissons Ratio (z) = -0.17245 0.02068
#
# Static dielectric constant tensor:
#      x y z
#    x 1.754410 0.000000 0.000000 
#    y 0.000000 1.745090 0.000000 
#    z 0.000000 0.000000 1.764470 
# 
# From -- ./inp_files/8510.got.cif
#   From: 2010.05.17/outbox.cif.g08.bks.cpg/sg61_5_cif.got.tgz:8510.got - 2010.06.03 15:17:17.
