data_PCOD9460503
_publ_section_title
;
Structure prediction by ZEFSAII (Michael W. Deem and Ramdas Pophale) SiO2 
 PCOD9460503
Probable space group: P B C A
;
_chemical_formula_sum "Si O2"
_cell_formula_units_Z 40
_cell_length_a 24.741492
_cell_length_b 8.206898
_cell_length_c 7.471351
_cell_angle_alpha 90.000000
_cell_angle_beta 90.000000
_cell_angle_gamma 90.000000
_cell_volume 1517.064554
_symmetry_space_group_name_H-M "P B C A"
_symmetry_group_IT_number 61
_symmetry_cell_setting 'orthorhombic'
loop_
_space_group_symop_operation_xyz
x,y,z
1/2-x,-y,1/2+z
1/2+x,1/2-y,-z
-x,1/2+y,1/2-z
-x,-y,-z
1/2+x,y,1/2-z
1/2-x,1/2+y,z
x,1/2-y,1/2+z
loop_
_atom_site_type_symbol
_atom_site_label
_atom_site_fract_x
_atom_site_fract_y
_atom_site_fract_z
Si Si1 0.096064 0.966987 0.044787
Si Si2 0.928495 0.895760 0.318510
Si Si3 0.203270 0.658595 0.461469
Si Si4 0.187672 0.486873 0.079302
Si Si5 0.958047 0.154384 0.604032
O O1 0.159518 0.943316 0.077139
O O2 0.079642 0.807802 0.930011
O O3 0.082113 0.100080 0.894296
O O4 0.064124 0.952053 0.229937
O O5 0.981348 0.787135 0.352486
O O6 0.868984 0.890672 0.406341
O O7 0.952445 0.056367 0.418495
O O8 0.197825 0.572125 0.270453
O O9 0.263706 0.631995 0.530345
O O10 0.188913 0.850044 0.457654
#
# Coordination Sequence:
#
# PCOD9460503 Si02
#       5
#     8   8   8   8   8
#     4  11  20  39  64  90 127 166 210 255 331 379
#     4  10  23  38  60  93 122 162 210 259 312 386
#     4  11  23  40  68  94 130 174 215 270 320 391
#     4  11  23  42  64  96 129 168 221 264 327 383
#     4  11  20  37  64  88 121 164 205 256 316 377
#
# _framework density 26.366710000000001
#
# number of rings (size 3 to 8) (size 9 to 14) (size 15 to 20)
#    0.000    1.200    4.000    3.000    2.800    0.000 
#    0.000    8.000    0.000    0.000    0.000    0.000 
#    0.000    0.000    0.000    0.000    0.000    0.000 
#
# Total GULP energy -223727.353401 kJ/mol
# GULP energy per Si atom -5593.183835 kJ/mol
# Density = 2.630670 g / cm^3
# Si number density = 26.366710 Si / 1000 Ang^3
#
#
#
# Elastic Constant Matrix: (Units=GPa)
#
#
# Indices 1 2 3 4 5 6 
#
# 1 214.0388 19.9592 50.0782 0.0000 0.0000 0.0000
# 2 19.9592 35.5908 29.3776 0.0000 0.0000 0.0000
# 3 50.0782 29.3776 151.7767 0.0000 0.0000 0.0000
# 4 0.0000 0.0000 0.0000 23.9394 0.0000 0.0000
# 5 0.0000 0.0000 0.0000 0.0000 42.6585 0.0000
# 6 0.0000 0.0000 0.0000 0.0000 0.0000 24.1700
#
#
#
# Elastic Compliance Matrix: (Units=1/GPa)
#
#
# Indices 1 2 3 4 5 6 
#
# 1 0.005155 -0.001770 -0.001358 0.000000 0.000000 0.000000
# 2 -0.001770 0.034047 -0.006006 0.000000 0.000000 0.000000
# 3 -0.001358 -0.006006 0.008199 0.000000 0.000000 0.000000
# 4 0.000000 0.000000 0.000000 0.041772 0.000000 0.000000
# 5 0.000000 0.000000 0.000000 0.000000 0.023442 0.000000
# 6 0.000000 0.000000 0.000000 0.000000 0.000000 0.041374
#
#
# Mechanical properties :
#
#
# Convention : Reuss Voigt Hill
#
# Bulk Modulus (GPa) = 34.32523 66.69292 50.50908
# Shear Modulus (GPa) = 27.47727 38.28632 32.88179
#
# Velocity S-wave (km/s) = 3.23169 3.81474 3.53525
# Velocity P-wave (km/s) = 5.19343 6.68971 5.98849
#
# Compressibility (1/GPa) = 0.02913309
#
# Stress axis : x y z
#
# Youngs Moduli (GPa) = 193.99132 29.37097 121.96090
#
# Poissons Ratio (x) = 0.05198 0.16566
# Poissons Ratio (y) = 0.34330 0.73252
# Poissons Ratio (z) = 0.26350 0.17641
#
# Static dielectric constant tensor:
#      x y z
#    x 2.040160 0.000000 0.000000 
#    y 0.000000 2.141910 0.000000 
#    z 0.000000 0.000000 2.053400 
# 
# From -- ./inp_files/3810.got.cif
#   From: 2010.05.17/outbox.cif.g08.bks.cpg/sg61_2_cif.got.tgz:3810.got - 2010.06.03 15:17:17.
