data_PCOD9460708
_publ_section_title
;
Structure prediction by ZEFSAII (Michael W. Deem and Ramdas Pophale) SiO2 
 PCOD9460708
Probable space group: P B C A
;
_chemical_formula_sum "Si O2"
_cell_formula_units_Z 56
_cell_length_a 20.296997
_cell_length_b 12.931853
_cell_length_c 7.972461
_cell_angle_alpha 90.000000
_cell_angle_beta 90.000000
_cell_angle_gamma 90.000000
_cell_volume 2092.593877
_symmetry_space_group_name_H-M "P B C A"
_symmetry_group_IT_number 61
_symmetry_cell_setting 'orthorhombic'
loop_
_space_group_symop_operation_xyz
x,y,z
1/2-x,-y,1/2+z
1/2+x,1/2-y,-z
-x,1/2+y,1/2-z
-x,-y,-z
1/2+x,y,1/2-z
1/2-x,1/2+y,z
x,1/2-y,1/2+z
loop_
_atom_site_type_symbol
_atom_site_label
_atom_site_fract_x
_atom_site_fract_y
_atom_site_fract_z
Si Si1 0.658939 0.965890 0.650323
Si Si2 0.275998 0.837322 0.429008
Si Si3 0.941010 0.084295 0.891094
Si Si4 0.487104 0.750558 0.078838
Si Si5 0.793543 0.618428 0.174420
Si Si6 0.135787 0.761590 0.286489
Si Si7 0.567232 0.092818 0.161038
O O1 0.593731 0.981200 0.539325
O O2 0.730144 0.925644 0.581531
O O3 0.641664 0.861056 0.756312
O O4 0.686520 0.080370 0.690815
O O5 0.280706 0.870890 0.624658
O O6 0.311684 0.728492 0.403287
O O7 0.201133 0.805672 0.376296
O O8 0.998525 0.161802 0.940677
O O9 0.877166 0.159385 0.863541
O O10 0.965041 0.005288 0.750256
O O11 0.458583 0.856312 0.007437
O O12 0.562879 0.771980 0.133560
O O13 0.442720 0.688660 0.210646
O O14 0.858330 0.552310 0.148160
#
# Coordination Sequence:
#
# PCOD9460708 Si02
#       7
#     8   8   8   8   8   8   8
#     4  10  24  41  73  98 140 182 230 292 371 420
#     4  11  24  43  70 106 140 187 233 296 370 424
#     4  11  23  47  72 101 138 192 239 294 356 429
#     4  11  25  45  69 102 139 193 240 293 351 416
#     4  11  25  41  68 104 144 179 232 303 351 429
#     4  10  24  43  72 100 145 181 244 296 349 434
#     4  12  24  46  72 100 148 185 239 296 348 435
#
# _framework density 26.761047999999999
#
# number of rings (size 3 to 8) (size 9 to 14) (size 15 to 20)
#    0.000    1.143    2.857    2.143   12.000    0.571 
#    0.000    1.429    0.000    0.000    0.000    0.000 
#    0.000    0.000    0.000    0.000    0.000    0.000 
#
# Total GULP energy -312299.283777 kJ/mol
# GULP energy per Si atom -5576.772925 kJ/mol
# Density = 2.670014 g / cm^3
# Si number density = 26.761048 Si / 1000 Ang^3
#
#
#
# Elastic Constant Matrix: (Units=GPa)
#
#
# Indices 1 2 3 4 5 6 
#
# 1 59.5642 25.9874 14.3760 0.0000 0.0000 0.0000
# 2 25.9874 97.9666 10.9418 0.0000 0.0000 0.0000
# 3 14.3760 10.9418 46.3936 0.0000 0.0000 0.0000
# 4 0.0000 0.0000 0.0000 30.1527 0.0000 0.0000
# 5 0.0000 0.0000 0.0000 0.0000 38.0067 0.0000
# 6 0.0000 0.0000 0.0000 0.0000 0.0000 50.9950
#
#
#
# Elastic Compliance Matrix: (Units=1/GPa)
#
#
# Indices 1 2 3 4 5 6 
#
# 1 0.020098 -0.004761 -0.005105 0.000000 0.000000 0.000000
# 2 -0.004761 0.011612 -0.001263 0.000000 0.000000 0.000000
# 3 -0.005105 -0.001263 0.023434 0.000000 0.000000 0.000000
# 4 0.000000 0.000000 0.000000 0.033164 0.000000 0.000000
# 5 0.000000 0.000000 0.000000 0.000000 0.026311 0.000000
# 6 0.000000 0.000000 0.000000 0.000000 0.000000 0.019610
#
#
# Mechanical properties :
#
#
# Convention : Reuss Voigt Hill
#
# Bulk Modulus (GPa) = 30.40849 34.05942 32.23395
# Shear Modulus (GPa) = 29.85969 34.00550 31.93260
#
# Velocity S-wave (km/s) = 3.34397 3.56857 3.45809
# Velocity P-wave (km/s) = 5.12807 5.45293 5.29299
#
# Compressibility (1/GPa) = 0.03288556
#
# Stress axis : x y z
#
# Youngs Moduli (GPa) = 49.75636 86.12055 42.67216
#
# Poissons Ratio (x) = 0.41004 0.21783
# Poissons Ratio (y) = 0.23690 0.05390
# Poissons Ratio (z) = 0.25400 0.10879
#
# Static dielectric constant tensor:
#      x y z
#    x 2.053700 0.000000 0.000000 
#    y 0.000000 2.145500 0.000000 
#    z 0.000000 0.000000 2.456410 
# 
# From -- ./inp_files/3974.got.cif
#   From: 2010.05.17/outbox.cif.g08.bks.cpg/sg61_2_cif.got.tgz:3974.got - 2010.06.03 15:17:17.
