data_PCOD9460468
_publ_section_title
;
Structure prediction by ZEFSAII (Michael W. Deem and Ramdas Pophale) SiO2 
 PCOD9460468
Probable space group: P B C A
;
_chemical_formula_sum "Si O2"
_cell_formula_units_Z 60
_cell_length_a 12.923499
_cell_length_b 20.877929
_cell_length_c 8.159151
_cell_angle_alpha 90.000000
_cell_angle_beta 90.000000
_cell_angle_gamma 90.000000
_cell_volume 2201.468626
_symmetry_space_group_name_H-M "P B C A"
_symmetry_group_IT_number 61
_symmetry_cell_setting 'orthorhombic'
loop_
_space_group_symop_operation_xyz
x,y,z
1/2-x,-y,1/2+z
1/2+x,1/2-y,-z
-x,1/2+y,1/2-z
-x,-y,-z
1/2+x,y,1/2-z
1/2-x,1/2+y,z
x,1/2-y,1/2+z
loop_
_atom_site_type_symbol
_atom_site_label
_atom_site_fract_x
_atom_site_fract_y
_atom_site_fract_z
Si Si1 0.261466 0.458441 0.931312
Si Si2 0.293021 0.324650 0.761070
Si Si3 0.500000 0.500000 0.000000
Si Si4 0.768709 0.876397 0.255367
Si Si5 0.888472 0.851802 0.953365
Si Si6 0.841519 0.770345 0.482048
Si Si7 0.581519 0.941562 0.159720
Si Si8 0.495999 0.628613 0.352485
O O1 0.270550 0.399590 0.803508
O O2 0.174524 0.508279 0.875659
O O3 0.377843 0.481138 0.961971
O O4 0.221432 0.427499 0.100594
O O5 0.209392 0.309568 0.619301
O O6 0.267220 0.280182 0.913474
O O7 0.406497 0.327717 0.690984
O O8 0.485688 0.465471 0.188420
O O9 0.817054 0.809839 0.315278
O O10 0.646991 0.877830 0.212229
O O11 0.834287 0.890117 0.093705
O O12 0.954648 0.894081 0.829973
O O13 0.935334 0.784205 0.001675
O O14 0.904507 0.827656 0.582856
O O15 0.474989 0.076499 0.010986
#
# Coordination Sequence:
#
# PCOD9460468 Si02
#       8
#     8   8   4   8   8   8   8   8
#     4  10  25  46  79 115 155 202 270 319 397 496
#     4  10  23  46  72 106 148 200 258 324 389 466
#     4  10  26  48  82 110 154 216 258 326 420 474
#     4  10  22  45  74 109 149 203 267 321 388 487
#     4  11  23  48  77 103 157 205 254 334 403 468
#     4  10  24  47  74 111 155 205 261 329 406 477
#     4  11  25  48  78 114 160 210 270 334 398 499
#     4  11  25  45  74 119 155 199 268 333 400 491
#
# _framework density 27.254534
#
# number of rings (size 3 to 8) (size 9 to 14) (size 15 to 20)
#    0.000    1.600    1.333    1.600    5.600    5.333 
#    7.200    7.333    2.933    0.000    0.000    0.000 
#    0.000    0.000    0.000    0.000    0.000    0.000 
#
# Total GULP energy -334385.356442 kJ/mol
# GULP energy per Si atom -5573.089274 kJ/mol
# Density = 2.719250 g / cm^3
# Si number density = 27.254534 Si / 1000 Ang^3
#
#
#
# Elastic Constant Matrix: (Units=GPa)
#
#
# Indices 1 2 3 4 5 6 
#
# 1 140.9056 48.1658 66.8271 0.0000 0.0000 0.0000
# 2 48.1658 112.3419 34.3012 0.0000 0.0000 0.0000
# 3 66.8271 34.3012 143.2511 0.0000 0.0000 0.0000
# 4 0.0000 0.0000 0.0000 41.0378 0.0000 0.0000
# 5 0.0000 0.0000 0.0000 0.0000 63.4404 0.0000
# 6 0.0000 0.0000 0.0000 0.0000 0.0000 36.9299
#
#
#
# Elastic Compliance Matrix: (Units=1/GPa)
#
#
# Indices 1 2 3 4 5 6 
#
# 1 0.010021 -0.003095 -0.003933 0.000000 0.000000 0.000000
# 2 -0.003095 0.010560 -0.001085 0.000000 0.000000 0.000000
# 3 -0.003933 -0.001085 0.009075 0.000000 0.000000 0.000000
# 4 0.000000 0.000000 0.000000 0.024368 0.000000 0.000000
# 5 0.000000 0.000000 0.000000 0.000000 0.015763 0.000000
# 6 0.000000 0.000000 0.000000 0.000000 0.000000 0.027078
#
#
# Mechanical properties :
#
#
# Convention : Reuss Voigt Hill
#
# Bulk Modulus (GPa) = 74.46535 77.23189 75.84862
# Shear Modulus (GPa) = 42.52886 44.76192 43.64539
#
# Velocity S-wave (km/s) = 3.95452 4.05701 4.00609
# Velocity P-wave (km/s) = 6.94496 7.09539 7.02058
#
# Compressibility (1/GPa) = 0.01342906
#
# Stress axis : x y z
#
# Youngs Moduli (GPa) = 99.79531 94.70059 110.18786
#
# Poissons Ratio (x) = 0.29312 0.43342
# Poissons Ratio (y) = 0.30889 0.11950
# Poissons Ratio (z) = 0.39254 0.10271
#
# Static dielectric constant tensor:
#      x y z
#    x 2.250240 0.000000 0.000000 
#    y 0.000000 2.849960 0.000000 
#    z 0.000000 0.000000 2.522860 
# 
# From -- ./inp_files/3145.got.cif
#   From: 2010.05.17/outbox.cif.g08.bks.cpg/sg61_2_cif.got.tgz:3145.got - 2010.06.03 15:17:17.
