data_PCOD9460522
_publ_section_title
;
Structure prediction by ZEFSAII (Michael W. Deem and Ramdas Pophale) SiO2 
 PCOD9460522
Probable space group: P B C A
;
_chemical_formula_sum "Si O2"
_cell_formula_units_Z 40
_cell_length_a 9.447279
_cell_length_b 9.529372
_cell_length_c 17.229527
_cell_angle_alpha 90.000000
_cell_angle_beta 90.000000
_cell_angle_gamma 90.000000
_cell_volume 1551.116355
_symmetry_space_group_name_H-M "P B C A"
_symmetry_group_IT_number 61
_symmetry_cell_setting 'orthorhombic'
loop_
_space_group_symop_operation_xyz
x,y,z
1/2-x,-y,1/2+z
1/2+x,1/2-y,-z
-x,1/2+y,1/2-z
-x,-y,-z
1/2+x,y,1/2-z
1/2-x,1/2+y,z
x,1/2-y,1/2+z
loop_
_atom_site_type_symbol
_atom_site_label
_atom_site_fract_x
_atom_site_fract_y
_atom_site_fract_z
Si Si1 0.162502 0.757103 0.088661
Si Si2 0.557344 0.450037 0.639722
Si Si3 0.228612 0.167353 0.892791
Si Si4 0.944244 0.823261 0.958004
Si Si5 0.006693 0.976575 0.186141
O O1 0.093063 0.604920 0.106800
O O2 0.326893 0.781271 0.076148
O O3 0.082355 0.794552 0.008690
O O4 0.109550 0.850982 0.159954
O O5 0.615232 0.601529 0.611999
O O6 0.541121 0.458330 0.731931
O O7 0.673048 0.328570 0.615542
O O8 0.148680 0.090586 0.821183
O O9 0.157281 0.113837 0.973066
O O10 0.979646 0.914728 0.883886
#
# Coordination Sequence:
#
# PCOD9460522 Si02
#       5
#     8   8   8   8   8
#     4  10  24  45  66 102 133 185 230 282 352 404
#     4  10  24  42  67  99 138 177 231 281 346 410
#     4  10  24  43  67  97 139 181 225 290 339 401
#     4  10  23  42  70  95 136 181 230 279 345 409
#     4  10  23  40  68  91 144 177 223 282 353 407
#
# _framework density 25.787880000000001
#
# number of rings (size 3 to 8) (size 9 to 14) (size 15 to 20)
#    0.000    2.400    0.000    2.400   16.800    2.400 
#    0.000    0.000    0.000    0.000    0.000    0.000 
#    0.000    0.000    0.000    0.000    0.000    0.000 
#
# Total GULP energy -223379.721535 kJ/mol
# GULP energy per Si atom -5584.493038 kJ/mol
# Density = 2.572919 g / cm^3
# Si number density = 25.787880 Si / 1000 Ang^3
#
#
#
# Elastic Constant Matrix: (Units=GPa)
#
#
# Indices 1 2 3 4 5 6 
#
# 1 120.4659 18.4755 -9.6699 0.0000 0.0000 0.0000
# 2 18.4755 77.8009 14.4697 0.0000 0.0000 0.0000
# 3 -9.6699 14.4697 115.0383 0.0000 0.0000 0.0000
# 4 0.0000 0.0000 0.0000 43.4863 0.0000 0.0000
# 5 0.0000 0.0000 0.0000 0.0000 24.0354 0.0000
# 6 0.0000 0.0000 0.0000 0.0000 0.0000 40.3167
#
#
#
# Elastic Compliance Matrix: (Units=1/GPa)
#
#
# Indices 1 2 3 4 5 6 
#
# 1 0.008730 -0.002262 0.001018 0.000000 0.000000 0.000000
# 2 -0.002262 0.013748 -0.001919 0.000000 0.000000 0.000000
# 3 0.001018 -0.001919 0.009020 0.000000 0.000000 0.000000
# 4 0.000000 0.000000 0.000000 0.022996 0.000000 0.000000
# 5 0.000000 0.000000 0.000000 0.000000 0.041605 0.000000
# 6 0.000000 0.000000 0.000000 0.000000 0.000000 0.024804
#
#
# Mechanical properties :
#
#
# Convention : Reuss Voigt Hill
#
# Bulk Modulus (GPa) = 39.72944 39.98397 39.85670
# Shear Modulus (GPa) = 36.86802 40.90300 38.88551
#
# Velocity S-wave (km/s) = 3.78519 3.98695 3.88738
# Velocity P-wave (km/s) = 5.87735 6.06077 5.96977
#
# Compressibility (1/GPa) = 0.02517025
#
# Stress axis : x y z
#
# Youngs Moduli (GPa) = 114.54959 72.74010 110.86739
#
# Poissons Ratio (x) = 0.16457 -0.11291
# Poissons Ratio (y) = 0.25917 0.21280
# Poissons Ratio (z) = -0.11666 0.13962
#
# Static dielectric constant tensor:
#      x y z
#    x 2.155730 0.000000 0.000000 
#    y 0.000000 2.138990 0.000000 
#    z 0.000000 0.000000 1.946530 
# 
# From -- ./inp_files/9112.got.cif
#   From: 2010.05.17/outbox.cif.g08.bks.cpg/sg61_5_cif.got.tgz:9112.got - 2010.06.03 15:17:17.
