data_PCOD9460357
_publ_section_title
;
Structure prediction by ZEFSAII (Michael W. Deem and Ramdas Pophale) SiO2 
 PCOD9460357
Probable space group: P B C A
;
_chemical_formula_sum "Si O2"
_cell_formula_units_Z 40
_cell_length_a 14.771605
_cell_length_b 9.756047
_cell_length_c 10.254194
_cell_angle_alpha 90.000000
_cell_angle_beta 90.000000
_cell_angle_gamma 90.000000
_cell_volume 1477.757252
_symmetry_space_group_name_H-M "P B C A"
_symmetry_group_IT_number 61
_symmetry_cell_setting 'orthorhombic'
loop_
_space_group_symop_operation_xyz
x,y,z
1/2-x,-y,1/2+z
1/2+x,1/2-y,-z
-x,1/2+y,1/2-z
-x,-y,-z
1/2+x,y,1/2-z
1/2-x,1/2+y,z
x,1/2-y,1/2+z
loop_
_atom_site_type_symbol
_atom_site_label
_atom_site_fract_x
_atom_site_fract_y
_atom_site_fract_z
Si Si1 0.108616 0.111460 0.464906
Si Si2 0.752181 0.213738 0.670381
Si Si3 0.752843 0.467241 0.847927
Si Si4 0.944333 0.479821 0.313875
Si Si5 0.957195 0.247767 0.138146
O O1 0.175814 0.233136 0.424617
O O2 0.168475 0.009929 0.554290
O O3 0.078725 0.041194 0.330472
O O4 0.024967 0.171987 0.543905
O O5 0.751991 0.311907 0.798301
O O6 0.732939 0.061687 0.719533
O O7 0.851532 0.234059 0.612301
O O8 0.650892 0.508691 0.889417
O O9 0.971205 0.324113 0.279740
O O10 0.016114 0.588396 0.365671
#
# Coordination Sequence:
#
# PCOD9460357 Si02
#       5
#     8   8   8   8   8
#     4  11  22  41  67  92 124 169 210 253 314 374
#     4  10  24  41  62  96 129 163 210 259 309 368
#     4  10  22  42  64  89 129 165 204 261 312 368
#     4  10  24  41  62  94 126 165 210 254 311 372
#     4  11  23  41  64  91 127 164 206 261 311 368
#
# _framework density 27.068044
#
# number of rings (size 3 to 8) (size 9 to 14) (size 15 to 20)
#    0.000    1.600    0.000    4.200    0.000   12.800 
#    0.000    3.000    0.000    0.000    0.000    0.000 
#    0.000    0.000    0.000    0.000    0.000    0.000 
#
# Total GULP energy -224490.832532 kJ/mol
# GULP energy per Si atom -5612.270813 kJ/mol
# Density = 2.700644 g / cm^3
# Si number density = 27.068044 Si / 1000 Ang^3
#
#
#
# Elastic Constant Matrix: (Units=GPa)
#
#
# Indices 1 2 3 4 5 6 
#
# 1 122.5220 3.6169 49.2882 0.0000 0.0000 0.0000
# 2 3.6169 92.3419 7.7649 0.0000 0.0000 0.0000
# 3 49.2882 7.7649 78.8648 0.0000 0.0000 0.0000
# 4 0.0000 0.0000 0.0000 45.4028 0.0000 0.0000
# 5 0.0000 0.0000 0.0000 0.0000 39.6550 0.0000
# 6 0.0000 0.0000 0.0000 0.0000 0.0000 49.4648
#
#
#
# Elastic Compliance Matrix: (Units=1/GPa)
#
#
# Indices 1 2 3 4 5 6 
#
# 1 0.010905 0.000147 -0.006830 0.000000 0.000000 0.000000
# 2 0.000147 0.010922 -0.001167 0.000000 0.000000 0.000000
# 3 -0.006830 -0.001167 0.017063 0.000000 0.000000 0.000000
# 4 0.000000 0.000000 0.000000 0.022025 0.000000 0.000000
# 5 0.000000 0.000000 0.000000 0.000000 0.025217 0.000000
# 6 0.000000 0.000000 0.000000 0.000000 0.000000 0.020216
#
#
# Mechanical properties :
#
#
# Convention : Reuss Voigt Hill
#
# Bulk Modulus (GPa) = 43.12185 46.11877 44.62031
# Shear Modulus (GPa) = 38.52712 42.44176 40.48444
#
# Velocity S-wave (km/s) = 3.77682 3.96405 3.87156
# Velocity P-wave (km/s) = 5.91478 6.16658 6.04199
#
# Compressibility (1/GPa) = 0.02319010
#
# Stress axis : x y z
#
# Youngs Moduli (GPa) = 91.70165 91.56075 58.60547
#
# Poissons Ratio (x) = -0.01348 0.40026
# Poissons Ratio (y) = -0.01350 0.06841
# Poissons Ratio (z) = 0.62630 0.10688
#
# Static dielectric constant tensor:
#      x y z
#    x 2.042700 0.000000 0.000000 
#    y 0.000000 2.141310 0.000000 
#    z 0.000000 0.000000 2.122630 
# 
# From -- ./inp_files/5124.got.cif
#   From: 2010.05.17/outbox.cif.g08.bks.cpg/sg61_3_cif.got.tgz:5124.got - 2010.06.03 15:17:17.
