data_PCOD9460138
_publ_section_title
;
Structure prediction by ZEFSAII (Michael W. Deem and Ramdas Pophale) SiO2 
 PCOD9460138
Probable space group: P B C A
;
_chemical_formula_sum "Si O2"
_cell_formula_units_Z 40
_cell_length_a 13.481013
_cell_length_b 8.330043
_cell_length_c 14.157723
_cell_angle_alpha 90.000000
_cell_angle_beta 90.000000
_cell_angle_gamma 90.000000
_cell_volume 1589.875737
_symmetry_space_group_name_H-M "P B C A"
_symmetry_group_IT_number 61
_symmetry_cell_setting 'orthorhombic'
loop_
_space_group_symop_operation_xyz
x,y,z
1/2-x,-y,1/2+z
1/2+x,1/2-y,-z
-x,1/2+y,1/2-z
-x,-y,-z
1/2+x,y,1/2-z
1/2-x,1/2+y,z
x,1/2-y,1/2+z
loop_
_atom_site_type_symbol
_atom_site_label
_atom_site_fract_x
_atom_site_fract_y
_atom_site_fract_z
Si Si1 0.114428 0.814888 0.265545
Si Si2 0.976521 0.698585 0.601710
Si Si3 0.163474 0.360669 0.028971
Si Si4 0.772057 0.594101 0.331925
Si Si5 0.126150 0.626935 0.439953
O O1 0.206587 0.701942 0.236657
O O2 0.094874 0.774282 0.373545
O O3 0.018485 0.766979 0.204551
O O4 0.154405 0.985478 0.229756
O O5 0.927558 0.841936 0.542269
O O6 0.903668 0.544486 0.604347
O O7 0.070616 0.642479 0.539580
O O8 0.258787 0.361754 0.961285
O O9 0.166660 0.201418 0.094099
O O10 0.190331 0.499702 0.103697
#
# Coordination Sequence:
#
# PCOD9460138 Si02
#       5
#     8   8   8   8   8
#     4  11  25  44  70 106 139 187 239 293 355 423
#     4  11  23  47  70 102 143 184 240 293 346 429
#     4  11  21  44  73  97 139 192 226 293 365 415
#     4  10  21  43  68  99 140 182 236 287 348 422
#     4  11  24  45  70 101 143 190 227 294 364 409
#
# _framework density 25.159199999999998
#
# number of rings (size 3 to 8) (size 9 to 14) (size 15 to 20)
#    0.000    1.200    6.000    1.200    2.800    2.400 
#   10.800    0.000    0.000    0.000    0.000    0.000 
#    0.000    0.000    0.000    0.000    0.000    0.000 
#
# Total GULP energy -224105.236296 kJ/mol
# GULP energy per Si atom -5602.630907 kJ/mol
# Density = 2.510194 g / cm^3
# Si number density = 25.159200 Si / 1000 Ang^3
#
#
#
# Elastic Constant Matrix: (Units=GPa)
#
#
# Indices 1 2 3 4 5 6 
#
# 1 59.6079 -0.6095 5.1479 0.0000 0.0000 0.0000
# 2 -0.6095 69.1518 24.9093 0.0000 0.0000 0.0000
# 3 5.1479 24.9093 66.7182 0.0000 0.0000 0.0000
# 4 0.0000 0.0000 0.0000 30.6203 0.0000 0.0000
# 5 0.0000 0.0000 0.0000 0.0000 14.5306 0.0000
# 6 0.0000 0.0000 0.0000 0.0000 0.0000 39.6121
#
#
#
# Elastic Compliance Matrix: (Units=1/GPa)
#
#
# Indices 1 2 3 4 5 6 
#
# 1 0.016919 0.000716 -0.001573 0.000000 0.000000 0.000000
# 2 0.000716 0.016738 -0.006304 0.000000 0.000000 0.000000
# 3 -0.001573 -0.006304 0.017464 0.000000 0.000000 0.000000
# 4 0.000000 0.000000 0.000000 0.032658 0.000000 0.000000
# 5 0.000000 0.000000 0.000000 0.000000 0.068820 0.000000
# 6 0.000000 0.000000 0.000000 0.000000 0.000000 0.025245
#
#
# Mechanical properties :
#
#
# Convention : Reuss Voigt Hill
#
# Bulk Modulus (GPa) = 27.17526 28.26371 27.71949
# Shear Modulus (GPa) = 24.45783 28.02126 26.23955
#
# Velocity S-wave (km/s) = 3.12127 3.34092 3.23296
# Velocity P-wave (km/s) = 4.88001 5.11280 4.99776
#
# Compressibility (1/GPa) = 0.03679817
#
# Stress axis : x y z
#
# Youngs Moduli (GPa) = 59.10363 59.74366 57.26223
#
# Poissons Ratio (x) = -0.04275 0.09005
# Poissons Ratio (y) = -0.04229 0.36101
# Poissons Ratio (z) = 0.09295 0.37665
#
# Static dielectric constant tensor:
#      x y z
#    x 1.935540 0.000000 0.000000 
#    y 0.000000 2.041390 0.000000 
#    z 0.000000 0.000000 1.974270 
# 
# From -- ./inp_files/2731.got.cif
#   From: 2010.05.17/outbox.cif.g08.bks.cpg/sg61_2_cif.got.tgz:2731.got - 2010.06.03 15:17:17.
