data_PCOD9460819
_publ_section_title
;
Structure prediction by ZEFSAII (Michael W. Deem and Ramdas Pophale) SiO2 
 PCOD9460819
Probable space group: P B C A
;
_chemical_formula_sum "Si O2"
_cell_formula_units_Z 32
_cell_length_a 9.546954
_cell_length_b 22.993846
_cell_length_c 5.108708
_cell_angle_alpha 90.000000
_cell_angle_beta 90.000000
_cell_angle_gamma 90.000000
_cell_volume 1121.469660
_symmetry_space_group_name_H-M "P B C A"
_symmetry_group_IT_number 61
_symmetry_cell_setting 'orthorhombic'
loop_
_space_group_symop_operation_xyz
x,y,z
1/2-x,-y,1/2+z
1/2+x,1/2-y,-z
-x,1/2+y,1/2-z
-x,-y,-z
1/2+x,y,1/2-z
1/2-x,1/2+y,z
x,1/2-y,1/2+z
loop_
_atom_site_type_symbol
_atom_site_label
_atom_site_fract_x
_atom_site_fract_y
_atom_site_fract_z
Si Si1 0.161908 0.867309 0.210172
Si Si2 0.050139 0.211582 0.025545
Si Si3 0.843755 0.004949 0.777530
Si Si4 0.438364 0.614897 0.399744
O O1 0.321335 0.876327 0.123787
O O2 0.085853 0.860422 0.492177
O O3 0.097534 0.931783 0.148514
O O4 0.105197 0.813002 0.042172
O O5 0.083933 0.257613 0.252836
O O6 0.111425 0.152833 0.152742
O O7 0.940326 0.952749 0.675602
O O8 0.739345 0.015827 0.533647
#
# Coordination Sequence:
#
# PCOD9460819 Si02
#       4
#     8   8   8   8
#     4  11  27  51  82 119 161 208 265 331 403 476
#     4  12  28  51  74 111 152 210 266 324 385 461
#     4  10  25  45  80 122 163 205 259 327 410 482
#     4  11  27  49  84 117 165 207 268 329 407 473
#
# _framework density 28.533988999999998
#
# number of rings (size 3 to 8) (size 9 to 14) (size 15 to 20)
#    0.000    1.000    2.500    0.750   14.000    3.000 
#    0.000    0.000    0.000    0.000    0.000    0.000 
#    0.000    0.000    0.000    0.000    0.000    0.000 
#
# Total GULP energy -178830.317693 kJ/mol
# GULP energy per Si atom -5588.447428 kJ/mol
# Density = 2.846904 g / cm^3
# Si number density = 28.533989 Si / 1000 Ang^3
#
#
#
# Elastic Constant Matrix: (Units=GPa)
#
#
# Indices 1 2 3 4 5 6 
#
# 1 115.6883 8.6242 52.1113 0.0000 0.0000 0.0000
# 2 8.6242 169.9264 54.7242 0.0000 0.0000 0.0000
# 3 52.1113 54.7242 193.3357 0.0000 0.0000 0.0000
# 4 0.0000 0.0000 0.0000 51.4901 0.0000 0.0000
# 5 0.0000 0.0000 0.0000 0.0000 33.4580 0.0000
# 6 0.0000 0.0000 0.0000 0.0000 0.0000 39.6327
#
#
#
# Elastic Compliance Matrix: (Units=1/GPa)
#
#
# Indices 1 2 3 4 5 6 
#
# 1 0.009862 0.000391 -0.002769 0.000000 0.000000 0.000000
# 2 0.000391 0.006491 -0.001943 0.000000 0.000000 0.000000
# 3 -0.002769 -0.001943 0.006469 0.000000 0.000000 0.000000
# 4 0.000000 0.000000 0.000000 0.019421 0.000000 0.000000
# 5 0.000000 0.000000 0.000000 0.000000 0.029888 0.000000
# 6 0.000000 0.000000 0.000000 0.000000 0.000000 0.025232
#
#
# Mechanical properties :
#
#
# Convention : Reuss Voigt Hill
#
# Bulk Modulus (GPa) = 70.51943 78.87445 74.69694
# Shear Modulus (GPa) = 45.15493 49.14887 47.15190
#
# Velocity S-wave (km/s) = 3.98238 4.15476 4.06948
# Velocity P-wave (km/s) = 6.77596 7.12168 6.95097
#
# Compressibility (1/GPa) = 0.01418049
#
# Stress axis : x y z
#
# Youngs Moduli (GPa) = 101.39936 154.06730 154.59416
#
# Poissons Ratio (x) = -0.06027 0.42806
# Poissons Ratio (y) = -0.03967 0.30032
# Poissons Ratio (z) = 0.28077 0.29930
#
# Static dielectric constant tensor:
#      x y z
#    x 2.274740 0.000000 0.000000 
#    y 0.000000 2.238320 0.000000 
#    z 0.000000 0.000000 2.304800 
# 
# From -- ./inp_files/182.got.cif
#   From: 2010.05.17/outbox.cif.g08.bks.cpg/sg61_1_cif.got.tgz:182.got - 2010.06.03 15:17:17.
