data_PCOD9460328
_publ_section_title
;
Structure prediction by ZEFSAII (Michael W. Deem and Ramdas Pophale) SiO2 
 PCOD9460328
Probable space group: P B C A
;
_chemical_formula_sum "Si O2"
_cell_formula_units_Z 64
_cell_length_a 16.910003
_cell_length_b 12.579734
_cell_length_c 13.275212
_cell_angle_alpha 90.000000
_cell_angle_beta 90.000000
_cell_angle_gamma 90.000000
_cell_volume 2823.947432
_symmetry_space_group_name_H-M "P B C A"
_symmetry_group_IT_number 61
_symmetry_cell_setting 'orthorhombic'
loop_
_space_group_symop_operation_xyz
x,y,z
1/2-x,-y,1/2+z
1/2+x,1/2-y,-z
-x,1/2+y,1/2-z
-x,-y,-z
1/2+x,y,1/2-z
1/2-x,1/2+y,z
x,1/2-y,1/2+z
loop_
_atom_site_type_symbol
_atom_site_label
_atom_site_fract_x
_atom_site_fract_y
_atom_site_fract_z
Si Si1 0.546488 0.661177 0.147858
Si Si2 0.779017 0.164207 0.301161
Si Si3 0.407192 0.172376 0.695835
Si Si4 0.572366 0.073249 0.725851
Si Si5 0.698192 0.814173 0.563420
Si Si6 0.677415 0.153897 0.554929
Si Si7 0.116185 0.235257 0.614184
Si Si8 0.710754 0.976254 0.401575
O O1 0.578252 0.770959 0.197206
O O2 0.560498 0.553213 0.211730
O O3 0.604740 0.658332 0.051595
O O4 0.454582 0.681593 0.136477
O O5 0.852741 0.230578 0.347417
O O6 0.781970 0.156166 0.179631
O O7 0.697511 0.224277 0.332556
O O8 0.775234 0.046475 0.345411
O O9 0.495014 0.129394 0.673832
O O10 0.348065 0.074638 0.679823
O O11 0.645975 0.113338 0.659779
O O12 0.587385 0.125300 0.835401
O O13 0.732869 0.695904 0.555774
O O14 0.739249 0.886263 0.478544
O O15 0.628471 0.251235 0.505786
O O16 0.668579 0.058654 0.476571
#
# Coordination Sequence:
#
# PCOD9460328 Si02
#       8
#     8   8   8   8   8   8   8   8
#     4  10  23  42  68 101 131 179 228 278 341 408
#     4  10  22  42  64  96 136 178 224 276 345 405
#     4  10  24  40  67  98 133 175 224 280 332 406
#     4  11  21  43  70  94 137 174 225 276 345 397
#     4  11  23  40  64 101 134 174 228 282 333 405
#     4  11  23  38  65  96 127 178 220 277 330 406
#     4  10  22  41  66  95 135 172 224 286 336 401
#     4  11  22  40  66  99 127 177 223 278 335 403
#
# _framework density 22.663311
#
# number of rings (size 3 to 8) (size 9 to 14) (size 15 to 20)
#    0.000    1.500    2.500    3.000    1.750    7.000 
#    0.000    0.000    0.000    2.250    0.000    0.000 
#    0.000    0.000    0.000    0.000    0.000    0.000 
#
# Total GULP energy -356313.375166 kJ/mol
# GULP energy per Si atom -5567.396487 kJ/mol
# Density = 2.261173 g / cm^3
# Si number density = 22.663311 Si / 1000 Ang^3
#
#
#
# Elastic Constant Matrix: (Units=GPa)
#
#
# Indices 1 2 3 4 5 6 
#
# 1 90.3232 39.7875 -6.4394 0.0000 0.0000 0.0000
# 2 39.7875 110.2787 22.6532 0.0000 0.0000 0.0000
# 3 -6.4394 22.6532 54.0487 0.0000 0.0000 0.0000
# 4 0.0000 0.0000 0.0000 32.7029 0.0000 0.0000
# 5 0.0000 0.0000 0.0000 0.0000 24.0022 0.0000
# 6 0.0000 0.0000 0.0000 0.0000 0.0000 48.7719
#
#
#
# Elastic Compliance Matrix: (Units=1/GPa)
#
#
# Indices 1 2 3 4 5 6 
#
# 1 0.013958 -0.005884 0.004129 0.000000 0.000000 0.000000
# 2 -0.005884 0.012403 -0.005899 0.000000 0.000000 0.000000
# 3 0.004129 -0.005899 0.021466 0.000000 0.000000 0.000000
# 4 0.000000 0.000000 0.000000 0.030578 0.000000 0.000000
# 5 0.000000 0.000000 0.000000 0.000000 0.041663 0.000000
# 6 0.000000 0.000000 0.000000 0.000000 0.000000 0.020504
#
#
# Mechanical properties :
#
#
# Convention : Reuss Voigt Hill
#
# Bulk Modulus (GPa) = 30.75205 40.73926 35.74566
# Shear Modulus (GPa) = 29.99057 34.33870 32.16463
#
# Velocity S-wave (km/s) = 3.64168 3.89674 3.77136
# Velocity P-wave (km/s) = 5.59294 6.18555 5.89669
#
# Compressibility (1/GPa) = 0.03251815
#
# Stress axis : x y z
#
# Youngs Moduli (GPa) = 71.64553 80.62813 46.58461
#
# Poissons Ratio (x) = 0.47441 -0.19235
# Poissons Ratio (y) = 0.42156 0.27482
# Poissons Ratio (z) = -0.29583 0.47565
#
# Static dielectric constant tensor:
#      x y z
#    x 1.972060 0.000000 0.000000 
#    y 0.000000 1.888780 0.000000 
#    z 0.000000 0.000000 1.893080 
# 
# From -- ./inp_files/8216.got.cif
#   From: 2010.05.17/outbox.cif.g08.bks.cpg/sg61_5_cif.got.tgz:8216.got - 2010.06.03 15:17:17.
