data_PCOD9460880
_publ_section_title
;
Structure prediction by ZEFSAII (Michael W. Deem and Ramdas Pophale) SiO2 
 PCOD9460880
Probable space group: P B C A
;
_chemical_formula_sum "Si O2"
_cell_formula_units_Z 64
_cell_length_a 11.088651
_cell_length_b 11.508288
_cell_length_c 23.680369
_cell_angle_alpha 90.000000
_cell_angle_beta 90.000000
_cell_angle_gamma 90.000000
_cell_volume 3021.884786
_symmetry_space_group_name_H-M "P B C A"
_symmetry_group_IT_number 61
_symmetry_cell_setting 'orthorhombic'
loop_
_space_group_symop_operation_xyz
x,y,z
1/2-x,-y,1/2+z
1/2+x,1/2-y,-z
-x,1/2+y,1/2-z
-x,-y,-z
1/2+x,y,1/2-z
1/2-x,1/2+y,z
x,1/2-y,1/2+z
loop_
_atom_site_type_symbol
_atom_site_label
_atom_site_fract_x
_atom_site_fract_y
_atom_site_fract_z
Si Si1 0.575453 0.826667 0.653645
Si Si2 0.391797 0.148553 0.159891
Si Si3 0.032672 0.845781 0.086852
Si Si4 0.315226 0.920505 0.479001
Si Si5 0.179714 0.676780 0.471711
Si Si6 0.904464 0.525599 0.743942
Si Si7 0.651238 0.427654 0.892602
Si Si8 0.651388 0.838317 0.250186
O O1 0.624667 0.825921 0.590573
O O2 0.610162 0.936840 0.692041
O O3 0.431581 0.843070 0.644717
O O4 0.623915 0.717167 0.688663
O O5 0.480434 0.228751 0.122942
O O6 0.438816 0.045316 0.199015
O O7 0.289371 0.099865 0.118766
O O8 0.331182 0.233978 0.205605
O O9 0.910730 0.912464 0.071776
O O10 0.119423 0.937688 0.118344
O O11 0.091512 0.819603 0.025918
O O12 0.246479 0.799412 0.475111
O O13 0.375885 0.914778 0.540978
O O14 0.255561 0.049260 0.477446
O O15 0.774242 0.587102 0.750839
O O16 0.022527 0.603748 0.733895
#
# Coordination Sequence:
#
# PCOD9460880 Si02
#       8
#     8   8   8   8   8   8   8   8
#     4  11  23  39  67  94 136 176 227 285 361 420
#     4  11  23  40  70  96 128 178 241 286 346 432
#     4  11  21  41  67  97 136 180 227 290 350 427
#     4  11  23  42  68 100 146 181 238 283 359 429
#     4  11  23  41  65 104 134 187 226 285 355 427
#     4  11  25  45  64 101 131 181 232 296 360 421
#     4  11  20  41  68  97 133 181 234 287 346 434
#     4  11  26  44  68  97 139 176 237 298 357 418
#
# _framework density 21.178836
#
# number of rings (size 3 to 8) (size 9 to 14) (size 15 to 20)
#    0.000    1.000    3.750    3.750    1.750    4.000 
#    0.000    0.625    0.000    0.000    0.000    0.000 
#    0.000    0.000    0.000    0.000    0.000    0.000 
#
# Total GULP energy -356889.696187 kJ/mol
# GULP energy per Si atom -5576.401503 kJ/mol
# Density = 2.113063 g / cm^3
# Si number density = 21.178836 Si / 1000 Ang^3
#
#
#
# Elastic Constant Matrix: (Units=GPa)
#
#
# Indices 1 2 3 4 5 6 
#
# 1 23.3827 11.1385 1.2283 0.0000 0.0000 0.0000
# 2 11.1385 93.7611 24.3267 0.0000 0.0000 0.0000
# 3 1.2283 24.3267 101.1128 0.0000 0.0000 0.0000
# 4 0.0000 0.0000 0.0000 46.2776 0.0000 0.0000
# 5 0.0000 0.0000 0.0000 0.0000 25.4629 0.0000
# 6 0.0000 0.0000 0.0000 0.0000 0.0000 28.4080
#
#
#
# Elastic Compliance Matrix: (Units=1/GPa)
#
#
# Indices 1 2 3 4 5 6 
#
# 1 0.045392 -0.005599 0.000796 0.000000 0.000000 0.000000
# 2 -0.005599 0.012066 -0.002835 0.000000 0.000000 0.000000
# 3 0.000796 -0.002835 0.010562 0.000000 0.000000 0.000000
# 4 0.000000 0.000000 0.000000 0.021609 0.000000 0.000000
# 5 0.000000 0.000000 0.000000 0.000000 0.039273 0.000000
# 6 0.000000 0.000000 0.000000 0.000000 0.000000 0.035201
#
#
# Mechanical properties :
#
#
# Convention : Reuss Voigt Hill
#
# Bulk Modulus (GPa) = 18.95951 32.40481 25.68216
# Shear Modulus (GPa) = 25.38577 32.13391 28.75984
#
# Velocity S-wave (km/s) = 3.46589 3.89943 3.68904
# Velocity P-wave (km/s) = 4.99881 5.96724 5.50436
#
# Compressibility (1/GPa) = 0.05274397
#
# Stress axis : x y z
#
# Youngs Moduli (GPa) = 22.03039 82.87706 94.67597
#
# Poissons Ratio (x) = 0.46401 -0.07533
# Poissons Ratio (y) = 0.12334 0.26840
# Poissons Ratio (z) = -0.01753 0.23495
#
# Static dielectric constant tensor:
#      x y z
#    x 1.766840 0.000000 0.000000 
#    y 0.000000 1.843610 0.000000 
#    z 0.000000 0.000000 1.784850 
# 
# From -- ./inp_files/11007.got.cif
#   From: 2010.05.17/outbox.cif.g08.bks.cpg/sg61_6_cif.got.tgz:11007.got - 2010.06.03 15:17:17.
