data_PCOD9460094
_publ_section_title
;
Structure prediction by ZEFSAII (Michael W. Deem and Ramdas Pophale) SiO2 
 PCOD9460094
Probable space group: P B C A
;
_chemical_formula_sum "Si O2"
_cell_formula_units_Z 64
_cell_length_a 8.425531
_cell_length_b 13.809490
_cell_length_c 22.772236
_cell_angle_alpha 90.000000
_cell_angle_beta 90.000000
_cell_angle_gamma 90.000000
_cell_volume 2649.601718
_symmetry_space_group_name_H-M "P B C A"
_symmetry_group_IT_number 61
_symmetry_cell_setting 'orthorhombic'
loop_
_space_group_symop_operation_xyz
x,y,z
1/2-x,-y,1/2+z
1/2+x,1/2-y,-z
-x,1/2+y,1/2-z
-x,-y,-z
1/2+x,y,1/2-z
1/2-x,1/2+y,z
x,1/2-y,1/2+z
loop_
_atom_site_type_symbol
_atom_site_label
_atom_site_fract_x
_atom_site_fract_y
_atom_site_fract_z
Si Si1 0.320664 0.465774 0.829968
Si Si2 0.773308 0.310009 0.581704
Si Si3 0.397692 0.749138 0.030679
Si Si4 0.665379 0.656121 0.682281
Si Si5 0.114455 0.131752 0.228363
Si Si6 0.841340 0.592660 0.873237
Si Si7 0.323481 0.363054 0.616065
Si Si8 0.608013 0.768674 0.308174
O O1 0.264688 0.416838 0.890433
O O2 0.299875 0.579288 0.834597
O O3 0.494864 0.430795 0.810919
O O4 0.211302 0.430782 0.775065
O O5 0.645526 0.272895 0.535363
O O6 0.816039 0.246062 0.638923
O O7 0.934045 0.300155 0.542226
O O8 0.388605 0.849406 0.067640
O O9 0.271110 0.677266 0.061750
O O10 0.491360 0.610929 0.669879
O O11 0.687542 0.680179 0.749398
O O12 0.238612 0.176191 0.179821
O O13 0.018324 0.212725 0.262115
O O14 0.830616 0.477063 0.881150
O O15 0.680503 0.643499 0.851101
O O16 0.469244 0.297823 0.634799
#
# Coordination Sequence:
#
# PCOD9460094 Si02
#       8
#     8   8   8   8   8   8   8   8
#     4  12  24  42  67 101 138 176 220 277 339 410
#     4  11  23  51  65 100 131 183 228 289 339 398
#     4  10  23  44  74  89 136 175 234 287 334 399
#     4  11  24  40  67  95 141 176 222 273 344 411
#     4  10  22  41  66  92 139 172 209 279 331 406
#     4  10  21  42  64  99 132 177 226 276 335 403
#     4   9  19  40  67  94 131 173 220 284 334 394
#     4   9  20  38  62  95 131 177 213 273 336 403
#
# _framework density 24.154575000000001
#
# number of rings (size 3 to 8) (size 9 to 14) (size 15 to 20)
#    0.750    1.000    2.500    1.500    3.500    2.000 
#    2.250    5.000    0.000    0.000    0.000    0.000 
#    0.000    0.000    0.000    0.000    0.000    0.000 
#
# Total GULP energy -357105.565728 kJ/mol
# GULP energy per Si atom -5579.774464 kJ/mol
# Density = 2.409960 g / cm^3
# Si number density = 24.154575 Si / 1000 Ang^3
#
#
#
# Elastic Constant Matrix: (Units=GPa)
#
#
# Indices 1 2 3 4 5 6 
#
# 1 47.9634 4.3346 -7.7242 0.0000 0.0000 0.0000
# 2 4.3346 124.3969 13.7145 0.0000 0.0000 0.0000
# 3 -7.7242 13.7145 39.6109 0.0000 0.0000 0.0000
# 4 0.0000 0.0000 0.0000 -8.7339 0.0000 0.0000
# 5 0.0000 0.0000 0.0000 0.0000 38.1654 0.0000
# 6 0.0000 0.0000 0.0000 0.0000 0.0000 25.4565
#
#
#
# Elastic Compliance Matrix: (Units=1/GPa)
#
#
# Indices 1 2 3 4 5 6 
#
# 1 0.021717 -0.001272 0.004675 0.000000 0.000000 0.000000
# 2 -0.001272 0.008432 -0.003168 0.000000 0.000000 0.000000
# 3 0.004675 -0.003168 0.027254 0.000000 0.000000 0.000000
# 4 0.000000 0.000000 0.000000 -0.114496 0.000000 0.000000
# 5 0.000000 0.000000 0.000000 0.000000 0.026202 0.000000
# 6 0.000000 0.000000 0.000000 0.000000 0.000000 0.039283
#
#
# Mechanical properties :
#
#
# Convention : Reuss Voigt Hill
#
# Bulk Modulus (GPa) = 17.27872 25.84677 21.56274
# Shear Modulus (GPa) = 183.74317 24.42069 104.08193
#
# Velocity S-wave (km/s) = 8.73126 3.18310 6.57141
# Velocity P-wave (km/s) = 10.43146 4.92273 8.15625
#
# Compressibility (1/GPa) = 0.05787467
#
# Stress axis : x y z
#
# Youngs Moduli (GPa) = 46.04655 118.59109 36.69184
#
# Poissons Ratio (x) = 0.15087 -0.17155
# Poissons Ratio (y) = 0.05858 0.11623
# Poissons Ratio (z) = -0.21529 0.37565
#
# Static dielectric constant tensor:
#      x y z
#    x 2.103150 0.000000 0.000000 
#    y 0.000000 1.920090 0.000000 
#    z 0.000000 0.000000 1.878250 
# 
# From -- ./inp_files/10904.got.cif
#   From: 2010.05.17/outbox.cif.g08.bks.cpg/sg61_6_cif.got.tgz:10904.got - 2010.06.03 15:17:17.
