data_PCOD9460474
_publ_section_title
;
Structure prediction by ZEFSAII (Michael W. Deem and Ramdas Pophale) SiO2 
 PCOD9460474
Probable space group: P B C A
;
_chemical_formula_sum "Si O2"
_cell_formula_units_Z 40
_cell_length_a 12.798528
_cell_length_b 11.410605
_cell_length_c 10.370193
_cell_angle_alpha 90.000000
_cell_angle_beta 90.000000
_cell_angle_gamma 90.000000
_cell_volume 1514.452072
_symmetry_space_group_name_H-M "P B C A"
_symmetry_group_IT_number 61
_symmetry_cell_setting 'orthorhombic'
loop_
_space_group_symop_operation_xyz
x,y,z
1/2-x,-y,1/2+z
1/2+x,1/2-y,-z
-x,1/2+y,1/2-z
-x,-y,-z
1/2+x,y,1/2-z
1/2-x,1/2+y,z
x,1/2-y,1/2+z
loop_
_atom_site_type_symbol
_atom_site_label
_atom_site_fract_x
_atom_site_fract_y
_atom_site_fract_z
Si Si1 0.774487 0.463875 0.230025
Si Si2 0.345951 0.349705 0.863672
Si Si3 0.892169 0.582368 0.541594
Si Si4 0.668689 0.190642 0.935191
Si Si5 0.982438 0.124593 0.702268
O O1 0.698205 0.574239 0.256517
O O2 0.729557 0.432208 0.089606
O O3 0.745777 0.358948 0.325974
O O4 0.897842 0.477442 0.223847
O O5 0.415349 0.441204 0.952787
O O6 0.413440 0.239133 0.826793
O O7 0.239229 0.319831 0.938583
O O8 0.877791 0.677751 0.430890
O O9 0.952067 0.636109 0.665376
O O10 0.565208 0.112775 0.912867
#
# Coordination Sequence:
#
# PCOD9460474 Si02
#       5
#     8   8   8   8   8
#     4   9  23  44  61 101 141 174 234 286 345 405
#     4  10  22  46  67  99 137 182 228 289 342 415
#     4   9  23  43  63 103 133 182 235 276 351 409
#     4  11  23  45  69  99 139 182 229 291 347 410
#     4  11  23  44  67  99 143 176 236 290 343 419
#
# _framework density 26.412195000000001
#
# number of rings (size 3 to 8) (size 9 to 14) (size 15 to 20)
#    1.200    0.800    2.000    0.000    2.800    4.800 
#    3.600    0.000    0.000    0.000    0.000    0.000 
#    0.000    0.000    0.000    0.000    0.000    0.000 
#
# Total GULP energy -222920.376662 kJ/mol
# GULP energy per Si atom -5573.009417 kJ/mol
# Density = 2.635208 g / cm^3
# Si number density = 26.412195 Si / 1000 Ang^3
#
#
#
# Elastic Constant Matrix: (Units=GPa)
#
#
# Indices 1 2 3 4 5 6 
#
# 1 71.9485 17.4677 -5.5685 0.0000 0.0000 0.0000
# 2 17.4677 105.9880 24.3293 0.0000 0.0000 0.0000
# 3 -5.5685 24.3293 41.2330 0.0000 0.0000 0.0000
# 4 0.0000 0.0000 0.0000 35.1395 0.0000 0.0000
# 5 0.0000 0.0000 0.0000 0.0000 30.3510 0.0000
# 6 0.0000 0.0000 0.0000 0.0000 0.0000 47.9755
#
#
#
# Elastic Compliance Matrix: (Units=1/GPa)
#
#
# Indices 1 2 3 4 5 6 
#
# 1 0.015038 -0.003406 0.004041 0.000000 0.000000 0.000000
# 2 -0.003406 0.011685 -0.007354 0.000000 0.000000 0.000000
# 3 0.004041 -0.007354 0.029137 0.000000 0.000000 0.000000
# 4 0.000000 0.000000 0.000000 0.028458 0.000000 0.000000
# 5 0.000000 0.000000 0.000000 0.000000 0.032948 0.000000
# 6 0.000000 0.000000 0.000000 0.000000 0.000000 0.020844
#
#
# Mechanical properties :
#
#
# Convention : Reuss Voigt Hill
#
# Bulk Modulus (GPa) = 23.57318 32.40292 27.98805
# Shear Modulus (GPa) = 30.17681 34.88926 32.53303
#
# Velocity S-wave (km/s) = 3.38380 3.63843 3.51343
# Velocity P-wave (km/s) = 4.92050 5.47227 5.20370
#
# Compressibility (1/GPa) = 0.04242108
#
# Stress axis : x y z
#
# Youngs Moduli (GPa) = 66.49613 85.58320 34.32004
#
# Poissons Ratio (x) = 0.29149 -0.13867
# Poissons Ratio (y) = 0.22648 0.25240
# Poissons Ratio (z) = -0.26869 0.62941
#
# Static dielectric constant tensor:
#      x y z
#    x 2.199180 0.000000 0.000000 
#    y 0.000000 2.318230 0.000000 
#    z 0.000000 0.000000 2.096740 
# 
# From -- ./inp_files/5580.got.cif
#   From: 2010.05.17/outbox.cif.g08.bks.cpg/sg61_3_cif.got.tgz:5580.got - 2010.06.03 15:17:17.
