data_PCOD9460607
_publ_section_title
;
Structure prediction by ZEFSAII (Michael W. Deem and Ramdas Pophale) SiO2 
 PCOD9460607
Probable space group: P B C A
;
_chemical_formula_sum "Si O2"
_cell_formula_units_Z 40
_cell_length_a 12.627912
_cell_length_b 14.653753
_cell_length_c 8.432750
_cell_angle_alpha 90.000000
_cell_angle_beta 90.000000
_cell_angle_gamma 90.000000
_cell_volume 1560.449215
_symmetry_space_group_name_H-M "P B C A"
_symmetry_group_IT_number 61
_symmetry_cell_setting 'orthorhombic'
loop_
_space_group_symop_operation_xyz
x,y,z
1/2-x,-y,1/2+z
1/2+x,1/2-y,-z
-x,1/2+y,1/2-z
-x,-y,-z
1/2+x,y,1/2-z
1/2-x,1/2+y,z
x,1/2-y,1/2+z
loop_
_atom_site_type_symbol
_atom_site_label
_atom_site_fract_x
_atom_site_fract_y
_atom_site_fract_z
Si Si1 0.971356 0.357419 0.983402
Si Si2 0.255072 0.210035 0.006613
Si Si3 0.453977 0.815894 0.307566
Si Si4 0.340342 0.407886 0.065735
Si Si5 0.814376 0.449577 0.788575
O O1 0.865968 0.319604 0.073632
O O2 0.054842 0.344816 0.123912
O O3 0.002685 0.287156 0.842726
O O4 0.920737 0.446085 0.898666
O O5 0.275551 0.314104 0.046854
O O6 0.155466 0.183886 0.902309
O O7 0.258976 0.147295 0.164683
O O8 0.541668 0.882891 0.381135
O O9 0.345090 0.452245 0.892333
O O10 0.272282 0.475231 0.173139
#
# Coordination Sequence:
#
# PCOD9460607 Si02
#       5
#     8   8   8   8   8
#     4   9  21  38  60  95 128 163 219 268 324 391
#     4   9  24  40  70  94 130 175 225 270 341 393
#     4  11  21  38  70  92 128 175 217 273 332 396
#     4  11  23  42  72  94 143 174 224 280 330 401
#     4  10  23  44  66  99 135 177 220 278 338 389
#
# _framework density 25.633645000000001
#
# number of rings (size 3 to 8) (size 9 to 14) (size 15 to 20)
#    1.200    0.800    0.000    3.600    2.800    0.800 
#    0.000    1.000    0.000    0.000    0.000    0.000 
#    0.000    0.000    0.000    0.000    0.000    0.000 
#
# Total GULP energy -223738.438535 kJ/mol
# GULP energy per Si atom -5593.460963 kJ/mol
# Density = 2.557530 g / cm^3
# Si number density = 25.633645 Si / 1000 Ang^3
#
#
#
# Elastic Constant Matrix: (Units=GPa)
#
#
# Indices 1 2 3 4 5 6 
#
# 1 111.8053 23.0374 6.4345 0.0000 0.0000 0.0000
# 2 23.0374 86.0859 20.0217 0.0000 0.0000 0.0000
# 3 6.4345 20.0217 84.8194 0.0000 0.0000 0.0000
# 4 0.0000 0.0000 0.0000 33.0510 0.0000 0.0000
# 5 0.0000 0.0000 0.0000 0.0000 32.4146 0.0000
# 6 0.0000 0.0000 0.0000 0.0000 0.0000 25.9413
#
#
#
# Elastic Compliance Matrix: (Units=1/GPa)
#
#
# Indices 1 2 3 4 5 6 
#
# 1 0.009467 -0.002504 -0.000127 0.000000 0.000000 0.000000
# 2 -0.002504 0.012953 -0.002868 0.000000 0.000000 0.000000
# 3 -0.000127 -0.002868 0.012476 0.000000 0.000000 0.000000
# 4 0.000000 0.000000 0.000000 0.030256 0.000000 0.000000
# 5 0.000000 0.000000 0.000000 0.000000 0.030850 0.000000
# 6 0.000000 0.000000 0.000000 0.000000 0.000000 0.038549
#
#
# Mechanical properties :
#
#
# Convention : Reuss Voigt Hill
#
# Bulk Modulus (GPa) = 41.84203 42.41087 42.12645
# Shear Modulus (GPa) = 32.56982 33.82918 33.19950
#
# Velocity S-wave (km/s) = 3.56840 3.63673 3.60273
# Velocity P-wave (km/s) = 5.77378 5.84939 5.81171
#
# Compressibility (1/GPa) = 0.02389941
#
# Stress axis : x y z
#
# Youngs Moduli (GPa) = 105.62582 77.20008 80.15182
#
# Poissons Ratio (x) = 0.19331 0.01019
# Poissons Ratio (y) = 0.26449 0.22985
# Poissons Ratio (z) = 0.01343 0.22139
#
# Static dielectric constant tensor:
#      x y z
#    x 2.058190 0.000000 0.000000 
#    y 0.000000 2.046250 0.000000 
#    z 0.000000 0.000000 2.036390 
# 
# From -- ./inp_files/2746.got.cif
#   From: 2010.05.17/outbox.cif.g08.bks.cpg/sg61_2_cif.got.tgz:2746.got - 2010.06.03 15:17:17.
