data_PCOD9460142
_publ_section_title
;
Structure prediction by ZEFSAII (Michael W. Deem and Ramdas Pophale) SiO2 
 PCOD9460142
Probable space group: P B C A
;
_chemical_formula_sum "Si O2"
_cell_formula_units_Z 56
_cell_length_a 15.743636
_cell_length_b 5.744897
_cell_length_c 23.892108
_cell_angle_alpha 90.000000
_cell_angle_beta 90.000000
_cell_angle_gamma 90.000000
_cell_volume 2160.935260
_symmetry_space_group_name_H-M "P B C A"
_symmetry_group_IT_number 61
_symmetry_cell_setting 'orthorhombic'
loop_
_space_group_symop_operation_xyz
x,y,z
1/2-x,-y,1/2+z
1/2+x,1/2-y,-z
-x,1/2+y,1/2-z
-x,-y,-z
1/2+x,y,1/2-z
1/2-x,1/2+y,z
x,1/2-y,1/2+z
loop_
_atom_site_type_symbol
_atom_site_label
_atom_site_fract_x
_atom_site_fract_y
_atom_site_fract_z
Si Si1 0.551438 0.737916 0.797709
Si Si2 0.737640 0.999486 0.177994
Si Si3 0.949285 0.379712 0.167974
Si Si4 0.586204 0.076747 0.627414
Si Si5 0.019246 0.749129 0.027963
Si Si6 0.279054 0.294204 0.031379
Si Si7 0.776027 0.153797 0.840407
O O1 0.566072 0.705698 0.732402
O O2 0.457202 0.646579 0.813117
O O3 0.623751 0.607941 0.831690
O O4 0.538803 0.993540 0.823325
O O5 0.747627 0.748026 0.206997
O O6 0.641694 0.003152 0.155418
O O7 0.813721 0.973691 0.132602
O O8 0.953908 0.181636 0.121760
O O9 0.542046 0.237851 0.582102
O O10 0.120376 0.756539 0.036659
O O11 0.000000 0.500000 0.000000
O O12 0.000000 0.000000 0.000000
O O13 0.259071 0.552544 0.005948
O O14 0.246040 0.319840 0.095339
O O15 0.765004 0.417221 0.817328
#
# Coordination Sequence:
#
# PCOD9460142 Si02
#       7
#     8   8   8   8   8   8   8
#     4  12  23  42  70 104 142 196 244 293 365 444
#     4  10  22  42  66  99 143 192 236 298 357 434
#     4  11  25  41  70 105 149 193 250 293 366 450
#     4  11  25  46  71 102 149 196 240 313 375 442
#     4  12  28  48  77 112 144 198 261 319 384 464
#     4  10  21  43  70 100 142 185 231 312 379 435
#     4  10  24  40  66 100 135 182 232 291 363 429
#
# _framework density 25.914705000000001
#
# number of rings (size 3 to 8) (size 9 to 14) (size 15 to 20)
#    0.000    1.143    4.286    0.857    4.000    3.429 
#    0.000    8.571    0.000    0.000    0.000    0.000 
#    0.000    0.000    0.000    0.000    0.000    0.000 
#
# Total GULP energy -312046.969973 kJ/mol
# GULP energy per Si atom -5572.267321 kJ/mol
# Density = 2.585572 g / cm^3
# Si number density = 25.914705 Si / 1000 Ang^3
#
#
#
# Elastic Constant Matrix: (Units=GPa)
#
#
# Indices 1 2 3 4 5 6 
#
# 1 148.1596 35.9846 28.2833 0.0000 0.0000 0.0000
# 2 35.9846 175.8396 25.9845 0.0000 0.0000 0.0000
# 3 28.2833 25.9845 53.3832 0.0000 0.0000 0.0000
# 4 0.0000 0.0000 0.0000 31.0868 0.0000 0.0000
# 5 0.0000 0.0000 0.0000 0.0000 15.4666 0.0000
# 6 0.0000 0.0000 0.0000 0.0000 0.0000 41.6803
#
#
#
# Elastic Compliance Matrix: (Units=1/GPa)
#
#
# Indices 1 2 3 4 5 6 
#
# 1 0.007683 -0.001046 -0.003562 0.000000 0.000000 0.000000
# 2 -0.001046 0.006270 -0.002498 0.000000 0.000000 0.000000
# 3 -0.003562 -0.002498 0.021835 0.000000 0.000000 0.000000
# 4 0.000000 0.000000 0.000000 0.032168 0.000000 0.000000
# 5 0.000000 0.000000 0.000000 0.000000 0.064655 0.000000
# 6 0.000000 0.000000 0.000000 0.000000 0.000000 0.023992
#
#
# Mechanical properties :
#
#
# Convention : Reuss Voigt Hill
#
# Bulk Modulus (GPa) = 46.34368 61.98747 54.16558
# Shear Modulus (GPa) = 28.08858 36.78873 32.43866
#
# Velocity S-wave (km/s) = 3.29581 3.77186 3.54184
# Velocity P-wave (km/s) = 5.69255 6.55293 6.13784
#
# Compressibility (1/GPa) = 0.02157792
#
# Stress axis : x y z
#
# Youngs Moduli (GPa) = 130.14982 159.48497 45.79734
#
# Poissons Ratio (x) = 0.16683 0.16311
# Poissons Ratio (y) = 0.13614 0.11439
# Poissons Ratio (z) = 0.46355 0.39836
#
# Static dielectric constant tensor:
#      x y z
#    x 2.016220 0.000000 0.000000 
#    y 0.000000 2.627320 0.000000 
#    z 0.000000 0.000000 2.120450 
# 
# From -- ./inp_files/11819.got.cif
#   From: 2010.05.17/outbox.cif.g08.bks.cpg/sg61_6_cif.got.tgz:11819.got - 2010.06.03 15:17:17.
