data_PCOD9460110
_publ_section_title
;
Structure prediction by ZEFSAII (Michael W. Deem and Ramdas Pophale) SiO2 
 PCOD9460110
Probable space group: P B C A
;
_chemical_formula_sum "Si O2"
_cell_formula_units_Z 56
_cell_length_a 19.839965
_cell_length_b 5.305810
_cell_length_c 19.612302
_cell_angle_alpha 90.000000
_cell_angle_beta 90.000000
_cell_angle_gamma 90.000000
_cell_volume 2064.529856
_symmetry_space_group_name_H-M "P B C A"
_symmetry_group_IT_number 61
_symmetry_cell_setting 'orthorhombic'
loop_
_space_group_symop_operation_xyz
x,y,z
1/2-x,-y,1/2+z
1/2+x,1/2-y,-z
-x,1/2+y,1/2-z
-x,-y,-z
1/2+x,y,1/2-z
1/2-x,1/2+y,z
x,1/2-y,1/2+z
loop_
_atom_site_type_symbol
_atom_site_label
_atom_site_fract_x
_atom_site_fract_y
_atom_site_fract_z
Si Si1 0.285270 0.943353 0.354735
Si Si2 0.796832 0.118215 0.280925
Si Si3 0.768240 0.056771 0.492966
Si Si4 0.404001 0.666702 0.532437
Si Si5 0.543510 0.119547 0.234290
Si Si6 0.985051 0.713973 0.090492
Si Si7 0.886032 0.458713 0.356439
O O1 0.224880 0.147927 0.341060
O O2 0.331277 0.068069 0.294834
O O3 0.279166 0.946896 0.438009
O O4 0.749073 0.368412 0.287786
O O5 0.852107 0.190768 0.338093
O O6 0.741109 0.815000 0.455240
O O7 0.847903 0.015242 0.501631
O O8 0.464988 0.508741 0.565745
O O9 0.438942 0.811896 0.470125
O O10 0.366215 0.846692 0.585340
O O11 0.502206 0.368386 0.256491
O O12 0.559692 0.134812 0.154515
O O13 0.607070 0.091938 0.283520
O O14 0.037356 0.913973 0.118988
#
# Coordination Sequence:
#
# PCOD9460110 Si02
#       7
#     8   8   8   8   8   8   8
#     4   8  16  36  58  87 126 165 217 267 325 398
#     4  10  23  39  65  97 135 178 225 286 346 411
#     4  10  23  42  66  99 135 179 229 280 346 419
#     4  11  24  44  71  99 141 187 232 300 350 433
#     4  10  21  42  67  96 130 173 222 284 335 411
#     4  10  24  45  68 102 138 184 240 287 363 419
#     4  11  24  42  70  98 141 183 239 294 354 424
#
# _framework density 27.12482
#
# number of rings (size 3 to 8) (size 9 to 14) (size 15 to 20)
#    0.000    2.000    1.429    0.429    4.000    4.571 
#    0.000   14.286    0.000    0.000    0.000    0.000 
#    0.000    0.000    0.000    0.000    0.000    0.000 
#
# Total GULP energy -312321.731499 kJ/mol
# GULP energy per Si atom -5577.173777 kJ/mol
# Density = 2.706308 g / cm^3
# Si number density = 27.124820 Si / 1000 Ang^3
#
#
#
# Elastic Constant Matrix: (Units=GPa)
#
#
# Indices 1 2 3 4 5 6 
#
# 1 83.1934 27.1921 38.4189 0.0000 0.0000 0.0000
# 2 27.1921 149.4514 27.2952 0.0000 0.0000 0.0000
# 3 38.4189 27.2952 157.9930 0.0000 0.0000 0.0000
# 4 0.0000 0.0000 0.0000 33.4134 0.0000 0.0000
# 5 0.0000 0.0000 0.0000 0.0000 24.4859 0.0000
# 6 0.0000 0.0000 0.0000 0.0000 0.0000 42.4898
#
#
#
# Elastic Compliance Matrix: (Units=1/GPa)
#
#
# Indices 1 2 3 4 5 6 
#
# 1 0.014098 -0.002002 -0.003082 0.000000 0.000000 0.000000
# 2 -0.002002 0.007193 -0.000756 0.000000 0.000000 0.000000
# 3 -0.003082 -0.000756 0.007209 0.000000 0.000000 0.000000
# 4 0.000000 0.000000 0.000000 0.029928 0.000000 0.000000
# 5 0.000000 0.000000 0.000000 0.000000 0.040840 0.000000
# 6 0.000000 0.000000 0.000000 0.000000 0.000000 0.023535
#
#
# Mechanical properties :
#
#
# Convention : Reuss Voigt Hill
#
# Bulk Modulus (GPa) = 59.45191 64.04999 61.75095
# Shear Modulus (GPa) = 35.69101 39.92661 37.80881
#
# Velocity S-wave (km/s) = 3.63134 3.84077 3.73752
# Velocity P-wave (km/s) = 6.28869 6.58278 6.43742
#
# Compressibility (1/GPa) = 0.01682032
#
# Stress axis : x y z
#
# Youngs Moduli (GPa) = 70.93202 139.01489 138.70590
#
# Poissons Ratio (x) = 0.27833 0.42753
# Poissons Ratio (y) = 0.14202 0.10485
# Poissons Ratio (z) = 0.21863 0.10508
#
# Static dielectric constant tensor:
#      x y z
#    x 2.170060 0.000000 0.000000 
#    y 0.000000 2.168330 0.000000 
#    z 0.000000 0.000000 2.307330 
# 
# From -- ./inp_files/10630.got.cif
#   From: 2010.05.17/outbox.cif.g08.bks.cpg/sg61_6_cif.got.tgz:10630.got - 2010.06.03 15:17:17.
