data_PCOD9460088
_publ_section_title
;
Structure prediction by ZEFSAII (Michael W. Deem and Ramdas Pophale) SiO2 
 PCOD9460088
Probable space group: P B C A
;
_chemical_formula_sum "Si O2"
_cell_formula_units_Z 48
_cell_length_a 5.201368
_cell_length_b 13.847181
_cell_length_c 27.453130
_cell_angle_alpha 90.000000
_cell_angle_beta 90.000000
_cell_angle_gamma 90.000000
_cell_volume 1977.292036
_symmetry_space_group_name_H-M "P B C A"
_symmetry_group_IT_number 61
_symmetry_cell_setting 'orthorhombic'
loop_
_space_group_symop_operation_xyz
x,y,z
1/2-x,-y,1/2+z
1/2+x,1/2-y,-z
-x,1/2+y,1/2-z
-x,-y,-z
1/2+x,y,1/2-z
1/2-x,1/2+y,z
x,1/2-y,1/2+z
loop_
_atom_site_type_symbol
_atom_site_label
_atom_site_fract_x
_atom_site_fract_y
_atom_site_fract_z
Si Si1 0.492440 0.276037 0.943542
Si Si2 0.740048 0.902189 0.017190
Si Si3 0.202941 0.855196 0.646678
Si Si4 0.535645 0.200916 0.718337
Si Si5 0.475626 0.022734 0.282658
Si Si6 0.892073 0.564797 0.073871
O O1 0.457362 0.163879 0.952777
O O2 0.689648 0.300429 0.900842
O O3 0.235011 0.330400 0.927497
O O4 0.557798 0.326737 0.995288
O O5 0.814198 0.987075 0.054172
O O6 0.608299 0.941396 0.967972
O O7 0.046615 0.779752 0.679063
O O8 0.023240 0.941797 0.626083
O O9 0.437697 0.903829 0.675608
O O10 0.824141 0.212910 0.738492
O O11 0.508489 0.089556 0.701256
O O12 0.196954 0.037309 0.258675
#
# Coordination Sequence:
#
# PCOD9460088 Si02
#       6
#     8   8   8   8   8   8
#     4  11  22  40  63  93 124 172 214 272 330 392
#     4  10  21  42  63  85 128 167 215 259 331 396
#     4  11  25  38  63  99 123 165 220 275 324 396
#     4  10  23  44  70  95 133 177 215 267 337 402
#     4  10  23  44  68  93 132 176 214 269 339 400
#     4  10  23  40  62  91 124 167 214 266 326 388
#
# _framework density 24.275628000000001
#
# number of rings (size 3 to 8) (size 9 to 14) (size 15 to 20)
#    0.000    1.667    1.667    1.500    7.000    0.000 
#    3.000    0.000    0.000    0.000    0.000    0.000 
#    0.000    0.000    0.000    0.000    0.000    0.000 
#
# Total GULP energy -268407.217675 kJ/mol
# GULP energy per Si atom -5591.817035 kJ/mol
# Density = 2.422038 g / cm^3
# Si number density = 24.275628 Si / 1000 Ang^3
#
#
#
# Elastic Constant Matrix: (Units=GPa)
#
#
# Indices 1 2 3 4 5 6 
#
# 1 66.9889 -3.7603 8.0572 0.0000 0.0000 0.0000
# 2 -3.7603 91.7591 43.0200 0.0000 0.0000 0.0000
# 3 8.0572 43.0200 84.3394 0.0000 0.0000 0.0000
# 4 0.0000 0.0000 0.0000 30.6803 0.0000 0.0000
# 5 0.0000 0.0000 0.0000 0.0000 25.2706 0.0000
# 6 0.0000 0.0000 0.0000 0.0000 0.0000 30.8721
#
#
#
# Elastic Compliance Matrix: (Units=1/GPa)
#
#
# Indices 1 2 3 4 5 6 
#
# 1 0.015306 0.001725 -0.002342 0.000000 0.000000 0.000000
# 2 0.001725 0.014518 -0.007570 0.000000 0.000000 0.000000
# 3 -0.002342 -0.007570 0.015942 0.000000 0.000000 0.000000
# 4 0.000000 0.000000 0.000000 0.032594 0.000000 0.000000
# 5 0.000000 0.000000 0.000000 0.000000 0.039572 0.000000
# 6 0.000000 0.000000 0.000000 0.000000 0.000000 0.032392
#
#
# Mechanical properties :
#
#
# Convention : Reuss Voigt Hill
#
# Bulk Modulus (GPa) = 34.02263 37.52458 35.77360
# Shear Modulus (GPa) = 28.32928 30.41597 29.37263
#
# Velocity S-wave (km/s) = 3.41982 3.54353 3.48223
# Velocity P-wave (km/s) = 5.44418 5.67745 5.56204
#
# Compressibility (1/GPa) = 0.02939221
#
# Stress axis : x y z
#
# Youngs Moduli (GPa) = 65.33200 68.87997 62.72708
#
# Poissons Ratio (x) = -0.11885 0.14693
# Poissons Ratio (y) = -0.11273 0.47486
# Poissons Ratio (z) = 0.15303 0.52144
#
# Static dielectric constant tensor:
#      x y z
#    x 2.007100 0.000000 0.000000 
#    y 0.000000 1.976770 0.000000 
#    z 0.000000 0.000000 1.924410 
# 
# From -- ./inp_files/527.got.cif
#   From: 2010.05.17/outbox.cif.g08.bks.cpg/sg61_1_cif.got.tgz:527.got - 2010.06.03 15:17:17.
