data_PCOD9460042
_publ_section_title
;
Structure prediction by ZEFSAII (Michael W. Deem and Ramdas Pophale) SiO2 
 PCOD9460042
Probable space group: P B C A
;
_chemical_formula_sum "Si O2"
_cell_formula_units_Z 32
_cell_length_a 13.665261
_cell_length_b 19.826725
_cell_length_c 4.972460
_cell_angle_alpha 90.000000
_cell_angle_beta 90.000000
_cell_angle_gamma 90.000000
_cell_volume 1347.225244
_symmetry_space_group_name_H-M "P B C A"
_symmetry_group_IT_number 61
_symmetry_cell_setting 'orthorhombic'
loop_
_space_group_symop_operation_xyz
x,y,z
1/2-x,-y,1/2+z
1/2+x,1/2-y,-z
-x,1/2+y,1/2-z
-x,-y,-z
1/2+x,y,1/2-z
1/2-x,1/2+y,z
x,1/2-y,1/2+z
loop_
_atom_site_type_symbol
_atom_site_label
_atom_site_fract_x
_atom_site_fract_y
_atom_site_fract_z
Si Si1 0.793256 0.206590 0.083922
Si Si2 0.626244 0.027184 0.262293
Si Si3 0.160161 0.101754 0.732809
Si Si4 0.459224 0.394802 0.022694
O O1 0.782946 0.272606 0.894026
O O2 0.716964 0.156588 0.940093
O O3 0.897264 0.169337 0.059760
O O4 0.688329 0.072704 0.473923
O O5 0.518624 0.062678 0.296885
O O6 0.612320 0.950300 0.346425
O O7 0.657917 0.037135 0.960372
O O8 0.048404 0.125657 0.782219
#
# Coordination Sequence:
#
# PCOD9460042 Si02
#       4
#     8   8   8   8
#     4  12  28  41  58  91 126 170 212 236 292 376
#     4   9  20  40  68  94 115 152 202 260 326 347
#     4  10  21  41  62  91 124 155 197 257 306 362
#     4   9  23  40  68  91 124 152 208 257 308 358
#
# _framework density 23.752521999999999
#
# number of rings (size 3 to 8) (size 9 to 14) (size 15 to 20)
#    1.500    0.500    0.000    2.250    3.500    4.000 
#    0.000    0.000    0.000    0.000    0.000    0.000 
#    0.000    0.000    0.000    0.000    0.000    0.000 
#
# Total GULP energy -178551.359969 kJ/mol
# GULP energy per Si atom -5579.729999 kJ/mol
# Density = 2.369846 g / cm^3
# Si number density = 23.752522 Si / 1000 Ang^3
#
#
#
# Elastic Constant Matrix: (Units=GPa)
#
#
# Indices 1 2 3 4 5 6 
#
# 1 52.1610 14.1848 -12.2627 0.0000 0.0000 0.0000
# 2 14.1848 44.5137 -15.3526 0.0000 0.0000 0.0000
# 3 -12.2627 -15.3526 84.2079 0.0000 0.0000 0.0000
# 4 0.0000 0.0000 0.0000 27.6437 0.0000 0.0000
# 5 0.0000 0.0000 0.0000 0.0000 2.7047 0.0000
# 6 0.0000 0.0000 0.0000 0.0000 0.0000 30.1858
#
#
#
# Elastic Compliance Matrix: (Units=1/GPa)
#
#
# Indices 1 2 3 4 5 6 
#
# 1 0.021298 -0.006101 0.001989 0.000000 0.000000 0.000000
# 2 -0.006101 0.025720 0.003801 0.000000 0.000000 0.000000
# 3 0.001989 0.003801 0.012858 0.000000 0.000000 0.000000
# 4 0.000000 0.000000 0.000000 0.036175 0.000000 0.000000
# 5 0.000000 0.000000 0.000000 0.000000 0.369733 0.000000
# 6 0.000000 0.000000 0.000000 0.000000 0.000000 0.033128
#
#
# Mechanical properties :
#
#
# Convention : Reuss Voigt Hill
#
# Bulk Modulus (GPa) = 16.87638 17.11353 16.99495
# Shear Modulus (GPa) = 9.62862 25.06103 17.34482
#
# Velocity S-wave (km/s) = 2.01557 3.25174 2.70521
# Velocity P-wave (km/s) = 3.54079 4.61725 4.11438
#
# Compressibility (1/GPa) = 0.05925442
#
# Stress axis : x y z
#
# Youngs Moduli (GPa) = 46.95246 38.88032 77.77262
#
# Poissons Ratio (x) = 0.23720 -0.15471
# Poissons Ratio (y) = 0.28645 -0.29560
# Poissons Ratio (z) = -0.09340 -0.14778
#
# Static dielectric constant tensor:
#      x y z
#    x 1.991050 0.000000 0.000000 
#    y 0.000000 1.902750 0.000000 
#    z 0.000000 0.000000 1.855270 
# 
# From -- ./inp_files/352.got.cif
#   From: 2010.05.17/outbox.cif.g08.bks.cpg/sg61_1_cif.got.tgz:352.got - 2010.06.03 15:17:17.
