data_PCOD9460491
_publ_section_title
;
Structure prediction by ZEFSAII (Michael W. Deem and Ramdas Pophale) SiO2 
 PCOD9460491
Probable space group: P B C A
;
_chemical_formula_sum "Si O2"
_cell_formula_units_Z 36
_cell_length_a 12.933953
_cell_length_b 11.844388
_cell_length_c 9.342719
_cell_angle_alpha 90.000000
_cell_angle_beta 90.000000
_cell_angle_gamma 90.000000
_cell_volume 1431.255574
_symmetry_space_group_name_H-M "P B C A"
_symmetry_group_IT_number 61
_symmetry_cell_setting 'orthorhombic'
loop_
_space_group_symop_operation_xyz
x,y,z
1/2-x,-y,1/2+z
1/2+x,1/2-y,-z
-x,1/2+y,1/2-z
-x,-y,-z
1/2+x,y,1/2-z
1/2-x,1/2+y,z
x,1/2-y,1/2+z
loop_
_atom_site_type_symbol
_atom_site_label
_atom_site_fract_x
_atom_site_fract_y
_atom_site_fract_z
Si Si1 0.165100 0.046856 0.238647
Si Si2 0.403928 0.219258 0.353906
Si Si3 0.000000 0.000000 0.000000
Si Si4 0.725607 0.128809 0.555431
Si Si5 0.965923 0.730462 0.092144
O O1 0.229837 0.965783 0.340581
O O2 0.107353 0.139079 0.335821
O O3 0.077581 0.987930 0.142984
O O4 0.234630 0.101755 0.112433
O O5 0.293004 0.263131 0.400963
O O6 0.428659 0.095801 0.412204
O O7 0.492227 0.294991 0.434965
O O8 0.433499 0.234372 0.190259
O O9 0.898210 0.846835 0.077192
#
# Coordination Sequence:
#
# PCOD9460491 Si02
#       5
#     8   8   4   8   8
#     4  11  28  44  75 107 149 194 251 311 371 459
#     4  11  26  45  76 103 146 196 242 310 377 442
#     4  10  22  48  70 106 142 196 246 312 362 450
#     4  12  28  46  76 108 150 202 247 314 377 459
#     4  11  25  48  68 108 145 189 249 307 369 451
#
# _framework density 25.152739
#
# number of rings (size 3 to 8) (size 9 to 14) (size 15 to 20)
#    0.000    0.889    4.444    1.333   12.444    2.667 
#    0.000    0.000    0.000    0.000    0.000    0.000 
#    0.000    0.000    0.000    0.000    0.000    0.000 
#
# Total GULP energy -200760.702882 kJ/mol
# GULP energy per Si atom -5576.686191 kJ/mol
# Density = 2.509549 g / cm^3
# Si number density = 25.152739 Si / 1000 Ang^3
#
#
#
# Elastic Constant Matrix: (Units=GPa)
#
#
# Indices 1 2 3 4 5 6 
#
# 1 133.0500 20.7411 25.2575 0.0000 0.0000 0.0000
# 2 20.7411 61.5431 6.1428 0.0000 0.0000 0.0000
# 3 25.2575 6.1428 51.9710 0.0000 0.0000 0.0000
# 4 0.0000 0.0000 0.0000 46.2017 0.0000 0.0000
# 5 0.0000 0.0000 0.0000 0.0000 60.4751 0.0000
# 6 0.0000 0.0000 0.0000 0.0000 0.0000 29.9744
#
#
#
# Elastic Compliance Matrix: (Units=1/GPa)
#
#
# Indices 1 2 3 4 5 6 
#
# 1 0.008651 -0.002526 -0.003906 0.000000 0.000000 0.000000
# 2 -0.002526 0.017180 -0.000803 0.000000 0.000000 0.000000
# 3 -0.003906 -0.000803 0.021235 0.000000 0.000000 0.000000
# 4 0.000000 0.000000 0.000000 0.021644 0.000000 0.000000
# 5 0.000000 0.000000 0.000000 0.000000 0.016536 0.000000
# 6 0.000000 0.000000 0.000000 0.000000 0.000000 0.033362
#
#
# Mechanical properties :
#
#
# Convention : Reuss Voigt Hill
#
# Bulk Modulus (GPa) = 30.67815 38.98298 34.83057
# Shear Modulus (GPa) = 34.73605 40.29176 37.51390
#
# Velocity S-wave (km/s) = 3.72022 4.00670 3.86611
# Velocity P-wave (km/s) = 5.53865 6.07758 5.81436
#
# Compressibility (1/GPa) = 0.03259649
#
# Stress axis : x y z
#
# Youngs Moduli (GPa) = 115.59123 58.20667 47.09288
#
# Poissons Ratio (x) = 0.14702 0.18394
# Poissons Ratio (y) = 0.29195 0.03782
# Poissons Ratio (z) = 0.45148 0.04675
#
# Static dielectric constant tensor:
#      x y z
#    x 1.826880 0.000000 0.000000 
#    y 0.000000 1.813450 0.000000 
#    z 0.000000 0.000000 1.872900 
# 
# From -- ./inp_files/3265.got.cif
#   From: 2010.05.17/outbox.cif.g08.bks.cpg/sg61_2_cif.got.tgz:3265.got - 2010.06.03 15:17:17.
