data_PCOD9460659
_publ_section_title
;
Structure prediction by ZEFSAII (Michael W. Deem and Ramdas Pophale) SiO2 
 PCOD9460659
Probable space group: P B C A
;
_chemical_formula_sum "Si O2"
_cell_formula_units_Z 64
_cell_length_a 23.175321
_cell_length_b 14.251288
_cell_length_c 8.924818
_cell_angle_alpha 90.000000
_cell_angle_beta 90.000000
_cell_angle_gamma 90.000000
_cell_volume 2947.672593
_symmetry_space_group_name_H-M "P B C A"
_symmetry_group_IT_number 61
_symmetry_cell_setting 'orthorhombic'
loop_
_space_group_symop_operation_xyz
x,y,z
1/2-x,-y,1/2+z
1/2+x,1/2-y,-z
-x,1/2+y,1/2-z
-x,-y,-z
1/2+x,y,1/2-z
1/2-x,1/2+y,z
x,1/2-y,1/2+z
loop_
_atom_site_type_symbol
_atom_site_label
_atom_site_fract_x
_atom_site_fract_y
_atom_site_fract_z
Si Si1 0.859155 0.277724 0.399234
Si Si2 0.581197 0.131543 0.470414
Si Si3 0.724705 0.483226 0.788645
Si Si4 0.409093 0.040891 0.722843
Si Si5 0.224138 0.696732 0.356135
Si Si6 0.789516 0.613655 0.587971
Si Si7 0.526119 0.260329 0.720397
Si Si8 0.954819 0.150883 0.529359
O O1 0.904386 0.354137 0.342607
O O2 0.819179 0.233655 0.272112
O O3 0.817376 0.333463 0.510117
O O4 0.893416 0.195832 0.483774
O O5 0.643820 0.121457 0.545075
O O6 0.544212 0.179808 0.602262
O O7 0.578313 0.196644 0.320224
O O8 0.564664 0.030829 0.398418
O O9 0.658384 0.512196 0.758124
O O10 0.737499 0.387572 0.700183
O O11 0.769673 0.562794 0.739056
O O12 0.735497 0.453034 0.958791
O O13 0.442056 0.054633 0.880950
O O14 0.261499 0.784191 0.412123
O O15 0.493694 0.339671 0.620639
O O16 0.485837 0.218463 0.850198
#
# Coordination Sequence:
#
# PCOD9460659 Si02
#       8
#     8   8   8   8   8   8   8   8
#     4  12  21  41  68 100 132 178 225 275 344 405
#     4  10  25  43  68  96 139 177 227 284 334 415
#     4  11  24  42  64 102 141 178 228 279 331 427
#     4  11  23  42  68 100 135 170 234 278 338 414
#     4  12  23  38  67  96 137 183 220 269 345 408
#     4  11  24  43  64  98 139 184 222 276 339 410
#     4  10  23  46  69  98 130 181 234 275 363 401
#     4  11  21  43  73  95 133 175 226 297 336 407
#
# _framework density 21.712043999999999
#
# number of rings (size 3 to 8) (size 9 to 14) (size 15 to 20)
#    0.000    1.000    5.000    1.500    3.500    1.000 
#    0.000    0.000    5.500    0.000    0.000    0.000 
#    0.000    0.000    0.000    0.000    0.000    0.000 
#
# Total GULP energy -357312.346569 kJ/mol
# GULP energy per Si atom -5583.005415 kJ/mol
# Density = 2.166263 g / cm^3
# Si number density = 21.712044 Si / 1000 Ang^3
#
#
#
# Elastic Constant Matrix: (Units=GPa)
#
#
# Indices 1 2 3 4 5 6 
#
# 1 51.7558 10.7320 31.1195 0.0000 0.0000 0.0000
# 2 10.7320 53.6028 2.4906 0.0000 0.0000 0.0000
# 3 31.1195 2.4906 84.3248 0.0000 0.0000 0.0000
# 4 0.0000 0.0000 0.0000 34.6161 0.0000 0.0000
# 5 0.0000 0.0000 0.0000 0.0000 33.5379 0.0000
# 6 0.0000 0.0000 0.0000 0.0000 0.0000 30.6424
#
#
#
# Elastic Compliance Matrix: (Units=1/GPa)
#
#
# Indices 1 2 3 4 5 6 
#
# 1 0.025993 -0.004765 -0.009452 0.000000 0.000000 0.000000
# 2 -0.004765 0.019555 0.001181 0.000000 0.000000 0.000000
# 3 -0.009452 0.001181 0.015312 0.000000 0.000000 0.000000
# 4 0.000000 0.000000 0.000000 0.028888 0.000000 0.000000
# 5 0.000000 0.000000 0.000000 0.000000 0.029817 0.000000
# 6 0.000000 0.000000 0.000000 0.000000 0.000000 0.032635
#
#
# Mechanical properties :
#
#
# Convention : Reuss Voigt Hill
#
# Bulk Modulus (GPa) = 28.74536 30.92973 29.83754
# Shear Modulus (GPa) = 26.33424 29.44871 27.89147
#
# Velocity S-wave (km/s) = 3.48643 3.68683 3.58803
# Velocity P-wave (km/s) = 5.42909 5.69210 5.56215
#
# Compressibility (1/GPa) = 0.03478823
#
# Stress axis : x y z
#
# Youngs Moduli (GPa) = 38.47243 51.13813 65.30778
#
# Poissons Ratio (x) = 0.24367 0.61727
# Poissons Ratio (y) = 0.18332 -0.07712
# Poissons Ratio (z) = 0.36363 -0.06039
#
# Static dielectric constant tensor:
#      x y z
#    x 1.787270 0.000000 0.000000 
#    y 0.000000 1.794120 0.000000 
#    z 0.000000 0.000000 1.847640 
# 
# From -- ./inp_files/4319.got.cif
#   From: 2010.05.17/outbox.cif.g08.bks.cpg/sg61_3_cif.got.tgz:4319.got - 2010.06.03 15:17:17.
