data_PCOD9460901
_publ_section_title
;
Structure prediction by ZEFSAII (Michael W. Deem and Ramdas Pophale) SiO2 
 PCOD9460901
Probable space group: P B C A
;
_chemical_formula_sum "Si O2"
_cell_formula_units_Z 48
_cell_length_a 19.781689
_cell_length_b 13.813964
_cell_length_c 8.771241
_cell_angle_alpha 90.000000
_cell_angle_beta 90.000000
_cell_angle_gamma 90.000000
_cell_volume 2396.860363
_symmetry_space_group_name_H-M "P B C A"
_symmetry_group_IT_number 61
_symmetry_cell_setting 'orthorhombic'
loop_
_space_group_symop_operation_xyz
x,y,z
1/2-x,-y,1/2+z
1/2+x,1/2-y,-z
-x,1/2+y,1/2-z
-x,-y,-z
1/2+x,y,1/2-z
1/2-x,1/2+y,z
x,1/2-y,1/2+z
loop_
_atom_site_type_symbol
_atom_site_label
_atom_site_fract_x
_atom_site_fract_y
_atom_site_fract_z
Si Si1 0.861115 0.778327 0.045323
Si Si2 0.957949 0.753361 0.797138
Si Si3 0.310310 0.919714 0.893452
Si Si4 0.942498 0.545071 0.899482
Si Si5 0.050698 0.569463 0.405674
Si Si6 0.322219 0.988520 0.540673
O O1 0.933821 0.750553 0.122373
O O2 0.807173 0.697739 0.093142
O O3 0.883709 0.768963 0.870780
O O4 0.839753 0.889989 0.055662
O O5 0.974856 0.644377 0.837700
O O6 0.010330 0.833664 0.854397
O O7 0.317390 0.958787 0.719734
O O8 0.376946 0.941865 0.994693
O O9 0.246893 0.968588 0.975687
O O10 0.928291 0.479305 0.753583
O O11 0.000000 0.500000 0.000000
O O12 0.118147 0.566508 0.508691
O O13 0.000000 0.500000 0.500000
#
# Coordination Sequence:
#
# PCOD9460901 Si02
#       6
#     8   8   8   8   8   8
#     4  11  21  42  69  90 130 176 220 271 346 417
#     4  11  21  39  67  98 128 174 228 273 335 413
#     4  11  26  43  68 103 130 184 232 280 354 423
#     4  11  23  41  67  99 137 176 224 285 341 409
#     4  12  21  39  68 102 133 178 230 281 342 406
#     4  12  24  43  70  96 139 177 230 291 345 419
#
# _framework density 20.026198999999998
#
# number of rings (size 3 to 8) (size 9 to 14) (size 15 to 20)
#    0.000    0.667    5.000    4.000    2.333    0.000 
#    3.000    0.000    3.667    0.000    0.000    0.000 
#    0.000    0.000    0.000    0.000    0.000    0.000 
#
# Total GULP energy -267509.139560 kJ/mol
# GULP energy per Si atom -5573.107074 kJ/mol
# Density = 1.998062 g / cm^3
# Si number density = 20.026199 Si / 1000 Ang^3
#
#
#
# Elastic Constant Matrix: (Units=GPa)
#
#
# Indices 1 2 3 4 5 6 
#
# 1 99.5296 36.1102 38.2823 0.0000 0.0000 0.0000
# 2 36.1102 97.9829 25.5473 0.0000 0.0000 0.0000
# 3 38.2823 25.5473 111.3861 0.0000 0.0000 0.0000
# 4 0.0000 0.0000 0.0000 31.3263 0.0000 0.0000
# 5 0.0000 0.0000 0.0000 0.0000 37.5363 0.0000
# 6 0.0000 0.0000 0.0000 0.0000 0.0000 38.2326
#
#
#
# Elastic Compliance Matrix: (Units=1/GPa)
#
#
# Indices 1 2 3 4 5 6 
#
# 1 0.012777 -0.003791 -0.003522 0.000000 0.000000 0.000000
# 2 -0.003791 0.011980 -0.001445 0.000000 0.000000 0.000000
# 3 -0.003522 -0.001445 0.010520 0.000000 0.000000 0.000000
# 4 0.000000 0.000000 0.000000 0.031922 0.000000 0.000000
# 5 0.000000 0.000000 0.000000 0.000000 0.026641 0.000000
# 6 0.000000 0.000000 0.000000 0.000000 0.000000 0.026156
#
#
# Mechanical properties :
#
#
# Convention : Reuss Voigt Hill
#
# Bulk Modulus (GPa) = 56.30124 56.53092 56.41608
# Shear Modulus (GPa) = 34.86015 35.34963 35.10489
#
# Velocity S-wave (km/s) = 4.17673 4.20595 4.19136
# Velocity P-wave (km/s) = 7.17181 7.20253 7.18719
#
# Compressibility (1/GPa) = 0.01776160
#
# Stress axis : x y z
#
# Youngs Moduli (GPa) = 78.26459 83.47574 95.06033
#
# Poissons Ratio (x) = 0.31642 0.33480
# Poissons Ratio (y) = 0.29667 0.13735
# Poissons Ratio (z) = 0.27565 0.12061
#
# Static dielectric constant tensor:
#      x y z
#    x 1.688830 0.000000 0.000000 
#    y 0.000000 1.794300 0.000000 
#    z 0.000000 0.000000 1.768640 
# 
# From -- ./inp_files/3455.got.cif
#   From: 2010.05.17/outbox.cif.g08.bks.cpg/sg61_2_cif.got.tgz:3455.got - 2010.06.03 15:17:17.
