data_PCOD9460185
_publ_section_title
;
Structure prediction by ZEFSAII (Michael W. Deem and Ramdas Pophale) SiO2 
 PCOD9460185
Probable space group: P B C A
;
_chemical_formula_sum "Si O2"
_cell_formula_units_Z 32
_cell_length_a 8.842981
_cell_length_b 9.110377
_cell_length_c 14.154261
_cell_angle_alpha 90.000000
_cell_angle_beta 90.000000
_cell_angle_gamma 90.000000
_cell_volume 1140.308182
_symmetry_space_group_name_H-M "P B C A"
_symmetry_group_IT_number 61
_symmetry_cell_setting 'orthorhombic'
loop_
_space_group_symop_operation_xyz
x,y,z
1/2-x,-y,1/2+z
1/2+x,1/2-y,-z
-x,1/2+y,1/2-z
-x,-y,-z
1/2+x,y,1/2-z
1/2-x,1/2+y,z
x,1/2-y,1/2+z
loop_
_atom_site_type_symbol
_atom_site_label
_atom_site_fract_x
_atom_site_fract_y
_atom_site_fract_z
Si Si1 0.161948 0.491282 0.378463
Si Si2 0.000311 0.745281 0.485061
Si Si3 0.765501 0.305424 0.868561
Si Si4 0.099068 0.943871 0.246289
O O1 0.115814 0.645101 0.423836
O O2 0.336325 0.478350 0.349414
O O3 0.091162 0.368860 0.446788
O O4 0.075527 0.462386 0.279010
O O5 0.106579 0.838929 0.553544
O O6 0.865455 0.795958 0.417003
O O7 0.673201 0.440529 0.827145
O O8 0.848085 0.216530 0.785846
#
# Coordination Sequence:
#
# PCOD9460185 Si02
#       4
#     8   8   8   8
#     4   9  20  38  56  81 114 146 180 227 276 324
#     4   9  20  37  56  80 114 146 180 226 276 324
#     4  10  22  38  56  84 112 144 186 226 272 328
#     4  10  22  37  56  83 112 142 186 228 272 327
#
# _framework density 28.062586
#
# number of rings (size 3 to 8) (size 9 to 14) (size 15 to 20)
#    0.000    2.500    0.000    1.500    0.000   15.000 
#    0.000    0.000    0.000    0.000    0.000    0.000 
#    0.000    0.000    0.000    0.000    0.000    0.000 
#
# Total GULP energy -179368.950249 kJ/mol
# GULP energy per Si atom -5605.279695 kJ/mol
# Density = 2.799871 g / cm^3
# Si number density = 28.062586 Si / 1000 Ang^3
#
#
#
# Elastic Constant Matrix: (Units=GPa)
#
#
# Indices 1 2 3 4 5 6 
#
# 1 87.5925 7.6607 33.2794 0.0000 0.0000 0.0000
# 2 7.6607 60.6490 12.0058 0.0000 0.0000 0.0000
# 3 33.2794 12.0058 118.4220 0.0000 0.0000 0.0000
# 4 0.0000 0.0000 0.0000 29.1445 0.0000 0.0000
# 5 0.0000 0.0000 0.0000 0.0000 81.1752 0.0000
# 6 0.0000 0.0000 0.0000 0.0000 0.0000 34.7352
#
#
#
# Elastic Compliance Matrix: (Units=1/GPa)
#
#
# Indices 1 2 3 4 5 6 
#
# 1 0.012832 -0.000926 -0.003512 0.000000 0.000000 0.000000
# 2 -0.000926 0.016893 -0.001453 0.000000 0.000000 0.000000
# 3 -0.003512 -0.001453 0.009579 0.000000 0.000000 0.000000
# 4 0.000000 0.000000 0.000000 0.034312 0.000000 0.000000
# 5 0.000000 0.000000 0.000000 0.000000 0.012319 0.000000
# 6 0.000000 0.000000 0.000000 0.000000 0.000000 0.028789
#
#
# Mechanical properties :
#
#
# Convention : Reuss Voigt Hill
#
# Bulk Modulus (GPa) = 36.33366 41.39504 38.86435
# Shear Modulus (GPa) = 36.85191 43.25882 40.05537
#
# Velocity S-wave (km/s) = 3.62775 3.93047 3.78214
# Velocity P-wave (km/s) = 5.52475 5.94820 5.74038
#
# Compressibility (1/GPa) = 0.02752269
#
# Stress axis : x y z
#
# Youngs Moduli (GPa) = 77.93104 59.19697 104.39885
#
# Poissons Ratio (x) = 0.05479 0.36667
# Poissons Ratio (y) = 0.07213 0.15164
# Poissons Ratio (z) = 0.27371 0.08598
#
# Static dielectric constant tensor:
#      x y z
#    x 2.139550 0.000000 0.000000 
#    y 0.000000 2.112680 0.000000 
#    z 0.000000 0.000000 2.211800 
# 
# From -- ./inp_files/1965.got.cif
#   From: 2010.05.17/outbox.cif.g08.bks.cpg/sg61_1_cif.got.tgz:1965.got - 2010.06.03 15:17:17.
