data_PCOD9460986
_publ_section_title
;
Structure prediction by ZEFSAII (Michael W. Deem and Ramdas Pophale) SiO2 
 PCOD9460986
Probable space group: P B C A
;
_chemical_formula_sum "Si O2"
_cell_formula_units_Z 56
_cell_length_a 16.769916
_cell_length_b 10.178327
_cell_length_c 12.892191
_cell_angle_alpha 90.000000
_cell_angle_beta 90.000000
_cell_angle_gamma 90.000000
_cell_volume 2200.564070
_symmetry_space_group_name_H-M "P B C A"
_symmetry_group_IT_number 61
_symmetry_cell_setting 'orthorhombic'
loop_
_space_group_symop_operation_xyz
x,y,z
1/2-x,-y,1/2+z
1/2+x,1/2-y,-z
-x,1/2+y,1/2-z
-x,-y,-z
1/2+x,y,1/2-z
1/2-x,1/2+y,z
x,1/2-y,1/2+z
loop_
_atom_site_type_symbol
_atom_site_label
_atom_site_fract_x
_atom_site_fract_y
_atom_site_fract_z
Si Si1 0.899384 0.553283 0.170853
Si Si2 0.405148 0.799070 0.466715
Si Si3 0.114924 0.772702 0.397260
Si Si4 0.236413 0.292452 0.763726
Si Si5 0.975808 0.020499 0.171922
Si Si6 0.872263 0.602539 0.854396
Si Si7 0.231520 0.611103 0.038629
O O1 0.929741 0.682136 0.113224
O O2 0.918895 0.418564 0.114163
O O3 0.805749 0.591999 0.170851
O O4 0.934191 0.536842 0.286585
O O5 0.458795 0.913952 0.417173
O O6 0.410311 0.718595 0.575376
O O7 0.313940 0.862781 0.473507
O O8 0.182431 0.758165 0.309722
O O9 0.057291 0.654251 0.375942
O O10 0.167132 0.780914 0.500701
O O11 0.179074 0.171875 0.736089
O O12 0.247390 0.356521 0.654189
O O13 0.929889 0.986281 0.281626
O O14 0.817196 0.524926 0.939127
#
# Coordination Sequence:
#
# PCOD9460986 Si02
#       7
#     8   8   8   8   8   8   8
#     4  12  25  48  71 105 153 200 238 307 384 454
#     4  11  25  44  74 102 148 193 254 312 371 449
#     4  12  25  43  76 107 146 190 254 311 370 445
#     4  11  24  43  75 103 145 186 251 307 372 430
#     4  12  27  48  73 109 155 204 246 306 392 457
#     4  11  23  46  72 107 146 195 249 314 371 447
#     4  11  23  42  71 112 136 186 255 309 373 427
#
# _framework density 25.448022000000002
#
# number of rings (size 3 to 8) (size 9 to 14) (size 15 to 20)
#    0.000    0.571    5.714    1.714    6.000    0.571 
#    0.000    2.857    0.000    0.000    0.000    0.000 
#    0.000    0.000    0.000    0.000    0.000    0.000 
#
# Total GULP energy -312480.746270 kJ/mol
# GULP energy per Si atom -5580.013326 kJ/mol
# Density = 2.539010 g / cm^3
# Si number density = 25.448022 Si / 1000 Ang^3
#
#
#
# Elastic Constant Matrix: (Units=GPa)
#
#
# Indices 1 2 3 4 5 6 
#
# 1 78.3920 52.4486 27.9864 0.0000 0.0000 0.0000
# 2 52.4486 166.9163 47.7370 0.0000 0.0000 0.0000
# 3 27.9864 47.7370 92.9830 0.0000 0.0000 0.0000
# 4 0.0000 0.0000 0.0000 46.7019 0.0000 0.0000
# 5 0.0000 0.0000 0.0000 0.0000 34.6817 0.0000
# 6 0.0000 0.0000 0.0000 0.0000 0.0000 22.5571
#
#
#
# Elastic Compliance Matrix: (Units=1/GPa)
#
#
# Indices 1 2 3 4 5 6 
#
# 1 0.016726 -0.004473 -0.002738 0.000000 0.000000 0.000000
# 2 -0.004473 0.008218 -0.002873 0.000000 0.000000 0.000000
# 3 -0.002738 -0.002873 0.013054 0.000000 0.000000 0.000000
# 4 0.000000 0.000000 0.000000 0.021412 0.000000 0.000000
# 5 0.000000 0.000000 0.000000 0.000000 0.028834 0.000000
# 6 0.000000 0.000000 0.000000 0.000000 0.000000 0.044332
#
#
# Mechanical properties :
#
#
# Convention : Reuss Voigt Hill
#
# Bulk Modulus (GPa) = 56.08290 66.07060 61.07675
# Shear Modulus (GPa) = 31.50851 34.79609 33.15230
#
# Velocity S-wave (km/s) = 3.52256 3.70177 3.61327
# Velocity P-wave (km/s) = 6.21535 6.65508 6.43897
#
# Compressibility (1/GPa) = 0.01783075
#
# Stress axis : x y z
#
# Youngs Moduli (GPa) = 59.78571 121.68302 76.60645
#
# Poissons Ratio (x) = 0.54425 0.20976
# Poissons Ratio (y) = 0.26740 0.22008
# Poissons Ratio (z) = 0.16370 0.34958
#
# Static dielectric constant tensor:
#      x y z
#    x 2.208470 0.000000 0.000000 
#    y 0.000000 2.070260 0.000000 
#    z 0.000000 0.000000 2.007670 
# 
# From -- ./inp_files/8378.got.cif
#   From: 2010.05.17/outbox.cif.g08.bks.cpg/sg61_5_cif.got.tgz:8378.got - 2010.06.03 15:17:17.
