data_PCOD9460636
_publ_section_title
;
Structure prediction by ZEFSAII (Michael W. Deem and Ramdas Pophale) SiO2 
 PCOD9460636
Probable space group: P B C A
;
_chemical_formula_sum "Si O2"
_cell_formula_units_Z 40
_cell_length_a 25.233747
_cell_length_b 9.101447
_cell_length_c 7.621481
_cell_angle_alpha 90.000000
_cell_angle_beta 90.000000
_cell_angle_gamma 90.000000
_cell_volume 1750.376847
_symmetry_space_group_name_H-M "P B C A"
_symmetry_group_IT_number 61
_symmetry_cell_setting 'orthorhombic'
loop_
_space_group_symop_operation_xyz
x,y,z
1/2-x,-y,1/2+z
1/2+x,1/2-y,-z
-x,1/2+y,1/2-z
-x,-y,-z
1/2+x,y,1/2-z
1/2-x,1/2+y,z
x,1/2-y,1/2+z
loop_
_atom_site_type_symbol
_atom_site_label
_atom_site_fract_x
_atom_site_fract_y
_atom_site_fract_z
Si Si1 0.256326 0.981502 0.365089
Si Si2 0.444965 0.415083 0.454371
Si Si3 0.286846 0.716390 0.592300
Si Si4 0.866711 0.969059 0.250780
Si Si5 0.556499 0.930841 0.456757
O O1 0.273467 0.876396 0.527338
O O2 0.242880 0.859052 0.218894
O O3 0.215641 0.102735 0.427732
O O4 0.311301 0.050600 0.293378
O O5 0.500000 0.500000 0.500000
O O6 0.400377 0.471580 0.588010
O O7 0.432405 0.440806 0.250093
O O8 0.447449 0.240020 0.486689
O O9 0.342379 0.688235 0.690666
O O10 0.901652 0.983602 0.078028
O O11 0.500000 0.000000 0.500000
#
# Coordination Sequence:
#
# PCOD9460636 Si02
#       5
#     8   8   8   8   8
#     4  10  23  45  69  99 138 179 236 283 354 411
#     4  12  24  47  72 102 144 184 237 290 352 418
#     4  10  23  45  69  99 138 179 236 283 354 411
#     4  10  26  42  70 106 134 190 230 288 350 420
#     4  12  24  47  72 102 144 184 237 290 352 418
#
# _framework density 22.852221
#
# number of rings (size 3 to 8) (size 9 to 14) (size 15 to 20)
#    1.200    0.000    4.000    1.200    0.000    6.400 
#    7.200    0.000    0.000    0.000    0.000    0.000 
#    0.000    0.000    0.000    0.000    0.000    0.000 
#
# Total GULP energy -223156.901823 kJ/mol
# GULP energy per Si atom -5578.922546 kJ/mol
# Density = 2.280021 g / cm^3
# Si number density = 22.852221 Si / 1000 Ang^3
#
#
#
# Elastic Constant Matrix: (Units=GPa)
#
#
# Indices 1 2 3 4 5 6 
#
# 1 112.9458 56.6350 61.1562 0.0000 0.0000 0.0000
# 2 56.6350 126.5436 48.9250 0.0000 0.0000 0.0000
# 3 61.1562 48.9250 196.4819 0.0000 0.0000 0.0000
# 4 0.0000 0.0000 0.0000 41.8582 0.0000 0.0000
# 5 0.0000 0.0000 0.0000 0.0000 52.8117 0.0000
# 6 0.0000 0.0000 0.0000 0.0000 0.0000 34.4509
#
#
#
# Elastic Compliance Matrix: (Units=1/GPa)
#
#
# Indices 1 2 3 4 5 6 
#
# 1 0.012671 -0.004588 -0.002802 0.000000 0.000000 0.000000
# 2 -0.004588 0.010405 -0.001163 0.000000 0.000000 0.000000
# 3 -0.002802 -0.001163 0.006251 0.000000 0.000000 0.000000
# 4 0.000000 0.000000 0.000000 0.023890 0.000000 0.000000
# 5 0.000000 0.000000 0.000000 0.000000 0.018935 0.000000
# 6 0.000000 0.000000 0.000000 0.000000 0.000000 0.029027
#
#
# Mechanical properties :
#
#
# Convention : Reuss Voigt Hill
#
# Bulk Modulus (GPa) = 81.81410 85.48930 83.65170
# Shear Modulus (GPa) = 40.86326 43.77450 42.31888
#
# Velocity S-wave (km/s) = 4.23324 4.38144 4.30798
# Velocity P-wave (km/s) = 7.73129 7.94273 7.83772
#
# Compressibility (1/GPa) = 0.01222283
#
# Stress axis : x y z
#
# Youngs Moduli (GPa) = 78.91843 96.10414 159.97101
#
# Poissons Ratio (x) = 0.44092 0.44818
# Poissons Ratio (y) = 0.36207 0.18604
# Poissons Ratio (z) = 0.22110 0.11177
#
# Static dielectric constant tensor:
#      x y z
#    x 1.834750 0.000000 0.000000 
#    y 0.000000 1.872510 0.000000 
#    z 0.000000 0.000000 2.065330 
# 
# From -- ./inp_files/4407.got.cif
#   From: 2010.05.17/outbox.cif.g08.bks.cpg/sg61_3_cif.got.tgz:4407.got - 2010.06.03 15:17:17.
