data_PCOD9460895
_publ_section_title
;
Structure prediction by ZEFSAII (Michael W. Deem and Ramdas Pophale) SiO2 
 PCOD9460895
Probable space group: P B C A
;
_chemical_formula_sum "Si O2"
_cell_formula_units_Z 64
_cell_length_a 14.549081
_cell_length_b 8.934782
_cell_length_c 24.441846
_cell_angle_alpha 90.000000
_cell_angle_beta 90.000000
_cell_angle_gamma 90.000000
_cell_volume 3177.265637
_symmetry_space_group_name_H-M "P B C A"
_symmetry_group_IT_number 61
_symmetry_cell_setting 'orthorhombic'
loop_
_space_group_symop_operation_xyz
x,y,z
1/2-x,-y,1/2+z
1/2+x,1/2-y,-z
-x,1/2+y,1/2-z
-x,-y,-z
1/2+x,y,1/2-z
1/2-x,1/2+y,z
x,1/2-y,1/2+z
loop_
_atom_site_type_symbol
_atom_site_label
_atom_site_fract_x
_atom_site_fract_y
_atom_site_fract_z
Si Si1 0.515173 0.218139 0.177122
Si Si2 0.742389 0.347013 0.002738
Si Si3 0.957103 0.912592 0.374430
Si Si4 0.065966 0.378995 0.432943
Si Si5 0.942280 0.276010 0.532984
Si Si6 0.729468 0.100805 0.925700
Si Si7 0.173375 0.873668 0.185286
Si Si8 0.362509 0.784256 0.716425
O O1 0.541218 0.325884 0.127101
O O2 0.413807 0.268964 0.196290
O O3 0.587456 0.233594 0.225823
O O4 0.509147 0.049104 0.154243
O O5 0.668901 0.331670 0.050332
O O6 0.842320 0.288814 0.018620
O O7 0.706109 0.265032 0.947680
O O8 0.746563 0.515737 0.981163
O O9 0.859838 0.972453 0.398428
O O10 0.927725 0.787907 0.330165
O O11 0.010819 0.837428 0.424447
O O12 0.059513 0.557754 0.440895
O O13 0.999532 0.298456 0.477051
O O14 0.807203 0.113268 0.880039
O O15 0.265704 0.802796 0.210746
O O16 0.154977 0.040928 0.205743
#
# Coordination Sequence:
#
# PCOD9460895 Si02
#       8
#     8   8   8   8   8   8   8   8
#     4  12  26  45  69 102 137 179 228 282 345 408
#     4  12  23  39  62  98 136 176 216 273 334 406
#     4  11  23  41  71  99 131 180 229 284 336 401
#     4  11  25  43  63 100 137 182 219 277 342 407
#     4  11  24  42  66  95 139 178 223 277 345 403
#     4  11  21  38  66  99 131 171 227 274 322 403
#     4  11  23  45  74 101 133 178 231 286 337 398
#     4  11  25  47  71 102 130 176 233 285 340 405
#
# _framework density 20.143106
#
# number of rings (size 3 to 8) (size 9 to 14) (size 15 to 20)
#    0.000    0.750    2.500    6.750    3.500    1.000 
#    6.750    0.000    0.000    0.000    0.000    0.000 
#    0.000    0.000    0.000    0.000    0.000    0.000 
#
# Total GULP energy -357949.328824 kJ/mol
# GULP energy per Si atom -5592.958263 kJ/mol
# Density = 2.009726 g / cm^3
# Si number density = 20.143106 Si / 1000 Ang^3
#
#
#
# Elastic Constant Matrix: (Units=GPa)
#
#
# Indices 1 2 3 4 5 6 
#
# 1 96.5151 19.8870 36.2167 0.0000 0.0000 0.0000
# 2 19.8870 61.7751 15.2886 0.0000 0.0000 0.0000
# 3 36.2167 15.2886 86.1158 0.0000 0.0000 0.0000
# 4 0.0000 0.0000 0.0000 24.8452 0.0000 0.0000
# 5 0.0000 0.0000 0.0000 0.0000 37.9810 0.0000
# 6 0.0000 0.0000 0.0000 0.0000 0.0000 22.8326
#
#
#
# Elastic Compliance Matrix: (Units=1/GPa)
#
#
# Indices 1 2 3 4 5 6 
#
# 1 0.012785 -0.002913 -0.004860 0.000000 0.000000 0.000000
# 2 -0.002913 0.017595 -0.001899 0.000000 0.000000 0.000000
# 3 -0.004860 -0.001899 0.013993 0.000000 0.000000 0.000000
# 4 0.000000 0.000000 0.000000 0.040249 0.000000 0.000000
# 5 0.000000 0.000000 0.000000 0.000000 0.026329 0.000000
# 6 0.000000 0.000000 0.000000 0.000000 0.000000 0.043797
#
#
# Mechanical properties :
#
#
# Convention : Reuss Voigt Hill
#
# Bulk Modulus (GPa) = 39.95102 43.02118 41.48610
# Shear Modulus (GPa) = 27.40701 28.66598 28.03650
#
# Velocity S-wave (km/s) = 3.69265 3.77651 3.73482
# Velocity P-wave (km/s) = 6.16908 6.35769 6.26410
#
# Compressibility (1/GPa) = 0.02503065
#
# Stress axis : x y z
#
# Youngs Moduli (GPa) = 78.21756 56.83286 71.46374
#
# Poissons Ratio (x) = 0.16556 0.34729
# Poissons Ratio (y) = 0.22785 0.13569
# Poissons Ratio (z) = 0.38011 0.10791
#
# Static dielectric constant tensor:
#      x y z
#    x 1.717730 0.000000 0.000000 
#    y 0.000000 1.710690 0.000000 
#    z 0.000000 0.000000 1.674620 
# 
# From -- ./inp_files/11084.got.cif
#   From: 2010.05.17/outbox.cif.g08.bks.cpg/sg61_6_cif.got.tgz:11084.got - 2010.06.03 15:17:17.
