data_PCOD9460637
_publ_section_title
;
Structure prediction by ZEFSAII (Michael W. Deem and Ramdas Pophale) SiO2 
 PCOD9460637
Probable space group: P B C A
;
_chemical_formula_sum "Si O2"
_cell_formula_units_Z 40
_cell_length_a 10.625657
_cell_length_b 9.883736
_cell_length_c 15.689862
_cell_angle_alpha 90.000000
_cell_angle_beta 90.000000
_cell_angle_gamma 90.000000
_cell_volume 1647.767956
_symmetry_space_group_name_H-M "P B C A"
_symmetry_group_IT_number 61
_symmetry_cell_setting 'orthorhombic'
loop_
_space_group_symop_operation_xyz
x,y,z
1/2-x,-y,1/2+z
1/2+x,1/2-y,-z
-x,1/2+y,1/2-z
-x,-y,-z
1/2+x,y,1/2-z
1/2-x,1/2+y,z
x,1/2-y,1/2+z
loop_
_atom_site_type_symbol
_atom_site_label
_atom_site_fract_x
_atom_site_fract_y
_atom_site_fract_z
Si Si1 0.872737 0.593131 0.096878
Si Si2 0.350003 0.399856 0.622886
Si Si3 0.435200 0.235247 0.788610
Si Si4 0.240495 0.834671 0.450644
Si Si5 0.382939 0.964085 0.711641
O O1 0.770680 0.497676 0.051446
O O2 0.864285 0.746262 0.064139
O O3 0.837533 0.587567 0.195963
O O4 0.016095 0.539436 0.092865
O O5 0.378835 0.318621 0.709198
O O6 0.308985 0.305197 0.544882
O O7 0.234943 0.495822 0.651352
O O8 0.345796 0.203540 0.868775
O O9 0.542877 0.334605 0.823594
O O10 0.466010 0.093848 0.739638
#
# Coordination Sequence:
#
# PCOD9460637 Si02
#       5
#     8   8   8   8   8
#     4  10  24  46  64 103 135 183 232 293 347 419
#     4  11  24  42  72 102 138 187 232 283 364 420
#     4  10  24  44  69 102 136 185 233 296 352 418
#     4  11  24  43  69  97 146 176 234 291 346 421
#     4  10  23  45  70  99 138 183 235 289 351 421
#
# _framework density 24.275262000000001
#
# number of rings (size 3 to 8) (size 9 to 14) (size 15 to 20)
#    0.000    1.600    2.000    0.600    5.600    8.000 
#    3.600    2.000    0.000    2.400    0.000    0.000 
#    0.000    0.000    0.000    0.000    0.000    0.000 
#
# Total GULP energy -222867.836023 kJ/mol
# GULP energy per Si atom -5571.695901 kJ/mol
# Density = 2.422001 g / cm^3
# Si number density = 24.275262 Si / 1000 Ang^3
#
#
#
# Elastic Constant Matrix: (Units=GPa)
#
#
# Indices 1 2 3 4 5 6 
#
# 1 61.2165 27.3276 4.4521 0.0000 0.0000 0.0000
# 2 27.3276 51.6776 -35.1792 0.0000 0.0000 0.0000
# 3 4.4521 -35.1792 91.8134 0.0000 0.0000 0.0000
# 4 0.0000 0.0000 0.0000 26.8930 0.0000 0.0000
# 5 0.0000 0.0000 0.0000 0.0000 19.6904 0.0000
# 6 0.0000 0.0000 0.0000 0.0000 0.0000 16.1836
#
#
#
# Elastic Compliance Matrix: (Units=1/GPa)
#
#
# Indices 1 2 3 4 5 6 
#
# 1 0.025685 -0.019522 -0.008726 0.000000 0.000000 0.000000
# 2 -0.019522 0.041018 0.016663 0.000000 0.000000 0.000000
# 3 -0.008726 0.016663 0.017699 0.000000 0.000000 0.000000
# 4 0.000000 0.000000 0.000000 0.037184 0.000000 0.000000
# 5 0.000000 0.000000 0.000000 0.000000 0.050786 0.000000
# 6 0.000000 0.000000 0.000000 0.000000 0.000000 0.061791
#
#
# Mechanical properties :
#
#
# Convention : Reuss Voigt Hill
#
# Bulk Modulus (GPa) = 16.33143 21.98983 19.16063
# Shear Modulus (GPa) = 18.00215 26.42720 22.21468
#
# Velocity S-wave (km/s) = 2.72616 3.30305 3.02837
# Velocity P-wave (km/s) = 4.08062 4.86056 4.48756
#
# Compressibility (1/GPa) = 0.06123162
#
# Stress axis : x y z
#
# Youngs Moduli (GPa) = 38.93314 24.37977 56.49918
#
# Poissons Ratio (x) = 0.47595 0.49300
# Poissons Ratio (y) = 0.76007 -0.94145
# Poissons Ratio (z) = 0.33972 -0.40624
#
# Static dielectric constant tensor:
#      x y z
#    x 2.028170 0.000000 0.000000 
#    y 0.000000 2.035940 0.000000 
#    z 0.000000 0.000000 1.912400 
# 
# From -- ./inp_files/9118.got.cif
#   From: 2010.05.17/outbox.cif.g08.bks.cpg/sg61_5_cif.got.tgz:9118.got - 2010.06.03 15:17:17.
