data_PCOD9460518
_publ_section_title
;
Structure prediction by ZEFSAII (Michael W. Deem and Ramdas Pophale) SiO2 
 PCOD9460518
Probable space group: P B C A
;
_chemical_formula_sum "Si O2"
_cell_formula_units_Z 64
_cell_length_a 9.560975
_cell_length_b 9.382939
_cell_length_c 28.056953
_cell_angle_alpha 90.000000
_cell_angle_beta 90.000000
_cell_angle_gamma 90.000000
_cell_volume 2516.990522
_symmetry_space_group_name_H-M "P B C A"
_symmetry_group_IT_number 61
_symmetry_cell_setting 'orthorhombic'
loop_
_space_group_symop_operation_xyz
x,y,z
1/2-x,-y,1/2+z
1/2+x,1/2-y,-z
-x,1/2+y,1/2-z
-x,-y,-z
1/2+x,y,1/2-z
1/2-x,1/2+y,z
x,1/2-y,1/2+z
loop_
_atom_site_type_symbol
_atom_site_label
_atom_site_fract_x
_atom_site_fract_y
_atom_site_fract_z
Si Si1 0.209361 0.585643 0.432409
Si Si2 0.296406 0.378828 0.043917
Si Si3 0.935696 0.705866 0.589263
Si Si4 0.558176 0.031356 0.790675
Si Si5 0.932451 0.901516 0.184364
Si Si6 0.900020 0.835616 0.906076
Si Si7 0.780338 0.689935 0.302655
Si Si8 0.196676 0.109223 0.305341
O O1 0.233453 0.613211 0.488172
O O2 0.346407 0.650397 0.407338
O O3 0.173636 0.419432 0.424222
O O4 0.065802 0.662110 0.415425
O O5 0.439091 0.287590 0.051682
O O6 0.334925 0.535493 0.062979
O O7 0.173538 0.306689 0.074216
O O8 0.013229 0.643242 0.636821
O O9 0.515038 0.089661 0.738246
O O10 0.680953 0.142793 0.803041
O O11 0.624186 0.873651 0.799068
O O12 0.416575 0.010690 0.819643
O O13 0.821577 0.772155 0.181303
O O14 0.846479 0.048059 0.181557
O O15 0.855766 0.859228 0.850935
O O16 0.829555 0.625167 0.252041
#
# Coordination Sequence:
#
# PCOD9460518 Si02
#       8
#     8   8   8   8   8   8   8   8
#     4  11  24  44  67  98 131 171 216 277 340 392
#     4  11  24  44  67  98 131 171 216 277 340 392
#     4  11  24  42  70  95 133 171 221 274 322 408
#     4  10  23  40  65  87 137 166 219 273 320 387
#     4  10  23  41  60  98 121 178 219 262 327 382
#     4  11  24  42  70  95 133 171 221 274 322 408
#     4  10  23  41  60  98 121 178 219 262 327 382
#     4  10  23  40  65  87 137 166 219 273 320 387
#
# _framework density 25.427191000000001
#
# number of rings (size 3 to 8) (size 9 to 14) (size 15 to 20)
#    0.000    1.500    0.000    4.500    7.000    9.000 
#    0.000    2.500    0.000    0.000    0.000    0.000 
#    0.000    0.000    0.000    0.000    0.000    0.000 
#
# Total GULP energy -357313.316760 kJ/mol
# GULP energy per Si atom -5583.020574 kJ/mol
# Density = 2.536932 g / cm^3
# Si number density = 25.427191 Si / 1000 Ang^3
#
#
#
# Elastic Constant Matrix: (Units=GPa)
#
#
# Indices 1 2 3 4 5 6 
#
# 1 42.9507 22.1966 9.6139 0.0000 0.0000 0.0000
# 2 22.1966 68.3899 11.5330 0.0000 0.0000 0.0000
# 3 9.6139 11.5330 143.6083 0.0000 0.0000 0.0000
# 4 0.0000 0.0000 0.0000 31.9852 0.0000 0.0000
# 5 0.0000 0.0000 0.0000 0.0000 28.7961 0.0000
# 6 0.0000 0.0000 0.0000 0.0000 0.0000 44.9659
#
#
#
# Elastic Compliance Matrix: (Units=1/GPa)
#
#
# Indices 1 2 3 4 5 6 
#
# 1 0.028166 -0.008945 -0.001167 0.000000 0.000000 0.000000
# 2 -0.008945 0.017663 -0.000820 0.000000 0.000000 0.000000
# 3 -0.001167 -0.000820 0.007107 0.000000 0.000000 0.000000
# 4 0.000000 0.000000 0.000000 0.031264 0.000000 0.000000
# 5 0.000000 0.000000 0.000000 0.000000 0.034727 0.000000
# 6 0.000000 0.000000 0.000000 0.000000 0.000000 0.022239
#
#
# Mechanical properties :
#
#
# Convention : Reuss Voigt Hill
#
# Bulk Modulus (GPa) = 32.18171 37.95956 35.07064
# Shear Modulus (GPa) = 28.83687 35.25648 32.04667
#
# Velocity S-wave (km/s) = 3.37129 3.72770 3.55397
# Velocity P-wave (km/s) = 5.27617 5.78695 5.53746
#
# Compressibility (1/GPa) = 0.03107355
#
# Stress axis : x y z
#
# Youngs Moduli (GPa) = 35.50325 56.61420 140.69924
#
# Poissons Ratio (x) = 0.50641 0.16423
# Poissons Ratio (y) = 0.31757 0.11533
# Poissons Ratio (z) = 0.04144 0.04641
#
# Static dielectric constant tensor:
#      x y z
#    x 2.072990 0.000000 0.000000 
#    y 0.000000 1.984360 0.000000 
#    z 0.000000 0.000000 2.120010 
# 
# From -- ./inp_files/11791.got.cif
#   From: 2010.05.17/outbox.cif.g08.bks.cpg/sg61_6_cif.got.tgz:11791.got - 2010.06.03 15:17:17.
