data_PCOD9460622
_publ_section_title
;
Structure prediction by ZEFSAII (Michael W. Deem and Ramdas Pophale) SiO2 
 PCOD9460622
Probable space group: P B C A
;
_chemical_formula_sum "Si O2"
_cell_formula_units_Z 40
_cell_length_a 8.064646
_cell_length_b 20.580946
_cell_length_c 9.389338
_cell_angle_alpha 90.000000
_cell_angle_beta 90.000000
_cell_angle_gamma 90.000000
_cell_volume 1558.423954
_symmetry_space_group_name_H-M "P B C A"
_symmetry_group_IT_number 61
_symmetry_cell_setting 'orthorhombic'
loop_
_space_group_symop_operation_xyz
x,y,z
1/2-x,-y,1/2+z
1/2+x,1/2-y,-z
-x,1/2+y,1/2-z
-x,-y,-z
1/2+x,y,1/2-z
1/2-x,1/2+y,z
x,1/2-y,1/2+z
loop_
_atom_site_type_symbol
_atom_site_label
_atom_site_fract_x
_atom_site_fract_y
_atom_site_fract_z
Si Si1 0.744815 0.885380 0.098656
Si Si2 0.504967 0.299487 0.549051
Si Si3 0.619264 0.475114 0.624275
Si Si4 0.965344 0.433184 0.581731
Si Si5 0.299117 0.759032 0.215603
O O1 0.710226 0.956065 0.167276
O O2 0.772978 0.829242 0.213013
O O3 0.586527 0.864951 0.002152
O O4 0.908429 0.885789 0.998908
O O5 0.362249 0.260742 0.630033
O O6 0.560220 0.265606 0.403639
O O7 0.653367 0.292563 0.662359
O O8 0.500000 0.500000 0.500000
O O9 0.767341 0.427268 0.575389
O O10 0.523836 0.444195 0.756732
O O11 0.000000 0.500000 0.500000
#
# Coordination Sequence:
#
# PCOD9460622 Si02
#       5
#     8   8   8   8   8
#     4  11  26  46  78 109 150 211 243 326 400 445
#     4  12  25  48  74 110 153 196 264 315 382 478
#     4  11  25  49  73 111 150 196 260 321 373 475
#     4  10  23  44  72 106 147 188 256 307 376 461
#     4  12  25  49  74 113 156 199 260 321 384 474
#
# _framework density 25.666957
#
# number of rings (size 3 to 8) (size 9 to 14) (size 15 to 20)
#    0.000    0.800    4.000    2.400    5.600    3.200 
#    3.600    0.000    0.000    0.000    0.000    0.000 
#    0.000    0.000    0.000    0.000    0.000    0.000 
#
# Total GULP energy -224151.567979 kJ/mol
# GULP energy per Si atom -5603.789199 kJ/mol
# Density = 2.560854 g / cm^3
# Si number density = 25.666957 Si / 1000 Ang^3
#
#
#
# Elastic Constant Matrix: (Units=GPa)
#
#
# Indices 1 2 3 4 5 6 
#
# 1 110.4937 2.2499 19.3836 0.0000 0.0000 0.0000
# 2 2.2499 108.5581 5.8970 0.0000 0.0000 0.0000
# 3 19.3836 5.8970 90.1607 0.0000 0.0000 0.0000
# 4 0.0000 0.0000 0.0000 41.9471 0.0000 0.0000
# 5 0.0000 0.0000 0.0000 0.0000 57.7734 0.0000
# 6 0.0000 0.0000 0.0000 0.0000 0.0000 42.6832
#
#
#
# Elastic Compliance Matrix: (Units=1/GPa)
#
#
# Indices 1 2 3 4 5 6 
#
# 1 0.009406 -0.000085 -0.002017 0.000000 0.000000 0.000000
# 2 -0.000085 0.009245 -0.000586 0.000000 0.000000 0.000000
# 3 -0.002017 -0.000586 0.011563 0.000000 0.000000 0.000000
# 4 0.000000 0.000000 0.000000 0.023840 0.000000 0.000000
# 5 0.000000 0.000000 0.000000 0.000000 0.017309 0.000000
# 6 0.000000 0.000000 0.000000 0.000000 0.000000 0.023428
#
#
# Mechanical properties :
#
#
# Convention : Reuss Voigt Hill
#
# Bulk Modulus (GPa) = 40.26142 40.47485 40.36814
# Shear Modulus (GPa) = 46.10544 47.25953 46.68249
#
# Velocity S-wave (km/s) = 4.24287 4.29565 4.26934
# Velocity P-wave (km/s) = 6.30260 6.35664 6.32968
#
# Compressibility (1/GPa) = 0.02483767
#
# Stress axis : x y z
#
# Youngs Moduli (GPa) = 106.31751 108.16333 86.48133
#
# Poissons Ratio (x) = 0.00924 0.17439
# Poissons Ratio (y) = 0.00908 0.05071
# Poissons Ratio (z) = 0.21440 0.06342
#
# Static dielectric constant tensor:
#      x y z
#    x 2.151800 0.000000 0.000000 
#    y 0.000000 2.038100 0.000000 
#    z 0.000000 0.000000 1.958230 
# 
# From -- ./inp_files/1803.got.cif
#   From: 2010.05.17/outbox.cif.g08.bks.cpg/sg61_1_cif.got.tgz:1803.got - 2010.06.03 15:17:17.
