data_PCOD9460389
_publ_section_title
;
Structure prediction by ZEFSAII (Michael W. Deem and Ramdas Pophale) SiO2 
 PCOD9460389
Probable space group: P B C A
;
_chemical_formula_sum "Si O2"
_cell_formula_units_Z 64
_cell_length_a 8.767406
_cell_length_b 11.410552
_cell_length_c 28.704146
_cell_angle_alpha 90.000000
_cell_angle_beta 90.000000
_cell_angle_gamma 90.000000
_cell_volume 2871.589807
_symmetry_space_group_name_H-M "P B C A"
_symmetry_group_IT_number 61
_symmetry_cell_setting 'orthorhombic'
loop_
_space_group_symop_operation_xyz
x,y,z
1/2-x,-y,1/2+z
1/2+x,1/2-y,-z
-x,1/2+y,1/2-z
-x,-y,-z
1/2+x,y,1/2-z
1/2-x,1/2+y,z
x,1/2-y,1/2+z
loop_
_atom_site_type_symbol
_atom_site_label
_atom_site_fract_x
_atom_site_fract_y
_atom_site_fract_z
Si Si1 0.081522 0.385497 0.975209
Si Si2 0.383658 0.664686 0.211197
Si Si3 0.121529 0.789420 0.245010
Si Si4 0.805914 0.504644 0.211747
Si Si5 0.524800 0.383745 0.886754
Si Si6 0.451526 0.136319 0.488776
Si Si7 0.534670 0.385255 0.156324
Si Si8 0.836065 0.653251 0.125401
O O1 0.264589 0.370478 0.986710
O O2 0.084161 0.405027 0.919091
O O3 0.000000 0.500000 0.000000
O O4 0.000411 0.257739 0.984618
O O5 0.300169 0.769259 0.238119
O O6 0.553319 0.674464 0.231068
O O7 0.308915 0.551601 0.235144
O O8 0.382030 0.671546 0.156015
O O9 0.092924 0.889007 0.282653
O O10 0.066906 0.817764 0.193545
O O11 0.651518 0.459037 0.188171
O O12 0.875954 0.595062 0.174949
O O13 0.541557 0.345904 0.939476
O O14 0.546100 0.522581 0.877545
O O15 0.345388 0.358527 0.879019
O O16 0.500000 0.000000 0.500000
O O17 0.623480 0.289388 0.126861
#
# Coordination Sequence:
#
# PCOD9460389 Si02
#       8
#     8   8   8   8   8   8   8   8
#     4  11  25  47  79 110 143 192 245 309 381 448
#     4  12  24  40  58  95 130 174 222 273 328 405
#     4  12  23  37  59  86 133 172 216 273 326 389
#     4  11  21  38  63  90 131 179 225 270 330 408
#     4  10  23  41  68  94 135 178 226 277 356 428
#     4  11  24  49  76 108 147 189 243 315 379 454
#     4  11  20  40  61  94 125 180 224 274 333 407
#     4  10  22  42  70  95 127 182 235 277 344 429
#
# _framework density 22.287303999999999
#
# number of rings (size 3 to 8) (size 9 to 14) (size 15 to 20)
#    0.000    1.000    3.750    3.750    0.000    6.000 
#    6.750    0.000    0.000    0.000    0.000    0.000 
#    0.000    0.000    0.000    0.000    0.000    0.000 
#
# Total GULP energy -356366.369648 kJ/mol
# GULP energy per Si atom -5568.224526 kJ/mol
# Density = 2.223658 g / cm^3
# Si number density = 22.287304 Si / 1000 Ang^3
#
#
#
# Elastic Constant Matrix: (Units=GPa)
#
#
# Indices 1 2 3 4 5 6 
#
# 1 45.5653 22.0020 14.7527 0.0000 0.0000 0.0000
# 2 22.0020 88.0082 15.9491 0.0000 0.0000 0.0000
# 3 14.7527 15.9491 108.8273 0.0000 0.0000 0.0000
# 4 0.0000 0.0000 0.0000 32.8637 0.0000 0.0000
# 5 0.0000 0.0000 0.0000 0.0000 23.1738 0.0000
# 6 0.0000 0.0000 0.0000 0.0000 0.0000 31.5306
#
#
#
# Elastic Compliance Matrix: (Units=1/GPa)
#
#
# Indices 1 2 3 4 5 6 
#
# 1 0.025660 -0.005942 -0.002608 0.000000 0.000000 0.000000
# 2 -0.005942 0.013049 -0.001107 0.000000 0.000000 0.000000
# 3 -0.002608 -0.001107 0.009705 0.000000 0.000000 0.000000
# 4 0.000000 0.000000 0.000000 0.030429 0.000000 0.000000
# 5 0.000000 0.000000 0.000000 0.000000 0.043152 0.000000
# 6 0.000000 0.000000 0.000000 0.000000 0.000000 0.031715
#
#
# Mechanical properties :
#
#
# Convention : Reuss Voigt Hill
#
# Bulk Modulus (GPa) = 34.36450 38.64538 36.50494
# Shear Modulus (GPa) = 27.36377 30.16010 28.76194
#
# Velocity S-wave (km/s) = 3.50776 3.68263 3.59626
# Velocity P-wave (km/s) = 5.64431 5.95480 5.80163
#
# Compressibility (1/GPa) = 0.02909979
#
# Stress axis : x y z
#
# Youngs Moduli (GPa) = 38.97077 76.63558 103.04425
#
# Poissons Ratio (x) = 0.45541 0.26870
# Poissons Ratio (y) = 0.23158 0.11405
# Poissons Ratio (z) = 0.10162 0.08482
#
# Static dielectric constant tensor:
#      x y z
#    x 1.828300 0.000000 0.000000 
#    y 0.000000 1.902520 0.000000 
#    z 0.000000 0.000000 1.859980 
# 
# From -- ./inp_files/11730.got.cif
#   From: 2010.05.17/outbox.cif.g08.bks.cpg/sg61_6_cif.got.tgz:11730.got - 2010.06.03 15:17:17.
