data_PCOD9460954
_publ_section_title
;
Structure prediction by ZEFSAII (Michael W. Deem and Ramdas Pophale) SiO2 
 PCOD9460954
Probable space group: P B C A
;
_chemical_formula_sum "Si O2"
_cell_formula_units_Z 48
_cell_length_a 8.951965
_cell_length_b 18.764976
_cell_length_c 11.909045
_cell_angle_alpha 90.000000
_cell_angle_beta 90.000000
_cell_angle_gamma 90.000000
_cell_volume 2000.521970
_symmetry_space_group_name_H-M "P B C A"
_symmetry_group_IT_number 61
_symmetry_cell_setting 'orthorhombic'
loop_
_space_group_symop_operation_xyz
x,y,z
1/2-x,-y,1/2+z
1/2+x,1/2-y,-z
-x,1/2+y,1/2-z
-x,-y,-z
1/2+x,y,1/2-z
1/2-x,1/2+y,z
x,1/2-y,1/2+z
loop_
_atom_site_type_symbol
_atom_site_label
_atom_site_fract_x
_atom_site_fract_y
_atom_site_fract_z
Si Si1 0.740567 0.808065 0.992516
Si Si2 0.458830 0.289541 0.909552
Si Si3 0.310639 0.548599 0.901221
Si Si4 0.533371 0.037217 0.823666
Si Si5 0.988543 0.129655 0.323244
Si Si6 0.249962 0.600883 0.489227
O O1 0.655674 0.776157 0.100303
O O2 0.808693 0.885299 0.016421
O O3 0.349067 0.875581 0.880952
O O4 0.881572 0.762895 0.952163
O O5 0.487408 0.337190 0.800247
O O6 0.372002 0.337749 0.001780
O O7 0.424846 0.560590 0.800667
O O8 0.333120 0.472788 0.959726
O O9 0.140667 0.545019 0.852387
O O10 0.568962 0.952227 0.827936
O O11 0.633991 0.080037 0.913057
O O12 0.882755 0.179216 0.398001
#
# Coordination Sequence:
#
# PCOD9460954 Si02
#       6
#     8   8   8   8   8   8
#     4  12  27  48  68 105 142 187 236 302 346 431
#     4  12  28  44  74  99 147 191 243 287 368 434
#     4  11  24  43  72 106 144 182 241 295 357 411
#     4  11  23  41  74 108 145 182 234 297 352 421
#     4  11  22  48  73 103 140 188 234 288 362 418
#     4  11  22  45  72 107 142 186 235 301 351 426
#
# _framework density 23.993738
#
# number of rings (size 3 to 8) (size 9 to 14) (size 15 to 20)
#    0.000    0.667    5.000    3.000    4.667    2.000 
#    3.000    0.000    0.000    0.000    0.000    0.000 
#    0.000    0.000    0.000    0.000    0.000    0.000 
#
# Total GULP energy -268758.564509 kJ/mol
# GULP energy per Si atom -5599.136761 kJ/mol
# Density = 2.393913 g / cm^3
# Si number density = 23.993738 Si / 1000 Ang^3
#
#
#
# Elastic Constant Matrix: (Units=GPa)
#
#
# Indices 1 2 3 4 5 6 
#
# 1 91.2185 20.6611 5.0536 0.0000 0.0000 0.0000
# 2 20.6611 71.6295 9.1381 0.0000 0.0000 0.0000
# 3 5.0536 9.1381 46.4478 0.0000 0.0000 0.0000
# 4 0.0000 0.0000 0.0000 26.3140 0.0000 0.0000
# 5 0.0000 0.0000 0.0000 0.0000 30.6071 0.0000
# 6 0.0000 0.0000 0.0000 0.0000 0.0000 40.9381
#
#
#
# Elastic Compliance Matrix: (Units=1/GPa)
#
#
# Indices 1 2 3 4 5 6 
#
# 1 0.011747 -0.003308 -0.000627 0.000000 0.000000 0.000000
# 2 -0.003308 0.015252 -0.002641 0.000000 0.000000 0.000000
# 3 -0.000627 -0.002641 0.022117 0.000000 0.000000 0.000000
# 4 0.000000 0.000000 0.000000 0.038003 0.000000 0.000000
# 5 0.000000 0.000000 0.000000 0.000000 0.032672 0.000000
# 6 0.000000 0.000000 0.000000 0.000000 0.000000 0.024427
#
#
# Mechanical properties :
#
#
# Convention : Reuss Voigt Hill
#
# Bulk Modulus (GPa) = 27.80589 31.00016 29.40302
# Shear Modulus (GPa) = 29.52326 31.20137 30.36232
#
# Velocity S-wave (km/s) = 3.51159 3.61001 3.56114
# Velocity P-wave (km/s) = 5.29676 5.50676 5.40278
#
# Compressibility (1/GPa) = 0.03596360
#
# Stress axis : x y z
#
# Youngs Moduli (GPa) = 85.12982 65.56575 45.21349
#
# Poissons Ratio (x) = 0.21691 0.02836
# Poissons Ratio (y) = 0.28163 0.11939
# Poissons Ratio (z) = 0.05339 0.17314
#
# Static dielectric constant tensor:
#      x y z
#    x 1.911760 0.000000 0.000000 
#    y 0.000000 1.942460 0.000000 
#    z 0.000000 0.000000 1.872500 
# 
# From -- ./inp_files/5233.got.cif
#   From: 2010.05.17/outbox.cif.g08.bks.cpg/sg61_3_cif.got.tgz:5233.got - 2010.06.03 15:17:17.
