data_PCOD9460131
_publ_section_title
;
Structure prediction by ZEFSAII (Michael W. Deem and Ramdas Pophale) SiO2 
 PCOD9460131
Probable space group: P B C A
;
_chemical_formula_sum "Si O2"
_cell_formula_units_Z 40
_cell_length_a 8.355462
_cell_length_b 10.162979
_cell_length_c 18.512659
_cell_angle_alpha 90.000000
_cell_angle_beta 90.000000
_cell_angle_gamma 90.000000
_cell_volume 1572.028076
_symmetry_space_group_name_H-M "P B C A"
_symmetry_group_IT_number 61
_symmetry_cell_setting 'orthorhombic'
loop_
_space_group_symop_operation_xyz
x,y,z
1/2-x,-y,1/2+z
1/2+x,1/2-y,-z
-x,1/2+y,1/2-z
-x,-y,-z
1/2+x,y,1/2-z
1/2-x,1/2+y,z
x,1/2-y,1/2+z
loop_
_atom_site_type_symbol
_atom_site_label
_atom_site_fract_x
_atom_site_fract_y
_atom_site_fract_z
Si Si1 0.466423 0.714209 0.676334
Si Si2 0.214803 0.339868 0.553203
Si Si3 0.060149 0.283150 0.404998
Si Si4 0.589519 0.420029 0.710970
Si Si5 0.677616 0.942390 0.340500
O O1 0.440734 0.781279 0.597451
O O2 0.540832 0.567037 0.681970
O O3 0.513796 0.816139 0.738726
O O4 0.279412 0.679504 0.685274
O O5 0.385864 0.268916 0.566757
O O6 0.234018 0.485931 0.586452
O O7 0.168002 0.331165 0.470089
O O8 0.005920 0.402569 0.352959
O O9 0.136568 0.168025 0.357203
O O10 0.705958 0.459096 0.775575
#
# Coordination Sequence:
#
# PCOD9460131 Si02
#       5
#     8   8   8   8   8
#     4  10  22  41  66  96 133 179 220 290 337 402
#     4  10  23  42  66  93 141 180 223 278 342 407
#     4  11  22  43  65  99 133 183 224 279 339 407
#     4  11  21  41  69  95 131 174 228 281 340 399
#     4  10  21  43  67  94 137 178 228 279 346 397
#
# _framework density 25.444838000000001
#
# number of rings (size 3 to 8) (size 9 to 14) (size 15 to 20)
#    0.000    1.600    4.000    0.600    0.000    0.800 
#   10.800    0.000    0.000    0.000    0.000    0.000 
#    0.000    0.000    0.000    0.000    0.000    0.000 
#
# Total GULP energy -222688.902116 kJ/mol
# GULP energy per Si atom -5567.222553 kJ/mol
# Density = 2.538692 g / cm^3
# Si number density = 25.444838 Si / 1000 Ang^3
#
#
#
# Elastic Constant Matrix: (Units=GPa)
#
#
# Indices 1 2 3 4 5 6 
#
# 1 18.2740 1.1789 9.2648 0.0000 0.0000 0.0000
# 2 1.1789 113.8444 15.9696 0.0000 0.0000 0.0000
# 3 9.2648 15.9696 93.0503 0.0000 0.0000 0.0000
# 4 0.0000 0.0000 0.0000 33.3222 0.0000 0.0000
# 5 0.0000 0.0000 0.0000 0.0000 24.8572 0.0000
# 6 0.0000 0.0000 0.0000 0.0000 0.0000 33.3032
#
#
#
# Elastic Compliance Matrix: (Units=1/GPa)
#
#
# Indices 1 2 3 4 5 6 
#
# 1 0.057637 0.000213 -0.005775 0.000000 0.000000 0.000000
# 2 0.000213 0.009001 -0.001566 0.000000 0.000000 0.000000
# 3 -0.005775 -0.001566 0.011591 0.000000 0.000000 0.000000
# 4 0.000000 0.000000 0.000000 0.030010 0.000000 0.000000
# 5 0.000000 0.000000 0.000000 0.000000 0.040230 0.000000
# 6 0.000000 0.000000 0.000000 0.000000 0.000000 0.030027
#
#
# Mechanical properties :
#
#
# Convention : Reuss Voigt Hill
#
# Bulk Modulus (GPa) = 15.63169 30.88835 23.26002
# Shear Modulus (GPa) = 23.35615 31.54688 27.45151
#
# Velocity S-wave (km/s) = 3.03299 3.52492 3.28817
# Velocity P-wave (km/s) = 4.29210 5.36026 4.85564
#
# Compressibility (1/GPa) = 0.06397261
#
# Stress axis : x y z
#
# Youngs Moduli (GPa) = 17.35002 111.09389 86.27614
#
# Poissons Ratio (x) = -0.02370 0.49828
# Poissons Ratio (y) = -0.00370 0.13512
# Poissons Ratio (z) = 0.10020 0.17398
#
# Static dielectric constant tensor:
#      x y z
#    x 2.039180 0.000000 0.000000 
#    y 0.000000 2.196090 0.000000 
#    z 0.000000 0.000000 2.076560 
# 
# From -- ./inp_files/5558.got.cif
#   From: 2010.05.17/outbox.cif.g08.bks.cpg/sg61_3_cif.got.tgz:5558.got - 2010.06.03 15:17:17.
