data_PCOD9460198
_publ_section_title
;
Structure prediction by ZEFSAII (Michael W. Deem and Ramdas Pophale) SiO2 
 PCOD9460198
Probable space group: P B C A
;
_chemical_formula_sum "Si O2"
_cell_formula_units_Z 60
_cell_length_a 26.923380
_cell_length_b 5.308203
_cell_length_c 16.244538
_cell_angle_alpha 90.000000
_cell_angle_beta 90.000000
_cell_angle_gamma 90.000000
_cell_volume 2321.584355
_symmetry_space_group_name_H-M "P B C A"
_symmetry_group_IT_number 61
_symmetry_cell_setting 'orthorhombic'
loop_
_space_group_symop_operation_xyz
x,y,z
1/2-x,-y,1/2+z
1/2+x,1/2-y,-z
-x,1/2+y,1/2-z
-x,-y,-z
1/2+x,y,1/2-z
1/2-x,1/2+y,z
x,1/2-y,1/2+z
loop_
_atom_site_type_symbol
_atom_site_label
_atom_site_fract_x
_atom_site_fract_y
_atom_site_fract_z
Si Si1 0.881257 0.226054 0.299318
Si Si2 0.011222 0.031916 0.709712
Si Si3 0.104667 0.793789 0.019945
Si Si4 0.672838 0.272952 0.746795
Si Si5 0.780518 0.762174 0.925372
Si Si6 0.055759 0.100865 0.417454
Si Si7 0.342267 0.655251 0.919527
Si Si8 0.000000 0.000000 0.000000
O O1 0.938045 0.126490 0.300167
O O2 0.867345 0.260716 0.395198
O O3 0.862805 0.483451 0.257723
O O4 0.853792 0.994744 0.258011
O O5 0.978384 0.806348 0.751390
O O6 0.975691 0.107336 0.632748
O O7 0.072680 0.549649 0.997655
O O8 0.140456 0.871303 0.944044
O O9 0.060830 0.001178 0.026458
O O10 0.707186 0.278225 0.828203
O O11 0.694411 0.237523 0.653994
O O12 0.747978 0.518954 0.944219
O O13 0.825848 0.748182 0.990492
O O14 0.106514 0.220357 0.387879
O O15 0.014222 0.310192 0.427330
#
# Coordination Sequence:
#
# PCOD9460198 Si02
#       8
#     8   8   8   8   8   8   8   4
#     4  12  25  46  73 106 156 209 261 316 376 436
#     4  12  27  41  62 101 154 212 269 322 366 422
#     4  11  24  41  70 101 147 206 258 321 368 440
#     4  12  28  50  78 115 152 201 252 316 387 472
#     4  12  29  54  85 116 148 185 240 318 401 489
#     4  11  24  40  68 101 152 204 266 314 372 438
#     4  11  27  48  78 110 153 196 252 309 391 464
#     4  10  22  38  60 104 136 206 264 312 366 418
#
# _framework density 25.844418999999998
#
# number of rings (size 3 to 8) (size 9 to 14) (size 15 to 20)
#    0.000    0.533    2.667    4.400   11.200    1.067 
#    0.000    0.000    0.000    0.000    0.000    0.000 
#    0.000    0.000    0.000    0.000    0.000    0.000 
#
# Total GULP energy -334106.338680 kJ/mol
# GULP energy per Si atom -5568.438978 kJ/mol
# Density = 2.578560 g / cm^3
# Si number density = 25.844419 Si / 1000 Ang^3
#
#
#
# Elastic Constant Matrix: (Units=GPa)
#
#
# Indices 1 2 3 4 5 6 
#
# 1 54.3906 22.5324 1.0204 0.0000 0.0000 0.0000
# 2 22.5324 142.1553 30.5522 0.0000 0.0000 0.0000
# 3 1.0204 30.5522 63.3351 0.0000 0.0000 0.0000
# 4 0.0000 0.0000 0.0000 16.3415 0.0000 0.0000
# 5 0.0000 0.0000 0.0000 0.0000 26.7681 0.0000
# 6 0.0000 0.0000 0.0000 0.0000 0.0000 25.2584
#
#
#
# Elastic Compliance Matrix: (Units=1/GPa)
#
#
# Indices 1 2 3 4 5 6 
#
# 1 0.019778 -0.003421 0.001332 0.000000 0.000000 0.000000
# 2 -0.003421 0.008440 -0.004016 0.000000 0.000000 0.000000
# 3 0.001332 -0.004016 0.017705 0.000000 0.000000 0.000000
# 4 0.000000 0.000000 0.000000 0.061194 0.000000 0.000000
# 5 0.000000 0.000000 0.000000 0.000000 0.037358 0.000000
# 6 0.000000 0.000000 0.000000 0.000000 0.000000 0.039591
#
#
# Mechanical properties :
#
#
# Convention : Reuss Voigt Hill
#
# Bulk Modulus (GPa) = 29.66355 40.89901 35.28128
# Shear Modulus (GPa) = 24.09478 27.39200 25.74339
#
# Velocity S-wave (km/s) = 3.05667 3.25911 3.15951
# Velocity P-wave (km/s) = 4.89493 5.47922 5.19530
#
# Compressibility (1/GPa) = 0.03371141
#
# Stress axis : x y z
#
# Youngs Moduli (GPa) = 50.56174 118.48338 56.48130
#
# Poissons Ratio (x) = 0.40534 -0.07521
# Poissons Ratio (y) = 0.17298 0.22684
# Poissons Ratio (z) = -0.06733 0.47586
#
# Static dielectric constant tensor:
#      x y z
#    x 2.157160 0.000000 0.000000 
#    y 0.000000 1.811770 0.000000 
#    z 0.000000 0.000000 2.332420 
# 
# From -- ./inp_files/9904.got.cif
#   From: 2010.05.17/outbox.cif.g08.bks.cpg/sg61_5_cif.got.tgz:9904.got - 2010.06.03 15:17:17.
