data_PCOD9460603
_publ_section_title
;
Structure prediction by ZEFSAII (Michael W. Deem and Ramdas Pophale) SiO2 
 PCOD9460603
Probable space group: P B C A
;
_chemical_formula_sum "Si O2"
_cell_formula_units_Z 60
_cell_length_a 17.145215
_cell_length_b 7.168518
_cell_length_c 19.491388
_cell_angle_alpha 90.000000
_cell_angle_beta 90.000000
_cell_angle_gamma 90.000000
_cell_volume 2395.604291
_symmetry_space_group_name_H-M "P B C A"
_symmetry_group_IT_number 61
_symmetry_cell_setting 'orthorhombic'
loop_
_space_group_symop_operation_xyz
x,y,z
1/2-x,-y,1/2+z
1/2+x,1/2-y,-z
-x,1/2+y,1/2-z
-x,-y,-z
1/2+x,y,1/2-z
1/2-x,1/2+y,z
x,1/2-y,1/2+z
loop_
_atom_site_type_symbol
_atom_site_label
_atom_site_fract_x
_atom_site_fract_y
_atom_site_fract_z
Si Si1 0.471522 0.190605 0.352478
Si Si2 0.500000 0.500000 0.000000
Si Si3 0.804800 0.750696 0.239157
Si Si4 0.848465 0.383186 0.300615
Si Si5 0.445887 0.017333 0.218481
Si Si6 0.696540 0.042775 0.004913
Si Si7 0.695821 0.735023 0.611066
Si Si8 0.846013 0.600997 0.441138
O O1 0.504934 0.396078 0.335696
O O2 0.377429 0.183043 0.349155
O O3 0.497454 0.107775 0.424855
O O4 0.495031 0.063318 0.287137
O O5 0.595929 0.502319 0.993642
O O6 0.838568 0.540260 0.240596
O O7 0.734327 0.773982 0.293687
O O8 0.873450 0.887695 0.260349
O O9 0.764296 0.802290 0.166695
O O10 0.855964 0.511913 0.367231
O O11 0.912130 0.218238 0.303791
O O12 0.756786 0.146745 0.055658
O O13 0.654334 0.918588 0.061854
O O14 0.644802 0.180378 0.959725
O O15 0.753949 0.928732 0.956277
#
# Coordination Sequence:
#
# PCOD9460603 Si02
#       8
#     8   4   8   8   8   8   8   8
#     4  12  28  53  77 120 165 217 271 343 424 512
#     4  12  28  52  74 108 164 216 266 336 430 498
#     4  12  24  46  81 118 156 201 273 347 402 491
#     4  12  24  46  76 118 157 205 269 338 410 491
#     4  12  30  48  82 120 162 218 272 349 427 506
#     4  10  23  43  75 107 145 202 260 329 395 486
#     4  11  22  45  76 113 146 201 270 326 402 487
#     4  11  25  45  72 106 154 204 257 332 404 491
#
# _framework density 25.045871999999999
#
# number of rings (size 3 to 8) (size 9 to 14) (size 15 to 20)
#    0.000    0.533    4.000    3.200    5.600    1.067 
#    2.400    1.333    0.000    0.000    0.000    0.000 
#    0.000    0.000    0.000    0.000    0.000    0.000 
#
# Total GULP energy -334319.124672 kJ/mol
# GULP energy per Si atom -5571.985411 kJ/mol
# Density = 2.498887 g / cm^3
# Si number density = 25.045872 Si / 1000 Ang^3
#
#
#
# Elastic Constant Matrix: (Units=GPa)
#
#
# Indices 1 2 3 4 5 6 
#
# 1 88.4819 19.9425 16.0419 0.0000 0.0000 0.0000
# 2 19.9425 120.5537 50.0675 0.0000 0.0000 0.0000
# 3 16.0419 50.0675 104.0407 0.0000 0.0000 0.0000
# 4 0.0000 0.0000 0.0000 50.3163 0.0000 0.0000
# 5 0.0000 0.0000 0.0000 0.0000 39.3990 0.0000
# 6 0.0000 0.0000 0.0000 0.0000 0.0000 45.5881
#
#
#
# Elastic Compliance Matrix: (Units=1/GPa)
#
#
# Indices 1 2 3 4 5 6 
#
# 1 0.011840 -0.001500 -0.001104 0.000000 0.000000 0.000000
# 2 -0.001500 0.010557 -0.004849 0.000000 0.000000 0.000000
# 3 -0.001104 -0.004849 0.012115 0.000000 0.000000 0.000000
# 4 0.000000 0.000000 0.000000 0.019874 0.000000 0.000000
# 5 0.000000 0.000000 0.000000 0.000000 0.025381 0.000000
# 6 0.000000 0.000000 0.000000 0.000000 0.000000 0.021936
#
#
# Mechanical properties :
#
#
# Convention : Reuss Voigt Hill
#
# Bulk Modulus (GPa) = 51.00354 53.90889 52.45622
# Shear Modulus (GPa) = 40.60254 42.19564 41.39909
#
# Velocity S-wave (km/s) = 4.03069 4.10900 4.07004
# Velocity P-wave (km/s) = 6.48616 6.63948 6.56326
#
# Compressibility (1/GPa) = 0.01960648
#
# Stress axis : x y z
#
# Youngs Moduli (GPa) = 84.45966 94.72281 82.54024
#
# Poissons Ratio (x) = 0.14211 0.09109
# Poissons Ratio (y) = 0.12671 0.40024
# Poissons Ratio (z) = 0.09321 0.45932
#
# Static dielectric constant tensor:
#      x y z
#    x 2.026200 0.000000 0.000000 
#    y 0.000000 2.071040 0.000000 
#    z 0.000000 0.000000 1.992310 
# 
# From -- ./inp_files/9686.got.cif
#   From: 2010.05.17/outbox.cif.g08.bks.cpg/sg61_5_cif.got.tgz:9686.got - 2010.06.03 15:17:17.
