data_PCOD9460223
_publ_section_title
;
Structure prediction by ZEFSAII (Michael W. Deem and Ramdas Pophale) SiO2 
 PCOD9460223
Probable space group: P B C A
;
_chemical_formula_sum "Si O2"
_cell_formula_units_Z 40
_cell_length_a 25.493948
_cell_length_b 14.321619
_cell_length_c 5.020972
_cell_angle_alpha 90.000000
_cell_angle_beta 90.000000
_cell_angle_gamma 90.000000
_cell_volume 1833.230234
_symmetry_space_group_name_H-M "P B C A"
_symmetry_group_IT_number 61
_symmetry_cell_setting 'orthorhombic'
loop_
_space_group_symop_operation_xyz
x,y,z
1/2-x,-y,1/2+z
1/2+x,1/2-y,-z
-x,1/2+y,1/2-z
-x,-y,-z
1/2+x,y,1/2-z
1/2-x,1/2+y,z
x,1/2-y,1/2+z
loop_
_atom_site_type_symbol
_atom_site_label
_atom_site_fract_x
_atom_site_fract_y
_atom_site_fract_z
Si Si1 0.374220 0.961192 0.467731
Si Si2 0.275095 0.454009 0.233720
Si Si3 0.055667 0.310246 0.769208
Si Si4 0.695185 0.309423 0.334872
Si Si5 0.473331 0.450367 0.751036
O O1 0.408590 0.895017 0.663513
O O2 0.341839 0.890967 0.277762
O O3 0.333312 0.021627 0.639824
O O4 0.412524 0.026339 0.292142
O O5 0.238338 0.514240 0.031676
O O6 0.253981 0.349389 0.197100
O O7 0.065222 0.224883 0.566932
O O8 0.995529 0.345550 0.749949
O O9 0.686838 0.277839 0.636911
O O10 0.500000 0.500000 0.500000
O O11 0.500000 0.500000 0.000000
#
# Coordination Sequence:
#
# PCOD9460223 Si02
#       5
#     8   8   8   8   8
#     4  10  22  40  64  86 118 166 204 238 302 374
#     4  10  22  39  58  86 121 157 195 241 298 364
#     4  11  22  38  60  91 119 148 196 255 296 340
#     4  11  22  38  60  91 119 148 196 255 296 340
#     4  10  22  39  58  86 121 157 196 243 300 364
#
# _framework density 21.819407999999999
#
# number of rings (size 3 to 8) (size 9 to 14) (size 15 to 20)
#    0.000    1.600    0.000    6.000    0.000   12.800 
#    0.000    2.000    0.000    0.000    0.000    0.000 
#    0.000    0.000    0.000    0.000    0.000    0.000 
#
# Total GULP energy -223652.721257 kJ/mol
# GULP energy per Si atom -5591.318031 kJ/mol
# Density = 2.176975 g / cm^3
# Si number density = 21.819408 Si / 1000 Ang^3
#
#
#
# Elastic Constant Matrix: (Units=GPa)
#
#
# Indices 1 2 3 4 5 6 
#
# 1 112.1398 52.5200 2.2916 0.0000 0.0000 0.0000
# 2 52.5200 48.3818 11.0510 0.0000 0.0000 0.0000
# 3 2.2916 11.0510 88.2450 0.0000 0.0000 0.0000
# 4 0.0000 0.0000 0.0000 23.7127 0.0000 0.0000
# 5 0.0000 0.0000 0.0000 0.0000 31.6017 0.0000
# 6 0.0000 0.0000 0.0000 0.0000 0.0000 58.0899
#
#
#
# Elastic Compliance Matrix: (Units=1/GPa)
#
#
# Indices 1 2 3 4 5 6 
#
# 1 0.018509 -0.020570 0.002095 0.000000 0.000000 0.000000
# 2 -0.020570 0.044139 -0.004993 0.000000 0.000000 0.000000
# 3 0.002095 -0.004993 0.011903 0.000000 0.000000 0.000000
# 4 0.000000 0.000000 0.000000 0.042171 0.000000 0.000000
# 5 0.000000 0.000000 0.000000 0.000000 0.031644 0.000000
# 6 0.000000 0.000000 0.000000 0.000000 0.000000 0.017215
#
#
# Mechanical properties :
#
#
# Convention : Reuss Voigt Hill
#
# Bulk Modulus (GPa) = 36.21330 42.27688 39.24509
# Shear Modulus (GPa) = 22.55080 34.87448 28.71264
#
# Velocity S-wave (km/s) = 3.21833 4.00224 3.63150
# Velocity P-wave (km/s) = 5.51752 6.38554 5.96733
#
# Compressibility (1/GPa) = 0.02761416
#
# Stress axis : x y z
#
# Youngs Moduli (GPa) = 54.02915 22.65568 84.01248
#
# Poissons Ratio (x) = 0.46603 -0.17604
# Poissons Ratio (y) = 1.11139 0.41951
# Poissons Ratio (z) = -0.11321 0.11313
#
# Static dielectric constant tensor:
#      x y z
#    x 1.913960 0.000000 0.000000 
#    y 0.000000 1.809340 0.000000 
#    z 0.000000 0.000000 1.781120 
# 
# From -- ./inp_files/1302.got.cif
#   From: 2010.05.17/outbox.cif.g08.bks.cpg/sg61_1_cif.got.tgz:1302.got - 2010.06.03 15:17:17.
