data_PCOD9460945
_publ_section_title
;
Structure prediction by ZEFSAII (Michael W. Deem and Ramdas Pophale) SiO2 
 PCOD9460945
Probable space group: P B C A
;
_chemical_formula_sum "Si O2"
_cell_formula_units_Z 48
_cell_length_a 15.352146
_cell_length_b 16.735888
_cell_length_c 7.803294
_cell_angle_alpha 90.000000
_cell_angle_beta 90.000000
_cell_angle_gamma 90.000000
_cell_volume 2004.914342
_symmetry_space_group_name_H-M "P B C A"
_symmetry_group_IT_number 61
_symmetry_cell_setting 'orthorhombic'
loop_
_space_group_symop_operation_xyz
x,y,z
1/2-x,-y,1/2+z
1/2+x,1/2-y,-z
-x,1/2+y,1/2-z
-x,-y,-z
1/2+x,y,1/2-z
1/2-x,1/2+y,z
x,1/2-y,1/2+z
loop_
_atom_site_type_symbol
_atom_site_label
_atom_site_fract_x
_atom_site_fract_y
_atom_site_fract_z
Si Si1 0.185991 0.142767 0.007936
Si Si2 0.627913 0.844383 0.098501
Si Si3 0.958433 0.925608 0.397186
Si Si4 0.889192 0.702243 0.170381
Si Si5 0.918473 0.327403 0.705331
Si Si6 0.902512 0.493188 0.565747
O O1 0.188875 0.181243 0.198582
O O2 0.273334 0.128223 0.898964
O O3 0.128600 0.208819 0.902585
O O4 0.151698 0.053821 0.047458
O O5 0.544973 0.885519 0.187081
O O6 0.626731 0.752945 0.150475
O O7 0.603226 0.849851 0.898862
O O8 0.907372 0.861581 0.516433
O O9 0.899037 0.964144 0.251750
O O10 0.000000 0.000000 0.500000
O O11 0.977597 0.691480 0.284448
O O12 0.887202 0.399909 0.587478
O O13 0.000000 0.500000 0.500000
#
# Coordination Sequence:
#
# PCOD9460945 Si02
#       6
#     8   8   8   8   8   8
#     4  12  24  44  65 104 134 176 222 284 339 398
#     4  11  25  43  66  97 141 169 224 277 347 388
#     4  11  22  45  69  95 129 180 229 275 324 405
#     4  11  22  43  73  92 135 182 230 267 335 414
#     4  11  23  45  68  96 131 182 221 272 328 408
#     4  12  24  44  70 101 132 174 236 274 329 408
#
# _framework density 23.941172000000002
#
# number of rings (size 3 to 8) (size 9 to 14) (size 15 to 20)
#    0.000    0.667    5.000    5.000    2.333    0.000 
#    9.000    0.000    0.000    0.000    0.000    0.000 
#    0.000    0.000    0.000    0.000    0.000    0.000 
#
# Total GULP energy -268063.689939 kJ/mol
# GULP energy per Si atom -5584.660207 kJ/mol
# Density = 2.388668 g / cm^3
# Si number density = 23.941172 Si / 1000 Ang^3
#
#
#
# Elastic Constant Matrix: (Units=GPa)
#
#
# Indices 1 2 3 4 5 6 
#
# 1 61.9800 24.6127 -12.0795 0.0000 0.0000 0.0000
# 2 24.6127 91.0533 -13.9108 0.0000 0.0000 0.0000
# 3 -12.0795 -13.9108 40.2638 0.0000 0.0000 0.0000
# 4 0.0000 0.0000 0.0000 36.5182 0.0000 0.0000
# 5 0.0000 0.0000 0.0000 0.0000 21.9884 0.0000
# 6 0.0000 0.0000 0.0000 0.0000 0.0000 26.3666
#
#
#
# Elastic Compliance Matrix: (Units=1/GPa)
#
#
# Indices 1 2 3 4 5 6 
#
# 1 0.018687 -0.004429 0.004076 0.000000 0.000000 0.000000
# 2 -0.004429 0.012644 0.003040 0.000000 0.000000 0.000000
# 3 0.004076 0.003040 0.027109 0.000000 0.000000 0.000000
# 4 0.000000 0.000000 0.000000 0.027384 0.000000 0.000000
# 5 0.000000 0.000000 0.000000 0.000000 0.045479 0.000000
# 6 0.000000 0.000000 0.000000 0.000000 0.000000 0.037927
#
#
# Mechanical properties :
#
#
# Convention : Reuss Voigt Hill
#
# Bulk Modulus (GPa) = 15.67009 21.17131 18.42070
# Shear Modulus (GPa) = 27.00854 29.95296 28.48075
#
# Velocity S-wave (km/s) = 3.36240 3.54094 3.45282
# Velocity P-wave (km/s) = 4.65121 5.05766 4.85868
#
# Compressibility (1/GPa) = 0.06381584
#
# Stress axis : x y z
#
# Youngs Moduli (GPa) = 53.51217 79.08828 36.88758
#
# Poissons Ratio (x) = 0.35025 -0.15037
# Poissons Ratio (y) = 0.23699 -0.11213
# Poissons Ratio (z) = -0.21813 -0.24041
#
# Static dielectric constant tensor:
#      x y z
#    x 2.033250 0.000000 0.000000 
#    y 0.000000 3.273720 0.000000 
#    z 0.000000 0.000000 2.393450 
# 
# From -- ./inp_files/3460.got.cif
#   From: 2010.05.17/outbox.cif.g08.bks.cpg/sg61_2_cif.got.tgz:3460.got - 2010.06.03 15:17:17.
