data_PCOD9460974
_publ_section_title
;
Structure prediction by ZEFSAII (Michael W. Deem and Ramdas Pophale) SiO2 
 PCOD9460974
Probable space group: P B C A
;
_chemical_formula_sum "Si O2"
_cell_formula_units_Z 40
_cell_length_a 18.269534
_cell_length_b 8.464684
_cell_length_c 11.279757
_cell_angle_alpha 90.000000
_cell_angle_beta 90.000000
_cell_angle_gamma 90.000000
_cell_volume 1744.367408
_symmetry_space_group_name_H-M "P B C A"
_symmetry_group_IT_number 61
_symmetry_cell_setting 'orthorhombic'
loop_
_space_group_symop_operation_xyz
x,y,z
1/2-x,-y,1/2+z
1/2+x,1/2-y,-z
-x,1/2+y,1/2-z
-x,-y,-z
1/2+x,y,1/2-z
1/2-x,1/2+y,z
x,1/2-y,1/2+z
loop_
_atom_site_type_symbol
_atom_site_label
_atom_site_fract_x
_atom_site_fract_y
_atom_site_fract_z
Si Si1 0.198291 0.002351 0.812589
Si Si2 0.911271 0.781321 0.281439
Si Si3 0.086199 0.481594 0.533813
Si Si4 0.971974 0.494883 0.131936
Si Si5 0.846571 0.156772 0.738773
O O1 0.168152 0.150411 0.739031
O O2 0.284445 0.038634 0.812348
O O3 0.182567 0.833521 0.754358
O O4 0.147375 0.008174 0.930574
O O5 0.912500 0.690078 0.404857
O O6 0.939506 0.657270 0.183413
O O7 0.962571 0.934846 0.284926
O O8 0.116454 0.596918 0.638741
O O9 0.000000 0.500000 0.500000
O O10 0.911751 0.357802 0.144029
O O11 0.000000 0.500000 0.000000
#
# Coordination Sequence:
#
# PCOD9460974 Si02
#       5
#     8   8   8   8   8
#     4  12  26  47  70  99 144 184 227 294 350 408
#     4  11  24  42  67 101 133 176 232 279 337 419
#     4  11  25  47  73 104 141 182 230 289 350 414
#     4  11  23  41  66  97 133 175 222 277 337 400
#     4  11  26  45  69 105 139 183 239 285 346 425
#
# _framework density 22.930948000000001
#
# number of rings (size 3 to 8) (size 9 to 14) (size 15 to 20)
#    0.000    0.800    0.000    8.400    0.000   11.200 
#    0.000    0.000    0.000    0.000    0.000    0.000 
#    0.000    0.000    0.000    0.000    0.000    0.000 
#
# Total GULP energy -223573.842575 kJ/mol
# GULP energy per Si atom -5589.346064 kJ/mol
# Density = 2.287876 g / cm^3
# Si number density = 22.930948 Si / 1000 Ang^3
#
#
#
# Elastic Constant Matrix: (Units=GPa)
#
#
# Indices 1 2 3 4 5 6 
#
# 1 121.6979 13.9892 55.2916 0.0000 0.0000 0.0000
# 2 13.9892 96.9668 34.3788 0.0000 0.0000 0.0000
# 3 55.2916 34.3788 110.5059 0.0000 0.0000 0.0000
# 4 0.0000 0.0000 0.0000 36.3456 0.0000 0.0000
# 5 0.0000 0.0000 0.0000 0.0000 27.7064 0.0000
# 6 0.0000 0.0000 0.0000 0.0000 0.0000 52.8603
#
#
#
# Elastic Compliance Matrix: (Units=1/GPa)
#
#
# Indices 1 2 3 4 5 6 
#
# 1 0.010648 0.000396 -0.005451 0.000000 0.000000 0.000000
# 2 0.000396 0.011606 -0.003809 0.000000 0.000000 0.000000
# 3 -0.005451 -0.003809 0.012962 0.000000 0.000000 0.000000
# 4 0.000000 0.000000 0.000000 0.027514 0.000000 0.000000
# 5 0.000000 0.000000 0.000000 0.000000 0.036093 0.000000
# 6 0.000000 0.000000 0.000000 0.000000 0.000000 0.018918
#
#
# Mechanical properties :
#
#
# Convention : Reuss Voigt Hill
#
# Bulk Modulus (GPa) = 57.18032 59.60998 58.39515
# Shear Modulus (GPa) = 35.38641 38.41652 36.90146
#
# Velocity S-wave (km/s) = 3.93259 4.09750 4.01589
# Velocity P-wave (km/s) = 6.75354 6.95973 6.85741
#
# Compressibility (1/GPa) = 0.01748853
#
# Stress axis : x y z
#
# Youngs Moduli (GPa) = 93.91319 86.16164 77.14993
#
# Poissons Ratio (x) = -0.03416 0.42055
# Poissons Ratio (y) = -0.03723 0.29387
# Poissons Ratio (z) = 0.51193 0.32820
#
# Static dielectric constant tensor:
#      x y z
#    x 1.924410 0.000000 0.000000 
#    y 0.000000 1.869260 0.000000 
#    z 0.000000 0.000000 1.878080 
# 
# From -- ./inp_files/2135.got.cif
#   From: 2010.05.17/outbox.cif.g08.bks.cpg/sg61_2_cif.got.tgz:2135.got - 2010.06.03 15:17:17.
