data_PCOD9460251
_publ_section_title
;
Structure prediction by ZEFSAII (Michael W. Deem and Ramdas Pophale) SiO2 
 PCOD9460251
Probable space group: P B C A
;
_chemical_formula_sum "Si O2"
_cell_formula_units_Z 48
_cell_length_a 9.019971
_cell_length_b 19.578478
_cell_length_c 12.481140
_cell_angle_alpha 90.000000
_cell_angle_beta 90.000000
_cell_angle_gamma 90.000000
_cell_volume 2204.135672
_symmetry_space_group_name_H-M "P B C A"
_symmetry_group_IT_number 61
_symmetry_cell_setting 'orthorhombic'
loop_
_space_group_symop_operation_xyz
x,y,z
1/2-x,-y,1/2+z
1/2+x,1/2-y,-z
-x,1/2+y,1/2-z
-x,-y,-z
1/2+x,y,1/2-z
1/2-x,1/2+y,z
x,1/2-y,1/2+z
loop_
_atom_site_type_symbol
_atom_site_label
_atom_site_fract_x
_atom_site_fract_y
_atom_site_fract_z
Si Si1 0.168219 0.058226 0.652428
Si Si2 0.125062 0.397502 0.519295
Si Si3 0.948693 0.372714 0.019424
Si Si4 0.299930 0.311629 0.266660
Si Si5 0.500539 0.500099 0.845265
Si Si6 0.452636 0.760218 0.395227
O O1 0.197718 0.131210 0.710587
O O2 0.078042 0.073535 0.544487
O O3 0.332546 0.028643 0.643889
O O4 0.067321 0.012204 0.729566
O O5 0.300721 0.397290 0.541243
O O6 0.019983 0.422837 0.615026
O O7 0.096175 0.453651 0.426098
O O8 0.078632 0.323791 0.474861
O O9 0.886573 0.348741 0.136207
O O10 0.014845 0.307729 0.959628
O O11 0.410108 0.280803 0.179891
O O12 0.192474 0.256442 0.320741
#
# Coordination Sequence:
#
# PCOD9460251 Si02
#       6
#     8   8   8   8   8   8
#     4  12  19  40  66  95 122 182 215 267 332 386
#     4  10  22  40  59  98 119 171 217 272 326 375
#     4  11  23  39  66  96 135 171 224 263 335 401
#     4  11  20  38  60  97 122 172 218 254 335 383
#     4  11  21  38  69  85 128 162 229 269 313 405
#     4  11  23  39  66  95 131 170 216 275 319 403
#
# _framework density 21.777242999999999
#
# number of rings (size 3 to 8) (size 9 to 14) (size 15 to 20)
#    0.000    1.000    8.333    0.000    4.667    0.667 
#    0.000    3.333    0.000    0.000    0.000    0.000 
#    0.000    0.000    0.000    0.000    0.000    0.000 
#
# Total GULP energy -268408.481668 kJ/mol
# GULP energy per Si atom -5591.843368 kJ/mol
# Density = 2.172768 g / cm^3
# Si number density = 21.777243 Si / 1000 Ang^3
#
#
#
# Elastic Constant Matrix: (Units=GPa)
#
#
# Indices 1 2 3 4 5 6 
#
# 1 119.7745 31.6075 14.0238 0.0000 0.0000 0.0000
# 2 31.6075 39.5613 16.6885 0.0000 0.0000 0.0000
# 3 14.0238 16.6885 25.6619 0.0000 0.0000 0.0000
# 4 0.0000 0.0000 0.0000 31.7422 0.0000 0.0000
# 5 0.0000 0.0000 0.0000 0.0000 24.7613 0.0000
# 6 0.0000 0.0000 0.0000 0.0000 0.0000 30.8300
#
#
#
# Elastic Compliance Matrix: (Units=1/GPa)
#
#
# Indices 1 2 3 4 5 6 
#
# 1 0.010582 -0.008289 -0.000392 0.000000 0.000000 0.000000
# 2 -0.008289 0.041326 -0.022345 0.000000 0.000000 0.000000
# 3 -0.000392 -0.022345 0.053715 0.000000 0.000000 0.000000
# 4 0.000000 0.000000 0.000000 0.031504 0.000000 0.000000
# 5 0.000000 0.000000 0.000000 0.000000 0.040386 0.000000
# 6 0.000000 0.000000 0.000000 0.000000 0.000000 0.032436
#
#
# Mechanical properties :
#
#
# Convention : Reuss Voigt Hill
#
# Bulk Modulus (GPa) = 22.95216 34.40415 28.67815
# Shear Modulus (GPa) = 17.45046 25.64523 21.54784
#
# Velocity S-wave (km/s) = 2.83382 3.43536 3.14899
# Velocity P-wave (km/s) = 4.61192 5.61855 5.13994
#
# Compressibility (1/GPa) = 0.04356889
#
# Stress axis : x y z
#
# Youngs Moduli (GPa) = 94.49612 24.19782 18.61694
#
# Poissons Ratio (x) = 0.20058 0.00731
# Poissons Ratio (y) = 0.78330 0.41600
# Poissons Ratio (z) = 0.03708 0.54071
#
# Static dielectric constant tensor:
#      x y z
#    x 1.802500 0.000000 0.000000 
#    y 0.000000 1.803060 0.000000 
#    z 0.000000 0.000000 1.826750 
# 
# From -- ./inp_files/7046.got.cif
#   From: 2010.05.17/outbox.cif.g08.bks.cpg/sg61_4_cif.got.tgz:7046.got - 2010.06.03 15:17:17.
