data_PCOD9460617
_publ_section_title
;
Structure prediction by ZEFSAII (Michael W. Deem and Ramdas Pophale) SiO2 
 PCOD9460617
Probable space group: P B C A
;
_chemical_formula_sum "Si O2"
_cell_formula_units_Z 60
_cell_length_a 5.190217
_cell_length_b 25.655059
_cell_length_c 18.098812
_cell_angle_alpha 90.000000
_cell_angle_beta 90.000000
_cell_angle_gamma 90.000000
_cell_volume 2409.953164
_symmetry_space_group_name_H-M "P B C A"
_symmetry_group_IT_number 61
_symmetry_cell_setting 'orthorhombic'
loop_
_space_group_symop_operation_xyz
x,y,z
1/2-x,-y,1/2+z
1/2+x,1/2-y,-z
-x,1/2+y,1/2-z
-x,-y,-z
1/2+x,y,1/2-z
1/2-x,1/2+y,z
x,1/2-y,1/2+z
loop_
_atom_site_type_symbol
_atom_site_label
_atom_site_fract_x
_atom_site_fract_y
_atom_site_fract_z
Si Si1 0.281759 0.976964 0.700204
Si Si2 0.688643 0.146468 0.297986
Si Si3 0.667141 0.885667 0.501342
Si Si4 0.001783 0.308638 0.924872
Si Si5 0.293681 0.695860 0.923371
Si Si6 0.526182 0.539190 0.586168
Si Si7 0.317947 0.118744 0.799712
Si Si8 0.000000 0.500000 0.500000
O O1 0.044804 0.988057 0.756126
O O2 0.288615 0.915311 0.685516
O O3 0.217097 0.007903 0.623793
O O4 0.913948 0.158025 0.238153
O O5 0.768240 0.176523 0.371593
O O6 0.792908 0.856008 0.570783
O O7 0.522835 0.841935 0.452701
O O8 0.899306 0.912882 0.456839
O O9 0.482546 0.935281 0.512562
O O10 0.118162 0.253536 0.903074
O O11 0.901112 0.301155 0.008219
O O12 0.177743 0.668275 0.852468
O O13 0.684424 0.567590 0.649920
O O14 0.721605 0.501693 0.544380
O O15 0.569263 0.118343 0.750456
#
# Coordination Sequence:
#
# PCOD9460617 Si02
#       8
#     8   8   8   8   8   8   8   4
#     4  10  23  44  70 102 144 200 252 305 383 466
#     4  10  25  48  75 111 150 199 260 321 393 471
#     4  12  25  48  71 119 156 202 266 333 406 476
#     4  12  26  49  81 108 159 203 262 343 396 488
#     4  12  27  48  80 114 154 210 273 325 416 485
#     4  12  25  44  71 110 154 204 261 323 395 476
#     4  12  27  48  76 112 164 211 266 337 402 492
#     4  12  26  42  76 108 158 200 256 336 384 498
#
# _framework density 24.896749
#
# number of rings (size 3 to 8) (size 9 to 14) (size 15 to 20)
#    0.000    0.533    4.000    2.800    3.733    2.133 
#    4.800    0.000    0.000    0.000    0.000    0.000 
#    0.000    0.000    0.000    0.000    0.000    0.000 
#
# Total GULP energy -335818.150216 kJ/mol
# GULP energy per Si atom -5596.969170 kJ/mol
# Density = 2.484008 g / cm^3
# Si number density = 24.896749 Si / 1000 Ang^3
#
#
#
# Elastic Constant Matrix: (Units=GPa)
#
#
# Indices 1 2 3 4 5 6 
#
# 1 109.7983 15.1583 24.4534 0.0000 0.0000 0.0000
# 2 15.1583 128.3740 20.2131 0.0000 0.0000 0.0000
# 3 24.4534 20.2131 60.1507 0.0000 0.0000 0.0000
# 4 0.0000 0.0000 0.0000 28.2446 0.0000 0.0000
# 5 0.0000 0.0000 0.0000 0.0000 35.9646 0.0000
# 6 0.0000 0.0000 0.0000 0.0000 0.0000 21.6685
#
#
#
# Elastic Compliance Matrix: (Units=1/GPa)
#
#
# Indices 1 2 3 4 5 6 
#
# 1 0.010054 -0.000574 -0.003895 0.000000 0.000000 0.000000
# 2 -0.000574 0.008258 -0.002542 0.000000 0.000000 0.000000
# 3 -0.003895 -0.002542 0.019062 0.000000 0.000000 0.000000
# 4 0.000000 0.000000 0.000000 0.035405 0.000000 0.000000
# 5 0.000000 0.000000 0.000000 0.000000 0.027805 0.000000
# 6 0.000000 0.000000 0.000000 0.000000 0.000000 0.046150
#
#
# Mechanical properties :
#
#
# Convention : Reuss Voigt Hill
#
# Bulk Modulus (GPa) = 42.81919 46.44138 44.63028
# Shear Modulus (GPa) = 29.66671 33.07541 31.37106
#
# Velocity S-wave (km/s) = 3.45569 3.64882 3.55356
# Velocity P-wave (km/s) = 5.75833 6.03705 5.89934
#
# Compressibility (1/GPa) = 0.02335401
#
# Stress axis : x y z
#
# Youngs Moduli (GPa) = 99.46086 121.09917 52.45970
#
# Poissons Ratio (x) = 0.06951 0.20430
# Poissons Ratio (y) = 0.05709 0.13333
# Poissons Ratio (z) = 0.38735 0.30778
#
# Static dielectric constant tensor:
#      x y z
#    x 1.928690 0.000000 0.000000 
#    y 0.000000 1.961020 0.000000 
#    z 0.000000 0.000000 2.012770 
# 
# From -- ./inp_files/8778.got.cif
#   From: 2010.05.17/outbox.cif.g08.bks.cpg/sg61_5_cif.got.tgz:8778.got - 2010.06.03 15:17:17.
