data_PCOD9460190
_publ_section_title
;
Structure prediction by ZEFSAII (Michael W. Deem and Ramdas Pophale) SiO2 
 PCOD9460190
Probable space group: P B C A
;
_chemical_formula_sum "Si O2"
_cell_formula_units_Z 48
_cell_length_a 9.370345
_cell_length_b 16.489557
_cell_length_c 13.786599
_cell_angle_alpha 90.000000
_cell_angle_beta 90.000000
_cell_angle_gamma 90.000000
_cell_volume 2130.206538
_symmetry_space_group_name_H-M "P B C A"
_symmetry_group_IT_number 61
_symmetry_cell_setting 'orthorhombic'
loop_
_space_group_symop_operation_xyz
x,y,z
1/2-x,-y,1/2+z
1/2+x,1/2-y,-z
-x,1/2+y,1/2-z
-x,-y,-z
1/2+x,y,1/2-z
1/2-x,1/2+y,z
x,1/2-y,1/2+z
loop_
_atom_site_type_symbol
_atom_site_label
_atom_site_fract_x
_atom_site_fract_y
_atom_site_fract_z
Si Si1 0.072876 0.855174 0.757658
Si Si2 0.451854 0.279783 0.964564
Si Si3 0.163522 0.140340 0.530133
Si Si4 0.836182 0.946051 0.671238
Si Si5 0.715269 0.887796 0.261407
Si Si6 0.049565 0.197371 0.834437
O O1 0.023967 0.823914 0.862998
O O2 0.235603 0.880505 0.773811
O O3 0.989284 0.933540 0.719823
O O4 0.026392 0.783861 0.684241
O O5 0.515777 0.189300 0.957276
O O6 0.288142 0.295439 0.997340
O O7 0.540993 0.319653 0.052125
O O8 0.157742 0.076946 0.441906
O O9 0.214394 0.103771 0.632183
O O10 0.775322 0.033966 0.694412
O O11 0.551425 0.865812 0.279491
O O12 0.794504 0.812670 0.209352
#
# Coordination Sequence:
#
# PCOD9460190 Si02
#       6
#     8   8   8   8   8   8
#     4  11  22  40  64  91 121 164 212 257 307 367
#     4  10  22  37  64  92 120 157 212 262 302 367
#     4  10  22  41  63  93 125 162 212 256 314 365
#     4  11  24  41  62  93 131 165 204 259 320 374
#     4  11  24  41  62  93 131 165 204 259 320 374
#     4  11  22  40  64  91 121 164 212 257 307 367
#
# _framework density 22.533024999999999
#
# number of rings (size 3 to 8) (size 9 to 14) (size 15 to 20)
#    0.000    1.333    3.333    2.000    4.667    1.333 
#    0.000   10.000    0.000    0.000    0.000    0.000 
#    0.000    0.000    0.000    0.000    0.000    0.000 
#
# Total GULP energy -268288.694575 kJ/mol
# GULP energy per Si atom -5589.347804 kJ/mol
# Density = 2.248174 g / cm^3
# Si number density = 22.533025 Si / 1000 Ang^3
#
#
#
# Elastic Constant Matrix: (Units=GPa)
#
#
# Indices 1 2 3 4 5 6 
#
# 1 39.9783 -4.4130 15.3420 0.0000 0.0000 0.0000
# 2 -4.4130 62.0713 -11.4168 0.0000 0.0000 0.0000
# 3 15.3420 -11.4168 75.8400 0.0000 0.0000 0.0000
# 4 0.0000 0.0000 0.0000 30.6897 0.0000 0.0000
# 5 0.0000 0.0000 0.0000 0.0000 23.6699 0.0000
# 6 0.0000 0.0000 0.0000 0.0000 0.0000 29.3753
#
#
#
# Elastic Compliance Matrix: (Units=1/GPa)
#
#
# Indices 1 2 3 4 5 6 
#
# 1 0.027173 0.000947 -0.005354 0.000000 0.000000 0.000000
# 2 0.000947 0.016602 0.002308 0.000000 0.000000 0.000000
# 3 -0.005354 0.002308 0.014616 0.000000 0.000000 0.000000
# 4 0.000000 0.000000 0.000000 0.032584 0.000000 0.000000
# 5 0.000000 0.000000 0.000000 0.000000 0.042248 0.000000
# 6 0.000000 0.000000 0.000000 0.000000 0.000000 0.034042
#
#
# Mechanical properties :
#
#
# Convention : Reuss Voigt Hill
#
# Bulk Modulus (GPa) = 18.45286 19.65711 19.05498
# Shear Modulus (GPa) = 26.38122 28.63881 27.51002
#
# Velocity S-wave (km/s) = 3.42538 3.56894 3.49789
# Velocity P-wave (km/s) = 4.88378 5.07205 4.97881
#
# Compressibility (1/GPa) = 0.05419215
#
# Stress axis : x y z
#
# Youngs Moduli (GPa) = 36.80142 60.23265 68.41724
#
# Poissons Ratio (x) = -0.05704 0.36633
# Poissons Ratio (y) = -0.03485 -0.15789
# Poissons Ratio (z) = 0.19705 -0.13900
#
# Static dielectric constant tensor:
#      x y z
#    x 1.833920 0.000000 0.000000 
#    y 0.000000 1.866900 0.000000 
#    z 0.000000 0.000000 1.799730 
# 
# From -- ./inp_files/7053.got.cif
#   From: 2010.05.17/outbox.cif.g08.bks.cpg/sg61_4_cif.got.tgz:7053.got - 2010.06.03 15:17:17.
