data_PCOD9460383
_publ_section_title
;
Structure prediction by ZEFSAII (Michael W. Deem and Ramdas Pophale) SiO2 
 PCOD9460383
Probable space group: P B C A
;
_chemical_formula_sum "Si O2"
_cell_formula_units_Z 56
_cell_length_a 16.182868
_cell_length_b 11.903441
_cell_length_c 11.410154
_cell_angle_alpha 90.000000
_cell_angle_beta 90.000000
_cell_angle_gamma 90.000000
_cell_volume 2197.958668
_symmetry_space_group_name_H-M "P B C A"
_symmetry_group_IT_number 61
_symmetry_cell_setting 'orthorhombic'
loop_
_space_group_symop_operation_xyz
x,y,z
1/2-x,-y,1/2+z
1/2+x,1/2-y,-z
-x,1/2+y,1/2-z
-x,-y,-z
1/2+x,y,1/2-z
1/2-x,1/2+y,z
x,1/2-y,1/2+z
loop_
_atom_site_type_symbol
_atom_site_label
_atom_site_fract_x
_atom_site_fract_y
_atom_site_fract_z
Si Si1 0.651688 0.987320 0.985698
Si Si2 0.579209 0.246194 0.917458
Si Si3 0.927288 0.254316 0.924678
Si Si4 0.799670 0.653849 0.604458
Si Si5 0.602242 0.065341 0.236467
Si Si6 0.536747 0.401632 0.229568
Si Si7 0.277993 0.376134 0.165200
O O1 0.731013 0.919228 0.040110
O O2 0.609734 0.051613 0.096576
O O3 0.594474 0.886516 0.933556
O O4 0.701167 0.070349 0.900289
O O5 0.606436 0.316857 0.802651
O O6 0.554250 0.125840 0.864659
O O7 0.491588 0.281781 0.974324
O O8 0.651722 0.268597 0.011657
O O9 0.839271 0.192076 0.918811
O O10 0.977950 0.201804 0.814733
O O11 0.878602 0.587923 0.658292
O O12 0.750561 0.695796 0.720810
O O13 0.516901 0.011813 0.279248
O O14 0.671879 0.982806 0.286322
#
# Coordination Sequence:
#
# PCOD9460383 Si02
#       7
#     8   8   8   8   8   8   8
#     4  11  22  45  67 106 144 180 234 303 352 423
#     4  11  22  45  73 100 139 198 232 295 359 424
#     4  10  24  43  69  99 146 187 232 292 363 425
#     4  10  24  40  69  99 139 177 241 280 355 433
#     4  10  22  42  69 105 141 180 241 285 353 438
#     4  10  23  43  66 102 136 183 240 284 350 428
#     4  10  23  42  68 105 139 182 228 300 356 417
#
# _framework density 25.478186000000001
#
# number of rings (size 3 to 8) (size 9 to 14) (size 15 to 20)
#    0.000    1.714    2.857    0.000    4.000    4.000 
#    5.143    1.429    0.000    0.000    0.000    0.000 
#    0.000    0.000    0.000    0.000    0.000    0.000 
#
# Total GULP energy -312895.451650 kJ/mol
# GULP energy per Si atom -5587.418779 kJ/mol
# Density = 2.542020 g / cm^3
# Si number density = 25.478186 Si / 1000 Ang^3
#
#
#
# Elastic Constant Matrix: (Units=GPa)
#
#
# Indices 1 2 3 4 5 6 
#
# 1 146.2191 15.9830 30.2142 0.0000 0.0000 0.0000
# 2 15.9830 70.6133 29.4513 0.0000 0.0000 0.0000
# 3 30.2142 29.4513 73.6163 0.0000 0.0000 0.0000
# 4 0.0000 0.0000 0.0000 13.5051 0.0000 0.0000
# 5 0.0000 0.0000 0.0000 0.0000 38.3483 0.0000
# 6 0.0000 0.0000 0.0000 0.0000 0.0000 85.0343
#
#
#
# Elastic Compliance Matrix: (Units=1/GPa)
#
#
# Indices 1 2 3 4 5 6 
#
# 1 0.007487 -0.000496 -0.002875 0.000000 0.000000 0.000000
# 2 -0.000496 0.017031 -0.006610 0.000000 0.000000 0.000000
# 3 -0.002875 -0.006610 0.017408 0.000000 0.000000 0.000000
# 4 0.000000 0.000000 0.000000 0.074046 0.000000 0.000000
# 5 0.000000 0.000000 0.000000 0.000000 0.026077 0.000000
# 6 0.000000 0.000000 0.000000 0.000000 0.000000 0.011760
#
#
# Mechanical properties :
#
#
# Convention : Reuss Voigt Hill
#
# Bulk Modulus (GPa) = 45.52595 49.08287 47.30441
# Shear Modulus (GPa) = 27.61035 41.69756 34.65396
#
# Velocity S-wave (km/s) = 3.29551 4.04988 3.69201
# Velocity P-wave (km/s) = 5.69104 6.41679 6.06478
#
# Compressibility (1/GPa) = 0.02196549
#
# Stress axis : x y z
#
# Youngs Moduli (GPa) = 133.56040 58.71751 57.44424
#
# Poissons Ratio (x) = 0.02911 0.16513
# Poissons Ratio (y) = 0.06621 0.37970
# Poissons Ratio (z) = 0.38394 0.38812
#
# Static dielectric constant tensor:
#      x y z
#    x 1.981070 0.000000 0.000000 
#    y 0.000000 2.101970 0.000000 
#    z 0.000000 0.000000 2.039980 
# 
# From -- ./inp_files/5793.got.cif
#   From: 2010.05.17/outbox.cif.g08.bks.cpg/sg61_3_cif.got.tgz:5793.got - 2010.06.03 15:17:17.
