data_PCOD9460952
_publ_section_title
;
Structure prediction by ZEFSAII (Michael W. Deem and Ramdas Pophale) SiO2 
 PCOD9460952
Probable space group: P B C A
;
_chemical_formula_sum "Si O2"
_cell_formula_units_Z 64
_cell_length_a 8.306290
_cell_length_b 29.497917
_cell_length_c 11.384593
_cell_angle_alpha 90.000000
_cell_angle_beta 90.000000
_cell_angle_gamma 90.000000
_cell_volume 2789.433088
_symmetry_space_group_name_H-M "P B C A"
_symmetry_group_IT_number 61
_symmetry_cell_setting 'orthorhombic'
loop_
_space_group_symop_operation_xyz
x,y,z
1/2-x,-y,1/2+z
1/2+x,1/2-y,-z
-x,1/2+y,1/2-z
-x,-y,-z
1/2+x,y,1/2-z
1/2-x,1/2+y,z
x,1/2-y,1/2+z
loop_
_atom_site_type_symbol
_atom_site_label
_atom_site_fract_x
_atom_site_fract_y
_atom_site_fract_z
Si Si1 0.810196 0.322504 0.845061
Si Si2 0.965926 0.439795 0.395528
Si Si3 0.341983 0.783089 0.877579
Si Si4 0.274935 0.870978 0.997432
Si Si5 0.820736 0.961285 0.899855
Si Si6 0.509517 0.865990 0.216401
Si Si7 0.815104 0.677960 0.589765
Si Si8 0.017642 0.913099 0.693113
O O1 0.709115 0.292147 0.756470
O O2 0.877967 0.367677 0.782096
O O3 0.969283 0.295949 0.889856
O O4 0.700856 0.337036 0.954966
O O5 0.130822 0.448525 0.466567
O O6 0.981660 0.416325 0.269596
O O7 0.870279 0.404004 0.475461
O O8 0.866941 0.486121 0.387822
O O9 0.304410 0.732142 0.911524
O O10 0.243718 0.820305 0.951675
O O11 0.372961 0.865101 0.118103
O O12 0.388788 0.895716 0.902146
O O13 0.639552 0.948669 0.866190
O O14 0.931812 0.934405 0.805654
O O15 0.465063 0.835517 0.329465
O O16 0.667628 0.846609 0.155509
#
# Coordination Sequence:
#
# PCOD9460952 Si02
#       8
#     8   8   8   8   8   8   8   8
#     4  11  24  44  68 100 134 183 224 289 351 401
#     4  11  26  45  69 102 141 183 232 286 360 413
#     4  11  25  42  70  98 137 176 238 284 338 412
#     4  11  25  46  68  97 143 185 227 286 353 413
#     4  11  25  43  72 106 132 181 239 290 342 433
#     4  12  25  47  67 101 144 185 225 290 355 420
#     4  12  26  44  71 100 141 184 236 287 346 421
#     4  11  22  45  70  98 139 177 234 285 351 412
#
# _framework density 22.943732000000001
#
# number of rings (size 3 to 8) (size 9 to 14) (size 15 to 20)
#    0.000    0.750    3.750    4.500    3.500    3.500 
#    2.250    0.000    0.000    0.000    0.000    0.000 
#    0.000    0.000    0.000    0.000    0.000    0.000 
#
# Total GULP energy -358417.515419 kJ/mol
# GULP energy per Si atom -5600.273678 kJ/mol
# Density = 2.289151 g / cm^3
# Si number density = 22.943732 Si / 1000 Ang^3
#
#
#
# Elastic Constant Matrix: (Units=GPa)
#
#
# Indices 1 2 3 4 5 6 
#
# 1 17.3856 1.3265 21.1113 0.0000 0.0000 0.0000
# 2 1.3265 125.7179 42.5678 0.0000 0.0000 0.0000
# 3 21.1113 42.5678 77.4937 0.0000 0.0000 0.0000
# 4 0.0000 0.0000 0.0000 31.5945 0.0000 0.0000
# 5 0.0000 0.0000 0.0000 0.0000 41.7973 0.0000
# 6 0.0000 0.0000 0.0000 0.0000 0.0000 21.8902
#
#
#
# Elastic Compliance Matrix: (Units=1/GPa)
#
#
# Indices 1 2 3 4 5 6 
#
# 1 0.094307 0.009464 -0.030890 0.000000 0.000000 0.000000
# 2 0.009464 0.010722 -0.008468 0.000000 0.000000 0.000000
# 3 -0.030890 -0.008468 0.025971 0.000000 0.000000 0.000000
# 4 0.000000 0.000000 0.000000 0.031651 0.000000 0.000000
# 5 0.000000 0.000000 0.000000 0.000000 0.023925 0.000000
# 6 0.000000 0.000000 0.000000 0.000000 0.000000 0.045683
#
#
# Mechanical properties :
#
#
# Convention : Reuss Voigt Hill
#
# Bulk Modulus (GPa) = 14.04267 38.95650 26.49959
# Shear Modulus (GPa) = 15.83367 29.42916 22.63142
#
# Velocity S-wave (km/s) = 2.62984 3.58532 3.14409
# Velocity P-wave (km/s) = 3.91857 5.84426 4.97547
#
# Compressibility (1/GPa) = 0.07121151
#
# Stress axis : x y z
#
# Youngs Moduli (GPa) = 10.60372 93.26950 38.50446
#
# Poissons Ratio (x) = -0.88273 1.18942
# Poissons Ratio (y) = -0.10036 0.32605
# Poissons Ratio (z) = 0.32755 0.78979
#
# Static dielectric constant tensor:
#      x y z
#    x 1.897400 0.000000 0.000000 
#    y 0.000000 1.839060 0.000000 
#    z 0.000000 0.000000 1.843780 
# 
# From -- ./inp_files/4954.got.cif
#   From: 2010.05.17/outbox.cif.g08.bks.cpg/sg61_3_cif.got.tgz:4954.got - 2010.06.03 15:17:17.
