data_PCOD9460008
_publ_section_title
;
Structure prediction by ZEFSAII (Michael W. Deem and Ramdas Pophale) SiO2 
 PCOD9460008
Probable space group: P B C A
;
_chemical_formula_sum "Si O2"
_cell_formula_units_Z 40
_cell_length_a 5.157548
_cell_length_b 11.373141
_cell_length_c 28.186938
_cell_angle_alpha 90.000000
_cell_angle_beta 90.000000
_cell_angle_gamma 90.000000
_cell_volume 1653.375897
_symmetry_space_group_name_H-M "P B C A"
_symmetry_group_IT_number 61
_symmetry_cell_setting 'orthorhombic'
loop_
_space_group_symop_operation_xyz
x,y,z
1/2-x,-y,1/2+z
1/2+x,1/2-y,-z
-x,1/2+y,1/2-z
-x,-y,-z
1/2+x,y,1/2-z
1/2-x,1/2+y,z
x,1/2-y,1/2+z
loop_
_atom_site_type_symbol
_atom_site_label
_atom_site_fract_x
_atom_site_fract_y
_atom_site_fract_z
Si Si1 0.752075 0.415901 0.031713
Si Si2 0.960668 0.873246 0.132764
Si Si3 0.041676 0.232725 0.149121
Si Si4 0.393505 0.961845 0.719263
Si Si5 0.612342 0.648510 0.051574
O O1 0.559835 0.411192 0.078047
O O2 0.840066 0.553850 0.037394
O O3 0.885897 0.288638 0.039665
O O4 0.611868 0.399317 0.981970
O O5 0.670930 0.836149 0.148782
O O6 0.069055 0.959278 0.172763
O O7 0.170171 0.768470 0.133640
O O8 0.928437 0.149208 0.107741
O O9 0.064971 0.169728 0.199401
O O10 0.116048 0.983166 0.742311
#
# Coordination Sequence:
#
# PCOD9460008 Si02
#       5
#     8   8   8   8   8
#     4  10  21  40  66 102 142 184 229 280 342 413
#     4  11  24  44  68  98 136 178 225 282 346 411
#     4  11  24  44  68  98 136 178 225 282 346 411
#     4  12  26  44  67  98 131 174 234 290 348 406
#     4  10  21  40  66 102 142 184 229 280 342 413
#
# _framework density 24.192924999999999
#
# number of rings (size 3 to 8) (size 9 to 14) (size 15 to 20)
#    0.000    1.200    2.000    3.600    0.000    5.600 
#    3.600    0.000    0.000    0.000    0.000    0.000 
#    0.000    0.000    0.000    0.000    0.000    0.000 
#
# Total GULP energy -223077.907890 kJ/mol
# GULP energy per Si atom -5576.947697 kJ/mol
# Density = 2.413786 g / cm^3
# Si number density = 24.192925 Si / 1000 Ang^3
#
#
#
# Elastic Constant Matrix: (Units=GPa)
#
#
# Indices 1 2 3 4 5 6 
#
# 1 70.1022 10.5511 9.0538 0.0000 0.0000 0.0000
# 2 10.5511 106.0698 20.3391 0.0000 0.0000 0.0000
# 3 9.0538 20.3391 37.2428 0.0000 0.0000 0.0000
# 4 0.0000 0.0000 0.0000 53.3047 0.0000 0.0000
# 5 0.0000 0.0000 0.0000 0.0000 3.4915 0.0000
# 6 0.0000 0.0000 0.0000 0.0000 0.0000 32.7220
#
#
#
# Elastic Compliance Matrix: (Units=1/GPa)
#
#
# Indices 1 2 3 4 5 6 
#
# 1 0.014799 -0.000874 -0.003121 0.000000 0.000000 0.000000
# 2 -0.000874 0.010582 -0.005567 0.000000 0.000000 0.000000
# 3 -0.003121 -0.005567 0.030650 0.000000 0.000000 0.000000
# 4 0.000000 0.000000 0.000000 0.018760 0.000000 0.000000
# 5 0.000000 0.000000 0.000000 0.000000 0.286409 0.000000
# 6 0.000000 0.000000 0.000000 0.000000 0.000000 0.030560
#
#
# Mechanical properties :
#
#
# Convention : Reuss Voigt Hill
#
# Bulk Modulus (GPa) = 27.09367 32.58920 29.84143
# Shear Modulus (GPa) = 11.81514 29.46837 20.64175
#
# Velocity S-wave (km/s) = 2.21231 3.49385 2.92415
# Velocity P-wave (km/s) = 4.21297 5.45672 4.87467
#
# Compressibility (1/GPa) = 0.03690899
#
# Stress axis : x y z
#
# Youngs Moduli (GPa) = 67.57024 94.49931 32.62692
#
# Poissons Ratio (x) = 0.08257 0.10181
# Poissons Ratio (y) = 0.05904 0.18162
# Poissons Ratio (z) = 0.21086 0.52605
#
# Static dielectric constant tensor:
#      x y z
#    x 2.040810 0.000000 0.000000 
#    y 0.000000 2.149130 0.000000 
#    z 0.000000 0.000000 1.859670 
# 
# From -- ./inp_files/217.got.cif
#   From: 2010.05.17/outbox.cif.g08.bks.cpg/sg61_1_cif.got.tgz:217.got - 2010.06.03 15:17:17.
