data_PCOD9460733
_publ_section_title
;
Structure prediction by ZEFSAII (Michael W. Deem and Ramdas Pophale) SiO2 
 PCOD9460733
Probable space group: P B C A
;
_chemical_formula_sum "Si O2"
_cell_formula_units_Z 36
_cell_length_a 8.748058
_cell_length_b 31.905519
_cell_length_c 4.765006
_cell_angle_alpha 90.000000
_cell_angle_beta 90.000000
_cell_angle_gamma 90.000000
_cell_volume 1329.967166
_symmetry_space_group_name_H-M "P B C A"
_symmetry_group_IT_number 61
_symmetry_cell_setting 'orthorhombic'
loop_
_space_group_symop_operation_xyz
x,y,z
1/2-x,-y,1/2+z
1/2+x,1/2-y,-z
-x,1/2+y,1/2-z
-x,-y,-z
1/2+x,y,1/2-z
1/2-x,1/2+y,z
x,1/2-y,1/2+z
loop_
_atom_site_type_symbol
_atom_site_label
_atom_site_fract_x
_atom_site_fract_y
_atom_site_fract_z
Si Si1 0.738382 0.436976 0.201925
Si Si2 0.978513 0.826247 0.499858
Si Si3 0.732128 0.223084 0.369920
Si Si4 0.500000 0.500000 0.500000
Si Si5 0.473954 0.118277 0.480684
O O1 0.636890 0.470182 0.372681
O O2 0.822188 0.403544 0.402466
O O3 0.615406 0.413564 0.007405
O O4 0.873182 0.462120 0.049843
O O5 0.091757 0.788260 0.577501
O O6 0.985134 0.841605 0.180487
O O7 0.828117 0.814497 0.676020
O O8 0.042563 0.866714 0.664942
O O9 0.688755 0.236032 0.685210
#
# Coordination Sequence:
#
# PCOD9460733 Si02
#       5
#     8   8   8   4   8
#     4  10  24  43  69 104 142 186 240 296 366 438
#     4  12  24  43  67  97 136 180 232 290 356 424
#     4  12  24  41  65  96 134 178 230 288 352 422
#     4  10  24  44  68 102 144 188 236 302 366 444
#     4  11  24  43  69 100 138 184 236 294 357 434
#
# _framework density 27.068339000000002
#
# number of rings (size 3 to 8) (size 9 to 14) (size 15 to 20)
#    0.000    0.889    0.000    6.667    0.000   10.667 
#    0.000    0.000    0.000    0.000    0.000    0.000 
#    0.000    0.000    0.000    0.000    0.000    0.000 
#
# Total GULP energy -200651.038741 kJ/mol
# GULP energy per Si atom -5573.639965 kJ/mol
# Density = 2.700673 g / cm^3
# Si number density = 27.068339 Si / 1000 Ang^3
#
#
#
# Elastic Constant Matrix: (Units=GPa)
#
#
# Indices 1 2 3 4 5 6 
#
# 1 96.5916 6.5926 1.0886 0.0000 0.0000 0.0000
# 2 6.5926 90.0802 14.8578 0.0000 0.0000 0.0000
# 3 1.0886 14.8578 121.2840 0.0000 0.0000 0.0000
# 4 0.0000 0.0000 0.0000 38.8516 0.0000 0.0000
# 5 0.0000 0.0000 0.0000 0.0000 20.8615 0.0000
# 6 0.0000 0.0000 0.0000 0.0000 0.0000 33.6417
#
#
#
# Elastic Compliance Matrix: (Units=1/GPa)
#
#
# Indices 1 2 3 4 5 6 
#
# 1 0.010405 -0.000761 0.000000 0.000000 0.000000 0.000000
# 2 -0.000761 0.011386 -0.001388 0.000000 0.000000 0.000000
# 3 0.000000 -0.001388 0.008415 0.000000 0.000000 0.000000
# 4 0.000000 0.000000 0.000000 0.025739 0.000000 0.000000
# 5 0.000000 0.000000 0.000000 0.000000 0.047935 0.000000
# 6 0.000000 0.000000 0.000000 0.000000 0.000000 0.029725
#
#
# Mechanical properties :
#
#
# Convention : Reuss Voigt Hill
#
# Bulk Modulus (GPa) = 38.59996 39.22595 38.91295
# Shear Modulus (GPa) = 34.12044 37.69875 35.90959
#
# Velocity S-wave (km/s) = 3.55425 3.73597 3.64624
# Velocity P-wave (km/s) = 5.57985 5.75612 5.66867
#
# Compressibility (1/GPa) = 0.02590676
#
# Stress axis : x y z
#
# Youngs Moduli (GPa) = 96.10914 87.82804 118.83334
#
# Poissons Ratio (x) = 0.06688 0.00001
# Poissons Ratio (y) = 0.07318 0.16494
# Poissons Ratio (z) = 0.00001 0.12190
#
# Static dielectric constant tensor:
#      x y z
#    x 2.093470 0.000000 0.000000 
#    y 0.000000 2.116200 0.000000 
#    z 0.000000 0.000000 2.053940 
# 
# From -- ./inp_files/98.got.cif
#   From: 2010.05.17/outbox.cif.g08.bks.cpg/sg61_1_cif.got.tgz:98.got - 2010.06.03 15:17:17.
