data_PCOD9460524
_publ_section_title
;
Structure prediction by ZEFSAII (Michael W. Deem and Ramdas Pophale) SiO2 
 PCOD9460524
Probable space group: P B C A
;
_chemical_formula_sum "Si O2"
_cell_formula_units_Z 56
_cell_length_a 9.914244
_cell_length_b 15.457219
_cell_length_c 14.137192
_cell_angle_alpha 90.000000
_cell_angle_beta 90.000000
_cell_angle_gamma 90.000000
_cell_volume 2166.477183
_symmetry_space_group_name_H-M "P B C A"
_symmetry_group_IT_number 61
_symmetry_cell_setting 'orthorhombic'
loop_
_space_group_symop_operation_xyz
x,y,z
1/2-x,-y,1/2+z
1/2+x,1/2-y,-z
-x,1/2+y,1/2-z
-x,-y,-z
1/2+x,y,1/2-z
1/2-x,1/2+y,z
x,1/2-y,1/2+z
loop_
_atom_site_type_symbol
_atom_site_label
_atom_site_fract_x
_atom_site_fract_y
_atom_site_fract_z
Si Si1 0.287938 0.062576 0.251120
Si Si2 0.972741 0.043487 0.795678
Si Si3 0.395640 0.810391 0.518357
Si Si4 0.343628 0.433001 0.534974
Si Si5 0.480190 0.155450 0.873330
Si Si6 0.356936 0.088702 0.506108
Si Si7 0.266923 0.772406 0.868228
O O1 0.358742 0.058007 0.147780
O O2 0.245926 0.158465 0.284579
O O3 0.399635 0.018241 0.318449
O O4 0.148186 0.010940 0.251581
O O5 0.032356 0.110306 0.720011
O O6 0.895719 0.086415 0.883172
O O7 0.247092 0.846368 0.530529
O O8 0.436207 0.737430 0.592069
O O9 0.490238 0.894219 0.531270
O O10 0.402052 0.768665 0.412692
O O11 0.463073 0.411556 0.461180
O O12 0.249515 0.510674 0.497125
O O13 0.333931 0.194148 0.846791
O O14 0.285258 0.171161 0.458672
#
# Coordination Sequence:
#
# PCOD9460524 Si02
#       7
#     8   8   8   8   8   8   8
#     4  11  27  44  69 101 134 178 232 275 341 410
#     4  11  27  44  68 102 132 182 228 277 338 409
#     4  10  23  40  68  98 132 184 224 286 353 395
#     4  10  23  43  67  97 136 181 228 282 345 414
#     4  10  24  42  67  99 136 175 228 289 342 405
#     4  10  23  42  70  93 135 181 227 279 343 420
#     4  10  24  42  67  99 134 176 227 286 345 404
#
# _framework density 25.848413999999998
#
# number of rings (size 3 to 8) (size 9 to 14) (size 15 to 20)
#    0.000    1.714    0.000    1.286   20.000    5.143 
#    0.000    0.000    0.000    0.000    0.000    0.000 
#    0.000    0.000    0.000    0.000    0.000    0.000 
#
# Total GULP energy -312937.848975 kJ/mol
# GULP energy per Si atom -5588.175875 kJ/mol
# Density = 2.578958 g / cm^3
# Si number density = 25.848414 Si / 1000 Ang^3
#
#
#
# Elastic Constant Matrix: (Units=GPa)
#
#
# Indices 1 2 3 4 5 6 
#
# 1 61.2265 -0.9754 -0.5653 0.0000 0.0000 0.0000
# 2 -0.9754 81.9853 15.7616 0.0000 0.0000 0.0000
# 3 -0.5653 15.7616 89.9213 0.0000 0.0000 0.0000
# 4 0.0000 0.0000 0.0000 51.7268 0.0000 0.0000
# 5 0.0000 0.0000 0.0000 0.0000 25.1843 0.0000
# 6 0.0000 0.0000 0.0000 0.0000 0.0000 20.9094
#
#
#
# Elastic Compliance Matrix: (Units=1/GPa)
#
#
# Indices 1 2 3 4 5 6 
#
# 1 0.016336 0.000181 0.000071 0.000000 0.000000 0.000000
# 2 0.000181 0.012625 -0.002212 0.000000 0.000000 0.000000
# 3 0.000071 -0.002212 0.011509 0.000000 0.000000 0.000000
# 4 0.000000 0.000000 0.000000 0.019332 0.000000 0.000000
# 5 0.000000 0.000000 0.000000 0.000000 0.039707 0.000000
# 6 0.000000 0.000000 0.000000 0.000000 0.000000 0.047825
#
#
# Mechanical properties :
#
#
# Convention : Reuss Voigt Hill
#
# Bulk Modulus (GPa) = 27.35982 29.06387 28.21184
# Shear Modulus (GPa) = 30.59259 34.15826 32.37542
#
# Velocity S-wave (km/s) = 3.44399 3.63917 3.54292
# Velocity P-wave (km/s) = 5.14028 5.37833 5.26065
#
# Compressibility (1/GPa) = 0.03654995
#
# Stress axis : x y z
#
# Youngs Moduli (GPa) = 61.21321 79.21004 86.88886
#
# Poissons Ratio (x) = -0.01431 -0.00617
# Poissons Ratio (y) = -0.01106 0.19218
# Poissons Ratio (z) = -0.00435 0.17519
#
# Static dielectric constant tensor:
#      x y z
#    x 2.022900 0.000000 0.000000 
#    y 0.000000 2.056090 0.000000 
#    z 0.000000 0.000000 2.128440 
# 
# From -- ./inp_files/7533.got.cif
#   From: 2010.05.17/outbox.cif.g08.bks.cpg/sg61_4_cif.got.tgz:7533.got - 2010.06.03 15:17:17.
