data_PCOD9460632
_publ_section_title
;
Structure prediction by ZEFSAII (Michael W. Deem and Ramdas Pophale) SiO2 
 PCOD9460632
Probable space group: P B C A
;
_chemical_formula_sum "Si O2"
_cell_formula_units_Z 32
_cell_length_a 12.661867
_cell_length_b 9.568517
_cell_length_c 11.757239
_cell_angle_alpha 90.000000
_cell_angle_beta 90.000000
_cell_angle_gamma 90.000000
_cell_volume 1424.451696
_symmetry_space_group_name_H-M "P B C A"
_symmetry_group_IT_number 61
_symmetry_cell_setting 'orthorhombic'
loop_
_space_group_symop_operation_xyz
x,y,z
1/2-x,-y,1/2+z
1/2+x,1/2-y,-z
-x,1/2+y,1/2-z
-x,-y,-z
1/2+x,y,1/2-z
1/2-x,1/2+y,z
x,1/2-y,1/2+z
loop_
_atom_site_type_symbol
_atom_site_label
_atom_site_fract_x
_atom_site_fract_y
_atom_site_fract_z
Si Si1 0.042854 0.387350 0.090933
Si Si2 0.240379 0.763082 0.143229
Si Si3 0.417814 0.377519 0.970904
Si Si4 0.817175 0.504405 0.733503
O O1 0.159047 0.316701 0.069811
O O2 0.067497 0.464242 0.210529
O O3 0.968980 0.252749 0.095734
O O4 0.000000 0.500000 0.000000
O O5 0.237707 0.602886 0.179004
O O6 0.255004 0.851412 0.258923
O O7 0.134911 0.809465 0.081114
O O8 0.330067 0.445495 0.890306
O O9 0.500000 0.500000 0.000000
#
# Coordination Sequence:
#
# PCOD9460632 Si02
#       4
#     8   8   8   8
#     4  10  23  45  71  99 143 182 241 283 350 420
#     4  10  23  45  66 104 136 187 232 285 352 411
#     4  12  25  44  74 101 141 187 235 288 355 426
#     4  10  25  43  67 103 141 181 233 294 343 419
#
# _framework density 22.464784999999999
#
# number of rings (size 3 to 8) (size 9 to 14) (size 15 to 20)
#    1.500    0.000    2.500    1.500    3.500    6.000 
#    4.500    0.000    0.000    0.000    0.000    0.000 
#    0.000    0.000    0.000    0.000    0.000    0.000 
#
# Total GULP energy -178419.355001 kJ/mol
# GULP energy per Si atom -5575.604844 kJ/mol
# Density = 2.241365 g / cm^3
# Si number density = 22.464785 Si / 1000 Ang^3
#
#
#
# Elastic Constant Matrix: (Units=GPa)
#
#
# Indices 1 2 3 4 5 6 
#
# 1 49.8868 7.3517 -4.4346 0.0000 0.0000 0.0000
# 2 7.3517 84.7741 -4.2136 0.0000 0.0000 0.0000
# 3 -4.4346 -4.2136 33.5966 0.0000 0.0000 0.0000
# 4 0.0000 0.0000 0.0000 24.4825 0.0000 0.0000
# 5 0.0000 0.0000 0.0000 0.0000 34.1863 0.0000
# 6 0.0000 0.0000 0.0000 0.0000 0.0000 44.6735
#
#
#
# Elastic Compliance Matrix: (Units=1/GPa)
#
#
# Indices 1 2 3 4 5 6 
#
# 1 0.020511 -0.001655 0.002500 0.000000 0.000000 0.000000
# 2 -0.001655 0.012004 0.001287 0.000000 0.000000 0.000000
# 3 0.002500 0.001287 0.030256 0.000000 0.000000 0.000000
# 4 0.000000 0.000000 0.000000 0.040845 0.000000 0.000000
# 5 0.000000 0.000000 0.000000 0.000000 0.029251 0.000000
# 6 0.000000 0.000000 0.000000 0.000000 0.000000 0.022385
#
#
# Mechanical properties :
#
#
# Convention : Reuss Voigt Hill
#
# Bulk Modulus (GPa) = 14.91732 18.40717 16.66224
# Shear Modulus (GPa) = 28.84617 31.97207 30.40912
#
# Velocity S-wave (km/s) = 3.58727 3.77664 3.68317
# Velocity P-wave (km/s) = 4.87983 5.21813 5.05181
#
# Compressibility (1/GPa) = 0.06703617
#
# Stress axis : x y z
#
# Youngs Moduli (GPa) = 48.75332 83.30903 33.05095
#
# Poissons Ratio (x) = 0.13784 -0.08262
# Poissons Ratio (y) = 0.08066 -0.04254
# Poissons Ratio (z) = -0.12188 -0.10722
#
# Static dielectric constant tensor:
#      x y z
#    x 1.853220 0.000000 0.000000 
#    y 0.000000 1.706490 0.000000 
#    z 0.000000 0.000000 1.843430 
# 
# From -- ./inp_files/4739.got.cif
#   From: 2010.05.17/outbox.cif.g08.bks.cpg/sg61_3_cif.got.tgz:4739.got - 2010.06.03 15:17:17.
