data_PCOD9460229
_publ_section_title
;
Structure prediction by ZEFSAII (Michael W. Deem and Ramdas Pophale) SiO2 
 PCOD9460229
Probable space group: P B C A
;
_chemical_formula_sum "Si O2"
_cell_formula_units_Z 36
_cell_length_a 9.054467
_cell_length_b 7.475927
_cell_length_c 17.920364
_cell_angle_alpha 90.000000
_cell_angle_beta 90.000000
_cell_angle_gamma 90.000000
_cell_volume 1213.039014
_symmetry_space_group_name_H-M "P B C A"
_symmetry_group_IT_number 61
_symmetry_cell_setting 'orthorhombic'
loop_
_space_group_symop_operation_xyz
x,y,z
1/2-x,-y,1/2+z
1/2+x,1/2-y,-z
-x,1/2+y,1/2-z
-x,-y,-z
1/2+x,y,1/2-z
1/2-x,1/2+y,z
x,1/2-y,1/2+z
loop_
_atom_site_type_symbol
_atom_site_label
_atom_site_fract_x
_atom_site_fract_y
_atom_site_fract_z
Si Si1 0.000000 0.000000 0.000000
Si Si2 0.784055 0.570566 0.636164
Si Si3 0.943327 0.222238 0.376683
Si Si4 0.776852 0.521601 0.301241
Si Si5 0.505555 0.233090 0.393693
O O1 0.101851 0.177841 0.036082
O O2 0.091769 0.839812 0.051705
O O3 0.786629 0.488750 0.718710
O O4 0.893073 0.446659 0.585948
O O5 0.619972 0.620354 0.611922
O O6 0.882115 0.753279 0.636253
O O7 0.867551 0.338426 0.310441
O O8 0.857657 0.037445 0.361391
O O9 0.901498 0.669882 0.322084
#
# Coordination Sequence:
#
# PCOD9460229 Si02
#       5
#     4   8   8   8   8
#     4   8  20  44  64  90 124 170 224 262 332 394
#     4  10  22  39  60  94 133 172 220 278 348 406
#     4  10  23  40  66  93 130 173 220 283 332 416
#     4  10  22  39  60  94 133 172 220 278 348 406
#     4  10  23  40  66  93 130 173 220 283 332 416
#
# _framework density 29.677529
#
# number of rings (size 3 to 8) (size 9 to 14) (size 15 to 20)
#    0.000    2.667    0.000    1.333    0.000   23.111 
#    0.000    0.000    0.000   21.333    0.000    0.000 
#    0.000    0.000    0.000    0.000    0.000    0.000 
#
# Total GULP energy -200436.816169 kJ/mol
# GULP energy per Si atom -5567.689338 kJ/mol
# Density = 2.960998 g / cm^3
# Si number density = 29.677529 Si / 1000 Ang^3
#
#
#
# Elastic Constant Matrix: (Units=GPa)
#
#
# Indices 1 2 3 4 5 6 
#
# 1 195.6555 4.3084 50.3738 0.0000 0.0000 0.0000
# 2 4.3084 30.9813 8.0850 0.0000 0.0000 0.0000
# 3 50.3738 8.0850 183.9769 0.0000 0.0000 0.0000
# 4 0.0000 0.0000 0.0000 44.9297 0.0000 0.0000
# 5 0.0000 0.0000 0.0000 0.0000 36.1916 0.0000
# 6 0.0000 0.0000 0.0000 0.0000 0.0000 66.1133
#
#
#
# Elastic Compliance Matrix: (Units=1/GPa)
#
#
# Indices 1 2 3 4 5 6 
#
# 1 0.005503 -0.000376 -0.001490 0.000000 0.000000 0.000000
# 2 -0.000376 0.032678 -0.001333 0.000000 0.000000 0.000000
# 3 -0.001490 -0.001333 0.005902 0.000000 0.000000 0.000000
# 4 0.000000 0.000000 0.000000 0.022257 0.000000 0.000000
# 5 0.000000 0.000000 0.000000 0.000000 0.027631 0.000000
# 6 0.000000 0.000000 0.000000 0.000000 0.000000 0.015126
#
#
# Mechanical properties :
#
#
# Convention : Reuss Voigt Hill
#
# Bulk Modulus (GPa) = 26.53673 59.57201 43.05437
# Shear Modulus (GPa) = 39.04530 52.63669 45.84099
#
# Velocity S-wave (km/s) = 3.63113 4.21601 3.93445
# Velocity P-wave (km/s) = 5.15182 6.61939 5.93117
#
# Compressibility (1/GPa) = 0.03768361
#
# Stress axis : x y z
#
# Youngs Moduli (GPa) = 181.71961 30.60189 169.43210
#
# Poissons Ratio (x) = 0.01152 0.25249
# Poissons Ratio (y) = 0.06840 0.22585
# Poissons Ratio (z) = 0.27080 0.04079
#
# Static dielectric constant tensor:
#      x y z
#    x 2.420780 0.000000 0.000000 
#    y 0.000000 2.799390 0.000000 
#    z 0.000000 0.000000 2.382830 
# 
# From -- ./inp_files/10037.got.cif
#   From: 2010.05.17/outbox.cif.g08.bks.cpg/sg61_6_cif.got.tgz:10037.got - 2010.06.03 15:17:17.
