data_PCOD9460936
_publ_section_title
;
Structure prediction by ZEFSAII (Michael W. Deem and Ramdas Pophale) SiO2 
 PCOD9460936
Probable space group: P B C A
;
_chemical_formula_sum "Si O2"
_cell_formula_units_Z 40
_cell_length_a 7.248323
_cell_length_b 17.390739
_cell_length_c 15.068658
_cell_angle_alpha 90.000000
_cell_angle_beta 90.000000
_cell_angle_gamma 90.000000
_cell_volume 1899.459997
_symmetry_space_group_name_H-M "P B C A"
_symmetry_group_IT_number 61
_symmetry_cell_setting 'orthorhombic'
loop_
_space_group_symop_operation_xyz
x,y,z
1/2-x,-y,1/2+z
1/2+x,1/2-y,-z
-x,1/2+y,1/2-z
-x,-y,-z
1/2+x,y,1/2-z
1/2-x,1/2+y,z
x,1/2-y,1/2+z
loop_
_atom_site_type_symbol
_atom_site_label
_atom_site_fract_x
_atom_site_fract_y
_atom_site_fract_z
Si Si1 0.954084 0.174001 0.062997
Si Si2 0.269786 0.473016 0.174170
Si Si3 0.868306 0.670820 0.924733
Si Si4 0.321757 0.480299 0.867201
Si Si5 0.820176 0.078929 0.474932
O O1 0.026223 0.252614 0.106380
O O2 0.855642 0.110952 0.125535
O O3 0.813569 0.190465 0.982307
O O4 0.137723 0.131419 0.028303
O O5 0.186881 0.390066 0.150877
O O6 0.274006 0.492864 0.277230
O O7 0.475782 0.480521 0.135691
O O8 0.158165 0.538502 0.120259
O O9 0.009960 0.627984 0.990588
O O10 0.221643 0.511692 0.954323
#
# Coordination Sequence:
#
# PCOD9460936 Si02
#       5
#     8   8   8   8   8
#     4  11  23  41  65  99 135 168 224 275 334 388
#     4  11  23  40  67  97 132 176 228 265 329 394
#     4  12  22  41  68  97 132 177 218 276 335 387
#     4  11  23  43  65 100 133 174 229 274 317 410
#     4  11  22  42  68  93 130 179 226 276 322 397
#
# _framework density 21.058616000000001
#
# number of rings (size 3 to 8) (size 9 to 14) (size 15 to 20)
#    0.000    0.800    6.000    3.000    2.800    0.000 
#    0.000   10.000    0.000    0.000    0.000    0.000 
#    0.000    0.000    0.000    0.000    0.000    0.000 
#
# Total GULP energy -223713.698620 kJ/mol
# GULP energy per Si atom -5592.842466 kJ/mol
# Density = 2.101069 g / cm^3
# Si number density = 21.058616 Si / 1000 Ang^3
#
#
#
# Elastic Constant Matrix: (Units=GPa)
#
#
# Indices 1 2 3 4 5 6 
#
# 1 68.4129 21.4042 -1.1304 0.0000 0.0000 0.0000
# 2 21.4042 138.5761 22.4815 0.0000 0.0000 0.0000
# 3 -1.1304 22.4815 75.6441 0.0000 0.0000 0.0000
# 4 0.0000 0.0000 0.0000 17.2992 0.0000 0.0000
# 5 0.0000 0.0000 0.0000 0.0000 12.6972 0.0000
# 6 0.0000 0.0000 0.0000 0.0000 0.0000 29.6532
#
#
#
# Elastic Compliance Matrix: (Units=1/GPa)
#
#
# Indices 1 2 3 4 5 6 
#
# 1 0.015429 -0.002543 0.000986 0.000000 0.000000 0.000000
# 2 -0.002543 0.008001 -0.002416 0.000000 0.000000 0.000000
# 3 0.000986 -0.002416 0.013953 0.000000 0.000000 0.000000
# 4 0.000000 0.000000 0.000000 0.057806 0.000000 0.000000
# 5 0.000000 0.000000 0.000000 0.000000 0.078758 0.000000
# 6 0.000000 0.000000 0.000000 0.000000 0.000000 0.033723
#
#
# Mechanical properties :
#
#
# Convention : Reuss Voigt Hill
#
# Bulk Modulus (GPa) = 33.97051 40.90484 37.43768
# Shear Modulus (GPa) = 22.18008 27.92177 25.05092
#
# Velocity S-wave (km/s) = 3.24891 3.64525 3.45277
# Velocity P-wave (km/s) = 5.49912 6.09783 5.80620
#
# Compressibility (1/GPa) = 0.02943730
#
# Stress axis : x y z
#
# Youngs Moduli (GPa) = 64.81257 124.98435 71.67153
#
# Poissons Ratio (x) = 0.31786 -0.07070
# Poissons Ratio (y) = 0.16483 0.17315
# Poissons Ratio (z) = -0.06393 0.30195
#
# Static dielectric constant tensor:
#      x y z
#    x 1.806290 0.000000 0.000000 
#    y 0.000000 1.770570 0.000000 
#    z 0.000000 0.000000 1.715910 
# 
# From -- ./inp_files/3356.got.cif
#   From: 2010.05.17/outbox.cif.g08.bks.cpg/sg61_2_cif.got.tgz:3356.got - 2010.06.03 15:17:17.
