data_PCOD9460830
_publ_section_title
;
Structure prediction by ZEFSAII (Michael W. Deem and Ramdas Pophale) SiO2 
 PCOD9460830
Probable space group: P B C A
;
_chemical_formula_sum "Si O2"
_cell_formula_units_Z 40
_cell_length_a 18.435951
_cell_length_b 9.902926
_cell_length_c 9.896686
_cell_angle_alpha 90.000000
_cell_angle_beta 90.000000
_cell_angle_gamma 90.000000
_cell_volume 1806.836563
_symmetry_space_group_name_H-M "P B C A"
_symmetry_group_IT_number 61
_symmetry_cell_setting 'orthorhombic'
loop_
_space_group_symop_operation_xyz
x,y,z
1/2-x,-y,1/2+z
1/2+x,1/2-y,-z
-x,1/2+y,1/2-z
-x,-y,-z
1/2+x,y,1/2-z
1/2-x,1/2+y,z
x,1/2-y,1/2+z
loop_
_atom_site_type_symbol
_atom_site_label
_atom_site_fract_x
_atom_site_fract_y
_atom_site_fract_z
Si Si1 0.716384 0.730379 0.674179
Si Si2 0.419835 0.955573 0.161868
Si Si3 0.590759 0.543489 0.634236
Si Si4 0.673463 0.501959 0.079661
Si Si5 0.346284 0.667510 0.175466
O O1 0.638895 0.662387 0.697911
O O2 0.766469 0.606643 0.626357
O O3 0.761877 0.800829 0.794145
O O4 0.707186 0.850269 0.566127
O O5 0.506442 0.945874 0.169641
O O6 0.384579 0.010585 0.299244
O O7 0.386367 0.806443 0.143636
O O8 0.401404 0.041860 0.028302
O O9 0.620961 0.401750 0.691046
O O10 0.643136 0.439811 0.943067
#
# Coordination Sequence:
#
# PCOD9460830 Si02
#       5
#     8   8   8   8   8
#     4  11  25  43  70 106 137 184 230 292 360 418
#     4  10  25  48  68 100 144 189 232 292 356 425
#     4  11  25  46  72  99 145 186 236 293 358 433
#     4  11  26  43  71 102 142 179 238 292 354 421
#     4  11  25  46  70 105 138 180 239 297 351 427
#
# _framework density 22.13814
#
# number of rings (size 3 to 8) (size 9 to 14) (size 15 to 20)
#    0.000    1.200    2.000    2.400    8.400    0.800 
#    3.600    0.000    0.000    0.000    0.000    0.000 
#    0.000    0.000    0.000    0.000    0.000    0.000 
#
# Total GULP energy -223745.881143 kJ/mol
# GULP energy per Si atom -5593.647029 kJ/mol
# Density = 2.208775 g / cm^3
# Si number density = 22.138140 Si / 1000 Ang^3
#
#
#
# Elastic Constant Matrix: (Units=GPa)
#
#
# Indices 1 2 3 4 5 6 
#
# 1 128.9819 31.6971 58.8034 0.0000 0.0000 0.0000
# 2 31.6971 92.9831 7.4032 0.0000 0.0000 0.0000
# 3 58.8034 7.4032 91.2050 0.0000 0.0000 0.0000
# 4 0.0000 0.0000 0.0000 26.6660 0.0000 0.0000
# 5 0.0000 0.0000 0.0000 0.0000 22.5266 0.0000
# 6 0.0000 0.0000 0.0000 0.0000 0.0000 28.8396
#
#
#
# Elastic Compliance Matrix: (Units=1/GPa)
#
#
# Indices 1 2 3 4 5 6 
#
# 1 0.012016 -0.003502 -0.007463 0.000000 0.000000 0.000000
# 2 -0.003502 0.011845 0.001296 0.000000 0.000000 0.000000
# 3 -0.007463 0.001296 0.015671 0.000000 0.000000 0.000000
# 4 0.000000 0.000000 0.000000 0.037501 0.000000 0.000000
# 5 0.000000 0.000000 0.000000 0.000000 0.044392 0.000000
# 6 0.000000 0.000000 0.000000 0.000000 0.000000 0.034674
#
#
# Mechanical properties :
#
#
# Convention : Reuss Voigt Hill
#
# Bulk Modulus (GPa) = 49.51746 56.55303 53.03525
# Shear Modulus (GPa) = 27.44719 29.95754 28.70237
#
# Velocity S-wave (km/s) = 3.52492 3.68259 3.60462
# Velocity P-wave (km/s) = 6.24362 6.60931 6.42906
#
# Compressibility (1/GPa) = 0.02019490
#
# Stress axis : x y z
#
# Youngs Moduli (GPa) = 83.22226 84.42230 63.81319
#
# Poissons Ratio (x) = 0.29564 0.47623
# Poissons Ratio (y) = 0.29144 -0.08272
# Poissons Ratio (z) = 0.62108 -0.10944
#
# Static dielectric constant tensor:
#      x y z
#    x 1.790880 0.000000 0.000000 
#    y 0.000000 1.787300 0.000000 
#    z 0.000000 0.000000 1.823040 
# 
# From -- ./inp_files/2110.got.cif
#   From: 2010.05.17/outbox.cif.g08.bks.cpg/sg61_2_cif.got.tgz:2110.got - 2010.06.03 15:17:17.
