data_PCOD9460507
_publ_section_title
;
Structure prediction by ZEFSAII (Michael W. Deem and Ramdas Pophale) SiO2 
 PCOD9460507
Probable space group: P B C A
;
_chemical_formula_sum "Si O2"
_cell_formula_units_Z 32
_cell_length_a 14.173333
_cell_length_b 10.121720
_cell_length_c 9.371346
_cell_angle_alpha 90.000000
_cell_angle_beta 90.000000
_cell_angle_gamma 90.000000
_cell_volume 1344.399316
_symmetry_space_group_name_H-M "P B C A"
_symmetry_group_IT_number 61
_symmetry_cell_setting 'orthorhombic'
loop_
_space_group_symop_operation_xyz
x,y,z
1/2-x,-y,1/2+z
1/2+x,1/2-y,-z
-x,1/2+y,1/2-z
-x,-y,-z
1/2+x,y,1/2-z
1/2-x,1/2+y,z
x,1/2-y,1/2+z
loop_
_atom_site_type_symbol
_atom_site_label
_atom_site_fract_x
_atom_site_fract_y
_atom_site_fract_z
Si Si1 0.446332 0.013612 0.694129
Si Si2 0.821501 0.955890 0.555725
Si Si3 0.086163 0.182715 0.945247
Si Si4 0.157060 0.523709 0.254578
O O1 0.378067 0.038412 0.825233
O O2 0.402616 0.911426 0.581981
O O3 0.545714 0.945614 0.740641
O O4 0.481988 0.144936 0.613181
O O5 0.889245 0.831474 0.524254
O O6 0.726044 0.907305 0.632917
O O7 0.807468 0.027373 0.406094
O O8 0.153644 0.125982 0.820120
#
# Coordination Sequence:
#
# PCOD9460507 Si02
#       4
#     8   8   8   8
#     4   9  21  44  62  96 135 172 228 269 322 405
#     4  12  21  41  68  99 137 178 220 278 339 384
#     4   9  21  42  67  90 135 174 216 277 328 394
#     4  10  23  38  64  99 133 170 224 279 320 413
#
# _framework density 23.802451000000001
#
# number of rings (size 3 to 8) (size 9 to 14) (size 15 to 20)
#    1.500    0.500    0.000    3.750    0.000    0.000 
#    4.500    2.500    0.000    0.000    0.000    0.000 
#    0.000    0.000    0.000    0.000    0.000    0.000 
#
# Total GULP energy -178456.108070 kJ/mol
# GULP energy per Si atom -5576.753377 kJ/mol
# Density = 2.374828 g / cm^3
# Si number density = 23.802451 Si / 1000 Ang^3
#
#
#
# Elastic Constant Matrix: (Units=GPa)
#
#
# Indices 1 2 3 4 5 6 
#
# 1 110.0719 -8.4898 46.9530 0.0000 0.0000 0.0000
# 2 -8.4898 28.8198 -12.2775 0.0000 0.0000 0.0000
# 3 46.9530 -12.2775 170.4607 0.0000 0.0000 0.0000
# 4 0.0000 0.0000 0.0000 16.8713 0.0000 0.0000
# 5 0.0000 0.0000 0.0000 0.0000 33.1263 0.0000
# 6 0.0000 0.0000 0.0000 0.0000 0.0000 16.1241
#
#
#
# Elastic Compliance Matrix: (Units=1/GPa)
#
#
# Indices 1 2 3 4 5 6 
#
# 1 0.010394 0.001901 -0.002726 0.000000 0.000000 0.000000
# 2 0.001901 0.036144 0.002080 0.000000 0.000000 0.000000
# 3 -0.002726 0.002080 0.006767 0.000000 0.000000 0.000000
# 4 0.000000 0.000000 0.000000 0.059272 0.000000 0.000000
# 5 0.000000 0.000000 0.000000 0.000000 0.030188 0.000000
# 6 0.000000 0.000000 0.000000 0.000000 0.000000 0.062019
#
#
# Mechanical properties :
#
#
# Convention : Reuss Voigt Hill
#
# Bulk Modulus (GPa) = 17.91654 40.19153 29.05404
# Shear Modulus (GPa) = 22.63662 32.10212 27.36937
#
# Velocity S-wave (km/s) = 3.08721 3.67643 3.39463
# Velocity P-wave (km/s) = 4.50015 5.91132 5.25333
#
# Compressibility (1/GPa) = 0.05581434
#
# Stress axis : x y z
#
# Youngs Moduli (GPa) = 96.20482 27.66686 147.77177
#
# Poissons Ratio (x) = -0.05258 0.40286
# Poissons Ratio (y) = -0.18285 -0.30734
# Poissons Ratio (z) = 0.26228 -0.05754
#
# Static dielectric constant tensor:
#      x y z
#    x 1.979060 0.000000 0.000000 
#    y 0.000000 1.871470 0.000000 
#    z 0.000000 0.000000 1.913650 
# 
# From -- ./inp_files/2539.got.cif
#   From: 2010.05.17/outbox.cif.g08.bks.cpg/sg61_2_cif.got.tgz:2539.got - 2010.06.03 15:17:17.
