data_PCOD9460161
_publ_section_title
;
Structure prediction by ZEFSAII (Michael W. Deem and Ramdas Pophale) SiO2 
 PCOD9460161
Probable space group: P B C A
;
_chemical_formula_sum "Si O2"
_cell_formula_units_Z 40
_cell_length_a 16.329913
_cell_length_b 9.911457
_cell_length_c 9.205990
_cell_angle_alpha 90.000000
_cell_angle_beta 90.000000
_cell_angle_gamma 90.000000
_cell_volume 1490.019222
_symmetry_space_group_name_H-M "P B C A"
_symmetry_group_IT_number 61
_symmetry_cell_setting 'orthorhombic'
loop_
_space_group_symop_operation_xyz
x,y,z
1/2-x,-y,1/2+z
1/2+x,1/2-y,-z
-x,1/2+y,1/2-z
-x,-y,-z
1/2+x,y,1/2-z
1/2-x,1/2+y,z
x,1/2-y,1/2+z
loop_
_atom_site_type_symbol
_atom_site_label
_atom_site_fract_x
_atom_site_fract_y
_atom_site_fract_z
Si Si1 0.765305 0.028430 0.743728
Si Si2 0.228523 0.165673 0.489948
Si Si3 0.976985 0.100360 0.286599
Si Si4 0.886707 0.198655 0.570530
Si Si5 0.395159 0.682187 0.725252
O O1 0.752633 0.032388 0.914996
O O2 0.848185 0.096976 0.688040
O O3 0.684931 0.116855 0.695358
O O4 0.765482 0.882658 0.674208
O O5 0.306392 0.256555 0.517927
O O6 0.143265 0.203906 0.564098
O O7 0.943969 0.134779 0.447891
O O8 0.925843 0.176956 0.158766
O O9 0.062715 0.179300 0.271977
O O10 0.961962 0.939751 0.268562
#
# Coordination Sequence:
#
# PCOD9460161 Si02
#       5
#     8   8   8   8   8
#     4  10  21  44  73 104 134 194 250 297 344 432
#     4  10  21  44  73 104 134 194 250 297 344 432
#     4  12  25  46  70 102 152 183 234 306 374 429
#     4  12  22  44  72 102 142 192 244 304 354 430
#     4  10  25  46  70 108 140 191 234 300 366 429
#
# _framework density 26.845291
#
# number of rings (size 3 to 8) (size 9 to 14) (size 15 to 20)
#    1.200    0.000    6.000    0.000    0.000    3.200 
#    7.200    0.000    0.000    0.000    0.000    0.000 
#    0.000    0.000    0.000    0.000    0.000    0.000 
#
# Total GULP energy -223608.467037 kJ/mol
# GULP energy per Si atom -5590.211676 kJ/mol
# Density = 2.678419 g / cm^3
# Si number density = 26.845291 Si / 1000 Ang^3
#
#
#
# Elastic Constant Matrix: (Units=GPa)
#
#
# Indices 1 2 3 4 5 6 
#
# 1 162.0041 51.2853 33.4809 0.0000 0.0000 0.0000
# 2 51.2853 127.7180 14.3222 0.0000 0.0000 0.0000
# 3 33.4809 14.3222 81.1239 0.0000 0.0000 0.0000
# 4 0.0000 0.0000 0.0000 34.9280 0.0000 0.0000
# 5 0.0000 0.0000 0.0000 0.0000 47.8656 0.0000
# 6 0.0000 0.0000 0.0000 0.0000 0.0000 44.0205
#
#
#
# Elastic Compliance Matrix: (Units=1/GPa)
#
#
# Indices 1 2 3 4 5 6 
#
# 1 0.007591 -0.002751 -0.002647 0.000000 0.000000 0.000000
# 2 -0.002751 0.008985 -0.000451 0.000000 0.000000 0.000000
# 3 -0.002647 -0.000451 0.013499 0.000000 0.000000 0.000000
# 4 0.000000 0.000000 0.000000 0.028630 0.000000 0.000000
# 5 0.000000 0.000000 0.000000 0.000000 0.020892 0.000000
# 6 0.000000 0.000000 0.000000 0.000000 0.000000 0.022717
#
#
# Mechanical properties :
#
#
# Convention : Reuss Voigt Hill
#
# Bulk Modulus (GPa) = 54.41750 63.22475 58.82112
# Shear Modulus (GPa) = 41.61911 43.47999 42.54955
#
# Velocity S-wave (km/s) = 3.94170 4.02885 3.98551
# Velocity P-wave (km/s) = 6.40552 6.72643 6.56794
#
# Compressibility (1/GPa) = 0.01837644
#
# Stress axis : x y z
#
# Youngs Moduli (GPa) = 131.74038 111.29591 74.08020
#
# Poissons Ratio (x) = 0.30620 0.19609
# Poissons Ratio (y) = 0.36245 0.03340
# Poissons Ratio (z) = 0.34872 0.05018
#
# Static dielectric constant tensor:
#      x y z
#    x 2.151130 0.000000 0.000000 
#    y 0.000000 2.093800 0.000000 
#    z 0.000000 0.000000 2.147820 
# 
# From -- ./inp_files/6074.got.cif
#   From: 2010.05.17/outbox.cif.g08.bks.cpg/sg61_4_cif.got.tgz:6074.got - 2010.06.03 15:17:17.
