data_PCOD9460241
_publ_section_title
;
Structure prediction by ZEFSAII (Michael W. Deem and Ramdas Pophale) SiO2 
 PCOD9460241
Probable space group: P B C A
;
_chemical_formula_sum "Si O2"
_cell_formula_units_Z 56
_cell_length_a 13.828980
_cell_length_b 16.279447
_cell_length_c 11.644900
_cell_angle_alpha 90.000000
_cell_angle_beta 90.000000
_cell_angle_gamma 90.000000
_cell_volume 2621.594759
_symmetry_space_group_name_H-M "P B C A"
_symmetry_group_IT_number 61
_symmetry_cell_setting 'orthorhombic'
loop_
_space_group_symop_operation_xyz
x,y,z
1/2-x,-y,1/2+z
1/2+x,1/2-y,-z
-x,1/2+y,1/2-z
-x,-y,-z
1/2+x,y,1/2-z
1/2-x,1/2+y,z
x,1/2-y,1/2+z
loop_
_atom_site_type_symbol
_atom_site_label
_atom_site_fract_x
_atom_site_fract_y
_atom_site_fract_z
Si Si1 0.194323 0.904124 0.796238
Si Si2 0.420819 0.776072 0.325612
Si Si3 0.007220 0.916894 0.890835
Si Si4 0.172510 0.319613 0.619099
Si Si5 0.206067 0.090247 0.729698
Si Si6 0.329810 0.664234 0.496491
Si Si7 0.424869 0.084132 0.644453
O O1 0.086096 0.870230 0.813302
O O2 0.246624 0.870743 0.683331
O O3 0.264273 0.878648 0.901194
O O4 0.187115 0.001932 0.783888
O O5 0.397985 0.723114 0.212998
O O6 0.329158 0.839367 0.317217
O O7 0.416923 0.710722 0.429862
O O8 0.512152 0.835935 0.325469
O O9 0.907781 0.877512 0.937876
O O10 0.070480 0.929065 0.006451
O O11 0.973516 0.997490 0.820355
O O12 0.220385 0.245554 0.549949
O O13 0.151613 0.107163 0.607127
O O14 0.318579 0.093468 0.695121
#
# Coordination Sequence:
#
# PCOD9460241 Si02
#       7
#     8   8   8   8   8   8   8
#     4  11  22  39  65  96 127 172 222 269 326 391
#     4  10  22  39  64  92 135 166 212 273 331 377
#     4  11  21  38  65  93 122 172 222 262 322 393
#     4  10  22  39  64  92 135 166 212 273 331 377
#     4  11  22  39  65  96 127 172 222 269 326 391
#     4  10  22  40  58  95 131 166 208 271 328 376
#     4  11  21  38  65  93 122 172 222 262 322 393
#
# _framework density 21.361042999999999
#
# number of rings (size 3 to 8) (size 9 to 14) (size 15 to 20)
#    0.000    1.429    5.714    0.000    0.000    4.571 
#    0.000    0.000    0.000   13.714    0.000    0.000 
#    0.000    0.000    0.000    0.000    0.000    0.000 
#
# Total GULP energy -311916.982216 kJ/mol
# GULP energy per Si atom -5569.946111 kJ/mol
# Density = 2.131242 g / cm^3
# Si number density = 21.361043 Si / 1000 Ang^3
#
#
#
# Elastic Constant Matrix: (Units=GPa)
#
#
# Indices 1 2 3 4 5 6 
#
# 1 95.6492 18.2727 13.1843 0.0000 0.0000 0.0000
# 2 18.2727 72.4353 16.1765 0.0000 0.0000 0.0000
# 3 13.1843 16.1765 53.9869 0.0000 0.0000 0.0000
# 4 0.0000 0.0000 0.0000 40.3568 0.0000 0.0000
# 5 0.0000 0.0000 0.0000 0.0000 20.9317 0.0000
# 6 0.0000 0.0000 0.0000 0.0000 0.0000 30.1835
#
#
#
# Elastic Compliance Matrix: (Units=1/GPa)
#
#
# Indices 1 2 3 4 5 6 
#
# 1 0.011186 -0.002370 -0.002022 0.000000 0.000000 0.000000
# 2 -0.002370 0.015298 -0.004005 0.000000 0.000000 0.000000
# 3 -0.002022 -0.004005 0.020217 0.000000 0.000000 0.000000
# 4 0.000000 0.000000 0.000000 0.024779 0.000000 0.000000
# 5 0.000000 0.000000 0.000000 0.000000 0.047774 0.000000
# 6 0.000000 0.000000 0.000000 0.000000 0.000000 0.033131
#
#
# Mechanical properties :
#
#
# Convention : Reuss Voigt Hill
#
# Bulk Modulus (GPa) = 33.43692 35.25981 34.34836
# Shear Modulus (GPa) = 27.90992 29.92359 28.91676
#
# Velocity S-wave (km/s) = 3.61859 3.74685 3.68328
# Velocity P-wave (km/s) = 5.75726 5.93809 5.84838
#
# Compressibility (1/GPa) = 0.02990706
#
# Stress axis : x y z
#
# Youngs Moduli (GPa) = 89.39449 65.36897 49.46397
#
# Poissons Ratio (x) = 0.15495 0.10000
# Poissons Ratio (y) = 0.21190 0.19810
# Poissons Ratio (z) = 0.18072 0.26180
#
# Static dielectric constant tensor:
#      x y z
#    x 1.775090 0.000000 0.000000 
#    y 0.000000 1.830060 0.000000 
#    z 0.000000 0.000000 1.860470 
# 
# From -- ./inp_files/5828.got.cif
#   From: 2010.05.17/outbox.cif.g08.bks.cpg/sg61_3_cif.got.tgz:5828.got - 2010.06.03 15:17:17.
