data_PCOD9460197
_publ_section_title
;
Structure prediction by ZEFSAII (Michael W. Deem and Ramdas Pophale) SiO2 
 PCOD9460197
Probable space group: P B C A
;
_chemical_formula_sum "Si O2"
_cell_formula_units_Z 48
_cell_length_a 4.881800
_cell_length_b 18.055561
_cell_length_c 22.325151
_cell_angle_alpha 90.000000
_cell_angle_beta 90.000000
_cell_angle_gamma 90.000000
_cell_volume 1967.820021
_symmetry_space_group_name_H-M "P B C A"
_symmetry_group_IT_number 61
_symmetry_cell_setting 'orthorhombic'
loop_
_space_group_symop_operation_xyz
x,y,z
1/2-x,-y,1/2+z
1/2+x,1/2-y,-z
-x,1/2+y,1/2-z
-x,-y,-z
1/2+x,y,1/2-z
1/2-x,1/2+y,z
x,1/2-y,1/2+z
loop_
_atom_site_type_symbol
_atom_site_label
_atom_site_fract_x
_atom_site_fract_y
_atom_site_fract_z
Si Si1 0.548532 0.558506 0.094832
Si Si2 0.284865 0.402895 0.096935
Si Si3 0.424153 0.797330 0.652112
Si Si4 0.980804 0.154727 0.714626
Si Si5 0.450327 0.392754 0.520096
Si Si6 0.073033 0.249991 0.420007
O O1 0.465270 0.475323 0.108348
O O2 0.485901 0.615812 0.148795
O O3 0.852766 0.572736 0.071348
O O4 0.352138 0.583956 0.039401
O O5 0.111248 0.380041 0.155325
O O6 0.480171 0.334470 0.077219
O O7 0.072085 0.416758 0.042879
O O8 0.499230 0.743675 0.706125
O O9 0.615053 0.763840 0.598535
O O10 0.110851 0.783013 0.634575
O O11 0.172030 0.134031 0.770690
O O12 0.486028 0.303888 0.526159
#
# Coordination Sequence:
#
# PCOD9460197 Si02
#       6
#     8   8   8   8   8   8
#     4  10  22  39  61  93 127 159 196 243 309 381
#     4  11  23  39  64  92 125 162 205 259 303 352
#     4   9  19  40  60  81 115 154 194 243 300 360
#     4  11  24  41  60  84 113 155 209 259 300 345
#     4  10  22  38  59  92 132 165 194 233 306 387
#     4   9  20  35  58  88 118 155 196 237 291 363
#
# _framework density 24.392475999999998
#
# number of rings (size 3 to 8) (size 9 to 14) (size 15 to 20)
#    0.000    2.000    0.000    3.000    0.000   14.667 
#    0.000    1.667    0.000    0.000    0.000    0.000 
#    0.000    0.000    0.000    0.000    0.000    0.000 
#
# Total GULP energy -268846.388231 kJ/mol
# GULP energy per Si atom -5600.966421 kJ/mol
# Density = 2.433696 g / cm^3
# Si number density = 24.392476 Si / 1000 Ang^3
#
#
#
# Elastic Constant Matrix: (Units=GPa)
#
#
# Indices 1 2 3 4 5 6 
#
# 1 81.1881 13.6451 4.6673 0.0000 0.0000 0.0000
# 2 13.6451 160.6177 9.7037 0.0000 0.0000 0.0000
# 3 4.6673 9.7037 46.2674 0.0000 0.0000 0.0000
# 4 0.0000 0.0000 0.0000 25.9017 0.0000 0.0000
# 5 0.0000 0.0000 0.0000 0.0000 19.2529 0.0000
# 6 0.0000 0.0000 0.0000 0.0000 0.0000 37.4890
#
#
#
# Elastic Compliance Matrix: (Units=1/GPa)
#
#
# Indices 1 2 3 4 5 6 
#
# 1 0.012546 -0.001002 -0.001055 0.000000 0.000000 0.000000
# 2 -0.001002 0.006386 -0.001238 0.000000 0.000000 0.000000
# 3 -0.001055 -0.001238 0.021980 0.000000 0.000000 0.000000
# 4 0.000000 0.000000 0.000000 0.038607 0.000000 0.000000
# 5 0.000000 0.000000 0.000000 0.000000 0.051940 0.000000
# 6 0.000000 0.000000 0.000000 0.000000 0.000000 0.026675
#
#
# Mechanical properties :
#
#
# Convention : Reuss Voigt Hill
#
# Bulk Modulus (GPa) = 29.13736 38.23395 33.68565
# Shear Modulus (GPa) = 28.38238 33.86585 31.12412
#
# Velocity S-wave (km/s) = 3.41482 3.73013 3.57595
# Velocity P-wave (km/s) = 5.24587 5.85323 5.55785
#
# Compressibility (1/GPa) = 0.03432020
#
# Stress axis : x y z
#
# Youngs Moduli (GPa) = 79.70561 156.59496 45.49658
#
# Poissons Ratio (x) = 0.15692 0.04802
# Poissons Ratio (y) = 0.07987 0.05634
# Poissons Ratio (z) = 0.08413 0.19390
#
# Static dielectric constant tensor:
#      x y z
#    x 1.900870 0.000000 0.000000 
#    y 0.000000 1.989250 0.000000 
#    z 0.000000 0.000000 1.929910 
# 
# From -- ./inp_files/11251.got.cif
#   From: 2010.05.17/outbox.cif.g08.bks.cpg/sg61_6_cif.got.tgz:11251.got - 2010.06.03 15:17:17.
