data_PCOD9460193
_publ_section_title
;
Structure prediction by ZEFSAII (Michael W. Deem and Ramdas Pophale) SiO2 
 PCOD9460193
Probable space group: P B C A
;
_chemical_formula_sum "Si O2"
_cell_formula_units_Z 64
_cell_length_a 19.163162
_cell_length_b 7.195191
_cell_length_c 18.426602
_cell_angle_alpha 90.000000
_cell_angle_beta 90.000000
_cell_angle_gamma 90.000000
_cell_volume 2540.707991
_symmetry_space_group_name_H-M "P B C A"
_symmetry_group_IT_number 61
_symmetry_cell_setting 'orthorhombic'
loop_
_space_group_symop_operation_xyz
x,y,z
1/2-x,-y,1/2+z
1/2+x,1/2-y,-z
-x,1/2+y,1/2-z
-x,-y,-z
1/2+x,y,1/2-z
1/2-x,1/2+y,z
x,1/2-y,1/2+z
loop_
_atom_site_type_symbol
_atom_site_label
_atom_site_fract_x
_atom_site_fract_y
_atom_site_fract_z
Si Si1 0.698893 0.008782 0.070032
Si Si2 0.465654 0.694048 0.060113
Si Si3 0.997687 0.312281 0.399916
Si Si4 0.698865 0.700045 0.173800
Si Si5 0.713348 0.280451 0.310360
Si Si6 0.587328 0.515430 0.337309
Si Si7 0.316838 0.827699 0.530688
Si Si8 0.108227 0.164264 0.795181
O O1 0.664452 0.844547 0.117010
O O2 0.730572 0.143459 0.131254
O O3 0.764116 0.929977 0.022604
O O4 0.662794 0.133954 0.009312
O O5 0.505663 0.534636 0.103414
O O6 0.392502 0.585441 0.042326
O O7 0.445907 0.873565 0.105401
O O8 0.501718 0.738390 0.984328
O O9 0.932603 0.220712 0.359665
O O10 0.066427 0.239027 0.358486
O O11 0.723407 0.784404 0.252206
O O12 0.658069 0.505525 0.179361
O O13 0.670225 0.471180 0.329875
O O14 0.718140 0.194533 0.390120
O O15 0.650326 0.200204 0.259804
O O16 0.557461 0.447669 0.260060
#
# Coordination Sequence:
#
# PCOD9460193 Si02
#       8
#     8   8   8   8   8   8   8   8
#     4  10  22  37  67  93 135 179 215 290 343 428
#     4  10  23  44  68 100 132 178 236 287 354 410
#     4  11  23  44  71  94 136 180 234 296 337 419
#     4  11  20  44  64  98 137 176 229 277 355 427
#     4   9  22  40  65  90 138 173 222 285 343 428
#     4   9  22  44  64  97 133 176 226 283 345 411
#     4  10  22  42  61 101 132 174 229 278 353 421
#     4  10  23  41  66  99 131 181 234 282 352 423
#
# _framework density 25.189827999999999
#
# number of rings (size 3 to 8) (size 9 to 14) (size 15 to 20)
#    0.750    1.250    1.250    1.125    5.250    0.000 
#   27.000    0.000    0.000    0.000    0.000    0.000 
#    0.000    0.000    0.000    0.000    0.000    0.000 
#
# Total GULP energy -356575.752968 kJ/mol
# GULP energy per Si atom -5571.496140 kJ/mol
# Density = 2.513250 g / cm^3
# Si number density = 25.189828 Si / 1000 Ang^3
#
#
#
# Elastic Constant Matrix: (Units=GPa)
#
#
# Indices 1 2 3 4 5 6 
#
# 1 33.5823 6.6048 26.7364 0.0000 0.0000 0.0000
# 2 6.6048 63.2924 39.0203 0.0000 0.0000 0.0000
# 3 26.7364 39.0203 179.9175 0.0000 0.0000 0.0000
# 4 0.0000 0.0000 0.0000 36.1333 0.0000 0.0000
# 5 0.0000 0.0000 0.0000 0.0000 33.2554 0.0000
# 6 0.0000 0.0000 0.0000 0.0000 0.0000 31.9907
#
#
#
# Elastic Compliance Matrix: (Units=1/GPa)
#
#
# Indices 1 2 3 4 5 6 
#
# 1 0.033787 -0.000497 -0.004913 0.000000 0.000000 0.000000
# 2 -0.000497 0.018246 -0.003883 0.000000 0.000000 0.000000
# 3 -0.004913 -0.003883 0.007130 0.000000 0.000000 0.000000
# 4 0.000000 0.000000 0.000000 0.027675 0.000000 0.000000
# 5 0.000000 0.000000 0.000000 0.000000 0.030070 0.000000
# 6 0.000000 0.000000 0.000000 0.000000 0.000000 0.031259
#
#
# Mechanical properties :
#
#
# Convention : Reuss Voigt Hill
#
# Bulk Modulus (GPa) = 24.64482 46.83503 35.73993
# Shear Modulus (GPa) = 27.73472 33.90457 30.81964
#
# Velocity S-wave (km/s) = 3.32177 3.67272 3.50164
# Velocity P-wave (km/s) = 4.95148 6.05131 5.52881
#
# Compressibility (1/GPa) = 0.04057647
#
# Stress axis : x y z
#
# Youngs Moduli (GPa) = 29.59732 54.80776 140.24456
#
# Poissons Ratio (x) = 0.02723 0.68903
# Poissons Ratio (y) = 0.01470 0.54460
# Poissons Ratio (z) = 0.14541 0.21283
#
# Static dielectric constant tensor:
#      x y z
#    x 2.030220 0.000000 0.000000 
#    y 0.000000 2.086520 0.000000 
#    z 0.000000 0.000000 2.025150 
# 
# From -- ./inp_files/9784.got.cif
#   From: 2010.05.17/outbox.cif.g08.bks.cpg/sg61_5_cif.got.tgz:9784.got - 2010.06.03 15:17:17.
