data_PCOD9460862
_publ_section_title
;
Structure prediction by ZEFSAII (Michael W. Deem and Ramdas Pophale) SiO2 
 PCOD9460862
Probable space group: P B C A
;
_chemical_formula_sum "Si O2"
_cell_formula_units_Z 36
_cell_length_a 17.504127
_cell_length_b 14.267802
_cell_length_c 5.094258
_cell_angle_alpha 90.000000
_cell_angle_beta 90.000000
_cell_angle_gamma 90.000000
_cell_volume 1272.267595
_symmetry_space_group_name_H-M "P B C A"
_symmetry_group_IT_number 61
_symmetry_cell_setting 'orthorhombic'
loop_
_space_group_symop_operation_xyz
x,y,z
1/2-x,-y,1/2+z
1/2+x,1/2-y,-z
-x,1/2+y,1/2-z
-x,-y,-z
1/2+x,y,1/2-z
1/2-x,1/2+y,z
x,1/2-y,1/2+z
loop_
_atom_site_type_symbol
_atom_site_label
_atom_site_fract_x
_atom_site_fract_y
_atom_site_fract_z
Si Si1 0.380310 0.307461 0.374067
Si Si2 0.065016 0.194124 0.268236
Si Si3 0.150420 0.541791 0.508799
Si Si4 0.500000 0.500000 0.000000
Si Si5 0.764342 0.856392 0.839755
O O1 0.404477 0.266927 0.653460
O O2 0.399367 0.408847 0.243665
O O3 0.287916 0.317474 0.423569
O O4 0.045102 0.221658 0.565857
O O5 0.157891 0.190552 0.250912
O O6 0.032677 0.096635 0.156022
O O7 0.081527 0.504992 0.333507
O O8 0.202324 0.620767 0.383082
O O9 0.206002 0.459322 0.580815
#
# Coordination Sequence:
#
# PCOD9460862 Si02
#       5
#     8   8   8   4   8
#     4  12  24  39  67 108 142 183 248 322 381 450
#     4  11  27  50  78 115 160 214 272 334 411 486
#     4  11  24  46  74 111 151 207 259 327 404 483
#     4  10  28  54  78 118 170 222 262 338 418 502
#     4  11  23  43  76 109 148 198 266 330 394 471
#
# _framework density 28.295936000000001
#
# number of rings (size 3 to 8) (size 9 to 14) (size 15 to 20)
#    0.000    0.889    4.444    1.333    3.111    2.667 
#    4.000    0.000    0.000    0.000    0.000    0.000 
#    0.000    0.000    0.000    0.000    0.000    0.000 
#
# Total GULP energy -200577.386461 kJ/mol
# GULP energy per Si atom -5571.594068 kJ/mol
# Density = 2.823153 g / cm^3
# Si number density = 28.295936 Si / 1000 Ang^3
#
#
#
# Elastic Constant Matrix: (Units=GPa)
#
#
# Indices 1 2 3 4 5 6 
#
# 1 83.7803 -5.1321 48.2952 0.0000 0.0000 0.0000
# 2 -5.1321 96.1731 -0.7516 0.0000 0.0000 0.0000
# 3 48.2952 -0.7516 90.2382 0.0000 0.0000 0.0000
# 4 0.0000 0.0000 0.0000 26.3155 0.0000 0.0000
# 5 0.0000 0.0000 0.0000 0.0000 42.6335 0.0000
# 6 0.0000 0.0000 0.0000 0.0000 0.0000 44.0030
#
#
#
# Elastic Compliance Matrix: (Units=1/GPa)
#
#
# Indices 1 2 3 4 5 6 
#
# 1 0.017331 0.000852 -0.009268 0.000000 0.000000 0.000000
# 2 0.000852 0.010441 -0.000369 0.000000 0.000000 0.000000
# 3 -0.009268 -0.000369 0.016039 0.000000 0.000000 0.000000
# 4 0.000000 0.000000 0.000000 0.038000 0.000000 0.000000
# 5 0.000000 0.000000 0.000000 0.000000 0.023456 0.000000
# 6 0.000000 0.000000 0.000000 0.000000 0.000000 0.022726
#
#
# Mechanical properties :
#
#
# Convention : Reuss Voigt Hill
#
# Bulk Modulus (GPa) = 38.10952 39.44606 38.77779
# Shear Modulus (GPa) = 32.40237 37.77574 35.08905
#
# Velocity S-wave (km/s) = 3.38764 3.65776 3.52529
# Velocity P-wave (km/s) = 5.36646 5.64001 5.50494
#
# Compressibility (1/GPa) = 0.02624016
#
# Stress axis : x y z
#
# Youngs Moduli (GPa) = 57.70019 95.78070 62.34757
#
# Poissons Ratio (x) = -0.08164 0.57786
# Poissons Ratio (y) = -0.04918 0.02302
# Poissons Ratio (z) = 0.53479 0.03537
#
# Static dielectric constant tensor:
#      x y z
#    x 1.502300 0.000000 0.000000 
#    y 0.000000 1.212640 0.000000 
#    z 0.000000 0.000000 1.943880 
# 
# From -- ./inp_files/669.got.cif
#   From: 2010.05.17/outbox.cif.g08.bks.cpg/sg61_1_cif.got.tgz:669.got - 2010.06.03 15:17:17.
