data_PCOD9460864
_publ_section_title
;
Structure prediction by ZEFSAII (Michael W. Deem and Ramdas Pophale) SiO2 
 PCOD9460864
Probable space group: P B C A
;
_chemical_formula_sum "Si O2"
_cell_formula_units_Z 56
_cell_length_a 5.915025
_cell_length_b 22.810273
_cell_length_c 18.932272
_cell_angle_alpha 90.000000
_cell_angle_beta 90.000000
_cell_angle_gamma 90.000000
_cell_volume 2554.405278
_symmetry_space_group_name_H-M "P B C A"
_symmetry_group_IT_number 61
_symmetry_cell_setting 'orthorhombic'
loop_
_space_group_symop_operation_xyz
x,y,z
1/2-x,-y,1/2+z
1/2+x,1/2-y,-z
-x,1/2+y,1/2-z
-x,-y,-z
1/2+x,y,1/2-z
1/2-x,1/2+y,z
x,1/2-y,1/2+z
loop_
_atom_site_type_symbol
_atom_site_label
_atom_site_fract_x
_atom_site_fract_y
_atom_site_fract_z
Si Si1 0.464355 0.585246 0.048930
Si Si2 0.397426 0.115942 0.931254
Si Si3 0.401524 0.293774 0.894846
Si Si4 0.427669 0.406064 0.220436
Si Si5 0.741974 0.715928 0.948492
Si Si6 0.726893 0.965997 0.419397
Si Si7 0.132243 0.303152 0.337436
O O1 0.574952 0.636527 0.096273
O O2 0.334079 0.533828 0.089968
O O3 0.280953 0.611819 0.994226
O O4 0.644817 0.553733 0.997439
O O5 0.597666 0.159740 0.952714
O O6 0.511936 0.053401 0.915449
O O7 0.312524 0.147019 0.859947
O O8 0.650220 0.266104 0.899558
O O9 0.255576 0.260125 0.835195
O O10 0.311022 0.269868 0.970841
O O11 0.674457 0.424720 0.252252
O O12 0.410199 0.430033 0.139939
O O13 0.462895 0.334613 0.217448
O O14 0.519394 0.699613 0.907466
#
# Coordination Sequence:
#
# PCOD9460864 Si02
#       7
#     8   8   8   8   8   8   8
#     4  11  22  36  59  92 138 166 205 263 352 424
#     4  11  17  34  55  87 131 166 199 262 331 413
#     4  11  19  31  53  88 126 169 194 246 323 414
#     4  12  26  46  70  91 123 173 235 290 329 379
#     4  11  18  29  54  82 130 157 193 236 318 397
#     4  11  23  39  59  92 128 169 218 273 337 410
#     4  11  22  35  58  89 126 157 215 271 324 401
#
# _framework density 21.922910000000002
#
# number of rings (size 3 to 8) (size 9 to 14) (size 15 to 20)
#    0.000    0.857    7.143    2.143    2.000    0.000 
#    0.000    0.000    0.000    1.714    0.000    0.000 
#    0.000    0.000    0.000    0.000    0.000    0.000 
#
# Total GULP energy -311989.015153 kJ/mol
# GULP energy per Si atom -5571.232413 kJ/mol
# Density = 2.187301 g / cm^3
# Si number density = 21.922910 Si / 1000 Ang^3
#
#
#
# Elastic Constant Matrix: (Units=GPa)
#
#
# Indices 1 2 3 4 5 6 
#
# 1 72.5779 11.2132 12.8539 0.0000 0.0000 0.0000
# 2 11.2132 100.2979 8.3855 0.0000 0.0000 0.0000
# 3 12.8539 8.3855 42.3741 0.0000 0.0000 0.0000
# 4 0.0000 0.0000 0.0000 20.5008 0.0000 0.0000
# 5 0.0000 0.0000 0.0000 0.0000 18.3142 0.0000
# 6 0.0000 0.0000 0.0000 0.0000 0.0000 18.1703
#
#
#
# Elastic Compliance Matrix: (Units=1/GPa)
#
#
# Indices 1 2 3 4 5 6 
#
# 1 0.014724 -0.001294 -0.004210 0.000000 0.000000 0.000000
# 2 -0.001294 0.010252 -0.001636 0.000000 0.000000 0.000000
# 3 -0.004210 -0.001636 0.025200 0.000000 0.000000 0.000000
# 4 0.000000 0.000000 0.000000 0.048779 0.000000 0.000000
# 5 0.000000 0.000000 0.000000 0.000000 0.054602 0.000000
# 6 0.000000 0.000000 0.000000 0.000000 0.000000 0.055035
#
#
# Mechanical properties :
#
#
# Convention : Reuss Voigt Hill
#
# Bulk Modulus (GPa) = 27.85923 31.12835 29.49379
# Shear Modulus (GPa) = 21.29127 23.58354 22.43741
#
# Velocity S-wave (km/s) = 3.11977 3.28342 3.20264
# Velocity P-wave (km/s) = 5.07077 5.34830 5.21138
#
# Compressibility (1/GPa) = 0.03589475
#
# Stress axis : x y z
#
# Youngs Moduli (GPa) = 67.91682 97.54410 39.68213
#
# Poissons Ratio (x) = 0.12623 0.16707
# Poissons Ratio (y) = 0.08789 0.06493
# Poissons Ratio (z) = 0.28595 0.15960
#
# Static dielectric constant tensor:
#      x y z
#    x 1.909960 0.000000 0.000000 
#    y 0.000000 3.111940 0.000000 
#    z 0.000000 0.000000 1.887650 
# 
# From -- ./inp_files/9992.got.cif
#   From: 2010.05.17/outbox.cif.g08.bks.cpg/sg61_5_cif.got.tgz:9992.got - 2010.06.03 15:17:17.
