data_PCOD9460366
_publ_section_title
;
Structure prediction by ZEFSAII (Michael W. Deem and Ramdas Pophale) SiO2 
 PCOD9460366
Probable space group: P B C A
;
_chemical_formula_sum "Si O2"
_cell_formula_units_Z 40
_cell_length_a 14.383212
_cell_length_b 9.877920
_cell_length_c 11.425461
_cell_angle_alpha 90.000000
_cell_angle_beta 90.000000
_cell_angle_gamma 90.000000
_cell_volume 1623.286282
_symmetry_space_group_name_H-M "P B C A"
_symmetry_group_IT_number 61
_symmetry_cell_setting 'orthorhombic'
loop_
_space_group_symop_operation_xyz
x,y,z
1/2-x,-y,1/2+z
1/2+x,1/2-y,-z
-x,1/2+y,1/2-z
-x,-y,-z
1/2+x,y,1/2-z
1/2-x,1/2+y,z
x,1/2-y,1/2+z
loop_
_atom_site_type_symbol
_atom_site_label
_atom_site_fract_x
_atom_site_fract_y
_atom_site_fract_z
Si Si1 0.077352 0.012114 0.374521
Si Si2 0.334976 0.713631 0.879620
Si Si3 0.145361 0.761720 0.473659
Si Si4 0.895719 0.458012 0.725151
Si Si5 0.275099 0.104409 0.688617
O O1 0.072743 0.885932 0.464492
O O2 0.150595 0.956024 0.278796
O O3 0.986896 0.051851 0.301877
O O4 0.122856 0.148267 0.424292
O O5 0.248175 0.672792 0.958874
O O6 0.404010 0.590058 0.859511
O O7 0.285887 0.723809 0.751448
O O8 0.122251 0.666045 0.362020
O O9 0.164726 0.663196 0.582644
O O10 0.808559 0.493404 0.810935
#
# Coordination Sequence:
#
# PCOD9460366 Si02
#       5
#     8   8   8   8   8
#     4  11  21  41  65  95 130 169 219 277 330 387
#     4   9  20  41  60  90 130 166 211 277 320 393
#     4  11  20  42  67  90 130 181 215 264 341 398
#     4  10  22  42  65  94 132 165 220 279 319 400
#     4   9  23  40  64  91 132 173 217 263 336 402
#
# _framework density 24.641372
#
# number of rings (size 3 to 8) (size 9 to 14) (size 15 to 20)
#    1.200    0.800    2.000    1.200    0.000    4.000 
#    3.600    1.000    0.000    0.000    0.000    0.000 
#    0.000    0.000    0.000    0.000    0.000    0.000 
#
# Total GULP energy -222972.595783 kJ/mol
# GULP energy per Si atom -5574.314895 kJ/mol
# Density = 2.458529 g / cm^3
# Si number density = 24.641372 Si / 1000 Ang^3
#
#
#
# Elastic Constant Matrix: (Units=GPa)
#
#
# Indices 1 2 3 4 5 6 
#
# 1 70.5031 -3.2006 16.5685 0.0000 0.0000 0.0000
# 2 -3.2006 122.6543 14.8275 0.0000 0.0000 0.0000
# 3 16.5685 14.8275 49.4991 0.0000 0.0000 0.0000
# 4 0.0000 0.0000 0.0000 -1.5631 0.0000 0.0000
# 5 0.0000 0.0000 0.0000 0.0000 23.7455 0.0000
# 6 0.0000 0.0000 0.0000 0.0000 0.0000 21.6280
#
#
#
# Elastic Compliance Matrix: (Units=1/GPa)
#
#
# Indices 1 2 3 4 5 6 
#
# 1 0.015530 0.001072 -0.005519 0.000000 0.000000 0.000000
# 2 0.001072 0.008533 -0.002915 0.000000 0.000000 0.000000
# 3 -0.005519 -0.002915 0.022923 0.000000 0.000000 0.000000
# 4 0.000000 0.000000 0.000000 -0.639757 0.000000 0.000000
# 5 0.000000 0.000000 0.000000 0.000000 0.042113 0.000000
# 6 0.000000 0.000000 0.000000 0.000000 0.000000 0.046236
#
#
# Mechanical properties :
#
#
# Convention : Reuss Voigt Hill
#
# Bulk Modulus (GPa) = 30.99631 33.22747 32.11189
# Shear Modulus (GPa) = -10.43964 23.05949 6.30992
#
# Velocity S-wave (km/s) = -2.06054 3.06241 1.60196
# Velocity P-wave (km/s) = 2.63537 5.10080 4.05976
#
# Compressibility (1/GPa) = 0.03226190
#
# Stress axis : x y z
#
# Youngs Moduli (GPa) = 64.39343 117.18666 43.62414
#
# Poissons Ratio (x) = -0.12568 0.24078
# Poissons Ratio (y) = -0.06906 0.12717
# Poissons Ratio (z) = 0.35541 0.34162
#
# Static dielectric constant tensor:
#      x y z
#    x 1.918570 0.000000 0.000000 
#    y 0.000000 1.984090 0.000000 
#    z 0.000000 0.000000 2.048200 
# 
# From -- ./inp_files/5566.got.cif
#   From: 2010.05.17/outbox.cif.g08.bks.cpg/sg61_3_cif.got.tgz:5566.got - 2010.06.03 15:17:17.
