data_PCOD9460783
_publ_section_title
;
Structure prediction by ZEFSAII (Michael W. Deem and Ramdas Pophale) SiO2 
 PCOD9460783
Probable space group: P B C A
;
_chemical_formula_sum "Si O2"
_cell_formula_units_Z 56
_cell_length_a 14.443391
_cell_length_b 12.148566
_cell_length_c 13.277894
_cell_angle_alpha 90.000000
_cell_angle_beta 90.000000
_cell_angle_gamma 90.000000
_cell_volume 2329.825439
_symmetry_space_group_name_H-M "P B C A"
_symmetry_group_IT_number 61
_symmetry_cell_setting 'orthorhombic'
loop_
_space_group_symop_operation_xyz
x,y,z
1/2-x,-y,1/2+z
1/2+x,1/2-y,-z
-x,1/2+y,1/2-z
-x,-y,-z
1/2+x,y,1/2-z
1/2-x,1/2+y,z
x,1/2-y,1/2+z
loop_
_atom_site_type_symbol
_atom_site_label
_atom_site_fract_x
_atom_site_fract_y
_atom_site_fract_z
Si Si1 0.145293 0.374197 0.967371
Si Si2 0.140877 0.613806 0.000090
Si Si3 0.486707 0.718862 0.064433
Si Si4 0.770151 0.608566 0.695806
Si Si5 0.638028 0.730235 0.815269
Si Si6 0.934136 0.779597 0.708880
Si Si7 0.845138 0.387840 0.622566
O O1 0.253641 0.369354 0.943453
O O2 0.089508 0.383631 0.861175
O O3 0.126873 0.485774 0.029122
O O4 0.105498 0.258343 0.007591
O O5 0.169028 0.690009 0.094310
O O6 0.049331 0.671343 0.953802
O O7 0.329807 0.498603 0.815400
O O8 0.452819 0.693846 0.176361
O O9 0.564600 0.876078 0.551412
O O10 0.699674 0.623397 0.790185
O O11 0.713705 0.612018 0.591090
O O12 0.843947 0.705117 0.705374
O O13 0.527277 0.718326 0.829761
O O14 0.647933 0.796512 0.709954
#
# Coordination Sequence:
#
# PCOD9460783 Si02
#       7
#     8   8   8   8   8   8   8
#     4  11  23  44  72 107 143 198 249 306 384 451
#     4  11  23  43  75 106 139 190 252 309 373 449
#     4  11  23  42  69 106 142 186 248 309 360 456
#     4  11  24  47  70 103 150 188 241 311 375 450
#     4  11  23  46  69 107 138 187 248 304 367 449
#     4  11  23  41  70 102 144 189 234 310 372 437
#     4  10  24  47  68 103 151 189 240 309 371 448
#
# _framework density 24.036135000000002
#
# number of rings (size 3 to 8) (size 9 to 14) (size 15 to 20)
#    0.000    1.143    5.714    0.429    2.000    3.429 
#    2.571    0.714    0.000    0.000    0.000    0.000 
#    0.000    0.000    0.000    0.000    0.000    0.000 
#
# Total GULP energy -312530.800597 kJ/mol
# GULP energy per Si atom -5580.907154 kJ/mol
# Density = 2.398143 g / cm^3
# Si number density = 24.036135 Si / 1000 Ang^3
#
#
#
# Elastic Constant Matrix: (Units=GPa)
#
#
# Indices 1 2 3 4 5 6 
#
# 1 133.4043 19.3960 21.3445 0.0000 0.0000 0.0000
# 2 19.3960 37.5213 5.9314 0.0000 0.0000 0.0000
# 3 21.3445 5.9314 85.5901 0.0000 0.0000 0.0000
# 4 0.0000 0.0000 0.0000 34.4143 0.0000 0.0000
# 5 0.0000 0.0000 0.0000 0.0000 36.7888 0.0000
# 6 0.0000 0.0000 0.0000 0.0000 0.0000 26.6184
#
#
#
# Elastic Compliance Matrix: (Units=1/GPa)
#
#
# Indices 1 2 3 4 5 6 
#
# 1 0.008373 -0.004042 -0.001808 0.000000 0.000000 0.000000
# 2 -0.004042 0.028898 -0.000995 0.000000 0.000000 0.000000
# 3 -0.001808 -0.000995 0.012203 0.000000 0.000000 0.000000
# 4 0.000000 0.000000 0.000000 0.029058 0.000000 0.000000
# 5 0.000000 0.000000 0.000000 0.000000 0.027182 0.000000
# 6 0.000000 0.000000 0.000000 0.000000 0.000000 0.037568
#
#
# Mechanical properties :
#
#
# Convention : Reuss Voigt Hill
#
# Bulk Modulus (GPa) = 27.94472 38.87326 33.40899
# Shear Modulus (GPa) = 29.60314 33.55387 31.57851
#
# Velocity S-wave (km/s) = 3.51324 3.74033 3.62856
# Velocity P-wave (km/s) = 5.30174 5.90435 5.61114
#
# Compressibility (1/GPa) = 0.03578493
#
# Stress axis : x y z
#
# Youngs Moduli (GPa) = 119.43119 34.60398 81.94450
#
# Poissons Ratio (x) = 0.13989 0.14815
# Poissons Ratio (y) = 0.48280 0.08150
# Poissons Ratio (z) = 0.21592 0.03441
#
# Static dielectric constant tensor:
#      x y z
#    x 1.998980 0.000000 0.000000 
#    y 0.000000 1.968900 0.000000 
#    z 0.000000 0.000000 1.999210 
# 
# From -- ./inp_files/7907.got.cif
#   From: 2010.05.17/outbox.cif.g08.bks.cpg/sg61_4_cif.got.tgz:7907.got - 2010.06.03 15:17:17.
