data_PCOD9460407
_publ_section_title
;
Structure prediction by ZEFSAII (Michael W. Deem and Ramdas Pophale) SiO2 
 PCOD9460407
Probable space group: P B C A
;
_chemical_formula_sum "Si O2"
_cell_formula_units_Z 40
_cell_length_a 14.844217
_cell_length_b 13.132005
_cell_length_c 10.156697
_cell_angle_alpha 90.000000
_cell_angle_beta 90.000000
_cell_angle_gamma 90.000000
_cell_volume 1979.888944
_symmetry_space_group_name_H-M "P B C A"
_symmetry_group_IT_number 61
_symmetry_cell_setting 'orthorhombic'
loop_
_space_group_symop_operation_xyz
x,y,z
1/2-x,-y,1/2+z
1/2+x,1/2-y,-z
-x,1/2+y,1/2-z
-x,-y,-z
1/2+x,y,1/2-z
1/2-x,1/2+y,z
x,1/2-y,1/2+z
loop_
_atom_site_type_symbol
_atom_site_label
_atom_site_fract_x
_atom_site_fract_y
_atom_site_fract_z
Si Si1 0.915605 0.133337 0.926049
Si Si2 0.980113 0.361913 0.946325
Si Si3 0.928568 0.006410 0.190326
Si Si4 0.750078 0.045917 0.812554
Si Si5 0.352188 0.515767 0.431480
O O1 0.955416 0.244911 0.943919
O O2 0.819873 0.134625 0.850507
O O3 0.903722 0.076517 0.065755
O O4 0.987728 0.063715 0.849236
O O5 0.953671 0.418282 0.809989
O O6 0.085397 0.387267 0.964836
O O7 0.921132 0.420958 0.055761
O O8 0.843938 0.937981 0.236861
O O9 0.806522 0.977007 0.710341
O O10 0.720287 0.999813 0.952669
#
# Coordination Sequence:
#
# PCOD9460407 Si02
#       5
#     8   8   8   8   8
#     4  11  23  42  67  96 135 176 218 275 332 395
#     4  10  23  42  70  91 131 179 222 266 338 397
#     4  10  23  42  64  97 133 171 218 276 327 391
#     4  11  21  43  67  92 133 174 215 275 333 384
#     4  10  22  43  67  97 132 172 219 280 328 396
#
# _framework density 20.203154000000001
#
# number of rings (size 3 to 8) (size 9 to 14) (size 15 to 20)
#    0.000    1.600    4.000    0.000    2.800    0.000 
#   10.800    0.000    0.000    0.000    0.000    0.000 
#    0.000    0.000    0.000    0.000    0.000    0.000 
#
# Total GULP energy -223067.431101 kJ/mol
# GULP energy per Si atom -5576.685778 kJ/mol
# Density = 2.015717 g / cm^3
# Si number density = 20.203154 Si / 1000 Ang^3
#
#
#
# Elastic Constant Matrix: (Units=GPa)
#
#
# Indices 1 2 3 4 5 6 
#
# 1 91.8562 24.2191 67.7047 0.0000 0.0000 0.0000
# 2 24.2191 86.7302 45.8422 0.0000 0.0000 0.0000
# 3 67.7047 45.8422 111.3267 0.0000 0.0000 0.0000
# 4 0.0000 0.0000 0.0000 15.1660 0.0000 0.0000
# 5 0.0000 0.0000 0.0000 0.0000 35.6314 0.0000
# 6 0.0000 0.0000 0.0000 0.0000 0.0000 15.9019
#
#
#
# Elastic Compliance Matrix: (Units=1/GPa)
#
#
# Indices 1 2 3 4 5 6 
#
# 1 0.019809 0.001069 -0.012487 0.000000 0.000000 0.000000
# 2 0.001069 0.014795 -0.006742 0.000000 0.000000 0.000000
# 3 -0.012487 -0.006742 0.019353 0.000000 0.000000 0.000000
# 4 0.000000 0.000000 0.000000 0.065937 0.000000 0.000000
# 5 0.000000 0.000000 0.000000 0.000000 0.028065 0.000000
# 6 0.000000 0.000000 0.000000 0.000000 0.000000 0.062885
#
#
# Mechanical properties :
#
#
# Convention : Reuss Voigt Hill
#
# Bulk Modulus (GPa) = 56.70312 62.82724 59.76518
# Shear Modulus (GPa) = 19.75941 23.48301 21.62121
#
# Velocity S-wave (km/s) = 3.13075 3.41302 3.27492
# Velocity P-wave (km/s) = 6.41843 6.83351 6.62922
#
# Compressibility (1/GPa) = 0.01763572
#
# Stress axis : x y z
#
# Youngs Moduli (GPa) = 50.48325 67.58887 51.67165
#
# Poissons Ratio (x) = -0.07223 0.64522
# Poissons Ratio (y) = -0.05395 0.34839
# Poissons Ratio (z) = 0.63038 0.45571
#
# Static dielectric constant tensor:
#      x y z
#    x 1.768430 0.000000 0.000000 
#    y 0.000000 1.647390 0.000000 
#    z 0.000000 0.000000 1.757250 
# 
# From -- ./inp_files/5132.got.cif
#   From: 2010.05.17/outbox.cif.g08.bks.cpg/sg61_3_cif.got.tgz:5132.got - 2010.06.03 15:17:17.
