data_PCOD9460686
_publ_section_title
;
Structure prediction by ZEFSAII (Michael W. Deem and Ramdas Pophale) SiO2 
 PCOD9460686
Probable space group: P B C A
;
_chemical_formula_sum "Si O2"
_cell_formula_units_Z 40
_cell_length_a 10.886184
_cell_length_b 14.864164
_cell_length_c 9.327322
_cell_angle_alpha 90.000000
_cell_angle_beta 90.000000
_cell_angle_gamma 90.000000
_cell_volume 1509.291509
_symmetry_space_group_name_H-M "P B C A"
_symmetry_group_IT_number 61
_symmetry_cell_setting 'orthorhombic'
loop_
_space_group_symop_operation_xyz
x,y,z
1/2-x,-y,1/2+z
1/2+x,1/2-y,-z
-x,1/2+y,1/2-z
-x,-y,-z
1/2+x,y,1/2-z
1/2-x,1/2+y,z
x,1/2-y,1/2+z
loop_
_atom_site_type_symbol
_atom_site_label
_atom_site_fract_x
_atom_site_fract_y
_atom_site_fract_z
Si Si1 0.729618 0.080361 0.861146
Si Si2 0.103386 0.315398 0.677828
Si Si3 0.869588 0.250320 0.818261
Si Si4 0.521343 0.100434 0.056028
Si Si5 0.623481 0.447727 0.046679
O O1 0.846352 0.146277 0.851187
O O2 0.667186 0.053482 0.711016
O O3 0.769865 0.995448 0.954294
O O4 0.630378 0.134891 0.954953
O O5 0.234170 0.280087 0.731722
O O6 0.072654 0.401316 0.781266
O O7 0.110326 0.347363 0.515159
O O8 0.983127 0.257672 0.710838
O O9 0.911394 0.327013 0.933147
O O10 0.500000 0.000000 0.000000
O O11 0.500000 0.500000 0.000000
#
# Coordination Sequence:
#
# PCOD9460686 Si02
#       5
#     8   8   8   8   8
#     4  12  28  52  81 131 171 237 298 379 450 543
#     4  10  25  52  78 118 165 218 286 360 443 535
#     4  10  27  50  86 118 169 222 288 369 436 530
#     4  10  23  50  86 114 172 227 285 363 451 544
#     4  12  29  48  86 120 170 233 302 367 462 549
#
# _framework density 26.502503000000001
#
# number of rings (size 3 to 8) (size 9 to 14) (size 15 to 20)
#    1.200    0.000    0.000    3.600    8.400    4.800 
#    0.000    0.000    4.400    0.000    0.000    0.000 
#    0.000    0.000    0.000    0.000    0.000    0.000 
#
# Total GULP energy -223797.889031 kJ/mol
# GULP energy per Si atom -5594.947226 kJ/mol
# Density = 2.644218 g / cm^3
# Si number density = 26.502503 Si / 1000 Ang^3
#
#
#
# Elastic Constant Matrix: (Units=GPa)
#
#
# Indices 1 2 3 4 5 6 
#
# 1 191.4398 47.8018 56.3276 0.0000 0.0000 0.0000
# 2 47.8018 105.6151 34.2886 0.0000 0.0000 0.0000
# 3 56.3276 34.2886 150.8993 0.0000 0.0000 0.0000
# 4 0.0000 0.0000 0.0000 45.7809 0.0000 0.0000
# 5 0.0000 0.0000 0.0000 0.0000 51.1309 0.0000
# 6 0.0000 0.0000 0.0000 0.0000 0.0000 62.1940
#
#
#
# Elastic Compliance Matrix: (Units=1/GPa)
#
#
# Indices 1 2 3 4 5 6 
#
# 1 0.006334 -0.002266 -0.001849 0.000000 0.000000 0.000000
# 2 -0.002266 0.011033 -0.001661 0.000000 0.000000 0.000000
# 3 -0.001849 -0.001661 0.007695 0.000000 0.000000 0.000000
# 4 0.000000 0.000000 0.000000 0.021843 0.000000 0.000000
# 5 0.000000 0.000000 0.000000 0.000000 0.019558 0.000000
# 6 0.000000 0.000000 0.000000 0.000000 0.000000 0.016079
#
#
# Mechanical properties :
#
#
# Convention : Reuss Voigt Hill
#
# Bulk Modulus (GPa) = 74.02829 80.53226 77.28027
# Shear Modulus (GPa) = 50.71142 52.45690 51.58416
#
# Velocity S-wave (km/s) = 4.37905 4.45378 4.41658
# Velocity P-wave (km/s) = 7.31856 7.54326 7.43176
#
# Compressibility (1/GPa) = 0.01350835
#
# Stress axis : x y z
#
# Youngs Moduli (GPa) = 157.88943 90.63430 129.95997
#
# Poissons Ratio (x) = 0.20540 0.24033
# Poissons Ratio (y) = 0.35781 0.21588
# Poissons Ratio (z) = 0.29197 0.15056
#
# Static dielectric constant tensor:
#      x y z
#    x 2.078900 0.000000 0.000000 
#    y 0.000000 2.192660 0.000000 
#    z 0.000000 0.000000 2.098620 
# 
# From -- ./inp_files/2147.got.cif
#   From: 2010.05.17/outbox.cif.g08.bks.cpg/sg61_2_cif.got.tgz:2147.got - 2010.06.03 15:17:17.
