data_PCOD9460249
_publ_section_title
;
Structure prediction by ZEFSAII (Michael W. Deem and Ramdas Pophale) SiO2 
 PCOD9460249
Probable space group: P B C A
;
_chemical_formula_sum "Si O2"
_cell_formula_units_Z 64
_cell_length_a 10.655560
_cell_length_b 14.413615
_cell_length_c 16.977744
_cell_angle_alpha 90.000000
_cell_angle_beta 90.000000
_cell_angle_gamma 90.000000
_cell_volume 2607.529180
_symmetry_space_group_name_H-M "P B C A"
_symmetry_group_IT_number 61
_symmetry_cell_setting 'orthorhombic'
loop_
_space_group_symop_operation_xyz
x,y,z
1/2-x,-y,1/2+z
1/2+x,1/2-y,-z
-x,1/2+y,1/2-z
-x,-y,-z
1/2+x,y,1/2-z
1/2-x,1/2+y,z
x,1/2-y,1/2+z
loop_
_atom_site_type_symbol
_atom_site_label
_atom_site_fract_x
_atom_site_fract_y
_atom_site_fract_z
Si Si1 0.207082 0.807870 0.394551
Si Si2 0.791030 0.677980 0.772650
Si Si3 0.678554 0.158940 0.001354
Si Si4 0.826932 0.018776 0.304198
Si Si5 0.055268 0.285842 0.628373
Si Si6 0.029939 0.479478 0.669857
Si Si7 0.582388 0.628375 0.457044
Si Si8 0.095458 0.661513 0.598783
O O1 0.269296 0.847108 0.316889
O O2 0.282472 0.717488 0.422805
O O3 0.177026 0.873108 0.468938
O O4 0.073089 0.768552 0.368872
O O5 0.857432 0.590633 0.814659
O O6 0.872809 0.768622 0.789289
O O7 0.661579 0.690473 0.819094
O O8 0.639878 0.237165 0.937162
O O9 0.801959 0.116782 0.961124
O O10 0.557827 0.096847 0.018703
O O11 0.674001 0.018114 0.294243
O O12 0.863457 0.078323 0.380559
O O13 0.919827 0.044057 0.232256
O O14 0.034612 0.392583 0.611486
O O15 0.008601 0.576586 0.624946
O O16 0.560867 0.739955 0.439959
#
# Coordination Sequence:
#
# PCOD9460249 Si02
#       8
#     8   8   8   8   8   8   8   8
#     4  10  22  39  73 100 136 185 240 299 372 431
#     4  10  23  40  68  98 139 181 240 292 363 421
#     4   9  20  42  67  98 135 189 236 286 373 431
#     4  11  26  42  69 104 143 190 240 300 359 438
#     4  10  23  41  68  99 138 189 241 299 356 440
#     4  11  25  42  68 102 143 182 245 290 366 421
#     4  10  22  45  72  99 142 189 244 297 368 435
#     4   9  21  43  66  95 146 184 230 303 361 419
#
# _framework density 24.544308000000001
#
# number of rings (size 3 to 8) (size 9 to 14) (size 15 to 20)
#    0.000    2.000    0.000    2.250   10.500    0.000 
#    0.000   16.875   19.250    0.000    0.000    0.000 
#    0.000    0.000    0.000    0.000    0.000    0.000 
#
# Total GULP energy -357499.169812 kJ/mol
# GULP energy per Si atom -5585.924528 kJ/mol
# Density = 2.448844 g / cm^3
# Si number density = 24.544308 Si / 1000 Ang^3
#
#
#
# Elastic Constant Matrix: (Units=GPa)
#
#
# Indices 1 2 3 4 5 6 
#
# 1 59.8935 -1.8583 -0.0527 0.0000 0.0000 0.0000
# 2 -1.8583 87.2486 25.0013 0.0000 0.0000 0.0000
# 3 -0.0527 25.0013 89.6902 0.0000 0.0000 0.0000
# 4 0.0000 0.0000 0.0000 22.4403 0.0000 0.0000
# 5 0.0000 0.0000 0.0000 0.0000 13.1500 0.0000
# 6 0.0000 0.0000 0.0000 0.0000 0.0000 18.7831
#
#
#
# Elastic Compliance Matrix: (Units=1/GPa)
#
#
# Indices 1 2 3 4 5 6 
#
# 1 0.016708 0.000384 -0.000097 0.000000 0.000000 0.000000
# 2 0.000384 0.012465 -0.003475 0.000000 0.000000 0.000000
# 3 -0.000097 -0.003475 0.012118 0.000000 0.000000 0.000000
# 4 0.000000 0.000000 0.000000 0.044563 0.000000 0.000000
# 5 0.000000 0.000000 0.000000 0.000000 0.076046 0.000000
# 6 0.000000 0.000000 0.000000 0.000000 0.000000 0.053239
#
#
# Mechanical properties :
#
#
# Convention : Reuss Voigt Hill
#
# Bulk Modulus (GPa) = 28.64056 31.44587 30.04321
# Shear Modulus (GPa) = 21.44508 25.12414 23.28461
#
# Velocity S-wave (km/s) = 2.95910 3.20288 3.08340
# Velocity P-wave (km/s) = 4.83418 5.14953 4.99434
#
# Compressibility (1/GPa) = 0.03491552
#
# Stress axis : x y z
#
# Youngs Moduli (GPa) = 59.85108 80.22265 82.52219
#
# Poissons Ratio (x) = -0.03078 0.00802
# Poissons Ratio (y) = -0.02297 0.28672
# Poissons Ratio (z) = 0.00581 0.27873
#
# Static dielectric constant tensor:
#      x y z
#    x 2.032280 0.000000 0.000000 
#    y 0.000000 2.003950 0.000000 
#    z 0.000000 0.000000 1.996280 
# 
# From -- ./inp_files/9279.got.cif
#   From: 2010.05.17/outbox.cif.g08.bks.cpg/sg61_5_cif.got.tgz:9279.got - 2010.06.03 15:17:17.
