data_PCOD9460479
_publ_section_title
;
Structure prediction by ZEFSAII (Michael W. Deem and Ramdas Pophale) SiO2 
 PCOD9460479
Probable space group: P B C A
;
_chemical_formula_sum "Si O2"
_cell_formula_units_Z 60
_cell_length_a 22.113024
_cell_length_b 12.674895
_cell_length_c 9.649841
_cell_angle_alpha 90.000000
_cell_angle_beta 90.000000
_cell_angle_gamma 90.000000
_cell_volume 2704.659919
_symmetry_space_group_name_H-M "P B C A"
_symmetry_group_IT_number 61
_symmetry_cell_setting 'orthorhombic'
loop_
_space_group_symop_operation_xyz
x,y,z
1/2-x,-y,1/2+z
1/2+x,1/2-y,-z
-x,1/2+y,1/2-z
-x,-y,-z
1/2+x,y,1/2-z
1/2-x,1/2+y,z
x,1/2-y,1/2+z
loop_
_atom_site_type_symbol
_atom_site_label
_atom_site_fract_x
_atom_site_fract_y
_atom_site_fract_z
Si Si1 0.254579 0.461792 0.292120
Si Si2 0.041889 0.443290 0.802273
Si Si3 0.324815 0.229276 0.932654
Si Si4 0.921123 0.085495 0.436264
Si Si5 0.289447 0.680239 0.590313
Si Si6 0.839208 0.665160 0.190425
Si Si7 0.870142 0.041916 0.149486
Si Si8 0.500000 0.000000 0.500000
O O1 0.297772 0.365708 0.339471
O O2 0.232475 0.434566 0.136989
O O3 0.293142 0.567829 0.293570
O O4 0.191983 0.477618 0.376614
O O5 0.095009 0.365291 0.759038
O O6 0.985812 0.382857 0.872837
O O7 0.019725 0.501020 0.664240
O O8 0.067170 0.518797 0.924041
O O9 0.349903 0.334708 0.859643
O O10 0.378940 0.181519 0.022118
O O11 0.268841 0.262707 0.027933
O O12 0.890550 0.022613 0.309110
O O13 0.312755 0.737963 0.726182
O O14 0.339934 0.684868 0.473243
O O15 0.926920 0.018656 0.050078
#
# Coordination Sequence:
#
# PCOD9460479 Si02
#       8
#     8   8   8   8   8   8   8   4
#     4  12  24  43  74 103 146 191 238 309 383 442
#     4  10  23  45  73 102 137 194 243 303 372 435
#     4  12  24  43  70 110 145 191 246 301 373 450
#     4  10  22  46  69  99 142 189 244 299 362 442
#     4  12  27  44  67 113 145 185 245 308 366 456
#     4  12  26  45  73 106 148 193 246 309 383 442
#     4  11  25  46  72 106 144 193 250 300 373 443
#     4  10  26  46  74 104 142 192 252 302 358 450
#
# _framework density 22.183935000000002
#
# number of rings (size 3 to 8) (size 9 to 14) (size 15 to 20)
#    0.000    0.800    4.000    2.400    5.600    1.067 
#    7.200    0.000    0.000    0.000    0.000    0.000 
#    0.000    0.000    0.000    0.000    0.000    0.000 
#
# Total GULP energy -334304.482519 kJ/mol
# GULP energy per Si atom -5571.741375 kJ/mol
# Density = 2.213344 g / cm^3
# Si number density = 22.183935 Si / 1000 Ang^3
#
#
#
# Elastic Constant Matrix: (Units=GPa)
#
#
# Indices 1 2 3 4 5 6 
#
# 1 124.1313 24.0103 16.2872 0.0000 0.0000 0.0000
# 2 24.0103 48.4184 22.2202 0.0000 0.0000 0.0000
# 3 16.2872 22.2202 121.6300 0.0000 0.0000 0.0000
# 4 0.0000 0.0000 0.0000 22.3233 0.0000 0.0000
# 5 0.0000 0.0000 0.0000 0.0000 18.5477 0.0000
# 6 0.0000 0.0000 0.0000 0.0000 0.0000 18.9350
#
#
#
# Elastic Compliance Matrix: (Units=1/GPa)
#
#
# Indices 1 2 3 4 5 6 
#
# 1 0.008931 -0.004235 -0.000422 0.000000 0.000000 0.000000
# 2 -0.004235 0.024551 -0.003918 0.000000 0.000000 0.000000
# 3 -0.000422 -0.003918 0.008994 0.000000 0.000000 0.000000
# 4 0.000000 0.000000 0.000000 0.044796 0.000000 0.000000
# 5 0.000000 0.000000 0.000000 0.000000 0.053915 0.000000
# 6 0.000000 0.000000 0.000000 0.000000 0.000000 0.052812
#
#
# Mechanical properties :
#
#
# Convention : Reuss Voigt Hill
#
# Bulk Modulus (GPa) = 39.48576 46.57945 43.03260
# Shear Modulus (GPa) = 22.76955 27.40534 25.08745
#
# Velocity S-wave (km/s) = 3.20722 3.51859 3.36651
# Velocity P-wave (km/s) = 5.61720 6.12779 5.87804
#
# Compressibility (1/GPa) = 0.02532559
#
# Stress axis : x y z
#
# Youngs Moduli (GPa) = 111.97563 40.73081 111.18537
#
# Poissons Ratio (x) = 0.17249 0.04694
# Poissons Ratio (y) = 0.47420 0.43564
# Poissons Ratio (z) = 0.04728 0.15959
#
# Static dielectric constant tensor:
#      x y z
#    x 1.831020 0.000000 0.000000 
#    y 0.000000 1.814050 0.000000 
#    z 0.000000 0.000000 1.842240 
# 
# From -- ./inp_files/4304.got.cif
#   From: 2010.05.17/outbox.cif.g08.bks.cpg/sg61_3_cif.got.tgz:4304.got - 2010.06.03 15:17:17.
