data_PCOD9460423
_publ_section_title
;
Structure prediction by ZEFSAII (Michael W. Deem and Ramdas Pophale) SiO2 
 PCOD9460423
Probable space group: P B C A
;
_chemical_formula_sum "Si O2"
_cell_formula_units_Z 48
_cell_length_a 13.388412
_cell_length_b 15.416044
_cell_length_c 8.934117
_cell_angle_alpha 90.000000
_cell_angle_beta 90.000000
_cell_angle_gamma 90.000000
_cell_volume 1843.969126
_symmetry_space_group_name_H-M "P B C A"
_symmetry_group_IT_number 61
_symmetry_cell_setting 'orthorhombic'
loop_
_space_group_symop_operation_xyz
x,y,z
1/2-x,-y,1/2+z
1/2+x,1/2-y,-z
-x,1/2+y,1/2-z
-x,-y,-z
1/2+x,y,1/2-z
1/2-x,1/2+y,z
x,1/2-y,1/2+z
loop_
_atom_site_type_symbol
_atom_site_label
_atom_site_fract_x
_atom_site_fract_y
_atom_site_fract_z
Si Si1 0.880000 0.686232 0.970297
Si Si2 0.923187 0.919463 0.736620
Si Si3 0.230941 0.556674 0.879253
Si Si4 0.190235 0.774278 0.199074
Si Si5 0.053626 0.815085 0.928044
Si Si6 0.628825 0.993964 0.834941
O O1 0.787159 0.740447 0.905522
O O2 0.874761 0.592130 0.894755
O O3 0.984824 0.729625 0.933668
O O4 0.877306 0.662697 0.146599
O O5 0.971362 0.888723 0.892317
O O6 0.023515 0.948865 0.651075
O O7 0.850307 0.999803 0.713523
O O8 0.223476 0.653401 0.818686
O O9 0.331678 0.506439 0.833390
O O10 0.204991 0.552594 0.052576
O O11 0.132963 0.699284 0.292013
O O12 0.111427 0.817887 0.083662
#
# Coordination Sequence:
#
# PCOD9460423 Si02
#       6
#     8   8   8   8   8   8
#     4  10  23  46  65  97 129 179 216 272 330 400
#     4  11  23  41  71  94 135 173 222 277 336 386
#     4  10  23  44  67  99 128 176 221 276 329 398
#     4  11  26  43  68  95 137 174 226 272 334 402
#     4  12  25  43  66  99 134 175 222 271 335 400
#     4  10  22  43  72  92 135 171 227 272 339 388
#
# _framework density 26.030804
#
# number of rings (size 3 to 8) (size 9 to 14) (size 15 to 20)
#    0.000    1.333    1.667    4.000    9.333    0.667 
#    6.000    0.000    0.000    0.000    0.000    0.000 
#    0.000    0.000    0.000    0.000    0.000    0.000 
#
# Total GULP energy -268655.827645 kJ/mol
# GULP energy per Si atom -5596.996409 kJ/mol
# Density = 2.597156 g / cm^3
# Si number density = 26.030804 Si / 1000 Ang^3
#
#
#
# Elastic Constant Matrix: (Units=GPa)
#
#
# Indices 1 2 3 4 5 6 
#
# 1 73.1335 14.7228 6.4612 0.0000 0.0000 0.0000
# 2 14.7228 61.1425 19.1200 0.0000 0.0000 0.0000
# 3 6.4612 19.1200 74.3298 0.0000 0.0000 0.0000
# 4 0.0000 0.0000 0.0000 27.5241 0.0000 0.0000
# 5 0.0000 0.0000 0.0000 0.0000 47.5768 0.0000
# 6 0.0000 0.0000 0.0000 0.0000 0.0000 14.9366
#
#
#
# Elastic Compliance Matrix: (Units=1/GPa)
#
#
# Indices 1 2 3 4 5 6 
#
# 1 0.014381 -0.003341 -0.000391 0.000000 0.000000 0.000000
# 2 -0.003341 0.018562 -0.004484 0.000000 0.000000 0.000000
# 3 -0.000391 -0.004484 0.014641 0.000000 0.000000 0.000000
# 4 0.000000 0.000000 0.000000 0.036332 0.000000 0.000000
# 5 0.000000 0.000000 0.000000 0.000000 0.021019 0.000000
# 6 0.000000 0.000000 0.000000 0.000000 0.000000 0.066950
#
#
# Mechanical properties :
#
#
# Convention : Reuss Voigt Hill
#
# Bulk Modulus (GPa) = 32.10041 32.13489 32.11765
# Shear Modulus (GPa) = 25.16366 29.22762 27.19564
#
# Velocity S-wave (km/s) = 3.11253 3.35447 3.23576
# Velocity P-wave (km/s) = 5.02749 5.23212 5.13082
#
# Compressibility (1/GPa) = 0.03115225
#
# Stress axis : x y z
#
# Youngs Moduli (GPa) = 69.53788 53.87361 68.30117
#
# Poissons Ratio (x) = 0.17997 0.02669
# Poissons Ratio (y) = 0.23230 0.30629
# Poissons Ratio (z) = 0.02717 0.24159
#
# Static dielectric constant tensor:
#      x y z
#    x 2.017170 0.000000 0.000000 
#    y 0.000000 2.033130 0.000000 
#    z 0.000000 0.000000 2.072670 
# 
# From -- ./inp_files/2825.got.cif
#   From: 2010.05.17/outbox.cif.g08.bks.cpg/sg61_2_cif.got.tgz:2825.got - 2010.06.03 15:17:17.
