data_PCOD9460028
_publ_section_title
;
Structure prediction by ZEFSAII (Michael W. Deem and Ramdas Pophale) SiO2 
 PCOD9460028
Probable space group: P B C A
;
_chemical_formula_sum "Si O2"
_cell_formula_units_Z 32
_cell_length_a 6.755942
_cell_length_b 10.682819
_cell_length_c 14.576745
_cell_angle_alpha 90.000000
_cell_angle_beta 90.000000
_cell_angle_gamma 90.000000
_cell_volume 1052.040210
_symmetry_space_group_name_H-M "P B C A"
_symmetry_group_IT_number 61
_symmetry_cell_setting 'orthorhombic'
loop_
_space_group_symop_operation_xyz
x,y,z
1/2-x,-y,1/2+z
1/2+x,1/2-y,-z
-x,1/2+y,1/2-z
-x,-y,-z
1/2+x,y,1/2-z
1/2-x,1/2+y,z
x,1/2-y,1/2+z
loop_
_atom_site_type_symbol
_atom_site_label
_atom_site_fract_x
_atom_site_fract_y
_atom_site_fract_z
Si Si1 0.198199 0.902215 0.470357
Si Si2 0.976650 0.845102 0.209982
Si Si3 0.614278 0.078375 0.171872
Si Si4 0.472380 0.694617 0.113938
O O1 0.348632 0.884359 0.379525
O O2 0.065596 0.778646 0.466441
O O3 0.332673 0.902109 0.560567
O O4 0.077049 0.015913 0.425487
O O5 0.021258 0.700920 0.179647
O O6 0.889397 0.795318 0.310803
O O7 0.089737 0.970602 0.249031
O O8 0.834247 0.134292 0.160531
#
# Coordination Sequence:
#
# PCOD9460028 Si02
#       4
#     8   8   8   8
#     4  10  22  41  67 105 150 199 253 315 390 467
#     4  10  22  42  66 104 150 198 248 310 384 464
#     4  10  21  40  68 100 143 194 251 308 377 450
#     4  10  22  41  67 105 150 199 253 315 390 467
#
# _framework density 30.417090000000002
#
# number of rings (size 3 to 8) (size 9 to 14) (size 15 to 20)
#    0.000    2.000    0.000    2.250    0.000    6.000 
#    0.000   25.000    0.000    0.000    0.000    5.250 
#    0.000    0.000    0.000    0.000    0.000    0.000 
#
# Total GULP energy -178169.677036 kJ/mol
# GULP energy per Si atom -5567.802407 kJ/mol
# Density = 3.034786 g / cm^3
# Si number density = 30.417090 Si / 1000 Ang^3
#
#
#
# Elastic Constant Matrix: (Units=GPa)
#
#
# Indices 1 2 3 4 5 6 
#
# 1 64.3409 40.6929 -12.0744 0.0000 0.0000 0.0000
# 2 40.6929 196.0544 -12.4906 0.0000 0.0000 0.0000
# 3 -12.0744 -12.4906 98.3960 0.0000 0.0000 0.0000
# 4 0.0000 0.0000 0.0000 56.4782 0.0000 0.0000
# 5 0.0000 0.0000 0.0000 0.0000 26.8247 0.0000
# 6 0.0000 0.0000 0.0000 0.0000 0.0000 53.2431
#
#
#
# Elastic Compliance Matrix: (Units=1/GPa)
#
#
# Indices 1 2 3 4 5 6 
#
# 1 0.018191 -0.003663 0.001767 0.000000 0.000000 0.000000
# 2 -0.003663 0.005880 0.000297 0.000000 0.000000 0.000000
# 3 0.001767 0.000297 0.010418 0.000000 0.000000 0.000000
# 4 0.000000 0.000000 0.000000 0.017706 0.000000 0.000000
# 5 0.000000 0.000000 0.000000 0.000000 0.037279 0.000000
# 6 0.000000 0.000000 0.000000 0.000000 0.000000 0.018782
#
#
# Mechanical properties :
#
#
# Convention : Reuss Voigt Hill
#
# Bulk Modulus (GPa) = 31.95899 43.44970 37.70435
# Shear Modulus (GPa) = 41.02307 50.15342 45.58825
#
# Velocity S-wave (km/s) = 3.67643 4.06502 3.87560
# Velocity P-wave (km/s) = 5.34334 6.02894 5.69646
#
# Compressibility (1/GPa) = 0.03129010
#
# Stress axis : x y z
#
# Youngs Moduli (GPa) = 54.97357 170.07268 95.99180
#
# Poissons Ratio (x) = 0.62298 -0.16964
# Poissons Ratio (y) = 0.20137 -0.02850
# Poissons Ratio (z) = -0.09715 -0.05049
#
# Static dielectric constant tensor:
#      x y z
#    x 2.714130 0.000000 0.000000 
#    y 0.000000 2.478990 0.000000 
#    z 0.000000 0.000000 2.473260 
# 
# From -- ./inp_files/8814.got.cif
#   From: 2010.05.17/outbox.cif.g08.bks.cpg/sg61_5_cif.got.tgz:8814.got - 2010.06.03 15:17:17.
