data_PCOD9460340
_publ_section_title
;
Structure prediction by ZEFSAII (Michael W. Deem and Ramdas Pophale) SiO2 
 PCOD9460340
Probable space group: P B C A
;
_chemical_formula_sum "Si O2"
_cell_formula_units_Z 36
_cell_length_a 5.413701
_cell_length_b 13.640688
_cell_length_c 18.486215
_cell_angle_alpha 90.000000
_cell_angle_beta 90.000000
_cell_angle_gamma 90.000000
_cell_volume 1365.144240
_symmetry_space_group_name_H-M "P B C A"
_symmetry_group_IT_number 61
_symmetry_cell_setting 'orthorhombic'
loop_
_space_group_symop_operation_xyz
x,y,z
1/2-x,-y,1/2+z
1/2+x,1/2-y,-z
-x,1/2+y,1/2-z
-x,-y,-z
1/2+x,y,1/2-z
1/2-x,1/2+y,z
x,1/2-y,1/2+z
loop_
_atom_site_type_symbol
_atom_site_label
_atom_site_fract_x
_atom_site_fract_y
_atom_site_fract_z
Si Si1 0.814366 0.350204 0.072016
Si Si2 0.876902 0.636473 0.729300
Si Si3 0.050670 0.628468 0.445552
Si Si4 0.869876 0.858748 0.786190
Si Si5 0.000000 0.500000 0.000000
O O1 0.656942 0.341884 0.144261
O O2 0.905226 0.244573 0.048318
O O3 0.030098 0.429292 0.074520
O O4 0.665296 0.398771 0.003457
O O5 0.630724 0.584030 0.754981
O O6 0.876513 0.738107 0.776301
O O7 0.309399 0.576013 0.456997
O O8 0.943925 0.611880 0.366431
O O9 0.595400 0.887479 0.765338
#
# Coordination Sequence:
#
# PCOD9460340 Si02
#       5
#     8   8   8   8   4
#     4  12  26  46  80 109 159 215 267 349 421 500
#     4  10  22  41  73 112 149 206 270 327 410 494
#     4  12  26  46  80 109 159 215 267 349 421 500
#     4  10  22  41  73 112 149 206 270 327 410 494
#     4  12  30  48  72 120 156 204 292 326 422 508
#
# _framework density 26.370837999999999
#
# number of rings (size 3 to 8) (size 9 to 14) (size 15 to 20)
#    0.000    0.889    6.667    0.667   12.444    0.000 
#    0.000    2.222    0.000    0.000    0.000    0.000 
#    0.000    0.000    0.000    0.000    0.000    0.000 
#
# Total GULP energy -200807.033754 kJ/mol
# GULP energy per Si atom -5577.973160 kJ/mol
# Density = 2.631082 g / cm^3
# Si number density = 26.370838 Si / 1000 Ang^3
#
#
#
# Elastic Constant Matrix: (Units=GPa)
#
#
# Indices 1 2 3 4 5 6 
#
# 1 110.3221 10.6607 24.8307 0.0000 0.0000 0.0000
# 2 10.6607 93.4783 -4.4564 0.0000 0.0000 0.0000
# 3 24.8307 -4.4564 131.3737 0.0000 0.0000 0.0000
# 4 0.0000 0.0000 0.0000 -2.4765 0.0000 0.0000
# 5 0.0000 0.0000 0.0000 0.0000 58.3215 0.0000
# 6 0.0000 0.0000 0.0000 0.0000 0.0000 41.9642
#
#
#
# Elastic Compliance Matrix: (Units=1/GPa)
#
#
# Indices 1 2 3 4 5 6 
#
# 1 0.009596 -0.001183 -0.001854 0.000000 0.000000 0.000000
# 2 -0.001183 0.010861 0.000592 0.000000 0.000000 0.000000
# 3 -0.001854 0.000592 0.007982 0.000000 0.000000 0.000000
# 4 0.000000 0.000000 0.000000 -0.403796 0.000000 0.000000
# 5 0.000000 0.000000 0.000000 0.000000 0.017146 0.000000
# 6 0.000000 0.000000 0.000000 0.000000 0.000000 0.023830
#
#
# Mechanical properties :
#
#
# Convention : Reuss Voigt Hill
#
# Bulk Modulus (GPa) = 42.46317 44.13823 43.30070
# Shear Modulus (GPa) = -15.54525 39.83776 12.14626
#
# Velocity S-wave (km/s) = -2.43057 3.89096 2.14847
# Velocity P-wave (km/s) = 2.87409 6.07947 4.75501
#
# Compressibility (1/GPa) = 0.02354982
#
# Stress axis : x y z
#
# Youngs Moduli (GPa) = 104.21107 92.07440 125.27651
#
# Poissons Ratio (x) = 0.10890 0.23224
# Poissons Ratio (y) = 0.12326 -0.07416
# Poissons Ratio (z) = 0.19319 -0.05450
#
# Static dielectric constant tensor:
#      x y z
#    x 1.480960 0.000000 0.000000 
#    y 0.000000 1.795410 0.000000 
#    z 0.000000 0.000000 2.012340 
# 
# From -- ./inp_files/9934.got.cif
#   From: 2010.05.17/outbox.cif.g08.bks.cpg/sg61_5_cif.got.tgz:9934.got - 2010.06.03 15:17:17.
