data_PCOD9460532
_publ_section_title
;
Structure prediction by ZEFSAII (Michael W. Deem and Ramdas Pophale) SiO2 
 PCOD9460532
Probable space group: P B C A
;
_chemical_formula_sum "Si O2"
_cell_formula_units_Z 52
_cell_length_a 20.628526
_cell_length_b 5.022372
_cell_length_c 18.252364
_cell_angle_alpha 90.000000
_cell_angle_beta 90.000000
_cell_angle_gamma 90.000000
_cell_volume 1891.020318
_symmetry_space_group_name_H-M "P B C A"
_symmetry_group_IT_number 61
_symmetry_cell_setting 'orthorhombic'
loop_
_space_group_symop_operation_xyz
x,y,z
1/2-x,-y,1/2+z
1/2+x,1/2-y,-z
-x,1/2+y,1/2-z
-x,-y,-z
1/2+x,y,1/2-z
1/2-x,1/2+y,z
x,1/2-y,1/2+z
loop_
_atom_site_type_symbol
_atom_site_label
_atom_site_fract_x
_atom_site_fract_y
_atom_site_fract_z
Si Si1 0.712003 0.773411 0.131353
Si Si2 0.576623 0.150052 0.279044
Si Si3 0.705500 0.633665 0.799965
Si Si4 0.570052 0.023320 0.910367
Si Si5 0.465741 0.638521 0.864964
Si Si6 0.500000 0.500000 0.000000
Si Si7 0.203176 0.924949 0.519506
O O1 0.777613 0.957519 0.125289
O O2 0.691975 0.833162 0.212992
O O3 0.676200 0.898567 0.063058
O O4 0.572441 0.426524 0.323282
O O5 0.577899 0.193103 0.191145
O O6 0.637017 0.001784 0.318241
O O7 0.511775 0.004540 0.305951
O O8 0.761116 0.415463 0.817461
O O9 0.640251 0.928978 0.932049
O O10 0.515749 0.794015 0.922231
O O11 0.548752 0.285617 0.953738
O O12 0.442417 0.453358 0.930489
O O13 0.248840 0.178064 0.529375
#
# Coordination Sequence:
#
# PCOD9460532 Si02
#       7
#     8   8   8   8   8   4   8
#     4   8  16  36  56  87 130 173 224 276 344 422
#     4  11  25  43  73  97 147 190 239 303 377 441
#     4  10  23  41  65 103 138 184 241 297 365 449
#     4  11  25  46  70 103 142 186 248 299 366 452
#     4  11  24  49  68 108 139 199 246 312 372 442
#     4  10  26  46  74 106 136 186 254 310 360 436
#     4  10  23  41  67 101 143 190 232 303 374 441
#
# _framework density 27.498381999999999
#
# number of rings (size 3 to 8) (size 9 to 14) (size 15 to 20)
#    0.000    1.846    1.538    0.462    8.615    1.231 
#    0.000    0.000    0.000    0.000    0.000    0.000 
#    0.000    0.000    0.000    0.000    0.000    0.000 
#
# Total GULP energy -289822.393148 kJ/mol
# GULP energy per Si atom -5573.507561 kJ/mol
# Density = 2.743579 g / cm^3
# Si number density = 27.498382 Si / 1000 Ang^3
#
#
#
# Elastic Constant Matrix: (Units=GPa)
#
#
# Indices 1 2 3 4 5 6 
#
# 1 70.9838 35.1027 30.2172 0.0000 0.0000 0.0000
# 2 35.1027 127.4928 11.5205 0.0000 0.0000 0.0000
# 3 30.2172 11.5205 173.9009 0.0000 0.0000 0.0000
# 4 0.0000 0.0000 0.0000 33.6411 0.0000 0.0000
# 5 0.0000 0.0000 0.0000 0.0000 29.2625 0.0000
# 6 0.0000 0.0000 0.0000 0.0000 0.0000 32.0717
#
#
#
# Elastic Compliance Matrix: (Units=1/GPa)
#
#
# Indices 1 2 3 4 5 6 
#
# 1 0.017517 -0.004575 -0.002741 0.000000 0.000000 0.000000
# 2 -0.004575 0.009086 0.000193 0.000000 0.000000 0.000000
# 3 -0.002741 0.000193 0.006214 0.000000 0.000000 0.000000
# 4 0.000000 0.000000 0.000000 0.029726 0.000000 0.000000
# 5 0.000000 0.000000 0.000000 0.000000 0.034173 0.000000
# 6 0.000000 0.000000 0.000000 0.000000 0.000000 0.031180
#
#
# Mechanical properties :
#
#
# Convention : Reuss Voigt Hill
#
# Bulk Modulus (GPa) = 53.84768 58.45091 56.14930
# Shear Modulus (GPa) = 33.70822 38.69754 36.20288
#
# Velocity S-wave (km/s) = 3.50498 3.75542 3.63236
# Velocity P-wave (km/s) = 6.00037 6.33297 6.16891
#
# Compressibility (1/GPa) = 0.01857090
#
# Stress axis : x y z
#
# Youngs Moduli (GPa) = 57.08751 110.06118 160.93138
#
# Poissons Ratio (x) = 0.50356 0.44106
# Poissons Ratio (y) = 0.26119 -0.03107
# Poissons Ratio (z) = 0.15646 -0.02125
#
# Static dielectric constant tensor:
#      x y z
#    x 2.104540 0.000000 0.000000 
#    y 0.000000 1.674290 0.000000 
#    z 0.000000 0.000000 1.784700 
# 
# From -- ./inp_files/10587.got.cif
#   From: 2010.05.17/outbox.cif.g08.bks.cpg/sg61_6_cif.got.tgz:10587.got - 2010.06.03 15:17:17.
