data_PCOD9460668
_publ_section_title
;
Structure prediction by ZEFSAII (Michael W. Deem and Ramdas Pophale) SiO2 
 PCOD9460668
Probable space group: P B C A
;
_chemical_formula_sum "Si O2"
_cell_formula_units_Z 48
_cell_length_a 11.184916
_cell_length_b 10.302091
_cell_length_c 16.273619
_cell_angle_alpha 90.000000
_cell_angle_beta 90.000000
_cell_angle_gamma 90.000000
_cell_volume 1875.176936
_symmetry_space_group_name_H-M "P B C A"
_symmetry_group_IT_number 61
_symmetry_cell_setting 'orthorhombic'
loop_
_space_group_symop_operation_xyz
x,y,z
1/2-x,-y,1/2+z
1/2+x,1/2-y,-z
-x,1/2+y,1/2-z
-x,-y,-z
1/2+x,y,1/2-z
1/2-x,1/2+y,z
x,1/2-y,1/2+z
loop_
_atom_site_type_symbol
_atom_site_label
_atom_site_fract_x
_atom_site_fract_y
_atom_site_fract_z
Si Si1 0.835601 0.727873 0.084144
Si Si2 0.923493 0.888945 0.317282
Si Si3 0.409102 0.336208 0.631718
Si Si4 0.314725 0.330584 0.274003
Si Si5 0.665256 0.607923 0.984079
Si Si6 0.071227 0.369205 0.575249
O O1 0.727022 0.783430 0.136670
O O2 0.951228 0.701888 0.138653
O O3 0.787736 0.604168 0.033726
O O4 0.878189 0.821770 0.012170
O O5 0.806566 0.896790 0.259651
O O6 0.920715 0.747984 0.361196
O O7 0.056811 0.902541 0.278511
O O8 0.909053 0.010152 0.378448
O O9 0.342301 0.290581 0.713875
O O10 0.353903 0.248390 0.559028
O O11 0.641780 0.503283 0.912475
O O12 0.564041 0.594512 0.053718
#
# Coordination Sequence:
#
# PCOD9460668 Si02
#       6
#     8   8   8   8   8   8
#     4  11  24  45  76 114 149 197 255 314 380 451
#     4  12  28  50  80 110 157 200 260 314 385 456
#     4  11  28  48  78 114 151 205 255 313 381 462
#     4  12  27  49  72 117 155 204 248 321 381 454
#     4  10  23  46  75 106 150 192 256 312 380 439
#     4  10  24  45  74 108 143 200 247 317 375 448
#
# _framework density 25.597584999999999
#
# number of rings (size 3 to 8) (size 9 to 14) (size 15 to 20)
#    0.000    1.000    3.333    1.000    4.667    9.333 
#    0.000    0.000    0.000    0.000    0.000    0.000 
#    0.000    0.000    0.000    0.000    0.000    0.000 
#
# Total GULP energy -268476.596314 kJ/mol
# GULP energy per Si atom -5593.262423 kJ/mol
# Density = 2.553932 g / cm^3
# Si number density = 25.597585 Si / 1000 Ang^3
#
#
#
# Elastic Constant Matrix: (Units=GPa)
#
#
# Indices 1 2 3 4 5 6 
#
# 1 175.5456 10.6622 32.1318 0.0000 0.0000 0.0000
# 2 10.6622 69.7162 -11.6054 0.0000 0.0000 0.0000
# 3 32.1318 -11.6054 47.6252 0.0000 0.0000 0.0000
# 4 0.0000 0.0000 0.0000 26.1270 0.0000 0.0000
# 5 0.0000 0.0000 0.0000 0.0000 58.0115 0.0000
# 6 0.0000 0.0000 0.0000 0.0000 0.0000 16.6981
#
#
#
# Elastic Compliance Matrix: (Units=1/GPa)
#
#
# Indices 1 2 3 4 5 6 
#
# 1 0.006722 -0.001859 -0.004988 0.000000 0.000000 0.000000
# 2 -0.001859 0.015464 0.005022 0.000000 0.000000 0.000000
# 3 -0.004988 0.005022 0.025587 0.000000 0.000000 0.000000
# 4 0.000000 0.000000 0.000000 0.038275 0.000000 0.000000
# 5 0.000000 0.000000 0.000000 0.000000 0.017238 0.000000
# 6 0.000000 0.000000 0.000000 0.000000 0.000000 0.059887
#
#
# Mechanical properties :
#
#
# Convention : Reuss Voigt Hill
#
# Bulk Modulus (GPa) = 22.66342 39.47379 31.06860
# Shear Modulus (GPa) = 27.54362 37.61389 32.57876
#
# Velocity S-wave (km/s) = 3.28384 3.83747 3.57140
# Velocity P-wave (km/s) = 4.82194 5.92362 5.40095
#
# Compressibility (1/GPa) = 0.04412397
#
# Stress axis : x y z
#
# Youngs Moduli (GPa) = 148.75440 64.66569 39.08276
#
# Poissons Ratio (x) = 0.12018 0.19496
# Poissons Ratio (y) = 0.27646 -0.19628
# Poissons Ratio (z) = 0.74205 -0.32477
#
# Static dielectric constant tensor:
#      x y z
#    x 2.049530 0.000000 0.000000 
#    y 0.000000 2.106400 0.000000 
#    z 0.000000 0.000000 1.988500 
# 
# From -- ./inp_files/9171.got.cif
#   From: 2010.05.17/outbox.cif.g08.bks.cpg/sg61_5_cif.got.tgz:9171.got - 2010.06.03 15:17:17.
