data_PCOD9460889
_publ_section_title
;
Structure prediction by ZEFSAII (Michael W. Deem and Ramdas Pophale) SiO2 
 PCOD9460889
Probable space group: P B C A
;
_chemical_formula_sum "Si O2"
_cell_formula_units_Z 48
_cell_length_a 8.647089
_cell_length_b 26.871282
_cell_length_c 7.383523
_cell_angle_alpha 90.000000
_cell_angle_beta 90.000000
_cell_angle_gamma 90.000000
_cell_volume 1715.623347
_symmetry_space_group_name_H-M "P B C A"
_symmetry_group_IT_number 61
_symmetry_cell_setting 'orthorhombic'
loop_
_space_group_symop_operation_xyz
x,y,z
1/2-x,-y,1/2+z
1/2+x,1/2-y,-z
-x,1/2+y,1/2-z
-x,-y,-z
1/2+x,y,1/2-z
1/2-x,1/2+y,z
x,1/2-y,1/2+z
loop_
_atom_site_type_symbol
_atom_site_label
_atom_site_fract_x
_atom_site_fract_y
_atom_site_fract_z
Si Si1 0.640947 0.751714 0.097903
Si Si2 0.062469 0.648612 0.712983
Si Si3 0.337083 0.808094 0.687260
Si Si4 0.195700 0.941178 0.017006
Si Si5 0.409745 0.517897 0.777891
Si Si6 0.728825 0.392124 0.021254
O O1 0.605145 0.794642 0.248720
O O2 0.794040 0.717550 0.125593
O O3 0.495664 0.714327 0.110745
O O4 0.693596 0.786487 0.931512
O O5 0.156286 0.615814 0.563610
O O6 0.103673 0.620798 0.901969
O O7 0.885854 0.640652 0.654578
O O8 0.318727 0.867341 0.668156
O O9 0.361059 0.960723 0.083917
O O10 0.083159 0.970791 0.160702
O O11 0.141525 0.961887 0.823711
O O12 0.319533 0.552903 0.926114
#
# Coordination Sequence:
#
# PCOD9460889 Si02
#       6
#     8   8   8   8   8   8
#     4  11  21  36  56  81 108 143 180 223 267 319
#     4   9  17  32  54  74 100 137 175 207 255 317
#     4  11  22  36  55  79 110 141 180 221 269 319
#     4   9  18  33  54  78 103 134 172 216 260 312
#     4   9  18  34  54  77 105 135 172 216 263 311
#     4   9  18  33  53  77 104 137 175 217 260 315
#
# _framework density 27.978171
#
# number of rings (size 3 to 8) (size 9 to 14) (size 15 to 20)
#    0.000    2.333    0.000    4.000    0.000    0.667 
#    0.000    6.667    0.000    4.000    0.000    0.000 
#    0.000    0.000    0.000    0.000    0.000    0.000 
#
# Total GULP energy -268014.651181 kJ/mol
# GULP energy per Si atom -5583.638566 kJ/mol
# Density = 2.791449 g / cm^3
# Si number density = 27.978171 Si / 1000 Ang^3
#
#
#
# Elastic Constant Matrix: (Units=GPa)
#
#
# Indices 1 2 3 4 5 6 
#
# 1 92.8333 1.5047 -3.8214 0.0000 0.0000 0.0000
# 2 1.5047 129.7962 -7.3666 0.0000 0.0000 0.0000
# 3 -3.8214 -7.3666 26.8005 0.0000 0.0000 0.0000
# 4 0.0000 0.0000 0.0000 37.0999 0.0000 0.0000
# 5 0.0000 0.0000 0.0000 0.0000 35.3551 0.0000
# 6 0.0000 0.0000 0.0000 0.0000 0.0000 35.2333
#
#
#
# Elastic Compliance Matrix: (Units=1/GPa)
#
#
# Indices 1 2 3 4 5 6 
#
# 1 0.010836 -0.000039 0.001534 0.000000 0.000000 0.000000
# 2 -0.000039 0.007827 0.002146 0.000000 0.000000 0.000000
# 3 0.001534 0.002146 0.038121 0.000000 0.000000 0.000000
# 4 0.000000 0.000000 0.000000 0.026954 0.000000 0.000000
# 5 0.000000 0.000000 0.000000 0.000000 0.028284 0.000000
# 6 0.000000 0.000000 0.000000 0.000000 0.000000 0.028382
#
#
# Mechanical properties :
#
#
# Convention : Reuss Voigt Hill
#
# Bulk Modulus (GPa) = 15.60864 25.56261 20.58563
# Shear Modulus (GPa) = 32.36729 38.81187 35.58958
#
# Velocity S-wave (km/s) = 3.40498 3.72858 3.57045
# Velocity P-wave (km/s) = 4.58797 5.26240 4.93672
#
# Compressibility (1/GPa) = 0.06406707
#
# Stress axis : x y z
#
# Youngs Moduli (GPa) = 92.28682 127.76913 26.23207
#
# Poissons Ratio (x) = 0.00492 -0.04025
# Poissons Ratio (y) = 0.00356 -0.05629
# Poissons Ratio (z) = -0.14161 -0.27417
#
# Static dielectric constant tensor:
#      x y z
#    x 2.146990 0.000000 0.000000 
#    y 0.000000 2.141500 0.000000 
#    z 0.000000 0.000000 2.466700 
# 
# From -- ./inp_files/1900.got.cif
#   From: 2010.05.17/outbox.cif.g08.bks.cpg/sg61_1_cif.got.tgz:1900.got - 2010.06.03 15:17:17.
