data_PCOD9460017
_publ_section_title
;
Structure prediction by ZEFSAII (Michael W. Deem and Ramdas Pophale) SiO2 
 PCOD9460017
Probable space group: P B C A
;
_chemical_formula_sum "Si O2"
_cell_formula_units_Z 64
_cell_length_a 14.459103
_cell_length_b 9.272868
_cell_length_c 20.979059
_cell_angle_alpha 90.000000
_cell_angle_beta 90.000000
_cell_angle_gamma 90.000000
_cell_volume 2812.816710
_symmetry_space_group_name_H-M "P B C A"
_symmetry_group_IT_number 61
_symmetry_cell_setting 'orthorhombic'
loop_
_space_group_symop_operation_xyz
x,y,z
1/2-x,-y,1/2+z
1/2+x,1/2-y,-z
-x,1/2+y,1/2-z
-x,-y,-z
1/2+x,y,1/2-z
1/2-x,1/2+y,z
x,1/2-y,1/2+z
loop_
_atom_site_type_symbol
_atom_site_label
_atom_site_fract_x
_atom_site_fract_y
_atom_site_fract_z
Si Si1 0.318179 0.612645 0.710272
Si Si2 0.128254 0.399195 0.535388
Si Si3 0.969030 0.741202 0.212619
Si Si4 0.458951 0.970697 0.399494
Si Si5 0.336704 0.181373 0.160902
Si Si6 0.317259 0.275442 0.889554
Si Si7 0.182014 0.020423 0.317191
Si Si8 0.722922 0.812904 0.464501
O O1 0.417512 0.669841 0.732329
O O2 0.254928 0.745202 0.689052
O O3 0.327476 0.489580 0.657712
O O4 0.258179 0.533079 0.765798
O O5 0.077255 0.409768 0.467360
O O6 0.210129 0.516406 0.533126
O O7 0.174761 0.246868 0.547773
O O8 0.058157 0.456906 0.588307
O O9 0.911621 0.591640 0.209621
O O10 0.078507 0.713658 0.209098
O O11 0.955235 0.843302 0.150895
O O12 0.394830 0.103598 0.378939
O O13 0.343719 0.250247 0.090731
O O14 0.227477 0.350017 0.858110
O O15 0.336474 0.121139 0.858997
O O16 0.304671 0.259486 0.965201
#
# Coordination Sequence:
#
# PCOD9460017 Si02
#       8
#     8   8   8   8   8   8   8   8
#     4  12  26  48  69  95 137 182 231 290 332 401
#     4  10  21  40  66  96 142 177 221 266 353 408
#     4  12  25  46  71  99 136 176 235 288 339 408
#     4  10  21  41  66 102 133 178 219 283 338 416
#     4  12  28  47  69 101 137 183 234 279 350 408
#     4  11  21  40  73 102 137 171 224 276 354 399
#     4  12  22  44  70 103 130 177 230 284 335 406
#     4  11  22  42  66  99 135 181 215 279 342 420
#
# _framework density 22.752994000000001
#
# number of rings (size 3 to 8) (size 9 to 14) (size 15 to 20)
#    0.000    0.750    5.000    3.000    1.750    0.000 
#    4.500    0.625    0.000    0.000    0.000    0.000 
#    0.000    0.000    0.000    0.000    0.000    0.000 
#
# Total GULP energy -358067.749625 kJ/mol
# GULP energy per Si atom -5594.808588 kJ/mol
# Density = 2.270121 g / cm^3
# Si number density = 22.752994 Si / 1000 Ang^3
#
#
#
# Elastic Constant Matrix: (Units=GPa)
#
#
# Indices 1 2 3 4 5 6 
#
# 1 70.5068 12.0025 -19.6621 0.0000 0.0000 0.0000
# 2 12.0025 62.6059 -3.4023 0.0000 0.0000 0.0000
# 3 -19.6621 -3.4023 46.5900 0.0000 0.0000 0.0000
# 4 0.0000 0.0000 0.0000 31.2541 0.0000 0.0000
# 5 0.0000 0.0000 0.0000 0.0000 23.0137 0.0000
# 6 0.0000 0.0000 0.0000 0.0000 0.0000 37.3961
#
#
#
# Elastic Compliance Matrix: (Units=1/GPa)
#
#
# Indices 1 2 3 4 5 6 
#
# 1 0.016551 -0.002805 0.006780 0.000000 0.000000 0.000000
# 2 -0.002805 0.016512 0.000022 0.000000 0.000000 0.000000
# 3 0.006780 0.000022 0.024327 0.000000 0.000000 0.000000
# 4 0.000000 0.000000 0.000000 0.031996 0.000000 0.000000
# 5 0.000000 0.000000 0.000000 0.000000 0.043452 0.000000
# 6 0.000000 0.000000 0.000000 0.000000 0.000000 0.026741
#
#
# Mechanical properties :
#
#
# Convention : Reuss Voigt Hill
#
# Bulk Modulus (GPa) = 15.29394 17.50876 16.40135
# Shear Modulus (GPa) = 28.83863 31.05041 29.94452
#
# Velocity S-wave (km/s) = 3.56401 3.69816 3.63170
# Velocity P-wave (km/s) = 4.86544 5.09382 4.98094
#
# Compressibility (1/GPa) = 0.06538539
#
# Stress axis : x y z
#
# Youngs Moduli (GPa) = 60.41838 60.56261 41.10684
#
# Poissons Ratio (x) = 0.16986 -0.27871
# Poissons Ratio (y) = 0.16945 -0.00091
# Poissons Ratio (z) = -0.40965 -0.00134
#
# Static dielectric constant tensor:
#      x y z
#    x 1.877150 0.000000 0.000000 
#    y 0.000000 1.814160 0.000000 
#    z 0.000000 0.000000 1.877830 
# 
# From -- ./inp_files/4332.got.cif
#   From: 2010.05.17/outbox.cif.g08.bks.cpg/sg61_3_cif.got.tgz:4332.got - 2010.06.03 15:17:17.
