data_PCOD9460302
_publ_section_title
;
Structure prediction by ZEFSAII (Michael W. Deem and Ramdas Pophale) SiO2 
 PCOD9460302
Probable space group: P B C A
;
_chemical_formula_sum "Si O2"
_cell_formula_units_Z 64
_cell_length_a 15.231661
_cell_length_b 21.426893
_cell_length_c 8.110889
_cell_angle_alpha 90.000000
_cell_angle_beta 90.000000
_cell_angle_gamma 90.000000
_cell_volume 2647.127893
_symmetry_space_group_name_H-M "P B C A"
_symmetry_group_IT_number 61
_symmetry_cell_setting 'orthorhombic'
loop_
_space_group_symop_operation_xyz
x,y,z
1/2-x,-y,1/2+z
1/2+x,1/2-y,-z
-x,1/2+y,1/2-z
-x,-y,-z
1/2+x,y,1/2-z
1/2-x,1/2+y,z
x,1/2-y,1/2+z
loop_
_atom_site_type_symbol
_atom_site_label
_atom_site_fract_x
_atom_site_fract_y
_atom_site_fract_z
Si Si1 0.702624 0.154936 0.744818
Si Si2 0.264210 0.725596 0.096123
Si Si3 0.913077 0.335273 0.876063
Si Si4 0.886778 0.094598 0.722008
Si Si5 0.643861 0.962304 0.702671
Si Si6 0.664132 0.471210 0.552085
Si Si7 0.948377 0.922058 0.071085
Si Si8 0.095905 0.357283 0.774257
O O1 0.723282 0.197082 0.583933
O O2 0.698560 0.205078 0.889582
O O3 0.788340 0.112959 0.771379
O O4 0.619756 0.114909 0.691174
O O5 0.161095 0.717789 0.137378
O O6 0.320876 0.682480 0.218450
O O7 0.885273 0.393385 0.758060
O O8 0.010956 0.317065 0.823361
O O9 0.911460 0.363537 0.061880
O O10 0.883089 0.022975 0.664816
O O11 0.956571 0.099195 0.866831
O O12 0.735806 0.962544 0.608049
O O13 0.575180 0.005408 0.604137
O O14 0.659855 0.998693 0.873630
O O15 0.615893 0.406112 0.580761
O O16 0.926792 0.898859 0.887849
#
# Coordination Sequence:
#
# PCOD9460302 Si02
#       8
#     8   8   8   8   8   8   8   8
#     4  10  23  43  62  84 119 157 201 251 298 349
#     4  10  23  43  62  84 119 157 201 251 298 349
#     4  10  22  41  61  87 123 158 194 244 300 353
#     4  10  22  41  61  87 123 158 194 244 300 353
#     4  11  21  37  62  90 124 160 195 241 301 359
#     4  11  21  37  62  90 124 160 195 241 301 359
#     4  11  23  40  61  91 124 156 199 247 295 358
#     4  11  23  40  61  91 124 156 199 247 295 358
#
# _framework density 24.177146
#
# number of rings (size 3 to 8) (size 9 to 14) (size 15 to 20)
#    0.000    1.500    2.500    2.250    0.000    9.000 
#    0.000    5.000    0.000    0.000    0.000    0.000 
#    0.000    0.000    0.000    0.000    0.000    0.000 
#
# Total GULP energy -358712.705174 kJ/mol
# GULP energy per Si atom -5604.886018 kJ/mol
# Density = 2.412212 g / cm^3
# Si number density = 24.177146 Si / 1000 Ang^3
#
#
#
# Elastic Constant Matrix: (Units=GPa)
#
#
# Indices 1 2 3 4 5 6 
#
# 1 91.9173 -2.2976 20.3289 0.0000 0.0000 0.0000
# 2 -2.2976 55.3990 8.6077 0.0000 0.0000 0.0000
# 3 20.3289 8.6077 81.0686 0.0000 0.0000 0.0000
# 4 0.0000 0.0000 0.0000 36.1997 0.0000 0.0000
# 5 0.0000 0.0000 0.0000 0.0000 34.7459 0.0000
# 6 0.0000 0.0000 0.0000 0.0000 0.0000 13.3384
#
#
#
# Elastic Compliance Matrix: (Units=1/GPa)
#
#
# Indices 1 2 3 4 5 6 
#
# 1 0.011567 0.000946 -0.003001 0.000000 0.000000 0.000000
# 2 0.000946 0.018431 -0.002194 0.000000 0.000000 0.000000
# 3 -0.003001 -0.002194 0.013321 0.000000 0.000000 0.000000
# 4 0.000000 0.000000 0.000000 0.027625 0.000000 0.000000
# 5 0.000000 0.000000 0.000000 0.000000 0.028780 0.000000
# 6 0.000000 0.000000 0.000000 0.000000 0.000000 0.074972
#
#
# Mechanical properties :
#
#
# Convention : Reuss Voigt Hill
#
# Bulk Modulus (GPa) = 28.71897 31.29587 30.00742
# Shear Modulus (GPa) = 25.66736 30.30652 27.98694
#
# Velocity S-wave (km/s) = 3.26181 3.54435 3.40601
# Velocity P-wave (km/s) = 5.10786 5.45182 5.28264
#
# Compressibility (1/GPa) = 0.03482019
#
# Stress axis : x y z
#
# Youngs Moduli (GPa) = 86.45512 54.25635 75.07099
#
# Poissons Ratio (x) = -0.05133 0.22528
# Poissons Ratio (y) = -0.08179 0.16472
# Poissons Ratio (z) = 0.25945 0.11905
#
# Static dielectric constant tensor:
#      x y z
#    x 1.899720 0.000000 0.000000 
#    y 0.000000 1.906360 0.000000 
#    z 0.000000 0.000000 1.934810 
# 
# From -- ./inp_files/3210.got.cif
#   From: 2010.05.17/outbox.cif.g08.bks.cpg/sg61_2_cif.got.tgz:3210.got - 2010.06.03 15:17:17.
