data_PCOD9460436
_publ_section_title
;
Structure prediction by ZEFSAII (Michael W. Deem and Ramdas Pophale) SiO2 
 PCOD9460436
Probable space group: P B C A
;
_chemical_formula_sum "Si O2"
_cell_formula_units_Z 48
_cell_length_a 13.455921
_cell_length_b 10.992419
_cell_length_c 13.175135
_cell_angle_alpha 90.000000
_cell_angle_beta 90.000000
_cell_angle_gamma 90.000000
_cell_volume 1948.775346
_symmetry_space_group_name_H-M "P B C A"
_symmetry_group_IT_number 61
_symmetry_cell_setting 'orthorhombic'
loop_
_space_group_symop_operation_xyz
x,y,z
1/2-x,-y,1/2+z
1/2+x,1/2-y,-z
-x,1/2+y,1/2-z
-x,-y,-z
1/2+x,y,1/2-z
1/2-x,1/2+y,z
x,1/2-y,1/2+z
loop_
_atom_site_type_symbol
_atom_site_label
_atom_site_fract_x
_atom_site_fract_y
_atom_site_fract_z
Si Si1 0.000512 0.394853 0.413435
Si Si2 0.868313 0.457460 0.728286
Si Si3 0.522485 0.506132 0.620781
Si Si4 0.587577 0.234264 0.926310
Si Si5 0.815758 0.522645 0.372567
Si Si6 0.769747 0.917943 0.564333
O O1 0.894802 0.413709 0.360153
O O2 0.000000 0.500000 0.500000
O O3 0.087352 0.431303 0.337110
O O4 0.019395 0.276856 0.479076
O O5 0.816019 0.374155 0.641682
O O6 0.957868 0.421240 0.803748
O O7 0.022861 0.140645 0.639091
O O8 0.500000 0.500000 0.500000
O O9 0.278681 0.490531 0.697863
O O10 0.638333 0.475240 0.627079
O O11 0.626576 0.349542 0.863288
O O12 0.682048 0.175965 0.984679
O O13 0.776718 0.517081 0.488452
#
# Coordination Sequence:
#
# PCOD9460436 Si02
#       6
#     8   8   8   8   8   8
#     4  10  22  44  66  98 141 174 223 290 331 396
#     4  12  22  44  74  96 140 188 218 288 348 392
#     4  10  22  44  66  98 141 174 223 290 331 396
#     4  10  22  44  70 100 142 182 226 282 346 396
#     4  11  23  45  71  98 140 178 229 283 337 408
#     4  11  23  45  71  98 140 178 229 283 337 408
#
# _framework density 24.630853999999999
#
# number of rings (size 3 to 8) (size 9 to 14) (size 15 to 20)
#    0.000    1.333    6.667    1.000    0.000    2.667 
#    0.000    1.667    0.000    0.000    0.000    0.000 
#    0.000    0.000    0.000    0.000    0.000    0.000 
#
# Total GULP energy -267935.084993 kJ/mol
# GULP energy per Si atom -5581.980937 kJ/mol
# Density = 2.457479 g / cm^3
# Si number density = 24.630854 Si / 1000 Ang^3
#
#
#
# Elastic Constant Matrix: (Units=GPa)
#
#
# Indices 1 2 3 4 5 6 
#
# 1 146.0225 25.0493 48.3009 0.0000 0.0000 0.0000
# 2 25.0493 54.5562 12.9514 0.0000 0.0000 0.0000
# 3 48.3009 12.9514 120.4560 0.0000 0.0000 0.0000
# 4 0.0000 0.0000 0.0000 24.4129 0.0000 0.0000
# 5 0.0000 0.0000 0.0000 0.0000 72.8010 0.0000
# 6 0.0000 0.0000 0.0000 0.0000 0.0000 22.7022
#
#
#
# Elastic Compliance Matrix: (Units=1/GPa)
#
#
# Indices 1 2 3 4 5 6 
#
# 1 0.008387 -0.003132 -0.003026 0.000000 0.000000 0.000000
# 2 -0.003132 0.019980 -0.000892 0.000000 0.000000 0.000000
# 3 -0.003026 -0.000892 0.009611 0.000000 0.000000 0.000000
# 4 0.000000 0.000000 0.000000 0.040962 0.000000 0.000000
# 5 0.000000 0.000000 0.000000 0.000000 0.013736 0.000000
# 6 0.000000 0.000000 0.000000 0.000000 0.000000 0.044048
#
#
# Mechanical properties :
#
#
# Convention : Reuss Voigt Hill
#
# Bulk Modulus (GPa) = 41.88270 54.84866 48.36568
# Shear Modulus (GPa) = 31.48935 39.63211 35.56073
#
# Velocity S-wave (km/s) = 3.57942 4.01564 3.80379
# Velocity P-wave (km/s) = 5.84158 6.61945 6.24264
#
# Compressibility (1/GPa) = 0.02387621
#
# Stress axis : x y z
#
# Youngs Moduli (GPa) = 119.23868 50.05081 104.04608
#
# Poissons Ratio (x) = 0.15677 0.31485
# Poissons Ratio (y) = 0.37349 0.09283
# Poissons Ratio (z) = 0.36083 0.04466
#
# Static dielectric constant tensor:
#      x y z
#    x 2.006470 0.000000 0.000000 
#    y 0.000000 2.005830 0.000000 
#    z 0.000000 0.000000 2.016280 
# 
# From -- ./inp_files/7560.got.cif
#   From: 2010.05.17/outbox.cif.g08.bks.cpg/sg61_4_cif.got.tgz:7560.got - 2010.06.03 15:17:17.
