data_PCOD9460642
_publ_section_title
;
Structure prediction by ZEFSAII (Michael W. Deem and Ramdas Pophale) SiO2 
 PCOD9460642
Probable space group: P B C A
;
_chemical_formula_sum "Si O2"
_cell_formula_units_Z 40
_cell_length_a 20.640435
_cell_length_b 9.374736
_cell_length_c 8.477573
_cell_angle_alpha 90.000000
_cell_angle_beta 90.000000
_cell_angle_gamma 90.000000
_cell_volume 1640.398753
_symmetry_space_group_name_H-M "P B C A"
_symmetry_group_IT_number 61
_symmetry_cell_setting 'orthorhombic'
loop_
_space_group_symop_operation_xyz
x,y,z
1/2-x,-y,1/2+z
1/2+x,1/2-y,-z
-x,1/2+y,1/2-z
-x,-y,-z
1/2+x,y,1/2-z
1/2-x,1/2+y,z
x,1/2-y,1/2+z
loop_
_atom_site_type_symbol
_atom_site_label
_atom_site_fract_x
_atom_site_fract_y
_atom_site_fract_z
Si Si1 0.996714 0.334520 0.042551
Si Si2 0.243923 0.707717 0.712011
Si Si3 0.379484 0.394718 0.641074
Si Si4 0.539416 0.406599 0.126408
Si Si5 0.293990 0.565808 0.405296
O O1 0.999096 0.337470 0.229123
O O2 0.929046 0.296320 0.958935
O O3 0.000000 0.500000 0.000000
O O4 0.054020 0.234821 0.975910
O O5 0.178578 0.800914 0.710236
O O6 0.252253 0.646563 0.537466
O O7 0.238940 0.572349 0.826722
O O8 0.300607 0.815735 0.768155
O O9 0.411000 0.490043 0.781282
O O10 0.352226 0.502660 0.507995
O O11 0.500000 0.500000 0.000000
#
# Coordination Sequence:
#
# PCOD9460642 Si02
#       5
#     8   8   8   8   8
#     4  10  23  45  71 108 145 192 253 313 370 464
#     4  12  25  49  72 115 153 200 258 322 381 477
#     4  11  26  46  77 109 150 210 245 321 402 445
#     4  11  25  46  74 108 148 194 261 314 382 467
#     4  12  25  46  77 107 156 196 262 314 388 475
#
# _framework density 24.384315999999998
#
# number of rings (size 3 to 8) (size 9 to 14) (size 15 to 20)
#    0.000    0.800    4.000    2.400    5.600    3.200 
#    0.000    0.000    0.000    0.000    0.000    0.000 
#    0.000    0.000    0.000    0.000    0.000    0.000 
#
# Total GULP energy -223367.876094 kJ/mol
# GULP energy per Si atom -5584.196902 kJ/mol
# Density = 2.432882 g / cm^3
# Si number density = 24.384316 Si / 1000 Ang^3
#
#
#
# Elastic Constant Matrix: (Units=GPa)
#
#
# Indices 1 2 3 4 5 6 
#
# 1 51.2854 19.3444 27.5429 0.0000 0.0000 0.0000
# 2 19.3444 142.0079 53.6778 0.0000 0.0000 0.0000
# 3 27.5429 53.6778 135.9308 0.0000 0.0000 0.0000
# 4 0.0000 0.0000 0.0000 53.9309 0.0000 0.0000
# 5 0.0000 0.0000 0.0000 0.0000 49.3600 0.0000
# 6 0.0000 0.0000 0.0000 0.0000 0.0000 45.2825
#
#
#
# Elastic Compliance Matrix: (Units=1/GPa)
#
#
# Indices 1 2 3 4 5 6 
#
# 1 0.022168 -0.001554 -0.003878 0.000000 0.000000 0.000000
# 2 -0.001554 0.008386 -0.002997 0.000000 0.000000 0.000000
# 3 -0.003878 -0.002997 0.009326 0.000000 0.000000 0.000000
# 4 0.000000 0.000000 0.000000 0.018542 0.000000 0.000000
# 5 0.000000 0.000000 0.000000 0.000000 0.020259 0.000000
# 6 0.000000 0.000000 0.000000 0.000000 0.000000 0.022084
#
#
# Mechanical properties :
#
#
# Convention : Reuss Voigt Hill
#
# Bulk Modulus (GPa) = 43.43616 58.92827 51.18222
# Shear Modulus (GPa) = 39.90534 44.95861 42.43197
#
# Velocity S-wave (km/s) = 4.04978 4.29855 4.17602
# Velocity P-wave (km/s) = 6.30233 6.98968 6.65489
#
# Compressibility (1/GPa) = 0.02302229
#
# Stress axis : x y z
#
# Youngs Moduli (GPa) = 45.11094 119.24207 107.22814
#
# Poissons Ratio (x) = 0.18528 0.41584
# Poissons Ratio (y) = 0.07009 0.32135
# Poissons Ratio (z) = 0.17495 0.35735
#
# Static dielectric constant tensor:
#      x y z
#    x 2.064040 0.000000 0.000000 
#    y 0.000000 1.997880 0.000000 
#    z 0.000000 0.000000 1.972180 
# 
# From -- ./inp_files/4166.got.cif
#   From: 2010.05.17/outbox.cif.g08.bks.cpg/sg61_3_cif.got.tgz:4166.got - 2010.06.03 15:17:17.
