data_PCOD9460006
_publ_section_title
;
Structure prediction by ZEFSAII (Michael W. Deem and Ramdas Pophale) SiO2 
 PCOD9460006
Probable space group: P B C A
;
_chemical_formula_sum "Si O2"
_cell_formula_units_Z 40
_cell_length_a 22.362520
_cell_length_b 5.095582
_cell_length_c 13.878758
_cell_angle_alpha 90.000000
_cell_angle_beta 90.000000
_cell_angle_gamma 90.000000
_cell_volume 1581.485229
_symmetry_space_group_name_H-M "P B C A"
_symmetry_group_IT_number 61
_symmetry_cell_setting 'orthorhombic'
loop_
_space_group_symop_operation_xyz
x,y,z
1/2-x,-y,1/2+z
1/2+x,1/2-y,-z
-x,1/2+y,1/2-z
-x,-y,-z
1/2+x,y,1/2-z
1/2-x,1/2+y,z
x,1/2-y,1/2+z
loop_
_atom_site_type_symbol
_atom_site_label
_atom_site_fract_x
_atom_site_fract_y
_atom_site_fract_z
Si Si1 0.926742 0.115888 0.615929
Si Si2 0.788236 0.342041 0.074419
Si Si3 0.550030 0.242761 0.947238
Si Si4 0.588374 0.722773 0.829234
Si Si5 0.282899 0.094666 0.157299
O O1 0.933139 0.845011 0.555255
O O2 0.857644 0.190718 0.600836
O O3 0.940547 0.124874 0.729526
O O4 0.979188 0.289094 0.567106
O O5 0.753321 0.602120 0.106645
O O6 0.788768 0.373021 0.958208
O O7 0.586980 0.479839 0.902694
O O8 0.562221 0.981367 0.881288
O O9 0.655434 0.801842 0.802836
O O10 0.230763 0.297442 0.183300
#
# Coordination Sequence:
#
# PCOD9460006 Si02
#       5
#     8   8   8   8   8
#     4  11  26  46  73 102 139 185 232 287 347 418
#     4  10  23  40  67  98 133 176 224 279 340 405
#     4  11  27  46  69 104 141 181 231 289 351 406
#     4  12  25  45  71 101 139 183 235 285 349 414
#     4  10  21  40  65  95 135 179 220 282 342 399
#
# _framework density 25.292681000000002
#
# number of rings (size 3 to 8) (size 9 to 14) (size 15 to 20)
#    0.000    1.200    2.000    2.400    5.600    9.600 
#    0.000    0.000    0.000    0.000    0.000    0.000 
#    0.000    0.000    0.000    0.000    0.000    0.000 
#
# Total GULP energy -224007.163075 kJ/mol
# GULP energy per Si atom -5600.179077 kJ/mol
# Density = 2.523511 g / cm^3
# Si number density = 25.292681 Si / 1000 Ang^3
#
#
#
# Elastic Constant Matrix: (Units=GPa)
#
#
# Indices 1 2 3 4 5 6 
#
# 1 129.5070 23.9629 -0.8960 0.0000 0.0000 0.0000
# 2 23.9629 121.9437 39.9918 0.0000 0.0000 0.0000
# 3 -0.8960 39.9918 127.5532 0.0000 0.0000 0.0000
# 4 0.0000 0.0000 0.0000 17.1649 0.0000 0.0000
# 5 0.0000 0.0000 0.0000 0.0000 30.9557 0.0000
# 6 0.0000 0.0000 0.0000 0.0000 0.0000 39.5220
#
#
#
# Elastic Compliance Matrix: (Units=1/GPa)
#
#
# Indices 1 2 3 4 5 6 
#
# 1 0.008056 -0.001785 0.000616 0.000000 0.000000 0.000000
# 2 -0.001785 0.009536 -0.003002 0.000000 0.000000 0.000000
# 3 0.000616 -0.003002 0.008786 0.000000 0.000000 0.000000
# 4 0.000000 0.000000 0.000000 0.058259 0.000000 0.000000
# 5 0.000000 0.000000 0.000000 0.000000 0.032304 0.000000
# 6 0.000000 0.000000 0.000000 0.000000 0.000000 0.025302
#
#
# Mechanical properties :
#
#
# Convention : Reuss Voigt Hill
#
# Bulk Modulus (GPa) = 55.44735 56.12459 55.78597
# Shear Modulus (GPa) = 31.92909 38.59152 35.26031
#
# Velocity S-wave (km/s) = 3.55686 3.91038 3.73780
# Velocity P-wave (km/s) = 6.23203 6.52889 6.38219
#
# Compressibility (1/GPa) = 0.01803513
#
# Stress axis : x y z
#
# Youngs Moduli (GPa) = 124.12834 104.86634 113.82359
#
# Poissons Ratio (x) = 0.18721 -0.07015
# Poissons Ratio (y) = 0.22160 0.34174
# Poissons Ratio (z) = -0.07650 0.31485
#
# Static dielectric constant tensor:
#      x y z
#    x 1.995560 0.000000 0.000000 
#    y 0.000000 2.000560 0.000000 
#    z 0.000000 0.000000 2.066160 
# 
# From -- ./inp_files/8444.got.cif
#   From: 2010.05.17/outbox.cif.g08.bks.cpg/sg61_5_cif.got.tgz:8444.got - 2010.06.03 15:17:17.
