data_PCOD9460200
_publ_section_title
;
Structure prediction by ZEFSAII (Michael W. Deem and Ramdas Pophale) SiO2 
 PCOD9460200
Probable space group: P B C A
;
_chemical_formula_sum "Si O2"
_cell_formula_units_Z 60
_cell_length_a 5.367520
_cell_length_b 23.517646
_cell_length_c 17.912377
_cell_angle_alpha 90.000000
_cell_angle_beta 90.000000
_cell_angle_gamma 90.000000
_cell_volume 2261.105058
_symmetry_space_group_name_H-M "P B C A"
_symmetry_group_IT_number 61
_symmetry_cell_setting 'orthorhombic'
loop_
_space_group_symop_operation_xyz
x,y,z
1/2-x,-y,1/2+z
1/2+x,1/2-y,-z
-x,1/2+y,1/2-z
-x,-y,-z
1/2+x,y,1/2-z
1/2-x,1/2+y,z
x,1/2-y,1/2+z
loop_
_atom_site_type_symbol
_atom_site_label
_atom_site_fract_x
_atom_site_fract_y
_atom_site_fract_z
Si Si1 0.524366 0.653393 0.211649
Si Si2 0.000000 0.500000 0.500000
Si Si3 0.540475 0.970524 0.768322
Si Si4 0.448333 0.253840 0.383495
Si Si5 0.521812 0.071216 0.064166
Si Si6 0.357929 0.907064 0.442311
Si Si7 0.745495 0.681439 0.995453
Si Si8 0.173307 0.857944 0.295510
O O1 0.809205 0.668699 0.229679
O O2 0.526025 0.585070 0.212810
O O3 0.453870 0.692067 0.141971
O O4 0.226595 0.538188 0.455161
O O5 0.953379 0.457467 0.424654
O O6 0.787200 0.002960 0.746408
O O7 0.542268 0.943363 0.851023
O O8 0.652834 0.295450 0.417566
O O9 0.274489 0.236001 0.451850
O O10 0.325526 0.290706 0.318623
O O11 0.580241 0.135895 0.038739
O O12 0.272911 0.058680 0.012850
O O13 0.495681 0.852749 0.474980
O O14 0.185958 0.891048 0.374423
O O15 0.423882 0.868877 0.249904
#
# Coordination Sequence:
#
# PCOD9460200 Si02
#       8
#     8   4   8   8   8   8   8   8
#     4  10  22  38  60  91 139 191 245 283 357 435
#     4  10  26  48  86 106 136 182 252 318 408 472
#     4  10  23  40  68 105 149 193 233 295 380 448
#     4  12  24  42  65 107 150 211 255 310 366 457
#     4  11  24  47  77 106 148 188 251 322 385 475
#     4  11  25  50  76 111 142 196 261 324 403 460
#     4  11  25  40  69 107 154 197 262 321 367 447
#     4  12  27  48  74 106 158 211 261 318 375 458
#
# _framework density 26.535699000000001
#
# number of rings (size 3 to 8) (size 9 to 14) (size 15 to 20)
#    0.000    1.067    1.333    4.400    9.333    2.133 
#    0.000    1.333    0.000    0.000    0.000    0.000 
#    0.000    0.000    0.000    0.000    0.000    0.000 
#
# Total GULP energy -335001.338468 kJ/mol
# GULP energy per Si atom -5583.355641 kJ/mol
# Density = 2.647530 g / cm^3
# Si number density = 26.535699 Si / 1000 Ang^3
#
#
#
# Elastic Constant Matrix: (Units=GPa)
#
#
# Indices 1 2 3 4 5 6 
#
# 1 143.2637 26.8147 78.6918 0.0000 0.0000 0.0000
# 2 26.8147 118.9520 27.9180 0.0000 0.0000 0.0000
# 3 78.6918 27.9180 99.5454 0.0000 0.0000 0.0000
# 4 0.0000 0.0000 0.0000 29.7419 0.0000 0.0000
# 5 0.0000 0.0000 0.0000 0.0000 47.1944 0.0000
# 6 0.0000 0.0000 0.0000 0.0000 0.0000 31.5894
#
#
#
# Elastic Compliance Matrix: (Units=1/GPa)
#
#
# Indices 1 2 3 4 5 6 
#
# 1 0.012368 -0.000528 -0.009629 0.000000 0.000000 0.000000
# 2 -0.000528 0.009022 -0.002113 0.000000 0.000000 0.000000
# 3 -0.009629 -0.002113 0.018250 0.000000 0.000000 0.000000
# 4 0.000000 0.000000 0.000000 0.033623 0.000000 0.000000
# 5 0.000000 0.000000 0.000000 0.000000 0.021189 0.000000
# 6 0.000000 0.000000 0.000000 0.000000 0.000000 0.031656
#
#
# Mechanical properties :
#
#
# Convention : Reuss Voigt Hill
#
# Bulk Modulus (GPa) = 66.22460 69.84559 68.03510
# Shear Modulus (GPa) = 32.11716 36.92757 34.52237
#
# Velocity S-wave (km/s) = 3.48277 3.73449 3.61082
# Velocity P-wave (km/s) = 6.41746 6.70624 6.56344
#
# Compressibility (1/GPa) = 0.01510013
#
# Stress axis : x y z
#
# Youngs Moduli (GPa) = 80.85423 110.84445 54.79473
#
# Poissons Ratio (x) = 0.05854 0.52761
# Poissons Ratio (y) = 0.04270 0.11576
# Poissons Ratio (z) = 0.77854 0.23418
#
# Static dielectric constant tensor:
#      x y z
#    x 3.066030 0.000000 0.000000 
#    y 0.000000 3.437480 0.000000 
#    z 0.000000 0.000000 2.163650 
# 
# From -- ./inp_files/8781.got.cif
#   From: 2010.05.17/outbox.cif.g08.bks.cpg/sg61_5_cif.got.tgz:8781.got - 2010.06.03 15:17:17.
