data_PCOD9460688
_publ_section_title
;
Structure prediction by ZEFSAII (Michael W. Deem and Ramdas Pophale) SiO2 
 PCOD9460688
Probable space group: P B C A
;
_chemical_formula_sum "Si O2"
_cell_formula_units_Z 52
_cell_length_a 24.822643
_cell_length_b 4.903153
_cell_length_c 18.478139
_cell_angle_alpha 90.000000
_cell_angle_beta 90.000000
_cell_angle_gamma 90.000000
_cell_volume 2248.959820
_symmetry_space_group_name_H-M "P B C A"
_symmetry_group_IT_number 61
_symmetry_cell_setting 'orthorhombic'
loop_
_space_group_symop_operation_xyz
x,y,z
1/2-x,-y,1/2+z
1/2+x,1/2-y,-z
-x,1/2+y,1/2-z
-x,-y,-z
1/2+x,y,1/2-z
1/2-x,1/2+y,z
x,1/2-y,1/2+z
loop_
_atom_site_type_symbol
_atom_site_label
_atom_site_fract_x
_atom_site_fract_y
_atom_site_fract_z
Si Si1 0.935926 0.373944 0.281840
Si Si2 0.131362 0.119132 0.677097
Si Si3 0.641181 0.410289 0.069877
Si Si4 0.466130 0.148853 0.363034
Si Si5 0.627292 0.591563 0.478381
Si Si6 0.284526 0.062871 0.297684
Si Si7 0.500000 0.500000 0.500000
O O1 0.888867 0.574469 0.309419
O O2 0.942260 0.362771 0.195179
O O3 0.990479 0.469331 0.320018
O O4 0.920059 0.069135 0.303490
O O5 0.147586 0.034593 0.596385
O O6 0.177110 0.030886 0.732885
O O7 0.582337 0.467110 0.104882
O O8 0.685049 0.493964 0.128211
O O9 0.645409 0.101521 0.044352
O O10 0.644148 0.604298 0.999373
O O11 0.494654 0.295789 0.429587
O O12 0.562592 0.575295 0.477850
O O13 0.268922 0.378261 0.293784
#
# Coordination Sequence:
#
# PCOD9460688 Si02
#       7
#     8   8   8   8   8   8   4
#     4  12  25  42  69 107 146 198 236 287 344 437
#     4  12  26  48  71 106 147 188 241 303 361 427
#     4  11  26  45  71 103 141 186 239 289 353 422
#     4  11  25  41  70 105 152 195 236 279 347 427
#     4  11  25  44  68 104 153 188 228 279 353 426
#     4  12  27  51  78 103 131 182 248 315 372 421
#     4  10  24  38  64 104 150 200 224 272 330 436
#
# _framework density 23.121801000000001
#
# number of rings (size 3 to 8) (size 9 to 14) (size 15 to 20)
#    0.000    0.615    3.077    3.692    6.462    1.231 
#    0.000    4.615    0.000    0.000    0.000    0.000 
#    0.000    0.000    0.000    0.000    0.000    0.000 
#
# Total GULP energy -290476.374880 kJ/mol
# GULP energy per Si atom -5586.084132 kJ/mol
# Density = 2.306918 g / cm^3
# Si number density = 23.121801 Si / 1000 Ang^3
#
#
#
# Elastic Constant Matrix: (Units=GPa)
#
#
# Indices 1 2 3 4 5 6 
#
# 1 37.1342 -6.3025 14.4923 0.0000 0.0000 0.0000
# 2 -6.3025 46.4970 0.4705 0.0000 0.0000 0.0000
# 3 14.4923 0.4705 83.5293 0.0000 0.0000 0.0000
# 4 0.0000 0.0000 0.0000 27.7824 0.0000 0.0000
# 5 0.0000 0.0000 0.0000 0.0000 2.5222 0.0000
# 6 0.0000 0.0000 0.0000 0.0000 0.0000 21.8649
#
#
#
# Elastic Compliance Matrix: (Units=1/GPa)
#
#
# Indices 1 2 3 4 5 6 
#
# 1 0.029636 0.004069 -0.005165 0.000000 0.000000 0.000000
# 2 0.004069 0.022067 -0.000830 0.000000 0.000000 0.000000
# 3 -0.005165 -0.000830 0.012873 0.000000 0.000000 0.000000
# 4 0.000000 0.000000 0.000000 0.035994 0.000000 0.000000
# 5 0.000000 0.000000 0.000000 0.000000 0.396484 0.000000
# 6 0.000000 0.000000 0.000000 0.000000 0.000000 0.045735
#
#
# Mechanical properties :
#
#
# Convention : Reuss Voigt Hill
#
# Bulk Modulus (GPa) = 16.46811 20.49790 18.48301
# Shear Modulus (GPa) = 8.82019 21.00058 14.91038
#
# Velocity S-wave (km/s) = 1.95524 3.01700 2.54217
# Velocity P-wave (km/s) = 3.49786 4.58485 4.07774
#
# Compressibility (1/GPa) = 0.06072341
#
# Stress axis : x y z
#
# Youngs Moduli (GPa) = 33.74324 45.31711 77.68444
#
# Poissons Ratio (x) = -0.18441 0.40121
# Poissons Ratio (y) = -0.13731 0.06450
# Poissons Ratio (z) = 0.17427 0.03763
#
# Static dielectric constant tensor:
#      x y z
#    x 1.843380 0.000000 0.000000 
#    y 0.000000 1.843940 0.000000 
#    z 0.000000 0.000000 1.879660 
# 
# From -- ./inp_files/9843.got.cif
#   From: 2010.05.17/outbox.cif.g08.bks.cpg/sg61_5_cif.got.tgz:9843.got - 2010.06.03 15:17:17.
