data_PCOD9460509
_publ_section_title
;
Structure prediction by ZEFSAII (Michael W. Deem and Ramdas Pophale) SiO2 
 PCOD9460509
Probable space group: P B C A
;
_chemical_formula_sum "Si O2"
_cell_formula_units_Z 56
_cell_length_a 15.113325
_cell_length_b 7.834670
_cell_length_c 20.455133
_cell_angle_alpha 90.000000
_cell_angle_beta 90.000000
_cell_angle_gamma 90.000000
_cell_volume 2422.049629
_symmetry_space_group_name_H-M "P B C A"
_symmetry_group_IT_number 61
_symmetry_cell_setting 'orthorhombic'
loop_
_space_group_symop_operation_xyz
x,y,z
1/2-x,-y,1/2+z
1/2+x,1/2-y,-z
-x,1/2+y,1/2-z
-x,-y,-z
1/2+x,y,1/2-z
1/2-x,1/2+y,z
x,1/2-y,1/2+z
loop_
_atom_site_type_symbol
_atom_site_label
_atom_site_fract_x
_atom_site_fract_y
_atom_site_fract_z
Si Si1 0.767033 0.065290 0.675184
Si Si2 0.035033 0.246875 0.625783
Si Si3 0.359556 0.702320 0.499762
Si Si4 0.383809 0.733913 0.264795
Si Si5 0.655256 0.699339 0.474902
Si Si6 0.503551 0.338398 0.617109
Si Si7 0.363384 0.127153 0.393348
O O1 0.828664 0.930638 0.710726
O O2 0.717374 0.002845 0.609306
O O3 0.682837 0.112410 0.718836
O O4 0.822865 0.224966 0.652410
O O5 0.083511 0.281103 0.558134
O O6 0.095382 0.258866 0.689158
O O7 0.960224 0.390978 0.635333
O O8 0.999977 0.048198 0.620380
O O9 0.259955 0.763169 0.517374
O O10 0.358495 0.498698 0.509140
O O11 0.415665 0.720728 0.431829
O O12 0.469976 0.728595 0.311226
O O13 0.591351 0.723322 0.411733
O O14 0.618245 0.813047 0.533682
#
# Coordination Sequence:
#
# PCOD9460509 Si02
#       7
#     8   8   8   8   8   8   8
#     4  10  23  39  64  94 128 170 220 260 324 390
#     4  11  23  40  65  93 129 171 208 268 328 384
#     4  11  22  43  65  94 128 168 215 270 326 383
#     4  11  24  42  65  95 130 170 217 268 321 390
#     4  11  21  39  68  92 127 167 215 267 322 382
#     4  11  22  44  67  94 128 173 216 264 329 388
#     4  11  19  40  65  94 124 171 211 266 319 388
#
# _framework density 23.120913000000002
#
# number of rings (size 3 to 8) (size 9 to 14) (size 15 to 20)
#    0.000    1.143    4.286    3.429    2.000    2.286 
#    5.143    1.429    0.000    0.000    0.000    0.000 
#    0.000    0.000    0.000    0.000    0.000    0.000 
#
# Total GULP energy -312558.832876 kJ/mol
# GULP energy per Si atom -5581.407730 kJ/mol
# Density = 2.306829 g / cm^3
# Si number density = 23.120913 Si / 1000 Ang^3
#
#
#
# Elastic Constant Matrix: (Units=GPa)
#
#
# Indices 1 2 3 4 5 6 
#
# 1 93.1834 7.6133 8.8016 0.0000 0.0000 0.0000
# 2 7.6133 21.7567 -2.0462 0.0000 0.0000 0.0000
# 3 8.8016 -2.0462 65.6602 0.0000 0.0000 0.0000
# 4 0.0000 0.0000 0.0000 14.2851 0.0000 0.0000
# 5 0.0000 0.0000 0.0000 0.0000 31.1402 0.0000
# 6 0.0000 0.0000 0.0000 0.0000 0.0000 25.6792
#
#
#
# Elastic Compliance Matrix: (Units=1/GPa)
#
#
# Indices 1 2 3 4 5 6 
#
# 1 0.011219 -0.004079 -0.001631 0.000000 0.000000 0.000000
# 2 -0.004079 0.047581 0.002030 0.000000 0.000000 0.000000
# 3 -0.001631 0.002030 0.015512 0.000000 0.000000 0.000000
# 4 0.000000 0.000000 0.000000 0.070003 0.000000 0.000000
# 5 0.000000 0.000000 0.000000 0.000000 0.032113 0.000000
# 6 0.000000 0.000000 0.000000 0.000000 0.000000 0.038942
#
#
# Mechanical properties :
#
#
# Convention : Reuss Voigt Hill
#
# Bulk Modulus (GPa) = 14.93636 23.25973 19.09805
# Shear Modulus (GPa) = 20.40419 25.30300 22.85360
#
# Velocity S-wave (km/s) = 2.97391 3.31173 3.14735
# Velocity P-wave (km/s) = 4.27391 4.97044 4.63528
#
# Compressibility (1/GPa) = 0.06695071
#
# Stress axis : x y z
#
# Youngs Moduli (GPa) = 89.13556 21.01672 64.46700
#
# Poissons Ratio (x) = 0.08573 0.10514
# Poissons Ratio (y) = 0.36360 -0.13084
# Poissons Ratio (z) = 0.14538 -0.04266
#
# Static dielectric constant tensor:
#      x y z
#    x 1.970430 0.000000 0.000000 
#    y 0.000000 1.966910 0.000000 
#    z 0.000000 0.000000 1.834960 
# 
# From -- ./inp_files/7172.got.cif
#   From: 2010.05.17/outbox.cif.g08.bks.cpg/sg61_4_cif.got.tgz:7172.got - 2010.06.03 15:17:17.
