data_PCOD9460965
_publ_section_title
;
Structure prediction by ZEFSAII (Michael W. Deem and Ramdas Pophale) SiO2 
 PCOD9460965
Probable space group: P B C A
;
_chemical_formula_sum "Si O2"
_cell_formula_units_Z 48
_cell_length_a 13.663615
_cell_length_b 7.990035
_cell_length_c 18.833938
_cell_angle_alpha 90.000000
_cell_angle_beta 90.000000
_cell_angle_gamma 90.000000
_cell_volume 2056.153032
_symmetry_space_group_name_H-M "P B C A"
_symmetry_group_IT_number 61
_symmetry_cell_setting 'orthorhombic'
loop_
_space_group_symop_operation_xyz
x,y,z
1/2-x,-y,1/2+z
1/2+x,1/2-y,-z
-x,1/2+y,1/2-z
-x,-y,-z
1/2+x,y,1/2-z
1/2-x,1/2+y,z
x,1/2-y,1/2+z
loop_
_atom_site_type_symbol
_atom_site_label
_atom_site_fract_x
_atom_site_fract_y
_atom_site_fract_z
Si Si1 0.504225 0.314917 0.914053
Si Si2 0.600646 0.669367 0.448845
Si Si3 0.699970 0.457070 0.239629
Si Si4 0.968798 0.841740 0.149890
Si Si5 0.201096 0.339873 0.096461
Si Si6 0.396311 0.178312 0.779704
O O1 0.469134 0.505840 0.905825
O O2 0.621884 0.307799 0.914109
O O3 0.467911 0.216168 0.844298
O O4 0.451007 0.226318 0.979404
O O5 0.691007 0.790282 0.428067
O O6 0.651051 0.489237 0.447681
O O7 0.515896 0.683750 0.389059
O O8 0.633664 0.338949 0.189843
O O9 0.703991 0.394291 0.320874
O O10 0.808134 0.448175 0.207555
O O11 0.653572 0.641771 0.238059
O O12 0.043425 0.886930 0.212961
#
# Coordination Sequence:
#
# PCOD9460965 Si02
#       6
#     8   8   8   8   8   8
#     4  11  27  44  67 103 138 178 225 282 340 404
#     4  12  26  44  69 101 137 180 224 275 347 409
#     4  11  23  39  68  97 130 175 225 278 329 392
#     4  11  23  43  68  97 133 174 229 279 332 396
#     4  12  23  43  69  93 135 181 223 275 341 402
#     4  11  24  41  66 101 130 173 225 276 328 395
#
# _framework density 23.344564999999999
#
# number of rings (size 3 to 8) (size 9 to 14) (size 15 to 20)
#    0.000    0.667    5.000    2.000    2.333    5.333 
#    0.000    0.000    0.000    0.000    0.000    0.000 
#    0.000    0.000    0.000    0.000    0.000    0.000 
#
# Total GULP energy -268807.731127 kJ/mol
# GULP energy per Si atom -5600.161065 kJ/mol
# Density = 2.329143 g / cm^3
# Si number density = 23.344565 Si / 1000 Ang^3
#
#
#
# Elastic Constant Matrix: (Units=GPa)
#
#
# Indices 1 2 3 4 5 6 
#
# 1 42.4053 5.0751 14.5059 0.0000 0.0000 0.0000
# 2 5.0751 64.3331 0.8104 0.0000 0.0000 0.0000
# 3 14.5059 0.8104 67.4830 0.0000 0.0000 0.0000
# 4 0.0000 0.0000 0.0000 25.2687 0.0000 0.0000
# 5 0.0000 0.0000 0.0000 0.0000 33.1276 0.0000
# 6 0.0000 0.0000 0.0000 0.0000 0.0000 38.7368
#
#
#
# Elastic Compliance Matrix: (Units=1/GPa)
#
#
# Indices 1 2 3 4 5 6 
#
# 1 0.025698 -0.001958 -0.005500 0.000000 0.000000 0.000000
# 2 -0.001958 0.015696 0.000232 0.000000 0.000000 0.000000
# 3 -0.005500 0.000232 0.015998 0.000000 0.000000 0.000000
# 4 0.000000 0.000000 0.000000 0.039575 0.000000 0.000000
# 5 0.000000 0.000000 0.000000 0.000000 0.030186 0.000000
# 6 0.000000 0.000000 0.000000 0.000000 0.000000 0.025815
#
#
# Mechanical properties :
#
#
# Convention : Reuss Voigt Hill
#
# Bulk Modulus (GPa) = 23.28852 23.88937 23.58894
# Shear Modulus (GPa) = 27.51290 29.68196 28.59743
#
# Velocity S-wave (km/s) = 3.43674 3.56964 3.50382
# Velocity P-wave (km/s) = 5.07404 5.21971 5.14739
#
# Compressibility (1/GPa) = 0.04293961
#
# Stress axis : x y z
#
# Youngs Moduli (GPa) = 38.91376 63.71195 62.50736
#
# Poissons Ratio (x) = 0.12475 0.34382
# Poissons Ratio (y) = 0.07619 -0.01453
# Poissons Ratio (z) = 0.21404 -0.01481
#
# Static dielectric constant tensor:
#      x y z
#    x 1.861040 0.000000 0.000000 
#    y 0.000000 1.950430 0.000000 
#    z 0.000000 0.000000 1.846940 
# 
# From -- ./inp_files/3422.got.cif
#   From: 2010.05.17/outbox.cif.g08.bks.cpg/sg61_2_cif.got.tgz:3422.got - 2010.06.03 15:17:17.
