data_PCOD9460427
_publ_section_title
;
Structure prediction by ZEFSAII (Michael W. Deem and Ramdas Pophale) SiO2 
 PCOD9460427
Probable space group: P B C A
;
_chemical_formula_sum "Si O2"
_cell_formula_units_Z 40
_cell_length_a 9.993912
_cell_length_b 10.279037
_cell_length_c 15.414848
_cell_angle_alpha 90.000000
_cell_angle_beta 90.000000
_cell_angle_gamma 90.000000
_cell_volume 1583.533287
_symmetry_space_group_name_H-M "P B C A"
_symmetry_group_IT_number 61
_symmetry_cell_setting 'orthorhombic'
loop_
_space_group_symop_operation_xyz
x,y,z
1/2-x,-y,1/2+z
1/2+x,1/2-y,-z
-x,1/2+y,1/2-z
-x,-y,-z
1/2+x,y,1/2-z
1/2-x,1/2+y,z
x,1/2-y,1/2+z
loop_
_atom_site_type_symbol
_atom_site_label
_atom_site_fract_x
_atom_site_fract_y
_atom_site_fract_z
Si Si1 0.875612 0.200697 0.062650
Si Si2 0.712382 0.526792 0.511123
Si Si3 0.380370 0.665447 0.633843
Si Si4 0.072588 0.019450 0.305223
Si Si5 0.688733 0.835475 0.758626
O O1 0.803921 0.317363 0.009242
O O2 0.847360 0.055258 0.029670
O O3 0.812281 0.210410 0.158865
O O4 0.030301 0.236987 0.075378
O O5 0.658467 0.456996 0.425538
O O6 0.622599 0.488024 0.595333
O O7 0.483835 0.609894 0.706106
O O8 0.256800 0.733949 0.678057
O O9 0.960769 0.127024 0.285136
O O10 0.202892 0.045474 0.247167
#
# Coordination Sequence:
#
# PCOD9460427 Si02
#       5
#     8   8   8   8   8
#     4  10  22  44  62  98 129 178 216 278 328 398
#     4  10  24  43  70  91 140 170 225 273 339 392
#     4  11  24  39  70  92 134 177 222 272 339 390
#     4  10  23  41  63  94 132 170 219 271 331 389
#     4  11  23  39  66  97 129 172 225 273 328 401
#
# _framework density 25.259968000000001
#
# number of rings (size 3 to 8) (size 9 to 14) (size 15 to 20)
#    0.000    1.600    2.000    2.400   14.000    0.000 
#    0.000    3.000    0.000    0.000    0.000    0.000 
#    0.000    0.000    0.000    0.000    0.000    0.000 
#
# Total GULP energy -223581.622251 kJ/mol
# GULP energy per Si atom -5589.540556 kJ/mol
# Density = 2.520248 g / cm^3
# Si number density = 25.259968 Si / 1000 Ang^3
#
#
#
# Elastic Constant Matrix: (Units=GPa)
#
#
# Indices 1 2 3 4 5 6 
#
# 1 108.8989 20.1262 18.4973 0.0000 0.0000 0.0000
# 2 20.1262 58.5421 22.8269 0.0000 0.0000 0.0000
# 3 18.4973 22.8269 75.6808 0.0000 0.0000 0.0000
# 4 0.0000 0.0000 0.0000 44.7938 0.0000 0.0000
# 5 0.0000 0.0000 0.0000 0.0000 22.3674 0.0000
# 6 0.0000 0.0000 0.0000 0.0000 0.0000 38.5810
#
#
#
# Elastic Compliance Matrix: (Units=1/GPa)
#
#
# Indices 1 2 3 4 5 6 
#
# 1 0.009972 -0.002808 -0.001590 0.000000 0.000000 0.000000
# 2 -0.002808 0.020149 -0.005391 0.000000 0.000000 0.000000
# 3 -0.001590 -0.005391 0.015228 0.000000 0.000000 0.000000
# 4 0.000000 0.000000 0.000000 0.022325 0.000000 0.000000
# 5 0.000000 0.000000 0.000000 0.000000 0.044708 0.000000
# 6 0.000000 0.000000 0.000000 0.000000 0.000000 0.025920
#
#
# Mechanical properties :
#
#
# Convention : Reuss Voigt Hill
#
# Bulk Modulus (GPa) = 38.80438 40.66918 39.73678
# Shear Modulus (GPa) = 30.03538 33.25987 31.64762
#
# Velocity S-wave (km/s) = 3.45200 3.63258 3.54344
# Velocity P-wave (km/s) = 5.59319 5.80770 5.70145
#
# Compressibility (1/GPa) = 0.02577029
#
# Stress axis : x y z
#
# Youngs Moduli (GPa) = 100.28138 49.62966 65.66789
#
# Poissons Ratio (x) = 0.13937 0.10443
# Poissons Ratio (y) = 0.28161 0.35402
# Poissons Ratio (z) = 0.15947 0.26756
#
# Static dielectric constant tensor:
#      x y z
#    x 2.023230 0.000000 0.000000 
#    y 0.000000 2.127430 0.000000 
#    z 0.000000 0.000000 1.979550 
# 
# From -- ./inp_files/2162.got.cif
#   From: 2010.05.17/outbox.cif.g08.bks.cpg/sg61_2_cif.got.tgz:2162.got - 2010.06.03 15:17:17.
