data_PCOD9460534
_publ_section_title
;
Structure prediction by ZEFSAII (Michael W. Deem and Ramdas Pophale) SiO2 
 PCOD9460534
Probable space group: P B C A
;
_chemical_formula_sum "Si O2"
_cell_formula_units_Z 40
_cell_length_a 5.572053
_cell_length_b 24.364133
_cell_length_c 11.716269
_cell_angle_alpha 90.000000
_cell_angle_beta 90.000000
_cell_angle_gamma 90.000000
_cell_volume 1590.580063
_symmetry_space_group_name_H-M "P B C A"
_symmetry_group_IT_number 61
_symmetry_cell_setting 'orthorhombic'
loop_
_space_group_symop_operation_xyz
x,y,z
1/2-x,-y,1/2+z
1/2+x,1/2-y,-z
-x,1/2+y,1/2-z
-x,-y,-z
1/2+x,y,1/2-z
1/2-x,1/2+y,z
x,1/2-y,1/2+z
loop_
_atom_site_type_symbol
_atom_site_label
_atom_site_fract_x
_atom_site_fract_y
_atom_site_fract_z
Si Si1 0.113101 0.506232 0.134083
Si Si2 0.187606 0.238918 0.067344
Si Si3 0.888487 0.846282 0.314432
Si Si4 0.887041 0.539726 0.608535
Si Si5 0.155362 0.880104 0.537995
O O1 0.364739 0.488881 0.081990
O O2 0.120938 0.475996 0.256863
O O3 0.880847 0.479641 0.080394
O O4 0.094876 0.572395 0.129940
O O5 0.132549 0.280609 0.170161
O O6 0.935837 0.239809 0.994860
O O7 0.257868 0.176333 0.093860
O O8 0.132638 0.862185 0.243663
O O9 0.946602 0.867335 0.443616
O O10 0.873887 0.597336 0.541549
#
# Coordination Sequence:
#
# PCOD9460534 Si02
#       5
#     8   8   8   8   8
#     4  10  23  42  62 104 136 184 230 296 333 434
#     4  10  23  45  67 100 134 176 239 294 353 429
#     4  11  25  43  67 104 138 178 239 293 343 426
#     4  10  23  41  65  97 146 171 243 284 344 417
#     4  11  24  43  75  95 140 195 226 286 377 412
#
# _framework density 25.148060000000001
#
# number of rings (size 3 to 8) (size 9 to 14) (size 15 to 20)
#    0.000    1.600    0.000    3.600    5.600    8.000 
#    7.200    0.000    0.000    0.000    0.000    0.000 
#    0.000    0.000    0.000    0.000    0.000    0.000 
#
# Total GULP energy -222891.812234 kJ/mol
# GULP energy per Si atom -5572.295306 kJ/mol
# Density = 2.509082 g / cm^3
# Si number density = 25.148060 Si / 1000 Ang^3
#
#
#
# Elastic Constant Matrix: (Units=GPa)
#
#
# Indices 1 2 3 4 5 6 
#
# 1 178.2100 12.9014 25.6294 0.0000 0.0000 0.0000
# 2 12.9014 182.9776 10.8281 0.0000 0.0000 0.0000
# 3 25.6294 10.8281 40.2011 0.0000 0.0000 0.0000
# 4 0.0000 0.0000 0.0000 35.0465 0.0000 0.0000
# 5 0.0000 0.0000 0.0000 0.0000 30.6302 0.0000
# 6 0.0000 0.0000 0.0000 0.0000 0.0000 32.8556
#
#
#
# Elastic Compliance Matrix: (Units=1/GPa)
#
#
# Indices 1 2 3 4 5 6 
#
# 1 0.006185 -0.000206 -0.003888 0.000000 0.000000 0.000000
# 2 -0.000206 0.005561 -0.001366 0.000000 0.000000 0.000000
# 3 -0.003888 -0.001366 0.027722 0.000000 0.000000 0.000000
# 4 0.000000 0.000000 0.000000 0.028533 0.000000 0.000000
# 5 0.000000 0.000000 0.000000 0.000000 0.032648 0.000000
# 6 0.000000 0.000000 0.000000 0.000000 0.000000 0.030436
#
#
# Mechanical properties :
#
#
# Convention : Reuss Voigt Hill
#
# Bulk Modulus (GPa) = 35.02999 55.56740 45.29869
# Shear Modulus (GPa) = 32.99871 43.17512 38.08692
#
# Velocity S-wave (km/s) = 3.62633 4.14797 3.89589
# Velocity P-wave (km/s) = 5.61190 6.71453 6.18782
#
# Compressibility (1/GPa) = 0.02854697
#
# Stress axis : x y z
#
# Youngs Moduli (GPa) = 161.67062 179.83878 36.07290
#
# Poissons Ratio (x) = 0.03705 0.14025
# Poissons Ratio (y) = 0.03331 0.04929
# Poissons Ratio (z) = 0.62856 0.24573
#
# Static dielectric constant tensor:
#      x y z
#    x 1.944080 0.000000 0.000000 
#    y 0.000000 2.104390 0.000000 
#    z 0.000000 0.000000 1.788870 
# 
# From -- ./inp_files/6831.got.cif
#   From: 2010.05.17/outbox.cif.g08.bks.cpg/sg61_4_cif.got.tgz:6831.got - 2010.06.03 15:17:17.
