data_PCOD9460653
_publ_section_title
;
Structure prediction by ZEFSAII (Michael W. Deem and Ramdas Pophale) SiO2 
 PCOD9460653
Probable space group: P B C A
;
_chemical_formula_sum "Si O2"
_cell_formula_units_Z 56
_cell_length_a 20.362960
_cell_length_b 12.331459
_cell_length_c 9.008213
_cell_angle_alpha 90.000000
_cell_angle_beta 90.000000
_cell_angle_gamma 90.000000
_cell_volume 2262.007383
_symmetry_space_group_name_H-M "P B C A"
_symmetry_group_IT_number 61
_symmetry_cell_setting 'orthorhombic'
loop_
_space_group_symop_operation_xyz
x,y,z
1/2-x,-y,1/2+z
1/2+x,1/2-y,-z
-x,1/2+y,1/2-z
-x,-y,-z
1/2+x,y,1/2-z
1/2-x,1/2+y,z
x,1/2-y,1/2+z
loop_
_atom_site_type_symbol
_atom_site_label
_atom_site_fract_x
_atom_site_fract_y
_atom_site_fract_z
Si Si1 0.210221 0.602209 0.311953
Si Si2 0.662411 0.716775 0.465908
Si Si3 0.937364 0.910230 0.911202
Si Si4 0.082273 0.459169 0.273232
Si Si5 0.653028 0.998739 0.162747
Si Si6 0.973417 0.158525 0.347070
Si Si7 0.898612 0.694348 0.965588
O O1 0.195536 0.682432 0.450345
O O2 0.146434 0.526725 0.308830
O O3 0.271932 0.523175 0.297605
O O4 0.209181 0.676045 0.165136
O O5 0.649751 0.616827 0.580349
O O6 0.591132 0.729055 0.383215
O O7 0.881572 0.820092 0.955917
O O8 0.993428 0.846566 0.816778
O O9 0.899434 0.989962 0.797276
O O10 0.957493 0.947841 0.075815
O O11 0.047120 0.531546 0.146925
O O12 0.098416 0.345440 0.202841
O O13 0.640465 0.102859 0.054832
O O14 0.030152 0.188408 0.458550
#
# Coordination Sequence:
#
# PCOD9460653 Si02
#       7
#     8   8   8   8   8   8   8
#     4  11  28  46  75 103 142 190 237 297 349 431
#     4  11  27  50  71 105 139 188 236 292 359 422
#     4  11  26  41  72 108 141 190 235 294 355 429
#     4  11  23  44  68 106 139 187 241 282 357 416
#     4  11  26  47  72 101 144 189 233 298 355 416
#     4  10  23  46  66 102 144 185 231 296 352 416
#     4  11  23  45  71 103 146 186 234 297 353 416
#
# _framework density 24.756769999999999
#
# number of rings (size 3 to 8) (size 9 to 14) (size 15 to 20)
#    0.000    1.143    2.857    2.571   12.000    1.143 
#    2.571    0.000    0.000    0.000    0.000    0.000 
#    0.000    0.000    0.000    0.000    0.000    0.000 
#
# Total GULP energy -312843.438579 kJ/mol
# GULP energy per Si atom -5586.489975 kJ/mol
# Density = 2.470042 g / cm^3
# Si number density = 24.756770 Si / 1000 Ang^3
#
#
#
# Elastic Constant Matrix: (Units=GPa)
#
#
# Indices 1 2 3 4 5 6 
#
# 1 47.8349 -15.1065 -1.3396 0.0000 0.0000 0.0000
# 2 -15.1065 47.7400 -5.5548 0.0000 0.0000 0.0000
# 3 -1.3396 -5.5548 104.0857 0.0000 0.0000 0.0000
# 4 0.0000 0.0000 0.0000 14.2772 0.0000 0.0000
# 5 0.0000 0.0000 0.0000 0.0000 3.5051 0.0000
# 6 0.0000 0.0000 0.0000 0.0000 0.0000 5.9064
#
#
#
# Elastic Compliance Matrix: (Units=1/GPa)
#
#
# Indices 1 2 3 4 5 6 
#
# 1 0.023276 0.007447 0.000697 0.000000 0.000000 0.000000
# 2 0.007447 0.023460 0.001348 0.000000 0.000000 0.000000
# 3 0.000697 0.001348 0.009688 0.000000 0.000000 0.000000
# 4 0.000000 0.000000 0.000000 0.070042 0.000000 0.000000
# 5 0.000000 0.000000 0.000000 0.000000 0.285297 0.000000
# 6 0.000000 0.000000 0.000000 0.000000 0.000000 0.169309
#
#
# Mechanical properties :
#
#
# Convention : Reuss Voigt Hill
#
# Bulk Modulus (GPa) = 13.26129 17.29541 15.27835
# Shear Modulus (GPa) = 8.51461 19.51517 14.01489
#
# Velocity S-wave (km/s) = 1.85655 2.81067 2.38187
# Velocity P-wave (km/s) = 3.15657 4.18742 3.70799
#
# Compressibility (1/GPa) = 0.07540745
#
# Stress axis : x y z
#
# Youngs Moduli (GPa) = 42.96194 42.62582 103.21650
#
# Poissons Ratio (x) = -0.31741 -0.07194
# Poissons Ratio (y) = -0.31992 -0.13912
# Poissons Ratio (z) = -0.02994 -0.05745
#
# Static dielectric constant tensor:
#      x y z
#    x 2.080470 0.000000 0.000000 
#    y 0.000000 2.026010 0.000000 
#    z 0.000000 0.000000 1.978800 
# 
# From -- ./inp_files/3953.got.cif
#   From: 2010.05.17/outbox.cif.g08.bks.cpg/sg61_2_cif.got.tgz:3953.got - 2010.06.03 15:17:17.
