data_PCOD9460972
_publ_section_title
;
Structure prediction by ZEFSAII (Michael W. Deem and Ramdas Pophale) SiO2 
 PCOD9460972
Probable space group: P B C A
;
_chemical_formula_sum "Si O2"
_cell_formula_units_Z 48
_cell_length_a 20.588362
_cell_length_b 11.000666
_cell_length_c 7.826083
_cell_angle_alpha 90.000000
_cell_angle_beta 90.000000
_cell_angle_gamma 90.000000
_cell_volume 1772.495838
_symmetry_space_group_name_H-M "P B C A"
_symmetry_group_IT_number 61
_symmetry_cell_setting 'orthorhombic'
loop_
_space_group_symop_operation_xyz
x,y,z
1/2-x,-y,1/2+z
1/2+x,1/2-y,-z
-x,1/2+y,1/2-z
-x,-y,-z
1/2+x,y,1/2-z
1/2-x,1/2+y,z
x,1/2-y,1/2+z
loop_
_atom_site_type_symbol
_atom_site_label
_atom_site_fract_x
_atom_site_fract_y
_atom_site_fract_z
Si Si1 0.774342 0.686192 0.422222
Si Si2 0.763370 0.567592 0.793272
Si Si3 0.595397 0.503587 0.247892
Si Si4 0.450509 0.058142 0.822597
Si Si5 0.415696 0.845028 0.600572
Si Si6 0.560629 0.783709 0.522264
O O1 0.761499 0.626331 0.605155
O O2 0.769358 0.565340 0.303284
O O3 0.737447 0.815479 0.401023
O O4 0.849173 0.726426 0.395498
O O5 0.837419 0.529779 0.834030
O O6 0.527204 0.470703 0.337197
O O7 0.596890 0.637019 0.163878
O O8 0.590020 0.423359 0.072372
O O9 0.419400 0.143180 0.968145
O O10 0.439706 0.142657 0.653228
O O11 0.420058 0.930602 0.767099
O O12 0.484897 0.780878 0.582772
#
# Coordination Sequence:
#
# PCOD9460972 Si02
#       6
#     8   8   8   8   8   8
#     4  11  23  41  62  86 115 153 197 244 292 344
#     4  11  23  41  62  86 115 153 197 244 292 344
#     4   8  17  33  53  75 106 143 180 222 277 336
#     4   9  16  30  51  77 106 139 175 220 274 332
#     4   8  17  33  53  75 106 143 180 222 277 336
#     4   9  16  30  51  77 106 139 175 220 274 332
#
# _framework density 27.080456000000002
#
# number of rings (size 3 to 8) (size 9 to 14) (size 15 to 20)
#    0.000    2.667    0.000    4.000    0.000    1.333 
#    0.000   11.667    0.000    0.000    0.000    0.000 
#    0.000    0.000    0.000    0.000    0.000    0.000 
#
# Total GULP energy -268318.909747 kJ/mol
# GULP energy per Si atom -5589.977286 kJ/mol
# Density = 2.701882 g / cm^3
# Si number density = 27.080456 Si / 1000 Ang^3
#
#
#
# Elastic Constant Matrix: (Units=GPa)
#
#
# Indices 1 2 3 4 5 6 
#
# 1 62.0450 9.5030 5.3994 0.0000 0.0000 0.0000
# 2 9.5030 131.3152 21.4073 0.0000 0.0000 0.0000
# 3 5.3994 21.4073 66.2443 0.0000 0.0000 0.0000
# 4 0.0000 0.0000 0.0000 52.0379 0.0000 0.0000
# 5 0.0000 0.0000 0.0000 0.0000 18.7130 0.0000
# 6 0.0000 0.0000 0.0000 0.0000 0.0000 15.9145
#
#
#
# Elastic Compliance Matrix: (Units=1/GPa)
#
#
# Indices 1 2 3 4 5 6 
#
# 1 0.016361 -0.001020 -0.001004 0.000000 0.000000 0.000000
# 2 -0.001020 0.008102 -0.002535 0.000000 0.000000 0.000000
# 3 -0.001004 -0.002535 0.015997 0.000000 0.000000 0.000000
# 4 0.000000 0.000000 0.000000 0.019217 0.000000 0.000000
# 5 0.000000 0.000000 0.000000 0.000000 0.053439 0.000000
# 6 0.000000 0.000000 0.000000 0.000000 0.000000 0.062836
#
#
# Mechanical properties :
#
#
# Convention : Reuss Voigt Hill
#
# Bulk Modulus (GPa) = 31.90668 36.91374 34.41021
# Shear Modulus (GPa) = 25.57321 32.21942 28.89631
#
# Velocity S-wave (km/s) = 3.07635 3.45304 3.27012
# Velocity P-wave (km/s) = 4.94230 5.43679 5.19543
#
# Compressibility (1/GPa) = 0.03134140
#
# Stress axis : x y z
#
# Youngs Moduli (GPa) = 61.12108 123.42028 62.51283
#
# Poissons Ratio (x) = 0.12593 0.06275
# Poissons Ratio (y) = 0.06237 0.15848
# Poissons Ratio (z) = 0.06135 0.31289
#
# Static dielectric constant tensor:
#      x y z
#    x 2.095680 0.000000 0.000000 
#    y 0.000000 2.225520 0.000000 
#    z 0.000000 0.000000 2.237170 
# 
# From -- ./inp_files/4209.got.cif
#   From: 2010.05.17/outbox.cif.g08.bks.cpg/sg61_3_cif.got.tgz:4209.got - 2010.06.03 15:17:17.
