data_PCOD9460728
_publ_section_title
;
Structure prediction by ZEFSAII (Michael W. Deem and Ramdas Pophale) SiO2 
 PCOD9460728
Probable space group: P B C A
;
_chemical_formula_sum "Si O2"
_cell_formula_units_Z 56
_cell_length_a 21.815687
_cell_length_b 13.162644
_cell_length_c 8.922120
_cell_angle_alpha 90.000000
_cell_angle_beta 90.000000
_cell_angle_gamma 90.000000
_cell_volume 2562.005687
_symmetry_space_group_name_H-M "P B C A"
_symmetry_group_IT_number 61
_symmetry_cell_setting 'orthorhombic'
loop_
_space_group_symop_operation_xyz
x,y,z
1/2-x,-y,1/2+z
1/2+x,1/2-y,-z
-x,1/2+y,1/2-z
-x,-y,-z
1/2+x,y,1/2-z
1/2-x,1/2+y,z
x,1/2-y,1/2+z
loop_
_atom_site_type_symbol
_atom_site_label
_atom_site_fract_x
_atom_site_fract_y
_atom_site_fract_z
Si Si1 0.402222 0.723384 0.121620
Si Si2 0.324977 0.914234 0.162780
Si Si3 0.238841 0.010079 0.375591
Si Si4 0.555184 0.878693 0.404353
Si Si5 0.009921 0.180487 0.391825
Si Si6 0.660329 0.020565 0.397015
Si Si7 0.448153 0.483941 0.778984
O O1 0.345544 0.800015 0.129274
O O2 0.433250 0.692230 0.277152
O O3 0.379601 0.617427 0.049152
O O4 0.456897 0.785528 0.042843
O O5 0.267937 0.916309 0.279734
O O6 0.384094 0.969056 0.231891
O O7 0.308682 0.977586 0.012113
O O8 0.204818 0.062944 0.234670
O O9 0.299901 0.033623 0.473489
O O10 0.545141 0.761286 0.372058
O O11 0.557831 0.904848 0.582009
O O12 0.613542 0.936283 0.335505
O O13 0.494441 0.931673 0.340460
O O14 0.980427 0.072595 0.359316
#
# Coordination Sequence:
#
# PCOD9460728 Si02
#       7
#     8   8   8   8   8   8   8
#     4  12  23  39  68 102 128 164 230 272 314 414
#     4  11  23  43  67  96 131 175 223 275 324 395
#     4  10  24  43  66  89 125 179 229 265 329 392
#     4  11  21  41  65  95 138 172 203 281 344 388
#     4  12  23  38  63 107 133 169 218 262 349 407
#     4  11  22  45  69  95 133 176 221 275 336 389
#     4  11  22  40  66  96 136 171 209 275 343 393
#
# _framework density 21.857876000000001
#
# number of rings (size 3 to 8) (size 9 to 14) (size 15 to 20)
#    0.000    0.857    5.714    2.571    0.000    1.714 
#    0.000    8.571    0.000    0.000    0.000    0.000 
#    0.000    0.000    0.000    0.000    0.000    0.000 
#
# Total GULP energy -311915.860645 kJ/mol
# GULP energy per Si atom -5569.926083 kJ/mol
# Density = 2.180813 g / cm^3
# Si number density = 21.857876 Si / 1000 Ang^3
#
#
#
# Elastic Constant Matrix: (Units=GPa)
#
#
# Indices 1 2 3 4 5 6 
#
# 1 86.6821 34.0495 30.1921 0.0000 0.0000 0.0000
# 2 34.0495 58.1254 18.0581 0.0000 0.0000 0.0000
# 3 30.1921 18.0581 57.1741 0.0000 0.0000 0.0000
# 4 0.0000 0.0000 0.0000 22.3931 0.0000 0.0000
# 5 0.0000 0.0000 0.0000 0.0000 51.3533 0.0000
# 6 0.0000 0.0000 0.0000 0.0000 0.0000 24.8870
#
#
#
# Elastic Compliance Matrix: (Units=1/GPa)
#
#
# Indices 1 2 3 4 5 6 
#
# 1 0.016870 -0.007889 -0.006417 0.000000 0.000000 0.000000
# 2 -0.007889 0.022765 -0.003024 0.000000 0.000000 0.000000
# 3 -0.006417 -0.003024 0.021834 0.000000 0.000000 0.000000
# 4 0.000000 0.000000 0.000000 0.044657 0.000000 0.000000
# 5 0.000000 0.000000 0.000000 0.000000 0.019473 0.000000
# 6 0.000000 0.000000 0.000000 0.000000 0.000000 0.040182
#
#
# Mechanical properties :
#
#
# Convention : Reuss Voigt Hill
#
# Bulk Modulus (GPa) = 37.30073 40.73123 39.01598
# Shear Modulus (GPa) = 23.88025 27.70547 25.79286
#
# Velocity S-wave (km/s) = 3.30892 3.56410 3.43888
# Velocity P-wave (km/s) = 5.63034 5.96759 5.80142
#
# Compressibility (1/GPa) = 0.02680913
#
# Stress axis : x y z
#
# Youngs Moduli (GPa) = 59.27540 43.92697 45.79937
#
# Poissons Ratio (x) = 0.34654 0.29390
# Poissons Ratio (y) = 0.46762 0.13851
# Poissons Ratio (z) = 0.38038 0.13285
#
# Static dielectric constant tensor:
#      x y z
#    x 1.823780 0.000000 0.000000 
#    y 0.000000 1.771640 0.000000 
#    z 0.000000 0.000000 1.900230 
# 
# From -- ./inp_files/3983.got.cif
#   From: 2010.05.17/outbox.cif.g08.bks.cpg/sg61_2_cif.got.tgz:3983.got - 2010.06.03 15:17:17.
