data_PCOD9460336
_publ_section_title
;
Structure prediction by ZEFSAII (Michael W. Deem and Ramdas Pophale) SiO2 
 PCOD9460336
Probable space group: P B C A
;
_chemical_formula_sum "Si O2"
_cell_formula_units_Z 36
_cell_length_a 11.461116
_cell_length_b 14.051581
_cell_length_c 7.977320
_cell_angle_alpha 90.000000
_cell_angle_beta 90.000000
_cell_angle_gamma 90.000000
_cell_volume 1284.721857
_symmetry_space_group_name_H-M "P B C A"
_symmetry_group_IT_number 61
_symmetry_cell_setting 'orthorhombic'
loop_
_space_group_symop_operation_xyz
x,y,z
1/2-x,-y,1/2+z
1/2+x,1/2-y,-z
-x,1/2+y,1/2-z
-x,-y,-z
1/2+x,y,1/2-z
1/2-x,1/2+y,z
x,1/2-y,1/2+z
loop_
_atom_site_type_symbol
_atom_site_label
_atom_site_fract_x
_atom_site_fract_y
_atom_site_fract_z
Si Si1 0.500000 0.000000 0.500000
Si Si2 0.321866 0.507956 0.698638
Si Si3 0.124048 0.654557 0.753732
Si Si4 0.298395 0.814811 0.658517
Si Si5 0.433568 0.841472 0.970017
O O1 0.409994 0.020689 0.345335
O O2 0.547765 0.900242 0.389665
O O3 0.234730 0.586163 0.771439
O O4 0.245183 0.420928 0.634677
O O5 0.381027 0.560337 0.541245
O O6 0.185129 0.755708 0.718340
O O7 0.050514 0.665342 0.923751
O O8 0.350372 0.746621 0.519348
O O9 0.413385 0.834992 0.773797
#
# Coordination Sequence:
#
# PCOD9460336 Si02
#       5
#     4   8   8   8   8
#     4  10  22  48  72 104 152 204 258 320 398 480
#     4  10  22  41  69 101 145 195 250 315 387 464
#     4  10  24  44  72 104 146 199 255 321 393 469
#     4  11  24  43  69 102 141 192 253 317 385 465
#     4  10  25  43  66 103 142 191 251 316 392 469
#
# _framework density 28.021629000000001
#
# number of rings (size 3 to 8) (size 9 to 14) (size 15 to 20)
#    0.000    1.778    0.000    2.667    0.000   22.222 
#    0.000    0.000    0.000    0.000    0.000    0.000 
#    0.000    0.000    0.000    0.000    0.000    0.000 
#
# Total GULP energy -200736.190335 kJ/mol
# GULP energy per Si atom -5576.005287 kJ/mol
# Density = 2.795785 g / cm^3
# Si number density = 28.021629 Si / 1000 Ang^3
#
#
#
# Elastic Constant Matrix: (Units=GPa)
#
#
# Indices 1 2 3 4 5 6 
#
# 1 57.8690 19.9189 16.6509 0.0000 0.0000 0.0000
# 2 19.9189 150.3360 22.4311 0.0000 0.0000 0.0000
# 3 16.6509 22.4311 82.1886 0.0000 0.0000 0.0000
# 4 0.0000 0.0000 0.0000 73.0976 0.0000 0.0000
# 5 0.0000 0.0000 0.0000 0.0000 47.1762 0.0000
# 6 0.0000 0.0000 0.0000 0.0000 0.0000 78.7816
#
#
#
# Elastic Compliance Matrix: (Units=1/GPa)
#
#
# Indices 1 2 3 4 5 6 
#
# 1 0.018919 -0.002017 -0.003282 0.000000 0.000000 0.000000
# 2 -0.002017 0.007149 -0.001543 0.000000 0.000000 0.000000
# 3 -0.003282 -0.001543 0.013253 0.000000 0.000000 0.000000
# 4 0.000000 0.000000 0.000000 0.013680 0.000000 0.000000
# 5 0.000000 0.000000 0.000000 0.000000 0.021197 0.000000
# 6 0.000000 0.000000 0.000000 0.000000 0.000000 0.012693
#
#
# Mechanical properties :
#
#
# Convention : Reuss Voigt Hill
#
# Bulk Modulus (GPa) = 39.00526 45.37728 42.19127
# Shear Modulus (GPa) = 45.82030 55.23724 50.52877
#
# Velocity S-wave (km/s) = 4.04812 4.44468 4.25102
# Velocity P-wave (km/s) = 5.98328 6.52449 6.25974
#
# Compressibility (1/GPa) = 0.02563757
#
# Stress axis : x y z
#
# Youngs Moduli (GPa) = 52.85656 139.87652 75.45383
#
# Poissons Ratio (x) = 0.28212 0.24767
# Poissons Ratio (y) = 0.10661 0.11639
# Poissons Ratio (z) = 0.17350 0.21577
#
# Static dielectric constant tensor:
#      x y z
#    x 2.302010 0.000000 0.000000 
#    y 0.000000 2.165860 0.000000 
#    z 0.000000 0.000000 2.809090 
# 
# From -- ./inp_files/2595.got.cif
#   From: 2010.05.17/outbox.cif.g08.bks.cpg/sg61_2_cif.got.tgz:2595.got - 2010.06.03 15:17:17.
