data_PCOD9460052
_publ_section_title
;
Structure prediction by ZEFSAII (Michael W. Deem and Ramdas Pophale) SiO2 
 PCOD9460052
Probable space group: P B C A
;
_chemical_formula_sum "Si O2"
_cell_formula_units_Z 48
_cell_length_a 27.313762
_cell_length_b 15.270361
_cell_length_c 5.206607
_cell_angle_alpha 90.000000
_cell_angle_beta 90.000000
_cell_angle_gamma 90.000000
_cell_volume 2171.628952
_symmetry_space_group_name_H-M "P B C A"
_symmetry_group_IT_number 61
_symmetry_cell_setting 'orthorhombic'
loop_
_space_group_symop_operation_xyz
x,y,z
1/2-x,-y,1/2+z
1/2+x,1/2-y,-z
-x,1/2+y,1/2-z
-x,-y,-z
1/2+x,y,1/2-z
1/2-x,1/2+y,z
x,1/2-y,1/2+z
loop_
_atom_site_type_symbol
_atom_site_label
_atom_site_fract_x
_atom_site_fract_y
_atom_site_fract_z
Si Si1 0.008402 0.441885 0.250153
Si Si2 0.323719 0.793333 0.912735
Si Si3 0.433783 0.784781 0.345131
Si Si4 0.316324 0.306911 0.252783
Si Si5 0.423278 0.305146 0.166202
Si Si6 0.760017 0.553114 0.951513
O O1 0.966749 0.368542 0.261157
O O2 0.000000 0.500000 0.500000
O O3 0.059217 0.385606 0.264321
O O4 0.000000 0.500000 0.000000
O O5 0.302617 0.768861 0.635905
O O6 0.380568 0.761553 0.891335
O O7 0.309969 0.892291 0.986765
O O8 0.457840 0.772694 0.622347
O O9 0.313045 0.229206 0.041410
O O10 0.276216 0.376140 0.172206
O O11 0.370229 0.347569 0.214929
O O12 0.424812 0.225664 0.371313
O O13 0.738171 0.517930 0.221781
#
# Coordination Sequence:
#
# PCOD9460052 Si02
#       6
#     8   8   8   8   8   8
#     4  12  24  40  62  99 136 166 210 284 333 375
#     4  10  21  41  65  90 124 180 224 256 321 414
#     4  10  21  41  65  90 124 180 224 255 318 411
#     4  10  21  41  67  87 119 172 221 256 316 405
#     4  10  21  41  67  87 119 172 221 254 314 403
#     4  12  24  40  62  99 136 164 213 286 341 382
#
# _framework density 22.103224999999998
#
# number of rings (size 3 to 8) (size 9 to 14) (size 15 to 20)
#    0.000    1.333    0.000    6.000    0.000    0.000 
#   18.000    0.000    0.000    0.000    0.000    0.000 
#    0.000    0.000    0.000    0.000    0.000    0.000 
#
# Total GULP energy -267753.728935 kJ/mol
# GULP energy per Si atom -5578.202686 kJ/mol
# Density = 2.205292 g / cm^3
# Si number density = 22.103225 Si / 1000 Ang^3
#
#
#
# Elastic Constant Matrix: (Units=GPa)
#
#
# Indices 1 2 3 4 5 6 
#
# 1 110.1672 34.8924 -1.6914 0.0000 0.0000 0.0000
# 2 34.8924 72.6859 16.0296 0.0000 0.0000 0.0000
# 3 -1.6914 16.0296 142.9792 0.0000 0.0000 0.0000
# 4 0.0000 0.0000 0.0000 44.6258 0.0000 0.0000
# 5 0.0000 0.0000 0.0000 0.0000 15.8198 0.0000
# 6 0.0000 0.0000 0.0000 0.0000 0.0000 35.5935
#
#
#
# Elastic Compliance Matrix: (Units=1/GPa)
#
#
# Indices 1 2 3 4 5 6 
#
# 1 0.010778 -0.005334 0.000725 0.000000 0.000000 0.000000
# 2 -0.005334 0.016746 -0.001941 0.000000 0.000000 0.000000
# 3 0.000725 -0.001941 0.007220 0.000000 0.000000 0.000000
# 4 0.000000 0.000000 0.000000 0.022409 0.000000 0.000000
# 5 0.000000 0.000000 0.000000 0.000000 0.063212 0.000000
# 6 0.000000 0.000000 0.000000 0.000000 0.000000 0.028095
#
#
# Mechanical properties :
#
#
# Convention : Reuss Voigt Hill
#
# Bulk Modulus (GPa) = 46.19710 47.14373 46.67041
# Shear Modulus (GPa) = 29.62569 37.64794 33.63681
#
# Velocity S-wave (km/s) = 3.66503 4.13156 3.90526
# Velocity P-wave (km/s) = 6.23345 6.64341 6.44169
#
# Compressibility (1/GPa) = 0.02164638
#
# Stress axis : x y z
#
# Youngs Moduli (GPa) = 92.78556 59.71516 138.50108
#
# Poissons Ratio (x) = 0.31850 -0.10048
# Poissons Ratio (y) = 0.49489 0.26877
# Poissons Ratio (z) = -0.06731 0.11588
#
# Static dielectric constant tensor:
#      x y z
#    x 2.027560 0.000000 0.000000 
#    y 0.000000 1.840450 0.000000 
#    z 0.000000 0.000000 1.894080 
# 
# From -- ./inp_files/1328.got.cif
#   From: 2010.05.17/outbox.cif.g08.bks.cpg/sg61_1_cif.got.tgz:1328.got - 2010.06.03 15:17:17.
