data_PCOD9460726
_publ_section_title
;
Structure prediction by ZEFSAII (Michael W. Deem and Ramdas Pophale) SiO2 
 PCOD9460726
Probable space group: P B C A
;
_chemical_formula_sum "Si O2"
_cell_formula_units_Z 64
_cell_length_a 22.324044
_cell_length_b 8.032315
_cell_length_c 15.781589
_cell_angle_alpha 90.000000
_cell_angle_beta 90.000000
_cell_angle_gamma 90.000000
_cell_volume 2829.855959
_symmetry_space_group_name_H-M "P B C A"
_symmetry_group_IT_number 61
_symmetry_cell_setting 'orthorhombic'
loop_
_space_group_symop_operation_xyz
x,y,z
1/2-x,-y,1/2+z
1/2+x,1/2-y,-z
-x,1/2+y,1/2-z
-x,-y,-z
1/2+x,y,1/2-z
1/2-x,1/2+y,z
x,1/2-y,1/2+z
loop_
_atom_site_type_symbol
_atom_site_label
_atom_site_fract_x
_atom_site_fract_y
_atom_site_fract_z
Si Si1 0.471636 0.318074 0.900452
Si Si2 0.028364 0.818073 0.099548
Si Si3 0.086831 0.332744 0.161617
Si Si4 0.649159 0.805981 0.840992
Si Si5 0.722289 0.586235 0.500000
Si Si6 0.350841 0.305979 0.340993
Si Si7 0.586832 0.167255 0.161618
Si Si8 0.157075 0.229587 1.000000
O O1 0.500000 0.500000 0.890464
O O2 0.515839 0.189542 0.853551
O O3 0.404773 0.317381 0.865018
O O4 0.469108 0.273901 0.000000
O O5 0.095227 0.817379 0.134982
O O6 0.984161 0.689542 0.146449
O O7 0.114385 0.516821 0.161736
O O8 0.102644 0.249998 0.249999
O O9 0.116235 0.235681 0.082663
O O10 0.697425 0.823671 0.915524
O O11 0.674113 0.750001 0.750000
O O12 0.697425 0.676330 0.584476
O O13 0.793754 0.586591 0.500000
O O14 0.694774 0.401881 0.500000
O O15 0.385615 0.483178 0.338264
O O16 0.616236 0.264320 0.082664
#
# Coordination Sequence:
#
# PCOD9460726 Si02
#       8
#     8   8   8   8   8   8   8   8
#     4  11  22  37  62  94 124 160 200 245 301 361
#     4  11  22  37  62  94 124 160 200 245 301 361
#     4  11  23  41  63  91 124 161 201 247 302 360
#     4  11  23  41  63  91 124 161 201 247 302 360
#     4  10  24  43  64  87 119 160 204 252 303 354
#     4  11  23  41  63  91 124 161 201 247 302 360
#     4  11  23  41  63  91 124 161 201 247 302 360
#     4  10  24  43  64  87 119 160 204 252 303 354
#
# _framework density 22.615991000000001
#
# number of rings (size 3 to 8) (size 9 to 14) (size 15 to 20)
#    0.000    1.250    2.500    3.000    0.000    6.000 
#    0.000    5.000    0.000    0.000    0.000    0.000 
#    0.000    0.000    0.000    0.000    0.000    0.000 
#
# Total GULP energy -358384.286756 kJ/mol
# GULP energy per Si atom -5599.754481 kJ/mol
# Density = 2.256452 g / cm^3
# Si number density = 22.615991 Si / 1000 Ang^3
#
#
#
# Elastic Constant Matrix: (Units=GPa)
#
#
# Indices 1 2 3 4 5 6 
#
# 1 45.0746 -0.0043 4.9101 0.0000 0.0000 0.0000
# 2 -0.0043 48.5048 27.5820 0.0000 0.0000 0.0000
# 3 4.9101 27.5820 145.2565 0.0000 0.0000 0.0000
# 4 0.0000 0.0000 0.0000 23.3258 0.0000 0.0000
# 5 0.0000 0.0000 0.0000 0.0000 -15.9334 0.0000
# 6 0.0000 0.0000 0.0000 0.0000 0.0000 32.9388
#
#
#
# Elastic Compliance Matrix: (Units=1/GPa)
#
#
# Indices 1 2 3 4 5 6 
#
# 1 0.022278 0.000482 -0.000845 0.000000 0.000000 0.000000
# 2 0.000482 0.023123 -0.004407 0.000000 0.000000 0.000000
# 3 -0.000845 -0.004407 0.007750 0.000000 0.000000 0.000000
# 4 0.000000 0.000000 0.000000 0.042871 0.000000 0.000000
# 5 0.000000 0.000000 0.000000 0.000000 -0.062761 0.000000
# 6 0.000000 0.000000 0.000000 0.000000 0.000000 0.030359
#
#
# Mechanical properties :
#
#
# Convention : Reuss Voigt Hill
#
# Bulk Modulus (GPa) = 22.92989 33.75684 28.34337
# Shear Modulus (GPa) = 57.01624 21.82278 39.41951
#
# Velocity S-wave (km/s) = 5.02646 3.10970 4.17945
# Velocity P-wave (km/s) = 6.62177 5.27751 5.98749
#
# Compressibility (1/GPa) = 0.04361120
#
# Stress axis : x y z
#
# Youngs Moduli (GPa) = 44.88833 43.24789 129.03679
#
# Poissons Ratio (x) = -0.02086 0.10899
# Poissons Ratio (y) = -0.02165 0.56865
# Poissons Ratio (z) = 0.03791 0.19059
#
# Static dielectric constant tensor:
#      x y z
#    x 1.788700 0.000000 0.000000 
#    y 0.000000 1.873370 0.000000 
#    z 0.000000 0.000000 1.820470 
# 
# From -- ./inp_files/3188.got.cif
#   From: 2010.05.17/outbox.cif.g08.bks.cpg/sg61_2_cif.got.tgz:3188.got - 2010.06.03 15:17:17.
