data_PCOD9460980
_publ_section_title
;
Structure prediction by ZEFSAII (Michael W. Deem and Ramdas Pophale) SiO2 
 PCOD9460980
Probable space group: P B C A
;
_chemical_formula_sum "Si O2"
_cell_formula_units_Z 48
_cell_length_a 8.661407
_cell_length_b 13.091479
_cell_length_c 19.133798
_cell_angle_alpha 90.000000
_cell_angle_beta 90.000000
_cell_angle_gamma 90.000000
_cell_volume 2169.593368
_symmetry_space_group_name_H-M "P B C A"
_symmetry_group_IT_number 61
_symmetry_cell_setting 'orthorhombic'
loop_
_space_group_symop_operation_xyz
x,y,z
1/2-x,-y,1/2+z
1/2+x,1/2-y,-z
-x,1/2+y,1/2-z
-x,-y,-z
1/2+x,y,1/2-z
1/2-x,1/2+y,z
x,1/2-y,1/2+z
loop_
_atom_site_type_symbol
_atom_site_label
_atom_site_fract_x
_atom_site_fract_y
_atom_site_fract_z
Si Si1 0.056830 0.012440 0.386309
Si Si2 0.555449 0.216333 0.203572
Si Si3 0.063693 0.214819 0.034079
Si Si4 0.105550 0.779262 0.339460
Si Si5 0.755673 0.994369 0.976787
Si Si6 0.129674 0.810092 0.087078
O O1 0.057698 0.101942 0.328415
O O2 0.893084 0.016156 0.426547
O O3 0.075558 0.899489 0.352765
O O4 0.188227 0.022578 0.446746
O O5 0.721374 0.263626 0.186914
O O6 0.510856 0.227656 0.284196
O O7 0.425097 0.283418 0.163668
O O8 0.152453 0.110628 0.020456
O O9 0.195567 0.281792 0.069620
O O10 0.922245 0.219820 0.087771
O O11 0.991013 0.251834 0.961651
O O12 0.871285 0.074844 0.940751
#
# Coordination Sequence:
#
# PCOD9460980 Si02
#       6
#     8   8   8   8   8   8
#     4  11  24  47  73 108 145 185 244 304 360 433
#     4  12  28  48  72 105 146 198 242 303 370 442
#     4  12  23  41  70 105 145 188 242 295 359 425
#     4  12  28  48  72 105 146 198 242 303 370 442
#     4  11  23  41  75 108 142 187 237 300 360 421
#     4  12  23  41  70 105 145 188 242 295 359 425
#
# _framework density 22.12396
#
# number of rings (size 3 to 8) (size 9 to 14) (size 15 to 20)
#    0.000    0.333    3.333    6.500    0.000    4.000 
#    0.000    0.000    0.000    0.000    0.000    0.000 
#    0.000    0.000    0.000    0.000    0.000    0.000 
#
# Total GULP energy -268488.801672 kJ/mol
# GULP energy per Si atom -5593.516701 kJ/mol
# Density = 2.207361 g / cm^3
# Si number density = 22.123960 Si / 1000 Ang^3
#
#
#
# Elastic Constant Matrix: (Units=GPa)
#
#
# Indices 1 2 3 4 5 6 
#
# 1 59.6772 30.6641 -17.3515 0.0000 0.0000 0.0000
# 2 30.6641 120.4131 34.4251 0.0000 0.0000 0.0000
# 3 -17.3515 34.4251 70.8382 0.0000 0.0000 0.0000
# 4 0.0000 0.0000 0.0000 32.8719 0.0000 0.0000
# 5 0.0000 0.0000 0.0000 0.0000 38.3450 0.0000
# 6 0.0000 0.0000 0.0000 0.0000 0.0000 38.0087
#
#
#
# Elastic Compliance Matrix: (Units=1/GPa)
#
#
# Indices 1 2 3 4 5 6 
#
# 1 0.024579 -0.009268 0.010525 0.000000 0.000000 0.000000
# 2 -0.009268 0.013140 -0.008656 0.000000 0.000000 0.000000
# 3 0.010525 -0.008656 0.020901 0.000000 0.000000 0.000000
# 4 0.000000 0.000000 0.000000 0.030421 0.000000 0.000000
# 5 0.000000 0.000000 0.000000 0.000000 0.026079 0.000000
# 6 0.000000 0.000000 0.000000 0.000000 0.000000 0.026310
#
#
# Mechanical properties :
#
#
# Convention : Reuss Voigt Hill
#
# Bulk Modulus (GPa) = 22.81994 38.48935 30.65465
# Shear Modulus (GPa) = 29.26798 35.39115 32.32957
#
# Velocity S-wave (km/s) = 3.64113 4.00393 3.82683
# Velocity P-wave (km/s) = 5.29283 6.22978 5.78032
#
# Compressibility (1/GPa) = 0.04382132
#
# Stress axis : x y z
#
# Youngs Moduli (GPa) = 40.68482 76.10620 47.84465
#
# Poissons Ratio (x) = 0.70537 -0.50355
# Poissons Ratio (y) = 0.37707 0.41412
# Poissons Ratio (z) = -0.42819 0.65874
#
# Static dielectric constant tensor:
#      x y z
#    x 1.808440 0.000000 0.000000 
#    y 0.000000 1.857760 0.000000 
#    z 0.000000 0.000000 1.762250 
# 
# From -- ./inp_files/8908.got.cif
#   From: 2010.05.17/outbox.cif.g08.bks.cpg/sg61_5_cif.got.tgz:8908.got - 2010.06.03 15:17:17.
