data_PCOD9460155
_publ_section_title
;
Structure prediction by ZEFSAII (Michael W. Deem and Ramdas Pophale) SiO2 
 PCOD9460155
Probable space group: P B C A
;
_chemical_formula_sum "Si O2"
_cell_formula_units_Z 64
_cell_length_a 14.169940
_cell_length_b 12.273905
_cell_length_c 16.916717
_cell_angle_alpha 90.000000
_cell_angle_beta 90.000000
_cell_angle_gamma 90.000000
_cell_volume 2942.163835
_symmetry_space_group_name_H-M "P B C A"
_symmetry_group_IT_number 61
_symmetry_cell_setting 'orthorhombic'
loop_
_space_group_symop_operation_xyz
x,y,z
1/2-x,-y,1/2+z
1/2+x,1/2-y,-z
-x,1/2+y,1/2-z
-x,-y,-z
1/2+x,y,1/2-z
1/2-x,1/2+y,z
x,1/2-y,1/2+z
loop_
_atom_site_type_symbol
_atom_site_label
_atom_site_fract_x
_atom_site_fract_y
_atom_site_fract_z
Si Si1 0.366019 0.285831 0.395888
Si Si2 0.818284 0.813472 0.367687
Si Si3 0.249537 0.384222 0.976777
Si Si4 0.710358 0.664839 0.250536
Si Si5 0.571441 0.006283 0.784575
Si Si6 0.043592 0.327712 0.538227
Si Si7 0.421214 0.524055 0.902740
Si Si8 0.367547 0.534866 0.348889
O O1 0.284079 0.234950 0.449742
O O2 0.359262 0.212837 0.316474
O O3 0.461034 0.259683 0.444186
O O4 0.350248 0.408049 0.368340
O O5 0.759583 0.885700 0.429675
O O6 0.755955 0.762737 0.298735
O O7 0.901713 0.885312 0.331244
O O8 0.864761 0.716703 0.418319
O O9 0.327737 0.467833 0.941473
O O10 0.150517 0.408065 0.933599
O O11 0.649024 0.584992 0.303912
O O12 0.791461 0.593296 0.207852
O O13 0.583211 0.032295 0.691408
O O14 0.469538 0.962160 0.809007
O O15 0.059959 0.362928 0.447841
O O16 0.005336 0.439426 0.577673
#
# Coordination Sequence:
#
# PCOD9460155 Si02
#       8
#     8   8   8   8   8   8   8   8
#     4  10  21  48  65 100 137 181 230 287 348 412
#     4  12  27  42  67 105 139 180 238 283 353 427
#     4  10  25  45  69  99 141 191 225 291 359 422
#     4  11  25  43  68 102 139 185 235 290 349 419
#     4  12  24  46  72 109 136 181 241 295 357 413
#     4  10  21  44  68  97 134 179 234 279 340 427
#     4  10  22  46  72  95 140 184 230 285 349 425
#     4  11  23  44  78  95 144 184 225 301 353 407
#
# _framework density 21.752697000000001
#
# number of rings (size 3 to 8) (size 9 to 14) (size 15 to 20)
#    0.000    1.250    5.000    1.500    3.500    1.500 
#   13.500    0.000    0.000    0.000    0.000    0.000 
#    0.000    0.000    0.000    0.000    0.000    0.000 
#
# Total GULP energy -357605.974900 kJ/mol
# GULP energy per Si atom -5587.593358 kJ/mol
# Density = 2.170319 g / cm^3
# Si number density = 21.752697 Si / 1000 Ang^3
#
#
#
# Elastic Constant Matrix: (Units=GPa)
#
#
# Indices 1 2 3 4 5 6 
#
# 1 82.1433 24.6817 32.1208 0.0000 0.0000 0.0000
# 2 24.6817 50.8709 21.4322 0.0000 0.0000 0.0000
# 3 32.1208 21.4322 73.3601 0.0000 0.0000 0.0000
# 4 0.0000 0.0000 0.0000 38.8662 0.0000 0.0000
# 5 0.0000 0.0000 0.0000 0.0000 24.3784 0.0000
# 6 0.0000 0.0000 0.0000 0.0000 0.0000 20.9107
#
#
#
# Elastic Compliance Matrix: (Units=1/GPa)
#
#
# Indices 1 2 3 4 5 6 
#
# 1 0.015915 -0.005458 -0.005374 0.000000 0.000000 0.000000
# 2 -0.005458 0.024288 -0.004706 0.000000 0.000000 0.000000
# 3 -0.005374 -0.004706 0.017359 0.000000 0.000000 0.000000
# 4 0.000000 0.000000 0.000000 0.025729 0.000000 0.000000
# 5 0.000000 0.000000 0.000000 0.000000 0.041020 0.000000
# 6 0.000000 0.000000 0.000000 0.000000 0.000000 0.047822
#
#
# Mechanical properties :
#
#
# Convention : Reuss Voigt Hill
#
# Bulk Modulus (GPa) = 37.75430 40.31595 39.03513
# Shear Modulus (GPa) = 23.58055 25.37370 24.47713
#
# Velocity S-wave (km/s) = 3.29603 3.41906 3.35811
# Velocity P-wave (km/s) = 5.64614 5.84471 5.74628
#
# Compressibility (1/GPa) = 0.02648705
#
# Stress axis : x y z
#
# Youngs Moduli (GPa) = 62.83328 41.17203 57.60590
#
# Poissons Ratio (x) = 0.22470 0.30957
# Poissons Ratio (y) = 0.34292 0.27111
# Poissons Ratio (z) = 0.33767 0.19376
#
# Static dielectric constant tensor:
#      x y z
#    x 1.802290 0.000000 0.000000 
#    y 0.000000 1.812860 0.000000 
#    z 0.000000 0.000000 1.814150 
# 
# From -- ./inp_files/9526.got.cif
#   From: 2010.05.17/outbox.cif.g08.bks.cpg/sg61_5_cif.got.tgz:9526.got - 2010.06.03 15:17:17.
