data_PCOD9460875
_publ_section_title
;
Structure prediction by ZEFSAII (Michael W. Deem and Ramdas Pophale) SiO2 
 PCOD9460875
Probable space group: P B C A
;
_chemical_formula_sum "Si O2"
_cell_formula_units_Z 56
_cell_length_a 21.760105
_cell_length_b 15.904724
_cell_length_c 8.115516
_cell_angle_alpha 90.000000
_cell_angle_beta 90.000000
_cell_angle_gamma 90.000000
_cell_volume 2808.686469
_symmetry_space_group_name_H-M "P B C A"
_symmetry_group_IT_number 61
_symmetry_cell_setting 'orthorhombic'
loop_
_space_group_symop_operation_xyz
x,y,z
1/2-x,-y,1/2+z
1/2+x,1/2-y,-z
-x,1/2+y,1/2-z
-x,-y,-z
1/2+x,y,1/2-z
1/2-x,1/2+y,z
x,1/2-y,1/2+z
loop_
_atom_site_type_symbol
_atom_site_label
_atom_site_fract_x
_atom_site_fract_y
_atom_site_fract_z
Si Si1 0.532977 0.741329 0.954888
Si Si2 0.006185 0.580787 0.888490
Si Si3 0.318952 0.974803 0.507881
Si Si4 0.374789 0.228090 0.304067
Si Si5 0.955081 0.576483 0.555161
Si Si6 0.196143 0.569620 0.157889
Si Si7 0.854335 0.084128 0.691544
O O1 0.508622 0.831766 0.013966
O O2 0.601159 0.709338 0.012779
O O3 0.555683 0.760997 0.769027
O O4 0.485921 0.666277 0.981672
O O5 0.071981 0.575905 0.796353
O O6 0.953524 0.575530 0.753172
O O7 0.000000 0.500000 0.000000
O O8 0.386395 0.934011 0.509084
O O9 0.264695 0.918148 0.585000
O O10 0.305560 0.009880 0.321863
O O11 0.322985 0.047375 0.646901
O O12 0.337926 0.153973 0.219804
O O13 0.340725 0.316542 0.318204
O O14 0.000000 0.500000 0.500000
O O15 0.162158 0.542856 0.986580
#
# Coordination Sequence:
#
# PCOD9460875 Si02
#       7
#     8   8   8   8   8   8   8
#     4  11  22  39  65 100 135 168 225 278 331 412
#     4  11  23  39  67 100 135 177 217 273 345 417
#     4  12  26  43  68  97 136 177 227 285 341 400
#     4  11  20  39  70  94 122 175 225 274 327 403
#     4  12  23  40  66  99 134 174 216 280 351 402
#     4  12  24  43  69  96 133 178 233 279 335 408
#     4  11  22  44  66 102 129 172 235 273 334 416
#
# _framework density 19.938144999999999
#
# number of rings (size 3 to 8) (size 9 to 14) (size 15 to 20)
#    0.000    0.571    8.571    2.571    2.000    0.000 
#    0.000    1.429    0.000    0.000    0.000    0.000 
#    0.000    0.000    0.000    0.000    0.000    0.000 
#
# Total GULP energy -311885.994553 kJ/mol
# GULP energy per Si atom -5569.392760 kJ/mol
# Density = 1.989276 g / cm^3
# Si number density = 19.938145 Si / 1000 Ang^3
#
#
#
# Elastic Constant Matrix: (Units=GPa)
#
#
# Indices 1 2 3 4 5 6 
#
# 1 94.8230 48.3116 8.0474 0.0000 0.0000 0.0000
# 2 48.3116 116.7086 46.2489 0.0000 0.0000 0.0000
# 3 8.0474 46.2489 88.9627 0.0000 0.0000 0.0000
# 4 0.0000 0.0000 0.0000 34.7637 0.0000 0.0000
# 5 0.0000 0.0000 0.0000 0.0000 37.0162 0.0000
# 6 0.0000 0.0000 0.0000 0.0000 0.0000 24.0584
#
#
#
# Elastic Compliance Matrix: (Units=1/GPa)
#
#
# Indices 1 2 3 4 5 6 
#
# 1 0.013683 -0.006516 0.002150 0.000000 0.000000 0.000000
# 2 -0.006516 0.013895 -0.006634 0.000000 0.000000 0.000000
# 3 0.002150 -0.006634 0.014495 0.000000 0.000000 0.000000
# 4 0.000000 0.000000 0.000000 0.028766 0.000000 0.000000
# 5 0.000000 0.000000 0.000000 0.000000 0.027015 0.000000
# 6 0.000000 0.000000 0.000000 0.000000 0.000000 0.041565
#
#
# Mechanical properties :
#
#
# Convention : Reuss Voigt Hill
#
# Bulk Modulus (GPa) = 49.81971 56.19001 53.00486
# Shear Modulus (GPa) = 29.74229 32.36009 31.05119
#
# Velocity S-wave (km/s) = 3.86648 4.03305 3.95064
# Velocity P-wave (km/s) = 6.70629 7.06616 6.88857
#
# Compressibility (1/GPa) = 0.02007238
#
# Stress axis : x y z
#
# Youngs Moduli (GPa) = 73.08090 71.97045 68.98945
#
# Poissons Ratio (x) = 0.46897 -0.14831
# Poissons Ratio (y) = 0.47621 0.45767
# Poissons Ratio (z) = -0.15711 0.47745
#
# Static dielectric constant tensor:
#      x y z
#    x 1.739960 0.000000 0.000000 
#    y 0.000000 1.830690 0.000000 
#    z 0.000000 0.000000 4.339740 
# 
# From -- ./inp_files/3982.got.cif
#   From: 2010.05.17/outbox.cif.g08.bks.cpg/sg61_2_cif.got.tgz:3982.got - 2010.06.03 15:17:17.
