data_PCOD9460616
_publ_section_title
;
Structure prediction by ZEFSAII (Michael W. Deem and Ramdas Pophale) SiO2 
 PCOD9460616
Probable space group: P B C A
;
_chemical_formula_sum "Si O2"
_cell_formula_units_Z 40
_cell_length_a 25.830682
_cell_length_b 7.978723
_cell_length_c 8.823078
_cell_angle_alpha 90.000000
_cell_angle_beta 90.000000
_cell_angle_gamma 90.000000
_cell_volume 1818.399818
_symmetry_space_group_name_H-M "P B C A"
_symmetry_group_IT_number 61
_symmetry_cell_setting 'orthorhombic'
loop_
_space_group_symop_operation_xyz
x,y,z
1/2-x,-y,1/2+z
1/2+x,1/2-y,-z
-x,1/2+y,1/2-z
-x,-y,-z
1/2+x,y,1/2-z
1/2-x,1/2+y,z
x,1/2-y,1/2+z
loop_
_atom_site_type_symbol
_atom_site_label
_atom_site_fract_x
_atom_site_fract_y
_atom_site_fract_z
Si Si1 0.462859 0.093763 0.697192
Si Si2 0.801246 0.337073 0.924741
Si Si3 0.618106 0.022946 0.093939
Si Si4 0.026626 0.267208 0.043353
Si Si5 0.216608 0.977012 0.259758
O O1 0.507383 0.109653 0.824959
O O2 0.479566 0.228598 0.572260
O O3 0.410370 0.106449 0.792698
O O4 0.461341 0.912638 0.617999
O O5 0.766720 0.432057 0.801445
O O6 0.802455 0.146590 0.872924
O O7 0.856502 0.423827 0.953626
O O8 0.774349 0.367441 0.088269
O O9 0.668099 0.091428 0.186261
O O10 0.576028 0.156627 0.041344
#
# Coordination Sequence:
#
# PCOD9460616 Si02
#       5
#     8   8   8   8   8
#     4  11  24  43  73 100 148 181 247 299 360 431
#     4  10  23  44  72 101 142 186 237 296 361 432
#     4  10  25  41  72 102 147 186 245 282 378 417
#     4  11  24  46  67 106 138 194 240 301 357 442
#     4  10  23  44  70 102 140 188 234 301 352 441
#
# _framework density 21.997363
#
# number of rings (size 3 to 8) (size 9 to 14) (size 15 to 20)
#    1.200    0.400    2.000    1.800    2.800    1.600 
#    0.000    2.000    0.000    0.000    0.000    0.000 
#    0.000    0.000    0.000    0.000    0.000    0.000 
#
# Total GULP energy -223054.723136 kJ/mol
# GULP energy per Si atom -5576.368078 kJ/mol
# Density = 2.194730 g / cm^3
# Si number density = 21.997363 Si / 1000 Ang^3
#
#
#
# Elastic Constant Matrix: (Units=GPa)
#
#
# Indices 1 2 3 4 5 6 
#
# 1 65.1705 27.6849 32.1408 0.0000 0.0000 0.0000
# 2 27.6849 73.7158 20.5860 0.0000 0.0000 0.0000
# 3 32.1408 20.5860 99.5340 0.0000 0.0000 0.0000
# 4 0.0000 0.0000 0.0000 33.6373 0.0000 0.0000
# 5 0.0000 0.0000 0.0000 0.0000 54.7656 0.0000
# 6 0.0000 0.0000 0.0000 0.0000 0.0000 26.0848
#
#
#
# Elastic Compliance Matrix: (Units=1/GPa)
#
#
# Indices 1 2 3 4 5 6 
#
# 1 0.020653 -0.006255 -0.005375 0.000000 0.000000 0.000000
# 2 -0.006255 0.016292 -0.001350 0.000000 0.000000 0.000000
# 3 -0.005375 -0.001350 0.012062 0.000000 0.000000 0.000000
# 4 0.000000 0.000000 0.000000 0.029729 0.000000 0.000000
# 5 0.000000 0.000000 0.000000 0.000000 0.018260 0.000000
# 6 0.000000 0.000000 0.000000 0.000000 0.000000 0.038336
#
#
# Mechanical properties :
#
#
# Convention : Reuss Voigt Hill
#
# Bulk Modulus (GPa) = 43.39186 44.36042 43.87614
# Shear Modulus (GPa) = 29.59049 33.43146 31.51097
#
# Velocity S-wave (km/s) = 3.67165 3.90268 3.78893
# Velocity P-wave (km/s) = 6.14357 6.36537 6.25545
#
# Compressibility (1/GPa) = 0.02304580
#
# Stress axis : x y z
#
# Youngs Moduli (GPa) = 48.42004 61.38073 82.90714
#
# Poissons Ratio (x) = 0.38395 0.44565
# Poissons Ratio (y) = 0.30288 0.11189
# Poissons Ratio (z) = 0.26027 0.08284
#
# Static dielectric constant tensor:
#      x y z
#    x 1.820250 0.000000 0.000000 
#    y 0.000000 1.813890 0.000000 
#    z 0.000000 0.000000 1.842520 
# 
# From -- ./inp_files/4412.got.cif
#   From: 2010.05.17/outbox.cif.g08.bks.cpg/sg61_3_cif.got.tgz:4412.got - 2010.06.03 15:17:17.
