data_PCOD9460519
_publ_section_title
;
Structure prediction by ZEFSAII (Michael W. Deem and Ramdas Pophale) SiO2 
 PCOD9460519
Probable space group: P B C A
;
_chemical_formula_sum "Si O2"
_cell_formula_units_Z 56
_cell_length_a 19.069018
_cell_length_b 8.718976
_cell_length_c 14.988279
_cell_angle_alpha 90.000000
_cell_angle_beta 90.000000
_cell_angle_gamma 90.000000
_cell_volume 2491.985894
_symmetry_space_group_name_H-M "P B C A"
_symmetry_group_IT_number 61
_symmetry_cell_setting 'orthorhombic'
loop_
_space_group_symop_operation_xyz
x,y,z
1/2-x,-y,1/2+z
1/2+x,1/2-y,-z
-x,1/2+y,1/2-z
-x,-y,-z
1/2+x,y,1/2-z
1/2-x,1/2+y,z
x,1/2-y,1/2+z
loop_
_atom_site_type_symbol
_atom_site_label
_atom_site_fract_x
_atom_site_fract_y
_atom_site_fract_z
Si Si1 0.150556 0.061250 0.024375
Si Si2 0.125687 0.669930 0.846655
Si Si3 0.786765 0.343814 0.797526
Si Si4 0.057883 0.523424 0.386252
Si Si5 0.414918 0.563045 0.207815
Si Si6 0.228340 0.752777 0.998165
Si Si7 0.156497 0.159042 0.755874
O O1 0.188837 0.218144 0.996845
O O2 0.073052 0.042147 0.984365
O O3 0.201085 0.925696 0.989342
O O4 0.142264 0.034606 0.129796
O O5 0.153825 0.756008 0.758076
O O6 0.071454 0.793255 0.887114
O O7 0.098113 0.512588 0.804489
O O8 0.186716 0.660416 0.921017
O O9 0.803261 0.524092 0.795638
O O10 0.716798 0.290701 0.743032
O O11 0.788462 0.298377 0.900813
O O12 0.122223 0.433861 0.336969
O O13 0.987668 0.500581 0.331057
O O14 0.408992 0.747296 0.215669
#
# Coordination Sequence:
#
# PCOD9460519 Si02
#       7
#     8   8   8   8   8   8   8
#     4  11  23  40  65  93 126 169 210 276 329 391
#     4  10  23  40  66  91 130 170 213 273 325 387
#     4  11  20  40  62  96 131 164 212 275 338 383
#     4  10  24  42  63  93 128 175 227 260 317 397
#     4  12  22  42  64  92 132 177 218 262 323 394
#     4  11  22  40  63  96 128 156 213 269 338 388
#     4  11  23  38  67  93 128 172 213 271 332 384
#
# _framework density 22.472035999999999
#
# number of rings (size 3 to 8) (size 9 to 14) (size 15 to 20)
#    0.000    1.143    2.857    3.857    0.000    3.429 
#    0.000    0.000    0.000    3.429    0.000    0.000 
#    0.000    0.000    0.000    0.000    0.000    0.000 
#
# Total GULP energy -312032.070975 kJ/mol
# GULP energy per Si atom -5572.001267 kJ/mol
# Density = 2.242089 g / cm^3
# Si number density = 22.472036 Si / 1000 Ang^3
#
#
#
# Elastic Constant Matrix: (Units=GPa)
#
#
# Indices 1 2 3 4 5 6 
#
# 1 39.8491 18.2016 1.6170 0.0000 0.0000 0.0000
# 2 18.2016 76.9612 13.1957 0.0000 0.0000 0.0000
# 3 1.6170 13.1957 71.3811 0.0000 0.0000 0.0000
# 4 0.0000 0.0000 0.0000 23.1998 0.0000 0.0000
# 5 0.0000 0.0000 0.0000 0.0000 23.4954 0.0000
# 6 0.0000 0.0000 0.0000 0.0000 0.0000 35.0089
#
#
#
# Elastic Compliance Matrix: (Units=1/GPa)
#
#
# Indices 1 2 3 4 5 6 
#
# 1 0.028160 -0.006765 0.000613 0.000000 0.000000 0.000000
# 2 -0.006765 0.015044 -0.002628 0.000000 0.000000 0.000000
# 3 0.000613 -0.002628 0.014481 0.000000 0.000000 0.000000
# 4 0.000000 0.000000 0.000000 0.043104 0.000000 0.000000
# 5 0.000000 0.000000 0.000000 0.000000 0.042562 0.000000
# 6 0.000000 0.000000 0.000000 0.000000 0.000000 0.028564
#
#
# Mechanical properties :
#
#
# Convention : Reuss Voigt Hill
#
# Bulk Modulus (GPa) = 24.92221 28.24667 26.58444
# Shear Modulus (GPa) = 24.64879 26.68596 25.66737
#
# Velocity S-wave (km/s) = 3.31549 3.44978 3.38330
# Velocity P-wave (km/s) = 5.07652 5.33525 5.20749
#
# Compressibility (1/GPa) = 0.04012486
#
# Stress axis : x y z
#
# Youngs Moduli (GPa) = 35.51161 66.47139 69.05495
#
# Poissons Ratio (x) = 0.44968 -0.04231
# Poissons Ratio (y) = 0.24023 0.18146
# Poissons Ratio (z) = -0.02176 0.17468
#
# Static dielectric constant tensor:
#      x y z
#    x 1.890450 0.000000 0.000000 
#    y 0.000000 1.877530 0.000000 
#    z 0.000000 0.000000 1.879770 
# 
# From -- ./inp_files/8364.got.cif
#   From: 2010.05.17/outbox.cif.g08.bks.cpg/sg61_5_cif.got.tgz:8364.got - 2010.06.03 15:17:17.
