data_PCOD9460077
_publ_section_title
;
Structure prediction by ZEFSAII (Michael W. Deem and Ramdas Pophale) SiO2 
 PCOD9460077
Probable space group: P B C A
;
_chemical_formula_sum "Si O2"
_cell_formula_units_Z 64
_cell_length_a 21.839643
_cell_length_b 15.562746
_cell_length_c 8.630489
_cell_angle_alpha 90.000000
_cell_angle_beta 90.000000
_cell_angle_gamma 90.000000
_cell_volume 2933.372172
_symmetry_space_group_name_H-M "P B C A"
_symmetry_group_IT_number 61
_symmetry_cell_setting 'orthorhombic'
loop_
_space_group_symop_operation_xyz
x,y,z
1/2-x,-y,1/2+z
1/2+x,1/2-y,-z
-x,1/2+y,1/2-z
-x,-y,-z
1/2+x,y,1/2-z
1/2-x,1/2+y,z
x,1/2-y,1/2+z
loop_
_atom_site_type_symbol
_atom_site_label
_atom_site_fract_x
_atom_site_fract_y
_atom_site_fract_z
Si Si1 0.867654 0.830028 0.119895
Si Si2 0.474297 0.405588 0.558961
Si Si3 0.402090 0.839305 0.033644
Si Si4 0.271183 0.136050 0.823796
Si Si5 0.598995 0.640066 0.149681
Si Si6 0.428736 0.516914 0.039234
Si Si7 0.163350 0.752950 0.584732
Si Si8 0.374982 0.483877 0.374892
O O1 0.900567 0.828283 0.284164
O O2 0.800959 0.867920 0.155366
O O3 0.907106 0.888603 0.005444
O O4 0.864768 0.735395 0.049322
O O5 0.500000 0.500000 0.500000
O O6 0.526804 0.339690 0.514181
O O7 0.458432 0.385281 0.737935
O O8 0.411082 0.407263 0.463305
O O9 0.376426 0.931565 0.980076
O O10 0.294976 0.179822 0.665703
O O11 0.306881 0.046565 0.839044
O O12 0.296112 0.196188 0.962022
O O13 0.610390 0.548963 0.067332
O O14 0.643060 0.684177 0.275967
O O15 0.605938 0.706622 0.004437
O O16 0.500000 0.500000 0.000000
O O17 0.412081 0.500488 0.217191
#
# Coordination Sequence:
#
# PCOD9460077 Si02
#       8
#     8   8   8   8   8   8   8   8
#     4  12  27  46  69  99 140 192 231 294 359 421
#     4  10  21  41  69  98 136 176 223 289 349 416
#     4  11  25  46  67 100 140 182 237 286 356 424
#     4  11  23  46  68 100 140 179 239 292 351 428
#     4  11  22  42  67 103 135 178 227 285 359 408
#     4  12  25  45  68 101 141 179 237 287 351 427
#     4  10  23  42  69 100 137 173 233 295 340 426
#     4  11  22  44  71 101 136 181 232 292 355 425
#
# _framework density 21.817893999999999
#
# number of rings (size 3 to 8) (size 9 to 14) (size 15 to 20)
#    0.000    1.000    2.500    5.250    0.000    3.000 
#    4.500    0.000    0.000    0.000    0.000    0.000 
#    0.000    0.000    0.000    0.000    0.000    0.000 
#
# Total GULP energy -357206.656615 kJ/mol
# GULP energy per Si atom -5581.354010 kJ/mol
# Density = 2.176824 g / cm^3
# Si number density = 21.817894 Si / 1000 Ang^3
#
#
#
# Elastic Constant Matrix: (Units=GPa)
#
#
# Indices 1 2 3 4 5 6 
#
# 1 76.0014 9.2281 1.3953 0.0000 0.0000 0.0000
# 2 9.2281 57.1979 13.8738 0.0000 0.0000 0.0000
# 3 1.3953 13.8738 106.3791 0.0000 0.0000 0.0000
# 4 0.0000 0.0000 0.0000 -131.6391 0.0000 0.0000
# 5 0.0000 0.0000 0.0000 0.0000 13.8195 0.0000
# 6 0.0000 0.0000 0.0000 0.0000 0.0000 24.4175
#
#
#
# Elastic Compliance Matrix: (Units=1/GPa)
#
#
# Indices 1 2 3 4 5 6 
#
# 1 0.013422 -0.002192 0.000110 0.000000 0.000000 0.000000
# 2 -0.002192 0.018412 -0.002373 0.000000 0.000000 0.000000
# 3 0.000110 -0.002373 0.009708 0.000000 0.000000 0.000000
# 4 0.000000 0.000000 0.000000 -0.007597 0.000000 0.000000
# 5 0.000000 0.000000 0.000000 0.000000 0.072361 0.000000
# 6 0.000000 0.000000 0.000000 0.000000 0.000000 0.040954
#
#
# Mechanical properties :
#
#
# Convention : Reuss Voigt Hill
#
# Bulk Modulus (GPa) = 30.64396 32.06365 31.35380
# Shear Modulus (GPa) = 29.93140 -4.34167 12.79487
#
# Velocity S-wave (km/s) = 3.70790 -1.41219 2.42428
# Velocity P-wave (km/s) = 5.69273 3.47403 4.71572
#
# Compressibility (1/GPa) = 0.03263286
#
# Stress axis : x y z
#
# Youngs Moduli (GPa) = 74.50564 54.31151 103.00434
#
# Poissons Ratio (x) = 0.11905 -0.01131
# Poissons Ratio (y) = 0.16332 0.24438
# Poissons Ratio (z) = -0.00818 0.12886
#
# Static dielectric constant tensor:
#      x y z
#    x 1.861370 0.000000 0.000000 
#    y 0.000000 1.797620 0.000000 
#    z 0.000000 0.000000 1.820340 
# 
# From -- ./inp_files/4350.got.cif
#   From: 2010.05.17/outbox.cif.g08.bks.cpg/sg61_3_cif.got.tgz:4350.got - 2010.06.03 15:17:17.
