data_PCOD9460927
_publ_section_title
;
Structure prediction by ZEFSAII (Michael W. Deem and Ramdas Pophale) SiO2 
 PCOD9460927
Probable space group: P B C A
;
_chemical_formula_sum "Si O2"
_cell_formula_units_Z 48
_cell_length_a 7.847765
_cell_length_b 32.117761
_cell_length_c 8.441737
_cell_angle_alpha 90.000000
_cell_angle_beta 90.000000
_cell_angle_gamma 90.000000
_cell_volume 2127.762103
_symmetry_space_group_name_H-M "P B C A"
_symmetry_group_IT_number 61
_symmetry_cell_setting 'orthorhombic'
loop_
_space_group_symop_operation_xyz
x,y,z
1/2-x,-y,1/2+z
1/2+x,1/2-y,-z
-x,1/2+y,1/2-z
-x,-y,-z
1/2+x,y,1/2-z
1/2-x,1/2+y,z
x,1/2-y,1/2+z
loop_
_atom_site_type_symbol
_atom_site_label
_atom_site_fract_x
_atom_site_fract_y
_atom_site_fract_z
Si Si1 0.808408 0.207597 0.652207
Si Si2 0.237672 0.960179 0.500535
Si Si3 0.126098 0.458576 0.826718
Si Si4 0.123353 0.120932 0.841763
Si Si5 0.815768 0.710012 0.994105
Si Si6 0.247895 0.878628 0.998745
O O1 0.713895 0.164368 0.612650
O O2 0.711992 0.248645 0.593076
O O3 0.810132 0.210007 0.842534
O O4 0.994949 0.208527 0.577216
O O5 0.377761 0.962650 0.638285
O O6 0.273715 0.919330 0.399027
O O7 0.059203 0.957378 0.594120
O O8 0.223336 0.001115 0.394326
O O9 0.217956 0.416241 0.880918
O O10 0.124073 0.119407 0.650175
O O11 0.938079 0.119134 0.921158
O O12 0.776756 0.666443 0.080719
#
# Coordination Sequence:
#
# PCOD9460927 Si02
#       6
#     8   8   8   8   8   8
#     4  11  22  39  61  88 120 156 198 243 294 349
#     4  11  24  41  62  89 120 155 196 242 293 349
#     4  11  24  41  62  89 120 155 196 242 293 349
#     4  11  22  39  62  88 119 156 197 242 294 349
#     4  11  22  39  61  88 120 156 198 243 294 349
#     4  11  22  39  62  88 119 156 197 242 294 349
#
# _framework density 22.558913
#
# number of rings (size 3 to 8) (size 9 to 14) (size 15 to 20)
#    0.000    1.000    0.000   10.000    0.000    6.667 
#    0.000    6.667    0.000    0.000    0.000    0.000 
#    0.000    0.000    0.000    0.000    0.000    0.000 
#
# Total GULP energy -268869.408757 kJ/mol
# GULP energy per Si atom -5601.446016 kJ/mol
# Density = 2.250757 g / cm^3
# Si number density = 22.558913 Si / 1000 Ang^3
#
#
#
# Elastic Constant Matrix: (Units=GPa)
#
#
# Indices 1 2 3 4 5 6 
#
# 1 67.5420 17.4923 -15.6902 0.0000 0.0000 0.0000
# 2 17.4923 182.8862 38.2766 0.0000 0.0000 0.0000
# 3 -15.6902 38.2766 32.8576 0.0000 0.0000 0.0000
# 4 0.0000 0.0000 0.0000 40.2447 0.0000 0.0000
# 5 0.0000 0.0000 0.0000 0.0000 31.9688 0.0000
# 6 0.0000 0.0000 0.0000 0.0000 0.0000 27.9513
#
#
#
# Elastic Compliance Matrix: (Units=1/GPa)
#
#
# Indices 1 2 3 4 5 6 
#
# 1 0.019686 -0.005092 0.015332 0.000000 0.000000 0.000000
# 2 -0.005092 0.008548 -0.012389 0.000000 0.000000 0.000000
# 3 0.015332 -0.012389 0.052188 0.000000 0.000000 0.000000
# 4 0.000000 0.000000 0.000000 0.024848 0.000000 0.000000
# 5 0.000000 0.000000 0.000000 0.000000 0.031281 0.000000
# 6 0.000000 0.000000 0.000000 0.000000 0.000000 0.035776
#
#
# Mechanical properties :
#
#
# Convention : Reuss Voigt Hill
#
# Bulk Modulus (GPa) = 13.13649 40.38258 26.75954
# Shear Modulus (GPa) = 24.75267 36.24677 30.49972
#
# Velocity S-wave (km/s) = 3.31606 4.01279 3.68095
# Velocity P-wave (km/s) = 4.52742 6.27772 5.47299
#
# Compressibility (1/GPa) = 0.07612384
#
# Stress axis : x y z
#
# Youngs Moduli (GPa) = 50.79782 116.98958 19.16162
#
# Poissons Ratio (x) = 0.59568 -0.29378
# Poissons Ratio (y) = 0.25865 0.23739
# Poissons Ratio (z) = -0.77882 1.44937
#
# Static dielectric constant tensor:
#      x y z
#    x 1.873980 0.000000 0.000000 
#    y 0.000000 1.818520 0.000000 
#    z 0.000000 0.000000 1.781560 
# 
# From -- ./inp_files/1855.got.cif
#   From: 2010.05.17/outbox.cif.g08.bks.cpg/sg61_1_cif.got.tgz:1855.got - 2010.06.03 15:17:17.
