data_PCOD9460584
_publ_section_title
;
Structure prediction by ZEFSAII (Michael W. Deem and Ramdas Pophale) SiO2 
 PCOD9460584
Probable space group: P B C A
;
_chemical_formula_sum "Si O2"
_cell_formula_units_Z 64
_cell_length_a 9.249394
_cell_length_b 31.686786
_cell_length_c 10.298068
_cell_angle_alpha 90.000000
_cell_angle_beta 90.000000
_cell_angle_gamma 90.000000
_cell_volume 3018.194516
_symmetry_space_group_name_H-M "P B C A"
_symmetry_group_IT_number 61
_symmetry_cell_setting 'orthorhombic'
loop_
_space_group_symop_operation_xyz
x,y,z
1/2-x,-y,1/2+z
1/2+x,1/2-y,-z
-x,1/2+y,1/2-z
-x,-y,-z
1/2+x,y,1/2-z
1/2-x,1/2+y,z
x,1/2-y,1/2+z
loop_
_atom_site_type_symbol
_atom_site_label
_atom_site_fract_x
_atom_site_fract_y
_atom_site_fract_z
Si Si1 0.944400 0.668509 0.482658
Si Si2 0.301166 0.369312 0.327961
Si Si3 0.726300 0.623143 0.979935
Si Si4 0.635862 0.533041 0.653639
Si Si5 0.449014 0.815020 0.073294
Si Si6 0.536694 0.752190 0.898777
Si Si7 0.689724 0.265769 0.783455
Si Si8 0.299570 0.528462 0.579227
O O1 0.070252 0.633966 0.458364
O O2 0.036835 0.705337 0.552502
O O3 0.823452 0.650496 0.581072
O O4 0.869314 0.693736 0.362900
O O5 0.270440 0.367440 0.175140
O O6 0.320040 0.418223 0.364173
O O7 0.454994 0.346394 0.342299
O O8 0.765283 0.573976 0.985539
O O9 0.852491 0.655534 0.021299
O O10 0.462285 0.529466 0.638378
O O11 0.703060 0.505476 0.536820
O O12 0.692671 0.521002 0.798132
O O13 0.361379 0.777965 0.146680
O O14 0.572534 0.787397 0.002188
O O15 0.374756 0.762571 0.857992
O O16 0.639220 0.762103 0.779691
#
# Coordination Sequence:
#
# PCOD9460584 Si02
#       8
#     8   8   8   8   8   8   8   8
#     4  11  24  38  57  87 120 152 205 247 297 352
#     4  11  21  39  62  90 117 154 200 254 294 353
#     4  11  21  37  64  92 113 156 198 255 294 355
#     4  10  23  43  67  96 129 163 204 257 316 378
#     4  11  22  38  57  83 118 152 199 247 298 344
#     4  11  24  38  56  80 118 160 197 246 297 352
#     4  11  24  38  56  81 116 161 199 244 297 354
#     4  10  23  43  67  97 129 162 204 256 315 380
#
# _framework density 21.204732
#
# number of rings (size 3 to 8) (size 9 to 14) (size 15 to 20)
#    0.000    1.250    3.750    2.250    8.750    0.500 
#    0.000    2.500    0.000    0.000    0.000    0.000 
#    0.000    0.000    0.000    0.000    0.000    0.000 
#
# Total GULP energy -357143.490713 kJ/mol
# GULP energy per Si atom -5580.367042 kJ/mol
# Density = 2.115647 g / cm^3
# Si number density = 21.204732 Si / 1000 Ang^3
#
#
#
# Elastic Constant Matrix: (Units=GPa)
#
#
# Indices 1 2 3 4 5 6 
#
# 1 63.8317 18.1365 -0.9945 0.0000 0.0000 0.0000
# 2 18.1365 110.9649 39.8117 0.0000 0.0000 0.0000
# 3 -0.9945 39.8117 35.7551 0.0000 0.0000 0.0000
# 4 0.0000 0.0000 0.0000 32.8563 0.0000 0.0000
# 5 0.0000 0.0000 0.0000 0.0000 29.3816 0.0000
# 6 0.0000 0.0000 0.0000 0.0000 0.0000 25.8728
#
#
#
# Elastic Compliance Matrix: (Units=1/GPa)
#
#
# Indices 1 2 3 4 5 6 
#
# 1 0.017168 -0.004958 0.005998 0.000000 0.000000 0.000000
# 2 -0.004958 0.016439 -0.018442 0.000000 0.000000 0.000000
# 3 0.005998 -0.018442 0.048669 0.000000 0.000000 0.000000
# 4 0.000000 0.000000 0.000000 0.030436 0.000000 0.000000
# 5 0.000000 0.000000 0.000000 0.000000 0.034035 0.000000
# 6 0.000000 0.000000 0.000000 0.000000 0.000000 0.038651
#
#
# Mechanical properties :
#
#
# Convention : Reuss Voigt Hill
#
# Bulk Modulus (GPa) = 21.06472 36.05101 28.55786
# Shear Modulus (GPa) = 21.18423 27.86200 24.52312
#
# Velocity S-wave (km/s) = 3.16418 3.62878 3.40441
# Velocity P-wave (km/s) = 4.82751 5.88181 5.38055
#
# Compressibility (1/GPa) = 0.04747275
#
# Stress axis : x y z
#
# Youngs Moduli (GPa) = 58.24663 60.83207 20.54700
#
# Poissons Ratio (x) = 0.30161 -0.12324
# Poissons Ratio (y) = 0.28879 0.37892
# Poissons Ratio (z) = -0.34937 1.12185
#
# Static dielectric constant tensor:
#      x y z
#    x 1.844560 0.000000 0.000000 
#    y 0.000000 1.798050 0.000000 
#    z 0.000000 0.000000 1.784390 
# 
# From -- ./inp_files/4635.got.cif
#   From: 2010.05.17/outbox.cif.g08.bks.cpg/sg61_3_cif.got.tgz:4635.got - 2010.06.03 15:17:17.
