data_PCOD9460367
_publ_section_title
;
Structure prediction by ZEFSAII (Michael W. Deem and Ramdas Pophale) SiO2 
 PCOD9460367
Probable space group: P B C A
;
_chemical_formula_sum "Si O2"
_cell_formula_units_Z 56
_cell_length_a 27.577159
_cell_length_b 5.827809
_cell_length_c 14.133811
_cell_angle_alpha 90.000000
_cell_angle_beta 90.000000
_cell_angle_gamma 90.000000
_cell_volume 2271.507172
_symmetry_space_group_name_H-M "P B C A"
_symmetry_group_IT_number 61
_symmetry_cell_setting 'orthorhombic'
loop_
_space_group_symop_operation_xyz
x,y,z
1/2-x,-y,1/2+z
1/2+x,1/2-y,-z
-x,1/2+y,1/2-z
-x,-y,-z
1/2+x,y,1/2-z
1/2-x,1/2+y,z
x,1/2-y,1/2+z
loop_
_atom_site_type_symbol
_atom_site_label
_atom_site_fract_x
_atom_site_fract_y
_atom_site_fract_z
Si Si1 0.879603 0.661995 0.374710
Si Si2 0.148130 0.525479 0.273619
Si Si3 0.954995 0.264188 0.672051
Si Si4 0.076234 0.553760 0.996631
Si Si5 0.172199 0.868869 0.980854
Si Si6 0.975724 0.370689 0.365578
Si Si7 0.273546 0.195096 0.139395
O O1 0.836742 0.563326 0.440077
O O2 0.922990 0.489649 0.350873
O O3 0.859041 0.786612 0.281900
O O4 0.905703 0.838096 0.446270
O O5 0.094335 0.619334 0.292656
O O6 0.175312 0.532196 0.375085
O O7 0.176893 0.688170 0.200865
O O8 0.942393 0.041074 0.610382
O O9 0.983503 0.447029 0.607288
O O10 0.988582 0.218469 0.761418
O O11 0.122772 0.720688 0.985561
O O12 0.035812 0.673190 0.060862
O O13 0.213897 0.712524 0.027194
O O14 0.247382 0.438844 0.161901
#
# Coordination Sequence:
#
# PCOD9460367 Si02
#       7
#     8   8   8   8   8   8   8
#     4  11  21  43  69 101 146 194 253 314 371 456
#     4  11  23  47  73 105 146 193 250 307 391 463
#     4  11  23  40  65  95 140 191 248 303 375 446
#     4  10  22  42  65  94 134 191 243 302 375 444
#     4  10  24  44  71 105 141 192 243 310 385 464
#     4  11  23  40  59  98 144 187 253 316 364 441
#     4  12  27  50  77 110 148 185 241 313 383 471
#
# _framework density 24.653237000000001
#
# number of rings (size 3 to 8) (size 9 to 14) (size 15 to 20)
#    0.000    1.143    2.857    3.000    2.000    1.714 
#    5.143    0.000    0.000    0.000    0.000    0.000 
#    0.000    0.000    0.000    0.000    0.000    0.000 
#
# Total GULP energy -313163.661322 kJ/mol
# GULP energy per Si atom -5592.208238 kJ/mol
# Density = 2.459713 g / cm^3
# Si number density = 24.653237 Si / 1000 Ang^3
#
#
#
# Elastic Constant Matrix: (Units=GPa)
#
#
# Indices 1 2 3 4 5 6 
#
# 1 71.1584 21.1898 3.6004 0.0000 0.0000 0.0000
# 2 21.1898 77.9903 22.3486 0.0000 0.0000 0.0000
# 3 3.6004 22.3486 109.1700 0.0000 0.0000 0.0000
# 4 0.0000 0.0000 0.0000 33.7470 0.0000 0.0000
# 5 0.0000 0.0000 0.0000 0.0000 30.6505 0.0000
# 6 0.0000 0.0000 0.0000 0.0000 0.0000 48.1235
#
#
#
# Elastic Compliance Matrix: (Units=1/GPa)
#
#
# Indices 1 2 3 4 5 6 
#
# 1 0.015304 -0.004264 0.000368 0.000000 0.000000 0.000000
# 2 -0.004264 0.014809 -0.002891 0.000000 0.000000 0.000000
# 3 0.000368 -0.002891 0.009740 0.000000 0.000000 0.000000
# 4 0.000000 0.000000 0.000000 0.029632 0.000000 0.000000
# 5 0.000000 0.000000 0.000000 0.000000 0.032626 0.000000
# 6 0.000000 0.000000 0.000000 0.000000 0.000000 0.020780
#
#
# Mechanical properties :
#
#
# Convention : Reuss Voigt Hill
#
# Bulk Modulus (GPa) = 38.05195 39.17735 38.61465
# Shear Modulus (GPa) = 34.42963 36.58285 35.50624
#
# Velocity S-wave (km/s) = 3.74111 3.85632 3.79915
# Velocity P-wave (km/s) = 5.84205 5.97947 5.91116
#
# Compressibility (1/GPa) = 0.02627986
#
# Stress axis : x y z
#
# Youngs Moduli (GPa) = 65.34172 67.52676 102.67251
#
# Poissons Ratio (x) = 0.28791 -0.03779
# Poissons Ratio (y) = 0.27859 0.29682
# Poissons Ratio (z) = -0.02405 0.19522
#
# Static dielectric constant tensor:
#      x y z
#    x 1.980930 0.000000 0.000000 
#    y 0.000000 2.013040 0.000000 
#    z 0.000000 0.000000 1.975720 
# 
# From -- ./inp_files/8671.got.cif
#   From: 2010.05.17/outbox.cif.g08.bks.cpg/sg61_5_cif.got.tgz:8671.got - 2010.06.03 15:17:17.
