data_PCOD9460012
_publ_section_title
;
Structure prediction by ZEFSAII (Michael W. Deem and Ramdas Pophale) SiO2 
 PCOD9460012
Probable space group: P B C A
;
_chemical_formula_sum "Si O2"
_cell_formula_units_Z 64
_cell_length_a 27.337459
_cell_length_b 8.327619
_cell_length_c 13.459052
_cell_angle_alpha 90.000000
_cell_angle_beta 90.000000
_cell_angle_gamma 90.000000
_cell_volume 3064.033175
_symmetry_space_group_name_H-M "P B C A"
_symmetry_group_IT_number 61
_symmetry_cell_setting 'orthorhombic'
loop_
_space_group_symop_operation_xyz
x,y,z
1/2-x,-y,1/2+z
1/2+x,1/2-y,-z
-x,1/2+y,1/2-z
-x,-y,-z
1/2+x,y,1/2-z
1/2-x,1/2+y,z
x,1/2-y,1/2+z
loop_
_atom_site_type_symbol
_atom_site_label
_atom_site_fract_x
_atom_site_fract_y
_atom_site_fract_z
Si Si1 0.852848 0.699479 0.119080
Si Si2 0.908515 0.023504 0.154082
Si Si3 0.750401 0.872013 0.149423
Si Si4 0.933678 0.991817 0.703456
Si Si5 0.190882 0.641884 0.252763
Si Si6 0.175093 0.570280 0.026161
Si Si7 0.070494 0.797596 0.486458
Si Si8 0.527844 0.814429 0.803022
O O1 0.889084 0.852766 0.116731
O O2 0.800142 0.768437 0.147270
O O3 0.878765 0.578550 0.197703
O O4 0.843842 0.600159 0.017653
O O5 0.861400 0.121587 0.195379
O O6 0.933721 0.126460 0.067563
O O7 0.944466 0.038528 0.247847
O O8 0.712986 0.818148 0.235790
O O9 0.719062 0.876481 0.047515
O O10 0.772205 0.043339 0.177684
O O11 0.940950 0.064950 0.593431
O O12 0.947645 0.146056 0.769517
O O13 0.971546 0.847862 0.722568
O O14 0.189819 0.574668 0.141369
O O15 0.127513 0.683749 0.016873
O O16 0.036754 0.819166 0.580573
#
# Coordination Sequence:
#
# PCOD9460012 Si02
#       8
#     8   8   8   8   8   8   8   8
#     4  10  23  43  58  90 132 172 210 269 321 377
#     4  10  21  41  64  93 131 164 211 274 314 390
#     4  11  23  41  60  89 133 163 219 269 318 383
#     4  10  23  41  66  92 134 163 215 270 319 396
#     4  11  23  38  62  91 125 171 214 268 323 385
#     4  11  22  40  63  89 125 173 213 265 327 386
#     4  10  21  40  66  92 127 165 212 262 328 383
#     4  11  21  42  69 101 123 176 209 269 334 389
#
# _framework density 20.887501
#
# number of rings (size 3 to 8) (size 9 to 14) (size 15 to 20)
#    0.000    1.500    3.750    1.125    1.750    0.000 
#    4.500    6.875    0.000    0.000    0.000    0.000 
#    0.000    0.000    0.000    0.000    0.000    0.000 
#
# Total GULP energy -356820.768942 kJ/mol
# GULP energy per Si atom -5575.324515 kJ/mol
# Density = 2.083996 g / cm^3
# Si number density = 20.887501 Si / 1000 Ang^3
#
#
#
# Elastic Constant Matrix: (Units=GPa)
#
#
# Indices 1 2 3 4 5 6 
#
# 1 45.9124 19.8232 -3.9620 0.0000 0.0000 0.0000
# 2 19.8232 72.3074 8.1287 0.0000 0.0000 0.0000
# 3 -3.9620 8.1287 49.8135 0.0000 0.0000 0.0000
# 4 0.0000 0.0000 0.0000 9.9731 0.0000 0.0000
# 5 0.0000 0.0000 0.0000 0.0000 19.0174 0.0000
# 6 0.0000 0.0000 0.0000 0.0000 0.0000 35.3800
#
#
#
# Elastic Compliance Matrix: (Units=1/GPa)
#
#
# Indices 1 2 3 4 5 6 
#
# 1 0.025193 -0.007265 0.003189 0.000000 0.000000 0.000000
# 2 -0.007265 0.016183 -0.003219 0.000000 0.000000 0.000000
# 3 0.003189 -0.003219 0.020854 0.000000 0.000000 0.000000
# 4 0.000000 0.000000 0.000000 0.100270 0.000000 0.000000
# 5 0.000000 0.000000 0.000000 0.000000 0.052583 0.000000
# 6 0.000000 0.000000 0.000000 0.000000 0.000000 0.028265
#
#
# Mechanical properties :
#
#
# Convention : Reuss Voigt Hill
#
# Bulk Modulus (GPa) = 20.99043 24.00145 22.49594
# Shear Modulus (GPa) = 18.26036 22.47698 20.36867
#
# Velocity S-wave (km/s) = 2.95994 3.28395 3.12614
# Velocity P-wave (km/s) = 4.66398 5.08870 4.88096
#
# Compressibility (1/GPa) = 0.04764077
#
# Stress axis : x y z
#
# Youngs Moduli (GPa) = 39.69411 61.79163 47.95297
#
# Poissons Ratio (x) = 0.44892 -0.15294
# Poissons Ratio (y) = 0.28838 0.15435
# Poissons Ratio (z) = -0.12660 0.19889
#
# Static dielectric constant tensor:
#      x y z
#    x 1.779540 0.000000 0.000000 
#    y 0.000000 1.858070 0.000000 
#    z 0.000000 0.000000 1.711470 
# 
# From -- ./inp_files/6768.got.cif
#   From: 2010.05.17/outbox.cif.g08.bks.cpg/sg61_4_cif.got.tgz:6768.got - 2010.06.03 15:17:17.
