data_PCOD9460746
_publ_section_title
;
Structure prediction by ZEFSAII (Michael W. Deem and Ramdas Pophale) SiO2 
 PCOD9460746
Probable space group: P B C A
;
_chemical_formula_sum "Si O2"
_cell_formula_units_Z 32
_cell_length_a 9.717205
_cell_length_b 8.775472
_cell_length_c 15.606540
_cell_angle_alpha 90.000000
_cell_angle_beta 90.000000
_cell_angle_gamma 90.000000
_cell_volume 1330.817428
_symmetry_space_group_name_H-M "P B C A"
_symmetry_group_IT_number 61
_symmetry_cell_setting 'orthorhombic'
loop_
_space_group_symop_operation_xyz
x,y,z
1/2-x,-y,1/2+z
1/2+x,1/2-y,-z
-x,1/2+y,1/2-z
-x,-y,-z
1/2+x,y,1/2-z
1/2-x,1/2+y,z
x,1/2-y,1/2+z
loop_
_atom_site_type_symbol
_atom_site_label
_atom_site_fract_x
_atom_site_fract_y
_atom_site_fract_z
Si Si1 0.055136 0.036212 0.857920
Si Si2 0.027073 0.647433 0.188734
Si Si3 0.656340 0.512060 0.550271
Si Si4 0.188108 0.695937 0.559823
O O1 0.065883 0.201667 0.813530
O O2 0.194375 0.005288 0.906720
O O3 0.923501 0.063386 0.919331
O O4 0.035410 0.917277 0.782625
O O5 0.953822 0.534258 0.121521
O O6 0.172819 0.705303 0.147803
O O7 0.640733 0.679509 0.510275
O O8 0.675180 0.383464 0.475634
#
# Coordination Sequence:
#
# PCOD9460746 Si02
#       4
#     8   8   8   8
#     4  10  25  45  67 102 142 180 230 285 340 416
#     4  10  25  45  67 102 142 180 230 285 340 416
#     4  12  22  48  72 100 138 190 228 284 350 400
#     4  10  24  44  68 100 134 180 234 284 332 414
#
# _framework density 24.045370999999999
#
# number of rings (size 3 to 8) (size 9 to 14) (size 15 to 20)
#    1.500    0.000    2.500    1.500    3.500    2.000 
#   13.500    0.000    0.000    0.000    0.000    0.000 
#    0.000    0.000    0.000    0.000    0.000    0.000 
#
# Total GULP energy -178581.455681 kJ/mol
# GULP energy per Si atom -5580.670490 kJ/mol
# Density = 2.399064 g / cm^3
# Si number density = 24.045371 Si / 1000 Ang^3
#
#
#
# Elastic Constant Matrix: (Units=GPa)
#
#
# Indices 1 2 3 4 5 6 
#
# 1 75.9012 0.3178 47.5094 0.0000 0.0000 0.0000
# 2 0.3178 64.8812 37.9650 0.0000 0.0000 0.0000
# 3 47.5094 37.9650 102.3042 0.0000 0.0000 0.0000
# 4 0.0000 0.0000 0.0000 66.5959 0.0000 0.0000
# 5 0.0000 0.0000 0.0000 0.0000 27.5573 0.0000
# 6 0.0000 0.0000 0.0000 0.0000 0.0000 51.9641
#
#
#
# Elastic Compliance Matrix: (Units=1/GPa)
#
#
# Indices 1 2 3 4 5 6 
#
# 1 0.020861 0.007111 -0.012326 0.000000 0.000000 0.000000
# 2 0.007111 0.022112 -0.011508 0.000000 0.000000 0.000000
# 3 -0.012326 -0.011508 0.019770 0.000000 0.000000 0.000000
# 4 0.000000 0.000000 0.000000 0.015016 0.000000 0.000000
# 5 0.000000 0.000000 0.000000 0.000000 0.036288 0.000000
# 6 0.000000 0.000000 0.000000 0.000000 0.000000 0.019244
#
#
# Mechanical properties :
#
#
# Convention : Reuss Voigt Hill
#
# Bulk Modulus (GPa) = 34.13555 46.07455 40.10505
# Shear Modulus (GPa) = 28.32829 39.70973 34.01901
#
# Velocity S-wave (km/s) = 3.43610 4.06821 3.76544
# Velocity P-wave (km/s) = 5.47444 6.42419 5.96824
#
# Compressibility (1/GPa) = 0.02929497
#
# Stress axis : x y z
#
# Youngs Moduli (GPa) = 47.93690 45.22500 50.58288
#
# Poissons Ratio (x) = -0.32157 0.62350
# Poissons Ratio (y) = -0.34086 0.58209
# Poissons Ratio (z) = 0.59089 0.52044
#
# Static dielectric constant tensor:
#      x y z
#    x 1.925360 0.000000 0.000000 
#    y 0.000000 1.975750 0.000000 
#    z 0.000000 0.000000 1.954090 
# 
# From -- ./inp_files/2506.got.cif
#   From: 2010.05.17/outbox.cif.g08.bks.cpg/sg61_2_cif.got.tgz:2506.got - 2010.06.03 15:17:17.
