data_PCOD9460445
_publ_section_title
;
Structure prediction by ZEFSAII (Michael W. Deem and Ramdas Pophale) SiO2 
 PCOD9460445
Probable space group: P B C A
;
_chemical_formula_sum "Si O2"
_cell_formula_units_Z 44
_cell_length_a 16.559150
_cell_length_b 9.559162
_cell_length_c 13.459308
_cell_angle_alpha 90.000000
_cell_angle_beta 90.000000
_cell_angle_gamma 90.000000
_cell_volume 2130.495364
_symmetry_space_group_name_H-M "P B C A"
_symmetry_group_IT_number 61
_symmetry_cell_setting 'orthorhombic'
loop_
_space_group_symop_operation_xyz
x,y,z
1/2-x,-y,1/2+z
1/2+x,1/2-y,-z
-x,1/2+y,1/2-z
-x,-y,-z
1/2+x,y,1/2-z
1/2-x,1/2+y,z
x,1/2-y,1/2+z
loop_
_atom_site_type_symbol
_atom_site_label
_atom_site_fract_x
_atom_site_fract_y
_atom_site_fract_z
Si Si1 0.891237 0.059503 0.558331
Si Si2 0.447408 0.696964 0.573853
Si Si3 0.203074 0.340412 0.212681
Si Si4 0.744319 0.920457 0.657454
Si Si5 0.000000 0.500000 0.500000
Si Si6 0.158693 0.669315 0.546963
O O1 0.860376 0.166812 0.473420
O O2 0.965991 0.138065 0.610116
O O3 0.920039 0.915053 0.509192
O O4 0.819510 0.020028 0.631222
O O5 0.378175 0.698661 0.655484
O O6 0.460459 0.849241 0.529773
O O7 0.190605 0.487221 0.268699
O O8 0.224992 0.219154 0.290233
O O9 0.276671 0.351569 0.134102
O O10 0.698507 0.884365 0.556171
O O11 0.075977 0.584436 0.556640
#
# Coordination Sequence:
#
# PCOD9460445 Si02
#       6
#     8   8   8   8   4   8
#     4  10  22  45  67  97 139 184 225 288 354 406
#     4  10  22  44  70 100 137 185 229 289 353 416
#     4  12  25  42  72 102 135 187 236 283 353 416
#     4  12  25  42  68 104 137 186 235 286 350 412
#     4  10  24  42  76 104 132 190 224 288 366 398
#     4  11  24  47  70  99 145 175 234 292 343 428
#
# _framework density 20.652473000000001
#
# number of rings (size 3 to 8) (size 9 to 14) (size 15 to 20)
#    0.000    1.091    3.636    2.182    5.091    0.000 
#    9.818    0.000    0.000    0.000    0.000    0.000 
#    0.000    0.000    0.000    0.000    0.000    0.000 
#
# Total GULP energy -244953.960507 kJ/mol
# GULP energy per Si atom -5567.135466 kJ/mol
# Density = 2.060547 g / cm^3
# Si number density = 20.652473 Si / 1000 Ang^3
#
#
#
# Elastic Constant Matrix: (Units=GPa)
#
#
# Indices 1 2 3 4 5 6 
#
# 1 36.3221 13.7018 -3.8939 0.0000 0.0000 0.0000
# 2 13.7018 138.5299 22.5805 0.0000 0.0000 0.0000
# 3 -3.8939 22.5805 33.1876 0.0000 0.0000 0.0000
# 4 0.0000 0.0000 0.0000 16.8439 0.0000 0.0000
# 5 0.0000 0.0000 0.0000 0.0000 12.9061 0.0000
# 6 0.0000 0.0000 0.0000 0.0000 0.0000 16.7258
#
#
#
# Elastic Compliance Matrix: (Units=1/GPa)
#
#
# Indices 1 2 3 4 5 6 
#
# 1 0.029678 -0.003940 0.006163 0.000000 0.000000 0.000000
# 2 -0.003940 0.008642 -0.006342 0.000000 0.000000 0.000000
# 3 0.006163 -0.006342 0.035170 0.000000 0.000000 0.000000
# 4 0.000000 0.000000 0.000000 0.059369 0.000000 0.000000
# 5 0.000000 0.000000 0.000000 0.000000 0.077483 0.000000
# 6 0.000000 0.000000 0.000000 0.000000 0.000000 0.059788
#
#
# Mechanical properties :
#
#
# Convention : Reuss Voigt Hill
#
# Bulk Modulus (GPa) = 15.32525 30.31293 22.81909
# Shear Modulus (GPa) = 16.66005 21.00525 18.83265
#
# Velocity S-wave (km/s) = 2.84330 3.19263 3.02302
# Velocity P-wave (km/s) = 4.26800 5.31978 4.82265
#
# Compressibility (1/GPa) = 0.06525180
#
# Stress axis : x y z
#
# Youngs Moduli (GPa) = 33.69451 115.71183 28.43326
#
# Poissons Ratio (x) = 0.45591 -0.17523
# Poissons Ratio (y) = 0.13276 0.18033
# Poissons Ratio (z) = -0.20766 0.73388
#
# Static dielectric constant tensor:
#      x y z
#    x 1.764840 0.000000 0.000000 
#    y 0.000000 1.720480 0.000000 
#    z 0.000000 0.000000 1.739060 
# 
# From -- ./inp_files/2769.got.cif
#   From: 2010.05.17/outbox.cif.g08.bks.cpg/sg61_2_cif.got.tgz:2769.got - 2010.06.03 15:17:17.
