data_PCOD9460433
_publ_section_title
;
Structure prediction by ZEFSAII (Michael W. Deem and Ramdas Pophale) SiO2 
 PCOD9460433
Probable space group: P B C A
;
_chemical_formula_sum "Si O2"
_cell_formula_units_Z 56
_cell_length_a 13.223308
_cell_length_b 9.289521
_cell_length_c 21.200073
_cell_angle_alpha 90.000000
_cell_angle_beta 90.000000
_cell_angle_gamma 90.000000
_cell_volume 2604.178751
_symmetry_space_group_name_H-M "P B C A"
_symmetry_group_IT_number 61
_symmetry_cell_setting 'orthorhombic'
loop_
_space_group_symop_operation_xyz
x,y,z
1/2-x,-y,1/2+z
1/2+x,1/2-y,-z
-x,1/2+y,1/2-z
-x,-y,-z
1/2+x,y,1/2-z
1/2-x,1/2+y,z
x,1/2-y,1/2+z
loop_
_atom_site_type_symbol
_atom_site_label
_atom_site_fract_x
_atom_site_fract_y
_atom_site_fract_z
Si Si1 0.862433 0.635087 0.861292
Si Si2 0.643752 0.384355 0.151048
Si Si3 0.148281 0.725330 0.349552
Si Si4 0.482596 0.389726 0.056291
Si Si5 0.519879 0.850447 0.034549
Si Si6 0.156187 0.467187 0.664142
Si Si7 0.517108 0.886118 0.239070
O O1 0.911430 0.669099 0.929601
O O2 0.763500 0.538555 0.852615
O O3 0.950644 0.558491 0.819839
O O4 0.839111 0.795084 0.835440
O O5 0.745790 0.300437 0.163081
O O6 0.660321 0.555384 0.142129
O O7 0.587211 0.338474 0.087409
O O8 0.564908 0.357332 0.207217
O O9 0.073186 0.748186 0.290476
O O10 0.097417 0.809196 0.408735
O O11 0.418639 0.470461 0.109823
O O12 0.500000 0.500000 0.000000
O O13 0.439947 0.251131 0.021732
O O14 0.500000 0.000000 0.000000
O O15 0.105420 0.518963 0.729673
#
# Coordination Sequence:
#
# PCOD9460433 Si02
#       7
#     8   8   8   8   8   8   8
#     4  11  25  44  66  99 132 167 220 267 323 388
#     4  11  25  42  69  98 127 175 214 269 325 384
#     4  11  25  44  66  99 132 167 220 267 323 388
#     4  11  21  46  67  89 135 173 212 262 323 381
#     4  11  25  44  65  97 131 173 215 271 320 383
#     4  11  25  42  69  98 127 175 214 269 325 384
#     4  10  22  44  66  91 128 168 213 265 321 381
#
# _framework density 21.503900999999999
#
# number of rings (size 3 to 8) (size 9 to 14) (size 15 to 20)
#    0.000    1.143    2.857    3.429    4.000    9.143 
#   10.286    0.000    0.000    0.000    0.000    0.000 
#    0.000    0.000    0.000    0.000    0.000    0.000 
#
# Total GULP energy -312455.650640 kJ/mol
# GULP energy per Si atom -5579.565190 kJ/mol
# Density = 2.145496 g / cm^3
# Si number density = 21.503901 Si / 1000 Ang^3
#
#
#
# Elastic Constant Matrix: (Units=GPa)
#
#
# Indices 1 2 3 4 5 6 
#
# 1 106.4971 -6.1461 14.9621 0.0000 0.0000 0.0000
# 2 -6.1461 14.9399 22.3294 0.0000 0.0000 0.0000
# 3 14.9621 22.3294 75.0756 0.0000 0.0000 0.0000
# 4 0.0000 0.0000 0.0000 33.4982 0.0000 0.0000
# 5 0.0000 0.0000 0.0000 0.0000 19.9500 0.0000
# 6 0.0000 0.0000 0.0000 0.0000 0.0000 24.9422
#
#
#
# Elastic Compliance Matrix: (Units=1/GPa)
#
#
# Indices 1 2 3 4 5 6 
#
# 1 0.011113 0.014190 -0.006435 0.000000 0.000000 0.000000
# 2 0.014190 0.138621 -0.044057 0.000000 0.000000 0.000000
# 3 -0.006435 -0.044057 0.027706 0.000000 0.000000 0.000000
# 4 0.000000 0.000000 0.000000 0.029852 0.000000 0.000000
# 5 0.000000 0.000000 0.000000 0.000000 0.050125 0.000000
# 6 0.000000 0.000000 0.000000 0.000000 0.000000 0.040093
#
#
# Mechanical properties :
#
#
# Convention : Reuss Voigt Hill
#
# Bulk Modulus (GPa) = 9.53880 28.75593 19.14736
# Shear Modulus (GPa) = 12.34381 26.70256 19.52319
#
# Velocity S-wave (km/s) = 2.39848 3.52768 3.01639
# Velocity P-wave (km/s) = 3.48077 5.47669 4.58857
#
# Compressibility (1/GPa) = 0.10483495
#
# Stress axis : x y z
#
# Youngs Moduli (GPa) = 89.98520 7.21389 36.09302
#
# Poissons Ratio (x) = -0.10236 0.23226
# Poissons Ratio (y) = -1.27687 1.59017
# Poissons Ratio (z) = 0.57907 0.31783
#
# Static dielectric constant tensor:
#      x y z
#    x 1.780900 0.000000 0.000000 
#    y 0.000000 1.735130 0.000000 
#    z 0.000000 0.000000 1.826300 
# 
# From -- ./inp_files/10459.got.cif
#   From: 2010.05.17/outbox.cif.g08.bks.cpg/sg61_6_cif.got.tgz:10459.got - 2010.06.03 15:17:17.
