data_PCOD9460558
_publ_section_title
;
Structure prediction by ZEFSAII (Michael W. Deem and Ramdas Pophale) SiO2 
 PCOD9460558
Probable space group: P B C A
;
_chemical_formula_sum "Si O2"
_cell_formula_units_Z 48
_cell_length_a 17.095315
_cell_length_b 16.225978
_cell_length_c 8.701558
_cell_angle_alpha 90.000000
_cell_angle_beta 90.000000
_cell_angle_gamma 90.000000
_cell_volume 2413.709555
_symmetry_space_group_name_H-M "P B C A"
_symmetry_group_IT_number 61
_symmetry_cell_setting 'orthorhombic'
loop_
_space_group_symop_operation_xyz
x,y,z
1/2-x,-y,1/2+z
1/2+x,1/2-y,-z
-x,1/2+y,1/2-z
-x,-y,-z
1/2+x,y,1/2-z
1/2-x,1/2+y,z
x,1/2-y,1/2+z
loop_
_atom_site_type_symbol
_atom_site_label
_atom_site_fract_x
_atom_site_fract_y
_atom_site_fract_z
Si Si1 0.165366 0.139582 0.149295
Si Si2 0.300004 0.154987 0.627218
Si Si3 0.015491 0.589850 0.935183
Si Si4 0.639104 0.190884 0.006241
Si Si5 0.677771 0.663209 0.505018
Si Si6 0.429985 0.473522 0.111900
O O1 0.136741 0.212619 0.036729
O O2 0.162887 0.179780 0.317083
O O3 0.252655 0.119731 0.089695
O O4 0.112406 0.058830 0.156715
O O5 0.208864 0.145713 0.586048
O O6 0.322146 0.243019 0.553902
O O7 0.359009 0.086522 0.559612
O O8 0.306529 0.158146 0.812097
O O9 0.032971 0.575620 0.755426
O O10 0.942761 0.648802 0.967504
O O11 0.092944 0.624587 0.016166
O O12 0.000000 0.500000 0.000000
O O13 0.500000 0.500000 0.000000
#
# Coordination Sequence:
#
# PCOD9460558 Si02
#       6
#     8   8   8   8   8   8
#     4  11  24  43  67  96 129 177 218 266 330 393
#     4  10  23  43  67  96 129 174 221 271 329 395
#     4  11  25  44  64  98 132 169 218 274 329 385
#     4  11  24  43  70  95 132 174 221 268 335 388
#     4  10  23  42  67  94 130 170 220 266 327 393
#     4  11  27  42  65 101 130 171 223 268 337 385
#
# _framework density 19.886403000000001
#
# number of rings (size 3 to 8) (size 9 to 14) (size 15 to 20)
#    0.000    1.333    1.667    4.000    9.333    4.000 
#    0.000    0.000    0.000    0.000    0.000    0.000 
#    0.000    0.000    0.000    0.000    0.000    0.000 
#
# Total GULP energy -268107.139432 kJ/mol
# GULP energy per Si atom -5585.565405 kJ/mol
# Density = 1.984114 g / cm^3
# Si number density = 19.886403 Si / 1000 Ang^3
#
#
#
# Elastic Constant Matrix: (Units=GPa)
#
#
# Indices 1 2 3 4 5 6 
#
# 1 161.8856 44.4751 43.5761 0.0000 0.0000 0.0000
# 2 44.4751 39.9365 12.5287 0.0000 0.0000 0.0000
# 3 43.5761 12.5287 78.0079 0.0000 0.0000 0.0000
# 4 0.0000 0.0000 0.0000 29.5359 0.0000 0.0000
# 5 0.0000 0.0000 0.0000 0.0000 31.6699 0.0000
# 6 0.0000 0.0000 0.0000 0.0000 0.0000 41.7244
#
#
#
# Elastic Compliance Matrix: (Units=1/GPa)
#
#
# Indices 1 2 3 4 5 6 
#
# 1 0.009949 -0.009832 -0.003979 0.000000 0.000000 0.000000
# 2 -0.009832 0.036084 -0.000303 0.000000 0.000000 0.000000
# 3 -0.003979 -0.000303 0.015090 0.000000 0.000000 0.000000
# 4 0.000000 0.000000 0.000000 0.033857 0.000000 0.000000
# 5 0.000000 0.000000 0.000000 0.000000 0.031576 0.000000
# 6 0.000000 0.000000 0.000000 0.000000 0.000000 0.023967
#
#
# Mechanical properties :
#
#
# Convention : Reuss Voigt Hill
#
# Bulk Modulus (GPa) = 30.39854 53.44332 41.92093
# Shear Modulus (GPa) = 26.35513 32.53605 29.44559
#
# Velocity S-wave (km/s) = 3.64439 4.04926 3.85215
# Velocity P-wave (km/s) = 5.74701 6.98531 6.39620
#
# Compressibility (1/GPa) = 0.03289632
#
# Stress axis : x y z
#
# Youngs Moduli (GPa) = 100.50959 27.71308 66.26697
#
# Poissons Ratio (x) = 0.27247 0.26366
# Poissons Ratio (y) = 0.98819 0.02009
# Poissons Ratio (z) = 0.39990 0.00840
#
# Static dielectric constant tensor:
#      x y z
#    x 1.686070 0.000000 0.000000 
#    y 0.000000 1.674950 0.000000 
#    z 0.000000 0.000000 1.765470 
# 
# From -- ./inp_files/2843.got.cif
#   From: 2010.05.17/outbox.cif.g08.bks.cpg/sg61_2_cif.got.tgz:2843.got - 2010.06.03 15:17:17.
