data_PCOD9460748
_publ_section_title
;
Structure prediction by ZEFSAII (Michael W. Deem and Ramdas Pophale) SiO2 
 PCOD9460748
Probable space group: P B C A
;
_chemical_formula_sum "Si O2"
_cell_formula_units_Z 40
_cell_length_a 8.778744
_cell_length_b 20.752897
_cell_length_c 8.794112
_cell_angle_alpha 90.000000
_cell_angle_beta 90.000000
_cell_angle_gamma 90.000000
_cell_volume 1602.149755
_symmetry_space_group_name_H-M "P B C A"
_symmetry_group_IT_number 61
_symmetry_cell_setting 'orthorhombic'
loop_
_space_group_symop_operation_xyz
x,y,z
1/2-x,-y,1/2+z
1/2+x,1/2-y,-z
-x,1/2+y,1/2-z
-x,-y,-z
1/2+x,y,1/2-z
1/2-x,1/2+y,z
x,1/2-y,1/2+z
loop_
_atom_site_type_symbol
_atom_site_label
_atom_site_fract_x
_atom_site_fract_y
_atom_site_fract_z
Si Si1 0.916521 0.734359 0.699427
Si Si2 0.827648 0.626443 0.324529
Si Si3 0.389534 0.195168 0.974776
Si Si4 0.607711 0.992340 0.145306
Si Si5 0.936778 0.560915 0.586316
O O1 0.057152 0.746421 0.584222
O O2 0.976299 0.695308 0.847313
O O3 0.868089 0.807352 0.743251
O O4 0.765919 0.706935 0.619037
O O5 0.662042 0.639206 0.404770
O O6 0.845859 0.561532 0.223151
O O7 0.946369 0.617028 0.464147
O O8 0.522907 0.942810 0.257265
O O9 0.762833 0.956565 0.110251
O O10 0.500000 0.000000 0.000000
O O11 0.000000 0.500000 0.500000
#
# Coordination Sequence:
#
# PCOD9460748 Si02
#       5
#     8   8   8   8   8
#     4  12  25  48  73 108 151 191 250 306 358 452
#     4  11  26  45  76 100 149 196 235 301 386 412
#     4  12  25  47  73 109 149 194 251 302 363 447
#     4  11  24  46  72 107 146 185 249 309 359 447
#     4  10  24  44  69 104 140 184 248 295 365 442
#
# _framework density 24.966453999999999
#
# number of rings (size 3 to 8) (size 9 to 14) (size 15 to 20)
#    0.000    0.800    4.000    2.400    8.400    1.600 
#    3.600    0.000    0.000    0.000    0.000    0.000 
#    0.000    0.000    0.000    0.000    0.000    0.000 
#
# Total GULP energy -223420.604305 kJ/mol
# GULP energy per Si atom -5585.515108 kJ/mol
# Density = 2.490963 g / cm^3
# Si number density = 24.966454 Si / 1000 Ang^3
#
#
#
# Elastic Constant Matrix: (Units=GPa)
#
#
# Indices 1 2 3 4 5 6 
#
# 1 99.9522 0.7161 23.9010 0.0000 0.0000 0.0000
# 2 0.7161 137.4343 18.6397 0.0000 0.0000 0.0000
# 3 23.9010 18.6397 102.0182 0.0000 0.0000 0.0000
# 4 0.0000 0.0000 0.0000 53.0742 0.0000 0.0000
# 5 0.0000 0.0000 0.0000 0.0000 53.2333 0.0000
# 6 0.0000 0.0000 0.0000 0.0000 0.0000 34.7151
#
#
#
# Elastic Compliance Matrix: (Units=1/GPa)
#
#
# Indices 1 2 3 4 5 6 
#
# 1 0.010610 0.000289 -0.002538 0.000000 0.000000 0.000000
# 2 0.000289 0.007469 -0.001432 0.000000 0.000000 0.000000
# 3 -0.002538 -0.001432 0.010659 0.000000 0.000000 0.000000
# 4 0.000000 0.000000 0.000000 0.018842 0.000000 0.000000
# 5 0.000000 0.000000 0.000000 0.000000 0.018785 0.000000
# 6 0.000000 0.000000 0.000000 0.000000 0.000000 0.028806
#
#
# Mechanical properties :
#
#
# Convention : Reuss Voigt Hill
#
# Bulk Modulus (GPa) = 46.78664 47.32427 47.05546
# Shear Modulus (GPa) = 45.59625 47.94772 46.77199
#
# Velocity S-wave (km/s) = 4.27816 4.38709 4.33297
# Velocity P-wave (km/s) = 6.57146 6.68269 6.62731
#
# Compressibility (1/GPa) = 0.02137362
#
# Stress axis : x y z
#
# Youngs Moduli (GPa) = 94.25317 133.88743 93.82095
#
# Poissons Ratio (x) = -0.03869 0.23816
# Poissons Ratio (y) = -0.02724 0.13439
# Poissons Ratio (z) = 0.23926 0.19177
#
# Static dielectric constant tensor:
#      x y z
#    x 1.866740 0.000000 0.000000 
#    y 0.000000 1.964560 0.000000 
#    z 0.000000 0.000000 2.163780 
# 
# From -- ./inp_files/1811.got.cif
#   From: 2010.05.17/outbox.cif.g08.bks.cpg/sg61_1_cif.got.tgz:1811.got - 2010.06.03 15:17:17.
