data_PCOD9460907
_publ_section_title
;
Structure prediction by ZEFSAII (Michael W. Deem and Ramdas Pophale) SiO2 
 PCOD9460907
Probable space group: P B C A
;
_chemical_formula_sum "Si O2"
_cell_formula_units_Z 64
_cell_length_a 14.520008
_cell_length_b 20.539405
_cell_length_c 8.848518
_cell_angle_alpha 90.000000
_cell_angle_beta 90.000000
_cell_angle_gamma 90.000000
_cell_volume 2638.914095
_symmetry_space_group_name_H-M "P B C A"
_symmetry_group_IT_number 61
_symmetry_cell_setting 'orthorhombic'
loop_
_space_group_symop_operation_xyz
x,y,z
1/2-x,-y,1/2+z
1/2+x,1/2-y,-z
-x,1/2+y,1/2-z
-x,-y,-z
1/2+x,y,1/2-z
1/2-x,1/2+y,z
x,1/2-y,1/2+z
loop_
_atom_site_type_symbol
_atom_site_label
_atom_site_fract_x
_atom_site_fract_y
_atom_site_fract_z
Si Si1 0.695492 0.153059 0.258082
Si Si2 0.427184 0.975185 0.289136
Si Si3 0.847689 0.072769 0.420892
Si Si4 0.602006 0.927382 0.429145
Si Si5 0.951183 0.283934 0.519858
Si Si6 0.756911 0.892133 0.214809
Si Si7 0.996605 0.673031 0.156040
Si Si8 0.751809 0.263518 0.040208
O O1 0.768945 0.097928 0.302424
O O2 0.591206 0.133949 0.220379
O O3 0.723971 0.195294 0.113068
O O4 0.697913 0.201045 0.404326
O O5 0.534174 0.960203 0.306944
O O6 0.362787 0.912024 0.300838
O O7 0.393872 0.007437 0.135244
O O8 0.402363 0.026528 0.423707
O O9 0.796937 0.071737 0.579323
O O10 0.930650 0.124569 0.417639
O O11 0.555336 0.857259 0.460154
O O12 0.703565 0.914267 0.364840
O O13 0.854927 0.249088 0.483043
O O14 0.025735 0.233708 0.453653
O O15 0.960407 0.291880 0.698134
O O16 0.746289 0.816276 0.176059
#
# Coordination Sequence:
#
# PCOD9460907 Si02
#       8
#     8   8   8   8   8   8   8   8
#     4  11  23  38  66  96 129 172 212 271 328 404
#     4  11  25  45  69  94 130 184 226 268 327 396
#     4  11  24  45  65  95 135 173 216 279 330 385
#     4  11  25  43  69  98 132 177 225 272 324 403
#     4  12  22  44  66  97 136 173 209 279 337 391
#     4  11  24  42  68  96 131 176 221 279 327 393
#     4  12  24  39  69  98 132 171 218 271 337 399
#     4  11  21  42  63  98 136 167 214 275 333 388
#
# _framework density 24.252400000000002
#
# number of rings (size 3 to 8) (size 9 to 14) (size 15 to 20)
#    0.000    0.750    5.000    3.000    5.250    1.500 
#    0.000    1.250    0.000    0.000    0.000    0.000 
#    0.000    0.000    0.000    0.000    0.000    0.000 
#
# Total GULP energy -358141.961368 kJ/mol
# GULP energy per Si atom -5595.968146 kJ/mol
# Density = 2.419720 g / cm^3
# Si number density = 24.252400 Si / 1000 Ang^3
#
#
#
# Elastic Constant Matrix: (Units=GPa)
#
#
# Indices 1 2 3 4 5 6 
#
# 1 73.3469 1.0562 -8.9972 0.0000 0.0000 0.0000
# 2 1.0562 59.8259 -5.6470 0.0000 0.0000 0.0000
# 3 -8.9972 -5.6470 17.2134 0.0000 0.0000 0.0000
# 4 0.0000 0.0000 0.0000 21.8113 0.0000 0.0000
# 5 0.0000 0.0000 0.0000 0.0000 27.2944 0.0000
# 6 0.0000 0.0000 0.0000 0.0000 0.0000 18.8861
#
#
#
# Elastic Compliance Matrix: (Units=1/GPa)
#
#
# Indices 1 2 3 4 5 6 
#
# 1 0.014581 0.000477 0.007778 0.000000 0.000000 0.000000
# 2 0.000477 0.017265 0.005913 0.000000 0.000000 0.000000
# 3 0.007778 0.005913 0.064100 0.000000 0.000000 0.000000
# 4 0.000000 0.000000 0.000000 0.045848 0.000000 0.000000
# 5 0.000000 0.000000 0.000000 0.000000 0.036638 0.000000
# 6 0.000000 0.000000 0.000000 0.000000 0.000000 0.052949
#
#
# Mechanical properties :
#
#
# Convention : Reuss Voigt Hill
#
# Bulk Modulus (GPa) = 8.04630 13.69000 10.86815
# Shear Modulus (GPa) = 20.45229 24.52999 22.49114
#
# Velocity S-wave (km/s) = 2.90713 3.18377 3.04859
# Velocity P-wave (km/s) = 3.82014 4.37862 4.10888
#
# Compressibility (1/GPa) = 0.12428075
#
# Stress axis : x y z
#
# Youngs Moduli (GPa) = 68.58217 57.92100 15.60072
#
# Poissons Ratio (x) = -0.02761 -0.12134
# Poissons Ratio (y) = -0.03270 -0.09225
# Poissons Ratio (z) = -0.53341 -0.34249
#
# Static dielectric constant tensor:
#      x y z
#    x 1.951290 0.000000 0.000000 
#    y 0.000000 1.936950 0.000000 
#    z 0.000000 0.000000 1.940250 
# 
# From -- ./inp_files/3196.got.cif
#   From: 2010.05.17/outbox.cif.g08.bks.cpg/sg61_2_cif.got.tgz:3196.got - 2010.06.03 15:17:17.
