data_PCOD9460128
_publ_section_title
;
Structure prediction by ZEFSAII (Michael W. Deem and Ramdas Pophale) SiO2 
 PCOD9460128
Probable space group: P B C A
;
_chemical_formula_sum "Si O2"
_cell_formula_units_Z 56
_cell_length_a 13.623635
_cell_length_b 14.800127
_cell_length_c 11.342734
_cell_angle_alpha 90.000000
_cell_angle_beta 90.000000
_cell_angle_gamma 90.000000
_cell_volume 2287.052790
_symmetry_space_group_name_H-M "P B C A"
_symmetry_group_IT_number 61
_symmetry_cell_setting 'orthorhombic'
loop_
_space_group_symop_operation_xyz
x,y,z
1/2-x,-y,1/2+z
1/2+x,1/2-y,-z
-x,1/2+y,1/2-z
-x,-y,-z
1/2+x,y,1/2-z
1/2-x,1/2+y,z
x,1/2-y,1/2+z
loop_
_atom_site_type_symbol
_atom_site_label
_atom_site_fract_x
_atom_site_fract_y
_atom_site_fract_z
Si Si1 0.484462 0.267778 0.024336
Si Si2 0.208425 0.070736 0.578736
Si Si3 0.620320 0.018157 0.703939
Si Si4 0.190516 0.670112 0.364100
Si Si5 0.412280 0.418809 0.201363
Si Si6 0.113679 0.895822 0.480423
Si Si7 0.197989 0.323328 0.432923
O O1 0.444558 0.326698 0.134276
O O2 0.598244 0.289035 0.012051
O O3 0.415482 0.298107 0.914847
O O4 0.474064 0.160011 0.037085
O O5 0.141002 0.993013 0.524331
O O6 0.139192 0.090048 0.690738
O O7 0.244692 0.135025 0.475450
O O8 0.311874 0.046268 0.643140
O O9 0.504404 0.014329 0.682560
O O10 0.674229 0.072898 0.601018
O O11 0.667567 0.918677 0.713817
O O12 0.257269 0.756864 0.330243
O O13 0.397948 0.402253 0.339731
O O14 0.207308 0.833234 0.514524
#
# Coordination Sequence:
#
# PCOD9460128 Si02
#       7
#     8   8   8   8   8   8   8
#     4   9  23  40  66  98 131 182 227 279 345 404
#     4  11  22  41  68  96 135 176 221 282 343 396
#     4  11  23  43  67  99 135 180 225 288 338 410
#     4  10  22  41  68  97 133 177 237 267 347 418
#     4  10  23  42  68  99 135 176 233 287 336 411
#     4  11  22  42  67  99 140 174 227 284 343 408
#     4  10  21  43  66  91 136 173 221 284 332 405
#
# _framework density 24.485661
#
# number of rings (size 3 to 8) (size 9 to 14) (size 15 to 20)
#    0.000    1.714    2.857    0.000    4.000    4.571 
#    5.143    0.000    0.000    0.000    0.000    0.000 
#    0.000    0.000    0.000    0.000    0.000    0.000 
#
# Total GULP energy -312279.046964 kJ/mol
# GULP energy per Si atom -5576.411553 kJ/mol
# Density = 2.442993 g / cm^3
# Si number density = 24.485661 Si / 1000 Ang^3
#
#
#
# Elastic Constant Matrix: (Units=GPa)
#
#
# Indices 1 2 3 4 5 6 
#
# 1 76.8687 26.0112 0.2920 0.0000 0.0000 0.0000
# 2 26.0112 103.4820 9.4039 0.0000 0.0000 0.0000
# 3 0.2920 9.4039 54.6252 0.0000 0.0000 0.0000
# 4 0.0000 0.0000 0.0000 20.9594 0.0000 0.0000
# 5 0.0000 0.0000 0.0000 0.0000 18.2766 0.0000
# 6 0.0000 0.0000 0.0000 0.0000 0.0000 41.5402
#
#
#
# Elastic Compliance Matrix: (Units=1/GPa)
#
#
# Indices 1 2 3 4 5 6 
#
# 1 0.014235 -0.003628 0.000548 0.000000 0.000000 0.000000
# 2 -0.003628 0.010742 -0.001830 0.000000 0.000000 0.000000
# 3 0.000548 -0.001830 0.018619 0.000000 0.000000 0.000000
# 4 0.000000 0.000000 0.000000 0.047711 0.000000 0.000000
# 5 0.000000 0.000000 0.000000 0.000000 0.054715 0.000000
# 6 0.000000 0.000000 0.000000 0.000000 0.000000 0.024073
#
#
# Mechanical properties :
#
#
# Convention : Reuss Voigt Hill
#
# Bulk Modulus (GPa) = 29.60628 34.04333 31.82481
# Shear Modulus (GPa) = 26.15451 29.43981 27.79716
#
# Velocity S-wave (km/s) = 3.27181 3.47122 3.37299
# Velocity P-wave (km/s) = 5.13717 5.47717 5.30989
#
# Compressibility (1/GPa) = 0.03377661
#
# Stress axis : x y z
#
# Youngs Moduli (GPa) = 70.25065 93.09504 53.70958
#
# Poissons Ratio (x) = 0.33774 -0.02946
# Poissons Ratio (y) = 0.25486 0.09828
# Poissons Ratio (z) = -0.03853 0.17035
#
# Static dielectric constant tensor:
#      x y z
#    x 1.945870 0.000000 0.000000 
#    y 0.000000 2.042810 0.000000 
#    z 0.000000 0.000000 2.019670 
# 
# From -- ./inp_files/5820.got.cif
#   From: 2010.05.17/outbox.cif.g08.bks.cpg/sg61_3_cif.got.tgz:5820.got - 2010.06.03 15:17:17.
