data_PCOD9460908
_publ_section_title
;
Structure prediction by ZEFSAII (Michael W. Deem and Ramdas Pophale) SiO2 
 PCOD9460908
Probable space group: P B C A
;
_chemical_formula_sum "Si O2"
_cell_formula_units_Z 64
_cell_length_a 11.339786
_cell_length_b 9.407814
_cell_length_c 29.745837
_cell_angle_alpha 90.000000
_cell_angle_beta 90.000000
_cell_angle_gamma 90.000000
_cell_volume 3173.363156
_symmetry_space_group_name_H-M "P B C A"
_symmetry_group_IT_number 61
_symmetry_cell_setting 'orthorhombic'
loop_
_space_group_symop_operation_xyz
x,y,z
1/2-x,-y,1/2+z
1/2+x,1/2-y,-z
-x,1/2+y,1/2-z
-x,-y,-z
1/2+x,y,1/2-z
1/2-x,1/2+y,z
x,1/2-y,1/2+z
loop_
_atom_site_type_symbol
_atom_site_label
_atom_site_fract_x
_atom_site_fract_y
_atom_site_fract_z
Si Si1 0.998099 0.167887 0.650080
Si Si2 0.373873 0.064018 0.556802
Si Si3 0.648215 0.317398 0.179597
Si Si4 0.930154 0.130430 0.317038
Si Si5 0.651293 0.633678 0.215426
Si Si6 0.148252 0.036136 0.955026
Si Si7 0.790237 0.248475 0.090219
Si Si8 0.268091 0.797885 0.610971
O O1 0.129474 0.209684 0.635885
O O2 0.944135 0.272761 0.687814
O O3 0.914216 0.188296 0.606872
O O4 0.996001 0.007647 0.667929
O O5 0.350770 0.030359 0.504548
O O6 0.330368 0.928778 0.585653
O O7 0.515627 0.078943 0.559055
O O8 0.303891 0.198875 0.576181
O O9 0.513840 0.268035 0.181663
O O10 0.663528 0.482111 0.191096
O O11 0.727408 0.222426 0.213173
O O12 0.701441 0.277821 0.131173
O O13 0.886089 0.109998 0.266459
O O14 0.823556 0.148564 0.351680
O O15 0.235437 0.168719 0.951602
O O16 0.192884 0.915514 0.920869
#
# Coordination Sequence:
#
# PCOD9460908 Si02
#       8
#     8   8   8   8   8   8   8   8
#     4  11  24  45  63  97 133 174 219 281 325 400
#     4  11  25  45  65 100 136 169 224 271 340 404
#     4  11  24  43  66  99 129 173 221 280 328 403
#     4  12  26  41  69  93 131 181 224 267 338 399
#     4  11  26  42  67  94 137 168 226 282 326 392
#     4  11  23  42  72  97 130 174 216 280 331 407
#     4  11  21  42  69  93 129 169 219 271 337 389
#     4  12  25  44  67  93 138 176 214 278 336 402
#
# _framework density 20.167878999999999
#
# number of rings (size 3 to 8) (size 9 to 14) (size 15 to 20)
#    0.000    0.750    2.500    6.000    5.250    0.000 
#    0.000    0.625    0.000    0.000    0.000    0.000 
#    0.000    0.000    0.000    0.000    0.000    0.000 
#
# Total GULP energy -358058.077396 kJ/mol
# GULP energy per Si atom -5594.657459 kJ/mol
# Density = 2.012198 g / cm^3
# Si number density = 20.167879 Si / 1000 Ang^3
#
#
#
# Elastic Constant Matrix: (Units=GPa)
#
#
# Indices 1 2 3 4 5 6 
#
# 1 75.5314 15.4689 23.7203 0.0000 0.0000 0.0000
# 2 15.4689 58.7227 -2.3227 0.0000 0.0000 0.0000
# 3 23.7203 -2.3227 43.2242 0.0000 0.0000 0.0000
# 4 0.0000 0.0000 0.0000 15.4986 0.0000 0.0000
# 5 0.0000 0.0000 0.0000 0.0000 33.2844 0.0000
# 6 0.0000 0.0000 0.0000 0.0000 0.0000 36.7714
#
#
#
# Elastic Compliance Matrix: (Units=1/GPa)
#
#
# Indices 1 2 3 4 5 6 
#
# 1 0.017322 -0.004950 -0.009772 0.000000 0.000000 0.000000
# 2 -0.004950 0.018480 0.003709 0.000000 0.000000 0.000000
# 3 -0.009772 0.003709 0.028697 0.000000 0.000000 0.000000
# 4 0.000000 0.000000 0.000000 0.064522 0.000000 0.000000
# 5 0.000000 0.000000 0.000000 0.000000 0.030044 0.000000
# 6 0.000000 0.000000 0.000000 0.000000 0.000000 0.027195
#
#
# Mechanical properties :
#
#
# Convention : Reuss Voigt Hill
#
# Bulk Modulus (GPa) = 23.54355 27.91237 25.72796
# Shear Modulus (GPa) = 22.47774 26.48501 24.48138
#
# Velocity S-wave (km/s) = 3.34208 3.62778 3.48786
# Velocity P-wave (km/s) = 5.15672 5.60516 5.38561
#
# Compressibility (1/GPa) = 0.04247447
#
# Stress axis : x y z
#
# Youngs Moduli (GPa) = 57.73004 54.11338 34.84676
#
# Poissons Ratio (x) = 0.26784 0.34052
# Poissons Ratio (y) = 0.28574 -0.12925
# Poissons Ratio (z) = 0.56413 -0.20072
#
# Static dielectric constant tensor:
#      x y z
#    x 1.701810 0.000000 0.000000 
#    y 0.000000 1.699790 0.000000 
#    z 0.000000 0.000000 1.712370 
# 
# From -- ./inp_files/11777.got.cif
#   From: 2010.05.17/outbox.cif.g08.bks.cpg/sg61_6_cif.got.tgz:11777.got - 2010.06.03 15:17:17.
