data_PCOD9460551
_publ_section_title
;
Structure prediction by ZEFSAII (Michael W. Deem and Ramdas Pophale) SiO2 
 PCOD9460551
Probable space group: P B C A
;
_chemical_formula_sum "Si O2"
_cell_formula_units_Z 24
_cell_length_a 10.585590
_cell_length_b 17.124632
_cell_length_c 5.036624
_cell_angle_alpha 90.000000
_cell_angle_beta 90.000000
_cell_angle_gamma 90.000000
_cell_volume 913.010657
_symmetry_space_group_name_H-M "P B C A"
_symmetry_group_IT_number 61
_symmetry_cell_setting 'orthorhombic'
loop_
_space_group_symop_operation_xyz
x,y,z
1/2-x,-y,1/2+z
1/2+x,1/2-y,-z
-x,1/2+y,1/2-z
-x,-y,-z
1/2+x,y,1/2-z
1/2-x,1/2+y,z
x,1/2-y,1/2+z
loop_
_atom_site_type_symbol
_atom_site_label
_atom_site_fract_x
_atom_site_fract_y
_atom_site_fract_z
Si Si1 0.356799 0.902054 0.470340
Si Si2 0.864005 0.419215 0.400637
Si Si3 0.966199 0.304204 0.766094
O O1 0.244035 0.881668 0.275955
O O2 0.490243 0.910134 0.305187
O O3 0.396361 0.840621 0.696760
O O4 0.337258 0.989001 0.582141
O O5 0.875629 0.376601 0.686483
O O6 0.948619 0.238639 0.539813
#
# Coordination Sequence:
#
# PCOD9460551 Si02
#       3
#     8   8   8
#     4   9  21  41  62  96 124 172 217 266 316 382
#     4   9  21  41  62  96 124 172 217 266 316 382
#     4  10  23  42  65  96 134 168 212 266 327 388
#
# _framework density 26.286657999999999
#
# number of rings (size 3 to 8) (size 9 to 14) (size 15 to 20)
#    2.000    0.667    0.000    0.000    0.000    9.333 
#    0.000    0.000    0.000    0.000    0.000    0.000 
#    0.000    0.000    0.000    0.000    0.000    0.000 
#
# Total GULP energy -134188.279908 kJ/mol
# GULP energy per Si atom -5591.178329 kJ/mol
# Density = 2.622683 g / cm^3
# Si number density = 26.286658 Si / 1000 Ang^3
#
#
#
# Elastic Constant Matrix: (Units=GPa)
#
#
# Indices 1 2 3 4 5 6 
#
# 1 135.0440 -6.1422 37.0311 0.0000 0.0000 0.0000
# 2 -6.1422 144.9868 29.9522 0.0000 0.0000 0.0000
# 3 37.0311 29.9522 81.1957 0.0000 0.0000 0.0000
# 4 0.0000 0.0000 0.0000 45.1126 0.0000 0.0000
# 5 0.0000 0.0000 0.0000 0.0000 30.5953 0.0000
# 6 0.0000 0.0000 0.0000 0.0000 0.0000 22.5731
#
#
#
# Elastic Compliance Matrix: (Units=1/GPa)
#
#
# Indices 1 2 3 4 5 6 
#
# 1 0.008679 0.001283 -0.004431 0.000000 0.000000 0.000000
# 2 0.001283 0.007656 -0.003409 0.000000 0.000000 0.000000
# 3 -0.004431 -0.003409 0.015595 0.000000 0.000000 0.000000
# 4 0.000000 0.000000 0.000000 0.022167 0.000000 0.000000
# 5 0.000000 0.000000 0.000000 0.000000 0.032685 0.000000
# 6 0.000000 0.000000 0.000000 0.000000 0.000000 0.044301
#
#
# Mechanical properties :
#
#
# Convention : Reuss Voigt Hill
#
# Bulk Modulus (GPa) = 53.15252 53.65653 53.40453
# Shear Modulus (GPa) = 33.22976 39.68188 36.45582
#
# Velocity S-wave (km/s) = 3.55932 3.88955 3.72809
# Velocity P-wave (km/s) = 6.09556 6.37400 6.23634
#
# Compressibility (1/GPa) = 0.01881378
#
# Stress axis : x y z
#
# Youngs Moduli (GPa) = 115.22727 130.61885 64.12466
#
# Poissons Ratio (x) = -0.16760 0.28416
# Poissons Ratio (y) = -0.14785 0.21862
# Poissons Ratio (z) = 0.51061 0.44533
#
# Static dielectric constant tensor:
#      x y z
#    x 2.180100 0.000000 0.000000 
#    y 0.000000 2.034530 0.000000 
#    z 0.000000 0.000000 2.117720 
# 
# From -- ./inp_files/127.got.cif
#   From: 2010.05.17/outbox.cif.g08.bks.cpg/sg61_1_cif.got.tgz:127.got - 2010.06.03 15:17:17.
