data_PCOD9460352
_publ_section_title
;
Structure prediction by ZEFSAII (Michael W. Deem and Ramdas Pophale) SiO2 
 PCOD9460352
Probable space group: P B C A
;
_chemical_formula_sum "Si O2"
_cell_formula_units_Z 56
_cell_length_a 18.497197
_cell_length_b 9.275712
_cell_length_c 13.456414
_cell_angle_alpha 90.000000
_cell_angle_beta 90.000000
_cell_angle_gamma 90.000000
_cell_volume 2308.779821
_symmetry_space_group_name_H-M "P B C A"
_symmetry_group_IT_number 61
_symmetry_cell_setting 'orthorhombic'
loop_
_space_group_symop_operation_xyz
x,y,z
1/2-x,-y,1/2+z
1/2+x,1/2-y,-z
-x,1/2+y,1/2-z
-x,-y,-z
1/2+x,y,1/2-z
1/2-x,1/2+y,z
x,1/2-y,1/2+z
loop_
_atom_site_type_symbol
_atom_site_label
_atom_site_fract_x
_atom_site_fract_y
_atom_site_fract_z
Si Si1 0.355384 0.833961 0.204439
Si Si2 0.864416 0.262163 0.183327
Si Si3 0.588572 0.688967 0.970071
Si Si4 0.708846 0.179132 0.590856
Si Si5 0.052823 0.922012 0.675902
Si Si6 0.917813 0.535058 0.307437
Si Si7 0.251503 0.094294 0.544167
O O1 0.349005 0.849670 0.323593
O O2 0.360922 0.664143 0.180178
O O3 0.427130 0.912048 0.163521
O O4 0.287667 0.908470 0.149411
O O5 0.782483 0.281414 0.149114
O O6 0.878189 0.142190 0.265523
O O7 0.889252 0.410212 0.234084
O O8 0.910205 0.210750 0.087523
O O9 0.548732 0.824997 0.921338
O O10 0.563328 0.544941 0.911403
O O11 0.674945 0.685923 0.945402
O O12 0.694610 0.319859 0.525048
O O13 0.724913 0.047204 0.516493
O O14 0.985530 0.901838 0.747962
#
# Coordination Sequence:
#
# PCOD9460352 Si02
#       7
#     8   8   8   8   8   8   8
#     4  12  22  38  66  92 124 164 202 264 318 358
#     4  10  22  42  63  86 123 163 200 255 317 368
#     4  10  22  42  63  86 123 163 200 255 317 368
#     4  11  23  39  63  95 123 154 203 256 315 380
#     4  11  24  41  60  87 124 165 208 252 304 369
#     4  11  24  41  62  91 122 163 218 252 294 377
#     4  11  23  39  63  95 123 154 203 256 315 380
#
# _framework density 24.255237999999999
#
# number of rings (size 3 to 8) (size 9 to 14) (size 15 to 20)
#    0.000    1.143    0.000    8.571    0.000    4.571 
#    0.000    5.714    0.000    0.000    0.000    0.000 
#    0.000    0.000    0.000    0.000    0.000    0.000 
#
# Total GULP energy -313106.642804 kJ/mol
# GULP energy per Si atom -5591.190050 kJ/mol
# Density = 2.420003 g / cm^3
# Si number density = 24.255238 Si / 1000 Ang^3
#
#
#
# Elastic Constant Matrix: (Units=GPa)
#
#
# Indices 1 2 3 4 5 6 
#
# 1 32.7590 -13.3052 -12.8036 0.0000 0.0000 0.0000
# 2 -13.3052 94.3291 20.5680 0.0000 0.0000 0.0000
# 3 -12.8036 20.5680 89.6452 0.0000 0.0000 0.0000
# 4 0.0000 0.0000 0.0000 39.1485 0.0000 0.0000
# 5 0.0000 0.0000 0.0000 0.0000 22.3372 0.0000
# 6 0.0000 0.0000 0.0000 0.0000 0.0000 25.4787
#
#
#
# Elastic Compliance Matrix: (Units=1/GPa)
#
#
# Indices 1 2 3 4 5 6 
#
# 1 0.033635 0.003891 0.003911 0.000000 0.000000 0.000000
# 2 0.003891 0.011610 -0.002108 0.000000 0.000000 0.000000
# 3 0.003911 -0.002108 0.012197 0.000000 0.000000 0.000000
# 4 0.000000 0.000000 0.000000 0.025544 0.000000 0.000000
# 5 0.000000 0.000000 0.000000 0.000000 0.044768 0.000000
# 6 0.000000 0.000000 0.000000 0.000000 0.000000 0.039248
#
#
# Mechanical properties :
#
#
# Convention : Reuss Voigt Hill
#
# Bulk Modulus (GPa) = 14.52824 22.85019 18.68921
# Shear Modulus (GPa) = 28.00223 32.21115 30.10669
#
# Velocity S-wave (km/s) = 3.40145 3.64814 3.52695
# Velocity P-wave (km/s) = 4.62917 5.21406 4.93030
#
# Compressibility (1/GPa) = 0.06883146
#
# Stress axis : x y z
#
# Youngs Moduli (GPa) = 29.73082 86.13488 81.98528
#
# Poissons Ratio (x) = -0.33519 -0.32065
# Poissons Ratio (y) = -0.11570 0.17282
# Poissons Ratio (z) = -0.11628 0.18156
#
# Static dielectric constant tensor:
#      x y z
#    x 1.924660 0.000000 0.000000 
#    y 0.000000 1.976870 0.000000 
#    z 0.000000 0.000000 1.952250 
# 
# From -- ./inp_files/8376.got.cif
#   From: 2010.05.17/outbox.cif.g08.bks.cpg/sg61_5_cif.got.tgz:8376.got - 2010.06.03 15:17:17.
