data_PCOD9460250
_publ_section_title
;
Structure prediction by ZEFSAII (Michael W. Deem and Ramdas Pophale) SiO2 
 PCOD9460250
Probable space group: P B C A
;
_chemical_formula_sum "Si O2"
_cell_formula_units_Z 48
_cell_length_a 14.031368
_cell_length_b 8.245479
_cell_length_c 16.557804
_cell_angle_alpha 90.000000
_cell_angle_beta 90.000000
_cell_angle_gamma 90.000000
_cell_volume 1915.660932
_symmetry_space_group_name_H-M "P B C A"
_symmetry_group_IT_number 61
_symmetry_cell_setting 'orthorhombic'
loop_
_space_group_symop_operation_xyz
x,y,z
1/2-x,-y,1/2+z
1/2+x,1/2-y,-z
-x,1/2+y,1/2-z
-x,-y,-z
1/2+x,y,1/2-z
1/2-x,1/2+y,z
x,1/2-y,1/2+z
loop_
_atom_site_type_symbol
_atom_site_label
_atom_site_fract_x
_atom_site_fract_y
_atom_site_fract_z
Si Si1 0.328637 0.286716 0.544147
Si Si2 0.343769 0.752724 0.666789
Si Si3 0.299210 0.050764 0.770835
Si Si4 0.912896 0.614696 0.976129
Si Si5 0.982017 0.612897 0.577703
Si Si6 0.846351 0.358784 0.634732
O O1 0.233636 0.269506 0.595170
O O2 0.333399 0.479395 0.532295
O O3 0.418593 0.207892 0.593507
O O4 0.336792 0.207334 0.456234
O O5 0.293354 0.620786 0.723360
O O6 0.431258 0.692105 0.612575
O O7 0.353193 0.920712 0.714550
O O8 0.354668 0.206277 0.804544
O O9 0.252161 0.948099 0.842569
O O10 0.908932 0.751307 0.044250
O O11 0.000000 0.500000 0.000000
O O12 0.929482 0.494294 0.639492
O O13 0.000000 0.500000 0.500000
#
# Coordination Sequence:
#
# PCOD9460250 Si02
#       6
#     8   8   8   8   8   8
#     4  10  22  39  73 102 133 184 254 300 355 419
#     4  11  22  41  68 102 137 191 244 298 359 448
#     4  10  24  39  64  99 148 182 238 290 383 438
#     4  10  22  40  68 108 138 177 242 308 354 419
#     4   9  21  40  67  99 137 174 236 305 350 417
#     4  10  23  41  63 101 141 187 237 302 362 441
#
# _framework density 25.056626999999999
#
# number of rings (size 3 to 8) (size 9 to 14) (size 15 to 20)
#    0.000    2.000    1.667    0.000    9.333    1.333 
#    0.000    0.000   22.000    0.000    0.000    0.000 
#    0.000    0.000    0.000    0.000    0.000    0.000 
#
# Total GULP energy -268346.267531 kJ/mol
# GULP energy per Si atom -5590.547240 kJ/mol
# Density = 2.499960 g / cm^3
# Si number density = 25.056627 Si / 1000 Ang^3
#
#
#
# Elastic Constant Matrix: (Units=GPa)
#
#
# Indices 1 2 3 4 5 6 
#
# 1 54.2169 39.2265 30.7858 0.0000 0.0000 0.0000
# 2 39.2265 186.1777 59.4537 0.0000 0.0000 0.0000
# 3 30.7858 59.4537 100.5340 0.0000 0.0000 0.0000
# 4 0.0000 0.0000 0.0000 62.8928 0.0000 0.0000
# 5 0.0000 0.0000 0.0000 0.0000 38.8867 0.0000
# 6 0.0000 0.0000 0.0000 0.0000 0.0000 40.3745
#
#
#
# Elastic Compliance Matrix: (Units=1/GPa)
#
#
# Indices 1 2 3 4 5 6 
#
# 1 0.023887 -0.003325 -0.005349 0.000000 0.000000 0.000000
# 2 -0.003325 0.007085 -0.003171 0.000000 0.000000 0.000000
# 3 -0.005349 -0.003171 0.013460 0.000000 0.000000 0.000000
# 4 0.000000 0.000000 0.000000 0.015900 0.000000 0.000000
# 5 0.000000 0.000000 0.000000 0.000000 0.025716 0.000000
# 6 0.000000 0.000000 0.000000 0.000000 0.000000 0.024768
#
#
# Mechanical properties :
#
#
# Convention : Reuss Voigt Hill
#
# Bulk Modulus (GPa) = 48.21112 66.65118 57.43115
# Shear Modulus (GPa) = 35.35581 42.52830 38.94206
#
# Velocity S-wave (km/s) = 3.76045 4.12428 3.94656
# Velocity P-wave (km/s) = 6.17554 7.02407 6.61343
#
# Compressibility (1/GPa) = 0.02074210
#
# Stress axis : x y z
#
# Youngs Moduli (GPa) = 41.86374 141.15289 74.29271
#
# Poissons Ratio (x) = 0.46931 0.39736
# Poissons Ratio (y) = 0.13919 0.23562
# Poissons Ratio (z) = 0.22391 0.44766
#
# Static dielectric constant tensor:
#      x y z
#    x 2.298910 0.000000 0.000000 
#    y 0.000000 2.028770 0.000000 
#    z 0.000000 0.000000 2.039740 
# 
# From -- ./inp_files/8117.got.cif
#   From: 2010.05.17/outbox.cif.g08.bks.cpg/sg61_5_cif.got.tgz:8117.got - 2010.06.03 15:17:17.
