data_PCOD9460025
_publ_section_title
;
Structure prediction by ZEFSAII (Michael W. Deem and Ramdas Pophale) SiO2 
 PCOD9460025
Probable space group: P B C A
;
_chemical_formula_sum "Si O2"
_cell_formula_units_Z 32
_cell_length_a 10.661176
_cell_length_b 22.380761
_cell_length_c 4.987881
_cell_angle_alpha 90.000000
_cell_angle_beta 90.000000
_cell_angle_gamma 90.000000
_cell_volume 1190.134503
_symmetry_space_group_name_H-M "P B C A"
_symmetry_group_IT_number 61
_symmetry_cell_setting 'orthorhombic'
loop_
_space_group_symop_operation_xyz
x,y,z
1/2-x,-y,1/2+z
1/2+x,1/2-y,-z
-x,1/2+y,1/2-z
-x,-y,-z
1/2+x,y,1/2-z
1/2-x,1/2+y,z
x,1/2-y,1/2+z
loop_
_atom_site_type_symbol
_atom_site_label
_atom_site_fract_x
_atom_site_fract_y
_atom_site_fract_z
Si Si1 0.671649 0.861897 0.012002
Si Si2 0.825987 0.488901 0.749145
Si Si3 0.421219 0.885638 0.169642
Si Si4 0.022896 0.289750 0.790398
O O1 0.647877 0.921902 0.838535
O O2 0.561646 0.864726 0.240663
O O3 0.804350 0.865823 0.152467
O O4 0.624608 0.806198 0.835872
O O5 0.706194 0.506393 0.936203
O O6 0.918415 0.542775 0.823418
O O7 0.408697 0.851296 0.883391
O O8 0.054051 0.240781 0.014983
#
# Coordination Sequence:
#
# PCOD9460025 Si02
#       4
#     8   8   8   8
#     4   9  21  42  66  95 129 164 211 261 319 373
#     4  10  21  40  67  98 127 162 207 262 323 378
#     4   9  21  42  66  95 129 164 211 261 319 373
#     4  10  24  41  64  91 126 170 214 256 308 370
#
# _framework density 26.887715
#
# number of rings (size 3 to 8) (size 9 to 14) (size 15 to 20)
#    1.500    1.000    0.000    0.750    0.000   10.000 
#    0.000   21.250    0.000    0.000    0.000    0.000 
#    0.000    0.000    0.000    0.000    0.000    0.000 
#
# Total GULP energy -178780.849194 kJ/mol
# GULP energy per Si atom -5586.901537 kJ/mol
# Density = 2.682652 g / cm^3
# Si number density = 26.887715 Si / 1000 Ang^3
#
#
#
# Elastic Constant Matrix: (Units=GPa)
#
#
# Indices 1 2 3 4 5 6 
#
# 1 93.2961 27.2438 49.2395 0.0000 0.0000 0.0000
# 2 27.2438 98.9135 42.4761 0.0000 0.0000 0.0000
# 3 49.2395 42.4761 86.7815 0.0000 0.0000 0.0000
# 4 0.0000 0.0000 0.0000 41.0987 0.0000 0.0000
# 5 0.0000 0.0000 0.0000 0.0000 17.8149 0.0000
# 6 0.0000 0.0000 0.0000 0.0000 0.0000 54.2956
#
#
#
# Elastic Compliance Matrix: (Units=1/GPa)
#
#
# Indices 1 2 3 4 5 6 
#
# 1 0.015330 -0.000617 -0.008396 0.000000 0.000000 0.000000
# 2 -0.000617 0.012825 -0.005927 0.000000 0.000000 0.000000
# 3 -0.008396 -0.005927 0.019188 0.000000 0.000000 0.000000
# 4 0.000000 0.000000 0.000000 0.024332 0.000000 0.000000
# 5 0.000000 0.000000 0.000000 0.000000 0.056133 0.000000
# 6 0.000000 0.000000 0.000000 0.000000 0.000000 0.018418
#
#
# Mechanical properties :
#
#
# Convention : Reuss Voigt Hill
#
# Bulk Modulus (GPa) = 57.26525 57.43443 57.34984
# Shear Modulus (GPa) = 27.48343 33.31062 30.39702
#
# Velocity S-wave (km/s) = 3.20059 3.52359 3.36596
# Velocity P-wave (km/s) = 5.91629 6.16129 6.04003
#
# Compressibility (1/GPa) = 0.01746260
#
# Stress axis : x y z
#
# Youngs Moduli (GPa) = 65.23138 77.97200 52.11463
#
# Poissons Ratio (x) = 0.04809 0.43757
# Poissons Ratio (y) = 0.04023 0.30891
# Poissons Ratio (z) = 0.54770 0.46217
#
# Static dielectric constant tensor:
#      x y z
#    x 2.223310 0.000000 0.000000 
#    y 0.000000 2.129400 0.000000 
#    z 0.000000 0.000000 2.132540 
# 
# From -- ./inp_files/169.got.cif
#   From: 2010.05.17/outbox.cif.g08.bks.cpg/sg61_1_cif.got.tgz:169.got - 2010.06.03 15:17:17.
