data_PCOD9460517
_publ_section_title
;
Structure prediction by ZEFSAII (Michael W. Deem and Ramdas Pophale) SiO2 
 PCOD9460517
Probable space group: P B C A
;
_chemical_formula_sum "Si O2"
_cell_formula_units_Z 32
_cell_length_a 13.520118
_cell_length_b 21.344611
_cell_length_c 5.123486
_cell_angle_alpha 90.000000
_cell_angle_beta 90.000000
_cell_angle_gamma 90.000000
_cell_volume 1478.544092
_symmetry_space_group_name_H-M "P B C A"
_symmetry_group_IT_number 61
_symmetry_cell_setting 'orthorhombic'
loop_
_space_group_symop_operation_xyz
x,y,z
1/2-x,-y,1/2+z
1/2+x,1/2-y,-z
-x,1/2+y,1/2-z
-x,-y,-z
1/2+x,y,1/2-z
1/2-x,1/2+y,z
x,1/2-y,1/2+z
loop_
_atom_site_type_symbol
_atom_site_label
_atom_site_fract_x
_atom_site_fract_y
_atom_site_fract_z
Si Si1 0.070142 0.550849 0.233546
Si Si2 0.411789 0.908840 0.127712
Si Si3 0.318857 0.395672 0.231126
Si Si4 0.539158 0.708883 0.796804
O O1 0.061483 0.476149 0.253054
O O2 0.119459 0.577701 0.489027
O O3 0.144205 0.568577 0.991741
O O4 0.964950 0.581728 0.154610
O O5 0.295069 0.902746 0.158854
O O6 0.461961 0.847030 0.243974
O O7 0.354589 0.323891 0.252374
O O8 0.527745 0.763187 0.583508
#
# Coordination Sequence:
#
# PCOD9460517 Si02
#       4
#     8   8   8   8
#     4  10  23  40  64 101 129 156 214 269 320 395
#     4  10  23  41  68  93 128 172 207 264 333 376
#     4  11  23  41  65  93 129 167 209 267 326 380
#     4  11  25  42  59  88 124 163 216 258 295 372
#
# _framework density 21.642914000000001
#
# number of rings (size 3 to 8) (size 9 to 14) (size 15 to 20)
#    0.000    1.500    0.000    4.500    0.000   19.000 
#    0.000    0.000    0.000    0.000    0.000    0.000 
#    0.000    0.000    0.000    0.000    0.000    0.000 
#
# Total GULP energy -178927.431976 kJ/mol
# GULP energy per Si atom -5591.482249 kJ/mol
# Density = 2.159365 g / cm^3
# Si number density = 21.642914 Si / 1000 Ang^3
#
#
#
# Elastic Constant Matrix: (Units=GPa)
#
#
# Indices 1 2 3 4 5 6 
#
# 1 162.7141 37.3370 29.6423 0.0000 0.0000 0.0000
# 2 37.3370 99.5130 14.1848 0.0000 0.0000 0.0000
# 3 29.6423 14.1848 98.0951 0.0000 0.0000 0.0000
# 4 0.0000 0.0000 0.0000 41.4798 0.0000 0.0000
# 5 0.0000 0.0000 0.0000 0.0000 14.7016 0.0000
# 6 0.0000 0.0000 0.0000 0.0000 0.0000 22.3382
#
#
#
# Elastic Compliance Matrix: (Units=1/GPa)
#
#
# Indices 1 2 3 4 5 6 
#
# 1 0.007015 -0.002379 -0.001776 0.000000 0.000000 0.000000
# 2 -0.002379 0.011067 -0.000881 0.000000 0.000000 0.000000
# 3 -0.001776 -0.000881 0.010858 0.000000 0.000000 0.000000
# 4 0.000000 0.000000 0.000000 0.024108 0.000000 0.000000
# 5 0.000000 0.000000 0.000000 0.000000 0.068020 0.000000
# 6 0.000000 0.000000 0.000000 0.000000 0.000000 0.044766
#
#
# Mechanical properties :
#
#
# Convention : Reuss Voigt Hill
#
# Bulk Modulus (GPa) = 52.99953 58.07226 55.53590
# Shear Modulus (GPa) = 27.44288 34.31447 30.87868
#
# Velocity S-wave (km/s) = 3.56474 3.98613 3.78131
# Velocity P-wave (km/s) = 6.44085 6.93368 6.69180
#
# Compressibility (1/GPa) = 0.01886809
#
# Stress axis : x y z
#
# Youngs Moduli (GPa) = 142.54889 90.35752 92.09570
#
# Poissons Ratio (x) = 0.21495 0.16355
# Poissons Ratio (y) = 0.33911 0.08118
# Poissons Ratio (z) = 0.25314 0.07965
#
# Static dielectric constant tensor:
#      x y z
#    x 1.805200 0.000000 0.000000 
#    y 0.000000 1.787030 0.000000 
#    z 0.000000 0.000000 1.852020 
# 
# From -- ./inp_files/171.got.cif
#   From: 2010.05.17/outbox.cif.g08.bks.cpg/sg61_1_cif.got.tgz:171.got - 2010.06.03 15:17:17.
