data_PCOD9460564
_publ_section_title
;
Structure prediction by ZEFSAII (Michael W. Deem and Ramdas Pophale) SiO2 
 PCOD9460564
Probable space group: P B C A
;
_chemical_formula_sum "Si O2"
_cell_formula_units_Z 64
_cell_length_a 31.150048
_cell_length_b 8.206911
_cell_length_c 10.383187
_cell_angle_alpha 90.000000
_cell_angle_beta 90.000000
_cell_angle_gamma 90.000000
_cell_volume 2654.416814
_symmetry_space_group_name_H-M "P B C A"
_symmetry_group_IT_number 61
_symmetry_cell_setting 'orthorhombic'
loop_
_space_group_symop_operation_xyz
x,y,z
1/2-x,-y,1/2+z
1/2+x,1/2-y,-z
-x,1/2+y,1/2-z
-x,-y,-z
1/2+x,y,1/2-z
1/2-x,1/2+y,z
x,1/2-y,1/2+z
loop_
_atom_site_type_symbol
_atom_site_label
_atom_site_fract_x
_atom_site_fract_y
_atom_site_fract_z
Si Si1 0.809761 0.051702 0.218930
Si Si2 0.075705 0.330359 0.796136
Si Si3 0.842617 0.850463 0.548582
Si Si4 0.276668 0.802235 0.756559
Si Si5 0.623488 0.665348 0.397659
Si Si6 0.667550 0.489317 0.934318
Si Si7 0.459504 0.104501 0.951354
Si Si8 0.473678 0.840978 0.536148
O O1 0.774096 0.182366 0.258862
O O2 0.857357 0.104354 0.262092
O O3 0.809047 0.035367 0.066617
O O4 0.794827 0.877119 0.275065
O O5 0.125806 0.316358 0.829361
O O6 0.064812 0.513416 0.839536
O O7 0.060976 0.317704 0.649727
O O8 0.048688 0.225067 0.903184
O O9 0.794080 0.837953 0.599145
O O10 0.852215 0.690270 0.463561
O O11 0.853491 0.027828 0.490215
O O12 0.298463 0.945346 0.674597
O O13 0.637130 0.854676 0.409713
O O14 0.573782 0.643734 0.434648
O O15 0.485154 0.253771 0.898502
O O16 0.500000 0.000000 0.000000
O O17 0.500000 0.000000 0.500000
#
# Coordination Sequence:
#
# PCOD9460564 Si02
#       8
#     8   8   8   8   8   8   8   8
#     4  11  26  45  69 107 138 195 234 305 354 436
#     4  10  23  42  68  95 144 176 232 291 355 424
#     4  10  25  44  68 100 141 187 232 299 354 420
#     4  11  25  44  71  99 150 180 243 293 361 421
#     4  11  24  45  70 102 144 185 239 297 353 429
#     4  11  26  43  69 105 135 190 237 288 363 430
#     4   9  22  44  65  99 141 182 226 295 358 414
#     4  11  23  41  69 103 133 186 233 290 358 436
#
# _framework density 24.110755000000001
#
# number of rings (size 3 to 8) (size 9 to 14) (size 15 to 20)
#    0.000    1.500    1.250    1.500    8.750    4.000 
#    6.750    0.000    0.000    0.000    0.000    0.000 
#    0.000    0.000    0.000    0.000    0.000    0.000 
#
# Total GULP energy -356867.344766 kJ/mol
# GULP energy per Si atom -5576.052262 kJ/mol
# Density = 2.405588 g / cm^3
# Si number density = 24.110755 Si / 1000 Ang^3
#
#
#
# Elastic Constant Matrix: (Units=GPa)
#
#
# Indices 1 2 3 4 5 6 
#
# 1 81.3839 -3.6231 8.8150 0.0000 0.0000 0.0000
# 2 -3.6231 81.0793 24.7885 0.0000 0.0000 0.0000
# 3 8.8150 24.7885 89.8669 0.0000 0.0000 0.0000
# 4 0.0000 0.0000 0.0000 18.9072 0.0000 0.0000
# 5 0.0000 0.0000 0.0000 0.0000 22.3016 0.0000
# 6 0.0000 0.0000 0.0000 0.0000 0.0000 13.1898
#
#
#
# Elastic Compliance Matrix: (Units=1/GPa)
#
#
# Indices 1 2 3 4 5 6 
#
# 1 0.012496 0.001019 -0.001507 0.000000 0.000000 0.000000
# 2 0.001019 0.013553 -0.003838 0.000000 0.000000 0.000000
# 3 -0.001507 -0.003838 0.012334 0.000000 0.000000 0.000000
# 4 0.000000 0.000000 0.000000 0.052890 0.000000 0.000000
# 5 0.000000 0.000000 0.000000 0.000000 0.044840 0.000000
# 6 0.000000 0.000000 0.000000 0.000000 0.000000 0.075816
#
#
# Mechanical properties :
#
#
# Convention : Reuss Voigt Hill
#
# Bulk Modulus (GPa) = 33.63521 34.69897 34.16709
# Shear Modulus (GPa) = 21.69285 25.70304 23.69794
#
# Velocity S-wave (km/s) = 3.00278 3.26857 3.13849
# Velocity P-wave (km/s) = 5.09930 5.35420 5.22830
#
# Compressibility (1/GPa) = 0.02973075
#
# Stress axis : x y z
#
# Youngs Moduli (GPa) = 80.02547 73.78650 81.07605
#
# Poissons Ratio (x) = -0.07519 0.12217
# Poissons Ratio (y) = -0.08155 0.31119
# Poissons Ratio (z) = 0.12058 0.28321
#
# Static dielectric constant tensor:
#      x y z
#    x 1.909810 0.000000 0.000000 
#    y 0.000000 1.781430 0.000000 
#    z 0.000000 0.000000 1.903520 
# 
# From -- ./inp_files/6781.got.cif
#   From: 2010.05.17/outbox.cif.g08.bks.cpg/sg61_4_cif.got.tgz:6781.got - 2010.06.03 15:17:17.
