data_PCOD9460698
_publ_section_title
;
Structure prediction by ZEFSAII (Michael W. Deem and Ramdas Pophale) SiO2 
 PCOD9460698
Probable space group: P B C A
;
_chemical_formula_sum "Si O2"
_cell_formula_units_Z 40
_cell_length_a 10.693694
_cell_length_b 18.419851
_cell_length_c 8.576601
_cell_angle_alpha 90.000000
_cell_angle_beta 90.000000
_cell_angle_gamma 90.000000
_cell_volume 1689.386704
_symmetry_space_group_name_H-M "P B C A"
_symmetry_group_IT_number 61
_symmetry_cell_setting 'orthorhombic'
loop_
_space_group_symop_operation_xyz
x,y,z
1/2-x,-y,1/2+z
1/2+x,1/2-y,-z
-x,1/2+y,1/2-z
-x,-y,-z
1/2+x,y,1/2-z
1/2-x,1/2+y,z
x,1/2-y,1/2+z
loop_
_atom_site_type_symbol
_atom_site_label
_atom_site_fract_x
_atom_site_fract_y
_atom_site_fract_z
Si Si1 0.421381 0.236665 0.974679
Si Si2 0.119338 0.058484 0.328339
Si Si3 0.748896 0.698121 0.258808
Si Si4 0.080648 0.325394 0.289596
Si Si5 0.360269 0.522334 0.694604
O O1 0.337179 0.189100 0.090661
O O2 0.529113 0.280552 0.064011
O O3 0.339056 0.298137 0.891402
O O4 0.476529 0.184537 0.843405
O O5 0.143124 0.140443 0.270477
O O6 0.140611 0.049891 0.514742
O O7 0.229648 0.013785 0.242464
O O8 0.980403 0.030331 0.291581
O O9 0.802620 0.779172 0.270283
O O10 0.114765 0.408513 0.305718
#
# Coordination Sequence:
#
# PCOD9460698 Si02
#       5
#     8   8   8   8   8
#     4  10  24  40  73  99 137 176 246 286 353 409
#     4  11  28  47  72 105 147 188 234 292 357 424
#     4  11  24  44  69 103 135 186 235 292 347 418
#     4  11  24  45  70 103 136 185 235 295 346 419
#     4  11  28  48  71 105 146 189 234 291 358 423
#
# _framework density 23.677233000000001
#
# number of rings (size 3 to 8) (size 9 to 14) (size 15 to 20)
#    0.000    1.200    0.000    3.600   19.600    2.400 
#    0.000    0.000    0.000    0.000    0.000    0.000 
#    0.000    0.000    0.000    0.000    0.000    0.000 
#
# Total GULP energy -224084.057182 kJ/mol
# GULP energy per Si atom -5602.101430 kJ/mol
# Density = 2.362334 g / cm^3
# Si number density = 23.677233 Si / 1000 Ang^3
#
#
#
# Elastic Constant Matrix: (Units=GPa)
#
#
# Indices 1 2 3 4 5 6 
#
# 1 83.0231 7.5236 15.1654 0.0000 0.0000 0.0000
# 2 7.5236 80.3699 -0.2029 0.0000 0.0000 0.0000
# 3 15.1654 -0.2029 51.5817 0.0000 0.0000 0.0000
# 4 0.0000 0.0000 0.0000 15.7679 0.0000 0.0000
# 5 0.0000 0.0000 0.0000 0.0000 36.9170 0.0000
# 6 0.0000 0.0000 0.0000 0.0000 0.0000 46.9758
#
#
#
# Elastic Compliance Matrix: (Units=1/GPa)
#
#
# Indices 1 2 3 4 5 6 
#
# 1 0.012845 -0.001212 -0.003781 0.000000 0.000000 0.000000
# 2 -0.001212 0.012557 0.000406 0.000000 0.000000 0.000000
# 3 -0.003781 0.000406 0.020500 0.000000 0.000000 0.000000
# 4 0.000000 0.000000 0.000000 0.063420 0.000000 0.000000
# 5 0.000000 0.000000 0.000000 0.000000 0.027088 0.000000
# 6 0.000000 0.000000 0.000000 0.000000 0.000000 0.021288
#
#
# Mechanical properties :
#
#
# Convention : Reuss Voigt Hill
#
# Bulk Modulus (GPa) = 27.22791 28.88300 28.05545
# Shear Modulus (GPa) = 27.91496 32.76474 30.33985
#
# Velocity S-wave (km/s) = 3.43735 3.72399 3.58354
# Velocity P-wave (km/s) = 5.22288 5.54220 5.38490
#
# Compressibility (1/GPa) = 0.03672702
#
# Stress axis : x y z
#
# Youngs Moduli (GPa) = 77.84888 79.63717 48.78031
#
# Poissons Ratio (x) = 0.09652 0.18446
# Poissons Ratio (y) = 0.09436 -0.01979
# Poissons Ratio (z) = 0.29438 -0.03231
#
# Static dielectric constant tensor:
#      x y z
#    x 1.917350 0.000000 0.000000 
#    y 0.000000 1.892880 0.000000 
#    z 0.000000 0.000000 1.919550 
# 
# From -- ./inp_files/2108.got.cif
#   From: 2010.05.17/outbox.cif.g08.bks.cpg/sg61_2_cif.got.tgz:2108.got - 2010.06.03 15:17:17.
