data_PCOD9460621
_publ_section_title
;
Structure prediction by ZEFSAII (Michael W. Deem and Ramdas Pophale) SiO2 
 PCOD9460621
Probable space group: P B C A
;
_chemical_formula_sum "Si O2"
_cell_formula_units_Z 48
_cell_length_a 8.418240
_cell_length_b 24.907126
_cell_length_c 8.860040
_cell_angle_alpha 90.000000
_cell_angle_beta 90.000000
_cell_angle_gamma 90.000000
_cell_volume 1857.721483
_symmetry_space_group_name_H-M "P B C A"
_symmetry_group_IT_number 61
_symmetry_cell_setting 'orthorhombic'
loop_
_space_group_symop_operation_xyz
x,y,z
1/2-x,-y,1/2+z
1/2+x,1/2-y,-z
-x,1/2+y,1/2-z
-x,-y,-z
1/2+x,y,1/2-z
1/2-x,1/2+y,z
x,1/2-y,1/2+z
loop_
_atom_site_type_symbol
_atom_site_label
_atom_site_fract_x
_atom_site_fract_y
_atom_site_fract_z
Si Si1 0.249980 0.860767 0.943514
Si Si2 0.892848 0.701691 0.822962
Si Si3 0.904542 0.261177 0.452695
Si Si4 0.560194 0.477461 0.309750
Si Si5 0.551134 0.408996 0.801750
Si Si6 0.271504 0.050899 0.967289
O O1 0.398462 0.870188 0.833931
O O2 0.305607 0.852992 0.118908
O O3 0.154498 0.805072 0.926007
O O4 0.112498 0.901451 0.892768
O O5 0.755883 0.746078 0.856163
O O6 0.967684 0.711009 0.660100
O O7 0.024737 0.713272 0.950809
O O8 0.641279 0.458794 0.158703
O O9 0.313293 0.502236 0.566316
O O10 0.462973 0.531682 0.269279
O O11 0.698739 0.407286 0.916576
O O12 0.435572 0.437021 0.383652
#
# Coordination Sequence:
#
# PCOD9460621 Si02
#       6
#     8   8   8   8   8   8
#     4  10  27  41  71 100 147 182 236 292 370 422
#     4  10  23  44  72 106 136 185 240 290 353 437
#     4  10  23  44  72 104 139 182 242 289 352 442
#     4  11  23  42  74 105 135 194 246 295 343 448
#     4  12  22  49  67 105 145 192 230 308 373 411
#     4  11  23  42  72 100 143 183 251 283 359 430
#
# _framework density 25.838104000000001
#
# number of rings (size 3 to 8) (size 9 to 14) (size 15 to 20)
#    1.000    0.333    3.333    1.500    2.333    0.000 
#    6.000    0.000    0.000    0.000    0.000    0.000 
#    0.000    0.000    0.000    0.000    0.000    0.000 
#
# Total GULP energy -268098.832904 kJ/mol
# GULP energy per Si atom -5585.392352 kJ/mol
# Density = 2.577930 g / cm^3
# Si number density = 25.838104 Si / 1000 Ang^3
#
#
#
# Elastic Constant Matrix: (Units=GPa)
#
#
# Indices 1 2 3 4 5 6 
#
# 1 79.8448 22.3470 38.9242 0.0000 0.0000 0.0000
# 2 22.3470 34.6360 35.1615 0.0000 0.0000 0.0000
# 3 38.9242 35.1615 130.7628 0.0000 0.0000 0.0000
# 4 0.0000 0.0000 0.0000 37.2206 0.0000 0.0000
# 5 0.0000 0.0000 0.0000 0.0000 74.8802 0.0000
# 6 0.0000 0.0000 0.0000 0.0000 0.0000 34.5525
#
#
#
# Elastic Compliance Matrix: (Units=1/GPa)
#
#
# Indices 1 2 3 4 5 6 
#
# 1 0.015961 -0.007530 -0.002726 0.000000 0.000000 0.000000
# 2 -0.007530 0.043265 -0.009392 0.000000 0.000000 0.000000
# 3 -0.002726 -0.009392 0.010984 0.000000 0.000000 0.000000
# 4 0.000000 0.000000 0.000000 0.026867 0.000000 0.000000
# 5 0.000000 0.000000 0.000000 0.000000 0.013355 0.000000
# 6 0.000000 0.000000 0.000000 0.000000 0.000000 0.028941
#
#
# Mechanical properties :
#
#
# Convention : Reuss Voigt Hill
#
# Bulk Modulus (GPa) = 32.34907 48.67878 40.51392
# Shear Modulus (GPa) = 26.45856 39.25139 32.85497
#
# Velocity S-wave (km/s) = 3.20349 3.90183 3.56978
# Velocity P-wave (km/s) = 5.12155 6.25938 5.71883
#
# Compressibility (1/GPa) = 0.03091279
#
# Stress axis : x y z
#
# Youngs Moduli (GPa) = 62.65298 23.11348 91.03779
#
# Poissons Ratio (x) = 0.17405 0.24819
# Poissons Ratio (y) = 0.47180 0.85504
# Poissons Ratio (z) = 0.17081 0.21708
#
# Static dielectric constant tensor:
#      x y z
#    x 2.066780 0.000000 0.000000 
#    y 0.000000 2.084990 0.000000 
#    z 0.000000 0.000000 2.009010 
# 
# From -- ./inp_files/1885.got.cif
#   From: 2010.05.17/outbox.cif.g08.bks.cpg/sg61_1_cif.got.tgz:1885.got - 2010.06.03 15:17:17.
