data_PCOD9460514
_publ_section_title
;
Structure prediction by ZEFSAII (Michael W. Deem and Ramdas Pophale) SiO2 
 PCOD9460514
Probable space group: P B C A
;
_chemical_formula_sum "Si O2"
_cell_formula_units_Z 56
_cell_length_a 23.201086
_cell_length_b 5.323819
_cell_length_c 21.760767
_cell_angle_alpha 90.000000
_cell_angle_beta 90.000000
_cell_angle_gamma 90.000000
_cell_volume 2687.854741
_symmetry_space_group_name_H-M "P B C A"
_symmetry_group_IT_number 61
_symmetry_cell_setting 'orthorhombic'
loop_
_space_group_symop_operation_xyz
x,y,z
1/2-x,-y,1/2+z
1/2+x,1/2-y,-z
-x,1/2+y,1/2-z
-x,-y,-z
1/2+x,y,1/2-z
1/2-x,1/2+y,z
x,1/2-y,1/2+z
loop_
_atom_site_type_symbol
_atom_site_label
_atom_site_fract_x
_atom_site_fract_y
_atom_site_fract_z
Si Si1 0.896634 0.007630 0.361314
Si Si2 0.894364 0.545940 0.142917
Si Si3 0.424210 0.984046 0.568658
Si Si4 0.784092 0.015671 0.278758
Si Si5 0.436623 0.045327 0.424565
Si Si6 0.994021 0.096865 0.720748
Si Si7 0.738191 0.481819 0.642133
O O1 0.893476 0.767264 0.406274
O O2 0.899341 0.271210 0.397025
O O3 0.846959 0.006918 0.309238
O O4 0.958615 0.972903 0.329343
O O5 0.913755 0.312118 0.100330
O O6 0.931907 0.509290 0.203393
O O7 0.828066 0.526575 0.160131
O O8 0.909748 0.811013 0.112265
O O9 0.419253 0.014385 0.495590
O O10 0.493626 0.965715 0.579935
O O11 0.751484 0.269398 0.298186
O O12 0.778341 0.016767 0.203586
O O13 0.010175 0.897702 0.774191
O O14 0.748695 0.732900 0.605562
#
# Coordination Sequence:
#
# PCOD9460514 Si02
#       7
#     8   8   8   8   8   8   8
#     4  12  23  42  64  93 135 166 213 261 321 380
#     4  12  23  42  64  93 135 166 213 261 321 380
#     4  11  22  41  67  99 130 165 209 261 328 391
#     4  10  23  40  61  86 120 171 220 253 300 370
#     4  11  22  41  67  99 130 165 209 261 328 391
#     4  12  26  36  59  94 135 172 196 262 328 388
#     4  10  23  40  61  86 120 171 220 253 300 370
#
# _framework density 20.834458999999999
#
# number of rings (size 3 to 8) (size 9 to 14) (size 15 to 20)
#    0.000    0.857    2.857    4.286    8.000    2.286 
#    0.000    0.000    0.000   17.143    0.000    0.000 
#    0.000    0.000    0.000    0.000    0.000    0.000 
#
# Total GULP energy -312742.033390 kJ/mol
# GULP energy per Si atom -5584.679168 kJ/mol
# Density = 2.078704 g / cm^3
# Si number density = 20.834459 Si / 1000 Ang^3
#
#
#
# Elastic Constant Matrix: (Units=GPa)
#
#
# Indices 1 2 3 4 5 6 
#
# 1 46.5290 23.9420 -11.8596 0.0000 0.0000 0.0000
# 2 23.9420 152.8427 13.5487 0.0000 0.0000 0.0000
# 3 -11.8596 13.5487 40.4769 0.0000 0.0000 0.0000
# 4 0.0000 0.0000 0.0000 29.5995 0.0000 0.0000
# 5 0.0000 0.0000 0.0000 0.0000 15.1996 0.0000
# 6 0.0000 0.0000 0.0000 0.0000 0.0000 28.4260
#
#
#
# Elastic Compliance Matrix: (Units=1/GPa)
#
#
# Indices 1 2 3 4 5 6 
#
# 1 0.026454 -0.004979 0.009417 0.000000 0.000000 0.000000
# 2 -0.004979 0.007680 -0.004029 0.000000 0.000000 0.000000
# 3 0.009417 -0.004029 0.028813 0.000000 0.000000 0.000000
# 4 0.000000 0.000000 0.000000 0.033784 0.000000 0.000000
# 5 0.000000 0.000000 0.000000 0.000000 0.065791 0.000000
# 6 0.000000 0.000000 0.000000 0.000000 0.000000 0.035179
#
#
# Mechanical properties :
#
#
# Convention : Reuss Voigt Hill
#
# Bulk Modulus (GPa) = 15.68227 32.34565 24.01396
# Shear Modulus (GPa) = 22.92121 28.92619 25.92370
#
# Velocity S-wave (km/s) = 3.32046 3.73014 3.53125
# Velocity P-wave (km/s) = 4.71636 5.84044 5.30824
#
# Compressibility (1/GPa) = 0.06376628
#
# Stress axis : x y z
#
# Youngs Moduli (GPa) = 37.80114 130.21265 34.70596
#
# Poissons Ratio (x) = 0.64829 -0.32684
# Poissons Ratio (y) = 0.18820 0.13984
# Poissons Ratio (z) = -0.35599 0.52467
#
# Static dielectric constant tensor:
#      x y z
#    x 1.726680 0.000000 0.000000 
#    y 0.000000 1.831200 0.000000 
#    z 0.000000 0.000000 1.768840 
# 
# From -- ./inp_files/11155.got.cif
#   From: 2010.05.17/outbox.cif.g08.bks.cpg/sg61_6_cif.got.tgz:11155.got - 2010.06.03 15:17:17.
