data_PCOD9460804
_publ_section_title
;
Structure prediction by ZEFSAII (Michael W. Deem and Ramdas Pophale) SiO2 
 PCOD9460804
Probable space group: P B C A
;
_chemical_formula_sum "Si O2"
_cell_formula_units_Z 64
_cell_length_a 9.086101
_cell_length_b 13.951028
_cell_length_c 21.451799
_cell_angle_alpha 90.000000
_cell_angle_beta 90.000000
_cell_angle_gamma 90.000000
_cell_volume 2719.239683
_symmetry_space_group_name_H-M "P B C A"
_symmetry_group_IT_number 61
_symmetry_cell_setting 'orthorhombic'
loop_
_space_group_symop_operation_xyz
x,y,z
1/2-x,-y,1/2+z
1/2+x,1/2-y,-z
-x,1/2+y,1/2-z
-x,-y,-z
1/2+x,y,1/2-z
1/2-x,1/2+y,z
x,1/2-y,1/2+z
loop_
_atom_site_type_symbol
_atom_site_label
_atom_site_fract_x
_atom_site_fract_y
_atom_site_fract_z
Si Si1 0.272064 0.262822 0.153977
Si Si2 0.898355 0.469389 0.769165
Si Si3 0.659518 0.784459 0.616330
Si Si4 0.517924 0.106926 0.878009
Si Si5 0.133659 0.407031 0.588554
Si Si6 0.754900 0.381421 0.046760
Si Si7 0.844851 0.660132 0.231603
Si Si8 0.492583 0.583878 0.851429
O O1 0.255698 0.159709 0.121672
O O2 0.199600 0.246085 0.222166
O O3 0.428328 0.314110 0.156903
O O4 0.166577 0.332806 0.113445
O O5 0.946147 0.521417 0.832013
O O6 0.985752 0.368581 0.764366
O O7 0.939400 0.540100 0.713265
O O8 0.732140 0.436747 0.758311
O O9 0.588981 0.690405 0.650052
O O10 0.524579 0.854168 0.599703
O O11 0.725674 0.734253 0.554540
O O12 0.778787 0.827098 0.662879
O O13 0.418396 0.078614 0.937466
O O14 0.182827 0.411845 0.517372
O O15 0.108390 0.510074 0.618212
O O16 0.643936 0.410366 0.101685
#
# Coordination Sequence:
#
# PCOD9460804 Si02
#       8
#     8   8   8   8   8   8   8   8
#     4  11  25  41  69 100 142 182 227 297 359 417
#     4  12  23  39  67 100 145 175 235 287 351 429
#     4   9  22  41  68  95 137 178 229 292 344 409
#     4   9  22  42  61  98 135 177 223 287 351 409
#     4  11  23  50  67 101 144 181 243 288 352 424
#     4  10  25  43  72  95 132 190 238 287 348 418
#     4  12  23  40  65 103 139 184 224 292 357 416
#     4  12  24  42  70 104 130 196 233 290 356 420
#
# _framework density 23.535990999999999
#
# number of rings (size 3 to 8) (size 9 to 14) (size 15 to 20)
#    0.750    0.500    2.500    3.375    5.250    0.000 
#    0.000    0.625    0.000    0.000    0.000    0.000 
#    0.000    0.000    0.000    0.000    0.000    0.000 
#
# Total GULP energy -357620.238575 kJ/mol
# GULP energy per Si atom -5587.816228 kJ/mol
# Density = 2.348242 g / cm^3
# Si number density = 23.535991 Si / 1000 Ang^3
#
#
#
# Elastic Constant Matrix: (Units=GPa)
#
#
# Indices 1 2 3 4 5 6 
#
# 1 60.2412 23.5747 24.3071 0.0000 0.0000 0.0000
# 2 23.5747 89.2388 11.4880 0.0000 0.0000 0.0000
# 3 24.3071 11.4880 76.8261 0.0000 0.0000 0.0000
# 4 0.0000 0.0000 0.0000 22.5536 0.0000 0.0000
# 5 0.0000 0.0000 0.0000 0.0000 30.5711 0.0000
# 6 0.0000 0.0000 0.0000 0.0000 0.0000 39.8048
#
#
#
# Elastic Compliance Matrix: (Units=1/GPa)
#
#
# Indices 1 2 3 4 5 6 
#
# 1 0.020830 -0.004746 -0.005881 0.000000 0.000000 0.000000
# 2 -0.004746 0.012507 -0.000369 0.000000 0.000000 0.000000
# 3 -0.005881 -0.000369 0.014932 0.000000 0.000000 0.000000
# 4 0.000000 0.000000 0.000000 0.044339 0.000000 0.000000
# 5 0.000000 0.000000 0.000000 0.000000 0.032711 0.000000
# 6 0.000000 0.000000 0.000000 0.000000 0.000000 0.025123
#
#
# Mechanical properties :
#
#
# Convention : Reuss Voigt Hill
#
# Bulk Modulus (GPa) = 38.05347 38.33838 38.19592
# Shear Modulus (GPa) = 27.59516 29.71500 28.65508
#
# Velocity S-wave (km/s) = 3.42784 3.55707 3.49306
# Velocity P-wave (km/s) = 5.64536 5.76151 5.70373
#
# Compressibility (1/GPa) = 0.02627882
#
# Stress axis : x y z
#
# Youngs Moduli (GPa) = 48.00772 79.95488 66.96955
#
# Poissons Ratio (x) = 0.37944 0.39383
# Poissons Ratio (y) = 0.22783 0.02469
# Poissons Ratio (z) = 0.28232 0.02948
#
# Static dielectric constant tensor:
#      x y z
#    x 1.907590 0.000000 0.000000 
#    y 0.000000 1.907870 0.000000 
#    z 0.000000 0.000000 1.893480 
# 
# From -- ./inp_files/10929.got.cif
#   From: 2010.05.17/outbox.cif.g08.bks.cpg/sg61_6_cif.got.tgz:10929.got - 2010.06.03 15:17:17.
