data_PCOD9460341
_publ_section_title
;
Structure prediction by ZEFSAII (Michael W. Deem and Ramdas Pophale) SiO2 
 PCOD9460341
Probable space group: P B C A
;
_chemical_formula_sum "Si O2"
_cell_formula_units_Z 56
_cell_length_a 7.676886
_cell_length_b 21.088174
_cell_length_c 14.312271
_cell_angle_alpha 90.000000
_cell_angle_beta 90.000000
_cell_angle_gamma 90.000000
_cell_volume 2317.035131
_symmetry_space_group_name_H-M "P B C A"
_symmetry_group_IT_number 61
_symmetry_cell_setting 'orthorhombic'
loop_
_space_group_symop_operation_xyz
x,y,z
1/2-x,-y,1/2+z
1/2+x,1/2-y,-z
-x,1/2+y,1/2-z
-x,-y,-z
1/2+x,y,1/2-z
1/2-x,1/2+y,z
x,1/2-y,1/2+z
loop_
_atom_site_type_symbol
_atom_site_label
_atom_site_fract_x
_atom_site_fract_y
_atom_site_fract_z
Si Si1 0.586979 0.779418 0.452316
Si Si2 0.439812 0.649241 0.488108
Si Si3 0.388647 0.579466 0.664398
Si Si4 0.718900 0.910308 0.673216
Si Si5 0.174254 0.298610 0.288235
Si Si6 0.517811 0.714704 0.154287
Si Si7 0.415300 0.505560 0.184553
O O1 0.571769 0.702961 0.452956
O O2 0.773362 0.811441 0.469579
O O3 0.485092 0.801668 0.360883
O O4 0.485269 0.800055 0.546453
O O5 0.491729 0.605328 0.574709
O O6 0.363918 0.609181 0.402137
O O7 0.321452 0.636686 0.730749
O O8 0.220036 0.539383 0.631343
O O9 0.506492 0.535736 0.730013
O O10 0.608837 0.847278 0.694536
O O11 0.803983 0.939284 0.765581
O O12 0.580342 0.962272 0.635357
O O13 0.343263 0.273307 0.342196
O O14 0.136749 0.242058 0.214955
#
# Coordination Sequence:
#
# PCOD9460341 Si02
#       7
#     8   8   8   8   8   8   8
#     4  11  22  40  57 100 132 164 203 267 328 406
#     4  11  23  41  62  92 134 161 217 263 328 392
#     4  11  23  41  65  93 124 173 212 264 319 391
#     4  10  22  42  61  90 125 168 212 271 309 380
#     4  12  22  39  67  95 132 168 204 270 333 385
#     4  11  23  38  64  96 128 164 209 261 333 382
#     4  10  23  43  64  87 125 170 227 254 314 380
#
# _framework density 24.168817000000001
#
# number of rings (size 3 to 8) (size 9 to 14) (size 15 to 20)
#    0.000    1.143    4.286    3.429    0.000    1.143 
#    0.000    1.429    0.000    0.000    0.000    0.000 
#    0.000    0.000    0.000    0.000    0.000    0.000 
#
# Total GULP energy -313361.126813 kJ/mol
# GULP energy per Si atom -5595.734407 kJ/mol
# Density = 2.411381 g / cm^3
# Si number density = 24.168817 Si / 1000 Ang^3
#
#
#
# Elastic Constant Matrix: (Units=GPa)
#
#
# Indices 1 2 3 4 5 6 
#
# 1 39.8437 7.7461 -8.5304 0.0000 0.0000 0.0000
# 2 7.7461 102.7681 20.9445 0.0000 0.0000 0.0000
# 3 -8.5304 20.9445 69.3030 0.0000 0.0000 0.0000
# 4 0.0000 0.0000 0.0000 18.9290 0.0000 0.0000
# 5 0.0000 0.0000 0.0000 0.0000 24.4648 0.0000
# 6 0.0000 0.0000 0.0000 0.0000 0.0000 58.7882
#
#
#
# Elastic Compliance Matrix: (Units=1/GPa)
#
#
# Indices 1 2 3 4 5 6 
#
# 1 0.026533 -0.002841 0.004124 0.000000 0.000000 0.000000
# 2 -0.002841 0.010673 -0.003575 0.000000 0.000000 0.000000
# 3 0.004124 -0.003575 0.016018 0.000000 0.000000 0.000000
# 4 0.000000 0.000000 0.000000 0.052829 0.000000 0.000000
# 5 0.000000 0.000000 0.000000 0.000000 0.040875 0.000000
# 6 0.000000 0.000000 0.000000 0.000000 0.000000 0.017010
#
#
# Mechanical properties :
#
#
# Convention : Reuss Voigt Hill
#
# Bulk Modulus (GPa) = 20.55860 28.02615 24.29237
# Shear Modulus (GPa) = 27.06575 33.22003 30.14289
#
# Velocity S-wave (km/s) = 3.35007 3.71145 3.53538
# Velocity P-wave (km/s) = 4.84651 5.47610 5.17089
#
# Compressibility (1/GPa) = 0.04864145
#
# Stress axis : x y z
#
# Youngs Moduli (GPa) = 37.68843 93.69075 62.43142
#
# Poissons Ratio (x) = 0.26613 -0.25749
# Poissons Ratio (y) = 0.10705 0.22321
# Poissons Ratio (z) = -0.15544 0.33497
#
# Static dielectric constant tensor:
#      x y z
#    x 1.992970 0.000000 0.000000 
#    y 0.000000 1.940330 0.000000 
#    z 0.000000 0.000000 1.923760 
# 
# From -- ./inp_files/3990.got.cif
#   From: 2010.05.17/outbox.cif.g08.bks.cpg/sg61_2_cif.got.tgz:3990.got - 2010.06.03 15:17:17.
