data_PCOD9460481
_publ_section_title
;
Structure prediction by ZEFSAII (Michael W. Deem and Ramdas Pophale) SiO2 
 PCOD9460481
Probable space group: P B C A
;
_chemical_formula_sum "Si O2"
_cell_formula_units_Z 64
_cell_length_a 18.768618
_cell_length_b 9.176060
_cell_length_c 12.854869
_cell_angle_alpha 90.000000
_cell_angle_beta 90.000000
_cell_angle_gamma 90.000000
_cell_volume 2213.890798
_symmetry_space_group_name_H-M "P B C A"
_symmetry_group_IT_number 61
_symmetry_cell_setting 'orthorhombic'
loop_
_space_group_symop_operation_xyz
x,y,z
1/2-x,-y,1/2+z
1/2+x,1/2-y,-z
-x,1/2+y,1/2-z
-x,-y,-z
1/2+x,y,1/2-z
1/2-x,1/2+y,z
x,1/2-y,1/2+z
loop_
_atom_site_type_symbol
_atom_site_label
_atom_site_fract_x
_atom_site_fract_y
_atom_site_fract_z
Si Si1 0.863428 0.220347 0.035731
Si Si2 0.013201 0.396188 0.129820
Si Si3 0.252034 0.139106 0.027657
Si Si4 0.266360 0.863992 0.159538
Si Si5 0.856265 0.437289 0.190065
Si Si6 0.130829 0.078148 0.862775
Si Si7 0.628132 0.182737 0.286865
Si Si8 0.501737 0.289480 0.588297
O O1 0.819877 0.369902 0.068244
O O2 0.929239 0.229614 0.960149
O O3 0.791254 0.196432 0.956064
O O4 0.871036 0.095015 0.119938
O O5 0.056375 0.268652 0.183950
O O6 0.929480 0.363341 0.144259
O O7 0.020178 0.567969 0.156988
O O8 0.037766 0.373555 0.010381
O O9 0.282966 0.013155 0.101672
O O10 0.194972 0.207022 0.128869
O O11 0.187194 0.116035 0.950989
O O12 0.204544 0.854728 0.243325
O O13 0.336424 0.870044 0.251521
O O14 0.842281 0.614357 0.174091
O O15 0.894449 0.511736 0.302310
O O16 0.056409 0.161909 0.881565
#
# Coordination Sequence:
#
# PCOD9460481 Si02
#       8
#     8   8   8   8   8   8   8   8
#     4  11  26  46  70 106 143 188 242 300 363 431
#     4  10  23  46  74 106 141 192 235 297 360 434
#     4  12  26  45  72 105 141 188 245 296 362 436
#     4  12  26  46  72 104 140 189 240 304 363 436
#     4  11  26  47  69 107 147 186 238 300 364 434
#     4  12  26  45  72 108 143 191 237 306 362 430
#     4  12  26  45  73 105 147 189 239 297 369 430
#     4  10  22  46  77 103 142 186 244 294 357 431
#
# _framework density 28.908380999999999
#
# number of rings (size 3 to 8) (size 9 to 14) (size 15 to 20)
#    0.000    0.750    3.750    2.625    3.500    5.000 
#    0.000    0.000    0.000    0.000    0.000    0.000 
#    0.000    0.000    0.000    0.000    0.000    0.000 
#
# Total GULP energy -356669.080608 kJ/mol
# GULP energy per Si atom -5572.954384 kJ/mol
# Density = 2.884258 g / cm^3
# Si number density = 28.908381 Si / 1000 Ang^3
#
#
#
# Elastic Constant Matrix: (Units=GPa)
#
#
# Indices 1 2 3 4 5 6 
#
# 1 121.8297 46.1432 44.5609 0.0000 0.0000 0.0000
# 2 46.1432 191.8946 89.8622 0.0000 0.0000 0.0000
# 3 44.5609 89.8622 147.9873 0.0000 0.0000 0.0000
# 4 0.0000 0.0000 0.0000 77.0909 0.0000 0.0000
# 5 0.0000 0.0000 0.0000 0.0000 41.2726 0.0000
# 6 0.0000 0.0000 0.0000 0.0000 0.0000 58.9216
#
#
#
# Elastic Compliance Matrix: (Units=1/GPa)
#
#
# Indices 1 2 3 4 5 6 
#
# 1 0.009455 -0.001314 -0.002049 0.000000 0.000000 0.000000
# 2 -0.001314 0.007464 -0.004137 0.000000 0.000000 0.000000
# 3 -0.002049 -0.004137 0.009886 0.000000 0.000000 0.000000
# 4 0.000000 0.000000 0.000000 0.012972 0.000000 0.000000
# 5 0.000000 0.000000 0.000000 0.000000 0.024229 0.000000
# 6 0.000000 0.000000 0.000000 0.000000 0.000000 0.016972
#
#
# Mechanical properties :
#
#
# Convention : Reuss Voigt Hill
#
# Bulk Modulus (GPa) = 84.70346 91.42712 88.06529
# Shear Modulus (GPa) = 50.04272 54.20006 52.12139
#
# Velocity S-wave (km/s) = 4.16514 4.33470 4.25076
# Velocity P-wave (km/s) = 7.24537 7.53313 7.39065
#
# Compressibility (1/GPa) = 0.01180589
#
# Stress axis : x y z
#
# Youngs Moduli (GPa) = 105.75968 133.96805 101.14824
#
# Poissons Ratio (x) = 0.17604 0.20728
# Poissons Ratio (y) = 0.13897 0.41845
# Poissons Ratio (z) = 0.21673 0.55422
#
# Static dielectric constant tensor:
#      x y z
#    x 2.551960 0.000000 0.000000 
#    y 0.000000 2.492960 0.000000 
#    z 0.000000 0.000000 3.004410 
# 
# From -- ./inp_files/9722.got.cif
#   From: 2010.05.17/outbox.cif.g08.bks.cpg/sg61_5_cif.got.tgz:9722.got - 2010.06.03 15:17:17.
