data_PCOD9460902
_publ_section_title
;
Structure prediction by ZEFSAII (Michael W. Deem and Ramdas Pophale) SiO2 
 PCOD9460902
Probable space group: P B C A
;
_chemical_formula_sum "Si O2"
_cell_formula_units_Z 40
_cell_length_a 11.200211
_cell_length_b 9.570155
_cell_length_c 14.911649
_cell_angle_alpha 90.000000
_cell_angle_beta 90.000000
_cell_angle_gamma 90.000000
_cell_volume 1598.346184
_symmetry_space_group_name_H-M "P B C A"
_symmetry_group_IT_number 61
_symmetry_cell_setting 'orthorhombic'
loop_
_space_group_symop_operation_xyz
x,y,z
1/2-x,-y,1/2+z
1/2+x,1/2-y,-z
-x,1/2+y,1/2-z
-x,-y,-z
1/2+x,y,1/2-z
1/2-x,1/2+y,z
x,1/2-y,1/2+z
loop_
_atom_site_type_symbol
_atom_site_label
_atom_site_fract_x
_atom_site_fract_y
_atom_site_fract_z
Si Si1 0.163919 0.616153 0.880477
Si Si2 0.456548 0.225614 0.051362
Si Si3 0.290298 0.733930 0.630155
Si Si4 0.831845 0.502675 0.472300
Si Si5 0.831931 0.665523 0.183386
O O1 0.205831 0.767705 0.847859
O O2 0.148406 0.501123 0.802248
O O3 0.067800 0.639969 0.959582
O O4 0.273728 0.543340 0.933552
O O5 0.434434 0.387975 0.029559
O O6 0.346046 0.205235 0.122391
O O7 0.576005 0.194054 0.103537
O O8 0.358463 0.850125 0.573138
O O9 0.271523 0.585124 0.583211
O O10 0.349853 0.744242 0.726821
#
# Coordination Sequence:
#
# PCOD9460902 Si02
#       5
#     8   8   8   8   8
#     4  11  21  40  63  90 124 152 204 253 297 360
#     4   9  22  41  60  86 121 165 193 240 316 357
#     4   9  20  39  57  88 119 155 200 244 294 357
#     4   9  18  42  59  80 125 158 187 245 303 352
#     4  12  22  40  64  91 120 156 207 253 296 358
#
# _framework density 25.025867000000002
#
# number of rings (size 3 to 8) (size 9 to 14) (size 15 to 20)
#    1.200    0.800    2.000    1.800    0.000    0.800 
#   10.800    4.000    0.000    0.000    0.000    0.000 
#    0.000    0.000    0.000    0.000    0.000    0.000 
#
# Total GULP energy -222931.053647 kJ/mol
# GULP energy per Si atom -5573.276341 kJ/mol
# Density = 2.496891 g / cm^3
# Si number density = 25.025867 Si / 1000 Ang^3
#
#
#
# Elastic Constant Matrix: (Units=GPa)
#
#
# Indices 1 2 3 4 5 6 
#
# 1 56.8087 9.1464 -5.9048 0.0000 0.0000 0.0000
# 2 9.1464 149.3531 6.9366 0.0000 0.0000 0.0000
# 3 -5.9048 6.9366 52.6506 0.0000 0.0000 0.0000
# 4 0.0000 0.0000 0.0000 29.0588 0.0000 0.0000
# 5 0.0000 0.0000 0.0000 0.0000 19.6154 0.0000
# 6 0.0000 0.0000 0.0000 0.0000 0.0000 33.5393
#
#
#
# Elastic Compliance Matrix: (Units=1/GPa)
#
#
# Indices 1 2 3 4 5 6 
#
# 1 0.018024 -0.001205 0.002180 0.000000 0.000000 0.000000
# 2 -0.001205 0.006817 -0.001033 0.000000 0.000000 0.000000
# 3 0.002180 -0.001033 0.019374 0.000000 0.000000 0.000000
# 4 0.000000 0.000000 0.000000 0.034413 0.000000 0.000000
# 5 0.000000 0.000000 0.000000 0.000000 0.050980 0.000000
# 6 0.000000 0.000000 0.000000 0.000000 0.000000 0.029816
#
#
# Mechanical properties :
#
#
# Convention : Reuss Voigt Hill
#
# Bulk Modulus (GPa) = 22.67665 31.01877 26.84771
# Shear Modulus (GPa) = 28.69613 33.01832 30.85722
#
# Velocity S-wave (km/s) = 3.38991 3.63625 3.51524
# Velocity P-wave (km/s) = 4.93993 5.48191 5.21796
#
# Compressibility (1/GPa) = 0.04409822
#
# Stress axis : x y z
#
# Youngs Moduli (GPa) = 55.48293 146.68498 51.61619
#
# Poissons Ratio (x) = 0.17676 -0.11253
# Poissons Ratio (y) = 0.06686 0.05334
# Poissons Ratio (z) = -0.12096 0.15157
#
# Static dielectric constant tensor:
#      x y z
#    x 2.107860 0.000000 0.000000 
#    y 0.000000 1.990710 0.000000 
#    z 0.000000 0.000000 2.032670 
# 
# From -- ./inp_files/7379.got.cif
#   From: 2010.05.17/outbox.cif.g08.bks.cpg/sg61_4_cif.got.tgz:7379.got - 2010.06.03 15:17:17.
