data_PCOD9460883
_publ_section_title
;
Structure prediction by ZEFSAII (Michael W. Deem and Ramdas Pophale) SiO2 
 PCOD9460883
Probable space group: P B C A
;
_chemical_formula_sum "Si O2"
_cell_formula_units_Z 48
_cell_length_a 13.376401
_cell_length_b 8.671900
_cell_length_c 15.988924
_cell_angle_alpha 90.000000
_cell_angle_beta 90.000000
_cell_angle_gamma 90.000000
_cell_volume 1854.696186
_symmetry_space_group_name_H-M "P B C A"
_symmetry_group_IT_number 61
_symmetry_cell_setting 'orthorhombic'
loop_
_space_group_symop_operation_xyz
x,y,z
1/2-x,-y,1/2+z
1/2+x,1/2-y,-z
-x,1/2+y,1/2-z
-x,-y,-z
1/2+x,y,1/2-z
1/2-x,1/2+y,z
x,1/2-y,1/2+z
loop_
_atom_site_type_symbol
_atom_site_label
_atom_site_fract_x
_atom_site_fract_y
_atom_site_fract_z
Si Si1 0.258196 0.198076 0.366417
Si Si2 0.536204 0.368408 0.815091
Si Si3 0.727318 0.553114 0.750587
Si Si4 0.344550 0.631101 0.596215
Si Si5 0.854177 0.298868 0.970111
Si Si6 0.037265 0.311785 0.358606
O O1 0.243277 0.022958 0.339743
O O2 0.291297 0.272319 0.277711
O O3 0.336764 0.238714 0.436640
O O4 0.146340 0.256468 0.388529
O O5 0.637382 0.465854 0.794769
O O6 0.563949 0.245654 0.886987
O O7 0.463750 0.505111 0.842316
O O8 0.515759 0.277276 0.729022
O O9 0.819676 0.557565 0.813113
O O10 0.246337 0.730730 0.573806
O O11 0.357835 0.484756 0.536390
O O12 0.950770 0.232015 0.923615
#
# Coordination Sequence:
#
# PCOD9460883 Si02
#       6
#     8   8   8   8   8   8
#     4  11  26  43  69 104 150 191 236 301 375 435
#     4  11  23  40  74 111 136 185 248 311 357 432
#     4  11  20  43  68  99 135 189 240 288 360 434
#     4  12  21  43  73 100 140 194 245 293 368 430
#     4  12  24  44  70 105 149 195 238 299 371 445
#     4  11  24  43  71 110 146 184 249 303 369 432
#
# _framework density 25.88025
#
# number of rings (size 3 to 8) (size 9 to 14) (size 15 to 20)
#    0.000    0.667    6.667    2.000    0.000    0.000 
#    0.000   16.667    0.000    0.000    0.000    0.000 
#    0.000    0.000    0.000    0.000    0.000    0.000 
#
# Total GULP energy -269055.604090 kJ/mol
# GULP energy per Si atom -5605.325085 kJ/mol
# Density = 2.582135 g / cm^3
# Si number density = 25.880250 Si / 1000 Ang^3
#
#
#
# Elastic Constant Matrix: (Units=GPa)
#
#
# Indices 1 2 3 4 5 6 
#
# 1 146.7754 33.5658 22.6742 0.0000 0.0000 0.0000
# 2 33.5658 124.5217 18.5032 0.0000 0.0000 0.0000
# 3 22.6742 18.5032 45.7100 0.0000 0.0000 0.0000
# 4 0.0000 0.0000 0.0000 40.1728 0.0000 0.0000
# 5 0.0000 0.0000 0.0000 0.0000 46.0707 0.0000
# 6 0.0000 0.0000 0.0000 0.0000 0.0000 45.6558
#
#
#
# Elastic Compliance Matrix: (Units=1/GPa)
#
#
# Indices 1 2 3 4 5 6 
#
# 1 0.007666 -0.001597 -0.003156 0.000000 0.000000 0.000000
# 2 -0.001597 0.008878 -0.002801 0.000000 0.000000 0.000000
# 3 -0.003156 -0.002801 0.024577 0.000000 0.000000 0.000000
# 4 0.000000 0.000000 0.000000 0.024892 0.000000 0.000000
# 5 0.000000 0.000000 0.000000 0.000000 0.021706 0.000000
# 6 0.000000 0.000000 0.000000 0.000000 0.000000 0.021903
#
#
# Mechanical properties :
#
#
# Convention : Reuss Voigt Hill
#
# Bulk Modulus (GPa) = 38.44569 51.83260 45.13914
# Shear Modulus (GPa) = 37.48099 42.53079 40.00589
#
# Velocity S-wave (km/s) = 3.80971 4.05825 3.93594
# Velocity P-wave (km/s) = 5.85144 6.48309 6.17535
#
# Compressibility (1/GPa) = 0.02601072
#
# Stress axis : x y z
#
# Youngs Moduli (GPa) = 130.44615 112.64331 40.68926
#
# Poissons Ratio (x) = 0.17994 0.12842
# Poissons Ratio (y) = 0.20838 0.11398
# Poissons Ratio (z) = 0.41169 0.31554
#
# Static dielectric constant tensor:
#      x y z
#    x 2.015930 0.000000 0.000000 
#    y 0.000000 1.985820 0.000000 
#    z 0.000000 0.000000 2.041710 
# 
# From -- ./inp_files/9432.got.cif
#   From: 2010.05.17/outbox.cif.g08.bks.cpg/sg61_5_cif.got.tgz:9432.got - 2010.06.03 15:17:17.
