data_PCOD9460130
_publ_section_title
;
Structure prediction by ZEFSAII (Michael W. Deem and Ramdas Pophale) SiO2 
 PCOD9460130
Probable space group: P B C A
;
_chemical_formula_sum "Si O2"
_cell_formula_units_Z 40
_cell_length_a 21.869519
_cell_length_b 8.442542
_cell_length_c 8.994916
_cell_angle_alpha 90.000000
_cell_angle_beta 90.000000
_cell_angle_gamma 90.000000
_cell_volume 1660.770313
_symmetry_space_group_name_H-M "P B C A"
_symmetry_group_IT_number 61
_symmetry_cell_setting 'orthorhombic'
loop_
_space_group_symop_operation_xyz
x,y,z
1/2-x,-y,1/2+z
1/2+x,1/2-y,-z
-x,1/2+y,1/2-z
-x,-y,-z
1/2+x,y,1/2-z
1/2-x,1/2+y,z
x,1/2-y,1/2+z
loop_
_atom_site_type_symbol
_atom_site_label
_atom_site_fract_x
_atom_site_fract_y
_atom_site_fract_z
Si Si1 0.034393 0.164312 0.596008
Si Si2 0.197120 0.827705 0.616889
Si Si3 0.110200 0.316676 0.359577
Si Si4 0.272205 0.884694 0.915641
Si Si5 0.428953 0.364322 0.757124
O O1 0.054277 0.231453 0.440110
O O2 0.095520 0.219665 0.687991
O O3 0.974012 0.245283 0.661143
O O4 0.036814 0.978814 0.636751
O O5 0.236291 0.890796 0.758836
O O6 0.227214 0.675054 0.544253
O O7 0.129186 0.792663 0.674628
O O8 0.197500 0.956766 0.482748
O O9 0.175335 0.248395 0.399504
O O10 0.099078 0.504727 0.371268
#
# Coordination Sequence:
#
# PCOD9460130 Si02
#       5
#     8   8   8   8   8
#     4  10  22  41  67  92 134 174 222 277 329 405
#     4  12  25  45  70 104 134 181 226 283 340 410
#     4  10  21  43  67  92 133 175 215 275 336 395
#     4  12  24  47  72 100 142 176 228 282 345 403
#     4  10  23  43  64 101 129 177 230 271 341 394
#
# _framework density 24.085208000000002
#
# number of rings (size 3 to 8) (size 9 to 14) (size 15 to 20)
#    1.200    0.000    2.000    5.400    0.000    2.400 
#   10.800    0.000    0.000    0.000    0.000    0.000 
#    0.000    0.000    0.000    0.000    0.000    0.000 
#
# Total GULP energy -223485.149495 kJ/mol
# GULP energy per Si atom -5587.128737 kJ/mol
# Density = 2.403039 g / cm^3
# Si number density = 24.085208 Si / 1000 Ang^3
#
#
#
# Elastic Constant Matrix: (Units=GPa)
#
#
# Indices 1 2 3 4 5 6 
#
# 1 112.5648 28.5465 0.0489 0.0000 0.0000 0.0000
# 2 28.5465 41.8792 -1.6814 0.0000 0.0000 0.0000
# 3 0.0489 -1.6814 63.7482 0.0000 0.0000 0.0000
# 4 0.0000 0.0000 0.0000 23.8609 0.0000 0.0000
# 5 0.0000 0.0000 0.0000 0.0000 25.9095 0.0000
# 6 0.0000 0.0000 0.0000 0.0000 0.0000 42.1295
#
#
#
# Elastic Compliance Matrix: (Units=1/GPa)
#
#
# Indices 1 2 3 4 5 6 
#
# 1 0.010743 -0.007331 -0.000202 0.000000 0.000000 0.000000
# 2 -0.007331 0.028906 0.000768 0.000000 0.000000 0.000000
# 3 -0.000202 0.000768 0.015707 0.000000 0.000000 0.000000
# 4 0.000000 0.000000 0.000000 0.041910 0.000000 0.000000
# 5 0.000000 0.000000 0.000000 0.000000 0.038596 0.000000
# 6 0.000000 0.000000 0.000000 0.000000 0.000000 0.023736
#
#
# Mechanical properties :
#
#
# Convention : Reuss Voigt Hill
#
# Bulk Modulus (GPa) = 23.90787 30.22446 27.06616
# Shear Modulus (GPa) = 26.72805 31.13186 28.92996
#
# Velocity S-wave (km/s) = 3.33487 3.59914 3.46952
# Velocity P-wave (km/s) = 4.97759 5.46332 5.22610
#
# Compressibility (1/GPa) = 0.04182724
#
# Stress axis : x y z
#
# Youngs Moduli (GPa) = 93.08399 34.59481 63.66537
#
# Poissons Ratio (x) = 0.25361 0.01284
# Poissons Ratio (y) = 0.68239 -0.04890
# Poissons Ratio (z) = 0.01877 -0.02657
#
# Static dielectric constant tensor:
#      x y z
#    x 1.920440 0.000000 0.000000 
#    y 0.000000 1.943380 0.000000 
#    z 0.000000 0.000000 1.946110 
# 
# From -- ./inp_files/1761.got.cif
#   From: 2010.05.17/outbox.cif.g08.bks.cpg/sg61_1_cif.got.tgz:1761.got - 2010.06.03 15:17:17.
