data_PCOD9460432
_publ_section_title
;
Structure prediction by ZEFSAII (Michael W. Deem and Ramdas Pophale) SiO2 
 PCOD9460432
Probable space group: P B C A
;
_chemical_formula_sum "Si O2"
_cell_formula_units_Z 52
_cell_length_a 21.061003
_cell_length_b 18.416968
_cell_length_c 5.182871
_cell_angle_alpha 90.000000
_cell_angle_beta 90.000000
_cell_angle_gamma 90.000000
_cell_volume 2010.331062
_symmetry_space_group_name_H-M "P B C A"
_symmetry_group_IT_number 61
_symmetry_cell_setting 'orthorhombic'
loop_
_space_group_symop_operation_xyz
x,y,z
1/2-x,-y,1/2+z
1/2+x,1/2-y,-z
-x,1/2+y,1/2-z
-x,-y,-z
1/2+x,y,1/2-z
1/2-x,1/2+y,z
x,1/2-y,1/2+z
loop_
_atom_site_type_symbol
_atom_site_label
_atom_site_fract_x
_atom_site_fract_y
_atom_site_fract_z
Si Si1 0.000000 0.000000 0.500000
Si Si2 0.113047 0.904428 0.481875
Si Si3 0.922739 0.879732 0.184014
Si Si4 0.205278 0.199552 0.674847
Si Si5 0.663764 0.466409 0.842923
Si Si6 0.713984 0.601305 0.134170
Si Si7 0.951466 0.295491 0.388159
O O1 0.041310 0.060501 0.650512
O O2 0.951431 0.066111 0.390435
O O3 0.162048 0.866339 0.673530
O O4 0.091378 0.860653 0.226485
O O5 0.146348 0.978506 0.383395
O O6 0.859991 0.846615 0.316782
O O7 0.974899 0.819211 0.124501
O O8 0.897473 0.922199 0.932011
O O9 0.206909 0.243972 0.938944
O O10 0.264896 0.146980 0.615473
O O11 0.719734 0.411750 0.778808
O O12 0.688668 0.521636 0.059958
O O13 0.940136 0.266804 0.674265
#
# Coordination Sequence:
#
# PCOD9460432 Si02
#       7
#     4   8   8   8   8   8   8
#     4  10  22  44  66 114 138 188 246 324 394 452
#     4  11  26  43  75 108 154 193 254 316 395 460
#     4  11  24  46  79 109 150 192 260 323 384 458
#     4  12  28  48  74 109 152 209 256 303 375 466
#     4  12  24  46  77 113 145 196 246 330 397 454
#     4  12  25  45  73 110 152 192 250 321 386 459
#     4  11  28  50  75 107 152 208 257 309 378 463
#
# _framework density 25.866385999999999
#
# number of rings (size 3 to 8) (size 9 to 14) (size 15 to 20)
#    0.000    0.615    3.077    3.692    4.308    7.385 
#    0.000    0.000    0.000    0.000    0.000    0.000 
#    0.000    0.000    0.000    0.000    0.000    0.000 
#
# Total GULP energy -290603.816012 kJ/mol
# GULP energy per Si atom -5588.534923 kJ/mol
# Density = 2.580751 g / cm^3
# Si number density = 25.866386 Si / 1000 Ang^3
#
#
#
# Elastic Constant Matrix: (Units=GPa)
#
#
# Indices 1 2 3 4 5 6 
#
# 1 87.5582 19.0202 22.6824 0.0000 0.0000 0.0000
# 2 19.0202 97.9548 26.9069 0.0000 0.0000 0.0000
# 3 22.6824 26.9069 79.7757 0.0000 0.0000 0.0000
# 4 0.0000 0.0000 0.0000 41.9942 0.0000 0.0000
# 5 0.0000 0.0000 0.0000 0.0000 16.5457 0.0000
# 6 0.0000 0.0000 0.0000 0.0000 0.0000 44.4568
#
#
#
# Elastic Compliance Matrix: (Units=1/GPa)
#
#
# Indices 1 2 3 4 5 6 
#
# 1 0.012554 -0.001606 -0.003028 0.000000 0.000000 0.000000
# 2 -0.001606 0.011457 -0.003407 0.000000 0.000000 0.000000
# 3 -0.003028 -0.003407 0.014545 0.000000 0.000000 0.000000
# 4 0.000000 0.000000 0.000000 0.023813 0.000000 0.000000
# 5 0.000000 0.000000 0.000000 0.000000 0.060438 0.000000
# 6 0.000000 0.000000 0.000000 0.000000 0.000000 0.022494
#
#
# Mechanical properties :
#
#
# Convention : Reuss Voigt Hill
#
# Bulk Modulus (GPa) = 44.49679 44.72311 44.60995
# Shear Modulus (GPa) = 29.60770 33.71130 31.65950
#
# Velocity S-wave (km/s) = 3.38692 3.61402 3.50231
# Velocity P-wave (km/s) = 5.70394 5.89427 5.79989
#
# Compressibility (1/GPa) = 0.02247353
#
# Stress axis : x y z
#
# Youngs Moduli (GPa) = 79.65451 87.28579 68.75062
#
# Poissons Ratio (x) = 0.14018 0.20817
# Poissons Ratio (y) = 0.12792 0.23427
# Poissons Ratio (z) = 0.24118 0.29742
#
# Static dielectric constant tensor:
#      x y z
#    x 2.034130 0.000000 0.000000 
#    y 0.000000 2.009810 0.000000 
#    z 0.000000 0.000000 2.056300 
# 
# From -- ./inp_files/989.got.cif
#   From: 2010.05.17/outbox.cif.g08.bks.cpg/sg61_1_cif.got.tgz:989.got - 2010.06.03 15:17:17.
