data_PCOD9460499
_publ_section_title
;
Structure prediction by ZEFSAII (Michael W. Deem and Ramdas Pophale) SiO2 
 PCOD9460499
Probable space group: P B C A
;
_chemical_formula_sum "Si O2"
_cell_formula_units_Z 64
_cell_length_a 19.300246
_cell_length_b 6.957178
_cell_length_c 17.908971
_cell_angle_alpha 90.000000
_cell_angle_beta 90.000000
_cell_angle_gamma 90.000000
_cell_volume 2404.731502
_symmetry_space_group_name_H-M "P B C A"
_symmetry_group_IT_number 61
_symmetry_cell_setting 'orthorhombic'
loop_
_space_group_symop_operation_xyz
x,y,z
1/2-x,-y,1/2+z
1/2+x,1/2-y,-z
-x,1/2+y,1/2-z
-x,-y,-z
1/2+x,y,1/2-z
1/2-x,1/2+y,z
x,1/2-y,1/2+z
loop_
_atom_site_type_symbol
_atom_site_label
_atom_site_fract_x
_atom_site_fract_y
_atom_site_fract_z
Si Si1 0.952449 0.840130 0.867178
Si Si2 0.749935 0.612373 0.767599
Si Si3 0.062642 0.750476 0.488227
Si Si4 0.637048 0.639154 0.259043
Si Si5 0.841997 0.593464 0.489369
Si Si6 0.492531 0.995574 0.769142
Si Si7 0.264911 0.361453 0.619628
Si Si8 0.068183 0.345097 0.912725
O O1 0.965843 0.648720 0.819237
O O2 0.883463 0.826561 0.916100
O O3 0.015197 0.854439 0.925582
O O4 0.951189 0.013773 0.808397
O O5 0.821886 0.549754 0.730328
O O6 0.678520 0.675502 0.728516
O O7 0.748789 0.613392 0.863600
O O8 0.732879 0.362460 0.788079
O O9 0.128349 0.620881 0.505736
O O10 0.006908 0.782758 0.553855
O O11 0.082968 0.953922 0.454184
O O12 0.558184 0.630137 0.240045
O O13 0.655365 0.636713 0.348762
O O14 0.763692 0.625439 0.464174
O O15 0.871872 0.703610 0.560281
O O16 0.444233 0.881329 0.826240
#
# Coordination Sequence:
#
# PCOD9460499 Si02
#       8
#     8   8   8   8   8   8   8   8
#     4  10  23  34  51  87 118 161 195 234 296 361
#     4   6  15  28  46  75 106 128 191 223 296 310
#     4   9  20  36  52  80 116 155 193 229 293 351
#     4   8  16  32  49  78 109 144 180 248 282 331
#     4  11  20  36  59  84 120 145 203 245 291 364
#     4  11  22  35  56  81 129 154 196 243 297 357
#     4   8  16  30  50  83 102 141 183 248 289 325
#     4   9  20  35  53  82 118 162 183 234 305 339
#
# _framework density 26.614196
#
# number of rings (size 3 to 8) (size 9 to 14) (size 15 to 20)
#    1.500    1.250    0.000    3.000    5.250    0.000 
#    2.250    0.000    0.000    0.000    0.000   10.500 
#    0.000    0.000    0.000    0.000    0.000    0.000 
#
# Total GULP energy -356481.947102 kJ/mol
# GULP energy per Si atom -5570.030423 kJ/mol
# Density = 2.655362 g / cm^3
# Si number density = 26.614196 Si / 1000 Ang^3
#
#
#
# Elastic Constant Matrix: (Units=GPa)
#
#
# Indices 1 2 3 4 5 6 
#
# 1 80.7603 13.8863 18.6995 0.0000 0.0000 0.0000
# 2 13.8863 130.3972 20.0215 0.0000 0.0000 0.0000
# 3 18.6995 20.0215 94.3329 0.0000 0.0000 0.0000
# 4 0.0000 0.0000 0.0000 25.0639 0.0000 0.0000
# 5 0.0000 0.0000 0.0000 0.0000 29.7712 0.0000
# 6 0.0000 0.0000 0.0000 0.0000 0.0000 36.5665
#
#
#
# Elastic Compliance Matrix: (Units=1/GPa)
#
#
# Indices 1 2 3 4 5 6 
#
# 1 0.013111 -0.001031 -0.002380 0.000000 0.000000 0.000000
# 2 -0.001031 0.008008 -0.001495 0.000000 0.000000 0.000000
# 3 -0.002380 -0.001495 0.011390 0.000000 0.000000 0.000000
# 4 0.000000 0.000000 0.000000 0.039898 0.000000 0.000000
# 5 0.000000 0.000000 0.000000 0.000000 0.033590 0.000000
# 6 0.000000 0.000000 0.000000 0.000000 0.000000 0.027347
#
#
# Mechanical properties :
#
#
# Convention : Reuss Voigt Hill
#
# Bulk Modulus (GPa) = 44.05993 45.63387 44.84690
# Shear Modulus (GPa) = 33.17371 35.13919 34.15645
#
# Velocity S-wave (km/s) = 3.53436 3.63756 3.58633
# Velocity P-wave (km/s) = 5.76599 5.90137 5.83407
#
# Compressibility (1/GPa) = 0.02269636
#
# Stress axis : x y z
#
# Youngs Moduli (GPa) = 76.27385 124.87130 87.79672
#
# Poissons Ratio (x) = 0.12871 0.20897
# Poissons Ratio (y) = 0.07862 0.13129
# Poissons Ratio (z) = 0.18154 0.18673
#
# Static dielectric constant tensor:
#      x y z
#    x 2.137710 0.000000 0.000000 
#    y 0.000000 2.610600 0.000000 
#    z 0.000000 0.000000 2.034740 
# 
# From -- ./inp_files/10618.got.cif
#   From: 2010.05.17/outbox.cif.g08.bks.cpg/sg61_6_cif.got.tgz:10618.got - 2010.06.03 15:17:17.
