data_PCOD9460299
_publ_section_title
;
Structure prediction by ZEFSAII (Michael W. Deem and Ramdas Pophale) SiO2 
 PCOD9460299
Probable space group: P B C A
;
_chemical_formula_sum "Si O2"
_cell_formula_units_Z 64
_cell_length_a 17.115099
_cell_length_b 11.923222
_cell_length_c 13.363003
_cell_angle_alpha 90.000000
_cell_angle_beta 90.000000
_cell_angle_gamma 90.000000
_cell_volume 2726.949603
_symmetry_space_group_name_H-M "P B C A"
_symmetry_group_IT_number 61
_symmetry_cell_setting 'orthorhombic'
loop_
_space_group_symop_operation_xyz
x,y,z
1/2-x,-y,1/2+z
1/2+x,1/2-y,-z
-x,1/2+y,1/2-z
-x,-y,-z
1/2+x,y,1/2-z
1/2-x,1/2+y,z
x,1/2-y,1/2+z
loop_
_atom_site_type_symbol
_atom_site_label
_atom_site_fract_x
_atom_site_fract_y
_atom_site_fract_z
Si Si1 0.644166 0.872237 0.755861
Si Si2 0.881537 0.609100 0.641882
Si Si3 0.522702 0.177581 0.215061
Si Si4 0.221774 0.001716 0.188162
Si Si5 0.408599 0.884582 0.580618
Si Si6 0.137254 0.475711 0.898026
Si Si7 0.205594 0.702451 0.909619
Si Si8 0.209398 0.320964 0.069894
O O1 0.568786 0.815670 0.803799
O O2 0.711524 0.907412 0.832870
O O3 0.679890 0.786992 0.676261
O O4 0.623131 0.992068 0.701830
O O5 0.927262 0.709076 0.698864
O O6 0.926975 0.597262 0.535426
O O7 0.792804 0.649736 0.612686
O O8 0.530488 0.134793 0.330185
O O9 0.559629 0.084970 0.140519
O O10 0.148834 0.016238 0.115652
O O11 0.192216 0.029417 0.299036
O O12 0.261069 0.882730 0.168501
O O13 0.355131 0.772813 0.587317
O O14 0.140393 0.606861 0.919981
O O15 0.172143 0.410228 0.992040
O O16 0.218180 0.771496 0.009798
#
# Coordination Sequence:
#
# PCOD9460299 Si02
#       8
#     8   8   8   8   8   8   8   8
#     4  12  25  40  68 101 138 183 221 279 358 407
#     4  11  22  45  69  94 140 178 230 295 333 400
#     4  11  25  44  64  99 143 183 224 273 356 424
#     4  11  22  38  66 101 124 172 238 276 336 401
#     4  10  22  40  69  93 127 180 229 278 335 400
#     4  11  22  42  66  94 135 177 219 289 337 400
#     4  11  20  40  69  96 130 175 232 281 336 396
#     4  11  20  39  68  98 128 171 230 290 336 389
#
# _framework density 23.469448
#
# number of rings (size 3 to 8) (size 9 to 14) (size 15 to 20)
#    0.000    1.000    5.000    3.750    3.500    0.500 
#    0.000    4.375    0.000    0.000    0.000    0.000 
#    0.000    0.000    0.000    0.000    0.000    0.000 
#
# Total GULP energy -357901.465979 kJ/mol
# GULP energy per Si atom -5592.210406 kJ/mol
# Density = 2.341603 g / cm^3
# Si number density = 23.469448 Si / 1000 Ang^3
#
#
#
# Elastic Constant Matrix: (Units=GPa)
#
#
# Indices 1 2 3 4 5 6 
#
# 1 51.6895 -4.7608 6.5303 0.0000 0.0000 0.0000
# 2 -4.7608 66.2176 -14.9497 0.0000 0.0000 0.0000
# 3 6.5303 -14.9497 68.4810 0.0000 0.0000 0.0000
# 4 0.0000 0.0000 0.0000 45.6691 0.0000 0.0000
# 5 0.0000 0.0000 0.0000 0.0000 15.6922 0.0000
# 6 0.0000 0.0000 0.0000 0.0000 0.0000 15.4030
#
#
#
# Elastic Compliance Matrix: (Units=1/GPa)
#
#
# Indices 1 2 3 4 5 6 
#
# 1 0.019650 0.001041 -0.001647 0.000000 0.000000 0.000000
# 2 0.001041 0.015940 0.003380 0.000000 0.000000 0.000000
# 3 -0.001647 0.003380 0.015498 0.000000 0.000000 0.000000
# 4 0.000000 0.000000 0.000000 0.021897 0.000000 0.000000
# 5 0.000000 0.000000 0.000000 0.000000 0.063726 0.000000
# 6 0.000000 0.000000 0.000000 0.000000 0.000000 0.064922
#
#
# Mechanical properties :
#
#
# Convention : Reuss Voigt Hill
#
# Bulk Modulus (GPa) = 17.65617 17.78084 17.71851
# Shear Modulus (GPa) = 23.25996 28.65742 25.95869
#
# Velocity S-wave (km/s) = 3.15155 3.49815 3.32936
# Velocity P-wave (km/s) = 4.55877 4.88965 4.72710
#
# Compressibility (1/GPa) = 0.05663742
#
# Stress axis : x y z
#
# Youngs Moduli (GPa) = 50.89003 62.73614 64.52619
#
# Poissons Ratio (x) = -0.06531 0.10625
# Poissons Ratio (y) = -0.05298 -0.21813
# Poissons Ratio (z) = 0.08379 -0.21208
#
# Static dielectric constant tensor:
#      x y z
#    x 1.872260 0.000000 0.000000 
#    y 0.000000 1.900450 0.000000 
#    z 0.000000 0.000000 1.900030 
# 
# From -- ./inp_files/8227.got.cif
#   From: 2010.05.17/outbox.cif.g08.bks.cpg/sg61_5_cif.got.tgz:8227.got - 2010.06.03 15:17:17.
