data_PCOD9460469
_publ_section_title
;
Structure prediction by ZEFSAII (Michael W. Deem and Ramdas Pophale) SiO2 
 PCOD9460469
Probable space group: P B C A
;
_chemical_formula_sum "Si O2"
_cell_formula_units_Z 56
_cell_length_a 10.001682
_cell_length_b 13.943605
_cell_length_c 15.528220
_cell_angle_alpha 90.000000
_cell_angle_beta 90.000000
_cell_angle_gamma 90.000000
_cell_volume 2165.557846
_symmetry_space_group_name_H-M "P B C A"
_symmetry_group_IT_number 61
_symmetry_cell_setting 'orthorhombic'
loop_
_space_group_symop_operation_xyz
x,y,z
1/2-x,-y,1/2+z
1/2+x,1/2-y,-z
-x,1/2+y,1/2-z
-x,-y,-z
1/2+x,y,1/2-z
1/2-x,1/2+y,z
x,1/2-y,1/2+z
loop_
_atom_site_type_symbol
_atom_site_label
_atom_site_fract_x
_atom_site_fract_y
_atom_site_fract_z
Si Si1 0.800756 0.851019 0.612669
Si Si2 0.012750 0.931785 0.918955
Si Si3 0.413292 0.714471 0.571648
Si Si4 0.679519 0.793486 0.829351
Si Si5 0.218090 0.493170 0.704714
Si Si6 0.345872 0.327310 0.314138
Si Si7 0.049514 0.951102 0.586812
O O1 0.666193 0.912587 0.603232
O O2 0.853664 0.826772 0.515791
O O3 0.765964 0.746677 0.651617
O O4 0.837018 0.986502 0.365418
O O5 0.955623 0.826186 0.940228
O O6 0.922916 0.978922 0.843948
O O7 0.000000 0.000000 0.000000
O O8 0.295711 0.724050 0.641216
O O9 0.542565 0.663165 0.612869
O O10 0.587813 0.731940 0.766228
O O11 0.622889 0.846044 0.914247
O O12 0.735189 0.883928 0.774533
O O13 0.210496 0.575166 0.775485
O O14 0.076820 0.418482 0.855155
O O15 0.000000 0.000000 0.500000
#
# Coordination Sequence:
#
# PCOD9460469 Si02
#       7
#     8   8   8   8   8   8   8
#     4  11  26  46  80 119 161 216 282 345 422 497
#     4  10  22  45  78 112 160 206 270 342 409 504
#     4  10  25  46  76 114 160 212 277 345 411 496
#     4   9  24  45  75 113 167 199 266 347 400 491
#     4   9  23  48  81 112 159 216 272 327 422 490
#     4  11  25  50  82 115 161 221 275 347 415 493
#     4  10  23  46  78 117 163 216 268 340 412 503
#
# _framework density 25.859389
#
# number of rings (size 3 to 8) (size 9 to 14) (size 15 to 20)
#    0.857    1.143    0.000    0.857   10.000    0.000 
#    7.714    1.429    3.143    0.000    0.000    0.000 
#    0.000    0.000    0.000    0.000    0.000    0.000 
#
# Total GULP energy -313126.735429 kJ/mol
# GULP energy per Si atom -5591.548847 kJ/mol
# Density = 2.580053 g / cm^3
# Si number density = 25.859389 Si / 1000 Ang^3
#
#
#
# Elastic Constant Matrix: (Units=GPa)
#
#
# Indices 1 2 3 4 5 6 
#
# 1 165.6513 62.8190 54.6753 0.0000 0.0000 0.0000
# 2 62.8190 148.2330 78.9518 0.0000 0.0000 0.0000
# 3 54.6753 78.9518 125.1382 0.0000 0.0000 0.0000
# 4 0.0000 0.0000 0.0000 65.5766 0.0000 0.0000
# 5 0.0000 0.0000 0.0000 0.0000 39.7122 0.0000
# 6 0.0000 0.0000 0.0000 0.0000 0.0000 32.9422
#
#
#
# Elastic Compliance Matrix: (Units=1/GPa)
#
#
# Indices 1 2 3 4 5 6 
#
# 1 0.007484 -0.002154 -0.001911 0.000000 0.000000 0.000000
# 2 -0.002154 0.010780 -0.005860 0.000000 0.000000 0.000000
# 3 -0.001911 -0.005860 0.012524 0.000000 0.000000 0.000000
# 4 0.000000 0.000000 0.000000 0.015249 0.000000 0.000000
# 5 0.000000 0.000000 0.000000 0.000000 0.025181 0.000000
# 6 0.000000 0.000000 0.000000 0.000000 0.000000 0.030356
#
#
# Mechanical properties :
#
#
# Convention : Reuss Voigt Hill
#
# Bulk Modulus (GPa) = 91.42912 92.43497 91.93205
# Shear Modulus (GPa) = 39.97710 43.81795 41.89752
#
# Velocity S-wave (km/s) = 3.93611 4.12086 4.02954
# Velocity P-wave (km/s) = 7.48935 7.64623 7.56819
#
# Compressibility (1/GPa) = 0.01093743
#
# Stress axis : x y z
#
# Youngs Moduli (GPa) = 133.61173 92.76218 79.84922
#
# Poissons Ratio (x) = 0.19980 0.15261
# Poissons Ratio (y) = 0.28778 0.46795
# Poissons Ratio (z) = 0.25536 0.54362
#
# Static dielectric constant tensor:
#      x y z
#    x 2.113890 0.000000 0.000000 
#    y 0.000000 2.051420 0.000000 
#    z 0.000000 0.000000 2.174820 
# 
# From -- ./inp_files/7512.got.cif
#   From: 2010.05.17/outbox.cif.g08.bks.cpg/sg61_4_cif.got.tgz:7512.got - 2010.06.03 15:17:17.
