data_PCOD9460108
_publ_section_title
;
Structure prediction by ZEFSAII (Michael W. Deem and Ramdas Pophale) SiO2 
 PCOD9460108
Probable space group: P B C A
;
_chemical_formula_sum "Si O2"
_cell_formula_units_Z 56
_cell_length_a 14.418798
_cell_length_b 15.251097
_cell_length_c 9.970550
_cell_angle_alpha 90.000000
_cell_angle_beta 90.000000
_cell_angle_gamma 90.000000
_cell_volume 2192.548741
_symmetry_space_group_name_H-M "P B C A"
_symmetry_group_IT_number 61
_symmetry_cell_setting 'orthorhombic'
loop_
_space_group_symop_operation_xyz
x,y,z
1/2-x,-y,1/2+z
1/2+x,1/2-y,-z
-x,1/2+y,1/2-z
-x,-y,-z
1/2+x,y,1/2-z
1/2-x,1/2+y,z
x,1/2-y,1/2+z
loop_
_atom_site_type_symbol
_atom_site_label
_atom_site_fract_x
_atom_site_fract_y
_atom_site_fract_z
Si Si1 0.358666 0.696431 0.892753
Si Si2 0.522781 0.760454 0.060311
Si Si3 0.764769 0.988457 0.106754
Si Si4 0.305013 0.233787 0.242024
Si Si5 0.657767 0.547061 0.369659
Si Si6 0.140846 0.881713 0.090704
Si Si7 0.992403 0.584082 0.797986
O O1 0.283184 0.768516 0.843250
O O2 0.427559 0.659296 0.775191
O O3 0.418884 0.728947 0.019998
O O4 0.304598 0.607297 0.926264
O O5 0.595525 0.746440 0.184126
O O6 0.518106 0.866078 0.064137
O O7 0.577823 0.698874 0.958921
O O8 0.830158 0.060210 0.034580
O O9 0.672996 0.990301 0.017944
O O10 0.766487 0.005982 0.264331
O O11 0.322182 0.149178 0.151287
O O12 0.281495 0.323931 0.163887
O O13 0.563869 0.504780 0.314679
O O14 0.078280 0.931259 0.199420
#
# Coordination Sequence:
#
# PCOD9460108 Si02
#       7
#     8   8   8   8   8   8   8
#     4  10  24  40  71  98 141 190 245 298 368 443
#     4  10  22  41  70  99 136 189 238 306 365 429
#     4  11  24  43  68 101 139 189 244 297 375 435
#     4  11  24  42  69 104 145 192 247 304 374 445
#     4  11  25  41  69 103 144 190 241 306 367 445
#     4  10  21  42  67  95 138 189 243 302 370 446
#     4   9  22  41  62  98 136 178 241 305 363 435
#
# _framework density 25.541052000000001
#
# number of rings (size 3 to 8) (size 9 to 14) (size 15 to 20)
#    0.000    1.714    1.429    1.714    8.000    1.714 
#    0.000    0.714    0.000    0.000    0.000    0.000 
#    0.000    0.000    0.000    0.000    0.000    0.000 
#
# Total GULP energy -312400.305214 kJ/mol
# GULP energy per Si atom -5578.576879 kJ/mol
# Density = 2.548292 g / cm^3
# Si number density = 25.541052 Si / 1000 Ang^3
#
#
#
# Elastic Constant Matrix: (Units=GPa)
#
#
# Indices 1 2 3 4 5 6 
#
# 1 75.2408 26.4937 -3.5278 0.0000 0.0000 0.0000
# 2 26.4937 115.8801 11.5339 0.0000 0.0000 0.0000
# 3 -3.5278 11.5339 56.0428 0.0000 0.0000 0.0000
# 4 0.0000 0.0000 0.0000 43.0827 0.0000 0.0000
# 5 0.0000 0.0000 0.0000 0.0000 31.3022 0.0000
# 6 0.0000 0.0000 0.0000 0.0000 0.0000 37.6685
#
#
#
# Elastic Compliance Matrix: (Units=1/GPa)
#
#
# Indices 1 2 3 4 5 6 
#
# 1 0.014600 -0.003501 0.001640 0.000000 0.000000 0.000000
# 2 -0.003501 0.009650 -0.002206 0.000000 0.000000 0.000000
# 3 0.001640 -0.002206 0.018401 0.000000 0.000000 0.000000
# 4 0.000000 0.000000 0.000000 0.023211 0.000000 0.000000
# 5 0.000000 0.000000 0.000000 0.000000 0.031947 0.000000
# 6 0.000000 0.000000 0.000000 0.000000 0.000000 0.026547
#
#
# Mechanical properties :
#
#
# Convention : Reuss Voigt Hill
#
# Bulk Modulus (GPa) = 28.97297 35.12924 32.05111
# Shear Modulus (GPa) = 34.72294 36.58829 35.65561
#
# Velocity S-wave (km/s) = 3.69113 3.78898 3.74038
# Velocity P-wave (km/s) = 5.43454 5.73810 5.58838
#
# Compressibility (1/GPa) = 0.03451493
#
# Stress axis : x y z
#
# Youngs Moduli (GPa) = 68.49123 103.62994 54.34546
#
# Poissons Ratio (x) = 0.36284 -0.08911
# Poissons Ratio (y) = 0.23981 0.11991
# Poissons Ratio (z) = -0.11230 0.22864
#
# Static dielectric constant tensor:
#      x y z
#    x 2.151930 0.000000 0.000000 
#    y 0.000000 1.989390 0.000000 
#    z 0.000000 0.000000 2.134810 
# 
# From -- ./inp_files/5795.got.cif
#   From: 2010.05.17/outbox.cif.g08.bks.cpg/sg61_3_cif.got.tgz:5795.got - 2010.06.03 15:17:17.
