data_PCOD9460074
_publ_section_title
;
Structure prediction by ZEFSAII (Michael W. Deem and Ramdas Pophale) SiO2 
 PCOD9460074
Probable space group: P B C A
;
_chemical_formula_sum "Si O2"
_cell_formula_units_Z 60
_cell_length_a 30.854218
_cell_length_b 8.134804
_cell_length_c 8.549465
_cell_angle_alpha 90.000000
_cell_angle_beta 90.000000
_cell_angle_gamma 90.000000
_cell_volume 2145.856006
_symmetry_space_group_name_H-M "P B C A"
_symmetry_group_IT_number 61
_symmetry_cell_setting 'orthorhombic'
loop_
_space_group_symop_operation_xyz
x,y,z
1/2-x,-y,1/2+z
1/2+x,1/2-y,-z
-x,1/2+y,1/2-z
-x,-y,-z
1/2+x,y,1/2-z
1/2-x,1/2+y,z
x,1/2-y,1/2+z
loop_
_atom_site_type_symbol
_atom_site_label
_atom_site_fract_x
_atom_site_fract_y
_atom_site_fract_z
Si Si1 0.000000 0.000000 0.000000
Si Si2 0.788895 0.384232 0.566349
Si Si3 0.650808 0.374550 0.495496
Si Si4 0.292576 0.656131 0.202538
Si Si5 0.975830 0.357468 0.826173
Si Si6 0.916961 0.060115 0.830841
Si Si7 0.841272 0.200904 0.352866
Si Si8 0.561108 0.153992 0.035645
O O1 0.055034 0.976337 0.015366
O O2 0.999191 0.062888 0.181534
O O3 0.711762 0.038681 0.449635
O O4 0.748501 0.362277 0.681867
O O5 0.796455 0.236496 0.444954
O O6 0.829968 0.364710 0.681650
O O7 0.689893 0.322916 0.378641
O O8 0.670108 0.373388 0.667984
O O9 0.636530 0.556616 0.448004
O O10 0.606335 0.270341 0.473175
O O11 0.941436 0.226291 0.771328
O O12 0.014308 0.256503 0.924523
O O13 0.956344 0.505725 0.927109
O O14 0.869125 0.133456 0.856008
O O15 0.921630 0.925413 0.695988
#
# Coordination Sequence:
#
# PCOD9460074 Si02
#       8
#     4   8   8   8   8   8   8   8
#     4  10  24  40  70 102 146 208 266 320 398 462
#     4  12  27  51  78 117 149 216 257 333 396 493
#     4  12  26  51  75 119 158 210 258 340 387 489
#     4  12  28  53  81 112 168 203 270 320 419 479
#     4  10  21  41  68 100 149 202 260 323 387 469
#     4  11  22  44  71 111 151 210 260 331 390 483
#     4  12  26  44  82 115 158 200 271 325 402 471
#     4  10  22  43  65 103 152 202 262 316 397 455
#
# _framework density 27.960868000000001
#
# number of rings (size 3 to 8) (size 9 to 14) (size 15 to 20)
#    0.000    0.800    1.333    5.600    1.867    2.133 
#   14.400    0.000    0.000    0.000    0.000    0.000 
#    0.000    0.000    0.000    0.000    0.000    0.000 
#
# Total GULP energy -335217.663292 kJ/mol
# GULP energy per Si atom -5586.961055 kJ/mol
# Density = 2.789723 g / cm^3
# Si number density = 27.960868 Si / 1000 Ang^3
#
#
#
# Elastic Constant Matrix: (Units=GPa)
#
#
# Indices 1 2 3 4 5 6 
#
# 1 146.4897 30.3264 42.4516 0.0000 0.0000 0.0000
# 2 30.3264 42.2342 38.3933 0.0000 0.0000 0.0000
# 3 42.4516 38.3933 169.0277 0.0000 0.0000 0.0000
# 4 0.0000 0.0000 0.0000 43.8756 0.0000 0.0000
# 5 0.0000 0.0000 0.0000 0.0000 41.1952 0.0000
# 6 0.0000 0.0000 0.0000 0.0000 0.0000 51.3109
#
#
#
# Elastic Compliance Matrix: (Units=1/GPa)
#
#
# Indices 1 2 3 4 5 6 
#
# 1 0.008126 -0.005015 -0.000902 0.000000 0.000000 0.000000
# 2 -0.005015 0.032934 -0.006221 0.000000 0.000000 0.000000
# 3 -0.000902 -0.006221 0.007556 0.000000 0.000000 0.000000
# 4 0.000000 0.000000 0.000000 0.022792 0.000000 0.000000
# 5 0.000000 0.000000 0.000000 0.000000 0.024275 0.000000
# 6 0.000000 0.000000 0.000000 0.000000 0.000000 0.019489
#
#
# Mechanical properties :
#
#
# Convention : Reuss Voigt Hill
#
# Bulk Modulus (GPa) = 41.08510 64.45490 52.77000
# Shear Modulus (GPa) = 33.88441 43.71503 38.79972
#
# Velocity S-wave (km/s) = 3.48494 3.95832 3.72915
# Velocity P-wave (km/s) = 5.56047 6.63272 6.12012
#
# Compressibility (1/GPa) = 0.02433973
#
# Stress axis : x y z
#
# Youngs Moduli (GPa) = 123.06229 30.36369 132.34978
#
# Poissons Ratio (x) = 0.15228 0.11934
# Poissons Ratio (y) = 0.61718 0.82337
# Poissons Ratio (z) = 0.11096 0.18890
#
# Static dielectric constant tensor:
#      x y z
#    x 2.521340 0.000000 0.000000 
#    y 0.000000 2.398900 0.000000 
#    z 0.000000 0.000000 2.030550 
# 
# From -- ./inp_files/4605.got.cif
#   From: 2010.05.17/outbox.cif.g08.bks.cpg/sg61_3_cif.got.tgz:4605.got - 2010.06.03 15:17:17.
