data_PCOD9460827
_publ_section_title
;
Structure prediction by ZEFSAII (Michael W. Deem and Ramdas Pophale) SiO2 
 PCOD9460827
Probable space group: P B C A
;
_chemical_formula_sum "Si O2"
_cell_formula_units_Z 48
_cell_length_a 13.959785
_cell_length_b 9.089687
_cell_length_c 14.063547
_cell_angle_alpha 90.000000
_cell_angle_beta 90.000000
_cell_angle_gamma 90.000000
_cell_volume 1784.524551
_symmetry_space_group_name_H-M "P B C A"
_symmetry_group_IT_number 61
_symmetry_cell_setting 'orthorhombic'
loop_
_space_group_symop_operation_xyz
x,y,z
1/2-x,-y,1/2+z
1/2+x,1/2-y,-z
-x,1/2+y,1/2-z
-x,-y,-z
1/2+x,y,1/2-z
1/2-x,1/2+y,z
x,1/2-y,1/2+z
loop_
_atom_site_type_symbol
_atom_site_label
_atom_site_fract_x
_atom_site_fract_y
_atom_site_fract_z
Si Si1 0.398523 0.869724 0.906786
Si Si2 0.092307 0.775031 0.526231
Si Si3 0.285549 0.894502 0.727553
Si Si4 0.479314 0.909664 0.353757
Si Si5 0.910020 0.266421 0.690429
Si Si6 0.788888 0.839745 0.402569
O O1 0.345630 0.897095 0.005984
O O2 0.486168 0.121479 0.078826
O O3 0.348849 0.943344 0.816915
O O4 0.389447 0.693059 0.883237
O O5 0.050325 0.614646 0.556959
O O6 0.088492 0.801168 0.414911
O O7 0.200124 0.758916 0.560083
O O8 0.453915 0.428734 0.824488
O O9 0.344107 0.779296 0.661878
O O10 0.247389 0.029204 0.664611
O O11 0.532148 0.826907 0.267116
O O12 0.804150 0.304066 0.729480
#
# Coordination Sequence:
#
# PCOD9460827 Si02
#       6
#     8   8   8   8   8   8
#     4  10  26  46  75 113 146 203 257 319 385 468
#     4  10  25  47  75 108 151 203 255 322 386 469
#     4  12  27  47  75 110 154 200 257 325 389 468
#     4  10  26  44  75 108 148 200 254 316 387 465
#     4  12  24  49  73 112 151 202 257 324 396 463
#     4  12  27  50  76 113 153 202 262 323 393 468
#
# _framework density 26.897921
#
# number of rings (size 3 to 8) (size 9 to 14) (size 15 to 20)
#    1.000    0.000    3.333    1.500    9.333    1.333 
#    3.000    2.500    0.000    0.000    0.000    0.000 
#    0.000    0.000    0.000    0.000    0.000    0.000 
#
# Total GULP energy -268978.565443 kJ/mol
# GULP energy per Si atom -5603.720113 kJ/mol
# Density = 2.683670 g / cm^3
# Si number density = 26.897921 Si / 1000 Ang^3
#
#
#
# Elastic Constant Matrix: (Units=GPa)
#
#
# Indices 1 2 3 4 5 6 
#
# 1 113.3046 18.8644 56.4805 0.0000 0.0000 0.0000
# 2 18.8644 92.4001 43.8117 0.0000 0.0000 0.0000
# 3 56.4805 43.8117 221.0119 0.0000 0.0000 0.0000
# 4 0.0000 0.0000 0.0000 47.0852 0.0000 0.0000
# 5 0.0000 0.0000 0.0000 0.0000 40.4542 0.0000
# 6 0.0000 0.0000 0.0000 0.0000 0.0000 46.5249
#
#
#
# Elastic Compliance Matrix: (Units=1/GPa)
#
#
# Indices 1 2 3 4 5 6 
#
# 1 0.010187 -0.000933 -0.002418 0.000000 0.000000 0.000000
# 2 -0.000933 0.012031 -0.002146 0.000000 0.000000 0.000000
# 3 -0.002418 -0.002146 0.005568 0.000000 0.000000 0.000000
# 4 0.000000 0.000000 0.000000 0.021238 0.000000 0.000000
# 5 0.000000 0.000000 0.000000 0.000000 0.024719 0.000000
# 6 0.000000 0.000000 0.000000 0.000000 0.000000 0.021494
#
#
# Mechanical properties :
#
#
# Convention : Reuss Voigt Hill
#
# Bulk Modulus (GPa) = 59.55955 73.89222 66.72589
# Shear Modulus (GPa) = 44.71117 47.31685 46.01401
#
# Velocity S-wave (km/s) = 4.08150 4.19874 4.14054
# Velocity P-wave (km/s) = 6.66351 7.14401 6.90794
#
# Compressibility (1/GPa) = 0.01678992
#
# Stress axis : x y z
#
# Youngs Moduli (GPa) = 98.16841 83.12053 179.59351
#
# Poissons Ratio (x) = 0.07756 0.43430
# Poissons Ratio (y) = 0.09160 0.38548
# Poissons Ratio (z) = 0.23740 0.17841
#
# Static dielectric constant tensor:
#      x y z
#    x 2.081600 0.000000 0.000000 
#    y 0.000000 2.216440 0.000000 
#    z 0.000000 0.000000 2.102400 
# 
# From -- ./inp_files/6426.got.cif
#   From: 2010.05.17/outbox.cif.g08.bks.cpg/sg61_4_cif.got.tgz:6426.got - 2010.06.03 15:17:17.
