data_PCOD9460044
_publ_section_title
;
Structure prediction by ZEFSAII (Michael W. Deem and Ramdas Pophale) SiO2 
 PCOD9460044
Probable space group: P B C A
;
_chemical_formula_sum "Si O2"
_cell_formula_units_Z 48
_cell_length_a 11.016639
_cell_length_b 12.621335
_cell_length_c 15.232459
_cell_angle_alpha 90.000000
_cell_angle_beta 90.000000
_cell_angle_gamma 90.000000
_cell_volume 2117.992561
_symmetry_space_group_name_H-M "P B C A"
_symmetry_group_IT_number 61
_symmetry_cell_setting 'orthorhombic'
loop_
_space_group_symop_operation_xyz
x,y,z
1/2-x,-y,1/2+z
1/2+x,1/2-y,-z
-x,1/2+y,1/2-z
-x,-y,-z
1/2+x,y,1/2-z
1/2-x,1/2+y,z
x,1/2-y,1/2+z
loop_
_atom_site_type_symbol
_atom_site_label
_atom_site_fract_x
_atom_site_fract_y
_atom_site_fract_z
Si Si1 0.908414 0.496315 0.152843
Si Si2 0.410733 0.322677 0.600014
Si Si3 0.338870 0.659514 0.196721
Si Si4 0.953441 0.655582 0.725670
Si Si5 0.841450 0.961965 0.073355
Si Si6 0.514957 0.832011 0.541141
O O1 0.850742 0.564525 0.233968
O O2 0.800744 0.466025 0.087637
O O3 0.004249 0.575285 0.108679
O O4 0.975454 0.395934 0.194037
O O5 0.277385 0.350551 0.634800
O O6 0.462116 0.232412 0.667139
O O7 0.426833 0.269588 0.504666
O O8 0.339338 0.771444 0.247610
O O9 0.461627 0.670173 0.138837
O O10 0.904979 0.559072 0.666940
O O11 0.897484 0.868143 0.015392
O O12 0.889033 0.072427 0.034783
#
# Coordination Sequence:
#
# PCOD9460044 Si02
#       6
#     8   8   8   8   8   8
#     4  11  22  40  67  95 123 165 224 263 313 384
#     4  10  24  39  62  96 125 166 212 261 328 381
#     4  11  23  40  66  92 136 163 214 273 312 384
#     4  10  21  41  63  96 122 170 211 261 321 377
#     4  10  21  42  65  86 127 166 209 259 320 382
#     4  10  23  42  62  89 127 172 204 257 336 375
#
# _framework density 22.662967999999999
#
# number of rings (size 3 to 8) (size 9 to 14) (size 15 to 20)
#    0.000    1.667    1.667    2.000    4.667    1.333 
#    0.000    1.667    0.000    0.000    0.000    0.000 
#    0.000    0.000    0.000    0.000    0.000    0.000 
#
# Total GULP energy -268429.188350 kJ/mol
# GULP energy per Si atom -5592.274757 kJ/mol
# Density = 2.261139 g / cm^3
# Si number density = 22.662968 Si / 1000 Ang^3
#
#
#
# Elastic Constant Matrix: (Units=GPa)
#
#
# Indices 1 2 3 4 5 6 
#
# 1 89.1754 32.1851 4.8036 0.0000 0.0000 0.0000
# 2 32.1851 81.4558 10.0897 0.0000 0.0000 0.0000
# 3 4.8036 10.0897 43.7478 0.0000 0.0000 0.0000
# 4 0.0000 0.0000 0.0000 25.2793 0.0000 0.0000
# 5 0.0000 0.0000 0.0000 0.0000 28.9549 0.0000
# 6 0.0000 0.0000 0.0000 0.0000 0.0000 11.3772
#
#
#
# Elastic Compliance Matrix: (Units=1/GPa)
#
#
# Indices 1 2 3 4 5 6 
#
# 1 0.013082 -0.005138 -0.000251 0.000000 0.000000 0.000000
# 2 -0.005138 0.014655 -0.002816 0.000000 0.000000 0.000000
# 3 -0.000251 -0.002816 0.023535 0.000000 0.000000 0.000000
# 4 0.000000 0.000000 0.000000 0.039558 0.000000 0.000000
# 5 0.000000 0.000000 0.000000 0.000000 0.034536 0.000000
# 6 0.000000 0.000000 0.000000 0.000000 0.000000 0.087895
#
#
# Mechanical properties :
#
#
# Convention : Reuss Voigt Hill
#
# Bulk Modulus (GPa) = 28.68432 34.28177 31.48305
# Shear Modulus (GPa) = 20.72166 24.27564 22.49865
#
# Velocity S-wave (km/s) = 3.02709 3.27641 3.15421
# Velocity P-wave (km/s) = 4.99020 5.42888 5.21415
#
# Compressibility (1/GPa) = 0.03486225
#
# Stress axis : x y z
#
# Youngs Moduli (GPa) = 76.44260 68.23411 42.48932
#
# Poissons Ratio (x) = 0.35057 0.01069
# Poissons Ratio (y) = 0.39274 0.11965
# Poissons Ratio (z) = 0.01922 0.19214
#
# Static dielectric constant tensor:
#      x y z
#    x 1.813990 0.000000 0.000000 
#    y 0.000000 1.785380 0.000000 
#    z 0.000000 0.000000 1.899710 
# 
# From -- ./inp_files/9166.got.cif
#   From: 2010.05.17/outbox.cif.g08.bks.cpg/sg61_5_cif.got.tgz:9166.got - 2010.06.03 15:17:17.
