data_PCOD9460184
_publ_section_title
;
Structure prediction by ZEFSAII (Michael W. Deem and Ramdas Pophale) SiO2 
 PCOD9460184
Probable space group: P B C A
;
_chemical_formula_sum "Si O2"
_cell_formula_units_Z 40
_cell_length_a 5.561104
_cell_length_b 13.466090
_cell_length_c 20.213778
_cell_angle_alpha 90.000000
_cell_angle_beta 90.000000
_cell_angle_gamma 90.000000
_cell_volume 1513.735588
_symmetry_space_group_name_H-M "P B C A"
_symmetry_group_IT_number 61
_symmetry_cell_setting 'orthorhombic'
loop_
_space_group_symop_operation_xyz
x,y,z
1/2-x,-y,1/2+z
1/2+x,1/2-y,-z
-x,1/2+y,1/2-z
-x,-y,-z
1/2+x,y,1/2-z
1/2-x,1/2+y,z
x,1/2-y,1/2+z
loop_
_atom_site_type_symbol
_atom_site_label
_atom_site_fract_x
_atom_site_fract_y
_atom_site_fract_z
Si Si1 0.851125 0.113414 0.019344
Si Si2 0.857852 0.149702 0.504164
Si Si3 0.621765 0.180731 0.678949
Si Si4 0.378826 0.897768 0.171213
Si Si5 0.048218 0.391162 0.864141
O O1 0.607321 0.095046 0.976954
O O2 0.788384 0.080276 0.094162
O O3 0.108406 0.091727 0.987901
O O4 0.849262 0.235335 0.024419
O O5 0.883698 0.150535 0.423768
O O6 0.379166 0.139244 0.645546
O O7 0.631097 0.135013 0.751900
O O8 0.873400 0.151601 0.644384
O O9 0.601875 0.299358 0.683013
O O10 0.423552 0.014699 0.167428
#
# Coordination Sequence:
#
# PCOD9460184 Si02
#       5
#     8   8   8   8   8
#     4   8  16  30  54  87 107 147 199 226 281 355
#     4   8  16  30  54  87 107 147 199 226 281 355
#     4  10  24  40  57  88 117 149 206 241 278 358
#     4  10  24  40  57  88 117 149 206 241 278 358
#     4  10  22  36  68  78 122 164 178 242 314 312
#
# _framework density 26.424693999999999
#
# number of rings (size 3 to 8) (size 9 to 14) (size 15 to 20)
#    1.200    1.600    0.000    0.000    5.600    6.400 
#    0.000    0.000    0.000    7.200    0.000    0.000 
#    0.000    0.000    0.000    0.000    0.000    0.000 
#
# Total GULP energy -223600.404139 kJ/mol
# GULP energy per Si atom -5590.010103 kJ/mol
# Density = 2.636455 g / cm^3
# Si number density = 26.424694 Si / 1000 Ang^3
#
#
#
# Elastic Constant Matrix: (Units=GPa)
#
#
# Indices 1 2 3 4 5 6 
#
# 1 237.2416 0.0730 11.9901 0.0000 0.0000 0.0000
# 2 0.0730 113.4639 38.7534 0.0000 0.0000 0.0000
# 3 11.9901 38.7534 79.1489 0.0000 0.0000 0.0000
# 4 0.0000 0.0000 0.0000 46.2384 0.0000 0.0000
# 5 0.0000 0.0000 0.0000 0.0000 27.4759 0.0000
# 6 0.0000 0.0000 0.0000 0.0000 0.0000 37.7465
#
#
#
# Elastic Compliance Matrix: (Units=1/GPa)
#
#
# Indices 1 2 3 4 5 6 
#
# 1 0.004254 0.000261 -0.000772 0.000000 0.000000 0.000000
# 2 0.000261 0.010599 -0.005229 0.000000 0.000000 0.000000
# 3 -0.000772 -0.005229 0.015312 0.000000 0.000000 0.000000
# 4 0.000000 0.000000 0.000000 0.021627 0.000000 0.000000
# 5 0.000000 0.000000 0.000000 0.000000 0.036396 0.000000
# 6 0.000000 0.000000 0.000000 0.000000 0.000000 0.026493
#
#
# Mechanical properties :
#
#
# Convention : Reuss Voigt Hill
#
# Bulk Modulus (GPa) = 53.52120 59.05419 56.28769
# Shear Modulus (GPa) = 37.76745 47.56134 42.66440
#
# Velocity S-wave (km/s) = 3.78464 4.24710 4.02252
# Velocity P-wave (km/s) = 6.27664 6.81521 6.55146
#
# Compressibility (1/GPa) = 0.01868419
#
# Stress axis : x y z
#
# Youngs Moduli (GPa) = 235.06955 94.34641 65.30930
#
# Poissons Ratio (x) = -0.02463 0.05043
# Poissons Ratio (y) = -0.06136 0.34152
# Poissons Ratio (z) = 0.18153 0.49336
#
# Static dielectric constant tensor:
#      x y z
#    x 2.228540 0.000000 0.000000 
#    y 0.000000 2.013340 0.000000 
#    z 0.000000 0.000000 2.329690 
# 
# From -- ./inp_files/10718.got.cif
#   From: 2010.05.17/outbox.cif.g08.bks.cpg/sg61_6_cif.got.tgz:10718.got - 2010.06.03 15:17:17.
