data_PCOD9460314
_publ_section_title
;
Structure prediction by ZEFSAII (Michael W. Deem and Ramdas Pophale) SiO2 
 PCOD9460314
Probable space group: P B C A
;
_chemical_formula_sum "Si O2"
_cell_formula_units_Z 40
_cell_length_a 15.684584
_cell_length_b 9.534829
_cell_length_c 12.478808
_cell_angle_alpha 90.000000
_cell_angle_beta 90.000000
_cell_angle_gamma 90.000000
_cell_volume 1866.203570
_symmetry_space_group_name_H-M "P B C A"
_symmetry_group_IT_number 61
_symmetry_cell_setting 'orthorhombic'
loop_
_space_group_symop_operation_xyz
x,y,z
1/2-x,-y,1/2+z
1/2+x,1/2-y,-z
-x,1/2+y,1/2-z
-x,-y,-z
1/2+x,y,1/2-z
1/2-x,1/2+y,z
x,1/2-y,1/2+z
loop_
_atom_site_type_symbol
_atom_site_label
_atom_site_fract_x
_atom_site_fract_y
_atom_site_fract_z
Si Si1 0.903579 0.037170 0.222057
Si Si2 0.165706 0.182603 0.624653
Si Si3 0.173096 0.680280 0.779950
Si Si4 0.588791 0.483597 0.864214
Si Si5 0.301981 0.127993 0.459568
O O1 0.893078 0.932942 0.319839
O O2 0.822304 0.026724 0.141038
O O3 0.988882 0.009345 0.156362
O O4 0.896520 0.200329 0.254793
O O5 0.242641 0.209865 0.709698
O O6 0.117493 0.327426 0.605649
O O7 0.212617 0.124216 0.519452
O O8 0.135733 0.531815 0.745458
O O9 0.186919 0.720103 0.903859
O O10 0.626777 0.588118 0.953211
#
# Coordination Sequence:
#
# PCOD9460314 Si02
#       5
#     8   8   8   8   8
#     4  10  22  41  63  93 128 165 212 269 330 373
#     4  11  22  39  67  91 124 171 218 260 320 392
#     4   9  21  39  60  91 128 166 213 254 319 392
#     4  11  21  39  66  96 126 167 213 275 319 378
#     4   9  23  39  64  88 127 170 213 250 331 397
#
# _framework density 21.433890000000002
#
# number of rings (size 3 to 8) (size 9 to 14) (size 15 to 20)
#    1.200    0.800    0.000    4.200    2.800    0.000 
#    0.000    0.000    0.000    7.200    0.000    0.000 
#    0.000    0.000    0.000    0.000    0.000    0.000 
#
# Total GULP energy -222967.610854 kJ/mol
# GULP energy per Si atom -5574.190271 kJ/mol
# Density = 2.138511 g / cm^3
# Si number density = 21.433890 Si / 1000 Ang^3
#
#
#
# Elastic Constant Matrix: (Units=GPa)
#
#
# Indices 1 2 3 4 5 6 
#
# 1 60.7245 15.4319 18.7290 0.0000 0.0000 0.0000
# 2 15.4319 48.8987 17.8087 0.0000 0.0000 0.0000
# 3 18.7290 17.8087 70.3951 0.0000 0.0000 0.0000
# 4 0.0000 0.0000 0.0000 36.1072 0.0000 0.0000
# 5 0.0000 0.0000 0.0000 0.0000 21.3960 0.0000
# 6 0.0000 0.0000 0.0000 0.0000 0.0000 25.3994
#
#
#
# Elastic Compliance Matrix: (Units=1/GPa)
#
#
# Indices 1 2 3 4 5 6 
#
# 1 0.018809 -0.004531 -0.003858 0.000000 0.000000 0.000000
# 2 -0.004531 0.023617 -0.004769 0.000000 0.000000 0.000000
# 3 -0.003858 -0.004769 0.016439 0.000000 0.000000 0.000000
# 4 0.000000 0.000000 0.000000 0.027695 0.000000 0.000000
# 5 0.000000 0.000000 0.000000 0.000000 0.046738 0.000000
# 6 0.000000 0.000000 0.000000 0.000000 0.000000 0.039371
#
#
# Mechanical properties :
#
#
# Convention : Reuss Voigt Hill
#
# Bulk Modulus (GPa) = 30.72334 31.55084 31.13709
# Shear Modulus (GPa) = 23.82826 25.11711 24.47269
#
# Velocity S-wave (km/s) = 3.33785 3.42693 3.38268
# Velocity P-wave (km/s) = 5.40556 5.51457 5.46034
#
# Compressibility (1/GPa) = 0.03254855
#
# Stress axis : x y z
#
# Youngs Moduli (GPa) = 53.16559 42.34186 60.83266
#
# Poissons Ratio (x) = 0.19185 0.23470
# Poissons Ratio (y) = 0.24089 0.29013
# Poissons Ratio (z) = 0.20512 0.20194
#
# Static dielectric constant tensor:
#      x y z
#    x 1.770870 0.000000 0.000000 
#    y 0.000000 1.779330 0.000000 
#    z 0.000000 0.000000 1.807180 
# 
# From -- ./inp_files/5598.got.cif
#   From: 2010.05.17/outbox.cif.g08.bks.cpg/sg61_3_cif.got.tgz:5598.got - 2010.06.03 15:17:17.
