data_PCOD9460331
_publ_section_title
;
Structure prediction by ZEFSAII (Michael W. Deem and Ramdas Pophale) SiO2 
 PCOD9460331
Probable space group: P B C A
;
_chemical_formula_sum "Si O2"
_cell_formula_units_Z 64
_cell_length_a 17.130560
_cell_length_b 14.617636
_cell_length_c 12.051702
_cell_angle_alpha 90.000000
_cell_angle_beta 90.000000
_cell_angle_gamma 90.000000
_cell_volume 3017.846096
_symmetry_space_group_name_H-M "P B C A"
_symmetry_group_IT_number 61
_symmetry_cell_setting 'orthorhombic'
loop_
_space_group_symop_operation_xyz
x,y,z
1/2-x,-y,1/2+z
1/2+x,1/2-y,-z
-x,1/2+y,1/2-z
-x,-y,-z
1/2+x,y,1/2-z
1/2-x,1/2+y,z
x,1/2-y,1/2+z
loop_
_atom_site_type_symbol
_atom_site_label
_atom_site_fract_x
_atom_site_fract_y
_atom_site_fract_z
Si Si1 0.305829 0.331817 0.613911
Si Si2 0.556813 0.435197 0.122794
Si Si3 0.131779 0.632716 0.355900
Si Si4 0.237822 0.874252 0.063211
Si Si5 0.404402 0.651456 0.641836
Si Si6 0.372282 0.862911 0.606618
Si Si7 0.388559 0.040056 0.705653
Si Si8 0.920782 0.337808 0.087446
O O1 0.336131 0.365001 0.731750
O O2 0.289690 0.222943 0.614243
O O3 0.220404 0.368836 0.584671
O O4 0.371776 0.351594 0.523479
O O5 0.579762 0.542454 0.125096
O O6 0.592882 0.388198 0.233135
O O7 0.463973 0.423677 0.138241
O O8 0.585833 0.391416 0.008172
O O9 0.205351 0.625536 0.438991
O O10 0.089496 0.730202 0.379663
O O11 0.329620 0.887558 0.077295
O O12 0.188636 0.944278 0.135185
O O13 0.392026 0.760346 0.641502
O O14 0.488009 0.636309 0.584281
O O15 0.397131 0.931022 0.705579
O O16 0.385562 0.096236 0.818172
#
# Coordination Sequence:
#
# PCOD9460331 Si02
#       8
#     8   8   8   8   8   8   8   8
#     4  10  24  40  64  99 131 177 217 270 344 389
#     4  11  25  40  68 101 130 176 229 273 331 408
#     4  11  22  41  69  97 134 178 224 274 328 407
#     4  10  22  41  67  92 131 170 222 270 325 399
#     4  10  25  42  64 101 135 171 224 284 341 388
#     4  11  24  40  68  98 133 175 228 274 328 402
#     4  11  22  43  69 100 128 175 228 268 329 401
#     4  10  23  43  70  98 139 177 215 284 339 394
#
# _framework density 21.207177000000001
#
# number of rings (size 3 to 8) (size 9 to 14) (size 15 to 20)
#    0.000    1.500    2.500    1.125    7.000    3.000 
#    0.000    5.000    0.000    0.000    0.000    0.000 
#    0.000    0.000    0.000    0.000    0.000    0.000 
#
# Total GULP energy -357761.396567 kJ/mol
# GULP energy per Si atom -5590.021821 kJ/mol
# Density = 2.115891 g / cm^3
# Si number density = 21.207177 Si / 1000 Ang^3
#
#
#
# Elastic Constant Matrix: (Units=GPa)
#
#
# Indices 1 2 3 4 5 6 
#
# 1 97.3182 13.9407 43.7425 0.0000 0.0000 0.0000
# 2 13.9407 57.9629 3.9235 0.0000 0.0000 0.0000
# 3 43.7425 3.9235 48.4752 0.0000 0.0000 0.0000
# 4 0.0000 0.0000 0.0000 83.9682 0.0000 0.0000
# 5 0.0000 0.0000 0.0000 0.0000 197.3042 0.0000
# 6 0.0000 0.0000 0.0000 0.0000 0.0000 8.6122
#
#
#
# Elastic Compliance Matrix: (Units=1/GPa)
#
#
# Indices 1 2 3 4 5 6 
#
# 1 0.017867 -0.003223 -0.015862 0.000000 0.000000 0.000000
# 2 -0.003223 0.017929 0.001458 0.000000 0.000000 0.000000
# 3 -0.015862 0.001458 0.034824 0.000000 0.000000 0.000000
# 4 0.000000 0.000000 0.000000 0.011909 0.000000 0.000000
# 5 0.000000 0.000000 0.000000 0.000000 0.005068 0.000000
# 6 0.000000 0.000000 0.000000 0.000000 0.000000 0.116114
#
#
# Mechanical properties :
#
#
# Convention : Reuss Voigt Hill
#
# Bulk Modulus (GPa) = 28.27647 36.32998 32.30322
# Shear Modulus (GPa) = 19.93982 67.45354 43.69668
#
# Velocity S-wave (km/s) = 3.06966 5.64588 4.54416
# Velocity P-wave (km/s) = 5.09177 7.72460 6.54200
#
# Compressibility (1/GPa) = 0.03536510
#
# Stress axis : x y z
#
# Youngs Moduli (GPa) = 55.96985 55.77547 28.71576
#
# Poissons Ratio (x) = 0.17979 0.45548
# Poissons Ratio (y) = 0.18042 -0.04186
# Poissons Ratio (z) = 0.88777 -0.08130
#
# Static dielectric constant tensor:
#      x y z
#    x 1.764460 0.000000 0.000000 
#    y 0.000000 1.812300 0.000000 
#    z 0.000000 0.000000 1.717420 
# 
# From -- ./inp_files/6283.got.cif
#   From: 2010.05.17/outbox.cif.g08.bks.cpg/sg61_4_cif.got.tgz:6283.got - 2010.06.03 15:17:17.
