data_PCOD9460794
_publ_section_title
;
Structure prediction by ZEFSAII (Michael W. Deem and Ramdas Pophale) SiO2 
 PCOD9460794
Probable space group: P B C A
;
_chemical_formula_sum "Si O2"
_cell_formula_units_Z 32
_cell_length_a 13.124384
_cell_length_b 12.793352
_cell_length_c 10.075737
_cell_angle_alpha 90.000000
_cell_angle_beta 90.000000
_cell_angle_gamma 90.000000
_cell_volume 1691.765254
_symmetry_space_group_name_H-M "P B C A"
_symmetry_group_IT_number 61
_symmetry_cell_setting 'orthorhombic'
loop_
_space_group_symop_operation_xyz
x,y,z
1/2-x,-y,1/2+z
1/2+x,1/2-y,-z
-x,1/2+y,1/2-z
-x,-y,-z
1/2+x,y,1/2-z
1/2-x,1/2+y,z
x,1/2-y,1/2+z
loop_
_atom_site_type_symbol
_atom_site_label
_atom_site_fract_x
_atom_site_fract_y
_atom_site_fract_z
Si Si1 0.167858 0.805412 0.420863
Si Si2 0.712281 0.202133 0.304942
Si Si3 0.891700 0.979344 0.667558
Si Si4 0.446014 0.631602 0.605306
O O1 0.215010 0.722508 0.320416
O O2 0.221883 0.801491 0.561898
O O3 0.180854 0.921081 0.356758
O O4 0.045377 0.798990 0.432837
O O5 0.633791 0.298332 0.317782
O O6 0.648700 0.096868 0.279526
O O7 0.002452 0.034645 0.684686
O O8 0.900241 0.915099 0.530018
#
# Coordination Sequence:
#
# PCOD9460794 Si02
#       4
#     8   8   8   8
#     4  10  25  37  68  91 128 165 213 257 320 380
#     4  12  22  42  67  97 123 175 214 255 327 384
#     4   9  22  41  61  89 135 160 204 275 308 370
#     4   9  22  42  60  92 128 168 202 272 312 364
#
# _framework density 18.915154999999999
#
# number of rings (size 3 to 8) (size 9 to 14) (size 15 to 20)
#    1.500    0.500    2.500    0.000    7.000    0.000 
#    0.000    1.250    0.000    0.000    0.000    0.000 
#    0.000    0.000    0.000    0.000    0.000    0.000 
#
# Total GULP energy -178209.253553 kJ/mol
# GULP energy per Si atom -5569.039174 kJ/mol
# Density = 1.887210 g / cm^3
# Si number density = 18.915155 Si / 1000 Ang^3
#
#
#
# Elastic Constant Matrix: (Units=GPa)
#
#
# Indices 1 2 3 4 5 6 
#
# 1 40.2278 10.2050 0.2654 0.0000 0.0000 0.0000
# 2 10.2050 33.6486 -0.9328 0.0000 0.0000 0.0000
# 3 0.2654 -0.9328 42.0051 0.0000 0.0000 0.0000
# 4 0.0000 0.0000 0.0000 14.4115 0.0000 0.0000
# 5 0.0000 0.0000 0.0000 0.0000 15.4589 0.0000
# 6 0.0000 0.0000 0.0000 0.0000 0.0000 38.4655
#
#
#
# Elastic Compliance Matrix: (Units=1/GPa)
#
#
# Indices 1 2 3 4 5 6 
#
# 1 0.026936 -0.008179 -0.000352 0.000000 0.000000 0.000000
# 2 -0.008179 0.032221 0.000767 0.000000 0.000000 0.000000
# 3 -0.000352 0.000767 0.023826 0.000000 0.000000 0.000000
# 4 0.000000 0.000000 0.000000 0.069389 0.000000 0.000000
# 5 0.000000 0.000000 0.000000 0.000000 0.064687 0.000000
# 6 0.000000 0.000000 0.000000 0.000000 0.000000 0.025997
#
#
# Mechanical properties :
#
#
# Convention : Reuss Voigt Hill
#
# Bulk Modulus (GPa) = 14.82465 14.99520 14.90993
# Shear Modulus (GPa) = 17.78928 20.75678 19.27303
#
# Velocity S-wave (km/s) = 3.07005 3.31624 3.19552
# Velocity P-wave (km/s) = 4.51900 4.75480 4.63840
#
# Compressibility (1/GPa) = 0.06745520
#
# Stress axis : x y z
#
# Youngs Moduli (GPa) = 37.12562 31.03598 41.97111
#
# Poissons Ratio (x) = 0.25384 0.01477
# Poissons Ratio (y) = 0.30364 -0.03220
# Poissons Ratio (z) = 0.01306 -0.02381
#
# Static dielectric constant tensor:
#      x y z
#    x 1.648160 0.000000 0.000000 
#    y 0.000000 1.679170 0.000000 
#    z 0.000000 0.000000 1.615640 
# 
# From -- ./inp_files/2533.got.cif
#   From: 2010.05.17/outbox.cif.g08.bks.cpg/sg61_2_cif.got.tgz:2533.got - 2010.06.03 15:17:17.
