data_PCOD9460562
_publ_section_title
;
Structure prediction by ZEFSAII (Michael W. Deem and Ramdas Pophale) SiO2 
 PCOD9460562
Probable space group: P B C A
;
_chemical_formula_sum "Si O2"
_cell_formula_units_Z 64
_cell_length_a 26.641976
_cell_length_b 4.971722
_cell_length_c 18.014071
_cell_angle_alpha 90.000000
_cell_angle_beta 90.000000
_cell_angle_gamma 90.000000
_cell_volume 2386.080763
_symmetry_space_group_name_H-M "P B C A"
_symmetry_group_IT_number 61
_symmetry_cell_setting 'orthorhombic'
loop_
_space_group_symop_operation_xyz
x,y,z
1/2-x,-y,1/2+z
1/2+x,1/2-y,-z
-x,1/2+y,1/2-z
-x,-y,-z
1/2+x,y,1/2-z
1/2-x,1/2+y,z
x,1/2-y,1/2+z
loop_
_atom_site_type_symbol
_atom_site_label
_atom_site_fract_x
_atom_site_fract_y
_atom_site_fract_z
Si Si1 0.936051 0.386110 0.754645
Si Si2 0.652102 0.184687 0.667115
Si Si3 0.580088 0.003726 0.063716
Si Si4 0.784495 0.290613 0.904834
Si Si5 0.853983 0.509175 0.298411
Si Si6 0.982588 0.002811 0.112329
Si Si7 0.215488 0.775748 0.926275
Si Si8 0.077504 0.325832 0.098584
O O1 0.894621 0.570329 0.714233
O O2 0.982968 0.441075 0.701167
O O3 0.944641 0.480872 0.838010
O O4 0.905207 0.109527 0.761617
O O5 0.628766 0.385892 0.606279
O O6 0.678408 0.352725 0.733250
O O7 0.678485 0.930518 0.629247
O O8 0.536090 0.212707 0.087225
O O9 0.560219 0.712261 0.085360
O O10 0.588622 0.023619 0.976701
O O11 0.736962 0.089095 0.898167
O O12 0.823276 0.221848 0.840115
O O13 0.803534 0.220649 0.988298
O O14 0.873556 0.698396 0.364362
O O15 0.035871 0.098388 0.082008
O O16 0.264376 0.972251 0.917493
#
# Coordination Sequence:
#
# PCOD9460562 Si02
#       8
#     8   8   8   8   8   8   8   8
#     4  10  25  42  64  97 136 178 225 276 334 404
#     4  10  23  43  63  93 134 173 217 275 332 396
#     4  11  24  45  66  99 132 180 227 284 329 400
#     4  10  24  45  68  96 132 167 214 276 333 397
#     4  11  24  43  64  99 132 178 224 269 338 406
#     4  11  25  44  68  96 139 177 228 283 334 397
#     4  10  23  42  67  97 125 166 216 269 335 400
#     4  11  26  40  70  98 134 180 230 277 342 394
#
# _framework density 26.822229
#
# number of rings (size 3 to 8) (size 9 to 14) (size 15 to 20)
#    0.000    1.500    1.250    1.500   10.500    1.000 
#    2.250    0.000    0.000    0.000    0.000    0.000 
#    0.000    0.000    0.000    0.000    0.000    0.000 
#
# Total GULP energy -358867.005976 kJ/mol
# GULP energy per Si atom -5607.296968 kJ/mol
# Density = 2.676118 g / cm^3
# Si number density = 26.822229 Si / 1000 Ang^3
#
#
#
# Elastic Constant Matrix: (Units=GPa)
#
#
# Indices 1 2 3 4 5 6 
#
# 1 82.4499 4.5988 19.0941 0.0000 0.0000 0.0000
# 2 4.5988 84.6857 9.0930 0.0000 0.0000 0.0000
# 3 19.0941 9.0930 147.9015 0.0000 0.0000 0.0000
# 4 0.0000 0.0000 0.0000 37.1960 0.0000 0.0000
# 5 0.0000 0.0000 0.0000 0.0000 26.7152 0.0000
# 6 0.0000 0.0000 0.0000 0.0000 0.0000 37.7007
#
#
#
# Elastic Compliance Matrix: (Units=1/GPa)
#
#
# Indices 1 2 3 4 5 6 
#
# 1 0.012524 -0.000510 -0.001586 0.000000 0.000000 0.000000
# 2 -0.000510 0.011908 -0.000666 0.000000 0.000000 0.000000
# 3 -0.001586 -0.000666 0.007007 0.000000 0.000000 0.000000
# 4 0.000000 0.000000 0.000000 0.026885 0.000000 0.000000
# 5 0.000000 0.000000 0.000000 0.000000 0.037432 0.000000
# 6 0.000000 0.000000 0.000000 0.000000 0.000000 0.026525
#
#
# Mechanical properties :
#
#
# Convention : Reuss Voigt Hill
#
# Bulk Modulus (GPa) = 38.58714 42.28990 40.43852
# Shear Modulus (GPa) = 36.64571 39.13913 37.89242
#
# Velocity S-wave (km/s) = 3.70028 3.82410 3.76270
# Velocity P-wave (km/s) = 5.71608 5.94132 5.82979
#
# Compressibility (1/GPa) = 0.02591537
#
# Stress axis : x y z
#
# Youngs Moduli (GPa) = 79.84544 83.98001 142.71621
#
# Poissons Ratio (x) = 0.04282 0.22628
# Poissons Ratio (y) = 0.04071 0.09509
# Poissons Ratio (z) = 0.12660 0.05595
#
# Static dielectric constant tensor:
#      x y z
#    x 2.114050 0.000000 0.000000 
#    y 0.000000 2.117680 0.000000 
#    z 0.000000 0.000000 2.088840 
# 
# From -- ./inp_files/9908.got.cif
#   From: 2010.05.17/outbox.cif.g08.bks.cpg/sg61_5_cif.got.tgz:9908.got - 2010.06.03 15:17:17.
