data_PCOD9460871
_publ_section_title
;
Structure prediction by ZEFSAII (Michael W. Deem and Ramdas Pophale) SiO2 
 PCOD9460871
Probable space group: P B C A
;
_chemical_formula_sum "Si O2"
_cell_formula_units_Z 64
_cell_length_a 7.632760
_cell_length_b 20.142069
_cell_length_c 18.466270
_cell_angle_alpha 90.000000
_cell_angle_beta 90.000000
_cell_angle_gamma 90.000000
_cell_volume 2838.996568
_symmetry_space_group_name_H-M "P B C A"
_symmetry_group_IT_number 61
_symmetry_cell_setting 'orthorhombic'
loop_
_space_group_symop_operation_xyz
x,y,z
1/2-x,-y,1/2+z
1/2+x,1/2-y,-z
-x,1/2+y,1/2-z
-x,-y,-z
1/2+x,y,1/2-z
1/2-x,1/2+y,z
x,1/2-y,1/2+z
loop_
_atom_site_type_symbol
_atom_site_label
_atom_site_fract_x
_atom_site_fract_y
_atom_site_fract_z
Si Si1 0.568951 0.786127 0.316910
Si Si2 0.998498 0.573001 0.728880
Si Si3 0.923111 0.714692 0.325686
Si Si4 0.498543 0.923303 0.728322
Si Si5 0.165628 0.686152 0.459880
Si Si6 0.154650 0.076407 0.372272
Si Si7 0.847603 0.072712 0.628159
Si Si8 0.837877 0.685894 0.550720
O O1 0.600467 0.863740 0.301594
O O2 0.743151 0.750655 0.342504
O O3 0.506966 0.751442 0.243259
O O4 0.413743 0.783324 0.374916
O O5 0.071519 0.498424 0.717809
O O6 0.992606 0.583012 0.815934
O O7 0.817253 0.574373 0.684448
O O8 0.892782 0.638210 0.303958
O O9 0.061257 0.713495 0.390098
O O10 0.502924 0.912537 0.815311
O O11 0.679530 0.921332 0.683529
O O12 0.302698 0.630952 0.432562
O O13 0.257872 0.751560 0.491422
O O14 0.011172 0.658271 0.510835
O O15 0.142433 0.001723 0.402501
O O16 0.802445 0.129313 0.570466
#
# Coordination Sequence:
#
# PCOD9460871 Si02
#       8
#     8   8   8   8   8   8   8   8
#     4  11  20  33  55  82 108 138 179 224 271 325
#     4   9  17  30  49  77 108 134 165 210 263 313
#     4  11  20  33  55  82 108 138 179 224 271 325
#     4   9  17  30  49  77 108 134 165 210 263 313
#     4  11  23  38  54  75 106 145 185 227 276 325
#     4   9  18  33  55  81 108 138 173 217 269 325
#     4   9  18  33  55  81 108 138 173 217 269 325
#     4  11  23  38  54  75 106 145 185 227 276 325
#
# _framework density 22.543175999999999
#
# number of rings (size 3 to 8) (size 9 to 14) (size 15 to 20)
#    0.000    2.000    0.000    6.000    0.000    0.500 
#    0.000    0.000    0.000    0.750    0.000    0.000 
#    0.000    0.000    0.000    0.000    0.000    0.000 
#
# Total GULP energy -357300.119638 kJ/mol
# GULP energy per Si atom -5582.814369 kJ/mol
# Density = 2.249187 g / cm^3
# Si number density = 22.543176 Si / 1000 Ang^3
#
#
#
# Elastic Constant Matrix: (Units=GPa)
#
#
# Indices 1 2 3 4 5 6 
#
# 1 36.5136 42.9721 -2.5914 0.0000 0.0000 0.0000
# 2 42.9721 122.6138 15.0604 0.0000 0.0000 0.0000
# 3 -2.5914 15.0604 56.9947 0.0000 0.0000 0.0000
# 4 0.0000 0.0000 0.0000 11.6148 0.0000 0.0000
# 5 0.0000 0.0000 0.0000 0.0000 29.9457 0.0000
# 6 0.0000 0.0000 0.0000 0.0000 0.0000 27.7240
#
#
#
# Elastic Compliance Matrix: (Units=1/GPa)
#
#
# Indices 1 2 3 4 5 6 
#
# 1 0.049188 -0.018101 0.007019 0.000000 0.000000 0.000000
# 2 -0.018101 0.015090 -0.004811 0.000000 0.000000 0.000000
# 3 0.007019 -0.004811 0.019136 0.000000 0.000000 0.000000
# 4 0.000000 0.000000 0.000000 0.086097 0.000000 0.000000
# 5 0.000000 0.000000 0.000000 0.000000 0.033394 0.000000
# 6 0.000000 0.000000 0.000000 0.000000 0.000000 0.036070
#
#
# Mechanical properties :
#
#
# Convention : Reuss Voigt Hill
#
# Bulk Modulus (GPa) = 19.36856 36.33380 27.85118
# Shear Modulus (GPa) = 17.36303 24.56896 20.96599
#
# Velocity S-wave (km/s) = 2.77828 3.30489 3.05296
# Velocity P-wave (km/s) = 4.34767 5.54215 4.98085
#
# Compressibility (1/GPa) = 0.05163006
#
# Stress axis : x y z
#
# Youngs Moduli (GPa) = 20.33030 66.26774 52.25804
#
# Poissons Ratio (x) = 1.19950 -0.36683
# Poissons Ratio (y) = 0.36800 0.25139
# Poissons Ratio (z) = -0.14271 0.31878
#
# Static dielectric constant tensor:
#      x y z
#    x 1.952210 0.000000 0.000000 
#    y 0.000000 1.861610 0.000000 
#    z 0.000000 0.000000 1.843990 
# 
# From -- ./inp_files/9051.got.cif
#   From: 2010.05.17/outbox.cif.g08.bks.cpg/sg61_5_cif.got.tgz:9051.got - 2010.06.03 15:17:17.
