data_PCOD9460720
_publ_section_title
;
Structure prediction by ZEFSAII (Michael W. Deem and Ramdas Pophale) SiO2 
 PCOD9460720
Probable space group: P B C A
;
_chemical_formula_sum "Si O2"
_cell_formula_units_Z 36
_cell_length_a 26.441861
_cell_length_b 9.073013
_cell_length_c 5.143938
_cell_angle_alpha 90.000000
_cell_angle_beta 90.000000
_cell_angle_gamma 90.000000
_cell_volume 1234.068527
_symmetry_space_group_name_H-M "P B C A"
_symmetry_group_IT_number 61
_symmetry_cell_setting 'orthorhombic'
loop_
_space_group_symop_operation_xyz
x,y,z
1/2-x,-y,1/2+z
1/2+x,1/2-y,-z
-x,1/2+y,1/2-z
-x,-y,-z
1/2+x,y,1/2-z
1/2-x,1/2+y,z
x,1/2-y,1/2+z
loop_
_atom_site_type_symbol
_atom_site_label
_atom_site_fract_x
_atom_site_fract_y
_atom_site_fract_z
Si Si1 0.936505 0.165984 0.232051
Si Si2 0.600029 0.154668 0.184502
Si Si3 0.000000 0.000000 0.500000
Si Si4 0.274599 0.836763 0.438825
Si Si5 0.168339 0.922677 0.608808
O O1 0.954767 0.216813 0.521573
O O2 0.961071 0.007900 0.240228
O O3 0.876074 0.163258 0.236761
O O4 0.609383 0.281487 0.969752
O O5 0.634960 0.018920 0.091487
O O6 0.543395 0.094268 0.158579
O O7 0.287486 0.788894 0.729505
O O8 0.301218 0.979598 0.321071
O O9 0.213744 0.850869 0.446485
#
# Coordination Sequence:
#
# PCOD9460720 Si02
#       5
#     8   8   4   8   8
#     4  11  25  44  68 101 137 178 227 282 345 416
#     4  11  25  44  68 101 137 178 227 282 345 416
#     4  10  24  42  72 100 136 178 224 280 344 412
#     4  12  26  44  68  98 134 180 232 286 346 414
#     4  11  26  45  70 100 138 183 232 289 350 416
#
# _framework density 29.171797000000002
#
# number of rings (size 3 to 8) (size 9 to 14) (size 15 to 20)
#    0.000    0.889    0.000    5.333    0.000   16.000 
#    0.000    0.000    0.000    0.000    0.000    0.000 
#    0.000    0.000    0.000    0.000    0.000    0.000 
#
# Total GULP energy -201328.060867 kJ/mol
# GULP energy per Si atom -5592.446135 kJ/mol
# Density = 2.910540 g / cm^3
# Si number density = 29.171797 Si / 1000 Ang^3
#
#
#
# Elastic Constant Matrix: (Units=GPa)
#
#
# Indices 1 2 3 4 5 6 
#
# 1 186.2651 6.3771 28.8679 0.0000 0.0000 0.0000
# 2 6.3771 41.7628 46.1763 0.0000 0.0000 0.0000
# 3 28.8679 46.1763 156.4573 0.0000 0.0000 0.0000
# 4 0.0000 0.0000 0.0000 37.6130 0.0000 0.0000
# 5 0.0000 0.0000 0.0000 0.0000 40.4200 0.0000
# 6 0.0000 0.0000 0.0000 0.0000 0.0000 71.9439
#
#
#
# Elastic Compliance Matrix: (Units=1/GPa)
#
#
# Indices 1 2 3 4 5 6 
#
# 1 0.005532 0.000421 -0.001145 0.000000 0.000000 0.000000
# 2 0.000421 0.035576 -0.010577 0.000000 0.000000 0.000000
# 3 -0.001145 -0.010577 0.009725 0.000000 0.000000 0.000000
# 4 0.000000 0.000000 0.000000 0.026587 0.000000 0.000000
# 5 0.000000 0.000000 0.000000 0.000000 0.024740 0.000000
# 6 0.000000 0.000000 0.000000 0.000000 0.000000 0.013900
#
#
# Mechanical properties :
#
#
# Convention : Reuss Voigt Hill
#
# Bulk Modulus (GPa) = 35.42360 60.81420 48.11890
# Shear Modulus (GPa) = 33.76766 50.19964 41.98365
#
# Velocity S-wave (km/s) = 3.40596 4.15279 3.79778
# Velocity P-wave (km/s) = 5.25708 6.62468 5.98010
#
# Compressibility (1/GPa) = 0.02822977
#
# Stress axis : x y z
#
# Youngs Moduli (GPa) = 180.77549 28.10907 102.83227
#
# Poissons Ratio (x) = -0.01184 0.11774
# Poissons Ratio (y) = -0.07616 1.08770
# Poissons Ratio (z) = 0.20699 0.29732
#
# Static dielectric constant tensor:
#      x y z
#    x 1.827410 0.000000 0.000000 
#    y 0.000000 1.498200 0.000000 
#    z 0.000000 0.000000 2.168800 
# 
# From -- ./inp_files/1140.got.cif
#   From: 2010.05.17/outbox.cif.g08.bks.cpg/sg61_1_cif.got.tgz:1140.got - 2010.06.03 15:17:17.
