data_PCOD9460757
_publ_section_title
;
Structure prediction by ZEFSAII (Michael W. Deem and Ramdas Pophale) SiO2 
 PCOD9460757
Probable space group: P B C A
;
_chemical_formula_sum "Si O2"
_cell_formula_units_Z 56
_cell_length_a 13.830267
_cell_length_b 19.500578
_cell_length_c 9.352527
_cell_angle_alpha 90.000000
_cell_angle_beta 90.000000
_cell_angle_gamma 90.000000
_cell_volume 2522.359701
_symmetry_space_group_name_H-M "P B C A"
_symmetry_group_IT_number 61
_symmetry_cell_setting 'orthorhombic'
loop_
_space_group_symop_operation_xyz
x,y,z
1/2-x,-y,1/2+z
1/2+x,1/2-y,-z
-x,1/2+y,1/2-z
-x,-y,-z
1/2+x,y,1/2-z
1/2-x,1/2+y,z
x,1/2-y,1/2+z
loop_
_atom_site_type_symbol
_atom_site_label
_atom_site_fract_x
_atom_site_fract_y
_atom_site_fract_z
Si Si1 0.308326 0.425956 0.492669
Si Si2 0.517101 0.396728 0.590551
Si Si3 0.219347 0.700767 0.794850
Si Si4 0.666092 0.482402 0.774012
Si Si5 0.436051 0.303748 0.824353
Si Si6 0.074765 0.885501 0.101913
Si Si7 0.072532 0.175044 0.681896
O O1 0.421990 0.435330 0.530250
O O2 0.292496 0.349317 0.431515
O O3 0.285950 0.475594 0.357959
O O4 0.243055 0.442633 0.628976
O O5 0.584548 0.436034 0.701155
O O6 0.470564 0.332462 0.673493
O O7 0.581240 0.371574 0.457960
O O8 0.172041 0.774162 0.821621
O O9 0.155456 0.664769 0.671053
O O10 0.328326 0.702639 0.743777
O O11 0.613416 0.538606 0.873512
O O12 0.503411 0.238576 0.858643
O O13 0.444004 0.362635 0.941624
O O14 0.981030 0.870072 0.197969
#
# Coordination Sequence:
#
# PCOD9460757 Si02
#       7
#     8   8   8   8   8   8   8
#     4  11  26  49  71 107 142 192 241 299 363 425
#     4  12  26  47  74 105 149 191 240 298 363 428
#     4  10  24  44  76  99 144 186 238 298 365 424
#     4  11  27  46  74 105 144 196 244 298 356 436
#     4  11  25  46  69 107 143 182 239 300 357 433
#     4  10  24  45  67 104 144 186 236 301 352 419
#     4  11  23  45  74 102 142 192 238 292 368 429
#
# _framework density 22.201433999999999
#
# number of rings (size 3 to 8) (size 9 to 14) (size 15 to 20)
#    0.000    1.143    4.286    2.143    8.000    4.000 
#    0.000    0.000    0.000    0.000    0.000    0.000 
#    0.000    0.000    0.000    0.000    0.000    0.000 
#
# Total GULP energy -313488.117681 kJ/mol
# GULP energy per Si atom -5598.002101 kJ/mol
# Density = 2.215090 g / cm^3
# Si number density = 22.201434 Si / 1000 Ang^3
#
#
#
# Elastic Constant Matrix: (Units=GPa)
#
#
# Indices 1 2 3 4 5 6 
#
# 1 80.2772 23.8420 41.6776 0.0000 0.0000 0.0000
# 2 23.8420 48.4923 26.2308 0.0000 0.0000 0.0000
# 3 41.6776 26.2308 100.8718 0.0000 0.0000 0.0000
# 4 0.0000 0.0000 0.0000 32.8882 0.0000 0.0000
# 5 0.0000 0.0000 0.0000 0.0000 33.2144 0.0000
# 6 0.0000 0.0000 0.0000 0.0000 0.0000 19.1463
#
#
#
# Elastic Compliance Matrix: (Units=1/GPa)
#
#
# Indices 1 2 3 4 5 6 
#
# 1 0.016949 -0.005289 -0.005628 0.000000 0.000000 0.000000
# 2 -0.005289 0.025648 -0.004484 0.000000 0.000000 0.000000
# 3 -0.005628 -0.004484 0.013405 0.000000 0.000000 0.000000
# 4 0.000000 0.000000 0.000000 0.030406 0.000000 0.000000
# 5 0.000000 0.000000 0.000000 0.000000 0.030107 0.000000
# 6 0.000000 0.000000 0.000000 0.000000 0.000000 0.052229
#
#
# Mechanical properties :
#
#
# Convention : Reuss Voigt Hill
#
# Bulk Modulus (GPa) = 39.68236 45.90468 42.79352
# Shear Modulus (GPa) = 24.04455 26.24250 25.14352
#
# Velocity S-wave (km/s) = 3.29449 3.44178 3.36894
# Velocity P-wave (km/s) = 5.69071 6.04283 5.86941
#
# Compressibility (1/GPa) = 0.02520012
#
# Stress axis : x y z
#
# Youngs Moduli (GPa) = 58.99898 38.98937 74.59999
#
# Poissons Ratio (x) = 0.20623 0.41982
# Poissons Ratio (y) = 0.31206 0.33452
# Poissons Ratio (z) = 0.33202 0.17483
#
# Static dielectric constant tensor:
#      x y z
#    x 1.799530 0.000000 0.000000 
#    y 0.000000 1.838610 0.000000 
#    z 0.000000 0.000000 1.796000 
# 
# From -- ./inp_files/3063.got.cif
#   From: 2010.05.17/outbox.cif.g08.bks.cpg/sg61_2_cif.got.tgz:3063.got - 2010.06.03 15:17:17.
