data_PCOD9460961
_publ_section_title
;
Structure prediction by ZEFSAII (Michael W. Deem and Ramdas Pophale) SiO2 
 PCOD9460961
Probable space group: P B C A
;
_chemical_formula_sum "Si O2"
_cell_formula_units_Z 40
_cell_length_a 9.967182
_cell_length_b 14.917914
_cell_length_c 9.723750
_cell_angle_alpha 90.000000
_cell_angle_beta 90.000000
_cell_angle_gamma 90.000000
_cell_volume 1445.820147
_symmetry_space_group_name_H-M "P B C A"
_symmetry_group_IT_number 61
_symmetry_cell_setting 'orthorhombic'
loop_
_space_group_symop_operation_xyz
x,y,z
1/2-x,-y,1/2+z
1/2+x,1/2-y,-z
-x,1/2+y,1/2-z
-x,-y,-z
1/2+x,y,1/2-z
1/2-x,1/2+y,z
x,1/2-y,1/2+z
loop_
_atom_site_type_symbol
_atom_site_label
_atom_site_fract_x
_atom_site_fract_y
_atom_site_fract_z
Si Si1 0.255859 0.389789 0.894612
Si Si2 0.919403 0.768993 0.991600
Si Si3 0.278547 0.422225 0.480511
Si Si4 0.041562 0.852113 0.252951
Si Si5 0.481867 0.446978 0.717015
O O1 0.191292 0.299290 0.945710
O O2 0.271834 0.475405 0.993718
O O3 0.396321 0.385380 0.818146
O O4 0.137555 0.428072 0.797906
O O5 0.831903 0.856175 0.962062
O O6 0.029107 0.801335 0.106401
O O7 0.973840 0.714537 0.862248
O O8 0.320780 0.382195 0.330087
O O9 0.415259 0.424982 0.569118
O O10 0.965866 0.948484 0.243494
#
# Coordination Sequence:
#
# PCOD9460961 Si02
#       5
#     8   8   8   8   8
#     4  11  23  43  72 101 140 190 231 299 357 426
#     4  12  24  42  70 105 136 186 247 283 355 428
#     4  11  23  45  70  98 146 188 236 295 368 426
#     4  11  24  43  70 101 140 190 234 296 358 424
#     4  11  22  48  71  99 147 191 236 297 372 423
#
# _framework density 27.665958
#
# number of rings (size 3 to 8) (size 9 to 14) (size 15 to 20)
#    0.000    0.800    6.000    2.400    2.800    1.600 
#    0.000    1.000    0.000    0.000    0.000    0.000 
#    0.000    0.000    0.000    0.000    0.000    0.000 
#
# Total GULP energy -224194.912178 kJ/mol
# GULP energy per Si atom -5604.872804 kJ/mol
# Density = 2.760299 g / cm^3
# Si number density = 27.665958 Si / 1000 Ang^3
#
#
#
# Elastic Constant Matrix: (Units=GPa)
#
#
# Indices 1 2 3 4 5 6 
#
# 1 89.0405 14.7415 -3.7816 0.0000 0.0000 0.0000
# 2 14.7415 148.6904 30.2176 0.0000 0.0000 0.0000
# 3 -3.7816 30.2176 94.9359 0.0000 0.0000 0.0000
# 4 0.0000 0.0000 0.0000 36.8880 0.0000 0.0000
# 5 0.0000 0.0000 0.0000 0.0000 36.0515 0.0000
# 6 0.0000 0.0000 0.0000 0.0000 0.0000 53.3605
#
#
#
# Elastic Compliance Matrix: (Units=1/GPa)
#
#
# Indices 1 2 3 4 5 6 
#
# 1 0.011486 -0.001317 0.000877 0.000000 0.000000 0.000000
# 2 -0.001317 0.007341 -0.002389 0.000000 0.000000 0.000000
# 3 0.000877 -0.002389 0.011329 0.000000 0.000000 0.000000
# 4 0.000000 0.000000 0.000000 0.027109 0.000000 0.000000
# 5 0.000000 0.000000 0.000000 0.000000 0.027738 0.000000
# 6 0.000000 0.000000 0.000000 0.000000 0.000000 0.018740
#
#
# Mechanical properties :
#
#
# Convention : Reuss Voigt Hill
#
# Bulk Modulus (GPa) = 40.82043 46.11352 43.46697
# Shear Modulus (GPa) = 42.52829 44.69262 43.61045
#
# Velocity S-wave (km/s) = 3.92498 4.02361 3.97460
# Velocity P-wave (km/s) = 5.94368 6.18790 6.06702
#
# Compressibility (1/GPa) = 0.02449754
#
# Stress axis : x y z
#
# Youngs Moduli (GPa) = 87.06175 136.21207 88.27042
#
# Poissons Ratio (x) = 0.17938 -0.07739
# Poissons Ratio (y) = 0.11465 0.21090
# Poissons Ratio (z) = -0.07633 0.32544
#
# Static dielectric constant tensor:
#      x y z
#    x 2.128290 0.000000 0.000000 
#    y 0.000000 2.139900 0.000000 
#    z 0.000000 0.000000 2.240500 
# 
# From -- ./inp_files/5101.got.cif
#   From: 2010.05.17/outbox.cif.g08.bks.cpg/sg61_3_cif.got.tgz:5101.got - 2010.06.03 15:17:17.
