data_PCOD9460554
_publ_section_title
;
Structure prediction by ZEFSAII (Michael W. Deem and Ramdas Pophale) SiO2 
 PCOD9460554
Probable space group: P B C A
;
_chemical_formula_sum "Si O2"
_cell_formula_units_Z 36
_cell_length_a 17.091703
_cell_length_b 9.537526
_cell_length_c 8.817845
_cell_angle_alpha 90.000000
_cell_angle_beta 90.000000
_cell_angle_gamma 90.000000
_cell_volume 1437.419503
_symmetry_space_group_name_H-M "P B C A"
_symmetry_group_IT_number 61
_symmetry_cell_setting 'orthorhombic'
loop_
_space_group_symop_operation_xyz
x,y,z
1/2-x,-y,1/2+z
1/2+x,1/2-y,-z
-x,1/2+y,1/2-z
-x,-y,-z
1/2+x,y,1/2-z
1/2-x,1/2+y,z
x,1/2-y,1/2+z
loop_
_atom_site_type_symbol
_atom_site_label
_atom_site_fract_x
_atom_site_fract_y
_atom_site_fract_z
Si Si1 0.186061 0.379429 0.711168
Si Si2 0.034154 0.306221 0.518675
Si Si3 0.000000 0.500000 0.000000
Si Si4 0.258771 0.899129 0.383729
Si Si5 0.084086 0.955287 0.804837
O O1 0.101788 0.355017 0.634328
O O2 0.212937 0.247063 0.811594
O O3 0.242949 0.387665 0.564025
O O4 0.186362 0.526070 0.802233
O O5 0.038154 0.409067 0.374970
O O6 0.951343 0.325482 0.602361
O O7 0.048635 0.146815 0.482149
O O8 0.061470 0.553881 0.132017
O O9 0.327281 0.011370 0.344070
#
# Coordination Sequence:
#
# PCOD9460554 Si02
#       5
#     8   8   4   8   8
#     4  11  24  46  70 100 142 188 238 295 354 430
#     4  10  23  44  67 102 143 177 233 288 351 422
#     4  12  20  38  72  98 132 178 220 286 338 412
#     4  11  24  47  69 100 139 187 238 291 360 423
#     4  10  23  42  66 104 135 179 225 288 349 413
#
# _framework density 25.044878000000001
#
# number of rings (size 3 to 8) (size 9 to 14) (size 15 to 20)
#    0.000    1.333    2.222    2.667    3.111    1.778 
#   20.000    0.000    0.000    0.000    0.000    0.000 
#    0.000    0.000    0.000    0.000    0.000    0.000 
#
# Total GULP energy -200628.899679 kJ/mol
# GULP energy per Si atom -5573.024991 kJ/mol
# Density = 2.498788 g / cm^3
# Si number density = 25.044878 Si / 1000 Ang^3
#
#
#
# Elastic Constant Matrix: (Units=GPa)
#
#
# Indices 1 2 3 4 5 6 
#
# 1 38.6502 23.4938 3.7653 0.0000 0.0000 0.0000
# 2 23.4938 62.6109 18.0564 0.0000 0.0000 0.0000
# 3 3.7653 18.0564 103.1414 0.0000 0.0000 0.0000
# 4 0.0000 0.0000 0.0000 31.4530 0.0000 0.0000
# 5 0.0000 0.0000 0.0000 0.0000 39.0945 0.0000
# 6 0.0000 0.0000 0.0000 0.0000 0.0000 36.6981
#
#
#
# Elastic Compliance Matrix: (Units=1/GPa)
#
#
# Indices 1 2 3 4 5 6 
#
# 1 0.033622 -0.012914 0.001033 0.000000 0.000000 0.000000
# 2 -0.012914 0.021781 -0.003342 0.000000 0.000000 0.000000
# 3 0.001033 -0.003342 0.010243 0.000000 0.000000 0.000000
# 4 0.000000 0.000000 0.000000 0.031793 0.000000 0.000000
# 5 0.000000 0.000000 0.000000 0.000000 0.025579 0.000000
# 6 0.000000 0.000000 0.000000 0.000000 0.000000 0.027249
#
#
# Mechanical properties :
#
#
# Convention : Reuss Voigt Hill
#
# Bulk Modulus (GPa) = 28.40808 32.78150 30.59479
# Shear Modulus (GPa) = 25.98114 32.05494 29.01804
#
# Velocity S-wave (km/s) = 3.22434 3.58145 3.40758
# Velocity P-wave (km/s) = 5.02288 5.49726 5.26542
#
# Compressibility (1/GPa) = 0.03520125
#
# Stress axis : x y z
#
# Youngs Moduli (GPa) = 29.74201 45.91101 97.63045
#
# Poissons Ratio (x) = 0.59291 -0.10089
# Poissons Ratio (y) = 0.38410 0.32625
# Poissons Ratio (z) = -0.03074 0.15342
#
# Static dielectric constant tensor:
#      x y z
#    x 2.047530 0.000000 0.000000 
#    y 0.000000 1.965000 0.000000 
#    z 0.000000 0.000000 1.936220 
# 
# From -- ./inp_files/1675.got.cif
#   From: 2010.05.17/outbox.cif.g08.bks.cpg/sg61_1_cif.got.tgz:1675.got - 2010.06.03 15:17:17.
