data_PCOD9460462
_publ_section_title
;
Structure prediction by ZEFSAII (Michael W. Deem and Ramdas Pophale) SiO2 
 PCOD9460462
Probable space group: P B C A
;
_chemical_formula_sum "Si O2"
_cell_formula_units_Z 60
_cell_length_a 28.214023
_cell_length_b 9.762100
_cell_length_c 8.645131
_cell_angle_alpha 90.000000
_cell_angle_beta 90.000000
_cell_angle_gamma 90.000000
_cell_volume 2381.112126
_symmetry_space_group_name_H-M "P B C A"
_symmetry_group_IT_number 61
_symmetry_cell_setting 'orthorhombic'
loop_
_space_group_symop_operation_xyz
x,y,z
1/2-x,-y,1/2+z
1/2+x,1/2-y,-z
-x,1/2+y,1/2-z
-x,-y,-z
1/2+x,y,1/2-z
1/2-x,1/2+y,z
x,1/2-y,1/2+z
loop_
_atom_site_type_symbol
_atom_site_label
_atom_site_fract_x
_atom_site_fract_y
_atom_site_fract_z
Si Si1 0.500000 0.000000 0.500000
Si Si2 0.815593 0.260680 0.960852
Si Si3 0.593313 0.425306 0.153225
Si Si4 0.448149 0.794767 0.045871
Si Si5 0.197441 0.012162 0.760178
Si Si6 0.852819 0.043611 0.720417
Si Si7 0.273769 0.890255 0.940470
Si Si8 0.538914 0.453195 0.738329
O O1 0.443503 0.024051 0.433219
O O2 0.487606 0.074296 0.674560
O O3 0.803048 0.367242 0.827071
O O4 0.837117 0.128247 0.872642
O O5 0.848578 0.346276 0.079289
O O6 0.767245 0.221451 0.047048
O O7 0.575976 0.385998 0.325293
O O8 0.646810 0.470445 0.164163
O O9 0.590491 0.283797 0.057203
O O10 0.473902 0.658420 0.120661
O O11 0.476094 0.885667 0.921617
O O12 0.239349 0.013975 0.883376
O O13 0.205989 0.109832 0.614112
O O14 0.817535 0.917571 0.675624
O O15 0.905930 0.986118 0.730749
#
# Coordination Sequence:
#
# PCOD9460462 Si02
#       8
#     4   8   8   8   8   8   8   8
#     4  10  24  42  78  96 140 182 230 290 350 422
#     4  11  23  43  63  95 142 176 237 289 331 437
#     4  10  22  45  68 107 136 188 226 299 351 418
#     4   9  20  42  68  99 143 169 238 281 338 436
#     4  11  24  43  66  95 143 181 236 286 357 412
#     4  11  24  43  64  96 140 180 232 289 351 408
#     4  11  23  43  62  97 135 190 227 291 337 429
#     4  10  22  45  68 107 137 185 226 294 352 417
#
# _framework density 25.198311
#
# number of rings (size 3 to 8) (size 9 to 14) (size 15 to 20)
#    0.000    1.600    2.667    1.600    3.733    0.533 
#   24.000   10.667    0.000    0.000    0.000    0.000 
#    0.000    0.000    0.000    0.000    0.000    0.000 
#
# Total GULP energy -334057.936330 kJ/mol
# GULP energy per Si atom -5567.632272 kJ/mol
# Density = 2.514096 g / cm^3
# Si number density = 25.198311 Si / 1000 Ang^3
#
#
#
# Elastic Constant Matrix: (Units=GPa)
#
#
# Indices 1 2 3 4 5 6 
#
# 1 147.6246 28.5511 31.3388 0.0000 0.0000 0.0000
# 2 28.5511 77.5941 48.2350 0.0000 0.0000 0.0000
# 3 31.3388 48.2350 131.1987 0.0000 0.0000 0.0000
# 4 0.0000 0.0000 0.0000 128.3912 0.0000 0.0000
# 5 0.0000 0.0000 0.0000 0.0000 43.8265 0.0000
# 6 0.0000 0.0000 0.0000 0.0000 0.0000 -44.8832
#
#
#
# Elastic Compliance Matrix: (Units=1/GPa)
#
#
# Indices 1 2 3 4 5 6 
#
# 1 0.007391 -0.002103 -0.000992 0.000000 0.000000 0.000000
# 2 -0.002103 0.017304 -0.005859 0.000000 0.000000 0.000000
# 3 -0.000992 -0.005859 0.010013 0.000000 0.000000 0.000000
# 4 0.000000 0.000000 0.000000 0.007789 0.000000 0.000000
# 5 0.000000 0.000000 0.000000 0.000000 0.022817 0.000000
# 6 0.000000 0.000000 0.000000 0.000000 0.000000 -0.022280
#
#
# Mechanical properties :
#
#
# Convention : Reuss Voigt Hill
#
# Bulk Modulus (GPa) = 59.52699 63.62970 61.57834
# Shear Modulus (GPa) = 75.13932 42.01974 58.57953
#
# Velocity S-wave (km/s) = 5.46662 4.08801 4.82679
# Velocity P-wave (km/s) = 7.96994 6.89846 7.45348
#
# Compressibility (1/GPa) = 0.01679910
#
# Stress axis : x y z
#
# Youngs Moduli (GPa) = 135.29420 57.79116 99.86723
#
# Poissons Ratio (x) = 0.12152 0.09911
# Poissons Ratio (y) = 0.28448 0.58516
# Poissons Ratio (z) = 0.13427 0.33862
#
# Static dielectric constant tensor:
#      x y z
#    x 2.304060 0.000000 0.000000 
#    y 0.000000 2.616760 0.000000 
#    z 0.000000 0.000000 2.329570 
# 
# From -- ./inp_files/4486.got.cif
#   From: 2010.05.17/outbox.cif.g08.bks.cpg/sg61_3_cif.got.tgz:4486.got - 2010.06.03 15:17:17.
