data_PCOD9460614
_publ_section_title
;
Structure prediction by ZEFSAII (Michael W. Deem and Ramdas Pophale) SiO2 
 PCOD9460614
Probable space group: P B C A
;
_chemical_formula_sum "Si O2"
_cell_formula_units_Z 40
_cell_length_a 9.238844
_cell_length_b 10.204907
_cell_length_c 14.244420
_cell_angle_alpha 90.000000
_cell_angle_beta 90.000000
_cell_angle_gamma 90.000000
_cell_volume 1342.985908
_symmetry_space_group_name_H-M "P B C A"
_symmetry_group_IT_number 61
_symmetry_cell_setting 'orthorhombic'
loop_
_space_group_symop_operation_xyz
x,y,z
1/2-x,-y,1/2+z
1/2+x,1/2-y,-z
-x,1/2+y,1/2-z
-x,-y,-z
1/2+x,y,1/2-z
1/2-x,1/2+y,z
x,1/2-y,1/2+z
loop_
_atom_site_type_symbol
_atom_site_label
_atom_site_fract_x
_atom_site_fract_y
_atom_site_fract_z
Si Si1 0.996403 0.917798 0.632674
Si Si2 0.569143 0.708038 0.599681
Si Si3 0.451456 0.616776 0.875590
Si Si4 0.202717 0.566339 0.738363
Si Si5 0.712575 0.360817 0.952301
O O1 0.172505 0.911346 0.625857
O O2 0.951184 0.771721 0.605406
O O3 0.968902 0.055842 0.580356
O O4 0.883889 0.944936 0.716805
O O5 0.637917 0.696232 0.703105
O O6 0.686244 0.733571 0.518851
O O7 0.423820 0.790511 0.595497
O O8 0.364722 0.575090 0.780228
O O9 0.618937 0.582446 0.859714
O O10 0.361598 0.555895 0.961991
#
# Coordination Sequence:
#
# PCOD9460614 Si02
#       5
#     8   8   8   8   8
#     4  10  23  44  69  95 146 178 229 295 354 410
#     4   9  22  41  66  98 135 186 225 292 347 411
#     4  11  23  41  71  98 132 184 233 286 348 417
#     4   9  25  43  65  97 139 181 229 283 359 406
#     4  11  20  39  73  95 137 184 231 293 345 413
#
# _framework density 29.784379999999999
#
# number of rings (size 3 to 8) (size 9 to 14) (size 15 to 20)
#    1.200    0.800    2.000    0.600    2.800    1.600 
#    0.000    1.000    8.800    0.000    0.000    0.000 
#    0.000    0.000    0.000    0.000    0.000    0.000 
#
# Total GULP energy -223075.557916 kJ/mol
# GULP energy per Si atom -5576.888948 kJ/mol
# Density = 2.971659 g / cm^3
# Si number density = 29.784380 Si / 1000 Ang^3
#
#
#
# Elastic Constant Matrix: (Units=GPa)
#
#
# Indices 1 2 3 4 5 6 
#
# 1 228.4224 35.9005 5.3485 0.0000 0.0000 0.0000
# 2 35.9005 76.3059 -8.2849 0.0000 0.0000 0.0000
# 3 5.3485 -8.2849 60.1420 0.0000 0.0000 0.0000
# 4 0.0000 0.0000 0.0000 22.5895 0.0000 0.0000
# 5 0.0000 0.0000 0.0000 0.0000 49.0664 0.0000
# 6 0.0000 0.0000 0.0000 0.0000 0.0000 57.1576
#
#
#
# Elastic Compliance Matrix: (Units=1/GPa)
#
#
# Indices 1 2 3 4 5 6 
#
# 1 0.004760 -0.002320 -0.000743 0.000000 0.000000 0.000000
# 2 -0.002320 0.014435 0.002195 0.000000 0.000000 0.000000
# 3 -0.000743 0.002195 0.016996 0.000000 0.000000 0.000000
# 4 0.000000 0.000000 0.000000 0.044268 0.000000 0.000000
# 5 0.000000 0.000000 0.000000 0.000000 0.020381 0.000000
# 6 0.000000 0.000000 0.000000 0.000000 0.000000 0.017495
#
#
# Mechanical properties :
#
#
# Convention : Reuss Voigt Hill
#
# Bulk Modulus (GPa) = 29.02395 47.86648 38.44522
# Shear Modulus (GPa) = 38.00660 47.88979 42.94819
#
# Velocity S-wave (km/s) = 3.57607 4.01419 3.80145
# Velocity P-wave (km/s) = 5.17850 6.13114 5.67485
#
# Compressibility (1/GPa) = 0.03445430
#
# Stress axis : x y z
#
# Youngs Moduli (GPa) = 210.08874 69.27597 58.83828
#
# Poissons Ratio (x) = 0.16073 0.04371
# Poissons Ratio (y) = 0.48743 -0.12914
# Poissons Ratio (z) = 0.15608 -0.15205
#
# Static dielectric constant tensor:
#      x y z
#    x 2.421520 0.000000 0.000000 
#    y 0.000000 2.369440 0.000000 
#    z 0.000000 0.000000 2.779480 
# 
# From -- ./inp_files/8850.got.cif
#   From: 2010.05.17/outbox.cif.g08.bks.cpg/sg61_5_cif.got.tgz:8850.got - 2010.06.03 15:17:17.
