data_PCOD9460848
_publ_section_title
;
Structure prediction by ZEFSAII (Michael W. Deem and Ramdas Pophale) SiO2 
 PCOD9460848
Probable space group: P B C A
;
_chemical_formula_sum "Si O2"
_cell_formula_units_Z 32
_cell_length_a 24.420649
_cell_length_b 4.866888
_cell_length_c 10.397973
_cell_angle_alpha 90.000000
_cell_angle_beta 90.000000
_cell_angle_gamma 90.000000
_cell_volume 1235.825747
_symmetry_space_group_name_H-M "P B C A"
_symmetry_group_IT_number 61
_symmetry_cell_setting 'orthorhombic'
loop_
_space_group_symop_operation_xyz
x,y,z
1/2-x,-y,1/2+z
1/2+x,1/2-y,-z
-x,1/2+y,1/2-z
-x,-y,-z
1/2+x,y,1/2-z
1/2-x,1/2+y,z
x,1/2-y,1/2+z
loop_
_atom_site_type_symbol
_atom_site_label
_atom_site_fract_x
_atom_site_fract_y
_atom_site_fract_z
Si Si1 0.634272 0.588176 0.688443
Si Si2 0.884486 0.506967 0.458455
Si Si3 0.535055 0.271511 0.777028
Si Si4 0.286972 0.593881 0.496078
O O1 0.630638 0.684095 0.834813
O O2 0.585986 0.360182 0.687121
O O3 0.692048 0.450310 0.651590
O O4 0.621845 0.821103 0.583755
O O5 0.942960 0.635203 0.417164
O O6 0.840676 0.754360 0.451137
O O7 0.484172 0.461865 0.736154
O O8 0.262830 0.296979 0.525297
#
# Coordination Sequence:
#
# PCOD9460848 Si02
#       4
#     8   8   8   8
#     4  10  26  48  78 113 159 193 269 314 379 467
#     4  10  26  48  78 113 159 193 269 314 379 467
#     4  10  26  46  76 112 154 206 250 318 392 448
#     4  12  26  48  74 108 148 202 246 314 386 442
#
# _framework density 25.893619999999999
#
# number of rings (size 3 to 8) (size 9 to 14) (size 15 to 20)
#    1.500    0.000    2.500    0.000    7.000    6.000 
#    0.000    0.000    0.000    0.000    0.000    0.000 
#    0.000    0.000    0.000    0.000    0.000    0.000 
#
# Total GULP energy -178667.501254 kJ/mol
# GULP energy per Si atom -5583.359414 kJ/mol
# Density = 2.583468 g / cm^3
# Si number density = 25.893620 Si / 1000 Ang^3
#
#
#
# Elastic Constant Matrix: (Units=GPa)
#
#
# Indices 1 2 3 4 5 6 
#
# 1 105.4071 15.8414 4.2731 0.0000 0.0000 0.0000
# 2 15.8414 108.8973 46.5351 0.0000 0.0000 0.0000
# 3 4.2731 46.5351 86.4450 0.0000 0.0000 0.0000
# 4 0.0000 0.0000 0.0000 21.8265 0.0000 0.0000
# 5 0.0000 0.0000 0.0000 0.0000 38.4256 0.0000
# 6 0.0000 0.0000 0.0000 0.0000 0.0000 42.3085
#
#
#
# Elastic Compliance Matrix: (Units=1/GPa)
#
#
# Indices 1 2 3 4 5 6 
#
# 1 0.009708 -0.001568 0.000364 0.000000 0.000000 0.000000
# 2 -0.001568 0.012180 -0.006479 0.000000 0.000000 0.000000
# 3 0.000364 -0.006479 0.015038 0.000000 0.000000 0.000000
# 4 0.000000 0.000000 0.000000 0.045816 0.000000 0.000000
# 5 0.000000 0.000000 0.000000 0.000000 0.026024 0.000000
# 6 0.000000 0.000000 0.000000 0.000000 0.000000 0.023636
#
#
# Mechanical properties :
#
#
# Convention : Reuss Voigt Hill
#
# Bulk Modulus (GPa) = 46.38240 48.22763 47.30502
# Shear Modulus (GPa) = 32.26764 36.11875 34.19320
#
# Velocity S-wave (km/s) = 3.53393 3.73887 3.63785
# Velocity P-wave (km/s) = 5.88244 6.10775 5.99616
#
# Compressibility (1/GPa) = 0.02155990
#
# Stress axis : x y z
#
# Youngs Moduli (GPa) = 103.00901 82.10350 66.49868
#
# Poissons Ratio (x) = 0.12872 -0.02421
# Poissons Ratio (y) = 0.16150 0.43085
# Poissons Ratio (z) = -0.03751 0.53196
#
# Static dielectric constant tensor:
#      x y z
#    x 2.055790 0.000000 0.000000 
#    y 0.000000 2.025190 0.000000 
#    z 0.000000 0.000000 2.170390 
# 
# From -- ./inp_files/4542.got.cif
#   From: 2010.05.17/outbox.cif.g08.bks.cpg/sg61_3_cif.got.tgz:4542.got - 2010.06.03 15:17:17.
