data_PCOD9460925
_publ_section_title
;
Structure prediction by ZEFSAII (Michael W. Deem and Ramdas Pophale) SiO2 
 PCOD9460925
Probable space group: P B C A
;
_chemical_formula_sum "Si O2"
_cell_formula_units_Z 64
_cell_length_a 18.821208
_cell_length_b 18.480353
_cell_length_c 7.908910
_cell_angle_alpha 90.000000
_cell_angle_beta 90.000000
_cell_angle_gamma 90.000000
_cell_volume 2750.897384
_symmetry_space_group_name_H-M "P B C A"
_symmetry_group_IT_number 61
_symmetry_cell_setting 'orthorhombic'
loop_
_space_group_symop_operation_xyz
x,y,z
1/2-x,-y,1/2+z
1/2+x,1/2-y,-z
-x,1/2+y,1/2-z
-x,-y,-z
1/2+x,y,1/2-z
1/2-x,1/2+y,z
x,1/2-y,1/2+z
loop_
_atom_site_type_symbol
_atom_site_label
_atom_site_fract_x
_atom_site_fract_y
_atom_site_fract_z
Si Si1 0.830144 0.157703 0.168101
Si Si2 0.271109 0.201395 0.982180
Si Si3 0.261120 0.036224 0.524314
Si Si4 0.975857 0.299818 0.497478
Si Si5 0.523104 0.860994 0.116575
Si Si6 0.668456 0.574349 0.656498
Si Si7 0.868754 0.859409 0.451568
Si Si8 0.626893 0.200122 0.334381
O O1 0.821140 0.180204 0.361001
O O2 0.781514 0.215501 0.065514
O O3 0.799259 0.078855 0.128252
O O4 0.909328 0.168319 0.099691
O O5 0.193019 0.180755 0.045559
O O6 0.301884 0.155908 0.825876
O O7 0.319755 0.031707 0.670219
O O8 0.195281 0.086600 0.582319
O O9 0.223219 0.963351 0.469786
O O10 0.971050 0.212153 0.503747
O O11 0.973391 0.330196 0.308180
O O12 0.051137 0.318269 0.583949
O O13 0.587950 0.916471 0.098663
O O14 0.446045 0.893707 0.080117
O O15 0.866832 0.832834 0.647623
O O16 0.867673 0.787821 0.333979
#
# Coordination Sequence:
#
# PCOD9460925 Si02
#       8
#     8   8   8   8   8   8   8   8
#     4  12  22  40  69 101 129 173 222 279 329 391
#     4  12  23  39  70 101 129 173 226 278 330 393
#     4  12  26  47  66  94 131 177 225 280 333 400
#     4  11  22  38  66 104 140 169 214 271 336 391
#     4  11  23  41  65 101 136 174 215 273 334 402
#     4  12  28  45  68  93 132 178 227 277 339 398
#     4  11  24  40  69  99 140 171 219 272 335 398
#     4  11  22  38  65 105 135 171 213 274 333 391
#
# _framework density 23.265135000000001
#
# number of rings (size 3 to 8) (size 9 to 14) (size 15 to 20)
#    0.000    0.500    5.000    5.250    5.250    0.500 
#    0.000    0.000    0.000    2.250    0.000    0.000 
#    0.000    0.000    0.000    0.000    0.000    0.000 
#
# Total GULP energy -358347.089583 kJ/mol
# GULP energy per Si atom -5599.173275 kJ/mol
# Density = 2.321218 g / cm^3
# Si number density = 23.265135 Si / 1000 Ang^3
#
#
#
# Elastic Constant Matrix: (Units=GPa)
#
#
# Indices 1 2 3 4 5 6 
#
# 1 134.9197 2.0519 -2.1948 0.0000 0.0000 0.0000
# 2 2.0519 30.3603 -10.9744 0.0000 0.0000 0.0000
# 3 -2.1948 -10.9744 73.6419 0.0000 0.0000 0.0000
# 4 0.0000 0.0000 0.0000 25.9351 0.0000 0.0000
# 5 0.0000 0.0000 0.0000 0.0000 34.1821 0.0000
# 6 0.0000 0.0000 0.0000 0.0000 0.0000 23.6302
#
#
#
# Elastic Compliance Matrix: (Units=1/GPa)
#
#
# Indices 1 2 3 4 5 6 
#
# 1 0.007421 -0.000446 0.000155 0.000000 0.000000 0.000000
# 2 -0.000446 0.034840 0.005179 0.000000 0.000000 0.000000
# 3 0.000155 0.005179 0.014356 0.000000 0.000000 0.000000
# 4 0.000000 0.000000 0.000000 0.038558 0.000000 0.000000
# 5 0.000000 0.000000 0.000000 0.000000 0.029255 0.000000
# 6 0.000000 0.000000 0.000000 0.000000 0.000000 0.042319
#
#
# Mechanical properties :
#
#
# Convention : Reuss Voigt Hill
#
# Bulk Modulus (GPa) = 15.06203 24.07638 19.56920
# Shear Modulus (GPa) = 27.91690 33.41878 30.66784
#
# Velocity S-wave (km/s) = 3.46778 3.79414 3.63463
# Velocity P-wave (km/s) = 4.74575 5.43739 5.10330
#
# Compressibility (1/GPa) = 0.06639211
#
# Stress axis : x y z
#
# Youngs Moduli (GPa) = 134.75067 28.70282 69.65936
#
# Poissons Ratio (x) = 0.01279 -0.01078
# Poissons Ratio (y) = 0.06005 -0.36074
# Poissons Ratio (z) = -0.02086 -0.14864
#
# Static dielectric constant tensor:
#      x y z
#    x 1.892160 0.000000 0.000000 
#    y 0.000000 1.851740 0.000000 
#    z 0.000000 0.000000 1.906680 
# 
# From -- ./inp_files/4122.got.cif
#   From: 2010.05.17/outbox.cif.g08.bks.cpg/sg61_3_cif.got.tgz:4122.got - 2010.06.03 15:17:17.
