data_PCOD9460330
_publ_section_title
;
Structure prediction by ZEFSAII (Michael W. Deem and Ramdas Pophale) SiO2 
 PCOD9460330
Probable space group: P B C A
;
_chemical_formula_sum "Si O2"
_cell_formula_units_Z 60
_cell_length_a 8.322486
_cell_length_b 23.077982
_cell_length_c 12.413299
_cell_angle_alpha 90.000000
_cell_angle_beta 90.000000
_cell_angle_gamma 90.000000
_cell_volume 2384.174946
_symmetry_space_group_name_H-M "P B C A"
_symmetry_group_IT_number 61
_symmetry_cell_setting 'orthorhombic'
loop_
_space_group_symop_operation_xyz
x,y,z
1/2-x,-y,1/2+z
1/2+x,1/2-y,-z
-x,1/2+y,1/2-z
-x,-y,-z
1/2+x,y,1/2-z
1/2-x,1/2+y,z
x,1/2-y,1/2+z
loop_
_atom_site_type_symbol
_atom_site_label
_atom_site_fract_x
_atom_site_fract_y
_atom_site_fract_z
Si Si1 0.000000 0.500000 0.500000
Si Si2 0.955711 0.820080 0.342511
Si Si3 0.210382 0.426275 0.099616
Si Si4 0.184385 0.186045 0.884741
Si Si5 0.203604 0.176915 0.342153
Si Si6 0.820051 0.485397 0.725749
Si Si7 0.021380 0.431022 0.899297
Si Si8 0.437653 0.683529 0.114559
O O1 0.864457 0.452784 0.457579
O O2 0.945358 0.487758 0.627622
O O3 0.811928 0.857446 0.392823
O O4 0.931117 0.826563 0.214796
O O5 0.945983 0.753643 0.379612
O O6 0.136884 0.838267 0.368360
O O7 0.196176 0.451917 0.218998
O O8 0.057342 0.444725 0.024313
O O9 0.190732 0.256611 0.879947
O O10 0.124366 0.164737 0.999297
O O11 0.065275 0.136908 0.390900
O O12 0.384945 0.158370 0.367037
O O13 0.176584 0.170941 0.214624
O O14 0.657785 0.462828 0.671732
O O15 0.863492 0.447442 0.832900
#
# Coordination Sequence:
#
# PCOD9460330 Si02
#       8
#     4   8   8   8   8   8   8   8
#     4  10  24  46  70 102 142 188 226 306 360 418
#     4  10  24  41  68 104 141 185 241 288 360 440
#     4  11  24  44  71  99 144 183 235 300 353 430
#     4  10  23  42  66 102 142 187 232 291 358 431
#     4  10  22  41  66  99 143 183 239 290 350 433
#     4  11  23  44  66  99 137 177 240 286 356 422
#     4  11  23  41  67  97 132 185 228 292 348 422
#     4  10  22  43  67 101 143 189 230 295 354 431
#
# _framework density 25.165939000000002
#
# number of rings (size 3 to 8) (size 9 to 14) (size 15 to 20)
#    0.000    1.600    1.333    2.000    1.867   11.733 
#    4.800    0.000    0.000    0.000    0.000    0.000 
#    0.000    0.000    0.000    0.000    0.000    0.000 
#
# Total GULP energy -334760.511220 kJ/mol
# GULP energy per Si atom -5579.341854 kJ/mol
# Density = 2.510866 g / cm^3
# Si number density = 25.165939 Si / 1000 Ang^3
#
#
#
# Elastic Constant Matrix: (Units=GPa)
#
#
# Indices 1 2 3 4 5 6 
#
# 1 84.8511 3.6499 17.3465 0.0000 0.0000 0.0000
# 2 3.6499 63.2790 -33.8672 0.0000 0.0000 0.0000
# 3 17.3465 -33.8672 129.7339 0.0000 0.0000 0.0000
# 4 0.0000 0.0000 0.0000 24.2987 0.0000 0.0000
# 5 0.0000 0.0000 0.0000 0.0000 28.9851 0.0000
# 6 0.0000 0.0000 0.0000 0.0000 0.0000 25.4111
#
#
#
# Elastic Compliance Matrix: (Units=1/GPa)
#
#
# Indices 1 2 3 4 5 6 
#
# 1 0.012300 -0.001848 -0.002127 0.000000 0.000000 0.000000
# 2 -0.001848 0.018647 0.005115 0.000000 0.000000 0.000000
# 3 -0.002127 0.005115 0.009328 0.000000 0.000000 0.000000
# 4 0.000000 0.000000 0.000000 0.041154 0.000000 0.000000
# 5 0.000000 0.000000 0.000000 0.000000 0.034500 0.000000
# 6 0.000000 0.000000 0.000000 0.000000 0.000000 0.039353
#
#
# Mechanical properties :
#
#
# Convention : Reuss Voigt Hill
#
# Bulk Modulus (GPa) = 23.49902 28.01359 25.75630
# Shear Modulus (GPa) = 29.90666 35.12131 32.51399
#
# Velocity S-wave (km/s) = 3.45103 3.73981 3.59832
# Velocity P-wave (km/s) = 5.02368 5.45930 5.24601
#
# Compressibility (1/GPa) = 0.04255497
#
# Stress axis : x y z
#
# Youngs Moduli (GPa) = 81.30310 53.62750 107.20718
#
# Poissons Ratio (x) = 0.09909 0.22802
# Poissons Ratio (y) = 0.15023 -0.54836
# Poissons Ratio (z) = 0.17293 -0.27430
#
# Static dielectric constant tensor:
#      x y z
#    x 1.955660 0.000000 0.000000 
#    y 0.000000 2.053740 0.000000 
#    z 0.000000 0.000000 1.958140 
# 
# From -- ./inp_files/4915.got.cif
#   From: 2010.05.17/outbox.cif.g08.bks.cpg/sg61_3_cif.got.tgz:4915.got - 2010.06.03 15:17:17.
