data_PCOD9460725
_publ_section_title
;
Structure prediction by ZEFSAII (Michael W. Deem and Ramdas Pophale) SiO2 
 PCOD9460725
Probable space group: P B C A
;
_chemical_formula_sum "Si O2"
_cell_formula_units_Z 48
_cell_length_a 16.094090
_cell_length_b 6.814281
_cell_length_c 14.777625
_cell_angle_alpha 90.000000
_cell_angle_beta 90.000000
_cell_angle_gamma 90.000000
_cell_volume 1620.656987
_symmetry_space_group_name_H-M "P B C A"
_symmetry_group_IT_number 61
_symmetry_cell_setting 'orthorhombic'
loop_
_space_group_symop_operation_xyz
x,y,z
1/2-x,-y,1/2+z
1/2+x,1/2-y,-z
-x,1/2+y,1/2-z
-x,-y,-z
1/2+x,y,1/2-z
1/2-x,1/2+y,z
x,1/2-y,1/2+z
loop_
_atom_site_type_symbol
_atom_site_label
_atom_site_fract_x
_atom_site_fract_y
_atom_site_fract_z
Si Si1 0.242326 0.923004 0.656076
Si Si2 0.232269 0.175288 0.515992
Si Si3 0.059609 0.898145 0.639244
Si Si4 0.641956 0.445705 0.094727
Si Si5 0.385375 0.607656 0.293263
Si Si6 0.047260 0.710079 0.927600
O O1 0.263625 0.675567 0.629283
O O2 0.147360 0.886706 0.688454
O O3 0.329030 0.955216 0.710275
O O4 0.227364 0.921274 0.540092
O O5 0.295035 0.117568 0.434382
O O6 0.147747 0.274508 0.480636
O O7 0.109491 0.936106 0.370356
O O8 0.055755 0.801673 0.537620
O O9 0.016635 0.333902 0.796569
O O10 0.037639 0.120145 0.610681
O O11 0.660021 0.310089 0.178588
O O12 0.557833 0.564706 0.098241
#
# Coordination Sequence:
#
# PCOD9460725 Si02
#       6
#     8   8   8   8   8   8
#     4  11  22  50  67 114 171 208 263 343 426 506
#     4  10  25  42  74 109 155 227 262 328 426 492
#     4   9  20  44  79 114 166 209 264 356 411 486
#     4  11  22  44  75 116 158 207 288 339 396 506
#     4  10  24  42  80 116 162 213 272 343 427 486
#     4   9  20  44  75 122 157 196 284 349 401 495
#
# _framework density 29.617616999999999
#
# number of rings (size 3 to 8) (size 9 to 14) (size 15 to 20)
#    1.000    1.000    1.667    1.000    2.333    2.000 
#    6.000    1.667    0.000    8.000    0.000    3.500 
#    0.000    0.000    0.000    0.000    0.000    0.000 
#
# Total GULP energy -267259.060618 kJ/mol
# GULP energy per Si atom -5567.897096 kJ/mol
# Density = 2.955021 g / cm^3
# Si number density = 29.617617 Si / 1000 Ang^3
#
#
#
# Elastic Constant Matrix: (Units=GPa)
#
#
# Indices 1 2 3 4 5 6 
#
# 1 119.5843 37.4733 20.0759 0.0000 0.0000 0.0000
# 2 37.4733 231.3125 47.8212 0.0000 0.0000 0.0000
# 3 20.0759 47.8212 72.6284 0.0000 0.0000 0.0000
# 4 0.0000 0.0000 0.0000 68.8417 0.0000 0.0000
# 5 0.0000 0.0000 0.0000 0.0000 52.2908 0.0000
# 6 0.0000 0.0000 0.0000 0.0000 0.0000 57.3371
#
#
#
# Elastic Compliance Matrix: (Units=1/GPa)
#
#
# Indices 1 2 3 4 5 6 
#
# 1 0.009002 -0.001093 -0.001769 0.000000 0.000000 0.000000
# 2 -0.001093 0.005137 -0.003080 0.000000 0.000000 0.000000
# 3 -0.001769 -0.003080 0.016286 0.000000 0.000000 0.000000
# 4 0.000000 0.000000 0.000000 0.014526 0.000000 0.000000
# 5 0.000000 0.000000 0.000000 0.000000 0.019124 0.000000
# 6 0.000000 0.000000 0.000000 0.000000 0.000000 0.017441
#
#
# Mechanical properties :
#
#
# Convention : Reuss Voigt Hill
#
# Bulk Modulus (GPa) = 53.93473 70.47402 62.20437
# Shear Modulus (GPa) = 50.21139 56.90424 53.55781
#
# Velocity S-wave (km/s) = 4.12190 4.38802 4.25704
# Velocity P-wave (km/s) = 6.39556 7.03699 6.72393
#
# Compressibility (1/GPa) = 0.01854093
#
# Stress axis : x y z
#
# Youngs Moduli (GPa) = 111.09099 194.66642 61.40290
#
# Poissons Ratio (x) = 0.21269 0.10861
# Poissons Ratio (y) = 0.12138 0.18914
# Poissons Ratio (z) = 0.19650 0.59964
#
# Static dielectric constant tensor:
#      x y z
#    x 2.435410 0.000000 0.000000 
#    y 0.000000 2.569220 0.000000 
#    z 0.000000 0.000000 2.384610 
# 
# From -- ./inp_files/8114.got.cif
#   From: 2010.05.17/outbox.cif.g08.bks.cpg/sg61_5_cif.got.tgz:8114.got - 2010.06.03 15:17:17.
