data_PCOD9460422
_publ_section_title
;
Structure prediction by ZEFSAII (Michael W. Deem and Ramdas Pophale) SiO2 
 PCOD9460422
Probable space group: P B C A
;
_chemical_formula_sum "Si O2"
_cell_formula_units_Z 64
_cell_length_a 11.056487
_cell_length_b 9.566459
_cell_length_c 25.707077
_cell_angle_alpha 90.000000
_cell_angle_beta 90.000000
_cell_angle_gamma 90.000000
_cell_volume 2719.074284
_symmetry_space_group_name_H-M "P B C A"
_symmetry_group_IT_number 61
_symmetry_cell_setting 'orthorhombic'
loop_
_space_group_symop_operation_xyz
x,y,z
1/2-x,-y,1/2+z
1/2+x,1/2-y,-z
-x,1/2+y,1/2-z
-x,-y,-z
1/2+x,y,1/2-z
1/2-x,1/2+y,z
x,1/2-y,1/2+z
loop_
_atom_site_type_symbol
_atom_site_label
_atom_site_fract_x
_atom_site_fract_y
_atom_site_fract_z
Si Si1 0.402686 0.913071 0.826409
Si Si2 0.377328 0.380158 0.738931
Si Si3 0.390662 0.065192 0.581937
Si Si4 0.190020 0.716736 0.839205
Si Si5 0.164045 0.063682 0.515912
Si Si6 0.720787 0.353355 0.321152
Si Si7 0.028732 0.258266 0.598090
Si Si8 0.497523 0.856591 0.929783
O O1 0.481484 0.883510 0.775903
O O2 0.324003 0.778330 0.841893
O O3 0.499215 0.927957 0.873307
O O4 0.327294 0.055916 0.821994
O O5 0.365823 0.326469 0.797593
O O6 0.302005 0.263311 0.707045
O O7 0.324046 0.528943 0.719547
O O8 0.301999 0.066081 0.532235
O O9 0.303760 0.083868 0.632441
O O10 0.480072 0.194464 0.577231
O O11 0.457109 0.920400 0.587204
O O12 0.110805 0.725714 0.891194
O O13 0.090184 0.175563 0.550841
O O14 0.126135 0.098330 0.457611
O O15 0.105475 0.918118 0.535004
O O16 0.607067 0.283575 0.350756
#
# Coordination Sequence:
#
# PCOD9460422 Si02
#       8
#     8   8   8   8   8   8   8   8
#     4  12  27  50  67 104 150 187 235 299 368 428
#     4  12  25  45  74 101 140 184 245 290 360 432
#     4  11  22  40  72 107 133 184 240 291 360 426
#     4  12  29  44  70 100 147 192 234 299 365 427
#     4  10  22  43  72 102 142 186 238 295 357 433
#     4  11  21  42  71 102 134 183 231 303 343 416
#     4  11  23  43  67 101 146 179 241 298 349 425
#     4  11  23  45  72 101 145 188 230 301 366 426
#
# _framework density 23.537420999999998
#
# number of rings (size 3 to 8) (size 9 to 14) (size 15 to 20)
#    0.000    0.750    5.000    3.000    3.500    3.500 
#    2.250    0.000    0.000    0.000    0.000    0.000 
#    0.000    0.000    0.000    0.000    0.000    0.000 
#
# Total GULP energy -358288.852835 kJ/mol
# GULP energy per Si atom -5598.263326 kJ/mol
# Density = 2.348385 g / cm^3
# Si number density = 23.537421 Si / 1000 Ang^3
#
#
#
# Elastic Constant Matrix: (Units=GPa)
#
#
# Indices 1 2 3 4 5 6 
#
# 1 63.7956 21.5076 -14.5274 0.0000 0.0000 0.0000
# 2 21.5076 158.5014 -2.2569 0.0000 0.0000 0.0000
# 3 -14.5274 -2.2569 44.2933 0.0000 0.0000 0.0000
# 4 0.0000 0.0000 0.0000 9.0147 0.0000 0.0000
# 5 0.0000 0.0000 0.0000 0.0000 32.5178 0.0000
# 6 0.0000 0.0000 0.0000 0.0000 0.0000 33.6674
#
#
#
# Elastic Compliance Matrix: (Units=1/GPa)
#
#
# Indices 1 2 3 4 5 6 
#
# 1 0.017760 -0.002329 0.005706 0.000000 0.000000 0.000000
# 2 -0.002329 0.006619 -0.000426 0.000000 0.000000 0.000000
# 3 0.005706 -0.000426 0.024427 0.000000 0.000000 0.000000
# 4 0.000000 0.000000 0.000000 0.110930 0.000000 0.000000
# 5 0.000000 0.000000 0.000000 0.000000 0.030752 0.000000
# 6 0.000000 0.000000 0.000000 0.000000 0.000000 0.029702
#
#
# Mechanical properties :
#
#
# Convention : Reuss Voigt Hill
#
# Bulk Modulus (GPa) = 18.27912 30.67076 24.47494
# Shear Modulus (GPa) = 21.50322 32.49778 27.00050
#
# Velocity S-wave (km/s) = 3.02582 3.71979 3.39061
# Velocity P-wave (km/s) = 4.47105 5.61320 5.07436
#
# Compressibility (1/GPa) = 0.05470723
#
# Stress axis : x y z
#
# Youngs Moduli (GPa) = 56.30788 151.08029 40.93903
#
# Poissons Ratio (x) = 0.35181 -0.23360
# Poissons Ratio (y) = 0.13112 0.01746
# Poissons Ratio (z) = -0.32130 0.06443
#
# Static dielectric constant tensor:
#      x y z
#    x 1.903550 0.000000 0.000000 
#    y 0.000000 1.855340 0.000000 
#    z 0.000000 0.000000 1.925940 
# 
# From -- ./inp_files/11793.got.cif
#   From: 2010.05.17/outbox.cif.g08.bks.cpg/sg61_6_cif.got.tgz:11793.got - 2010.06.03 15:17:17.
