data_PCOD9460290
_publ_section_title
;
Structure prediction by ZEFSAII (Michael W. Deem and Ramdas Pophale) SiO2 
 PCOD9460290
Probable space group: P B C A
;
_chemical_formula_sum "Si O2"
_cell_formula_units_Z 56
_cell_length_a 18.422003
_cell_length_b 14.030500
_cell_length_c 8.707782
_cell_angle_alpha 90.000000
_cell_angle_beta 90.000000
_cell_angle_gamma 90.000000
_cell_volume 2250.699657
_symmetry_space_group_name_H-M "P B C A"
_symmetry_group_IT_number 61
_symmetry_cell_setting 'orthorhombic'
loop_
_space_group_symop_operation_xyz
x,y,z
1/2-x,-y,1/2+z
1/2+x,1/2-y,-z
-x,1/2+y,1/2-z
-x,-y,-z
1/2+x,y,1/2-z
1/2-x,1/2+y,z
x,1/2-y,1/2+z
loop_
_atom_site_type_symbol
_atom_site_label
_atom_site_fract_x
_atom_site_fract_y
_atom_site_fract_z
Si Si1 0.902231 0.943179 0.851336
Si Si2 0.273847 0.648096 0.647249
Si Si3 0.622241 0.616887 0.021933
Si Si4 0.480897 0.886508 0.930655
Si Si5 0.501680 0.267562 0.857526
Si Si6 0.768525 0.849129 0.985472
Si Si7 0.362451 0.458744 0.638426
O O1 0.820049 0.926509 0.903101
O O2 0.917586 0.934406 0.670362
O O3 0.947750 0.854423 0.918141
O O4 0.924113 0.045452 0.915504
O O5 0.194399 0.638714 0.571988
O O6 0.297876 0.749495 0.580572
O O7 0.324019 0.558928 0.604914
O O8 0.271871 0.651864 0.831445
O O9 0.578361 0.708522 0.080187
O O10 0.638702 0.559646 0.178751
O O11 0.496566 0.791720 0.823099
O O12 0.553964 0.948710 0.913539
O O13 0.472498 0.836562 0.094201
O O14 0.687362 0.876640 0.935609
#
# Coordination Sequence:
#
# PCOD9460290 Si02
#       7
#     8   8   8   8   8   8   8
#     4  10  22  40  66  93 127 171 219 271 332 394
#     4  12  25  42  67  97 135 176 222 279 331 402
#     4  11  21  43  69  94 126 181 220 274 333 391
#     4   9  22  38  66  95 132 169 222 265 334 393
#     4   9  21  38  66  93 127 168 222 265 326 400
#     4  12  26  41  69  99 135 174 226 275 343 389
#     4  11  22  44  67  98 131 174 224 278 328 400
#
# _framework density 24.881150999999999
#
# number of rings (size 3 to 8) (size 9 to 14) (size 15 to 20)
#    0.857    0.571    2.857    2.143    2.000    3.429 
#    0.000    0.000    0.000    2.571    0.000    0.000 
#    0.000    0.000    0.000    0.000    0.000    0.000 
#
# Total GULP energy -313249.546440 kJ/mol
# GULP energy per Si atom -5593.741901 kJ/mol
# Density = 2.482452 g / cm^3
# Si number density = 24.881151 Si / 1000 Ang^3
#
#
#
# Elastic Constant Matrix: (Units=GPa)
#
#
# Indices 1 2 3 4 5 6 
#
# 1 87.6234 -10.2843 28.3712 0.0000 0.0000 0.0000
# 2 -10.2843 71.3370 10.0542 0.0000 0.0000 0.0000
# 3 28.3712 10.0542 116.2436 0.0000 0.0000 0.0000
# 4 0.0000 0.0000 0.0000 36.0723 0.0000 0.0000
# 5 0.0000 0.0000 0.0000 0.0000 37.6823 0.0000
# 6 0.0000 0.0000 0.0000 0.0000 0.0000 41.2836
#
#
#
# Elastic Compliance Matrix: (Units=1/GPa)
#
#
# Indices 1 2 3 4 5 6 
#
# 1 0.012756 0.002306 -0.003313 0.000000 0.000000 0.000000
# 2 0.002306 0.014608 -0.001826 0.000000 0.000000 0.000000
# 3 -0.003313 -0.001826 0.009569 0.000000 0.000000 0.000000
# 4 0.000000 0.000000 0.000000 0.027722 0.000000 0.000000
# 5 0.000000 0.000000 0.000000 0.000000 0.026538 0.000000
# 6 0.000000 0.000000 0.000000 0.000000 0.000000 0.024223
#
#
# Mechanical properties :
#
#
# Convention : Reuss Voigt Hill
#
# Bulk Modulus (GPa) = 31.98323 36.83179 34.40751
# Shear Modulus (GPa) = 38.02185 39.47851 38.75018
#
# Velocity S-wave (km/s) = 3.91338 3.98764 3.95069
# Velocity P-wave (km/s) = 5.77076 6.00308 5.88807
#
# Compressibility (1/GPa) = 0.03126638
#
# Stress axis : x y z
#
# Youngs Moduli (GPa) = 78.39626 68.45671 104.50307
#
# Poissons Ratio (x) = -0.15785 0.34619
# Poissons Ratio (y) = -0.18077 0.19085
# Poissons Ratio (z) = 0.25970 0.12502
#
# Static dielectric constant tensor:
#      x y z
#    x 2.064830 0.000000 0.000000 
#    y 0.000000 2.007750 0.000000 
#    z 0.000000 0.000000 1.960480 
# 
# From -- ./inp_files/3977.got.cif
#   From: 2010.05.17/outbox.cif.g08.bks.cpg/sg61_2_cif.got.tgz:3977.got - 2010.06.03 15:17:17.
