data_PCOD9460195
_publ_section_title
;
Structure prediction by ZEFSAII (Michael W. Deem and Ramdas Pophale) SiO2 
 PCOD9460195
Probable space group: P B C A
;
_chemical_formula_sum "Si O2"
_cell_formula_units_Z 56
_cell_length_a 13.561927
_cell_length_b 8.452503
_cell_length_c 22.910227
_cell_angle_alpha 90.000000
_cell_angle_beta 90.000000
_cell_angle_gamma 90.000000
_cell_volume 2626.250380
_symmetry_space_group_name_H-M "P B C A"
_symmetry_group_IT_number 61
_symmetry_cell_setting 'orthorhombic'
loop_
_space_group_symop_operation_xyz
x,y,z
1/2-x,-y,1/2+z
1/2+x,1/2-y,-z
-x,1/2+y,1/2-z
-x,-y,-z
1/2+x,y,1/2-z
1/2-x,1/2+y,z
x,1/2-y,1/2+z
loop_
_atom_site_type_symbol
_atom_site_label
_atom_site_fract_x
_atom_site_fract_y
_atom_site_fract_z
Si Si1 0.075711 0.750000 0.750000
Si Si2 0.399922 0.898208 0.066627
Si Si3 0.896085 0.680108 0.328711
Si Si4 0.296654 0.006502 0.826020
Si Si5 0.603915 0.180108 0.671289
Si Si6 0.399922 0.898208 0.933373
Si Si7 0.703346 0.506502 0.326020
O O1 0.141130 0.634015 0.789745
O O2 0.141130 0.865985 0.710255
O O3 0.998222 0.829754 0.795038
O O4 0.998222 0.670246 0.704962
O O5 0.324502 0.002048 0.105454
O O6 0.413356 0.737139 0.104276
O O7 0.500000 1.000000 0.067823
O O8 0.370588 0.871325 1.000000
O O9 0.836110 0.836050 0.305909
O O10 0.818935 0.538731 0.322240
O O11 0.324502 0.002048 0.894546
O O12 0.181065 0.038731 0.822240
O O13 0.586644 0.237139 0.604276
O O14 0.663890 0.336051 0.694091
#
# Coordination Sequence:
#
# PCOD9460195 Si02
#       7
#     8   8   8   8   8   8   8
#     4  12  20  36  56  80 124 148 200 242 276 360
#     4   9  18  40  63  84 114 154 204 240 293 354
#     4  10  22  38  57  90 114 157 196 240 305 345
#     4  10  22  38  57  90 114 157 196 240 305 345
#     4  10  22  38  57  90 114 157 196 240 305 345
#     4   9  18  40  63  84 114 154 204 240 293 354
#     4  10  22  38  57  90 114 157 196 240 305 345
#
# _framework density 21.323177000000001
#
# number of rings (size 3 to 8) (size 9 to 14) (size 15 to 20)
#    1.714    0.286    2.857    1.714    0.000    8.000 
#    0.000    0.000    0.000    0.000    0.000    6.000 
#    0.000    0.000    0.000    0.000    0.000    0.000 
#
# Total GULP energy -312340.484423 kJ/mol
# GULP energy per Si atom -5577.508650 kJ/mol
# Density = 2.127464 g / cm^3
# Si number density = 21.323177 Si / 1000 Ang^3
#
#
#
# Elastic Constant Matrix: (Units=GPa)
#
#
# Indices 1 2 3 4 5 6 
#
# 1 125.4992 24.0899 54.4058 0.0000 0.0000 0.0000
# 2 24.0899 64.3881 22.7347 0.0000 0.0000 0.0000
# 3 54.4058 22.7347 196.9502 0.0000 0.0000 0.0000
# 4 0.0000 0.0000 0.0000 28.1537 0.0000 0.0000
# 5 0.0000 0.0000 0.0000 0.0000 28.4147 0.0000
# 6 0.0000 0.0000 0.0000 0.0000 0.0000 30.3769
#
#
#
# Elastic Compliance Matrix: (Units=1/GPa)
#
#
# Indices 1 2 3 4 5 6 
#
# 1 0.009494 -0.002737 -0.002307 0.000000 0.000000 0.000000
# 2 -0.002737 0.016980 -0.001204 0.000000 0.000000 0.000000
# 3 -0.002307 -0.001204 0.005854 0.000000 0.000000 0.000000
# 4 0.000000 0.000000 0.000000 0.035519 0.000000 0.000000
# 5 0.000000 0.000000 0.000000 0.000000 0.035193 0.000000
# 6 0.000000 0.000000 0.000000 0.000000 0.000000 0.032920
#
#
# Mechanical properties :
#
#
# Convention : Reuss Voigt Hill
#
# Bulk Modulus (GPa) = 50.42491 65.47760 57.95126
# Shear Modulus (GPa) = 32.24445 36.42954 34.33700
#
# Velocity S-wave (km/s) = 3.89289 4.13782 4.01722
# Velocity P-wave (km/s) = 6.62612 7.32138 6.98241
#
# Compressibility (1/GPa) = 0.01983147
#
# Stress axis : x y z
#
# Youngs Moduli (GPa) = 105.33461 58.89250 170.83656
#
# Poissons Ratio (x) = 0.16122 0.39404
# Poissons Ratio (y) = 0.28835 0.20567
# Poissons Ratio (z) = 0.24296 0.07090
#
# Static dielectric constant tensor:
#      x y z
#    x 1.751240 0.000000 0.000000 
#    y 0.000000 1.809600 0.000000 
#    z 0.000000 0.000000 1.812010 
# 
# From -- ./inp_files/7988.got.cif
#   From: 2010.05.17/outbox.cif.g08.bks.cpg/sg61_4_cif.got.tgz:7988.got - 2010.06.03 15:17:17.
