data_PCOD9460466
_publ_section_title
;
Structure prediction by ZEFSAII (Michael W. Deem and Ramdas Pophale) SiO2 
 PCOD9460466
Probable space group: P B C A
;
_chemical_formula_sum "Si O2"
_cell_formula_units_Z 60
_cell_length_a 11.196275
_cell_length_b 28.756432
_cell_length_c 9.455717
_cell_angle_alpha 90.000000
_cell_angle_beta 90.000000
_cell_angle_gamma 90.000000
_cell_volume 3044.409174
_symmetry_space_group_name_H-M "P B C A"
_symmetry_group_IT_number 61
_symmetry_cell_setting 'orthorhombic'
loop_
_space_group_symop_operation_xyz
x,y,z
1/2-x,-y,1/2+z
1/2+x,1/2-y,-z
-x,1/2+y,1/2-z
-x,-y,-z
1/2+x,y,1/2-z
1/2-x,1/2+y,z
x,1/2-y,1/2+z
loop_
_atom_site_type_symbol
_atom_site_label
_atom_site_fract_x
_atom_site_fract_y
_atom_site_fract_z
Si Si1 0.801386 0.199648 0.162676
Si Si2 0.026369 0.158779 0.030116
Si Si3 0.500000 0.500000 0.000000
Si Si4 0.165603 0.390995 0.946472
Si Si5 0.609798 0.609626 0.532190
Si Si6 0.760475 0.207003 0.493436
Si Si7 0.821200 0.572444 0.353730
Si Si8 0.379870 0.089899 0.645490
O O1 0.933485 0.178659 0.142999
O O2 0.712643 0.159447 0.105695
O O3 0.774361 0.210584 0.324733
O O4 0.795320 0.245953 0.070290
O O5 0.121894 0.195726 0.976031
O O6 0.103090 0.118228 0.103347
O O7 0.949841 0.136473 0.903797
O O8 0.608229 0.470777 0.917163
O O9 0.547595 0.548217 0.925998
O O10 0.187472 0.426183 0.815681
O O11 0.248689 0.406398 0.076826
O O12 0.027350 0.389908 0.985957
O O13 0.662172 0.662042 0.538547
O O14 0.691358 0.580964 0.421848
O O15 0.623540 0.587336 0.686626
#
# Coordination Sequence:
#
# PCOD9460466 Si02
#       8
#     8   8   4   8   8   8   8   8
#     4  11  24  39  63  99 129 183 233 280 336 395
#     4   9  21  42  64  86 137 171 219 279 339 392
#     4  10  24  46  76  96 136 164 224 284 332 412
#     4  11  24  44  71  97 139 186 226 272 356 407
#     4  11  25  44  70  98 141 182 231 274 348 412
#     4  11  25  38  64  94 134 178 231 285 328 396
#     4  10  22  45  72  95 132 180 218 278 348 407
#     4  10  25  44  70  99 132 178 220 282 344 407
#
# _framework density 19.708259000000002
#
# number of rings (size 3 to 8) (size 9 to 14) (size 15 to 20)
#    0.000    1.600    2.667    0.800   14.933    1.067 
#    0.000    1.333    0.000    0.000    0.000    0.000 
#    0.000    0.000    0.000    0.000    0.000    0.000 
#
# Total GULP energy -334239.803813 kJ/mol
# GULP energy per Si atom -5570.663397 kJ/mol
# Density = 1.966340 g / cm^3
# Si number density = 19.708259 Si / 1000 Ang^3
#
#
#
# Elastic Constant Matrix: (Units=GPa)
#
#
# Indices 1 2 3 4 5 6 
#
# 1 149.0291 24.1659 70.2434 0.0000 0.0000 0.0000
# 2 24.1659 67.0021 39.8059 0.0000 0.0000 0.0000
# 3 70.2434 39.8059 83.2171 0.0000 0.0000 0.0000
# 4 0.0000 0.0000 0.0000 -20.2968 0.0000 0.0000
# 5 0.0000 0.0000 0.0000 0.0000 6.6248 0.0000
# 6 0.0000 0.0000 0.0000 0.0000 0.0000 10.5807
#
#
#
# Elastic Compliance Matrix: (Units=1/GPa)
#
#
# Indices 1 2 3 4 5 6 
#
# 1 0.011379 0.002238 -0.010676 0.000000 0.000000 0.000000
# 2 0.002238 0.021290 -0.012073 0.000000 0.000000 0.000000
# 3 -0.010676 -0.012073 0.026803 0.000000 0.000000 0.000000
# 4 0.000000 0.000000 0.000000 -0.049269 0.000000 0.000000
# 5 0.000000 0.000000 0.000000 0.000000 0.150947 0.000000
# 6 0.000000 0.000000 0.000000 0.000000 0.000000 0.094512
#
#
# Mechanical properties :
#
#
# Convention : Reuss Voigt Hill
#
# Bulk Modulus (GPa) = 54.19708 63.07542 58.63625
# Shear Modulus (GPa) = 16.51064 10.38395 13.44729
#
# Velocity S-wave (km/s) = 2.89754 2.29788 2.61496
# Velocity P-wave (km/s) = 6.22524 6.25415 6.23971
#
# Compressibility (1/GPa) = 0.01845118
#
# Stress axis : x y z
#
# Youngs Moduli (GPa) = 87.88103 46.96961 37.30896
#
# Poissons Ratio (x) = -0.10513 0.39830
# Poissons Ratio (y) = -0.19670 0.45044
# Poissons Ratio (z) = 0.93819 0.56708
#
# Static dielectric constant tensor:
#      x y z
#    x 1.703980 0.000000 0.000000 
#    y 0.000000 1.666370 0.000000 
#    z 0.000000 0.000000 1.728030 
# 
# From -- ./inp_files/2381.got.cif
#   From: 2010.05.17/outbox.cif.g08.bks.cpg/sg61_2_cif.got.tgz:2381.got - 2010.06.03 15:17:17.
