data_PCOD9460774
_publ_section_title
;
Structure prediction by ZEFSAII (Michael W. Deem and Ramdas Pophale) SiO2 
 PCOD9460774
Probable space group: P B C A
;
_chemical_formula_sum "Si O2"
_cell_formula_units_Z 64
_cell_length_a 12.035557
_cell_length_b 12.481929
_cell_length_c 18.594695
_cell_angle_alpha 90.000000
_cell_angle_beta 90.000000
_cell_angle_gamma 90.000000
_cell_volume 2793.424650
_symmetry_space_group_name_H-M "P B C A"
_symmetry_group_IT_number 61
_symmetry_cell_setting 'orthorhombic'
loop_
_space_group_symop_operation_xyz
x,y,z
1/2-x,-y,1/2+z
1/2+x,1/2-y,-z
-x,1/2+y,1/2-z
-x,-y,-z
1/2+x,y,1/2-z
1/2-x,1/2+y,z
x,1/2-y,1/2+z
loop_
_atom_site_type_symbol
_atom_site_label
_atom_site_fract_x
_atom_site_fract_y
_atom_site_fract_z
Si Si1 0.955472 0.667807 0.554309
Si Si2 0.394058 0.913134 0.915720
Si Si3 0.507873 0.545385 0.807599
Si Si4 0.436501 0.247281 0.425618
Si Si5 0.273077 0.086118 0.999824
Si Si6 0.807139 0.380778 0.689284
Si Si7 0.938837 0.583043 0.848590
Si Si8 0.737272 0.063362 0.335978
O O1 0.929281 0.793974 0.563321
O O2 0.840878 0.605237 0.542537
O O3 0.013069 0.627134 0.626367
O O4 0.027071 0.656067 0.481435
O O5 0.308329 0.908658 0.849310
O O6 0.496982 0.986809 0.890693
O O7 0.327189 0.971793 0.979874
O O8 0.394810 0.477431 0.814525
O O9 0.499464 0.596032 0.728465
O O10 0.612463 0.467187 0.815605
O O11 0.361355 0.328911 0.470580
O O12 0.363345 0.209944 0.358681
O O13 0.542309 0.310180 0.394126
O O14 0.248299 0.103723 0.083230
O O15 0.785298 0.360545 0.773401
O O16 0.814233 0.543676 0.835332
#
# Coordination Sequence:
#
# PCOD9460774 Si02
#       8
#     8   8   8   8   8   8   8   8
#     4  12  25  41  71 106 137 180 238 290 349 418
#     4  11  22  46  73  97 140 189 229 288 360 420
#     4  11  25  43  70 103 136 182 234 290 354 415
#     4  11  25  42  66 104 138 183 238 287 355 418
#     4  11  24  43  69 100 138 183 228 293 350 417
#     4  11  23  45  71  98 140 185 229 294 353 423
#     4  10  24  46  68  97 140 188 230 286 349 429
#     4  11  24  44  71  98 142 182 234 291 353 423
#
# _framework density 22.910945999999999
#
# number of rings (size 3 to 8) (size 9 to 14) (size 15 to 20)
#    0.000    1.000    3.750    2.250    1.750    7.000 
#    2.250    1.250    0.000    0.000    0.000    0.000 
#    0.000    0.000    0.000    0.000    0.000    0.000 
#
# Total GULP energy -358273.482311 kJ/mol
# GULP energy per Si atom -5598.023161 kJ/mol
# Density = 2.285880 g / cm^3
# Si number density = 22.910946 Si / 1000 Ang^3
#
#
#
# Elastic Constant Matrix: (Units=GPa)
#
#
# Indices 1 2 3 4 5 6 
#
# 1 51.2271 4.6036 17.7426 0.0000 0.0000 0.0000
# 2 4.6036 51.1018 31.1662 0.0000 0.0000 0.0000
# 3 17.7426 31.1662 169.7931 0.0000 0.0000 0.0000
# 4 0.0000 0.0000 0.0000 36.1259 0.0000 0.0000
# 5 0.0000 0.0000 0.0000 0.0000 36.3362 0.0000
# 6 0.0000 0.0000 0.0000 0.0000 0.0000 19.4431
#
#
#
# Elastic Compliance Matrix: (Units=1/GPa)
#
#
# Indices 1 2 3 4 5 6 
#
# 1 0.020270 -0.000602 -0.002008 0.000000 0.000000 0.000000
# 2 -0.000602 0.022053 -0.003985 0.000000 0.000000 0.000000
# 3 -0.002008 -0.003985 0.006831 0.000000 0.000000 0.000000
# 4 0.000000 0.000000 0.000000 0.027681 0.000000 0.000000
# 5 0.000000 0.000000 0.000000 0.000000 0.027521 0.000000
# 6 0.000000 0.000000 0.000000 0.000000 0.000000 0.051432
#
#
# Mechanical properties :
#
#
# Convention : Reuss Voigt Hill
#
# Bulk Modulus (GPa) = 27.80429 42.12742 34.96586
# Shear Modulus (GPa) = 27.62950 32.95501 30.29226
#
# Velocity S-wave (km/s) = 3.47645 3.79673 3.64012
# Velocity P-wave (km/s) = 5.31756 6.13577 5.74126
#
# Compressibility (1/GPa) = 0.03596568
#
# Stress axis : x y z
#
# Youngs Moduli (GPa) = 49.33311 45.34437 146.39553
#
# Poissons Ratio (x) = 0.02728 0.29392
# Poissons Ratio (y) = 0.02968 0.58341
# Poissons Ratio (z) = 0.09905 0.18070
#
# Static dielectric constant tensor:
#      x y z
#    x 1.826070 0.000000 0.000000 
#    y 0.000000 1.836780 0.000000 
#    z 0.000000 0.000000 1.866690 
# 
# From -- ./inp_files/9550.got.cif
#   From: 2010.05.17/outbox.cif.g08.bks.cpg/sg61_5_cif.got.tgz:9550.got - 2010.06.03 15:17:17.
