data_PCOD9460399
_publ_section_title
;
Structure prediction by ZEFSAII (Michael W. Deem and Ramdas Pophale) SiO2 
 PCOD9460399
Probable space group: P B C A
;
_chemical_formula_sum "Si O2"
_cell_formula_units_Z 40
_cell_length_a 13.268504
_cell_length_b 10.548250
_cell_length_c 13.543280
_cell_angle_alpha 90.000000
_cell_angle_beta 90.000000
_cell_angle_gamma 90.000000
_cell_volume 1895.510661
_symmetry_space_group_name_H-M "P B C A"
_symmetry_group_IT_number 61
_symmetry_cell_setting 'orthorhombic'
loop_
_space_group_symop_operation_xyz
x,y,z
1/2-x,-y,1/2+z
1/2+x,1/2-y,-z
-x,1/2+y,1/2-z
-x,-y,-z
1/2+x,y,1/2-z
1/2-x,1/2+y,z
x,1/2-y,1/2+z
loop_
_atom_site_type_symbol
_atom_site_label
_atom_site_fract_x
_atom_site_fract_y
_atom_site_fract_z
Si Si1 0.218270 0.768891 0.548493
Si Si2 0.664945 0.499965 0.021479
Si Si3 0.005752 0.080554 0.141982
Si Si4 0.072053 0.171440 0.565379
Si Si5 0.479655 0.388691 0.632177
O O1 0.201672 0.643202 0.484705
O O2 0.321363 0.725676 0.602986
O O3 0.122294 0.805862 0.615141
O O4 0.249246 0.893839 0.486055
O O5 0.595997 0.478507 0.923197
O O6 0.590638 0.494375 0.114838
O O7 0.992727 0.222497 0.098709
O O8 0.019206 0.101084 0.257238
O O9 0.060490 0.163219 0.446790
O O10 0.049298 0.032415 0.603438
#
# Coordination Sequence:
#
# PCOD9460399 Si02
#       5
#     8   8   8   8   8
#     4  11  21  43  64  92 137 168 212 279 328 398
#     4  10  22  43  64  93 129 172 215 273 333 390
#     4  10  23  42  70  90 128 182 220 275 333 406
#     4  10  23  42  63  94 133 173 221 283 333 396
#     4  11  23  42  66  96 131 177 226 275 341 396
#
# _framework density 21.102492999999999
#
# number of rings (size 3 to 8) (size 9 to 14) (size 15 to 20)
#    0.000    1.600    4.000    0.000    2.800    0.000 
#   10.800    0.000    0.000    0.000    0.000    0.000 
#    0.000    0.000    0.000    0.000    0.000    0.000 
#
# Total GULP energy -222937.862173 kJ/mol
# GULP energy per Si atom -5573.446554 kJ/mol
# Density = 2.105446 g / cm^3
# Si number density = 21.102493 Si / 1000 Ang^3
#
#
#
# Elastic Constant Matrix: (Units=GPa)
#
#
# Indices 1 2 3 4 5 6 
#
# 1 35.5558 26.8838 -0.7674 0.0000 0.0000 0.0000
# 2 26.8838 114.7252 13.9783 0.0000 0.0000 0.0000
# 3 -0.7674 13.9783 123.1358 0.0000 0.0000 0.0000
# 4 0.0000 0.0000 0.0000 16.9399 0.0000 0.0000
# 5 0.0000 0.0000 0.0000 0.0000 10.9233 0.0000
# 6 0.0000 0.0000 0.0000 0.0000 0.0000 21.6223
#
#
#
# Elastic Compliance Matrix: (Units=1/GPa)
#
#
# Indices 1 2 3 4 5 6 
#
# 1 0.034339 -0.008186 0.001143 0.000000 0.000000 0.000000
# 2 -0.008186 0.010790 -0.001276 0.000000 0.000000 0.000000
# 3 0.001143 -0.001276 0.008273 0.000000 0.000000 0.000000
# 4 0.000000 0.000000 0.000000 0.059032 0.000000 0.000000
# 5 0.000000 0.000000 0.000000 0.000000 0.091547 0.000000
# 6 0.000000 0.000000 0.000000 0.000000 0.000000 0.046249
#
#
# Mechanical properties :
#
#
# Convention : Reuss Voigt Hill
#
# Bulk Modulus (GPa) = 27.19985 39.28958 33.24471
# Shear Modulus (GPa) = 17.91328 25.45191 21.68260
#
# Velocity S-wave (km/s) = 2.91670 3.47668 3.20893
# Velocity P-wave (km/s) = 4.92547 5.89705 5.43302
#
# Compressibility (1/GPa) = 0.03676490
#
# Stress axis : x y z
#
# Youngs Moduli (GPa) = 29.12146 92.67676 120.87396
#
# Poissons Ratio (x) = 0.75865 -0.13819
# Poissons Ratio (y) = 0.23839 0.15422
# Poissons Ratio (z) = -0.03329 0.11825
#
# Static dielectric constant tensor:
#      x y z
#    x 1.910830 0.000000 0.000000 
#    y 0.000000 1.783520 0.000000 
#    z 0.000000 0.000000 1.759010 
# 
# From -- ./inp_files/5564.got.cif
#   From: 2010.05.17/outbox.cif.g08.bks.cpg/sg61_3_cif.got.tgz:5564.got - 2010.06.03 15:17:17.
