data_PCOD9460072
_publ_section_title
;
Structure prediction by ZEFSAII (Michael W. Deem and Ramdas Pophale) SiO2 
 PCOD9460072
Probable space group: P B C A
;
_chemical_formula_sum "Si O2"
_cell_formula_units_Z 48
_cell_length_a 13.560156
_cell_length_b 17.712822
_cell_length_c 8.349917
_cell_angle_alpha 90.000000
_cell_angle_beta 90.000000
_cell_angle_gamma 90.000000
_cell_volume 2005.555121
_symmetry_space_group_name_H-M "P B C A"
_symmetry_group_IT_number 61
_symmetry_cell_setting 'orthorhombic'
loop_
_space_group_symop_operation_xyz
x,y,z
1/2-x,-y,1/2+z
1/2+x,1/2-y,-z
-x,1/2+y,1/2-z
-x,-y,-z
1/2+x,y,1/2-z
1/2-x,1/2+y,z
x,1/2-y,1/2+z
loop_
_atom_site_type_symbol
_atom_site_label
_atom_site_fract_x
_atom_site_fract_y
_atom_site_fract_z
Si Si1 0.627954 0.733916 0.500868
Si Si2 0.341469 0.777916 0.097100
Si Si3 0.638451 0.418511 0.630759
Si Si4 0.488543 0.332975 0.795617
Si Si5 0.764180 0.381616 0.189250
Si Si6 0.243123 0.515287 0.099175
O O1 0.736874 0.739292 0.430191
O O2 0.596412 0.814265 0.574721
O O3 0.556565 0.702143 0.366160
O O4 0.643207 0.668888 0.635434
O O5 0.425956 0.719151 0.130088
O O6 0.323482 0.828105 0.254191
O O7 0.356746 0.837525 0.954707
O O8 0.541608 0.411231 0.744154
O O9 0.734419 0.433563 0.743886
O O10 0.644036 0.481353 0.488465
O O11 0.790785 0.437721 0.335409
O O12 0.722405 0.432496 0.045658
#
# Coordination Sequence:
#
# PCOD9460072 Si02
#       6
#     8   8   8   8   8   8
#     4  12  25  41  68 109 147 182 232 306 372 432
#     4  11  23  42  68 102 143 187 231 304 369 427
#     4  10  21  41  67  96 134 185 244 285 353 422
#     4  12  25  41  68 109 144 184 233 302 373 433
#     4  10  21  41  67  96 135 185 247 281 352 423
#     4   9  21  40  68  90 130 205 238 283 342 421
#
# _framework density 23.933524999999999
#
# number of rings (size 3 to 8) (size 9 to 14) (size 15 to 20)
#    0.000    1.333    3.333    2.000    4.667    0.000 
#    0.000    3.333    0.000    6.000    0.000    0.000 
#    0.000    0.000    0.000    0.000    0.000    0.000 
#
# Total GULP energy -267358.128439 kJ/mol
# GULP energy per Si atom -5569.961009 kJ/mol
# Density = 2.387905 g / cm^3
# Si number density = 23.933525 Si / 1000 Ang^3
#
#
#
# Elastic Constant Matrix: (Units=GPa)
#
#
# Indices 1 2 3 4 5 6 
#
# 1 67.2312 20.7241 22.9999 0.0000 0.0000 0.0000
# 2 20.7241 46.5006 26.8777 0.0000 0.0000 0.0000
# 3 22.9999 26.8777 88.7155 0.0000 0.0000 0.0000
# 4 0.0000 0.0000 0.0000 67.0687 0.0000 0.0000
# 5 0.0000 0.0000 0.0000 0.0000 39.7559 0.0000
# 6 0.0000 0.0000 0.0000 0.0000 0.0000 18.3340
#
#
#
# Elastic Compliance Matrix: (Units=1/GPa)
#
#
# Indices 1 2 3 4 5 6 
#
# 1 0.017751 -0.006366 -0.002673 0.000000 0.000000 0.000000
# 2 -0.006366 0.028353 -0.006940 0.000000 0.000000 0.000000
# 3 -0.002673 -0.006940 0.014068 0.000000 0.000000 0.000000
# 4 0.000000 0.000000 0.000000 0.014910 0.000000 0.000000
# 5 0.000000 0.000000 0.000000 0.000000 0.025153 0.000000
# 6 0.000000 0.000000 0.000000 0.000000 0.000000 0.054543
#
#
# Mechanical properties :
#
#
# Convention : Reuss Voigt Hill
#
# Bulk Modulus (GPa) = 35.44344 38.18340 36.81342
# Shear Modulus (GPa) = 25.49180 33.82143 29.65662
#
# Velocity S-wave (km/s) = 3.26714 3.76325 3.52394
# Velocity P-wave (km/s) = 5.39199 5.90520 5.65442
#
# Compressibility (1/GPa) = 0.02821397
#
# Stress axis : x y z
#
# Youngs Moduli (GPa) = 56.33524 35.26908 71.08548
#
# Poissons Ratio (x) = 0.22452 0.19004
# Poissons Ratio (y) = 0.35862 0.49331
# Poissons Ratio (z) = 0.15060 0.24476
#
# Static dielectric constant tensor:
#      x y z
#    x 1.923070 0.000000 0.000000 
#    y 0.000000 1.971500 0.000000 
#    z 0.000000 0.000000 2.033120 
# 
# From -- ./inp_files/2926.got.cif
#   From: 2010.05.17/outbox.cif.g08.bks.cpg/sg61_2_cif.got.tgz:2926.got - 2010.06.03 15:17:17.
