data_PCOD9460546
_publ_section_title
;
Structure prediction by ZEFSAII (Michael W. Deem and Ramdas Pophale) SiO2 
 PCOD9460546
Probable space group: P B C A
;
_chemical_formula_sum "Si O2"
_cell_formula_units_Z 36
_cell_length_a 7.150456
_cell_length_b 7.157939
_cell_length_c 22.847795
_cell_angle_alpha 90.000000
_cell_angle_beta 90.000000
_cell_angle_gamma 90.000000
_cell_volume 1169.407904
_symmetry_space_group_name_H-M "P B C A"
_symmetry_group_IT_number 61
_symmetry_cell_setting 'orthorhombic'
loop_
_space_group_symop_operation_xyz
x,y,z
1/2-x,-y,1/2+z
1/2+x,1/2-y,-z
-x,1/2+y,1/2-z
-x,-y,-z
1/2+x,y,1/2-z
1/2-x,1/2+y,z
x,1/2-y,1/2+z
loop_
_atom_site_type_symbol
_atom_site_label
_atom_site_fract_x
_atom_site_fract_y
_atom_site_fract_z
Si Si1 0.304769 0.156846 0.566781
Si Si2 0.562561 0.749503 0.309548
Si Si3 0.306437 0.115969 0.312497
Si Si4 0.000000 0.500000 0.000000
Si Si5 0.097910 0.811748 0.941447
O O1 0.323881 0.245096 0.630419
O O2 0.208942 0.069678 0.461853
O O3 0.436136 0.975589 0.561630
O O4 0.082037 0.125201 0.558373
O O5 0.670487 0.721717 0.249619
O O6 0.414999 0.582531 0.313873
O O7 0.446028 0.941797 0.310183
O O8 0.344106 0.220556 0.373492
O O9 0.891078 0.285853 0.985656
#
# Coordination Sequence:
#
# PCOD9460546 Si02
#       5
#     8   8   8   4   8
#     4  10  23  44  75 111 150 201 260 327 394 473
#     4  12  28  50  77 112 161 211 275 332 410 488
#     4  12  28  47  76 110 156 211 263 335 402 484
#     4   8  24  40  74 108 152 194 256 320 392 476
#     4  10  23  41  73 112 151 199 258 326 396 469
#
# _framework density 30.784811000000001
#
# number of rings (size 3 to 8) (size 9 to 14) (size 15 to 20)
#    1.333    0.000    0.000    4.000    6.222    2.667 
#    0.000    0.000    0.000    0.000    0.000    0.000 
#    0.000    0.000    0.000    0.000    0.000    0.000 
#
# Total GULP energy -201707.460522 kJ/mol
# GULP energy per Si atom -5602.985014 kJ/mol
# Density = 3.071474 g / cm^3
# Si number density = 30.784811 Si / 1000 Ang^3
#
#
#
# Elastic Constant Matrix: (Units=GPa)
#
#
# Indices 1 2 3 4 5 6 
#
# 1 254.0332 65.4419 134.1612 0.0000 0.0000 0.0000
# 2 65.4419 206.1864 106.2885 0.0000 0.0000 0.0000
# 3 134.1612 106.2885 336.9820 0.0000 0.0000 0.0000
# 4 0.0000 0.0000 0.0000 67.1590 0.0000 0.0000
# 5 0.0000 0.0000 0.0000 0.0000 90.1689 0.0000
# 6 0.0000 0.0000 0.0000 0.0000 0.0000 73.7601
#
#
#
# Elastic Compliance Matrix: (Units=1/GPa)
#
#
# Indices 1 2 3 4 5 6 
#
# 1 0.005063 -0.000678 -0.001802 0.000000 0.000000 0.000000
# 2 -0.000678 0.005882 -0.001585 0.000000 0.000000 0.000000
# 3 -0.001802 -0.001585 0.004185 0.000000 0.000000 0.000000
# 4 0.000000 0.000000 0.000000 0.014890 0.000000 0.000000
# 5 0.000000 0.000000 0.000000 0.000000 0.011090 0.000000
# 6 0.000000 0.000000 0.000000 0.000000 0.000000 0.013557
#
#
# Mechanical properties :
#
#
# Convention : Reuss Voigt Hill
#
# Bulk Modulus (GPa) = 142.86540 156.55387 149.70963
# Shear Modulus (GPa) = 76.76765 78.97160 77.86963
#
# Velocity S-wave (km/s) = 4.99910 5.07035 5.03485
# Velocity P-wave (km/s) = 8.93475 9.23269 9.08494
#
# Compressibility (1/GPa) = 0.00699960
#
# Stress axis : x y z
#
# Youngs Moduli (GPa) = 197.52282 169.99586 238.95435
#
# Poissons Ratio (x) = 0.11527 0.43053
# Poissons Ratio (y) = 0.13394 0.37885
# Poissons Ratio (z) = 0.35588 0.26952
#
# Static dielectric constant tensor:
#      x y z
#    x 2.449470 0.000000 0.000000 
#    y 0.000000 2.570550 0.000000 
#    z 0.000000 0.000000 2.330410 
# 
# From -- ./inp_files/10040.got.cif
#   From: 2010.05.17/outbox.cif.g08.bks.cpg/sg61_6_cif.got.tgz:10040.got - 2010.06.03 15:17:17.
