data_PCOD9460477
_publ_section_title
;
Structure prediction by ZEFSAII (Michael W. Deem and Ramdas Pophale) SiO2 
 PCOD9460477
Probable space group: P B C A
;
_chemical_formula_sum "Si O2"
_cell_formula_units_Z 32
_cell_length_a 24.320556
_cell_length_b 5.288094
_cell_length_c 9.517308
_cell_angle_alpha 90.000000
_cell_angle_beta 90.000000
_cell_angle_gamma 90.000000
_cell_volume 1224.015141
_symmetry_space_group_name_H-M "P B C A"
_symmetry_group_IT_number 61
_symmetry_cell_setting 'orthorhombic'
loop_
_space_group_symop_operation_xyz
x,y,z
1/2-x,-y,1/2+z
1/2+x,1/2-y,-z
-x,1/2+y,1/2-z
-x,-y,-z
1/2+x,y,1/2-z
1/2-x,1/2+y,z
x,1/2-y,1/2+z
loop_
_atom_site_type_symbol
_atom_site_label
_atom_site_fract_x
_atom_site_fract_y
_atom_site_fract_z
Si Si1 0.409724 0.415998 0.988846
Si Si2 0.265113 0.964510 0.106404
Si Si3 0.490228 0.746394 0.343092
Si Si4 0.160044 0.695068 0.742088
O O1 0.463186 0.256563 0.036380
O O2 0.377497 0.456779 0.133307
O O3 0.432921 0.666924 0.913495
O O4 0.370672 0.261418 0.883557
O O5 0.258517 0.706135 0.025363
O O6 0.219855 0.934046 0.232101
O O7 0.323827 0.038241 0.166231
O O8 0.495162 0.486610 0.258328
#
# Coordination Sequence:
#
# PCOD9460477 Si02
#       4
#     8   8   8   8
#     4  11  24  46  78 108 142 200 240 306 372 440
#     4   8  20  44  64 102 144 184 236 294 354 438
#     4  11  26  53  70 111 146 193 252 313 362 449
#     4  10  22  46  68 112 140 198 236 300 370 436
#
# _framework density 26.143467000000001
#
# number of rings (size 3 to 8) (size 9 to 14) (size 15 to 20)
#    1.500    0.500    2.500    0.000    0.000    8.000 
#    9.000    0.000    0.000    0.000    0.000    0.000 
#    0.000    0.000    0.000    0.000    0.000    0.000 
#
# Total GULP energy -178722.804596 kJ/mol
# GULP energy per Si atom -5585.087644 kJ/mol
# Density = 2.608396 g / cm^3
# Si number density = 26.143467 Si / 1000 Ang^3
#
#
#
# Elastic Constant Matrix: (Units=GPa)
#
#
# Indices 1 2 3 4 5 6 
#
# 1 86.3127 -1.0987 32.2993 0.0000 0.0000 0.0000
# 2 -1.0987 136.9856 30.9789 0.0000 0.0000 0.0000
# 3 32.2993 30.9789 119.9881 0.0000 0.0000 0.0000
# 4 0.0000 0.0000 0.0000 29.4179 0.0000 0.0000
# 5 0.0000 0.0000 0.0000 0.0000 13.5053 0.0000
# 6 0.0000 0.0000 0.0000 0.0000 0.0000 26.4569
#
#
#
# Elastic Compliance Matrix: (Units=1/GPa)
#
#
# Indices 1 2 3 4 5 6 
#
# 1 0.012999 0.000951 -0.003745 0.000000 0.000000 0.000000
# 2 0.000951 0.007822 -0.002276 0.000000 0.000000 0.000000
# 3 -0.003745 -0.002276 0.009930 0.000000 0.000000 0.000000
# 4 0.000000 0.000000 0.000000 0.033993 0.000000 0.000000
# 5 0.000000 0.000000 0.000000 0.000000 0.074045 0.000000
# 6 0.000000 0.000000 0.000000 0.000000 0.000000 0.037797
#
#
# Mechanical properties :
#
#
# Convention : Reuss Voigt Hill
#
# Bulk Modulus (GPa) = 48.51375 51.96060 50.23718
# Shear Modulus (GPa) = 25.82699 32.61648 29.22174
#
# Velocity S-wave (km/s) = 3.14649 3.53596 3.34690
# Velocity P-wave (km/s) = 5.63893 6.04889 5.84750
#
# Compressibility (1/GPa) = 0.02061271
#
# Stress axis : x y z
#
# Youngs Moduli (GPa) = 76.92753 127.83972 100.70754
#
# Poissons Ratio (x) = -0.12159 0.37713
# Poissons Ratio (y) = -0.07317 0.22917
# Poissons Ratio (z) = 0.28808 0.29091
#
# Static dielectric constant tensor:
#      x y z
#    x 2.328730 0.000000 0.000000 
#    y 0.000000 2.174970 0.000000 
#    z 0.000000 0.000000 2.013720 
# 
# From -- ./inp_files/6653.got.cif
#   From: 2010.05.17/outbox.cif.g08.bks.cpg/sg61_4_cif.got.tgz:6653.got - 2010.06.03 15:17:17.
