data_PCOD9460171
_publ_section_title
;
Structure prediction by ZEFSAII (Michael W. Deem and Ramdas Pophale) SiO2 
 PCOD9460171
Probable space group: P B C A
;
_chemical_formula_sum "Si O2"
_cell_formula_units_Z 40
_cell_length_a 10.558591
_cell_length_b 15.926679
_cell_length_c 10.770842
_cell_angle_alpha 90.000000
_cell_angle_beta 90.000000
_cell_angle_gamma 90.000000
_cell_volume 1811.260222
_symmetry_space_group_name_H-M "P B C A"
_symmetry_group_IT_number 61
_symmetry_cell_setting 'orthorhombic'
loop_
_space_group_symop_operation_xyz
x,y,z
1/2-x,-y,1/2+z
1/2+x,1/2-y,-z
-x,1/2+y,1/2-z
-x,-y,-z
1/2+x,y,1/2-z
1/2-x,1/2+y,z
x,1/2-y,1/2+z
loop_
_atom_site_type_symbol
_atom_site_label
_atom_site_fract_x
_atom_site_fract_y
_atom_site_fract_z
Si Si1 0.793987 0.089820 0.313179
Si Si2 0.310719 0.507789 0.429939
Si Si3 0.528332 0.331114 0.576527
Si Si4 0.934977 0.155664 0.664973
Si Si5 0.313243 0.763099 0.251994
O O1 0.769414 0.036365 0.439937
O O2 0.701421 0.171066 0.309396
O O3 0.934690 0.130273 0.320276
O O4 0.779463 0.039071 0.183348
O O5 0.390356 0.589245 0.466813
O O6 0.400110 0.440029 0.361407
O O7 0.433808 0.300434 0.470180
O O8 0.629391 0.262091 0.614252
O O9 0.076172 0.175995 0.706744
O O10 0.822971 0.194056 0.746271
#
# Coordination Sequence:
#
# PCOD9460171 Si02
#       5
#     8   8   8   8   8
#     4  10  21  46  65 102 133 187 222 293 337 416
#     4  10  24  42  74  95 142 179 237 284 350 407
#     4  10  23  44  66  96 144 179 225 289 352 401
#     4  11  24  40  69  98 132 187 223 287 346 414
#     4  11  24  42  66 100 141 174 235 284 347 417
#
# _framework density 22.084071000000002
#
# number of rings (size 3 to 8) (size 9 to 14) (size 15 to 20)
#    0.000    1.600    2.000    2.400   11.200    0.000 
#    3.600    4.000    0.000    0.000    0.000    0.000 
#    0.000    0.000    0.000    0.000    0.000    0.000 
#
# Total GULP energy -222735.513203 kJ/mol
# GULP energy per Si atom -5568.387830 kJ/mol
# Density = 2.203381 g / cm^3
# Si number density = 22.084071 Si / 1000 Ang^3
#
#
#
# Elastic Constant Matrix: (Units=GPa)
#
#
# Indices 1 2 3 4 5 6 
#
# 1 92.5689 7.4339 39.6895 0.0000 0.0000 0.0000
# 2 7.4339 35.6512 26.6979 0.0000 0.0000 0.0000
# 3 39.6895 26.6979 68.0211 0.0000 0.0000 0.0000
# 4 0.0000 0.0000 0.0000 25.1634 0.0000 0.0000
# 5 0.0000 0.0000 0.0000 0.0000 41.2802 0.0000
# 6 0.0000 0.0000 0.0000 0.0000 0.0000 17.8985
#
#
#
# Elastic Compliance Matrix: (Units=1/GPa)
#
#
# Indices 1 2 3 4 5 6 
#
# 1 0.014975 0.004845 -0.010640 0.000000 0.000000 0.000000
# 2 0.004845 0.041293 -0.019034 0.000000 0.000000 0.000000
# 3 -0.010640 -0.019034 0.028380 0.000000 0.000000 0.000000
# 4 0.000000 0.000000 0.000000 0.039740 0.000000 0.000000
# 5 0.000000 0.000000 0.000000 0.000000 0.024225 0.000000
# 6 0.000000 0.000000 0.000000 0.000000 0.000000 0.055871
#
#
# Mechanical properties :
#
#
# Convention : Reuss Voigt Hill
#
# Bulk Modulus (GPa) = 28.57870 38.20931 33.39400
# Shear Modulus (GPa) = 18.81067 25.02976 21.92021
#
# Velocity S-wave (km/s) = 2.92169 3.37023 3.15394
# Velocity P-wave (km/s) = 4.93463 5.69947 5.33079
#
# Compressibility (1/GPa) = 0.03499110
#
# Stress axis : x y z
#
# Youngs Moduli (GPa) = 66.77577 24.21692 35.23570
#
# Poissons Ratio (x) = -0.11733 0.37490
# Poissons Ratio (y) = -0.32353 0.67069
# Poissons Ratio (z) = 0.71047 0.46096
#
# Static dielectric constant tensor:
#      x y z
#    x 1.825650 0.000000 0.000000 
#    y 0.000000 1.825950 0.000000 
#    z 0.000000 0.000000 1.989590 
# 
# From -- ./inp_files/3275.got.cif
#   From: 2010.05.17/outbox.cif.g08.bks.cpg/sg61_2_cif.got.tgz:3275.got - 2010.06.03 15:17:17.
