data_PCOD9460528
_publ_section_title
;
Structure prediction by ZEFSAII (Michael W. Deem and Ramdas Pophale) SiO2 
 PCOD9460528
Probable space group: P B C A
;
_chemical_formula_sum "Si O2"
_cell_formula_units_Z 48
_cell_length_a 8.676108
_cell_length_b 8.460770
_cell_length_c 28.811382
_cell_angle_alpha 90.000000
_cell_angle_beta 90.000000
_cell_angle_gamma 90.000000
_cell_volume 2114.944277
_symmetry_space_group_name_H-M "P B C A"
_symmetry_group_IT_number 61
_symmetry_cell_setting 'orthorhombic'
loop_
_space_group_symop_operation_xyz
x,y,z
1/2-x,-y,1/2+z
1/2+x,1/2-y,-z
-x,1/2+y,1/2-z
-x,-y,-z
1/2+x,y,1/2-z
1/2-x,1/2+y,z
x,1/2-y,1/2+z
loop_
_atom_site_type_symbol
_atom_site_label
_atom_site_fract_x
_atom_site_fract_y
_atom_site_fract_z
Si Si1 0.628549 0.894642 0.523026
Si Si2 0.479273 0.441169 0.201926
Si Si3 0.525356 0.928277 0.137408
Si Si4 0.832948 0.787507 0.280159
Si Si5 0.417961 0.602250 0.539067
Si Si6 0.320876 0.086924 0.374754
O O1 0.528596 0.750534 0.540722
O O2 0.753784 0.857013 0.483647
O O3 0.698090 0.961598 0.570942
O O4 0.500000 0.000000 0.500000
O O5 0.347264 0.308509 0.208326
O O6 0.400173 0.608442 0.218182
O O7 0.620036 0.377828 0.233178
O O8 0.550756 0.481855 0.151544
O O9 0.416471 0.888010 0.179703
O O10 0.424751 0.964936 0.091110
O O11 0.625533 0.767180 0.130985
O O12 0.652070 0.061558 0.146545
O O13 0.500000 0.500000 0.500000
#
# Coordination Sequence:
#
# PCOD9460528 Si02
#       6
#     8   8   8   8   8   8
#     4  11  24  40  63  93 127 169 218 268 326 389
#     4  11  24  43  67  96 129 170 217 266 331 391
#     4  10  23  41  63  93 129 167 215 265 322 386
#     4  11  24  43  66  96 129 169 216 269 326 396
#     4  11  22  41  63  92 128 170 217 267 325 385
#     4  10  23  41  62  92 128 166 212 263 320 385
#
# _framework density 22.695636
#
# number of rings (size 3 to 8) (size 9 to 14) (size 15 to 20)
#    0.000    1.333    1.667    3.000    4.667    5.333 
#    3.000    0.000    0.000    0.000    0.000    0.000 
#    0.000    0.000    0.000    0.000    0.000    0.000 
#
# Total GULP energy -268114.562289 kJ/mol
# GULP energy per Si atom -5585.720048 kJ/mol
# Density = 2.264398 g / cm^3
# Si number density = 22.695636 Si / 1000 Ang^3
#
#
#
# Elastic Constant Matrix: (Units=GPa)
#
#
# Indices 1 2 3 4 5 6 
#
# 1 103.3549 -6.4643 11.4694 0.0000 0.0000 0.0000
# 2 -6.4643 29.8135 5.5742 0.0000 0.0000 0.0000
# 3 11.4694 5.5742 71.5157 0.0000 0.0000 0.0000
# 4 0.0000 0.0000 0.0000 20.4184 0.0000 0.0000
# 5 0.0000 0.0000 0.0000 0.0000 36.7294 0.0000
# 6 0.0000 0.0000 0.0000 0.0000 0.0000 38.3184
#
#
#
# Elastic Compliance Matrix: (Units=1/GPa)
#
#
# Indices 1 2 3 4 5 6 
#
# 1 0.010033 0.002513 -0.001805 0.000000 0.000000 0.000000
# 2 0.002513 0.034667 -0.003105 0.000000 0.000000 0.000000
# 3 -0.001805 -0.003105 0.014514 0.000000 0.000000 0.000000
# 4 0.000000 0.000000 0.000000 0.048975 0.000000 0.000000
# 5 0.000000 0.000000 0.000000 0.000000 0.027226 0.000000
# 6 0.000000 0.000000 0.000000 0.000000 0.000000 0.026097
#
#
# Mechanical properties :
#
#
# Convention : Reuss Voigt Hill
#
# Bulk Modulus (GPa) = 18.37554 25.09364 21.73459
# Shear Modulus (GPa) = 27.10798 32.03355 29.57077
#
# Velocity S-wave (km/s) = 3.45978 3.76099 3.61352
# Velocity P-wave (km/s) = 4.90654 5.47181 5.19687
#
# Compressibility (1/GPa) = 0.05442018
#
# Stress axis : x y z
#
# Youngs Moduli (GPa) = 99.67257 28.84571 68.89694
#
# Poissons Ratio (x) = -0.07248 0.12435
# Poissons Ratio (y) = -0.25046 0.21393
# Poissons Ratio (z) = 0.17990 0.08957
#
# Static dielectric constant tensor:
#      x y z
#    x 1.824130 0.000000 0.000000 
#    y 0.000000 1.835560 0.000000 
#    z 0.000000 0.000000 1.990540 
# 
# From -- ./inp_files/11680.got.cif
#   From: 2010.05.17/outbox.cif.g08.bks.cpg/sg61_6_cif.got.tgz:11680.got - 2010.06.03 15:17:17.
