data_PCOD9460489
_publ_section_title
;
Structure prediction by ZEFSAII (Michael W. Deem and Ramdas Pophale) SiO2 
 PCOD9460489
Probable space group: P B C A
;
_chemical_formula_sum "Si O2"
_cell_formula_units_Z 60
_cell_length_a 9.274743
_cell_length_b 16.810475
_cell_length_c 18.123480
_cell_angle_alpha 90.000000
_cell_angle_beta 90.000000
_cell_angle_gamma 90.000000
_cell_volume 2825.683153
_symmetry_space_group_name_H-M "P B C A"
_symmetry_group_IT_number 61
_symmetry_cell_setting 'orthorhombic'
loop_
_space_group_symop_operation_xyz
x,y,z
1/2-x,-y,1/2+z
1/2+x,1/2-y,-z
-x,1/2+y,1/2-z
-x,-y,-z
1/2+x,y,1/2-z
1/2-x,1/2+y,z
x,1/2-y,1/2+z
loop_
_atom_site_type_symbol
_atom_site_label
_atom_site_fract_x
_atom_site_fract_y
_atom_site_fract_z
Si Si1 0.140037 0.855818 0.714626
Si Si2 0.858709 0.576543 0.162816
Si Si3 0.000000 0.000000 0.000000
Si Si4 0.261608 0.276447 0.111525
Si Si5 0.544950 0.731066 0.668851
Si Si6 0.442330 0.423526 0.157446
Si Si7 0.262360 0.419399 0.294581
Si Si8 0.185351 0.838939 0.955229
O O1 0.256476 0.890003 0.771521
O O2 0.208512 0.810254 0.645065
O O3 0.050064 0.790179 0.761504
O O4 0.023448 0.918461 0.686907
O O5 0.812614 0.486463 0.147847
O O6 0.820513 0.629557 0.092338
O O7 0.966373 0.018918 0.911804
O O8 0.090348 0.915998 0.978405
O O9 0.389191 0.336474 0.133237
O O10 0.112867 0.302338 0.150692
O O11 0.257288 0.287511 0.024028
O O12 0.660599 0.662858 0.685816
O O13 0.592506 0.782743 0.598280
O O14 0.322312 0.449481 0.216168
O O15 0.592226 0.414281 0.200099
#
# Coordination Sequence:
#
# PCOD9460489 Si02
#       8
#     8   8   4   8   8   8   8   8
#     4  11  23  42  68  96 135 172 231 282 341 408
#     4  11  24  43  67 101 135 175 226 290 345 413
#     4  10  22  48  64 102 142 192 224 282 366 424
#     4  11  24  43  68  99 134 185 228 282 351 416
#     4  11  25  44  67 106 134 182 232 289 336 421
#     4  11  24  40  71  99 138 187 229 294 353 428
#     4  12  24  42  70 103 134 180 231 290 349 417
#     4  10  25  43  72  94 143 178 235 279 355 417
#
# _framework density 21.233803999999999
#
# number of rings (size 3 to 8) (size 9 to 14) (size 15 to 20)
#    0.000    1.067    4.000    1.600    7.467    1.067 
#    0.000    2.000    2.933    0.000    0.000    0.000 
#    0.000    0.000    0.000    0.000    0.000    0.000 
#
# Total GULP energy -334277.561024 kJ/mol
# GULP energy per Si atom -5571.292684 kJ/mol
# Density = 2.118548 g / cm^3
# Si number density = 21.233804 Si / 1000 Ang^3
#
#
#
# Elastic Constant Matrix: (Units=GPa)
#
#
# Indices 1 2 3 4 5 6 
#
# 1 75.3215 0.8759 26.8763 0.0000 0.0000 0.0000
# 2 0.8759 51.1609 13.4328 0.0000 0.0000 0.0000
# 3 26.8763 13.4328 99.7960 0.0000 0.0000 0.0000
# 4 0.0000 0.0000 0.0000 33.4924 0.0000 0.0000
# 5 0.0000 0.0000 0.0000 0.0000 11.2890 0.0000
# 6 0.0000 0.0000 0.0000 0.0000 0.0000 26.2677
#
#
#
# Elastic Compliance Matrix: (Units=1/GPa)
#
#
# Indices 1 2 3 4 5 6 
#
# 1 0.014721 0.000818 -0.004075 0.000000 0.000000 0.000000
# 2 0.000818 0.020308 -0.002954 0.000000 0.000000 0.000000
# 3 -0.004075 -0.002954 0.011515 0.000000 0.000000 0.000000
# 4 0.000000 0.000000 0.000000 0.029857 0.000000 0.000000
# 5 0.000000 0.000000 0.000000 0.000000 0.088582 0.000000
# 6 0.000000 0.000000 0.000000 0.000000 0.000000 0.038070
#
#
# Mechanical properties :
#
#
# Convention : Reuss Voigt Hill
#
# Bulk Modulus (GPa) = 29.30583 34.29425 31.80004
# Shear Modulus (GPa) = 22.04119 26.54940 24.29529
#
# Velocity S-wave (km/s) = 3.22533 3.53985 3.38624
# Velocity P-wave (km/s) = 5.26325 5.73526 5.50432
#
# Compressibility (1/GPa) = 0.03412290
#
# Stress axis : x y z
#
# Youngs Moduli (GPa) = 67.93105 49.24240 86.84062
#
# Poissons Ratio (x) = -0.04027 0.35384
# Poissons Ratio (y) = -0.05555 0.25650
# Poissons Ratio (z) = 0.27679 0.14545
#
# Static dielectric constant tensor:
#      x y z
#    x 1.754220 0.000000 0.000000 
#    y 0.000000 1.784750 0.000000 
#    z 0.000000 0.000000 1.791890 
# 
# From -- ./inp_files/3597.got.cif
#   From: 2010.05.17/outbox.cif.g08.bks.cpg/sg61_2_cif.got.tgz:3597.got - 2010.06.03 15:17:17.
