data_PCOD9460483
_publ_section_title
;
Structure prediction by ZEFSAII (Michael W. Deem and Ramdas Pophale) SiO2 
 PCOD9460483
Probable space group: P B C A
;
_chemical_formula_sum "Si O2"
_cell_formula_units_Z 52
_cell_length_a 16.789986
_cell_length_b 11.909280
_cell_length_c 9.693977
_cell_angle_alpha 90.000000
_cell_angle_beta 90.000000
_cell_angle_gamma 90.000000
_cell_volume 1938.375112
_symmetry_space_group_name_H-M "P B C A"
_symmetry_group_IT_number 61
_symmetry_cell_setting 'orthorhombic'
loop_
_space_group_symop_operation_xyz
x,y,z
1/2-x,-y,1/2+z
1/2+x,1/2-y,-z
-x,1/2+y,1/2-z
-x,-y,-z
1/2+x,y,1/2-z
1/2-x,1/2+y,z
x,1/2-y,1/2+z
loop_
_atom_site_type_symbol
_atom_site_label
_atom_site_fract_x
_atom_site_fract_y
_atom_site_fract_z
Si Si1 0.321649 0.983751 0.446659
Si Si2 0.000000 0.500000 0.500000
Si Si3 0.948874 0.267393 0.935051
Si Si4 0.859362 0.331245 0.183696
Si Si5 0.606555 0.213906 0.418486
Si Si6 0.707823 0.088478 0.837129
Si Si7 0.546546 0.447712 0.700761
O O1 0.330687 0.851479 0.486912
O O2 0.313622 0.998231 0.284031
O O3 0.403674 0.027104 0.510934
O O4 0.250078 0.033293 0.533306
O O5 0.020936 0.307074 0.503822
O O6 0.005463 0.504071 0.326919
O O7 0.874107 0.273381 0.037106
O O8 0.921749 0.227306 0.786661
O O9 0.774781 0.335125 0.259001
O O10 0.891329 0.457299 0.160108
O O11 0.633766 0.338532 0.388444
O O12 0.491582 0.387636 0.587836
O O13 0.596247 0.153894 0.271788
#
# Coordination Sequence:
#
# PCOD9460483 Si02
#       7
#     8   4   8   8   8   8   8
#     4  11  27  50  75 111 152 204 254 324 390 478
#     4  10  22  46  82 100 144 204 254 302 386 454
#     4  12  27  47  80 112 155 202 272 309 389 469
#     4  12  27  49  73 119 151 201 255 335 379 473
#     4  11  25  49  76 105 153 208 256 316 385 468
#     4  12  29  46  76 112 160 196 258 322 404 454
#     4  11  23  48  78 107 145 201 259 319 376 460
#
# _framework density 26.826591000000001
#
# number of rings (size 3 to 8) (size 9 to 14) (size 15 to 20)
#    0.000    0.615    4.615    3.231    6.462    2.462 
#    0.000    0.000    0.000    0.000    0.000    0.000 
#    0.000    0.000    0.000    0.000    0.000    0.000 
#
# Total GULP energy -290795.964015 kJ/mol
# GULP energy per Si atom -5592.230077 kJ/mol
# Density = 2.676553 g / cm^3
# Si number density = 26.826591 Si / 1000 Ang^3
#
#
#
# Elastic Constant Matrix: (Units=GPa)
#
#
# Indices 1 2 3 4 5 6 
#
# 1 107.8907 22.7525 43.8031 0.0000 0.0000 0.0000
# 2 22.7525 47.5134 27.0057 0.0000 0.0000 0.0000
# 3 43.8031 27.0057 99.3196 0.0000 0.0000 0.0000
# 4 0.0000 0.0000 0.0000 43.1160 0.0000 0.0000
# 5 0.0000 0.0000 0.0000 0.0000 54.8024 0.0000
# 6 0.0000 0.0000 0.0000 0.0000 0.0000 47.0826
#
#
#
# Elastic Compliance Matrix: (Units=1/GPa)
#
#
# Indices 1 2 3 4 5 6 
#
# 1 0.011676 -0.003151 -0.004293 0.000000 0.000000 0.000000
# 2 -0.003151 0.025745 -0.005610 0.000000 0.000000 0.000000
# 3 -0.004293 -0.005610 0.013487 0.000000 0.000000 0.000000
# 4 0.000000 0.000000 0.000000 0.023193 0.000000 0.000000
# 5 0.000000 0.000000 0.000000 0.000000 0.018247 0.000000
# 6 0.000000 0.000000 0.000000 0.000000 0.000000 0.021239
#
#
# Mechanical properties :
#
#
# Convention : Reuss Voigt Hill
#
# Bulk Modulus (GPa) = 40.32389 49.09403 44.70896
# Shear Modulus (GPa) = 33.79235 39.74437 36.76836
#
# Velocity S-wave (km/s) = 3.55302 3.85324 3.70617
# Velocity P-wave (km/s) = 5.64764 6.17550 5.91746
#
# Compressibility (1/GPa) = 0.02479920
#
# Stress axis : x y z
#
# Youngs Moduli (GPa) = 85.64588 38.84314 74.14463
#
# Poissons Ratio (x) = 0.12241 0.31827
# Poissons Ratio (y) = 0.26990 0.41597
# Poissons Ratio (z) = 0.36764 0.21792
#
# Static dielectric constant tensor:
#      x y z
#    x 2.029020 0.000000 0.000000 
#    y 0.000000 1.967260 0.000000 
#    z 0.000000 0.000000 1.999550 
# 
# From -- ./inp_files/4450.got.cif
#   From: 2010.05.17/outbox.cif.g08.bks.cpg/sg61_3_cif.got.tgz:4450.got - 2010.06.03 15:17:17.
