data_PCOD9460579
_publ_section_title
;
Structure prediction by ZEFSAII (Michael W. Deem and Ramdas Pophale) SiO2 
 PCOD9460579
Probable space group: P B C A
;
_chemical_formula_sum "Si O2"
_cell_formula_units_Z 40
_cell_length_a 14.582972
_cell_length_b 22.159846
_cell_length_c 4.990085
_cell_angle_alpha 90.000000
_cell_angle_beta 90.000000
_cell_angle_gamma 90.000000
_cell_volume 1612.577973
_symmetry_space_group_name_H-M "P B C A"
_symmetry_group_IT_number 61
_symmetry_cell_setting 'orthorhombic'
loop_
_space_group_symop_operation_xyz
x,y,z
1/2-x,-y,1/2+z
1/2+x,1/2-y,-z
-x,1/2+y,1/2-z
-x,-y,-z
1/2+x,y,1/2-z
1/2-x,1/2+y,z
x,1/2-y,1/2+z
loop_
_atom_site_type_symbol
_atom_site_label
_atom_site_fract_x
_atom_site_fract_y
_atom_site_fract_z
Si Si1 0.393316 0.880191 0.591634
Si Si2 0.267158 0.210700 0.105517
Si Si3 0.694059 0.499542 0.651756
Si Si4 0.482305 0.209067 0.076390
Si Si5 0.482949 0.043656 0.748440
O O1 0.306026 0.839267 0.524946
O O2 0.351737 0.938335 0.741761
O O3 0.459346 0.844564 0.795645
O O4 0.453311 0.900963 0.335123
O O5 0.252064 0.232546 0.408841
O O6 0.374090 0.193260 0.084775
O O7 0.716691 0.494616 0.339326
O O8 0.625710 0.554607 0.721613
O O9 0.500583 0.265183 0.280861
O O10 0.500000 0.000000 0.500000
O O11 0.500000 0.000000 0.000000
#
# Coordination Sequence:
#
# PCOD9460579 Si02
#       5
#     8   8   8   8   8
#     4  11  24  43  76  97 141 197 233 287 382 427
#     4  10  23  43  67 105 143 176 237 294 350 437
#     4  11  25  44  65  99 141 178 241 303 351 428
#     4  10  23  43  67 106 143 180 238 299 349 438
#     4  10  23  43  65  98 136 176 238 294 347 431
#
# _framework density 24.805001000000001
#
# number of rings (size 3 to 8) (size 9 to 14) (size 15 to 20)
#    0.000    1.600    0.000    3.600    2.800    9.600 
#    7.200    0.000    0.000    0.000    0.000    0.000 
#    0.000    0.000    0.000    0.000    0.000    0.000 
#
# Total GULP energy -223883.223618 kJ/mol
# GULP energy per Si atom -5597.080590 kJ/mol
# Density = 2.474854 g / cm^3
# Si number density = 24.805001 Si / 1000 Ang^3
#
#
#
# Elastic Constant Matrix: (Units=GPa)
#
#
# Indices 1 2 3 4 5 6 
#
# 1 97.0745 54.2708 9.6937 0.0000 0.0000 0.0000
# 2 54.2708 103.2074 15.4989 0.0000 0.0000 0.0000
# 3 9.6937 15.4989 122.1727 0.0000 0.0000 0.0000
# 4 0.0000 0.0000 0.0000 24.5253 0.0000 0.0000
# 5 0.0000 0.0000 0.0000 0.0000 30.7845 0.0000
# 6 0.0000 0.0000 0.0000 0.0000 0.0000 43.6216
#
#
#
# Elastic Compliance Matrix: (Units=1/GPa)
#
#
# Indices 1 2 3 4 5 6 
#
# 1 0.014595 -0.007646 -0.000188 0.000000 0.000000 0.000000
# 2 -0.007646 0.013883 -0.001155 0.000000 0.000000 0.000000
# 3 -0.000188 -0.001155 0.008347 0.000000 0.000000 0.000000
# 4 0.000000 0.000000 0.000000 0.040774 0.000000 0.000000
# 5 0.000000 0.000000 0.000000 0.000000 0.032484 0.000000
# 6 0.000000 0.000000 0.000000 0.000000 0.000000 0.022924
#
#
# Mechanical properties :
#
#
# Convention : Reuss Voigt Hill
#
# Bulk Modulus (GPa) = 53.05895 53.48681 53.27288
# Shear Modulus (GPa) = 31.79294 35.98571 33.88933
#
# Velocity S-wave (km/s) = 3.58399 3.81300 3.70026
# Velocity P-wave (km/s) = 6.20995 6.40273 6.30708
#
# Compressibility (1/GPa) = 0.01884696
#
# Stress axis : x y z
#
# Youngs Moduli (GPa) = 68.51678 72.02840 119.81041
#
# Poissons Ratio (x) = 0.55076 0.02252
# Poissons Ratio (y) = 0.52391 0.13833
# Poissons Ratio (z) = 0.01288 0.08316
#
# Static dielectric constant tensor:
#      x y z
#    x 2.084280 0.000000 0.000000 
#    y 0.000000 1.997010 0.000000 
#    z 0.000000 0.000000 1.920990 
# 
# From -- ./inp_files/438.got.cif
#   From: 2010.05.17/outbox.cif.g08.bks.cpg/sg61_1_cif.got.tgz:438.got - 2010.06.03 15:17:17.
