data_PCOD9460056
_publ_section_title
;
Structure prediction by ZEFSAII (Michael W. Deem and Ramdas Pophale) SiO2 
 PCOD9460056
Probable space group: P B C A
;
_chemical_formula_sum "Si O2"
_cell_formula_units_Z 40
_cell_length_a 15.133844
_cell_length_b 9.166095
_cell_length_c 13.028246
_cell_angle_alpha 90.000000
_cell_angle_beta 90.000000
_cell_angle_gamma 90.000000
_cell_volume 1807.255509
_symmetry_space_group_name_H-M "P B C A"
_symmetry_group_IT_number 61
_symmetry_cell_setting 'orthorhombic'
loop_
_space_group_symop_operation_xyz
x,y,z
1/2-x,-y,1/2+z
1/2+x,1/2-y,-z
-x,1/2+y,1/2-z
-x,-y,-z
1/2+x,y,1/2-z
1/2-x,1/2+y,z
x,1/2-y,1/2+z
loop_
_atom_site_type_symbol
_atom_site_label
_atom_site_fract_x
_atom_site_fract_y
_atom_site_fract_z
Si Si1 0.683635 0.854121 0.530920
Si Si2 0.328918 0.431335 0.736312
Si Si3 0.574094 0.376464 0.997664
Si Si4 0.465153 0.361275 0.566036
Si Si5 0.816322 0.768086 0.358099
O O1 0.677653 0.856707 0.653312
O O2 0.610917 0.735696 0.491689
O O3 0.772188 0.826935 0.464952
O O4 0.659374 0.023759 0.510567
O O5 0.418874 0.401843 0.672904
O O6 0.317782 0.604938 0.725900
O O7 0.246924 0.359523 0.678083
O O8 0.500000 0.500000 0.000000
O O9 0.545820 0.252634 0.077392
O O10 0.588263 0.292475 0.890580
O O11 0.500000 0.500000 0.500000
#
# Coordination Sequence:
#
# PCOD9460056 Si02
#       5
#     8   8   8   8   8
#     4  10  24  41  63  94 127 169 221 263 326 400
#     4  11  24  39  64  95 124 172 222 264 328 392
#     4  10  21  42  63  87 131 167 202 272 328 378
#     4  10  21  41  65  91 133 167 209 273 325 382
#     4  11  22  42  63  91 130 166 213 278 323 384
#
# _framework density 22.133008
#
# number of rings (size 3 to 8) (size 9 to 14) (size 15 to 20)
#    0.000    1.600    4.000    0.000    2.800    1.600 
#    0.000    0.000    0.000    0.000    0.000    0.000 
#    0.000    0.000    0.000    0.000    0.000    0.000 
#
# Total GULP energy -222882.268927 kJ/mol
# GULP energy per Si atom -5572.056723 kJ/mol
# Density = 2.208263 g / cm^3
# Si number density = 22.133008 Si / 1000 Ang^3
#
#
#
# Elastic Constant Matrix: (Units=GPa)
#
#
# Indices 1 2 3 4 5 6 
#
# 1 33.7268 16.7396 9.2697 0.0000 0.0000 0.0000
# 2 16.7396 103.2154 -0.1346 0.0000 0.0000 0.0000
# 3 9.2697 -0.1346 93.3127 0.0000 0.0000 0.0000
# 4 0.0000 0.0000 0.0000 22.2964 0.0000 0.0000
# 5 0.0000 0.0000 0.0000 0.0000 7.0290 0.0000
# 6 0.0000 0.0000 0.0000 0.0000 0.0000 38.2872
#
#
#
# Elastic Compliance Matrix: (Units=1/GPa)
#
#
# Indices 1 2 3 4 5 6 
#
# 1 0.033237 -0.005395 -0.003310 0.000000 0.000000 0.000000
# 2 -0.005395 0.010564 0.000551 0.000000 0.000000 0.000000
# 3 -0.003310 0.000551 0.011046 0.000000 0.000000 0.000000
# 4 0.000000 0.000000 0.000000 0.044850 0.000000 0.000000
# 5 0.000000 0.000000 0.000000 0.000000 0.142268 0.000000
# 6 0.000000 0.000000 0.000000 0.000000 0.000000 0.026118
#
#
# Mechanical properties :
#
#
# Convention : Reuss Voigt Hill
#
# Bulk Modulus (GPa) = 25.94628 31.33384 28.64006
# Shear Modulus (GPa) = 16.82155 27.14786 21.98470
#
# Velocity S-wave (km/s) = 2.75984 3.50605 3.15508
# Velocity P-wave (km/s) = 4.68017 5.52971 5.12258
#
# Compressibility (1/GPa) = 0.03854117
#
# Stress axis : x y z
#
# Youngs Moduli (GPa) = 30.08671 94.65992 90.52870
#
# Poissons Ratio (x) = 0.51067 0.29961
# Poissons Ratio (y) = 0.16231 -0.04990
# Poissons Ratio (z) = 0.09957 -0.05217
#
# Static dielectric constant tensor:
#      x y z
#    x 1.901960 0.000000 0.000000 
#    y 0.000000 1.831270 0.000000 
#    z 0.000000 0.000000 1.903580 
# 
# From -- ./inp_files/2103.got.cif
#   From: 2010.05.17/outbox.cif.g08.bks.cpg/sg61_2_cif.got.tgz:2103.got - 2010.06.03 15:17:17.
