data_PCOD9460682
_publ_section_title
;
Structure prediction by ZEFSAII (Michael W. Deem and Ramdas Pophale) SiO2 
 PCOD9460682
Probable space group: P B C A
;
_chemical_formula_sum "Si O2"
_cell_formula_units_Z 40
_cell_length_a 9.333428
_cell_length_b 10.887343
_cell_length_c 13.135893
_cell_angle_alpha 90.000000
_cell_angle_beta 90.000000
_cell_angle_gamma 90.000000
_cell_volume 1334.819951
_symmetry_space_group_name_H-M "P B C A"
_symmetry_group_IT_number 61
_symmetry_cell_setting 'orthorhombic'
loop_
_space_group_symop_operation_xyz
x,y,z
1/2-x,-y,1/2+z
1/2+x,1/2-y,-z
-x,1/2+y,1/2-z
-x,-y,-z
1/2+x,y,1/2-z
1/2-x,1/2+y,z
x,1/2-y,1/2+z
loop_
_atom_site_type_symbol
_atom_site_label
_atom_site_fract_x
_atom_site_fract_y
_atom_site_fract_z
Si Si1 0.271510 0.794628 0.256778
Si Si2 0.853912 0.087823 0.451160
Si Si3 0.873345 0.444938 0.709119
Si Si4 0.917307 0.747030 0.946818
Si Si5 0.600059 0.921097 0.408459
O O1 0.225479 0.672772 0.316718
O O2 0.400705 0.771268 0.176023
O O3 0.141322 0.833648 0.184129
O O4 0.300303 0.922817 0.312766
O O5 0.892543 0.070696 0.330963
O O6 0.744214 0.203470 0.468417
O O7 0.993894 0.125661 0.515328
O O8 0.741083 0.974942 0.462802
O O9 0.021664 0.467305 0.651136
O O10 0.003008 0.847345 0.014447
#
# Coordination Sequence:
#
# PCOD9460682 Si02
#       5
#     8   8   8   8   8
#     4  10  24  48  79 114 157 212 268 335 403 481
#     4  10  24  47  74 113 153 208 267 331 398 482
#     4  10  23  48  74 111 163 203 271 328 405 485
#     4  11  21  50  74 111 160 201 273 334 399 485
#     4  11  23  46  75 114 157 208 270 335 407 482
#
# _framework density 29.96659
#
# number of rings (size 3 to 8) (size 9 to 14) (size 15 to 20)
#    0.000    1.600    4.000    0.600    0.000    8.000 
#   10.800    0.000    0.000    0.000    0.000    0.000 
#    0.000    0.000    0.000    0.000    0.000    0.000 
#
# Total GULP energy -223676.993214 kJ/mol
# GULP energy per Si atom -5591.924830 kJ/mol
# Density = 2.989838 g / cm^3
# Si number density = 29.966590 Si / 1000 Ang^3
#
#
#
# Elastic Constant Matrix: (Units=GPa)
#
#
# Indices 1 2 3 4 5 6 
#
# 1 211.7710 70.0998 80.8330 0.0000 0.0000 0.0000
# 2 70.0998 242.0670 68.8919 0.0000 0.0000 0.0000
# 3 80.8330 68.8919 141.2363 0.0000 0.0000 0.0000
# 4 0.0000 0.0000 0.0000 46.5962 0.0000 0.0000
# 5 0.0000 0.0000 0.0000 0.0000 42.5135 0.0000
# 6 0.0000 0.0000 0.0000 0.0000 0.0000 60.6601
#
#
#
# Elastic Compliance Matrix: (Units=1/GPa)
#
#
# Indices 1 2 3 4 5 6 
#
# 1 0.006211 -0.000914 -0.003109 0.000000 0.000000 0.000000
# 2 -0.000914 0.004931 -0.001882 0.000000 0.000000 0.000000
# 3 -0.003109 -0.001882 0.009778 0.000000 0.000000 0.000000
# 4 0.000000 0.000000 0.000000 0.021461 0.000000 0.000000
# 5 0.000000 0.000000 0.000000 0.000000 0.023522 0.000000
# 6 0.000000 0.000000 0.000000 0.000000 0.000000 0.016485
#
#
# Mechanical properties :
#
#
# Convention : Reuss Voigt Hill
#
# Bulk Modulus (GPa) = 109.77058 114.96931 112.36994
# Shear Modulus (GPa) = 51.42098 54.97058 53.19578
#
# Velocity S-wave (km/s) = 4.14689 4.28763 4.21785
# Velocity P-wave (km/s) = 7.72266 7.93479 7.82944
#
# Compressibility (1/GPa) = 0.00910991
#
# Stress axis : x y z
#
# Youngs Moduli (GPa) = 160.99560 202.77919 102.27068
#
# Poissons Ratio (x) = 0.18532 0.31797
# Poissons Ratio (y) = 0.14713 0.19252
# Poissons Ratio (z) = 0.50056 0.38172
#
# Static dielectric constant tensor:
#      x y z
#    x 2.491780 0.000000 0.000000 
#    y 0.000000 2.625010 0.000000 
#    z 0.000000 0.000000 2.315810 
# 
# From -- ./inp_files/8816.got.cif
#   From: 2010.05.17/outbox.cif.g08.bks.cpg/sg61_5_cif.got.tgz:8816.got - 2010.06.03 15:17:17.
