data_PCOD9460346
_publ_section_title
;
Structure prediction by ZEFSAII (Michael W. Deem and Ramdas Pophale) SiO2 
 PCOD9460346
Probable space group: P B C A
;
_chemical_formula_sum "Si O2"
_cell_formula_units_Z 48
_cell_length_a 4.967886
_cell_length_b 13.593049
_cell_length_c 30.213676
_cell_angle_alpha 90.000000
_cell_angle_beta 90.000000
_cell_angle_gamma 90.000000
_cell_volume 2040.290801
_symmetry_space_group_name_H-M "P B C A"
_symmetry_group_IT_number 61
_symmetry_cell_setting 'orthorhombic'
loop_
_space_group_symop_operation_xyz
x,y,z
1/2-x,-y,1/2+z
1/2+x,1/2-y,-z
-x,1/2+y,1/2-z
-x,-y,-z
1/2+x,y,1/2-z
1/2-x,1/2+y,z
x,1/2-y,1/2+z
loop_
_atom_site_type_symbol
_atom_site_label
_atom_site_fract_x
_atom_site_fract_y
_atom_site_fract_z
Si Si1 0.884890 0.340676 0.777289
Si Si2 0.688453 0.579094 0.456167
Si Si3 0.642478 0.337982 0.320706
Si Si4 0.326757 0.558786 0.854251
Si Si5 0.691327 0.056375 0.548841
Si Si6 0.103110 0.140652 0.135278
O O1 0.178000 0.369004 0.761341
O O2 0.798929 0.224834 0.783020
O O3 0.810686 0.383967 0.824875
O O4 0.386606 0.538672 0.456009
O O5 0.754414 0.620278 0.504986
O O6 0.759893 0.640870 0.412734
O O7 0.886893 0.483948 0.451704
O O8 0.389897 0.410650 0.317280
O O9 0.515694 0.248376 0.349505
O O10 0.883604 0.395053 0.344044
O O11 0.242597 0.597520 0.903007
O O12 0.378215 0.442986 0.861722
#
# Coordination Sequence:
#
# PCOD9460346 Si02
#       6
#     8   8   8   8   8   8
#     4  10  22  42  62  84 119 154 195 259 312 363
#     4   9  17  34  53  89 115 166 186 240 294 338
#     4  10  24  37  63  85 122 153 204 247 309 361
#     4  11  20  40  60  93 116 166 198 246 298 363
#     4   9  18  30  58  83 125 149 205 231 281 352
#     4   9  23  39  66  84 127 156 204 249 306 361
#
# _framework density 23.526059
#
# number of rings (size 3 to 8) (size 9 to 14) (size 15 to 20)
#    1.000    1.333    0.000    3.000    0.000    8.000 
#    0.000    6.667    0.000    0.000    0.000    0.000 
#    0.000    0.000    0.000    0.000    0.000    0.000 
#
# Total GULP energy -267470.689875 kJ/mol
# GULP energy per Si atom -5572.306039 kJ/mol
# Density = 2.347251 g / cm^3
# Si number density = 23.526059 Si / 1000 Ang^3
#
#
#
# Elastic Constant Matrix: (Units=GPa)
#
#
# Indices 1 2 3 4 5 6 
#
# 1 66.0587 25.1662 3.0015 0.0000 0.0000 0.0000
# 2 25.1662 51.1500 -19.0928 0.0000 0.0000 0.0000
# 3 3.0015 -19.0928 44.8610 0.0000 0.0000 0.0000
# 4 0.0000 0.0000 0.0000 25.5142 0.0000 0.0000
# 5 0.0000 0.0000 0.0000 0.0000 27.6123 0.0000
# 6 0.0000 0.0000 0.0000 0.0000 0.0000 17.8129
#
#
#
# Elastic Compliance Matrix: (Units=1/GPa)
#
#
# Indices 1 2 3 4 5 6 
#
# 1 0.020159 -0.012390 -0.006622 0.000000 0.000000 0.000000
# 2 -0.012390 0.030858 0.013962 0.000000 0.000000 0.000000
# 3 -0.006622 0.013962 0.028676 0.000000 0.000000 0.000000
# 4 0.000000 0.000000 0.000000 0.039194 0.000000 0.000000
# 5 0.000000 0.000000 0.000000 0.000000 0.036216 0.000000
# 6 0.000000 0.000000 0.000000 0.000000 0.000000 0.056139
#
#
# Mechanical properties :
#
#
# Convention : Reuss Voigt Hill
#
# Bulk Modulus (GPa) = 14.36918 20.02437 17.19678
# Shear Modulus (GPa) = 20.44649 24.38754 22.41702
#
# Velocity S-wave (km/s) = 2.95125 3.22315 3.09019
# Velocity P-wave (km/s) = 4.21120 4.73092 4.47861
#
# Compressibility (1/GPa) = 0.06959341
#
# Stress axis : x y z
#
# Youngs Moduli (GPa) = 49.60510 32.40634 34.87186
#
# Poissons Ratio (x) = 0.40152 0.23092
# Poissons Ratio (y) = 0.61462 -0.48689
# Poissons Ratio (z) = 0.32849 -0.45246
#
# Static dielectric constant tensor:
#      x y z
#    x 2.457350 0.000000 0.000000 
#    y 0.000000 1.895200 0.000000 
#    z 0.000000 0.000000 1.980340 
# 
# From -- ./inp_files/11581.got.cif
#   From: 2010.05.17/outbox.cif.g08.bks.cpg/sg61_6_cif.got.tgz:11581.got - 2010.06.03 15:17:17.
