data_PCOD9460115
_publ_section_title
;
Structure prediction by ZEFSAII (Michael W. Deem and Ramdas Pophale) SiO2 
 PCOD9460115
Probable space group: P B C A
;
_chemical_formula_sum "Si O2"
_cell_formula_units_Z 48
_cell_length_a 9.842508
_cell_length_b 10.358343
_cell_length_c 16.609889
_cell_angle_alpha 90.000000
_cell_angle_beta 90.000000
_cell_angle_gamma 90.000000
_cell_volume 1693.412630
_symmetry_space_group_name_H-M "P B C A"
_symmetry_group_IT_number 61
_symmetry_cell_setting 'orthorhombic'
loop_
_space_group_symop_operation_xyz
x,y,z
1/2-x,-y,1/2+z
1/2+x,1/2-y,-z
-x,1/2+y,1/2-z
-x,-y,-z
1/2+x,y,1/2-z
1/2-x,1/2+y,z
x,1/2-y,1/2+z
loop_
_atom_site_type_symbol
_atom_site_label
_atom_site_fract_x
_atom_site_fract_y
_atom_site_fract_z
Si Si1 0.898309 0.417135 0.427100
Si Si2 0.628816 0.985449 0.141754
Si Si3 0.307703 0.211108 0.187788
Si Si4 0.154393 0.587234 0.023024
Si Si5 0.827507 0.723938 0.585267
Si Si6 0.479846 0.592772 0.204022
O O1 0.824879 0.349825 0.351290
O O2 0.780617 0.485096 0.478869
O O3 0.983664 0.534125 0.384732
O O4 0.023414 0.319849 0.445838
O O5 0.663075 0.135773 0.124130
O O6 0.548445 0.987524 0.225159
O O7 0.758249 0.886698 0.142626
O O8 0.560722 0.940586 0.056309
O O9 0.364046 0.114851 0.116922
O O10 0.395607 0.176586 0.265252
O O11 0.152704 0.181145 0.201998
O O12 0.227877 0.719474 0.991411
#
# Coordination Sequence:
#
# PCOD9460115 Si02
#       6
#     8   8   8   8   8   8
#     4  11  22  43  68  97 142 190 236 286 360 429
#     4  10  22  41  69 101 137 181 236 289 357 420
#     4  11  24  43  69  98 144 179 242 293 346 432
#     4   9  23  40  67  99 135 182 234 290 356 416
#     4  10  21  42  68 100 138 185 232 292 352 432
#     4  11  25  42  66 102 135 189 229 296 351 420
#
# _framework density 28.345130999999999
#
# number of rings (size 3 to 8) (size 9 to 14) (size 15 to 20)
#    1.000    0.667    1.667    2.500    2.333    3.333 
#    0.000    0.000    0.000    0.000    0.000    0.000 
#    0.000    0.000    0.000    0.000    0.000    0.000 
#
# Total GULP energy -268085.402189 kJ/mol
# GULP energy per Si atom -5585.112546 kJ/mol
# Density = 2.828062 g / cm^3
# Si number density = 28.345131 Si / 1000 Ang^3
#
#
#
# Elastic Constant Matrix: (Units=GPa)
#
#
# Indices 1 2 3 4 5 6 
#
# 1 47.7052 -14.1790 -19.9918 0.0000 0.0000 0.0000
# 2 -14.1790 107.9977 -11.0387 0.0000 0.0000 0.0000
# 3 -19.9918 -11.0387 71.1752 0.0000 0.0000 0.0000
# 4 0.0000 0.0000 0.0000 42.9444 0.0000 0.0000
# 5 0.0000 0.0000 0.0000 0.0000 56.2227 0.0000
# 6 0.0000 0.0000 0.0000 0.0000 0.0000 28.7102
#
#
#
# Elastic Compliance Matrix: (Units=1/GPa)
#
#
# Indices 1 2 3 4 5 6 
#
# 1 0.025458 0.004139 0.007793 0.000000 0.000000 0.000000
# 2 0.004139 0.010081 0.002726 0.000000 0.000000 0.000000
# 3 0.007793 0.002726 0.016661 0.000000 0.000000 0.000000
# 4 0.000000 0.000000 0.000000 0.023286 0.000000 0.000000
# 5 0.000000 0.000000 0.000000 0.000000 0.017786 0.000000
# 6 0.000000 0.000000 0.000000 0.000000 0.000000 0.034831
#
#
# Mechanical properties :
#
#
# Convention : Reuss Voigt Hill
#
# Bulk Modulus (GPa) = 12.26756 15.16212 13.71484
# Shear Modulus (GPa) = 39.69485 43.71463 41.70474
#
# Velocity S-wave (km/s) = 3.74627 3.93138 3.83994
# Velocity P-wave (km/s) = 4.80104 5.09592 4.95068
#
# Compressibility (1/GPa) = 0.08151582
#
# Stress axis : x y z
#
# Youngs Moduli (GPa) = 39.28056 99.19178 60.01885
#
# Poissons Ratio (x) = -0.41054 -0.46770
# Poissons Ratio (y) = -0.16258 -0.16362
# Poissons Ratio (z) = -0.30610 -0.27041
#
# Static dielectric constant tensor:
#      x y z
#    x 2.256320 0.000000 0.000000 
#    y 0.000000 2.260610 0.000000 
#    z 0.000000 0.000000 2.217310 
# 
# From -- ./inp_files/9161.got.cif
#   From: 2010.05.17/outbox.cif.g08.bks.cpg/sg61_5_cif.got.tgz:9161.got - 2010.06.03 15:17:17.
