data_PCOD9460255
_publ_section_title
;
Structure prediction by ZEFSAII (Michael W. Deem and Ramdas Pophale) SiO2 
 PCOD9460255
Probable space group: P B C A
;
_chemical_formula_sum "Si O2"
_cell_formula_units_Z 48
_cell_length_a 13.204847
_cell_length_b 23.966711
_cell_length_c 5.615752
_cell_angle_alpha 90.000000
_cell_angle_beta 90.000000
_cell_angle_gamma 90.000000
_cell_volume 1777.254952
_symmetry_space_group_name_H-M "P B C A"
_symmetry_group_IT_number 61
_symmetry_cell_setting 'orthorhombic'
loop_
_space_group_symop_operation_xyz
x,y,z
1/2-x,-y,1/2+z
1/2+x,1/2-y,-z
-x,1/2+y,1/2-z
-x,-y,-z
1/2+x,y,1/2-z
1/2-x,1/2+y,z
x,1/2-y,1/2+z
loop_
_atom_site_type_symbol
_atom_site_label
_atom_site_fract_x
_atom_site_fract_y
_atom_site_fract_z
Si Si1 0.829503 0.121756 0.445750
Si Si2 0.454034 0.774736 0.603273
Si Si3 0.213148 0.080944 0.660347
Si Si4 0.459019 0.892885 0.792020
Si Si5 0.123068 0.524972 0.355673
Si Si6 0.805977 0.273561 0.646879
O O1 0.759062 0.128979 0.671815
O O2 0.950856 0.128855 0.471407
O O3 0.821710 0.057785 0.363464
O O4 0.801481 0.162025 0.227700
O O5 0.415692 0.747880 0.358575
O O6 0.443304 0.841924 0.610914
O O7 0.574034 0.761602 0.616888
O O8 0.315122 0.048423 0.578598
O O9 0.140159 0.095527 0.442098
O O10 0.142286 0.039130 0.810833
O O11 0.511373 0.947888 0.674722
O O12 0.768065 0.256658 0.387166
#
# Coordination Sequence:
#
# PCOD9460255 Si02
#       6
#     8   8   8   8   8   8
#     4   9  22  39  60  90 121 164 213 258 321 394
#     4   9  18  37  62  92 129 168 216 273 331 392
#     4  12  21  43  63  87 135 166 208 283 321 383
#     4   9  22  41  62  95 120 169 218 260 326 402
#     4  10  22  40  60  93 124 165 218 259 325 390
#     4   9  18  33  60  88 121 167 212 267 328 387
#
# _framework density 27.007943000000001
#
# number of rings (size 3 to 8) (size 9 to 14) (size 15 to 20)
#    1.000    1.333    1.667    0.500    2.333    2.667 
#    6.000    3.333    0.000    0.000    0.000    0.000 
#    0.000    0.000    0.000    0.000    0.000    0.000 
#
# Total GULP energy -268330.945718 kJ/mol
# GULP energy per Si atom -5590.228036 kJ/mol
# Density = 2.694647 g / cm^3
# Si number density = 27.007943 Si / 1000 Ang^3
#
#
#
# Elastic Constant Matrix: (Units=GPa)
#
#
# Indices 1 2 3 4 5 6 
#
# 1 153.6744 2.4108 71.5611 0.0000 0.0000 0.0000
# 2 2.4108 22.4224 5.6608 0.0000 0.0000 0.0000
# 3 71.5611 5.6608 134.0075 0.0000 0.0000 0.0000
# 4 0.0000 0.0000 0.0000 73.1111 0.0000 0.0000
# 5 0.0000 0.0000 0.0000 0.0000 69.0683 0.0000
# 6 0.0000 0.0000 0.0000 0.0000 0.0000 -13.0407
#
#
#
# Elastic Compliance Matrix: (Units=1/GPa)
#
#
# Indices 1 2 3 4 5 6 
#
# 1 0.008662 0.000239 -0.004636 0.000000 0.000000 0.000000
# 2 0.000239 0.045086 -0.002032 0.000000 0.000000 0.000000
# 3 -0.004636 -0.002032 0.010024 0.000000 0.000000 0.000000
# 4 0.000000 0.000000 0.000000 0.013678 0.000000 0.000000
# 5 0.000000 0.000000 0.000000 0.000000 0.014478 0.000000
# 6 0.000000 0.000000 0.000000 0.000000 0.000000 -0.076683
#
#
# Mechanical properties :
#
#
# Convention : Reuss Voigt Hill
#
# Bulk Modulus (GPa) = 19.64110 52.15219 35.89664
# Shear Modulus (GPa) = 110.92943 41.19251 76.06097
#
# Velocity S-wave (km/s) = 6.41577 3.90962 5.31259
# Velocity P-wave (km/s) = 7.88485 6.30333 7.13803
#
# Compressibility (1/GPa) = 0.05091365
#
# Stress axis : x y z
#
# Youngs Moduli (GPa) = 115.44327 22.18003 99.76379
#
# Poissons Ratio (x) = -0.00530 0.46249
# Poissons Ratio (y) = -0.02759 0.20274
# Poissons Ratio (z) = 0.53517 0.04507
#
# Static dielectric constant tensor:
#      x y z
#    x 2.119770 0.000000 0.000000 
#    y 0.000000 2.077030 0.000000 
#    z 0.000000 0.000000 2.058040 
# 
# From -- ./inp_files/520.got.cif
#   From: 2010.05.17/outbox.cif.g08.bks.cpg/sg61_1_cif.got.tgz:520.got - 2010.06.03 15:17:17.
