data_PCOD9460811
_publ_section_title
;
Structure prediction by ZEFSAII (Michael W. Deem and Ramdas Pophale) SiO2 
 PCOD9460811
Probable space group: P B C A
;
_chemical_formula_sum "Si O2"
_cell_formula_units_Z 64
_cell_length_a 9.478493
_cell_length_b 10.361277
_cell_length_c 25.714156
_cell_angle_alpha 90.000000
_cell_angle_beta 90.000000
_cell_angle_gamma 90.000000
_cell_volume 2525.369043
_symmetry_space_group_name_H-M "P B C A"
_symmetry_group_IT_number 61
_symmetry_cell_setting 'orthorhombic'
loop_
_space_group_symop_operation_xyz
x,y,z
1/2-x,-y,1/2+z
1/2+x,1/2-y,-z
-x,1/2+y,1/2-z
-x,-y,-z
1/2+x,y,1/2-z
1/2-x,1/2+y,z
x,1/2-y,1/2+z
loop_
_atom_site_type_symbol
_atom_site_label
_atom_site_fract_x
_atom_site_fract_y
_atom_site_fract_z
Si Si1 0.912171 0.486623 0.329605
Si Si2 0.792979 0.258378 0.222554
Si Si3 0.962623 0.095207 0.636467
Si Si4 0.469341 0.589590 0.278014
Si Si5 0.227499 0.260211 0.168526
Si Si6 0.476101 0.047749 0.430839
Si Si7 0.746978 0.505531 0.488954
Si Si8 0.981110 0.336975 0.026052
O O1 0.954251 0.487047 0.268996
O O2 0.799203 0.606382 0.330828
O O3 0.862609 0.344417 0.347367
O O4 0.034340 0.533202 0.368927
O O5 0.844062 0.341069 0.173778
O O6 0.710941 0.317168 0.272437
O O7 0.681070 0.150052 0.207397
O O8 0.924423 0.190757 0.251872
O O9 0.013945 0.972028 0.668064
O O10 0.931770 0.078414 0.576321
O O11 0.096575 0.189793 0.635770
O O12 0.634765 0.998794 0.444062
O O13 0.471189 0.190787 0.455348
O O14 0.350681 0.978145 0.461443
O O15 0.637725 0.624940 0.484039
O O16 0.637727 0.384889 0.489163
#
# Coordination Sequence:
#
# PCOD9460811 Si02
#       8
#     8   8   8   8   8   8   8   8
#     4  11  22  40  71  98 143 179 232 274 347 412
#     4  11  22  40  59  91 132 184 224 275 326 389
#     4  12  22  40  66  92 133 179 224 272 335 403
#     4  11  24  39  61  94 138 181 225 276 325 401
#     4  11  22  42  63  99 136 192 223 279 333 413
#     4  11  22  44  72 102 132 173 233 294 354 424
#     4  10  25  44  71  99 129 175 227 297 362 425
#     4  11  23  45  69  97 136 175 227 288 364 420
#
# _framework density 25.342829999999999
#
# number of rings (size 3 to 8) (size 9 to 14) (size 15 to 20)
#    0.000    1.000    5.000    3.000    0.000    2.000 
#    2.250    0.000    2.750    0.000    0.000    0.000 
#    0.000    0.000    0.000    0.000    0.000    0.000 
#
# Total GULP energy -357157.193615 kJ/mol
# GULP energy per Si atom -5580.581150 kJ/mol
# Density = 2.528515 g / cm^3
# Si number density = 25.342830 Si / 1000 Ang^3
#
#
#
# Elastic Constant Matrix: (Units=GPa)
#
#
# Indices 1 2 3 4 5 6 
#
# 1 120.2291 18.2868 12.6897 0.0000 0.0000 0.0000
# 2 18.2868 64.5718 -8.7792 0.0000 0.0000 0.0000
# 3 12.6897 -8.7792 68.4853 0.0000 0.0000 0.0000
# 4 0.0000 0.0000 0.0000 34.6774 0.0000 0.0000
# 5 0.0000 0.0000 0.0000 0.0000 32.7093 0.0000
# 6 0.0000 0.0000 0.0000 0.0000 0.0000 36.8761
#
#
#
# Elastic Compliance Matrix: (Units=1/GPa)
#
#
# Indices 1 2 3 4 5 6 
#
# 1 0.008958 -0.002812 -0.002020 0.000000 0.000000 0.000000
# 2 -0.002812 0.016644 0.002655 0.000000 0.000000 0.000000
# 3 -0.002020 0.002655 0.015316 0.000000 0.000000 0.000000
# 4 0.000000 0.000000 0.000000 0.028837 0.000000 0.000000
# 5 0.000000 0.000000 0.000000 0.000000 0.030572 0.000000
# 6 0.000000 0.000000 0.000000 0.000000 0.000000 0.027118
#
#
# Mechanical properties :
#
#
# Convention : Reuss Voigt Hill
#
# Bulk Modulus (GPa) = 27.34963 33.07564 30.21264
# Shear Modulus (GPa) = 34.72496 36.25849 35.49172
#
# Velocity S-wave (km/s) = 3.70565 3.78659 3.74634
# Velocity P-wave (km/s) = 5.39670 5.67427 5.53722
#
# Compressibility (1/GPa) = 0.03656356
#
# Stress axis : x y z
#
# Youngs Moduli (GPa) = 111.62768 60.08236 65.28983
#
# Poissons Ratio (x) = 0.16893 0.13191
# Poissons Ratio (y) = 0.31386 -0.17332
# Poissons Ratio (z) = 0.22553 -0.15949
#
# Static dielectric constant tensor:
#      x y z
#    x 2.072900 0.000000 0.000000 
#    y 0.000000 2.134600 0.000000 
#    z 0.000000 0.000000 2.029080 
# 
# From -- ./inp_files/11723.got.cif
#   From: 2010.05.17/outbox.cif.g08.bks.cpg/sg61_6_cif.got.tgz:11723.got - 2010.06.03 15:17:17.
