data_PCOD9460661
_publ_section_title
;
Structure prediction by ZEFSAII (Michael W. Deem and Ramdas Pophale) SiO2 
 PCOD9460661
Probable space group: P B C A
;
_chemical_formula_sum "Si O2"
_cell_formula_units_Z 48
_cell_length_a 8.457965
_cell_length_b 13.862355
_cell_length_c 16.006024
_cell_angle_alpha 90.000000
_cell_angle_beta 90.000000
_cell_angle_gamma 90.000000
_cell_volume 1876.663312
_symmetry_space_group_name_H-M "P B C A"
_symmetry_group_IT_number 61
_symmetry_cell_setting 'orthorhombic'
loop_
_space_group_symop_operation_xyz
x,y,z
1/2-x,-y,1/2+z
1/2+x,1/2-y,-z
-x,1/2+y,1/2-z
-x,-y,-z
1/2+x,y,1/2-z
1/2-x,1/2+y,z
x,1/2-y,1/2+z
loop_
_atom_site_type_symbol
_atom_site_label
_atom_site_fract_x
_atom_site_fract_y
_atom_site_fract_z
Si Si1 0.672381 0.352307 0.191181
Si Si2 0.201439 0.188799 0.178488
Si Si3 0.066590 0.701812 0.556754
Si Si4 0.384030 0.072649 0.320352
Si Si5 0.762463 0.541635 0.004101
Si Si6 0.422251 0.135634 0.934251
O O1 0.653941 0.283632 0.269215
O O2 0.585256 0.298788 0.114738
O O3 0.604750 0.459363 0.201392
O O4 0.852632 0.362405 0.158616
O O5 0.301616 0.235085 0.104165
O O6 0.313168 0.128041 0.241005
O O7 0.052874 0.120315 0.159550
O O8 0.117677 0.591096 0.543357
O O9 0.051689 0.758565 0.470538
O O10 0.264368 0.077259 0.400042
O O11 0.791933 0.428447 0.014789
O O12 0.915158 0.581306 0.955061
#
# Coordination Sequence:
#
# PCOD9460661 Si02
#       6
#     8   8   8   8   8   8
#     4  11  27  48  72 105 145 193 243 293 368 440
#     4  12  27  46  69 106 146 195 238 305 361 434
#     4  12  25  41  72 103 136 184 237 295 362 420
#     4  11  27  48  71 102 149 193 245 300 364 440
#     4  10  25  44  71 104 136 184 235 295 363 426
#     4  10  23  46  71 100 140 180 232 300 354 434
#
# _framework density 25.577310000000001
#
# number of rings (size 3 to 8) (size 9 to 14) (size 15 to 20)
#    0.000    1.000    1.667    3.000   11.667    1.333 
#    3.000    0.000    0.000    0.000    0.000    0.000 
#    0.000    0.000    0.000    0.000    0.000    0.000 
#
# Total GULP energy -268877.215317 kJ/mol
# GULP energy per Si atom -5601.608652 kJ/mol
# Density = 2.551909 g / cm^3
# Si number density = 25.577310 Si / 1000 Ang^3
#
#
#
# Elastic Constant Matrix: (Units=GPa)
#
#
# Indices 1 2 3 4 5 6 
#
# 1 74.8136 17.2709 6.1821 0.0000 0.0000 0.0000
# 2 17.2709 141.9074 21.3682 0.0000 0.0000 0.0000
# 3 6.1821 21.3682 33.1772 0.0000 0.0000 0.0000
# 4 0.0000 0.0000 0.0000 45.0526 0.0000 0.0000
# 5 0.0000 0.0000 0.0000 0.0000 49.6013 0.0000
# 6 0.0000 0.0000 0.0000 0.0000 0.0000 41.1636
#
#
#
# Elastic Compliance Matrix: (Units=1/GPa)
#
#
# Indices 1 2 3 4 5 6 
#
# 1 0.013834 -0.001435 -0.001654 0.000000 0.000000 0.000000
# 2 -0.001435 0.007952 -0.004855 0.000000 0.000000 0.000000
# 3 -0.001654 -0.004855 0.033576 0.000000 0.000000 0.000000
# 4 0.000000 0.000000 0.000000 0.022196 0.000000 0.000000
# 5 0.000000 0.000000 0.000000 0.000000 0.020161 0.000000
# 6 0.000000 0.000000 0.000000 0.000000 0.000000 0.024293
#
#
# Mechanical properties :
#
#
# Convention : Reuss Voigt Hill
#
# Bulk Modulus (GPa) = 25.33136 37.72673 31.52905
# Shear Modulus (GPa) = 33.09983 40.83531 36.96757
#
# Velocity S-wave (km/s) = 3.60128 4.00001 3.80587
# Velocity P-wave (km/s) = 5.21705 6.00962 5.62731
#
# Compressibility (1/GPa) = 0.03947675
#
# Stress axis : x y z
#
# Youngs Moduli (GPa) = 72.28352 125.74744 29.78320
#
# Poissons Ratio (x) = 0.18041 0.04926
# Poissons Ratio (y) = 0.10370 0.14458
# Poissons Ratio (z) = 0.11954 0.61045
#
# Static dielectric constant tensor:
#      x y z
#    x 2.022880 0.000000 0.000000 
#    y 0.000000 1.982480 0.000000 
#    z 0.000000 0.000000 2.009050 
# 
# From -- ./inp_files/8889.got.cif
#   From: 2010.05.17/outbox.cif.g08.bks.cpg/sg61_5_cif.got.tgz:8889.got - 2010.06.03 15:17:17.
