data_PCOD9460234
_publ_section_title
;
Structure prediction by ZEFSAII (Michael W. Deem and Ramdas Pophale) SiO2 
 PCOD9460234
Probable space group: P B C A
;
_chemical_formula_sum "Si O2"
_cell_formula_units_Z 48
_cell_length_a 14.405455
_cell_length_b 11.643289
_cell_length_c 13.249798
_cell_angle_alpha 90.000000
_cell_angle_beta 90.000000
_cell_angle_gamma 90.000000
_cell_volume 2222.347223
_symmetry_space_group_name_H-M "P B C A"
_symmetry_group_IT_number 61
_symmetry_cell_setting 'orthorhombic'
loop_
_space_group_symop_operation_xyz
x,y,z
1/2-x,-y,1/2+z
1/2+x,1/2-y,-z
-x,1/2+y,1/2-z
-x,-y,-z
1/2+x,y,1/2-z
1/2-x,1/2+y,z
x,1/2-y,1/2+z
loop_
_atom_site_type_symbol
_atom_site_label
_atom_site_fract_x
_atom_site_fract_y
_atom_site_fract_z
Si Si1 0.093150 0.791117 0.143598
Si Si2 0.761589 0.948478 0.323307
Si Si3 0.899587 0.054654 0.480269
Si Si4 0.820249 0.139373 0.191345
Si Si5 0.933276 0.944849 0.081622
Si Si6 0.755316 0.843498 0.108181
O O1 0.173050 0.887432 0.126429
O O2 0.091708 0.683083 0.067450
O O3 0.119328 0.732633 0.249137
O O4 0.995853 0.855475 0.142680
O O5 0.782763 0.869292 0.224974
O O6 0.843463 0.973374 0.402116
O O7 0.751806 0.073401 0.268689
O O8 0.831868 0.078283 0.575583
O O9 0.000000 0.000000 0.500000
O O10 0.767786 0.209743 0.105401
O O11 0.890178 0.047043 0.146785
O O12 0.842684 0.878590 0.040590
O O13 0.000000 0.000000 0.000000
#
# Coordination Sequence:
#
# PCOD9460234 Si02
#       6
#     8   8   8   8   8   8
#     4  10  22  39  62  93 124 163 213 263 321 385
#     4   9  21  42  64  91 130 169 215 269 325 392
#     4  11  24  42  67  98 132 172 221 273 329 394
#     4   9  21  40  60  87 125 168 213 263 323 385
#     4  11  22  37  60  91 124 159 207 263 317 381
#     4  10  22  40  63  90 128 173 215 267 332 395
#
# _framework density 21.598783999999998
#
# number of rings (size 3 to 8) (size 9 to 14) (size 15 to 20)
#    0.000    2.000    0.000    2.000    0.000   14.667 
#    0.000    8.333    0.000    0.000    0.000    0.000 
#    0.000    0.000    0.000    0.000    0.000    0.000 
#
# Total GULP energy -267687.240983 kJ/mol
# GULP energy per Si atom -5576.817520 kJ/mol
# Density = 2.154962 g / cm^3
# Si number density = 21.598784 Si / 1000 Ang^3
#
#
#
# Elastic Constant Matrix: (Units=GPa)
#
#
# Indices 1 2 3 4 5 6 
#
# 1 171.5783 91.2954 44.2200 0.0000 0.0000 0.0000
# 2 91.2954 126.2572 41.5546 0.0000 0.0000 0.0000
# 3 44.2200 41.5546 63.9294 0.0000 0.0000 0.0000
# 4 0.0000 0.0000 0.0000 36.3592 0.0000 0.0000
# 5 0.0000 0.0000 0.0000 0.0000 28.2902 0.0000
# 6 0.0000 0.0000 0.0000 0.0000 0.0000 57.4193
#
#
#
# Elastic Compliance Matrix: (Units=1/GPa)
#
#
# Indices 1 2 3 4 5 6 
#
# 1 0.009846 -0.006205 -0.002777 0.000000 0.000000 0.000000
# 2 -0.006205 0.013987 -0.004799 0.000000 0.000000 0.000000
# 3 -0.002777 -0.004799 0.020683 0.000000 0.000000 0.000000
# 4 0.000000 0.000000 0.000000 0.027503 0.000000 0.000000
# 5 0.000000 0.000000 0.000000 0.000000 0.035348 0.000000
# 6 0.000000 0.000000 0.000000 0.000000 0.000000 0.017416
#
#
# Mechanical properties :
#
#
# Convention : Reuss Voigt Hill
#
# Bulk Modulus (GPa) = 58.98925 79.54500 69.26712
# Shear Modulus (GPa) = 31.64631 36.72672 34.18652
#
# Velocity S-wave (km/s) = 3.83193 4.12807 3.98276
# Velocity P-wave (km/s) = 6.85193 7.72203 7.29995
#
# Compressibility (1/GPa) = 0.01695224
#
# Stress axis : x y z
#
# Youngs Moduli (GPa) = 101.56656 71.49457 48.35003
#
# Poissons Ratio (x) = 0.44366 0.13425
# Poissons Ratio (y) = 0.63027 0.23205
# Poissons Ratio (z) = 0.28202 0.34313
#
# Static dielectric constant tensor:
#      x y z
#    x 1.833600 0.000000 0.000000 
#    y 0.000000 1.834610 0.000000 
#    z 0.000000 0.000000 1.857720 
# 
# From -- ./inp_files/7816.got.cif
#   From: 2010.05.17/outbox.cif.g08.bks.cpg/sg61_4_cif.got.tgz:7816.got - 2010.06.03 15:17:17.
