data_PCOD9460846
_publ_section_title
;
Structure prediction by ZEFSAII (Michael W. Deem and Ramdas Pophale) SiO2 
 PCOD9460846
Probable space group: P B C A
;
_chemical_formula_sum "Si O2"
_cell_formula_units_Z 40
_cell_length_a 9.650134
_cell_length_b 16.736239
_cell_length_c 9.565769
_cell_angle_alpha 90.000000
_cell_angle_beta 90.000000
_cell_angle_gamma 90.000000
_cell_volume 1544.938166
_symmetry_space_group_name_H-M "P B C A"
_symmetry_group_IT_number 61
_symmetry_cell_setting 'orthorhombic'
loop_
_space_group_symop_operation_xyz
x,y,z
1/2-x,-y,1/2+z
1/2+x,1/2-y,-z
-x,1/2+y,1/2-z
-x,-y,-z
1/2+x,y,1/2-z
1/2-x,1/2+y,z
x,1/2-y,1/2+z
loop_
_atom_site_type_symbol
_atom_site_label
_atom_site_fract_x
_atom_site_fract_y
_atom_site_fract_z
Si Si1 0.709169 0.985269 0.601704
Si Si2 0.097814 0.619043 0.930431
Si Si3 0.423708 0.786829 0.887778
Si Si4 0.189176 0.841588 0.713294
Si Si5 0.966676 0.385031 0.383822
O O1 0.729338 0.930145 0.737406
O O2 0.639722 0.927419 0.487837
O O3 0.850374 0.027969 0.555399
O O4 0.596681 0.054732 0.631732
O O5 0.101955 0.631096 0.766291
O O6 0.948839 0.650632 0.986087
O O7 0.196136 0.664058 0.044894
O O8 0.278672 0.785223 0.810630
O O9 0.526731 0.824042 0.769015
O O10 0.480824 0.701346 0.931099
#
# Coordination Sequence:
#
# PCOD9460846 Si02
#       5
#     8   8   8   8   8
#     4  11  26  43  79 109 157 187 262 309 395 447
#     4  10  26  46  76 108 149 202 249 314 385 452
#     4  10  27  47  76 106 156 196 261 305 390 441
#     4  10  26  48  75 108 147 200 251 318 368 464
#     4  11  27  47  72 116 149 205 248 324 379 474
#
# _framework density 25.891003000000001
#
# number of rings (size 3 to 8) (size 9 to 14) (size 15 to 20)
#    1.200    0.400    0.000    1.200   14.000    4.800 
#    0.000    0.000    0.000    0.000    0.000    0.000 
#    0.000    0.000    0.000    0.000    0.000    0.000 
#
# Total GULP energy -223560.638055 kJ/mol
# GULP energy per Si atom -5589.015951 kJ/mol
# Density = 2.583207 g / cm^3
# Si number density = 25.891003 Si / 1000 Ang^3
#
#
#
# Elastic Constant Matrix: (Units=GPa)
#
#
# Indices 1 2 3 4 5 6 
#
# 1 64.6581 34.8098 26.5725 0.0000 0.0000 0.0000
# 2 34.8098 150.8447 34.0379 0.0000 0.0000 0.0000
# 3 26.5725 34.0379 134.7815 0.0000 0.0000 0.0000
# 4 0.0000 0.0000 0.0000 41.1762 0.0000 0.0000
# 5 0.0000 0.0000 0.0000 0.0000 28.9033 0.0000
# 6 0.0000 0.0000 0.0000 0.0000 0.0000 42.5325
#
#
#
# Elastic Compliance Matrix: (Units=1/GPa)
#
#
# Indices 1 2 3 4 5 6 
#
# 1 0.018564 -0.003667 -0.002734 0.000000 0.000000 0.000000
# 2 -0.003667 0.007754 -0.001235 0.000000 0.000000 0.000000
# 3 -0.002734 -0.001235 0.008270 0.000000 0.000000 0.000000
# 4 0.000000 0.000000 0.000000 0.024286 0.000000 0.000000
# 5 0.000000 0.000000 0.000000 0.000000 0.034598 0.000000
# 6 0.000000 0.000000 0.000000 0.000000 0.000000 0.023511
#
#
# Mechanical properties :
#
#
# Convention : Reuss Voigt Hill
#
# Bulk Modulus (GPa) = 51.77030 60.12498 55.94764
# Shear Modulus (GPa) = 36.05040 39.51333 37.78186
#
# Velocity S-wave (km/s) = 3.73552 3.91082 3.82418
# Velocity P-wave (km/s) = 6.21646 6.60799 6.41521
#
# Compressibility (1/GPa) = 0.01931609
#
# Stress axis : x y z
#
# Youngs Moduli (GPa) = 53.86868 128.96081 120.91358
#
# Poissons Ratio (x) = 0.47290 0.33056
# Poissons Ratio (y) = 0.19753 0.14937
# Poissons Ratio (z) = 0.14727 0.15931
#
# Static dielectric constant tensor:
#      x y z
#    x 2.095300 0.000000 0.000000 
#    y 0.000000 2.017900 0.000000 
#    z 0.000000 0.000000 1.999440 
# 
# From -- ./inp_files/2157.got.cif
#   From: 2010.05.17/outbox.cif.g08.bks.cpg/sg61_2_cif.got.tgz:2157.got - 2010.06.03 15:17:17.
