data_PCOD9460040
_publ_section_title
;
Structure prediction by ZEFSAII (Michael W. Deem and Ramdas Pophale) SiO2 
 PCOD9460040
Probable space group: P B C A
;
_chemical_formula_sum "Si O2"
_cell_formula_units_Z 64
_cell_length_a 23.497008
_cell_length_b 8.389201
_cell_length_c 15.197789
_cell_angle_alpha 90.000000
_cell_angle_beta 90.000000
_cell_angle_gamma 90.000000
_cell_volume 2995.805235
_symmetry_space_group_name_H-M "P B C A"
_symmetry_group_IT_number 61
_symmetry_cell_setting 'orthorhombic'
loop_
_space_group_symop_operation_xyz
x,y,z
1/2-x,-y,1/2+z
1/2+x,1/2-y,-z
-x,1/2+y,1/2-z
-x,-y,-z
1/2+x,y,1/2-z
1/2-x,1/2+y,z
x,1/2-y,1/2+z
loop_
_atom_site_type_symbol
_atom_site_label
_atom_site_fract_x
_atom_site_fract_y
_atom_site_fract_z
Si Si1 0.218708 0.293177 0.461328
Si Si2 0.343138 0.211553 0.028732
Si Si3 0.225676 0.456954 0.829880
Si Si4 0.345671 0.041943 0.274478
Si Si5 0.949050 0.895814 0.889261
Si Si6 0.577445 0.925437 0.572915
Si Si7 0.641876 0.144675 0.898544
Si Si8 0.868867 0.125464 0.789526
O O1 0.281491 0.244881 0.493307
O O2 0.239345 0.440500 0.402029
O O3 0.179971 0.275210 0.548443
O O4 0.194530 0.173291 0.388493
O O5 0.390770 0.265752 0.959728
O O6 0.347808 0.319204 0.115000
O O7 0.350319 0.025390 0.052505
O O8 0.280570 0.393124 0.777300
O O9 0.180215 0.544267 0.769010
O O10 0.377509 0.988151 0.363232
O O11 0.382551 0.200341 0.250752
O O12 0.343004 0.903480 0.201587
O O13 0.920372 0.722012 0.893075
O O14 0.016860 0.895930 0.882315
O O15 0.919047 0.001062 0.812649
O O16 0.934566 0.975706 0.983927
#
# Coordination Sequence:
#
# PCOD9460040 Si02
#       8
#     8   8   8   8   8   8   8   8
#     4  12  23  38  62  94 132 173 213 260 320 389
#     4  10  21  41  61  88 130 171 210 268 329 384
#     4  12  22  38  62  93 128 172 215 258 319 394
#     4  11  23  41  62  93 130 168 210 271 325 388
#     4  10  24  43  66  94 123 173 217 275 332 392
#     4  10  21  45  70  88 126 169 224 273 330 394
#     4  11  25  39  62  98 132 170 219 269 331 394
#     4  10  23  39  59  88 128 163 209 264 327 380
#
# _framework density 21.363204
#
# number of rings (size 3 to 8) (size 9 to 14) (size 15 to 20)
#    0.000    1.250    3.750    1.500    3.500    3.500 
#    0.000    0.000    0.000    0.000    0.000    0.000 
#    0.000    0.000    0.000    0.000    0.000    0.000 
#
# Total GULP energy -356647.226958 kJ/mol
# GULP energy per Si atom -5572.612921 kJ/mol
# Density = 2.131458 g / cm^3
# Si number density = 21.363204 Si / 1000 Ang^3
#
#
#
# Elastic Constant Matrix: (Units=GPa)
#
#
# Indices 1 2 3 4 5 6 
#
# 1 113.0048 0.5407 31.9553 0.0000 0.0000 0.0000
# 2 0.5407 31.9550 14.2199 0.0000 0.0000 0.0000
# 3 31.9553 14.2199 62.8929 0.0000 0.0000 0.0000
# 4 0.0000 0.0000 0.0000 21.8462 0.0000 0.0000
# 5 0.0000 0.0000 0.0000 0.0000 30.8763 0.0000
# 6 0.0000 0.0000 0.0000 0.0000 0.0000 21.1244
#
#
#
# Elastic Compliance Matrix: (Units=1/GPa)
#
#
# Indices 1 2 3 4 5 6 
#
# 1 0.010503 0.002443 -0.005889 0.000000 0.000000 0.000000
# 2 0.002443 0.035363 -0.009237 0.000000 0.000000 0.000000
# 3 -0.005889 -0.009237 0.020980 0.000000 0.000000 0.000000
# 4 0.000000 0.000000 0.000000 0.045775 0.000000 0.000000
# 5 0.000000 0.000000 0.000000 0.000000 0.032387 0.000000
# 6 0.000000 0.000000 0.000000 0.000000 0.000000 0.047339
#
#
# Mechanical properties :
#
#
# Convention : Reuss Voigt Hill
#
# Bulk Modulus (GPa) = 24.10742 33.47607 28.79175
# Shear Modulus (GPa) = 21.59468 25.51183 23.55325
#
# Velocity S-wave (km/s) = 3.18281 3.45946 3.32402
# Velocity P-wave (km/s) = 4.98158 5.62682 5.31400
#
# Compressibility (1/GPa) = 0.04148101
#
# Stress axis : x y z
#
# Youngs Moduli (GPa) = 95.21403 28.27815 47.66363
#
# Poissons Ratio (x) = -0.06907 0.28067
# Poissons Ratio (y) = -0.23258 0.44025
# Poissons Ratio (z) = 0.56068 0.26119
#
# Static dielectric constant tensor:
#      x y z
#    x 1.785690 0.000000 0.000000 
#    y 0.000000 1.869150 0.000000 
#    z 0.000000 0.000000 1.923140 
# 
# From -- ./inp_files/8526.got.cif
#   From: 2010.05.17/outbox.cif.g08.bks.cpg/sg61_5_cif.got.tgz:8526.got - 2010.06.03 15:17:17.
