data_PCOD9460428
_publ_section_title
;
Structure prediction by ZEFSAII (Michael W. Deem and Ramdas Pophale) SiO2 
 PCOD9460428
Probable space group: P B C A
;
_chemical_formula_sum "Si O2"
_cell_formula_units_Z 60
_cell_length_a 14.171202
_cell_length_b 17.928790
_cell_length_c 9.084280
_cell_angle_alpha 90.000000
_cell_angle_beta 90.000000
_cell_angle_gamma 90.000000
_cell_volume 2308.065773
_symmetry_space_group_name_H-M "P B C A"
_symmetry_group_IT_number 61
_symmetry_cell_setting 'orthorhombic'
loop_
_space_group_symop_operation_xyz
x,y,z
1/2-x,-y,1/2+z
1/2+x,1/2-y,-z
-x,1/2+y,1/2-z
-x,-y,-z
1/2+x,y,1/2-z
1/2-x,1/2+y,z
x,1/2-y,1/2+z
loop_
_atom_site_type_symbol
_atom_site_label
_atom_site_fract_x
_atom_site_fract_y
_atom_site_fract_z
Si Si1 0.000000 0.500000 0.500000
Si Si2 0.009482 0.149370 0.056390
Si Si3 0.386736 0.199754 0.170638
Si Si4 0.862263 0.700684 0.679797
Si Si5 0.319688 0.863556 0.717214
Si Si6 0.682041 0.999183 0.084747
Si Si7 0.371256 0.535110 0.744414
Si Si8 0.649137 0.663536 0.644213
O O1 0.951436 0.416467 0.482906
O O2 0.037938 0.495956 0.326122
O O3 0.108334 0.103241 0.094156
O O4 0.959057 0.174461 0.203876
O O5 0.054373 0.205201 0.938903
O O6 0.291324 0.150037 0.194539
O O7 0.367582 0.285906 0.213210
O O8 0.407723 0.190684 0.998962
O O9 0.855148 0.778743 0.762006
O O10 0.879328 0.625184 0.771314
O O11 0.759032 0.685580 0.608956
O O12 0.338480 0.919340 0.850608
O O13 0.788386 0.983583 0.138953
O O14 0.634552 0.924543 0.150432
O O15 0.658707 0.002278 0.912422
#
# Coordination Sequence:
#
# PCOD9460428 Si02
#       8
#     4   8   8   8   8   8   8   8
#     4  10  22  44  64  96 138 182 220 292 354 408
#     4  11  23  42  68  97 137 177 234 281 352 421
#     4  11  24  44  69  97 135 182 226 282 345 420
#     4   9  22  40  66  92 132 182 227 281 336 411
#     4  11  24  42  70  99 136 180 232 288 347 418
#     4  11  23  41  72 102 133 180 229 288 345 414
#     4  10  23  42  71  99 138 180 234 282 353 417
#     4  10  22  44  63  97 131 174 228 276 338 411
#
# _framework density 25.995792999999999
#
# number of rings (size 3 to 8) (size 9 to 14) (size 15 to 20)
#    0.000    1.600    1.333    2.400    7.467    3.200 
#    2.400    2.667    0.000    0.000    0.000    0.000 
#    0.000    0.000    0.000    0.000    0.000    0.000 
#
# Total GULP energy -334243.630067 kJ/mol
# GULP energy per Si atom -5570.727168 kJ/mol
# Density = 2.593663 g / cm^3
# Si number density = 25.995793 Si / 1000 Ang^3
#
#
#
# Elastic Constant Matrix: (Units=GPa)
#
#
# Indices 1 2 3 4 5 6 
#
# 1 66.2098 9.5950 25.2264 0.0000 0.0000 0.0000
# 2 9.5950 163.2136 34.7000 0.0000 0.0000 0.0000
# 3 25.2264 34.7000 84.7626 0.0000 0.0000 0.0000
# 4 0.0000 0.0000 0.0000 39.8057 0.0000 0.0000
# 5 0.0000 0.0000 0.0000 0.0000 35.2784 0.0000
# 6 0.0000 0.0000 0.0000 0.0000 0.0000 26.0627
#
#
#
# Elastic Compliance Matrix: (Units=1/GPa)
#
#
# Indices 1 2 3 4 5 6 
#
# 1 0.017036 0.000084 -0.005104 0.000000 0.000000 0.000000
# 2 0.000084 0.006711 -0.002772 0.000000 0.000000 0.000000
# 3 -0.005104 -0.002772 0.014452 0.000000 0.000000 0.000000
# 4 0.000000 0.000000 0.000000 0.025122 0.000000 0.000000
# 5 0.000000 0.000000 0.000000 0.000000 0.028346 0.000000
# 6 0.000000 0.000000 0.000000 0.000000 0.000000 0.038369
#
#
# Mechanical properties :
#
#
# Convention : Reuss Voigt Hill
#
# Bulk Modulus (GPa) = 44.22222 50.35877 47.29049
# Shear Modulus (GPa) = 32.64549 36.54033 34.59291
#
# Velocity S-wave (km/s) = 3.54757 3.75323 3.65185
# Velocity P-wave (km/s) = 5.81623 6.18032 6.00104
#
# Compressibility (1/GPa) = 0.02261307
#
# Stress axis : x y z
#
# Youngs Moduli (GPa) = 58.69849 148.99904 69.19557
#
# Poissons Ratio (x) = -0.01247 0.35321
# Poissons Ratio (y) = -0.00491 0.19184
# Poissons Ratio (z) = 0.29962 0.41309
#
# Static dielectric constant tensor:
#      x y z
#    x 1.174770 0.000000 0.000000 
#    y 0.000000 3.460720 0.000000 
#    z 0.000000 0.000000 1.986280 
# 
# From -- ./inp_files/3618.got.cif
#   From: 2010.05.17/outbox.cif.g08.bks.cpg/sg61_2_cif.got.tgz:3618.got - 2010.06.03 15:17:17.
