data_PCOD9460781
_publ_section_title
;
Structure prediction by ZEFSAII (Michael W. Deem and Ramdas Pophale) SiO2 
 PCOD9460781
Probable space group: P B C A
;
_chemical_formula_sum "Si O2"
_cell_formula_units_Z 40
_cell_length_a 9.011247
_cell_length_b 19.800237
_cell_length_c 8.871082
_cell_angle_alpha 90.000000
_cell_angle_beta 90.000000
_cell_angle_gamma 90.000000
_cell_volume 1582.821265
_symmetry_space_group_name_H-M "P B C A"
_symmetry_group_IT_number 61
_symmetry_cell_setting 'orthorhombic'
loop_
_space_group_symop_operation_xyz
x,y,z
1/2-x,-y,1/2+z
1/2+x,1/2-y,-z
-x,1/2+y,1/2-z
-x,-y,-z
1/2+x,y,1/2-z
1/2-x,1/2+y,z
x,1/2-y,1/2+z
loop_
_atom_site_type_symbol
_atom_site_label
_atom_site_fract_x
_atom_site_fract_y
_atom_site_fract_z
Si Si1 0.783036 0.934404 0.214018
Si Si2 0.637492 0.562903 0.394220
Si Si3 0.555563 0.658679 0.800946
Si Si4 0.381514 0.848268 0.779797
Si Si5 0.379648 0.233806 0.414496
O O1 0.665005 0.903504 0.330860
O O2 0.894924 0.872634 0.183392
O O3 0.867077 0.996198 0.290551
O O4 0.694876 0.953273 0.062062
O O5 0.764347 0.609065 0.317570
O O6 0.481275 0.601784 0.380934
O O7 0.589775 0.690275 0.637682
O O8 0.596793 0.719752 0.910671
O O9 0.282064 0.793839 0.869237
O O10 0.495131 0.811344 0.667356
#
# Coordination Sequence:
#
# PCOD9460781 Si02
#       5
#     8   8   8   8   8
#     4  12  29  48  77 113 151 200 251 313 376 451
#     4  11  26  48  76 112 151 197 251 309 378 445
#     4  12  29  48  76 110 151 195 257 311 380 446
#     4  10  24  46  79 105 150 198 249 309 376 442
#     4  11  26  48  76 107 149 195 253 310 375 447
#
# _framework density 25.271332000000001
#
# number of rings (size 3 to 8) (size 9 to 14) (size 15 to 20)
#    0.000    0.800    2.000    2.400   14.000    6.400 
#    0.000    0.000    0.000    0.000    0.000    0.000 
#    0.000    0.000    0.000    0.000    0.000    0.000 
#
# Total GULP energy -224414.015314 kJ/mol
# GULP energy per Si atom -5610.350383 kJ/mol
# Density = 2.521381 g / cm^3
# Si number density = 25.271332 Si / 1000 Ang^3
#
#
#
# Elastic Constant Matrix: (Units=GPa)
#
#
# Indices 1 2 3 4 5 6 
#
# 1 142.4403 21.2442 24.4042 0.0000 0.0000 0.0000
# 2 21.2442 88.5234 26.5323 0.0000 0.0000 0.0000
# 3 24.4042 26.5323 86.6815 0.0000 0.0000 0.0000
# 4 0.0000 0.0000 0.0000 42.2983 0.0000 0.0000
# 5 0.0000 0.0000 0.0000 0.0000 25.4726 0.0000
# 6 0.0000 0.0000 0.0000 0.0000 0.0000 42.9130
#
#
#
# Elastic Compliance Matrix: (Units=1/GPa)
#
#
# Indices 1 2 3 4 5 6 
#
# 1 0.007507 -0.001286 -0.001720 0.000000 0.000000 0.000000
# 2 -0.001286 0.012658 -0.003512 0.000000 0.000000 0.000000
# 3 -0.001720 -0.003512 0.013096 0.000000 0.000000 0.000000
# 4 0.000000 0.000000 0.000000 0.023642 0.000000 0.000000
# 5 0.000000 0.000000 0.000000 0.000000 0.039258 0.000000
# 6 0.000000 0.000000 0.000000 0.000000 0.000000 0.023303
#
#
# Mechanical properties :
#
#
# Convention : Reuss Voigt Hill
#
# Bulk Modulus (GPa) = 49.44615 51.33407 50.39011
# Shear Modulus (GPa) = 35.90900 38.50108 37.20504
#
# Velocity S-wave (km/s) = 3.77362 3.90745 3.84112
# Velocity P-wave (km/s) = 6.21253 6.38082 6.29724
#
# Compressibility (1/GPa) = 0.02022402
#
# Stress axis : x y z
#
# Youngs Moduli (GPa) = 133.20977 79.00265 76.36046
#
# Poissons Ratio (x) = 0.10160 0.13133
# Poissons Ratio (y) = 0.17132 0.26820
# Poissons Ratio (z) = 0.22910 0.27748
#
# Static dielectric constant tensor:
#      x y z
#    x 1.977870 0.000000 0.000000 
#    y 0.000000 1.978670 0.000000 
#    z 0.000000 0.000000 2.021280 
# 
# From -- ./inp_files/1771.got.cif
#   From: 2010.05.17/outbox.cif.g08.bks.cpg/sg61_1_cif.got.tgz:1771.got - 2010.06.03 15:17:17.
