data_PCOD9460137
_publ_section_title
;
Structure prediction by ZEFSAII (Michael W. Deem and Ramdas Pophale) SiO2 
 PCOD9460137
Probable space group: P B C A
;
_chemical_formula_sum "Si O2"
_cell_formula_units_Z 48
_cell_length_a 8.071733
_cell_length_b 10.156641
_cell_length_c 22.845750
_cell_angle_alpha 90.000000
_cell_angle_beta 90.000000
_cell_angle_gamma 90.000000
_cell_volume 1872.933293
_symmetry_space_group_name_H-M "P B C A"
_symmetry_group_IT_number 61
_symmetry_cell_setting 'orthorhombic'
loop_
_space_group_symop_operation_xyz
x,y,z
1/2-x,-y,1/2+z
1/2+x,1/2-y,-z
-x,1/2+y,1/2-z
-x,-y,-z
1/2+x,y,1/2-z
1/2-x,1/2+y,z
x,1/2-y,1/2+z
loop_
_atom_site_type_symbol
_atom_site_label
_atom_site_fract_x
_atom_site_fract_y
_atom_site_fract_z
Si Si1 0.368164 0.266174 0.059751
Si Si2 0.479747 0.750209 0.754135
Si Si3 0.011282 0.504980 0.385972
Si Si4 0.273331 0.112728 0.172902
Si Si5 0.004530 0.706491 0.938126
Si Si6 0.212516 0.888859 0.327586
O O1 0.505557 0.377096 0.073067
O O2 0.356459 0.168437 0.114591
O O3 0.187039 0.333535 0.055794
O O4 0.406654 0.191339 0.000049
O O5 0.366893 0.791395 0.699710
O O6 0.588209 0.873302 0.777365
O O7 0.593393 0.633128 0.728052
O O8 0.363419 0.706200 0.807281
O O9 0.843101 0.492902 0.346746
O O10 0.999804 0.637307 0.423184
O O11 0.176926 0.513267 0.346723
O O12 0.103337 0.642344 0.884502
#
# Coordination Sequence:
#
# PCOD9460137 Si02
#       6
#     8   8   8   8   8   8
#     4  11  22  44  68  95 135 174 216 280 330 390
#     4  10  21  43  68  91 141 171 219 269 336 388
#     4  11  23  43  68 103 129 174 227 266 340 399
#     4  10  22  43  64  99 130 173 216 278 321 396
#     4  11  25  46  68  99 137 171 224 280 331 395
#     4  11  22  43  68  99 132 178 214 280 328 389
#
# _framework density 25.628250000000001
#
# number of rings (size 3 to 8) (size 9 to 14) (size 15 to 20)
#    0.000    1.333    5.000    1.500    0.000    2.667 
#    3.000    4.167    0.000    0.000    0.000    0.000 
#    0.000    0.000    0.000    0.000    0.000    0.000 
#
# Total GULP energy -268229.354635 kJ/mol
# GULP energy per Si atom -5588.111555 kJ/mol
# Density = 2.556992 g / cm^3
# Si number density = 25.628250 Si / 1000 Ang^3
#
#
#
# Elastic Constant Matrix: (Units=GPa)
#
#
# Indices 1 2 3 4 5 6 
#
# 1 111.5578 8.0396 41.4284 0.0000 0.0000 0.0000
# 2 8.0396 23.5884 9.7379 0.0000 0.0000 0.0000
# 3 41.4284 9.7379 175.6840 0.0000 0.0000 0.0000
# 4 0.0000 0.0000 0.0000 29.0582 0.0000 0.0000
# 5 0.0000 0.0000 0.0000 0.0000 46.8230 0.0000
# 6 0.0000 0.0000 0.0000 0.0000 0.0000 40.6851
#
#
#
# Elastic Compliance Matrix: (Units=1/GPa)
#
#
# Indices 1 2 3 4 5 6 
#
# 1 0.009964 -0.002483 -0.002212 0.000000 0.000000 0.000000
# 2 -0.002483 0.044005 -0.001854 0.000000 0.000000 0.000000
# 3 -0.002212 -0.001854 0.006316 0.000000 0.000000 0.000000
# 4 0.000000 0.000000 0.000000 0.034414 0.000000 0.000000
# 5 0.000000 0.000000 0.000000 0.000000 0.021357 0.000000
# 6 0.000000 0.000000 0.000000 0.000000 0.000000 0.024579
#
#
# Mechanical properties :
#
#
# Convention : Reuss Voigt Hill
#
# Bulk Modulus (GPa) = 21.19153 47.69357 34.44255
# Shear Modulus (GPa) = 29.50502 40.08820 34.79661
#
# Velocity S-wave (km/s) = 3.39672 3.95931 3.68876
# Velocity P-wave (km/s) = 4.86522 6.28901 5.62237
#
# Compressibility (1/GPa) = 0.04718867
#
# Stress axis : x y z
#
# Youngs Moduli (GPa) = 100.35736 22.72458 158.31745
#
# Poissons Ratio (x) = 0.05642 0.35021
# Poissons Ratio (y) = 0.24918 0.29346
# Poissons Ratio (z) = 0.22200 0.04212
#
# Static dielectric constant tensor:
#      x y z
#    x 2.051520 0.000000 0.000000 
#    y 0.000000 2.083360 0.000000 
#    z 0.000000 0.000000 2.028590 
# 
# From -- ./inp_files/6580.got.cif
#   From: 2010.05.17/outbox.cif.g08.bks.cpg/sg61_4_cif.got.tgz:6580.got - 2010.06.03 15:17:17.
