data_PCOD9460575
_publ_section_title
;
Structure prediction by ZEFSAII (Michael W. Deem and Ramdas Pophale) SiO2 
 PCOD9460575
Probable space group: P B C A
;
_chemical_formula_sum "Si O2"
_cell_formula_units_Z 48
_cell_length_a 27.233966
_cell_length_b 5.055657
_cell_length_c 17.123117
_cell_angle_alpha 90.000000
_cell_angle_beta 90.000000
_cell_angle_gamma 90.000000
_cell_volume 2357.606481
_symmetry_space_group_name_H-M "P B C A"
_symmetry_group_IT_number 61
_symmetry_cell_setting 'orthorhombic'
loop_
_space_group_symop_operation_xyz
x,y,z
1/2-x,-y,1/2+z
1/2+x,1/2-y,-z
-x,1/2+y,1/2-z
-x,-y,-z
1/2+x,y,1/2-z
1/2-x,1/2+y,z
x,1/2-y,1/2+z
loop_
_atom_site_type_symbol
_atom_site_label
_atom_site_fract_x
_atom_site_fract_y
_atom_site_fract_z
Si Si1 0.279792 0.473005 0.175242
Si Si2 0.781772 0.026268 0.011690
Si Si3 0.373273 0.819865 0.390034
Si Si4 0.515855 0.251670 0.050216
Si Si5 0.524207 0.616727 0.783334
Si Si6 0.369217 0.327064 0.283435
O O1 0.235003 0.273279 0.194113
O O2 0.288593 0.467526 0.082105
O O3 0.325233 0.361706 0.223024
O O4 0.760528 0.313271 0.032828
O O5 0.831607 0.931418 0.052312
O O6 0.426302 0.776795 0.429986
O O7 0.360152 0.538528 0.352236
O O8 0.376004 0.038226 0.321087
O O9 0.487041 0.265525 0.131960
O O10 0.500000 0.500000 0.000000
O O11 0.500000 0.000000 0.000000
O O12 0.500409 0.327779 0.775538
O O13 0.580697 0.598197 0.760500
#
# Coordination Sequence:
#
# PCOD9460575 Si02
#       6
#     8   8   8   8   8   8
#     4  10  23  43  64  94 129 165 216 265 322 391
#     4  10  23  44  65  93 132 173 212 271 331 386
#     4  12  25  43  66  99 132 168 224 265 328 390
#     4  12  26  44  66  99 133 174 221 276 325 403
#     4  12  23  46  67  93 137 173 214 270 339 391
#     4  12  24  42  68  97 127 174 215 270 327 391
#
# _framework density 20.359634
#
# number of rings (size 3 to 8) (size 9 to 14) (size 15 to 20)
#    0.000    0.667    3.333    4.000    2.333    4.000 
#    6.000    0.000    0.000    0.000    0.000    0.000 
#    0.000    0.000    0.000    0.000    0.000    0.000 
#
# Total GULP energy -268470.362689 kJ/mol
# GULP energy per Si atom -5593.132556 kJ/mol
# Density = 2.031329 g / cm^3
# Si number density = 20.359634 Si / 1000 Ang^3
#
#
#
# Elastic Constant Matrix: (Units=GPa)
#
#
# Indices 1 2 3 4 5 6 
#
# 1 128.6196 14.1643 51.6036 0.0000 0.0000 0.0000
# 2 14.1643 105.5043 25.4728 0.0000 0.0000 0.0000
# 3 51.6036 25.4728 72.5662 0.0000 0.0000 0.0000
# 4 0.0000 0.0000 0.0000 33.0104 0.0000 0.0000
# 5 0.0000 0.0000 0.0000 0.0000 46.0377 0.0000
# 6 0.0000 0.0000 0.0000 0.0000 0.0000 50.9201
#
#
#
# Elastic Compliance Matrix: (Units=1/GPa)
#
#
# Indices 1 2 3 4 5 6 
#
# 1 0.010898 0.000446 -0.007906 0.000000 0.000000 0.000000
# 2 0.000446 0.010374 -0.003959 0.000000 0.000000 0.000000
# 3 -0.007906 -0.003959 0.020792 0.000000 0.000000 0.000000
# 4 0.000000 0.000000 0.000000 0.030293 0.000000 0.000000
# 5 0.000000 0.000000 0.000000 0.000000 0.021721 0.000000
# 6 0.000000 0.000000 0.000000 0.000000 0.000000 0.019639
#
#
# Mechanical properties :
#
#
# Convention : Reuss Voigt Hill
#
# Bulk Modulus (GPa) = 52.01204 54.35240 53.18222
# Shear Modulus (GPa) = 34.97364 40.35694 37.66529
#
# Velocity S-wave (km/s) = 4.14912 4.45702 4.30583
# Velocity P-wave (km/s) = 6.96819 7.29663 7.13430
#
# Compressibility (1/GPa) = 0.01922632
#
# Stress axis : x y z
#
# Youngs Moduli (GPa) = 91.76134 96.39289 48.09443
#
# Poissons Ratio (x) = -0.04297 0.38024
# Poissons Ratio (y) = -0.04091 0.19039
# Poissons Ratio (z) = 0.72548 0.38159
#
# Static dielectric constant tensor:
#      x y z
#    x 1.678150 0.000000 0.000000 
#    y 0.000000 1.688070 0.000000 
#    z 0.000000 0.000000 1.695350 
# 
# From -- ./inp_files/8581.got.cif
#   From: 2010.05.17/outbox.cif.g08.bks.cpg/sg61_5_cif.got.tgz:8581.got - 2010.06.03 15:17:17.
