data_PCOD9460165
_publ_section_title
;
Structure prediction by ZEFSAII (Michael W. Deem and Ramdas Pophale) SiO2 
 PCOD9460165
Probable space group: P B C A
;
_chemical_formula_sum "Si O2"
_cell_formula_units_Z 44
_cell_length_a 7.731669
_cell_length_b 12.338237
_cell_length_c 17.957232
_cell_angle_alpha 90.000000
_cell_angle_beta 90.000000
_cell_angle_gamma 90.000000
_cell_volume 1713.033101
_symmetry_space_group_name_H-M "P B C A"
_symmetry_group_IT_number 61
_symmetry_cell_setting 'orthorhombic'
loop_
_space_group_symop_operation_xyz
x,y,z
1/2-x,-y,1/2+z
1/2+x,1/2-y,-z
-x,1/2+y,1/2-z
-x,-y,-z
1/2+x,y,1/2-z
1/2-x,1/2+y,z
x,1/2-y,1/2+z
loop_
_atom_site_type_symbol
_atom_site_label
_atom_site_fract_x
_atom_site_fract_y
_atom_site_fract_z
Si Si1 0.622300 0.750662 0.697210
Si Si2 0.500000 0.000000 0.500000
Si Si3 0.989155 0.195028 0.858437
Si Si4 0.006452 0.569407 0.888465
Si Si5 0.826199 0.122398 0.454338
Si Si6 0.854576 0.031042 0.131132
O O1 0.812181 0.733474 0.659164
O O2 0.610514 0.711385 0.781269
O O3 0.478095 0.679459 0.655346
O O4 0.584198 0.877107 0.685787
O O5 0.371098 0.898077 0.525413
O O6 0.336340 0.062065 0.455258
O O7 0.008949 0.068314 0.882870
O O8 0.892393 0.267180 0.918302
O O9 0.172067 0.517198 0.845434
O O10 0.871644 0.473964 0.896165
O O11 0.066361 0.604844 0.970149
#
# Coordination Sequence:
#
# PCOD9460165 Si02
#       6
#     8   4   8   8   8   8
#     4  11  25  43  67 101 145 198 238 304 367 459
#     4  10  24  42  72 104 134 174 244 306 370 444
#     4  11  26  42  69 100 144 192 239 304 372 441
#     4   9  21  44  70  93 138 187 239 297 372 429
#     4  10  21  45  70 102 133 188 240 318 361 442
#     4  10  23  44  65 103 138 182 245 298 371 445
#
# _framework density 25.685434000000001
#
# number of rings (size 3 to 8) (size 9 to 14) (size 15 to 20)
#    0.000    1.818    1.818    0.000    7.636    1.455 
#    0.000    0.000    0.000    0.000    0.000    0.000 
#    0.000    0.000    0.000    0.000    0.000    0.000 
#
# Total GULP energy -245274.285172 kJ/mol
# GULP energy per Si atom -5574.415572 kJ/mol
# Density = 2.562697 g / cm^3
# Si number density = 25.685434 Si / 1000 Ang^3
#
#
#
# Elastic Constant Matrix: (Units=GPa)
#
#
# Indices 1 2 3 4 5 6 
#
# 1 88.9249 65.9503 20.9554 0.0000 0.0000 0.0000
# 2 65.9503 144.1322 40.0234 0.0000 0.0000 0.0000
# 3 20.9554 40.0234 59.3847 0.0000 0.0000 0.0000
# 4 0.0000 0.0000 0.0000 -4.5891 0.0000 0.0000
# 5 0.0000 0.0000 0.0000 0.0000 31.9608 0.0000
# 6 0.0000 0.0000 0.0000 0.0000 0.0000 39.4909
#
#
#
# Elastic Compliance Matrix: (Units=1/GPa)
#
#
# Indices 1 2 3 4 5 6 
#
# 1 0.017064 -0.007549 -0.000934 0.000000 0.000000 0.000000
# 2 -0.007549 0.011875 -0.005340 0.000000 0.000000 0.000000
# 3 -0.000934 -0.005340 0.020768 0.000000 0.000000 0.000000
# 4 0.000000 0.000000 0.000000 -0.217909 0.000000 0.000000
# 5 0.000000 0.000000 0.000000 0.000000 0.031288 0.000000
# 6 0.000000 0.000000 0.000000 0.000000 0.000000 0.025322
#
#
# Mechanical properties :
#
#
# Convention : Reuss Voigt Hill
#
# Bulk Modulus (GPa) = 45.32642 60.70002 53.01322
# Shear Modulus (GPa) = -65.27886 24.40671 -20.43607
#
# Velocity S-wave (km/s) = -5.04677 3.08590 -2.82375
# Velocity P-wave (km/s) = 4.03421 6.03162 3.17062
#
# Compressibility (1/GPa) = 0.02206219
#
# Stress axis : x y z
#
# Youngs Moduli (GPa) = 58.60350 84.21237 48.15199
#
# Poissons Ratio (x) = 0.63568 0.04497
# Poissons Ratio (y) = 0.44237 0.25711
# Poissons Ratio (z) = 0.05473 0.44965
#
# Static dielectric constant tensor:
#      x y z
#    x 2.029300 0.000000 0.000000 
#    y 0.000000 2.060530 0.000000 
#    z 0.000000 0.000000 1.833810 
# 
# From -- ./inp_files/10824.got.cif
#   From: 2010.05.17/outbox.cif.g08.bks.cpg/sg61_6_cif.got.tgz:10824.got - 2010.06.03 15:17:17.
