data_PCOD9460327
_publ_section_title
;
Structure prediction by ZEFSAII (Michael W. Deem and Ramdas Pophale) SiO2 
 PCOD9460327
Probable space group: P B C A
;
_chemical_formula_sum "Si O2"
_cell_formula_units_Z 56
_cell_length_a 11.651776
_cell_length_b 12.259355
_cell_length_c 17.051756
_cell_angle_alpha 90.000000
_cell_angle_beta 90.000000
_cell_angle_gamma 90.000000
_cell_volume 2435.728388
_symmetry_space_group_name_H-M "P B C A"
_symmetry_group_IT_number 61
_symmetry_cell_setting 'orthorhombic'
loop_
_space_group_symop_operation_xyz
x,y,z
1/2-x,-y,1/2+z
1/2+x,1/2-y,-z
-x,1/2+y,1/2-z
-x,-y,-z
1/2+x,y,1/2-z
1/2-x,1/2+y,z
x,1/2-y,1/2+z
loop_
_atom_site_type_symbol
_atom_site_label
_atom_site_fract_x
_atom_site_fract_y
_atom_site_fract_z
Si Si1 0.642457 0.052625 0.615209
Si Si2 0.279048 0.084501 0.036773
Si Si3 0.535851 0.207231 0.103664
Si Si4 0.437064 0.882606 0.072451
Si Si5 0.094248 0.009094 0.138123
Si Si6 0.375999 0.011864 0.819612
Si Si7 0.798943 0.286541 0.403508
O O1 0.710835 0.036991 0.535391
O O2 0.593229 0.175464 0.618915
O O3 0.535987 0.969705 0.614825
O O4 0.740652 0.036032 0.679037
O O5 0.293817 0.212854 0.018385
O O6 0.383629 0.002744 0.052308
O O7 0.193576 0.091361 0.111979
O O8 0.599406 0.108625 0.146821
O O9 0.403140 0.215254 0.135627
O O10 0.541045 0.179732 0.009883
O O11 0.331257 0.821902 0.116744
O O12 0.547893 0.906221 0.126264
O O13 0.137891 0.901658 0.092849
O O14 0.088516 0.984039 0.229568
#
# Coordination Sequence:
#
# PCOD9460327 Si02
#       7
#     8   8   8   8   8   8   8
#     4  11  24  43  67 102 131 171 232 274 322 400
#     4  11  20  44  71  95 129 174 221 283 328 390
#     4  11  22  42  68  99 130 172 223 273 326 389
#     4  11  22  39  71  97 126 172 228 270 326 393
#     4  10  27  42  65  96 140 175 216 276 341 401
#     4  12  25  44  67  96 139 180 214 272 342 405
#     4  10  22  41  66  93 131 167 219 273 326 387
#
# _framework density 22.991071000000002
#
# number of rings (size 3 to 8) (size 9 to 14) (size 15 to 20)
#    0.000    1.143    4.286    1.714    4.000    1.143 
#    5.143    0.000    0.000    0.000    0.000    0.000 
#    0.000    0.000    0.000    0.000    0.000    0.000 
#
# Total GULP energy -311976.135827 kJ/mol
# GULP energy per Si atom -5571.002425 kJ/mol
# Density = 2.293874 g / cm^3
# Si number density = 22.991071 Si / 1000 Ang^3
#
#
#
# Elastic Constant Matrix: (Units=GPa)
#
#
# Indices 1 2 3 4 5 6 
#
# 1 136.3777 11.5615 -7.8574 0.0000 0.0000 0.0000
# 2 11.5615 74.3571 -4.3356 0.0000 0.0000 0.0000
# 3 -7.8574 -4.3356 46.6259 0.0000 0.0000 0.0000
# 4 0.0000 0.0000 0.0000 39.5263 0.0000 0.0000
# 5 0.0000 0.0000 0.0000 0.0000 -15.5314 0.0000
# 6 0.0000 0.0000 0.0000 0.0000 0.0000 34.2150
#
#
#
# Elastic Compliance Matrix: (Units=1/GPa)
#
#
# Indices 1 2 3 4 5 6 
#
# 1 0.007492 -0.001097 0.001161 0.000000 0.000000 0.000000
# 2 -0.001097 0.013683 0.001087 0.000000 0.000000 0.000000
# 3 0.001161 0.001087 0.021744 0.000000 0.000000 0.000000
# 4 0.000000 0.000000 0.000000 0.025300 0.000000 0.000000
# 5 0.000000 0.000000 0.000000 0.000000 -0.064386 0.000000
# 6 0.000000 0.000000 0.000000 0.000000 0.000000 0.029227
#
#
# Mechanical properties :
#
#
# Convention : Reuss Voigt Hill
#
# Bulk Modulus (GPa) = 22.11386 28.45528 25.28457
# Shear Modulus (GPa) = 109.09392 28.84145 68.96769
#
# Velocity S-wave (km/s) = 6.89591 3.54568 5.48295
# Velocity P-wave (km/s) = 8.54658 5.40056 7.14878
#
# Compressibility (1/GPa) = 0.04522051
#
# Stress axis : x y z
#
# Youngs Moduli (GPa) = 133.46734 73.08532 45.98965
#
# Poissons Ratio (x) = 0.08020 -0.05338
# Poissons Ratio (y) = 0.14645 -0.05001
# Poissons Ratio (z) = -0.15490 -0.07947
#
# Static dielectric constant tensor:
#      x y z
#    x 2.094360 0.000000 0.000000 
#    y 0.000000 1.948640 0.000000 
#    z 0.000000 0.000000 1.888190 
# 
# From -- ./inp_files/10289.got.cif
#   From: 2010.05.17/outbox.cif.g08.bks.cpg/sg61_6_cif.got.tgz:10289.got - 2010.06.03 15:17:17.
