data_PCOD9460717
_publ_section_title
;
Structure prediction by ZEFSAII (Michael W. Deem and Ramdas Pophale) SiO2 
 PCOD9460717
Probable space group: P B C A
;
_chemical_formula_sum "Si O2"
_cell_formula_units_Z 56
_cell_length_a 23.176508
_cell_length_b 8.963216
_cell_length_c 10.478414
_cell_angle_alpha 90.000000
_cell_angle_beta 90.000000
_cell_angle_gamma 90.000000
_cell_volume 2176.744307
_symmetry_space_group_name_H-M "P B C A"
_symmetry_group_IT_number 61
_symmetry_cell_setting 'orthorhombic'
loop_
_space_group_symop_operation_xyz
x,y,z
1/2-x,-y,1/2+z
1/2+x,1/2-y,-z
-x,1/2+y,1/2-z
-x,-y,-z
1/2+x,y,1/2-z
1/2-x,1/2+y,z
x,1/2-y,1/2+z
loop_
_atom_site_type_symbol
_atom_site_label
_atom_site_fract_x
_atom_site_fract_y
_atom_site_fract_z
Si Si1 0.789701 0.811988 0.315185
Si Si2 0.505472 0.147246 0.838010
Si Si3 0.558664 0.217365 0.579955
Si Si4 0.620006 0.506906 0.656420
Si Si5 0.190346 0.722812 0.364964
Si Si6 0.105722 0.988789 0.761242
Si Si7 0.807979 0.984238 0.911385
O O1 0.752227 0.734985 0.202379
O O2 0.850315 0.880305 0.277865
O O3 0.749702 0.949327 0.349779
O O4 0.796852 0.690988 0.427087
O O5 0.518088 0.228625 0.704619
O O6 0.441352 0.089121 0.849020
O O7 0.551324 0.009451 0.831796
O O8 0.524358 0.253968 0.951945
O O9 0.607010 0.346356 0.594707
O O10 0.582951 0.050006 0.600903
O O11 0.667634 0.614898 0.591367
O O12 0.642783 0.490031 0.802012
O O13 0.141216 0.663179 0.265086
O O14 0.186469 0.594103 0.469827
#
# Coordination Sequence:
#
# PCOD9460717 Si02
#       7
#     8   8   8   8   8   8   8
#     4  11  23  46  62 102 132 177 233 283 347 411
#     4  10  25  42  75 102 140 182 231 285 352 418
#     4  10  24  44  71 100 138 186 223 286 344 416
#     4  11  25  45  67 104 141 176 240 277 354 417
#     4  11  27  42  70  98 137 182 229 293 347 416
#     4  10  24  42  69  98 136 178 232 273 354 408
#     4  11  25  43  71  98 138 183 229 295 343 414
#
# _framework density 25.726493000000001
#
# number of rings (size 3 to 8) (size 9 to 14) (size 15 to 20)
#    0.857    0.571    2.857    0.429   10.000    2.286 
#    0.000    2.143    0.000    0.000    0.000    0.000 
#    0.000    0.000    0.000    0.000    0.000    0.000 
#
# Total GULP energy -313227.214812 kJ/mol
# GULP energy per Si atom -5593.343122 kJ/mol
# Density = 2.566794 g / cm^3
# Si number density = 25.726493 Si / 1000 Ang^3
#
#
#
# Elastic Constant Matrix: (Units=GPa)
#
#
# Indices 1 2 3 4 5 6 
#
# 1 174.1900 8.2488 -73.2030 0.0000 0.0000 0.0000
# 2 8.2488 76.8706 10.5291 0.0000 0.0000 0.0000
# 3 -73.2030 10.5291 236.0091 0.0000 0.0000 0.0000
# 4 0.0000 0.0000 0.0000 23.7693 0.0000 0.0000
# 5 0.0000 0.0000 0.0000 0.0000 -18.1407 0.0000
# 6 0.0000 0.0000 0.0000 0.0000 0.0000 43.1942
#
#
#
# Elastic Compliance Matrix: (Units=1/GPa)
#
#
# Indices 1 2 3 4 5 6 
#
# 1 0.006678 -0.001006 0.002116 0.000000 0.000000 0.000000
# 2 -0.001006 0.013241 -0.000903 0.000000 0.000000 0.000000
# 3 0.002116 -0.000903 0.004934 0.000000 0.000000 0.000000
# 4 0.000000 0.000000 0.000000 0.042071 0.000000 0.000000
# 5 0.000000 0.000000 0.000000 0.000000 -0.055125 0.000000
# 6 0.000000 0.000000 0.000000 0.000000 0.000000 0.023151
#
#
# Mechanical properties :
#
#
# Convention : Reuss Voigt Hill
#
# Bulk Modulus (GPa) = 39.57910 42.02440 40.80175
# Shear Modulus (GPa) = 116.39284 45.86423 81.12854
#
# Velocity S-wave (km/s) = 6.73354 4.22686 5.62170
# Velocity P-wave (km/s) = 8.71046 6.33974 7.61789
#
# Compressibility (1/GPa) = 0.02526586
#
# Stress axis : x y z
#
# Youngs Moduli (GPa) = 149.74922 75.52566 202.68456
#
# Poissons Ratio (x) = 0.07601 -0.42891
# Poissons Ratio (y) = 0.15071 0.18300
# Poissons Ratio (z) = -0.31689 0.06819
#
# Static dielectric constant tensor:
#      x y z
#    x 2.021670 0.000000 0.000000 
#    y 0.000000 2.024760 0.000000 
#    z 0.000000 0.000000 2.101640 
# 
# From -- ./inp_files/6614.got.cif
#   From: 2010.05.17/outbox.cif.g08.bks.cpg/sg61_4_cif.got.tgz:6614.got - 2010.06.03 15:17:17.
