data_PCOD9460482
_publ_section_title
;
Structure prediction by ZEFSAII (Michael W. Deem and Ramdas Pophale) SiO2 
 PCOD9460482
Probable space group: P B C A
;
_chemical_formula_sum "Si O2"
_cell_formula_units_Z 52
_cell_length_a 15.468160
_cell_length_b 11.317233
_cell_length_c 9.265050
_cell_angle_alpha 90.000000
_cell_angle_beta 90.000000
_cell_angle_gamma 90.000000
_cell_volume 1621.909734
_symmetry_space_group_name_H-M "P B C A"
_symmetry_group_IT_number 61
_symmetry_cell_setting 'orthorhombic'
loop_
_space_group_symop_operation_xyz
x,y,z
1/2-x,-y,1/2+z
1/2+x,1/2-y,-z
-x,1/2+y,1/2-z
-x,-y,-z
1/2+x,y,1/2-z
1/2-x,1/2+y,z
x,1/2-y,1/2+z
loop_
_atom_site_type_symbol
_atom_site_label
_atom_site_fract_x
_atom_site_fract_y
_atom_site_fract_z
Si Si1 0.844619 0.061498 0.026940
Si Si2 0.735329 0.743298 0.231036
Si Si3 0.000000 0.500000 0.000000
Si Si4 0.640637 0.845479 0.018482
Si Si5 0.816934 0.542495 0.836000
Si Si6 0.008759 0.193476 0.969333
Si Si7 0.091306 0.140692 0.256905
O O1 0.826705 0.198390 0.081834
O O2 0.934072 0.098216 0.951374
O O3 0.850403 0.993180 0.177224
O O4 0.771437 0.009691 0.923778
O O5 0.696823 0.871907 0.160805
O O6 0.673879 0.687638 0.357612
O O7 0.806301 0.817511 0.334740
O O8 0.811067 0.646203 0.188257
O O9 0.109240 0.508406 0.050191
O O10 0.965260 0.539800 0.162501
O O11 0.535368 0.819108 0.032105
O O12 0.073610 0.144191 0.086892
O O13 0.047319 0.241345 0.824466
#
# Coordination Sequence:
#
# PCOD9460482 Si02
#       7
#     8   8   4   8   8   8   8
#     4  11  26  45  75 105 150 200 254 326 392 482
#     4  11  27  43  74 111 152 199 258 324 392 477
#     4  10  22  46  78 104 146 206 258 318 394 470
#     4  10  23  45  72 105 149 198 252 317 392 474
#     4  12  25  45  72 113 148 197 260 319 405 472
#     4  10  25  46  72 105 145 200 251 319 393 474
#     4  11  25  46  75 107 151 201 259 316 398 471
#
# _framework density 32.060972999999997
#
# number of rings (size 3 to 8) (size 9 to 14) (size 15 to 20)
#    0.000    1.231    1.538    2.769   15.077    0.000 
#    0.000    0.769    0.000    0.000    0.000    0.000 
#    0.000    0.000    0.000    0.000    0.000    0.000 
#
# Total GULP energy -290477.867556 kJ/mol
# GULP energy per Si atom -5586.112838 kJ/mol
# Density = 3.198800 g / cm^3
# Si number density = 32.060973 Si / 1000 Ang^3
#
#
#
# Elastic Constant Matrix: (Units=GPa)
#
#
# Indices 1 2 3 4 5 6 
#
# 1 218.8571 42.8414 70.6255 0.0000 0.0000 0.0000
# 2 42.8414 152.3281 42.4798 0.0000 0.0000 0.0000
# 3 70.6255 42.4798 231.1400 0.0000 0.0000 0.0000
# 4 0.0000 0.0000 0.0000 71.5229 0.0000 0.0000
# 5 0.0000 0.0000 0.0000 0.0000 62.3277 0.0000
# 6 0.0000 0.0000 0.0000 0.0000 0.0000 76.6694
#
#
#
# Elastic Compliance Matrix: (Units=1/GPa)
#
#
# Indices 1 2 3 4 5 6 
#
# 1 0.005233 -0.001081 -0.001400 0.000000 0.000000 0.000000
# 2 -0.001081 0.007143 -0.000982 0.000000 0.000000 0.000000
# 3 -0.001400 -0.000982 0.004935 0.000000 0.000000 0.000000
# 4 0.000000 0.000000 0.000000 0.013982 0.000000 0.000000
# 5 0.000000 0.000000 0.000000 0.000000 0.016044 0.000000
# 6 0.000000 0.000000 0.000000 0.000000 0.000000 0.013043
#
#
# Mechanical properties :
#
#
# Convention : Reuss Voigt Hill
#
# Bulk Modulus (GPa) = 96.31324 101.57984 98.94654
# Shear Modulus (GPa) = 70.65405 71.86258 71.25832
#
# Velocity S-wave (km/s) = 4.69949 4.73952 4.71955
# Velocity P-wave (km/s) = 7.71705 7.85511 7.78639
#
# Compressibility (1/GPa) = 0.01038279
#
# Stress axis : x y z
#
# Youngs Moduli (GPa) = 191.10713 140.00092 202.64468
#
# Poissons Ratio (x) = 0.15137 0.28373
# Poissons Ratio (y) = 0.20662 0.19907
# Poissons Ratio (z) = 0.26758 0.13753
#
# Static dielectric constant tensor:
#      x y z
#    x 2.494610 0.000000 0.000000 
#    y 0.000000 1.816490 0.000000 
#    z 0.000000 0.000000 2.203620 
# 
# From -- ./inp_files/3566.got.cif
#   From: 2010.05.17/outbox.cif.g08.bks.cpg/sg61_2_cif.got.tgz:3566.got - 2010.06.03 15:17:17.
