data_PCOD9460828
_publ_section_title
;
Structure prediction by ZEFSAII (Michael W. Deem and Ramdas Pophale) SiO2 
 PCOD9460828
Probable space group: P B C A
;
_chemical_formula_sum "Si O2"
_cell_formula_units_Z 40
_cell_length_a 13.514004
_cell_length_b 8.972904
_cell_length_c 13.578318
_cell_angle_alpha 90.000000
_cell_angle_beta 90.000000
_cell_angle_gamma 90.000000
_cell_volume 1646.504947
_symmetry_space_group_name_H-M "P B C A"
_symmetry_group_IT_number 61
_symmetry_cell_setting 'orthorhombic'
loop_
_space_group_symop_operation_xyz
x,y,z
1/2-x,-y,1/2+z
1/2+x,1/2-y,-z
-x,1/2+y,1/2-z
-x,-y,-z
1/2+x,y,1/2-z
1/2-x,1/2+y,z
x,1/2-y,1/2+z
loop_
_atom_site_type_symbol
_atom_site_label
_atom_site_fract_x
_atom_site_fract_y
_atom_site_fract_z
Si Si1 0.054611 0.230099 0.547051
Si Si2 0.454467 0.955912 0.720860
Si Si3 0.749581 0.372829 0.740034
Si Si4 0.632200 0.390287 0.134045
Si Si5 0.591932 0.902787 0.902569
O O1 0.119086 0.336672 0.476880
O O2 0.109440 0.072424 0.561515
O O3 0.036219 0.315323 0.647985
O O4 0.950774 0.192445 0.492596
O O5 0.338925 0.984966 0.730511
O O6 0.521411 0.085009 0.675219
O O7 0.499689 0.922322 0.827396
O O8 0.814843 0.453562 0.656905
O O9 0.693144 0.231360 0.695766
O O10 0.817985 0.347232 0.835494
#
# Coordination Sequence:
#
# PCOD9460828 Si02
#       5
#     8   8   8   8   8
#     4  11  24  50  75 114 149 204 255 317 388 457
#     4  11  23  47  76 107 159 197 250 317 389 441
#     4  11  25  48  78 110 154 204 256 314 389 455
#     4  11  26  46  73 113 147 204 256 314 376 460
#     4  10  25  47  79 113 156 197 255 323 385 463
#
# _framework density 24.293883999999998
#
# number of rings (size 3 to 8) (size 9 to 14) (size 15 to 20)
#    0.000    1.200    2.000    3.000    2.800    3.200 
#    7.200    0.000    0.000    0.000    0.000    0.000 
#    0.000    0.000    0.000    0.000    0.000    0.000 
#
# Total GULP energy -223982.908303 kJ/mol
# GULP energy per Si atom -5599.572708 kJ/mol
# Density = 2.423859 g / cm^3
# Si number density = 24.293884 Si / 1000 Ang^3
#
#
#
# Elastic Constant Matrix: (Units=GPa)
#
#
# Indices 1 2 3 4 5 6 
#
# 1 90.6129 -9.2984 7.3005 0.0000 0.0000 0.0000
# 2 -9.2984 53.4572 11.9155 0.0000 0.0000 0.0000
# 3 7.3005 11.9155 98.4327 0.0000 0.0000 0.0000
# 4 0.0000 0.0000 0.0000 57.9640 0.0000 0.0000
# 5 0.0000 0.0000 0.0000 0.0000 28.4485 0.0000
# 6 0.0000 0.0000 0.0000 0.0000 0.0000 32.7807
#
#
#
# Elastic Compliance Matrix: (Units=1/GPa)
#
#
# Indices 1 2 3 4 5 6 
#
# 1 0.011354 0.002223 -0.001111 0.000000 0.000000 0.000000
# 2 0.002223 0.019660 -0.002545 0.000000 0.000000 0.000000
# 3 -0.001111 -0.002545 0.010550 0.000000 0.000000 0.000000
# 4 0.000000 0.000000 0.000000 0.017252 0.000000 0.000000
# 5 0.000000 0.000000 0.000000 0.000000 0.035151 0.000000
# 6 0.000000 0.000000 0.000000 0.000000 0.000000 0.030506
#
#
# Mechanical properties :
#
#
# Convention : Reuss Voigt Hill
#
# Bulk Modulus (GPa) = 25.84190 29.14868 27.49529
# Shear Modulus (GPa) = 35.65357 39.34431 37.49894
#
# Velocity S-wave (km/s) = 3.83508 4.02869 3.93307
# Velocity P-wave (km/s) = 5.50188 5.80214 5.65400
#
# Compressibility (1/GPa) = 0.03869684
#
# Stress axis : x y z
#
# Youngs Moduli (GPa) = 88.07825 50.86375 94.78955
#
# Poissons Ratio (x) = -0.11304 0.10532
# Poissons Ratio (y) = -0.19575 0.24122
# Poissons Ratio (z) = 0.09786 0.12944
#
# Static dielectric constant tensor:
#      x y z
#    x 1.939440 0.000000 0.000000 
#    y 0.000000 1.983210 0.000000 
#    z 0.000000 0.000000 1.883230 
# 
# From -- ./inp_files/5562.got.cif
#   From: 2010.05.17/outbox.cif.g08.bks.cpg/sg61_3_cif.got.tgz:5562.got - 2010.06.03 15:17:17.
