data_PCOD9460033
_publ_section_title
;
Structure prediction by ZEFSAII (Michael W. Deem and Ramdas Pophale) SiO2 
 PCOD9460033
Probable space group: P B C A
;
_chemical_formula_sum "Si O2"
_cell_formula_units_Z 64
_cell_length_a 23.444845
_cell_length_b 8.974860
_cell_length_c 15.121687
_cell_angle_alpha 90.000000
_cell_angle_beta 90.000000
_cell_angle_gamma 90.000000
_cell_volume 3181.817697
_symmetry_space_group_name_H-M "P B C A"
_symmetry_group_IT_number 61
_symmetry_cell_setting 'orthorhombic'
loop_
_space_group_symop_operation_xyz
x,y,z
1/2-x,-y,1/2+z
1/2+x,1/2-y,-z
-x,1/2+y,1/2-z
-x,-y,-z
1/2+x,y,1/2-z
1/2-x,1/2+y,z
x,1/2-y,1/2+z
loop_
_atom_site_type_symbol
_atom_site_label
_atom_site_fract_x
_atom_site_fract_y
_atom_site_fract_z
Si Si1 0.689179 0.127189 0.836958
Si Si2 0.518134 0.590290 0.586635
Si Si3 0.430311 0.895904 0.248684
Si Si4 0.710603 0.305789 0.538343
Si Si5 0.822482 0.035920 0.015131
Si Si6 0.115982 0.411576 0.824940
Si Si7 0.545912 0.935828 0.570695
Si Si8 0.193844 0.485772 0.683467
O O1 0.632453 0.064700 0.790542
O O2 0.693794 0.305369 0.821735
O O3 0.743721 0.046111 0.795577
O O4 0.691951 0.117087 0.944516
O O5 0.500000 0.500000 0.500000
O O6 0.472085 0.588965 0.665628
O O7 0.574232 0.507362 0.617635
O O8 0.531921 0.762070 0.570962
O O9 0.419153 0.726765 0.283134
O O10 0.455221 0.989069 0.331546
O O11 0.776176 0.350879 0.555252
O O12 0.668070 0.353188 0.615559
O O13 0.702791 0.129172 0.529555
O O14 0.821777 0.057395 0.909911
O O15 0.887752 0.041467 0.044579
O O16 0.144228 0.516945 0.751914
O O17 0.500000 0.000000 0.500000
#
# Coordination Sequence:
#
# PCOD9460033 Si02
#       8
#     8   8   8   8   8   8   8   8
#     4   9  20  39  62  93 133 176 217 276 343 408
#     4  12  28  47  69 101 135 184 241 289 348 419
#     4  11  24  46  71  97 136 186 230 290 353 413
#     4  10  21  40  68  98 140 175 231 282 354 413
#     4  10  23  43  67  98 136 183 225 283 350 421
#     4  11  23  41  70  96 138 176 225 298 345 418
#     4  12  28  45  72 100 140 187 237 288 358 425
#     4   9  21  37  63  92 130 170 214 275 338 407
#
# _framework density 20.114287999999998
#
# number of rings (size 3 to 8) (size 9 to 14) (size 15 to 20)
#    0.000    1.500    1.250    2.250   10.500    1.000 
#    4.500    0.000    0.000    0.000    0.000    0.000 
#    0.000    0.000    0.000    0.000    0.000    0.000 
#
# Total GULP energy -357343.462930 kJ/mol
# GULP energy per Si atom -5583.491608 kJ/mol
# Density = 2.006851 g / cm^3
# Si number density = 20.114288 Si / 1000 Ang^3
#
#
#
# Elastic Constant Matrix: (Units=GPa)
#
#
# Indices 1 2 3 4 5 6 
#
# 1 120.2510 40.2475 58.1112 0.0000 0.0000 0.0000
# 2 40.2475 56.2188 37.3114 0.0000 0.0000 0.0000
# 3 58.1112 37.3114 95.0408 0.0000 0.0000 0.0000
# 4 0.0000 0.0000 0.0000 -1.0765 0.0000 0.0000
# 5 0.0000 0.0000 0.0000 0.0000 48.3388 0.0000
# 6 0.0000 0.0000 0.0000 0.0000 0.0000 35.0907
#
#
#
# Elastic Compliance Matrix: (Units=1/GPa)
#
#
# Indices 1 2 3 4 5 6 
#
# 1 0.012918 -0.005418 -0.005772 0.000000 0.000000 0.000000
# 2 -0.005418 0.026327 -0.007023 0.000000 0.000000 0.000000
# 3 -0.005772 -0.007023 0.016808 0.000000 0.000000 0.000000
# 4 0.000000 0.000000 0.000000 -0.928951 0.000000 0.000000
# 5 0.000000 0.000000 0.000000 0.000000 0.020687 0.000000
# 6 0.000000 0.000000 0.000000 0.000000 0.000000 0.028498
#
#
# Mechanical properties :
#
#
# Convention : Reuss Voigt Hill
#
# Bulk Modulus (GPa) = 50.94640 60.31675 55.63157
# Shear Modulus (GPa) = -6.40415 25.52665 9.56125
#
# Velocity S-wave (km/s) = -1.78628 3.56628 2.18261
# Velocity P-wave (km/s) = 4.59664 6.85638 5.83691
#
# Compressibility (1/GPa) = 0.01962847
#
# Stress axis : x y z
#
# Youngs Moduli (GPa) = 77.40838 37.98336 59.49533
#
# Poissons Ratio (x) = 0.20578 0.34340
# Poissons Ratio (y) = 0.41938 0.41784
# Poissons Ratio (z) = 0.44679 0.26676
#
# Static dielectric constant tensor:
#      x y z
#    x 1.712400 0.000000 0.000000 
#    y 0.000000 1.741000 0.000000 
#    z 0.000000 0.000000 1.769820 
# 
# From -- ./inp_files/3207.got.cif
#   From: 2010.05.17/outbox.cif.g08.bks.cpg/sg61_2_cif.got.tgz:3207.got - 2010.06.03 15:17:17.
