data_PCOD9460447
_publ_section_title
;
Structure prediction by ZEFSAII (Michael W. Deem and Ramdas Pophale) SiO2 
 PCOD9460447
Probable space group: P B C A
;
_chemical_formula_sum "Si O2"
_cell_formula_units_Z 56
_cell_length_a 15.824763
_cell_length_b 7.834844
_cell_length_c 16.709557
_cell_angle_alpha 90.000000
_cell_angle_beta 90.000000
_cell_angle_gamma 90.000000
_cell_volume 2071.726896
_symmetry_space_group_name_H-M "P B C A"
_symmetry_group_IT_number 61
_symmetry_cell_setting 'orthorhombic'
loop_
_space_group_symop_operation_xyz
x,y,z
1/2-x,-y,1/2+z
1/2+x,1/2-y,-z
-x,1/2+y,1/2-z
-x,-y,-z
1/2+x,y,1/2-z
1/2-x,1/2+y,z
x,1/2-y,1/2+z
loop_
_atom_site_type_symbol
_atom_site_label
_atom_site_fract_x
_atom_site_fract_y
_atom_site_fract_z
Si Si1 0.275260 0.378032 0.029987
Si Si2 0.329953 0.717462 0.777496
Si Si3 0.096621 0.398112 0.126351
Si Si4 0.350011 0.052848 0.949068
Si Si5 0.032804 0.296100 0.912106
Si Si6 0.432790 0.992347 0.616647
Si Si7 0.859590 0.400820 0.231283
O O1 0.191800 0.376869 0.086159
O O2 0.342750 0.494255 0.073216
O O3 0.324743 0.206501 0.006737
O O4 0.239487 0.453542 0.946331
O O5 0.375932 0.585205 0.720257
O O6 0.387443 0.740042 0.856355
O O7 0.230283 0.689500 0.774145
O O8 0.337690 0.906529 0.743318
O O9 0.039018 0.568267 0.115163
O O10 0.049768 0.210108 0.122951
O O11 0.383813 0.105481 0.862302
O O12 0.418439 0.912219 0.978276
O O13 0.993975 0.115587 0.934549
O O14 0.428641 0.114435 0.698457
#
# Coordination Sequence:
#
# PCOD9460447 Si02
#       7
#     8   8   8   8   8   8   8
#     4  12  23  47  77 104 146 200 261 294 371 464
#     4  10  23  42  71 110 139 194 242 316 370 436
#     4  11  25  45  72 108 144 195 250 309 362 459
#     4  11  25  46  70 112 151 196 244 320 371 445
#     4  11  27  47  72 110 157 185 247 324 385 424
#     4  11  25  47  78 111 140 202 257 302 376 460
#     4  10  22  44  70 105 144 189 256 301 367 436
#
# _framework density 27.030591000000001
#
# number of rings (size 3 to 8) (size 9 to 14) (size 15 to 20)
#    0.000    1.143    2.857    2.571    8.000    2.286 
#   10.286    1.429    0.000    0.000    0.000    0.000 
#    0.000    0.000    0.000    0.000    0.000    0.000 
#
# Total GULP energy -311917.230451 kJ/mol
# GULP energy per Si atom -5569.950544 kJ/mol
# Density = 2.696907 g / cm^3
# Si number density = 27.030591 Si / 1000 Ang^3
#
#
#
# Elastic Constant Matrix: (Units=GPa)
#
#
# Indices 1 2 3 4 5 6 
#
# 1 87.7027 48.6334 34.1527 0.0000 0.0000 0.0000
# 2 48.6334 110.5183 47.9759 0.0000 0.0000 0.0000
# 3 34.1527 47.9759 80.5808 0.0000 0.0000 0.0000
# 4 0.0000 0.0000 0.0000 24.6832 0.0000 0.0000
# 5 0.0000 0.0000 0.0000 0.0000 34.1784 0.0000
# 6 0.0000 0.0000 0.0000 0.0000 0.0000 41.3491
#
#
#
# Elastic Compliance Matrix: (Units=1/GPa)
#
#
# Indices 1 2 3 4 5 6 
#
# 1 0.015759 -0.005442 -0.003439 0.000000 0.000000 0.000000
# 2 -0.005442 0.014081 -0.006077 0.000000 0.000000 0.000000
# 3 -0.003439 -0.006077 0.017486 0.000000 0.000000 0.000000
# 4 0.000000 0.000000 0.000000 0.040513 0.000000 0.000000
# 5 0.000000 0.000000 0.000000 0.000000 0.029258 0.000000
# 6 0.000000 0.000000 0.000000 0.000000 0.000000 0.024184
#
#
# Mechanical properties :
#
#
# Convention : Reuss Voigt Hill
#
# Bulk Modulus (GPa) = 57.43991 60.03618 58.73805
# Shear Modulus (GPa) = 28.24840 29.91146 29.07993
#
# Velocity S-wave (km/s) = 3.23623 3.33014 3.28352
# Velocity P-wave (km/s) = 5.93805 6.08647 6.01271
#
# Compressibility (1/GPa) = 0.01740950
#
# Stress axis : x y z
#
# Youngs Moduli (GPa) = 63.45552 71.01781 57.18948
#
# Poissons Ratio (x) = 0.38646 0.19669
# Poissons Ratio (y) = 0.34531 0.34755
# Poissons Ratio (z) = 0.21824 0.43158
#
# Static dielectric constant tensor:
#      x y z
#    x 2.295570 0.000000 0.000000 
#    y 0.000000 2.131070 0.000000 
#    z 0.000000 0.000000 2.366710 
# 
# From -- ./inp_files/10471.got.cif
#   From: 2010.05.17/outbox.cif.g08.bks.cpg/sg61_6_cif.got.tgz:10471.got - 2010.06.03 15:17:17.
