data_PCOD9460212
_publ_section_title
;
Structure prediction by ZEFSAII (Michael W. Deem and Ramdas Pophale) SiO2 
 PCOD9460212
Probable space group: P B C A
;
_chemical_formula_sum "Si O2"
_cell_formula_units_Z 64
_cell_length_a 11.858401
_cell_length_b 18.099770
_cell_length_c 13.804473
_cell_angle_alpha 90.000000
_cell_angle_beta 90.000000
_cell_angle_gamma 90.000000
_cell_volume 2962.913823
_symmetry_space_group_name_H-M "P B C A"
_symmetry_group_IT_number 61
_symmetry_cell_setting 'orthorhombic'
loop_
_space_group_symop_operation_xyz
x,y,z
1/2-x,-y,1/2+z
1/2+x,1/2-y,-z
-x,1/2+y,1/2-z
-x,-y,-z
1/2+x,y,1/2-z
1/2-x,1/2+y,z
x,1/2-y,1/2+z
loop_
_atom_site_type_symbol
_atom_site_label
_atom_site_fract_x
_atom_site_fract_y
_atom_site_fract_z
Si Si1 0.609771 0.494944 0.067135
Si Si2 0.280673 0.906773 0.271162
Si Si3 0.545975 0.986868 0.890140
Si Si4 0.124209 0.150037 0.597842
Si Si5 0.852748 0.940692 0.751798
Si Si6 0.364624 0.192859 0.910493
Si Si7 0.723165 0.647709 0.094689
Si Si8 0.249701 0.395890 0.565841
O O1 0.713901 0.462668 0.004886
O O2 0.500000 0.500000 0.000000
O O3 0.617910 0.437945 0.158146
O O4 0.637583 0.579018 0.091156
O O5 0.314221 0.837329 0.200705
O O6 0.182004 0.868315 0.336186
O O7 0.221903 0.984234 0.236780
O O8 0.460915 0.970502 0.804005
O O9 0.632904 0.920113 0.888093
O O10 0.605057 0.064279 0.875091
O O11 0.500000 0.000000 0.000000
O O12 0.205833 0.154836 0.505519
O O13 0.999824 0.182570 0.577535
O O14 0.805796 0.880002 0.677882
O O15 0.848241 0.898609 0.854403
O O16 0.337694 0.276161 0.882297
O O17 0.284834 0.175104 0.004234
#
# Coordination Sequence:
#
# PCOD9460212 Si02
#       8
#     8   8   8   8   8   8   8   8
#     4  10  22  39  61  95 133 167 216 281 333 382
#     4  10  22  38  63  94 123 163 224 277 321 389
#     4  12  18  38  70  96 117 164 226 277 326 384
#     4  12  22  41  73  93 124 179 226 270 333 405
#     4  11  21  36  65  97 121 158 225 282 320 383
#     4  11  25  43  63  93 139 177 216 269 341 411
#     4  11  24  42  61  94 133 174 216 270 336 403
#     4  11  22  39  64  97 126 168 222 278 322 393
#
# _framework density 21.600359000000001
#
# number of rings (size 3 to 8) (size 9 to 14) (size 15 to 20)
#    0.000    1.000    6.250    0.750    1.750    4.000 
#    0.000    2.500    0.000    0.000    0.000    0.000 
#    0.000    0.000    0.000    0.000    0.000    0.000 
#
# Total GULP energy -356345.773401 kJ/mol
# GULP energy per Si atom -5567.902709 kJ/mol
# Density = 2.155120 g / cm^3
# Si number density = 21.600359 Si / 1000 Ang^3
#
#
#
# Elastic Constant Matrix: (Units=GPa)
#
#
# Indices 1 2 3 4 5 6 
#
# 1 52.6766 7.3729 13.0143 0.0000 0.0000 0.0000
# 2 7.3729 86.0784 1.7473 0.0000 0.0000 0.0000
# 3 13.0143 1.7473 78.3589 0.0000 0.0000 0.0000
# 4 0.0000 0.0000 0.0000 7.9786 0.0000 0.0000
# 5 0.0000 0.0000 0.0000 0.0000 37.2162 0.0000
# 6 0.0000 0.0000 0.0000 0.0000 0.0000 16.2539
#
#
#
# Elastic Compliance Matrix: (Units=1/GPa)
#
#
# Indices 1 2 3 4 5 6 
#
# 1 0.020027 -0.001649 -0.003289 0.000000 0.000000 0.000000
# 2 -0.001649 0.011758 0.000012 0.000000 0.000000 0.000000
# 3 -0.003289 0.000012 0.013308 0.000000 0.000000 0.000000
# 4 0.000000 0.000000 0.000000 0.125336 0.000000 0.000000
# 5 0.000000 0.000000 0.000000 0.000000 0.026870 0.000000
# 6 0.000000 0.000000 0.000000 0.000000 0.000000 0.061524
#
#
# Mechanical properties :
#
#
# Convention : Reuss Voigt Hill
#
# Bulk Modulus (GPa) = 28.37650 29.04253 28.70951
# Shear Modulus (GPa) = 17.83025 25.28838 21.55932
#
# Velocity S-wave (km/s) = 2.87620 3.42532 3.16270
# Velocity P-wave (km/s) = 4.91890 5.39614 5.16304
#
# Compressibility (1/GPa) = 0.03524043
#
# Stress axis : x y z
#
# Youngs Moduli (GPa) = 49.93212 85.04640 75.14354
#
# Poissons Ratio (x) = 0.14021 0.24718
# Poissons Ratio (y) = 0.08232 -0.00087
# Poissons Ratio (z) = 0.16425 -0.00099
#
# Static dielectric constant tensor:
#      x y z
#    x 1.459370 0.000000 0.000000 
#    y 0.000000 1.696970 0.000000 
#    z 0.000000 0.000000 0.647290 
# 
# From -- ./inp_files/7625.got.cif
#   From: 2010.05.17/outbox.cif.g08.bks.cpg/sg61_4_cif.got.tgz:7625.got - 2010.06.03 15:17:17.
