data_PCOD9460454
_publ_section_title
;
Structure prediction by ZEFSAII (Michael W. Deem and Ramdas Pophale) SiO2 
 PCOD9460454
Probable space group: P B C A
;
_chemical_formula_sum "Si O2"
_cell_formula_units_Z 40
_cell_length_a 13.642000
_cell_length_b 9.694155
_cell_length_c 11.065741
_cell_angle_alpha 90.000000
_cell_angle_beta 90.000000
_cell_angle_gamma 90.000000
_cell_volume 1463.418381
_symmetry_space_group_name_H-M "P B C A"
_symmetry_group_IT_number 61
_symmetry_cell_setting 'orthorhombic'
loop_
_space_group_symop_operation_xyz
x,y,z
1/2-x,-y,1/2+z
1/2+x,1/2-y,-z
-x,1/2+y,1/2-z
-x,-y,-z
1/2+x,y,1/2-z
1/2-x,1/2+y,z
x,1/2-y,1/2+z
loop_
_atom_site_type_symbol
_atom_site_label
_atom_site_fract_x
_atom_site_fract_y
_atom_site_fract_z
Si Si1 0.662344 0.304781 0.857884
Si Si2 0.438722 0.133070 0.121290
Si Si3 0.653434 0.396449 0.540435
Si Si4 0.429194 0.223356 0.377856
Si Si5 0.280145 0.070493 0.774053
O O1 0.546351 0.289064 0.871904
O O2 0.695951 0.458729 0.829442
O O3 0.709801 0.194132 0.764654
O O4 0.696478 0.242710 0.985620
O O5 0.557358 0.136382 0.120830
O O6 0.403438 0.128282 0.260028
O O7 0.411429 0.255709 0.023782
O O8 0.394700 0.996277 0.059987
O O9 0.739467 0.473913 0.610431
O O10 0.382100 0.361053 0.320126
#
# Coordination Sequence:
#
# PCOD9460454 Si02
#       5
#     8   8   8   8   8
#     4  11  25  42  69  98 136 178 230 277 338 407
#     4   9  18  40  70  97 132 181 220 281 343 398
#     4   9  20  42  67  92 140 179 217 285 344 393
#     4  10  22  44  71  98 139 178 227 278 344 404
#     4  11  25  44  68 100 136 179 229 279 343 405
#
# _framework density 27.333262000000001
#
# number of rings (size 3 to 8) (size 9 to 14) (size 15 to 20)
#    0.000    2.000    2.000    1.200    2.800    1.600 
#    3.600    6.000    0.000    0.000    0.000    0.000 
#    0.000    0.000    0.000    0.000    0.000    0.000 
#
# Total GULP energy -223110.898026 kJ/mol
# GULP energy per Si atom -5577.772451 kJ/mol
# Density = 2.727105 g / cm^3
# Si number density = 27.333262 Si / 1000 Ang^3
#
#
#
# Elastic Constant Matrix: (Units=GPa)
#
#
# Indices 1 2 3 4 5 6 
#
# 1 139.4165 3.2073 28.7599 0.0000 0.0000 0.0000
# 2 3.2073 57.4552 15.3289 0.0000 0.0000 0.0000
# 3 28.7599 15.3289 56.4481 0.0000 0.0000 0.0000
# 4 0.0000 0.0000 0.0000 74.1508 0.0000 0.0000
# 5 0.0000 0.0000 0.0000 0.0000 41.8382 0.0000
# 6 0.0000 0.0000 0.0000 0.0000 0.0000 28.6914
#
#
#
# Elastic Compliance Matrix: (Units=1/GPa)
#
#
# Indices 1 2 3 4 5 6 
#
# 1 0.008041 0.000694 -0.004285 0.000000 0.000000 0.000000
# 2 0.000694 0.018824 -0.005466 0.000000 0.000000 0.000000
# 3 -0.004285 -0.005466 0.021383 0.000000 0.000000 0.000000
# 4 0.000000 0.000000 0.000000 0.013486 0.000000 0.000000
# 5 0.000000 0.000000 0.000000 0.000000 0.023902 0.000000
# 6 0.000000 0.000000 0.000000 0.000000 0.000000 0.034854
#
#
# Mechanical properties :
#
#
# Convention : Reuss Voigt Hill
#
# Bulk Modulus (GPa) = 33.18403 38.65689 35.92046
# Shear Modulus (GPa) = 33.63661 42.67099 38.15380
#
# Velocity S-wave (km/s) = 3.51181 3.95541 3.74019
# Velocity P-wave (km/s) = 5.34889 5.91894 5.64112
#
# Compressibility (1/GPa) = 0.03013498
#
# Stress axis : x y z
#
# Youngs Moduli (GPa) = 124.36599 53.12266 46.76611
#
# Poissons Ratio (x) = -0.03689 0.20041
# Poissons Ratio (y) = -0.08637 0.25561
# Poissons Ratio (z) = 0.53295 0.29035
#
# Static dielectric constant tensor:
#      x y z
#    x 2.146840 0.000000 0.000000 
#    y 0.000000 2.307980 0.000000 
#    z 0.000000 0.000000 2.394160 
# 
# From -- ./inp_files/5575.got.cif
#   From: 2010.05.17/outbox.cif.g08.bks.cpg/sg61_3_cif.got.tgz:5575.got - 2010.06.03 15:17:17.
