data_PCOD9460013
_publ_section_title
;
Structure prediction by ZEFSAII (Michael W. Deem and Ramdas Pophale) SiO2 
 PCOD9460013
Probable space group: P B C A
;
_chemical_formula_sum "Si O2"
_cell_formula_units_Z 40
_cell_length_a 8.087476
_cell_length_b 24.155535
_cell_length_c 7.938064
_cell_angle_alpha 90.000000
_cell_angle_beta 90.000000
_cell_angle_gamma 90.000000
_cell_volume 1550.758826
_symmetry_space_group_name_H-M "P B C A"
_symmetry_group_IT_number 61
_symmetry_cell_setting 'orthorhombic'
loop_
_space_group_symop_operation_xyz
x,y,z
1/2-x,-y,1/2+z
1/2+x,1/2-y,-z
-x,1/2+y,1/2-z
-x,-y,-z
1/2+x,y,1/2-z
1/2-x,1/2+y,z
x,1/2-y,1/2+z
loop_
_atom_site_type_symbol
_atom_site_label
_atom_site_fract_x
_atom_site_fract_y
_atom_site_fract_z
Si Si1 0.559215 0.684980 0.998686
Si Si2 0.508163 0.601205 0.457298
Si Si3 0.306454 0.295287 0.639341
Si Si4 0.772933 0.542386 0.266583
Si Si5 0.823352 0.431460 0.411718
O O1 0.375951 0.698974 0.063523
O O2 0.674764 0.686433 0.166146
O O3 0.625815 0.733420 0.879194
O O4 0.576538 0.625292 0.911286
O O5 0.575709 0.662741 0.463708
O O6 0.665073 0.561464 0.425582
O O7 0.403144 0.589721 0.285593
O O8 0.372211 0.585293 0.594921
O O9 0.850333 0.482277 0.288951
O O10 0.662354 0.542307 0.098029
#
# Coordination Sequence:
#
# PCOD9460013 Si02
#       5
#     8   8   8   8   8
#     4  12  25  45  76 100 146 178 247 285 371 418
#     4  10  21  40  66  92 139 174 228 282 349 403
#     4  12  24  48  72 106 136 193 225 311 351 432
#     4  10  22  41  67  93 140 179 232 280 348 411
#     4  10  23  43  65 101 134 188 228 290 342 423
#
# _framework density 25.793824999999998
#
# number of rings (size 3 to 8) (size 9 to 14) (size 15 to 20)
#    1.200    0.000    2.000    5.400    0.000    0.800 
#    3.600    2.000    0.000    0.000    0.000    0.000 
#    0.000    0.000    0.000    0.000    0.000    0.000 
#
# Total GULP energy -223798.977818 kJ/mol
# GULP energy per Si atom -5594.974445 kJ/mol
# Density = 2.573512 g / cm^3
# Si number density = 25.793825 Si / 1000 Ang^3
#
#
#
# Elastic Constant Matrix: (Units=GPa)
#
#
# Indices 1 2 3 4 5 6 
#
# 1 122.2597 49.6255 17.7771 0.0000 0.0000 0.0000
# 2 49.6255 190.1634 47.5645 0.0000 0.0000 0.0000
# 3 17.7771 47.5645 41.1177 0.0000 0.0000 0.0000
# 4 0.0000 0.0000 0.0000 31.6881 0.0000 0.0000
# 5 0.0000 0.0000 0.0000 0.0000 21.3034 0.0000
# 6 0.0000 0.0000 0.0000 0.0000 0.0000 48.4587
#
#
#
# Elastic Compliance Matrix: (Units=1/GPa)
#
#
# Indices 1 2 3 4 5 6 
#
# 1 0.009232 -0.001985 -0.001695 0.000000 0.000000 0.000000
# 2 -0.001985 0.007827 -0.008195 0.000000 0.000000 0.000000
# 3 -0.001695 -0.008195 0.034533 0.000000 0.000000 0.000000
# 4 0.000000 0.000000 0.000000 0.031558 0.000000 0.000000
# 5 0.000000 0.000000 0.000000 0.000000 0.046941 0.000000
# 6 0.000000 0.000000 0.000000 0.000000 0.000000 0.020636
#
#
# Mechanical properties :
#
#
# Convention : Reuss Voigt Hill
#
# Bulk Modulus (GPa) = 35.91842 64.83056 50.37449
# Shear Modulus (GPa) = 27.20985 36.19497 31.70241
#
# Velocity S-wave (km/s) = 3.25144 3.75005 3.50961
# Velocity P-wave (km/s) = 5.29634 6.62867 5.99960
#
# Compressibility (1/GPa) = 0.02784087
#
# Stress axis : x y z
#
# Youngs Moduli (GPa) = 108.32443 127.77014 28.95740
#
# Poissons Ratio (x) = 0.25365 0.04908
# Poissons Ratio (y) = 0.21504 0.23732
# Poissons Ratio (z) = 0.18359 1.04713
#
# Static dielectric constant tensor:
#      x y z
#    x 2.091970 0.000000 0.000000 
#    y 0.000000 1.974120 0.000000 
#    z 0.000000 0.000000 2.079270 
# 
# From -- ./inp_files/1776.got.cif
#   From: 2010.05.17/outbox.cif.g08.bks.cpg/sg61_1_cif.got.tgz:1776.got - 2010.06.03 15:17:17.
