data_PCOD9460822
_publ_section_title
;
Structure prediction by ZEFSAII (Michael W. Deem and Ramdas Pophale) SiO2 
 PCOD9460822
Probable space group: P B C A
;
_chemical_formula_sum "Si O2"
_cell_formula_units_Z 40
_cell_length_a 22.542301
_cell_length_b 8.867595
_cell_length_c 7.522479
_cell_angle_alpha 90.000000
_cell_angle_beta 90.000000
_cell_angle_gamma 90.000000
_cell_volume 1503.713429
_symmetry_space_group_name_H-M "P B C A"
_symmetry_group_IT_number 61
_symmetry_cell_setting 'orthorhombic'
loop_
_space_group_symop_operation_xyz
x,y,z
1/2-x,-y,1/2+z
1/2+x,1/2-y,-z
-x,1/2+y,1/2-z
-x,-y,-z
1/2+x,y,1/2-z
1/2-x,1/2+y,z
x,1/2-y,1/2+z
loop_
_atom_site_type_symbol
_atom_site_label
_atom_site_fract_x
_atom_site_fract_y
_atom_site_fract_z
Si Si1 0.511136 0.991596 0.723823
Si Si2 0.555845 0.793975 0.055234
Si Si3 0.363628 0.612274 0.789740
Si Si4 0.304374 0.907064 0.657657
Si Si5 0.682809 0.886532 0.011317
O O1 0.519966 0.862419 0.575683
O O2 0.454234 0.087033 0.782289
O O3 0.565861 0.105989 0.707579
O O4 0.529135 0.885206 0.891481
O O5 0.626773 0.776675 0.039325
O O6 0.341203 0.779908 0.758738
O O7 0.342344 0.513824 0.622668
O O8 0.337847 0.553270 0.975657
O O9 0.242088 0.836136 0.590174
O O10 0.298137 0.040582 0.800436
#
# Coordination Sequence:
#
# PCOD9460822 Si02
#       5
#     8   8   8   8   8
#     4  10  25  46  70 108 144 192 245 310 370 442
#     4  10  25  46  71 105 149 188 251 302 369 448
#     4  11  25  43  69 106 147 190 247 307 367 439
#     4  12  24  43  72 103 148 200 244 306 367 444
#     4  11  25  44  69 108 143 195 251 302 365 443
#
# _framework density 26.600815999999998
#
# number of rings (size 3 to 8) (size 9 to 14) (size 15 to 20)
#    0.000    1.200    4.000    0.000    5.600    7.200 
#    0.000    0.000    0.000    0.000    0.000    0.000 
#    0.000    0.000    0.000    0.000    0.000    0.000 
#
# Total GULP energy -224197.219740 kJ/mol
# GULP energy per Si atom -5604.930494 kJ/mol
# Density = 2.654027 g / cm^3
# Si number density = 26.600816 Si / 1000 Ang^3
#
#
#
# Elastic Constant Matrix: (Units=GPa)
#
#
# Indices 1 2 3 4 5 6 
#
# 1 123.8711 63.1531 21.0292 0.0000 0.0000 0.0000
# 2 63.1531 113.6292 8.2225 0.0000 0.0000 0.0000
# 3 21.0292 8.2225 141.2169 0.0000 0.0000 0.0000
# 4 0.0000 0.0000 0.0000 15.9259 0.0000 0.0000
# 5 0.0000 0.0000 0.0000 0.0000 38.6525 0.0000
# 6 0.0000 0.0000 0.0000 0.0000 0.0000 37.9909
#
#
#
# Elastic Compliance Matrix: (Units=1/GPa)
#
#
# Indices 1 2 3 4 5 6 
#
# 1 0.011515 -0.006302 -0.001348 0.000000 0.000000 0.000000
# 2 -0.006302 0.012287 0.000223 0.000000 0.000000 0.000000
# 3 -0.001348 0.000223 0.007269 0.000000 0.000000 0.000000
# 4 0.000000 0.000000 0.000000 0.062791 0.000000 0.000000
# 5 0.000000 0.000000 0.000000 0.000000 0.025872 0.000000
# 6 0.000000 0.000000 0.000000 0.000000 0.000000 0.026322
#
#
# Mechanical properties :
#
#
# Convention : Reuss Voigt Hill
#
# Bulk Modulus (GPa) = 61.66342 62.61410 62.13876
# Shear Modulus (GPa) = 30.06352 37.60136 33.83244
#
# Velocity S-wave (km/s) = 3.36545 3.76379 3.57018
# Velocity P-wave (km/s) = 6.19137 6.51749 6.35652
#
# Compressibility (1/GPa) = 0.01621707
#
# Stress axis : x y z
#
# Youngs Moduli (GPa) = 86.84526 81.38658 137.57017
#
# Poissons Ratio (x) = 0.51291 0.18541
# Poissons Ratio (y) = 0.54731 -0.03069
# Poissons Ratio (z) = 0.11705 -0.01815
#
# Static dielectric constant tensor:
#      x y z
#    x 2.042030 0.000000 0.000000 
#    y 0.000000 2.038070 0.000000 
#    z 0.000000 0.000000 2.284550 
# 
# From -- ./inp_files/1769.got.cif
#   From: 2010.05.17/outbox.cif.g08.bks.cpg/sg61_1_cif.got.tgz:1769.got - 2010.06.03 15:17:17.
