data_PCOD9460951
_publ_section_title
;
Structure prediction by ZEFSAII (Michael W. Deem and Ramdas Pophale) SiO2 
 PCOD9460951
Probable space group: P B C A
;
_chemical_formula_sum "Si O2"
_cell_formula_units_Z 64
_cell_length_a 14.429367
_cell_length_b 23.047776
_cell_length_c 8.964746
_cell_angle_alpha 90.000000
_cell_angle_beta 90.000000
_cell_angle_gamma 90.000000
_cell_volume 2981.359126
_symmetry_space_group_name_H-M "P B C A"
_symmetry_group_IT_number 61
_symmetry_cell_setting 'orthorhombic'
loop_
_space_group_symop_operation_xyz
x,y,z
1/2-x,-y,1/2+z
1/2+x,1/2-y,-z
-x,1/2+y,1/2-z
-x,-y,-z
1/2+x,y,1/2-z
1/2-x,1/2+y,z
x,1/2-y,1/2+z
loop_
_atom_site_type_symbol
_atom_site_label
_atom_site_fract_x
_atom_site_fract_y
_atom_site_fract_z
Si Si1 0.447203 0.610547 0.682108
Si Si2 0.699722 0.970588 0.475191
Si Si3 0.107096 0.435715 0.865426
Si Si4 0.560148 0.989081 0.718413
Si Si5 0.199077 0.325623 0.772279
Si Si6 0.799249 0.082960 0.407350
Si Si7 0.158915 0.627013 0.764084
Si Si8 0.796345 0.707128 0.883032
O O1 0.445914 0.580242 0.518938
O O2 0.416383 0.557013 0.784400
O O3 0.548268 0.629611 0.733100
O O4 0.376804 0.663597 0.672310
O O5 0.790599 0.957202 0.579996
O O6 0.604590 0.964842 0.567314
O O7 0.696769 0.923253 0.345518
O O8 0.716979 0.035591 0.417429
O O9 0.118534 0.373827 0.783948
O O10 0.046043 0.479014 0.765735
O O11 0.616781 0.955923 0.847514
O O12 0.281957 0.364470 0.706253
O O13 0.180935 0.272399 0.662985
O O14 0.215076 0.302634 0.939975
O O15 0.812536 0.110051 0.569170
O O16 0.205128 0.685692 0.704091
#
# Coordination Sequence:
#
# PCOD9460951 Si02
#       8
#     8   8   8   8   8   8   8   8
#     4  11  23  41  69 101 138 190 232 292 363 420
#     4  12  24  42  68 105 149 187 228 297 361 436
#     4  11  22  45  69 102 144 189 230 300 365 424
#     4  12  23  41  69 105 143 186 240 290 362 436
#     4  11  25  47  77  95 139 188 245 294 364 424
#     4  12  22  39  72 101 135 191 229 283 365 427
#     4  12  24  42  69 101 143 183 239 293 355 430
#     4  11  24  50  67  97 137 186 242 303 347 420
#
# _framework density 21.466719999999999
#
# number of rings (size 3 to 8) (size 9 to 14) (size 15 to 20)
#    0.000    0.500    6.250    3.375    1.750    0.500 
#    6.750    1.250    0.000    0.000    0.000    0.000 
#    0.000    0.000    0.000    0.000    0.000    0.000 
#
# Total GULP energy -357945.316808 kJ/mol
# GULP energy per Si atom -5592.895575 kJ/mol
# Density = 2.141786 g / cm^3
# Si number density = 21.466720 Si / 1000 Ang^3
#
#
#
# Elastic Constant Matrix: (Units=GPa)
#
#
# Indices 1 2 3 4 5 6 
#
# 1 96.9537 23.1524 32.8197 0.0000 0.0000 0.0000
# 2 23.1524 122.1471 37.5596 0.0000 0.0000 0.0000
# 3 32.8197 37.5596 92.1181 0.0000 0.0000 0.0000
# 4 0.0000 0.0000 0.0000 45.9119 0.0000 0.0000
# 5 0.0000 0.0000 0.0000 0.0000 30.9150 0.0000
# 6 0.0000 0.0000 0.0000 0.0000 0.0000 19.2896
#
#
#
# Elastic Compliance Matrix: (Units=1/GPa)
#
#
# Indices 1 2 3 4 5 6 
#
# 1 0.011853 -0.001084 -0.003781 0.000000 0.000000 0.000000
# 2 -0.001084 0.009460 -0.003471 0.000000 0.000000 0.000000
# 3 -0.003781 -0.003471 0.013618 0.000000 0.000000 0.000000
# 4 0.000000 0.000000 0.000000 0.021781 0.000000 0.000000
# 5 0.000000 0.000000 0.000000 0.000000 0.032347 0.000000
# 6 0.000000 0.000000 0.000000 0.000000 0.000000 0.051841
#
#
# Mechanical properties :
#
#
# Convention : Reuss Voigt Hill
#
# Bulk Modulus (GPa) = 54.76796 55.36472 55.06634
# Shear Modulus (GPa) = 30.55168 33.73578 32.14373
#
# Velocity S-wave (km/s) = 3.77664 3.96856 3.87379
# Velocity P-wave (km/s) = 6.67725 6.84443 6.76136
#
# Compressibility (1/GPa) = 0.01825885
#
# Stress axis : x y z
#
# Youngs Moduli (GPa) = 84.36716 105.71313 73.43304
#
# Poissons Ratio (x) = 0.11460 0.27765
# Poissons Ratio (y) = 0.09146 0.25487
# Poissons Ratio (z) = 0.31899 0.36690
#
# Static dielectric constant tensor:
#      x y z
#    x 1.814120 0.000000 0.000000 
#    y 0.000000 1.747140 0.000000 
#    z 0.000000 0.000000 1.833340 
# 
# From -- ./inp_files/3191.got.cif
#   From: 2010.05.17/outbox.cif.g08.bks.cpg/sg61_2_cif.got.tgz:3191.got - 2010.06.03 15:17:17.
