data_PCOD9460721
_publ_section_title
;
Structure prediction by ZEFSAII (Michael W. Deem and Ramdas Pophale) SiO2 
 PCOD9460721
Probable space group: P B C A
;
_chemical_formula_sum "Si O2"
_cell_formula_units_Z 60
_cell_length_a 12.074263
_cell_length_b 17.359339
_cell_length_c 13.991860
_cell_angle_alpha 90.000000
_cell_angle_beta 90.000000
_cell_angle_gamma 90.000000
_cell_volume 2932.710990
_symmetry_space_group_name_H-M "P B C A"
_symmetry_group_IT_number 61
_symmetry_cell_setting 'orthorhombic'
loop_
_space_group_symop_operation_xyz
x,y,z
1/2-x,-y,1/2+z
1/2+x,1/2-y,-z
-x,1/2+y,1/2-z
-x,-y,-z
1/2+x,y,1/2-z
1/2-x,1/2+y,z
x,1/2-y,1/2+z
loop_
_atom_site_type_symbol
_atom_site_label
_atom_site_fract_x
_atom_site_fract_y
_atom_site_fract_z
Si Si1 0.210895 0.151312 0.862248
Si Si2 0.318186 0.378105 0.554765
Si Si3 0.952913 0.142447 0.894808
Si Si4 0.603900 0.630671 0.100211
Si Si5 0.883617 0.533666 0.364382
Si Si6 0.000000 0.000000 0.500000
Si Si7 0.801559 0.516849 0.154382
Si Si8 0.668224 0.761614 0.768587
O O1 0.230700 0.216621 0.782622
O O2 0.084712 0.148929 0.895642
O O3 0.244644 0.066186 0.825537
O O4 0.288693 0.163236 0.954909
O O5 0.220328 0.440710 0.571762
O O6 0.433285 0.424295 0.548751
O O7 0.309176 0.319534 0.643787
O O8 0.908224 0.194672 0.810147
O O9 0.914608 0.055039 0.879215
O O10 0.900398 0.167418 0.995470
O O11 0.491645 0.581818 0.108783
O O12 0.709117 0.574731 0.114029
O O13 0.609240 0.691249 0.185136
O O14 0.849377 0.546475 0.254646
O O15 0.099651 0.005877 0.420562
#
# Coordination Sequence:
#
# PCOD9460721 Si02
#       8
#     8   8   8   8   8   4   8   8
#     4  11  24  45  66 100 143 184 228 302 363 435
#     4  11  24  47  73 104 145 188 244 304 360 448
#     4  12  25  44  72 101 142 189 238 297 367 439
#     4  12  25  46  73 104 140 195 238 301 358 440
#     4  12  23  45  76 105 137 192 251 299 359 442
#     4  10  24  42  72 104 140 182 242 308 360 428
#     4  11  23  44  73 105 139 182 244 299 361 429
#     4  12  27  44  67 107 147 186 239 293 377 436
#
# _framework density 20.458886
#
# number of rings (size 3 to 8) (size 9 to 14) (size 15 to 20)
#    0.000    0.533    5.333    3.600    1.867    1.067 
#    2.400    1.333    0.000    0.000    0.000    0.000 
#    0.000    0.000    0.000    0.000    0.000    0.000 
#
# Total GULP energy -334472.391464 kJ/mol
# GULP energy per Si atom -5574.539858 kJ/mol
# Density = 2.041232 g / cm^3
# Si number density = 20.458886 Si / 1000 Ang^3
#
#
#
# Elastic Constant Matrix: (Units=GPa)
#
#
# Indices 1 2 3 4 5 6 
#
# 1 62.0658 30.0063 20.9667 0.0000 0.0000 0.0000
# 2 30.0063 102.4850 22.0979 0.0000 0.0000 0.0000
# 3 20.9667 22.0979 83.0468 0.0000 0.0000 0.0000
# 4 0.0000 0.0000 0.0000 47.0314 0.0000 0.0000
# 5 0.0000 0.0000 0.0000 0.0000 26.7629 0.0000
# 6 0.0000 0.0000 0.0000 0.0000 0.0000 23.9784
#
#
#
# Elastic Compliance Matrix: (Units=1/GPa)
#
#
# Indices 1 2 3 4 5 6 
#
# 1 0.019764 -0.004998 -0.003660 0.000000 0.000000 0.000000
# 2 -0.004998 0.011615 -0.001829 0.000000 0.000000 0.000000
# 3 -0.003660 -0.001829 0.013452 0.000000 0.000000 0.000000
# 4 0.000000 0.000000 0.000000 0.021262 0.000000 0.000000
# 5 0.000000 0.000000 0.000000 0.000000 0.037365 0.000000
# 6 0.000000 0.000000 0.000000 0.000000 0.000000 0.041704
#
#
# Mechanical properties :
#
#
# Convention : Reuss Voigt Hill
#
# Bulk Modulus (GPa) = 41.91384 43.74883 42.83134
# Shear Modulus (GPa) = 28.72084 31.18965 29.95524
#
# Velocity S-wave (km/s) = 3.75084 3.90873 3.83060
# Velocity P-wave (km/s) = 6.26815 6.46537 6.36753
#
# Compressibility (1/GPa) = 0.02385847
#
# Stress axis : x y z
#
# Youngs Moduli (GPa) = 50.59580 86.09482 74.33773
#
# Poissons Ratio (x) = 0.43027 0.27208
# Poissons Ratio (y) = 0.25286 0.13596
# Poissons Ratio (z) = 0.18519 0.15746
#
# Static dielectric constant tensor:
#      x y z
#    x 1.676270 0.000000 0.000000 
#    y 0.000000 1.519170 0.000000 
#    z 0.000000 0.000000 1.733060 
# 
# From -- ./inp_files/7619.got.cif
#   From: 2010.05.17/outbox.cif.g08.bks.cpg/sg61_4_cif.got.tgz:7619.got - 2010.06.03 15:17:17.
