data_PCOD9460570
_publ_section_title
;
Structure prediction by ZEFSAII (Michael W. Deem and Ramdas Pophale) SiO2 
 PCOD9460570
Probable space group: P B C A
;
_chemical_formula_sum "Si O2"
_cell_formula_units_Z 56
_cell_length_a 8.715690
_cell_length_b 19.078279
_cell_length_c 14.875211
_cell_angle_alpha 90.000000
_cell_angle_beta 90.000000
_cell_angle_gamma 90.000000
_cell_volume 2473.455522
_symmetry_space_group_name_H-M "P B C A"
_symmetry_group_IT_number 61
_symmetry_cell_setting 'orthorhombic'
loop_
_space_group_symop_operation_xyz
x,y,z
1/2-x,-y,1/2+z
1/2+x,1/2-y,-z
-x,1/2+y,1/2-z
-x,-y,-z
1/2+x,y,1/2-z
1/2-x,1/2+y,z
x,1/2-y,1/2+z
loop_
_atom_site_type_symbol
_atom_site_label
_atom_site_fract_x
_atom_site_fract_y
_atom_site_fract_z
Si Si1 0.328518 0.017371 0.616811
Si Si2 0.414844 0.548386 0.753393
Si Si3 0.413329 0.171708 0.548573
Si Si4 0.346548 0.366200 0.345841
Si Si5 0.271787 0.205927 0.355368
Si Si6 0.268165 0.882401 0.523444
Si Si7 0.920549 0.191988 0.328212
O O1 0.466120 0.004706 0.687593
O O2 0.169334 0.011369 0.671072
O O3 0.351652 0.097017 0.583654
O O4 0.327588 0.960779 0.538742
O O5 0.282081 0.578534 0.816119
O O6 0.506185 0.614593 0.712003
O O7 0.327178 0.193709 0.457056
O O8 0.589795 0.161282 0.517158
O O9 0.399712 0.229854 0.627011
O O10 0.283174 0.288757 0.333918
O O11 0.368961 0.377798 0.451500
O O12 0.382360 0.178800 0.276171
O O13 0.100044 0.177397 0.344197
O O14 0.201553 0.852467 0.615021
#
# Coordination Sequence:
#
# PCOD9460570 Si02
#       7
#     8   8   8   8   8   8   8
#     4  11  25  45  70 102 139 182 232 286 347 417
#     4  10  23  42  71 100 137 186 232 279 352 421
#     4  12  24  45  71 101 137 184 230 290 352 414
#     4  11  21  43  69 102 136 181 232 286 342 425
#     4  12  25  42  72  99 140 179 233 291 347 410
#     4  12  26  45  69 102 141 179 231 290 348 414
#     4  12  25  46  67 102 137 182 231 289 349 415
#
# _framework density 22.64039
#
# number of rings (size 3 to 8) (size 9 to 14) (size 15 to 20)
#    0.000    0.571    4.286    3.857    2.000    4.000 
#    2.571    0.000    0.000    0.000    0.000    0.000 
#    0.000    0.000    0.000    0.000    0.000    0.000 
#
# Total GULP energy -313168.905126 kJ/mol
# GULP energy per Si atom -5592.301877 kJ/mol
# Density = 2.258886 g / cm^3
# Si number density = 22.640390 Si / 1000 Ang^3
#
#
#
# Elastic Constant Matrix: (Units=GPa)
#
#
# Indices 1 2 3 4 5 6 
#
# 1 60.4784 9.2547 23.4880 0.0000 0.0000 0.0000
# 2 9.2547 50.9535 -5.1516 0.0000 0.0000 0.0000
# 3 23.4880 -5.1516 87.0628 0.0000 0.0000 0.0000
# 4 0.0000 0.0000 0.0000 20.6526 0.0000 0.0000
# 5 0.0000 0.0000 0.0000 0.0000 29.5029 0.0000
# 6 0.0000 0.0000 0.0000 0.0000 0.0000 16.4902
#
#
#
# Elastic Compliance Matrix: (Units=1/GPa)
#
#
# Indices 1 2 3 4 5 6 
#
# 1 0.019266 -0.004049 -0.005437 0.000000 0.000000 0.000000
# 2 -0.004049 0.020595 0.002311 0.000000 0.000000 0.000000
# 3 -0.005437 0.002311 0.013090 0.000000 0.000000 0.000000
# 4 0.000000 0.000000 0.000000 0.048420 0.000000 0.000000
# 5 0.000000 0.000000 0.000000 0.000000 0.033895 0.000000
# 6 0.000000 0.000000 0.000000 0.000000 0.000000 0.060642
#
#
# Mechanical properties :
#
#
# Convention : Reuss Voigt Hill
#
# Bulk Modulus (GPa) = 25.90680 28.18631 27.04656
# Shear Modulus (GPa) = 22.40899 24.72272 23.56585
#
# Velocity S-wave (km/s) = 3.14949 3.30809 3.22976
# Velocity P-wave (km/s) = 4.96923 5.20268 5.08730
#
# Compressibility (1/GPa) = 0.03859991
#
# Stress axis : x y z
#
# Youngs Moduli (GPa) = 51.90472 48.55595 76.39670
#
# Poissons Ratio (x) = 0.19660 0.41539
# Poissons Ratio (y) = 0.21016 -0.17655
# Poissons Ratio (z) = 0.28222 -0.11221
#
# Static dielectric constant tensor:
#      x y z
#    x 1.830290 0.000000 0.000000 
#    y 0.000000 1.848900 0.000000 
#    z 0.000000 0.000000 1.864050 
# 
# From -- ./inp_files/7160.got.cif
#   From: 2010.05.17/outbox.cif.g08.bks.cpg/sg61_4_cif.got.tgz:7160.got - 2010.06.03 15:17:17.
