data_PCOD9460307
_publ_section_title
;
Structure prediction by ZEFSAII (Michael W. Deem and Ramdas Pophale) SiO2 
 PCOD9460307
Probable space group: P B C A
;
_chemical_formula_sum "Si O2"
_cell_formula_units_Z 56
_cell_length_a 7.865283
_cell_length_b 17.201918
_cell_length_c 19.643078
_cell_angle_alpha 90.000000
_cell_angle_beta 90.000000
_cell_angle_gamma 90.000000
_cell_volume 2657.668248
_symmetry_space_group_name_H-M "P B C A"
_symmetry_group_IT_number 61
_symmetry_cell_setting 'orthorhombic'
loop_
_space_group_symop_operation_xyz
x,y,z
1/2-x,-y,1/2+z
1/2+x,1/2-y,-z
-x,1/2+y,1/2-z
-x,-y,-z
1/2+x,y,1/2-z
1/2-x,1/2+y,z
x,1/2-y,1/2+z
loop_
_atom_site_type_symbol
_atom_site_label
_atom_site_fract_x
_atom_site_fract_y
_atom_site_fract_z
Si Si1 0.199114 0.743982 0.939505
Si Si2 0.514582 0.636268 0.974715
Si Si3 0.360863 0.836064 0.822085
Si Si4 0.067603 0.490954 0.891168
Si Si5 0.277702 0.513138 0.029336
Si Si6 0.978508 0.658799 0.842199
Si Si7 0.828819 0.241528 0.783627
O O1 0.355792 0.683596 0.942435
O O2 0.239781 0.806213 0.881433
O O3 0.035929 0.697555 0.912947
O O4 0.144261 0.796250 0.002792
O O5 0.628968 0.565587 0.944546
O O6 0.410584 0.584355 0.030757
O O7 0.387620 0.925546 0.836622
O O8 0.283591 0.809924 0.750266
O O9 0.531060 0.784924 0.827579
O O10 0.892715 0.468509 0.929484
O O11 0.027871 0.570175 0.852135
O O12 0.210314 0.500374 0.950913
O O13 0.787328 0.682266 0.824862
O O14 0.085981 0.695259 0.779351
#
# Coordination Sequence:
#
# PCOD9460307 Si02
#       7
#     8   8   8   8   8   8   8
#     4  11  24  35  66  90 122 169 206 253 314 360
#     4  11  24  40  58  93 130 162 210 251 298 386
#     4  10  22  41  62  91 120 163 206 263 314 366
#     4  11  22  40  64  91 127 169 199 244 320 380
#     4  10  24  42  56  93 135 165 197 252 296 395
#     4  10  22  41  62  91 120 163 206 263 314 366
#     4   9  22  43  64  88 122 151 222 271 302 358
#
# _framework density 21.071100999999999
#
# number of rings (size 3 to 8) (size 9 to 14) (size 15 to 20)
#    0.000    1.714    2.857    0.000    8.000    1.143 
#    0.000    0.000    0.000    0.000    0.000    0.000 
#    0.000    0.000    0.000    0.000    0.000    0.000 
#
# Total GULP energy -312279.843676 kJ/mol
# GULP energy per Si atom -5576.425780 kJ/mol
# Density = 2.102314 g / cm^3
# Si number density = 21.071101 Si / 1000 Ang^3
#
#
#
# Elastic Constant Matrix: (Units=GPa)
#
#
# Indices 1 2 3 4 5 6 
#
# 1 72.1316 1.1231 4.3374 0.0000 0.0000 0.0000
# 2 1.1231 108.0126 17.2168 0.0000 0.0000 0.0000
# 3 4.3374 17.2168 31.9278 0.0000 0.0000 0.0000
# 4 0.0000 0.0000 0.0000 43.6364 0.0000 0.0000
# 5 0.0000 0.0000 0.0000 0.0000 22.9869 0.0000
# 6 0.0000 0.0000 0.0000 0.0000 0.0000 30.2729
#
#
#
# Elastic Compliance Matrix: (Units=1/GPa)
#
#
# Indices 1 2 3 4 5 6 
#
# 1 0.013981 0.000172 -0.001992 0.000000 0.000000 0.000000
# 2 0.000172 0.010131 -0.005486 0.000000 0.000000 0.000000
# 3 -0.001992 -0.005486 0.034550 0.000000 0.000000 0.000000
# 4 0.000000 0.000000 0.000000 0.022917 0.000000 0.000000
# 5 0.000000 0.000000 0.000000 0.000000 0.043503 0.000000
# 6 0.000000 0.000000 0.000000 0.000000 0.000000 0.033033
#
#
# Mechanical properties :
#
#
# Convention : Reuss Voigt Hill
#
# Bulk Modulus (GPa) = 22.70216 28.60295 25.65256
# Shear Modulus (GPa) = 26.67955 32.00555 29.34255
#
# Velocity S-wave (km/s) = 3.56219 3.90157 3.73574
# Velocity P-wave (km/s) = 5.26463 5.82240 5.55053
#
# Compressibility (1/GPa) = 0.04404868
#
# Stress axis : x y z
#
# Youngs Moduli (GPa) = 71.52736 98.70796 28.94370
#
# Poissons Ratio (x) = -0.01699 0.05766
# Poissons Ratio (y) = -0.01231 0.15880
# Poissons Ratio (z) = 0.14249 0.54155
#
# Static dielectric constant tensor:
#      x y z
#    x 1.799940 0.000000 0.000000 
#    y 0.000000 1.770720 0.000000 
#    z 0.000000 0.000000 1.773090 
# 
# From -- ./inp_files/10130.got.cif
#   From: 2010.05.17/outbox.cif.g08.bks.cpg/sg61_6_cif.got.tgz:10130.got - 2010.06.03 15:17:17.
