data_PCOD9460085
_publ_section_title
;
Structure prediction by ZEFSAII (Michael W. Deem and Ramdas Pophale) SiO2 
 PCOD9460085
Probable space group: P B C A
;
_chemical_formula_sum "Si O2"
_cell_formula_units_Z 32
_cell_length_a 11.357141
_cell_length_b 12.905220
_cell_length_c 9.206466
_cell_angle_alpha 90.000000
_cell_angle_beta 90.000000
_cell_angle_gamma 90.000000
_cell_volume 1349.358608
_symmetry_space_group_name_H-M "P B C A"
_symmetry_group_IT_number 61
_symmetry_cell_setting 'orthorhombic'
loop_
_space_group_symop_operation_xyz
x,y,z
1/2-x,-y,1/2+z
1/2+x,1/2-y,-z
-x,1/2+y,1/2-z
-x,-y,-z
1/2+x,y,1/2-z
1/2-x,1/2+y,z
x,1/2-y,1/2+z
loop_
_atom_site_type_symbol
_atom_site_label
_atom_site_fract_x
_atom_site_fract_y
_atom_site_fract_z
Si Si1 0.158277 0.034258 0.042019
Si Si2 0.494245 0.789610 0.693996
Si Si3 0.981239 0.575318 0.721497
Si Si4 0.082573 0.883543 0.508563
O O1 0.094070 0.136475 0.107409
O O2 0.109809 0.943300 0.147189
O O3 0.293108 0.059641 0.021831
O O4 0.104377 0.012570 0.883121
O O5 0.433269 0.692262 0.775206
O O6 0.582203 0.728156 0.583665
O O7 0.545959 0.851861 0.829622
O O8 0.999512 0.556974 0.891008
#
# Coordination Sequence:
#
# PCOD9460085 Si02
#       4
#     8   8   8   8
#     4  11  22  41  71  89 134 174 202 285 324 367
#     4  10  21  42  60  99 129 162 226 258 317 400
#     4   9  22  43  59  98 128 160 226 257 317 399
#     4  10  23  40  62  94 128 170 217 261 322 392
#
# _framework density 23.714970999999998
#
# number of rings (size 3 to 8) (size 9 to 14) (size 15 to 20)
#    1.500    0.500    2.500    0.000    3.500    5.000 
#    0.000    0.000    0.000    0.000    0.000    0.000 
#    0.000    0.000    0.000    0.000    0.000    0.000 
#
# Total GULP energy -178175.653387 kJ/mol
# GULP energy per Si atom -5567.989168 kJ/mol
# Density = 2.366099 g / cm^3
# Si number density = 23.714971 Si / 1000 Ang^3
#
#
#
# Elastic Constant Matrix: (Units=GPa)
#
#
# Indices 1 2 3 4 5 6 
#
# 1 111.4219 2.0116 55.5966 0.0000 0.0000 0.0000
# 2 2.0116 65.4993 40.5433 0.0000 0.0000 0.0000
# 3 55.5966 40.5433 222.8862 0.0000 0.0000 0.0000
# 4 0.0000 0.0000 0.0000 75.3238 0.0000 0.0000
# 5 0.0000 0.0000 0.0000 0.0000 11.5912 0.0000
# 6 0.0000 0.0000 0.0000 0.0000 0.0000 28.8205
#
#
#
# Elastic Compliance Matrix: (Units=1/GPa)
#
#
# Indices 1 2 3 4 5 6 
#
# 1 0.010371 0.001446 -0.002850 0.000000 0.000000 0.000000
# 2 0.001446 0.017406 -0.003527 0.000000 0.000000 0.000000
# 3 -0.002850 -0.003527 0.005839 0.000000 0.000000 0.000000
# 4 0.000000 0.000000 0.000000 0.013276 0.000000 0.000000
# 5 0.000000 0.000000 0.000000 0.000000 0.086272 0.000000
# 6 0.000000 0.000000 0.000000 0.000000 0.000000 0.034697
#
#
# Mechanical properties :
#
#
# Convention : Reuss Voigt Hill
#
# Bulk Modulus (GPa) = 42.09889 66.23448 54.16668
# Shear Modulus (GPa) = 26.93365 43.25750 35.09557
#
# Velocity S-wave (km/s) = 3.37371 4.27553 3.85111
# Velocity P-wave (km/s) = 5.74164 7.23627 6.53185
#
# Compressibility (1/GPa) = 0.02375360
#
# Stress axis : x y z
#
# Youngs Moduli (GPa) = 96.42469 57.45167 171.26315
#
# Poissons Ratio (x) = -0.08305 0.48807
# Poissons Ratio (y) = -0.13938 0.60400
# Poissons Ratio (z) = 0.27479 0.20262
#
# Static dielectric constant tensor:
#      x y z
#    x 1.879670 0.000000 0.000000 
#    y 0.000000 2.197820 0.000000 
#    z 0.000000 0.000000 1.910930 
# 
# From -- ./inp_files/1995.got.cif
#   From: 2010.05.17/outbox.cif.g08.bks.cpg/sg61_1_cif.got.tgz:1995.got - 2010.06.03 15:17:17.
