data_PCOD9460370
_publ_section_title
;
Structure prediction by ZEFSAII (Michael W. Deem and Ramdas Pophale) SiO2 
 PCOD9460370
Probable space group: P B C A
;
_chemical_formula_sum "Si O2"
_cell_formula_units_Z 56
_cell_length_a 12.684391
_cell_length_b 13.142137
_cell_length_c 16.678438
_cell_angle_alpha 90.000000
_cell_angle_beta 90.000000
_cell_angle_gamma 90.000000
_cell_volume 2780.295686
_symmetry_space_group_name_H-M "P B C A"
_symmetry_group_IT_number 61
_symmetry_cell_setting 'orthorhombic'
loop_
_space_group_symop_operation_xyz
x,y,z
1/2-x,-y,1/2+z
1/2+x,1/2-y,-z
-x,1/2+y,1/2-z
-x,-y,-z
1/2+x,y,1/2-z
1/2-x,1/2+y,z
x,1/2-y,1/2+z
loop_
_atom_site_type_symbol
_atom_site_label
_atom_site_fract_x
_atom_site_fract_y
_atom_site_fract_z
Si Si1 0.163319 0.796183 0.406564
Si Si2 0.789062 0.416305 0.662162
Si Si3 0.878645 0.433601 0.836682
Si Si4 0.869698 0.586385 0.548169
Si Si5 0.834437 0.463783 0.393000
Si Si6 0.410202 0.460328 0.288975
Si Si7 0.936932 0.236317 0.938937
O O1 0.211621 0.688748 0.383506
O O2 0.254676 0.861823 0.448509
O O3 0.122257 0.852621 0.327214
O O4 0.071871 0.776552 0.470509
O O5 0.833002 0.400316 0.750945
O O6 0.860705 0.497037 0.613998
O O7 0.672910 0.461984 0.671420
O O8 0.783950 0.493814 0.880869
O O9 0.920219 0.334179 0.883096
O O10 0.974376 0.508926 0.816885
O O11 0.886536 0.534889 0.461332
O O12 0.957072 0.669990 0.570083
O O13 0.891131 0.466217 0.306286
O O14 0.844963 0.347377 0.422712
#
# Coordination Sequence:
#
# PCOD9460370 Si02
#       7
#     8   8   8   8   8   8   8
#     4  11  23  41  62  97 126 167 214 263 320 377
#     4  10  22  42  66  89 135 169 209 265 319 378
#     4  11  24  44  65  95 130 170 214 266 317 376
#     4  11  23  42  66  96 131 169 213 267 320 383
#     4  11  23  44  64  97 129 166 218 263 318 386
#     4  10  24  42  64  92 128 171 214 263 319 382
#     4  12  24  39  69  95 124 168 214 258 325 385
#
# _framework density 20.141742000000001
#
# number of rings (size 3 to 8) (size 9 to 14) (size 15 to 20)
#    0.000    1.143    2.857    3.000    2.000    1.714 
#    0.000    2.857    0.000    0.000    0.000    0.000 
#    0.000    0.000    0.000    0.000    0.000    0.000 
#
# Total GULP energy -312896.258567 kJ/mol
# GULP energy per Si atom -5587.433189 kJ/mol
# Density = 2.009590 g / cm^3
# Si number density = 20.141742 Si / 1000 Ang^3
#
#
#
# Elastic Constant Matrix: (Units=GPa)
#
#
# Indices 1 2 3 4 5 6 
#
# 1 73.4459 10.2745 25.7323 0.0000 0.0000 0.0000
# 2 10.2745 57.5500 1.1785 0.0000 0.0000 0.0000
# 3 25.7323 1.1785 65.4741 0.0000 0.0000 0.0000
# 4 0.0000 0.0000 0.0000 35.9599 0.0000 0.0000
# 5 0.0000 0.0000 0.0000 0.0000 22.9577 0.0000
# 6 0.0000 0.0000 0.0000 0.0000 0.0000 17.2123
#
#
#
# Elastic Compliance Matrix: (Units=1/GPa)
#
#
# Indices 1 2 3 4 5 6 
#
# 1 0.016218 -0.002766 -0.006324 0.000000 0.000000 0.000000
# 2 -0.002766 0.017854 0.000766 0.000000 0.000000 0.000000
# 3 -0.006324 0.000766 0.017745 0.000000 0.000000 0.000000
# 4 0.000000 0.000000 0.000000 0.027809 0.000000 0.000000
# 5 0.000000 0.000000 0.000000 0.000000 0.043558 0.000000
# 6 0.000000 0.000000 0.000000 0.000000 0.000000 0.058098
#
#
# Mechanical properties :
#
#
# Convention : Reuss Voigt Hill
#
# Bulk Modulus (GPa) = 28.43454 30.09340 29.26397
# Shear Modulus (GPa) = 23.84881 25.84497 24.84689
#
# Velocity S-wave (km/s) = 3.44473 3.58600 3.51608
# Velocity P-wave (km/s) = 5.47444 5.66737 5.57174
#
# Compressibility (1/GPa) = 0.03516850
#
# Stress axis : x y z
#
# Youngs Moduli (GPa) = 61.65944 56.00889 56.35411
#
# Poissons Ratio (x) = 0.15492 0.35639
# Poissons Ratio (y) = 0.17055 -0.04315
# Poissons Ratio (z) = 0.38995 -0.04288
#
# Static dielectric constant tensor:
#      x y z
#    x 1.712060 0.000000 0.000000 
#    y 0.000000 1.681660 0.000000 
#    z 0.000000 0.000000 1.714110 
# 
# From -- ./inp_files/7494.got.cif
#   From: 2010.05.17/outbox.cif.g08.bks.cpg/sg61_4_cif.got.tgz:7494.got - 2010.06.03 15:17:17.
