data_PCOD9460156
_publ_section_title
;
Structure prediction by ZEFSAII (Michael W. Deem and Ramdas Pophale) SiO2 
 PCOD9460156
Probable space group: P B C A
;
_chemical_formula_sum "Si O2"
_cell_formula_units_Z 40
_cell_length_a 18.002932
_cell_length_b 7.713238
_cell_length_c 13.245506
_cell_angle_alpha 90.000000
_cell_angle_beta 90.000000
_cell_angle_gamma 90.000000
_cell_volume 1839.282874
_symmetry_space_group_name_H-M "P B C A"
_symmetry_group_IT_number 61
_symmetry_cell_setting 'orthorhombic'
loop_
_space_group_symop_operation_xyz
x,y,z
1/2-x,-y,1/2+z
1/2+x,1/2-y,-z
-x,1/2+y,1/2-z
-x,-y,-z
1/2+x,y,1/2-z
1/2-x,1/2+y,z
x,1/2-y,1/2+z
loop_
_atom_site_type_symbol
_atom_site_label
_atom_site_fract_x
_atom_site_fract_y
_atom_site_fract_z
Si Si1 0.416323 0.997511 0.956759
Si Si2 0.651917 0.266780 0.909134
Si Si3 0.813418 0.390700 0.879265
Si Si4 0.010051 0.489934 0.619561
Si Si5 0.416456 0.218132 0.764478
O O1 0.366934 0.131797 0.023403
O O2 0.377927 0.814241 0.984727
O O3 0.414049 0.060385 0.842971
O O4 0.500000 0.000000 0.000000
O O5 0.728841 0.368370 0.911942
O O6 0.586012 0.380467 0.865864
O O7 0.668208 0.088810 0.848663
O O8 0.840351 0.263625 0.791828
O O9 0.024379 0.669085 0.677366
O O10 0.000000 0.500000 0.500000
O O11 0.945344 0.381946 0.672543
#
# Coordination Sequence:
#
# PCOD9460156 Si02
#       5
#     8   8   8   8   8
#     4  10  21  44  70  96 145 180 244 292 362 425
#     4  10  23  47  66  97 149 184 236 317 354 427
#     4  10  23  44  66  98 144 187 240 303 366 420
#     4  12  26  42  74 106 143 186 250 297 363 431
#     4  12  23  42  71 103 136 196 236 295 362 447
#
# _framework density 21.747606000000001
#
# number of rings (size 3 to 8) (size 9 to 14) (size 15 to 20)
#    1.200    0.000    2.000    4.800    2.800    0.000 
#    7.200    0.000    0.000    0.000    0.000    0.000 
#    0.000    0.000    0.000    0.000    0.000    0.000 
#
# Total GULP energy -223283.141221 kJ/mol
# GULP energy per Si atom -5582.078531 kJ/mol
# Density = 2.169811 g / cm^3
# Si number density = 21.747606 Si / 1000 Ang^3
#
#
#
# Elastic Constant Matrix: (Units=GPa)
#
#
# Indices 1 2 3 4 5 6 
#
# 1 122.8541 5.1534 26.1502 0.0000 0.0000 0.0000
# 2 5.1534 46.7261 16.7801 0.0000 0.0000 0.0000
# 3 26.1502 16.7801 105.9655 0.0000 0.0000 0.0000
# 4 0.0000 0.0000 0.0000 41.6844 0.0000 0.0000
# 5 0.0000 0.0000 0.0000 0.0000 19.5081 0.0000
# 6 0.0000 0.0000 0.0000 0.0000 0.0000 43.4904
#
#
#
# Elastic Compliance Matrix: (Units=1/GPa)
#
#
# Indices 1 2 3 4 5 6 
#
# 1 0.008593 -0.000197 -0.002089 0.000000 0.000000 0.000000
# 2 -0.000197 0.022696 -0.003545 0.000000 0.000000 0.000000
# 3 -0.002089 -0.003545 0.010514 0.000000 0.000000 0.000000
# 4 0.000000 0.000000 0.000000 0.023990 0.000000 0.000000
# 5 0.000000 0.000000 0.000000 0.000000 0.051261 0.000000
# 6 0.000000 0.000000 0.000000 0.000000 0.000000 0.022994
#
#
# Mechanical properties :
#
#
# Convention : Reuss Voigt Hill
#
# Bulk Modulus (GPa) = 33.17956 41.30147 37.24052
# Shear Modulus (GPa) = 30.91048 36.10072 33.50560
#
# Velocity S-wave (km/s) = 3.77414 4.07871 3.92938
# Velocity P-wave (km/s) = 5.85508 6.41979 6.14393
#
# Compressibility (1/GPa) = 0.03013903
#
# Stress axis : x y z
#
# Youngs Moduli (GPa) = 116.37744 44.06012 95.11086
#
# Poissons Ratio (x) = 0.00870 0.19871
# Poissons Ratio (y) = 0.02297 0.33720
# Poissons Ratio (z) = 0.24314 0.15621
#
# Static dielectric constant tensor:
#      x y z
#    x 1.770550 0.000000 0.000000 
#    y 0.000000 1.875920 0.000000 
#    z 0.000000 0.000000 1.784160 
# 
# From -- ./inp_files/6076.got.cif
#   From: 2010.05.17/outbox.cif.g08.bks.cpg/sg61_4_cif.got.tgz:6076.got - 2010.06.03 15:17:17.
