data_PCOD9460525
_publ_section_title
;
Structure prediction by ZEFSAII (Michael W. Deem and Ramdas Pophale) SiO2 
 PCOD9460525
Probable space group: P B C A
;
_chemical_formula_sum "Si O2"
_cell_formula_units_Z 40
_cell_length_a 7.576909
_cell_length_b 8.883523
_cell_length_c 22.631423
_cell_angle_alpha 90.000000
_cell_angle_beta 90.000000
_cell_angle_gamma 90.000000
_cell_volume 1523.313056
_symmetry_space_group_name_H-M "P B C A"
_symmetry_group_IT_number 61
_symmetry_cell_setting 'orthorhombic'
loop_
_space_group_symop_operation_xyz
x,y,z
1/2-x,-y,1/2+z
1/2+x,1/2-y,-z
-x,1/2+y,1/2-z
-x,-y,-z
1/2+x,y,1/2-z
1/2-x,1/2+y,z
x,1/2-y,1/2+z
loop_
_atom_site_type_symbol
_atom_site_label
_atom_site_fract_x
_atom_site_fract_y
_atom_site_fract_z
Si Si1 0.325371 0.783856 0.216924
Si Si2 0.005032 0.240388 0.871583
Si Si3 0.440375 0.262684 0.996582
Si Si4 0.772471 0.956038 0.050578
Si Si5 0.366361 0.501068 0.297545
O O1 0.478273 0.882442 0.188134
O O2 0.281602 0.888025 0.273641
O O3 0.382441 0.619696 0.241212
O O4 0.150521 0.776112 0.176633
O O5 0.124363 0.096995 0.890762
O O6 0.127137 0.378902 0.850447
O O7 0.914741 0.274068 0.934537
O O8 0.613860 0.367528 0.999065
O O9 0.296072 0.373668 0.967131
O O10 0.420247 0.115408 0.956539
#
# Coordination Sequence:
#
# PCOD9460525 Si02
#       5
#     8   8   8   8   8
#     4  12  24  45  66 101 137 175 232 280 333 413
#     4  10  23  40  69  93 135 179 213 278 350 378
#     4   9  21  41  63  94 131 165 221 274 323 410
#     4   9  21  41  66  94 130 169 220 271 333 401
#     4  12  24  43  69  95 137 177 228 278 334 407
#
# _framework density 26.258555999999999
#
# number of rings (size 3 to 8) (size 9 to 14) (size 15 to 20)
#    1.200    0.400    4.000    0.000    2.800    2.400 
#    0.000    2.000    0.000    0.000    0.000    0.000 
#    0.000    0.000    0.000    0.000    0.000    0.000 
#
# Total GULP energy -223139.849660 kJ/mol
# GULP energy per Si atom -5578.496242 kJ/mol
# Density = 2.619879 g / cm^3
# Si number density = 26.258556 Si / 1000 Ang^3
#
#
#
# Elastic Constant Matrix: (Units=GPa)
#
#
# Indices 1 2 3 4 5 6 
#
# 1 46.4970 19.7925 10.5416 0.0000 0.0000 0.0000
# 2 19.7925 134.5423 3.4322 0.0000 0.0000 0.0000
# 3 10.5416 3.4322 125.7328 0.0000 0.0000 0.0000
# 4 0.0000 0.0000 0.0000 25.9334 0.0000 0.0000
# 5 0.0000 0.0000 0.0000 0.0000 42.9450 0.0000
# 6 0.0000 0.0000 0.0000 0.0000 0.0000 65.8143
#
#
#
# Elastic Compliance Matrix: (Units=1/GPa)
#
#
# Indices 1 2 3 4 5 6 
#
# 1 0.023373 -0.003391 -0.001867 0.000000 0.000000 0.000000
# 2 -0.003391 0.007930 0.000068 0.000000 0.000000 0.000000
# 3 -0.001867 0.000068 0.008108 0.000000 0.000000 0.000000
# 4 0.000000 0.000000 0.000000 0.038560 0.000000 0.000000
# 5 0.000000 0.000000 0.000000 0.000000 0.023286 0.000000
# 6 0.000000 0.000000 0.000000 0.000000 0.000000 0.015194
#
#
# Mechanical properties :
#
#
# Convention : Reuss Voigt Hill
#
# Bulk Modulus (GPa) = 34.44591 41.58939 38.01765
# Shear Modulus (GPa) = 36.62771 45.13892 40.88331
#
# Velocity S-wave (km/s) = 3.73887 4.15060 3.95010
# Velocity P-wave (km/s) = 5.63785 6.23240 5.94256
#
# Compressibility (1/GPa) = 0.02903102
#
# Stress axis : x y z
#
# Youngs Moduli (GPa) = 42.78357 126.10817 123.33398
#
# Poissons Ratio (x) = 0.42761 0.23028
# Poissons Ratio (y) = 0.14507 -0.00837
# Poissons Ratio (z) = 0.07988 -0.00855
#
# Static dielectric constant tensor:
#      x y z
#    x 2.203430 0.000000 0.000000 
#    y 0.000000 2.035130 0.000000 
#    z 0.000000 0.000000 2.113470 
# 
# From -- ./inp_files/10805.got.cif
#   From: 2010.05.17/outbox.cif.g08.bks.cpg/sg61_6_cif.got.tgz:10805.got - 2010.06.03 15:17:17.
