data_PCOD9460174
_publ_section_title
;
Structure prediction by ZEFSAII (Michael W. Deem and Ramdas Pophale) SiO2 
 PCOD9460174
Probable space group: P B C A
;
_chemical_formula_sum "Si O2"
_cell_formula_units_Z 64
_cell_length_a 15.648541
_cell_length_b 13.151633
_cell_length_c 12.433398
_cell_angle_alpha 90.000000
_cell_angle_beta 90.000000
_cell_angle_gamma 90.000000
_cell_volume 2558.841403
_symmetry_space_group_name_H-M "P B C A"
_symmetry_group_IT_number 61
_symmetry_cell_setting 'orthorhombic'
loop_
_space_group_symop_operation_xyz
x,y,z
1/2-x,-y,1/2+z
1/2+x,1/2-y,-z
-x,1/2+y,1/2-z
-x,-y,-z
1/2+x,y,1/2-z
1/2-x,1/2+y,z
x,1/2-y,1/2+z
loop_
_atom_site_type_symbol
_atom_site_label
_atom_site_fract_x
_atom_site_fract_y
_atom_site_fract_z
Si Si1 0.379874 0.912141 0.082344
Si Si2 0.680118 0.955663 0.370586
Si Si3 0.109918 0.249557 0.260212
Si Si4 0.675489 0.063023 0.160216
Si Si5 0.640945 0.596659 0.168736
Si Si6 0.959198 0.389173 0.859679
Si Si7 0.906562 0.587757 0.555679
Si Si8 0.423461 0.209881 0.508794
O O1 0.373846 0.915797 0.951502
O O2 0.546192 0.008719 0.882842
O O3 0.283130 0.944288 0.119892
O O4 0.396456 0.807663 0.147359
O O5 0.637559 0.849939 0.407808
O O6 0.649458 0.981967 0.249737
O O7 0.645155 0.043141 0.453095
O O8 0.184130 0.167619 0.272127
O O9 0.126320 0.331130 0.355436
O O10 0.029541 0.174472 0.290456
O O11 0.773133 0.041565 0.132592
O O12 0.627013 0.620905 0.290459
O O13 0.572747 0.511208 0.129570
O O14 0.624947 0.696956 0.101957
O O15 0.945318 0.324421 0.965640
O O16 0.989740 0.645544 0.513174
#
# Coordination Sequence:
#
# PCOD9460174 Si02
#       8
#     8   8   8   8   8   8   8   8
#     4  12  26  50  73 109 155 189 260 320 384 453
#     4  11  23  42  74 110 150 194 243 320 381 459
#     4  11  28  44  74 105 150 202 251 315 372 463
#     4  12  27  41  74 114 144 198 243 320 389 442
#     4  11  21  44  67 103 143 186 243 303 378 447
#     4  11  26  46  73 103 146 199 246 320 369 461
#     4  10  21  46  73 101 142 199 245 295 380 460
#     4  10  24  41  74 107 136 199 252 298 375 469
#
# _framework density 25.011320000000001
#
# number of rings (size 3 to 8) (size 9 to 14) (size 15 to 20)
#    0.000    1.000    5.000    1.500    7.000    3.500 
#    0.000    0.000    0.000    0.000    0.000    0.000 
#    0.000    0.000    0.000    0.000    0.000    0.000 
#
# Total GULP energy -357082.046511 kJ/mol
# GULP energy per Si atom -5579.406977 kJ/mol
# Density = 2.495439 g / cm^3
# Si number density = 25.011320 Si / 1000 Ang^3
#
#
#
# Elastic Constant Matrix: (Units=GPa)
#
#
# Indices 1 2 3 4 5 6 
#
# 1 68.2377 24.3476 34.0226 0.0000 0.0000 0.0000
# 2 24.3476 102.3280 36.7016 0.0000 0.0000 0.0000
# 3 34.0226 36.7016 119.4569 0.0000 0.0000 0.0000
# 4 0.0000 0.0000 0.0000 36.7022 0.0000 0.0000
# 5 0.0000 0.0000 0.0000 0.0000 33.1238 0.0000
# 6 0.0000 0.0000 0.0000 0.0000 0.0000 19.7840
#
#
#
# Elastic Compliance Matrix: (Units=1/GPa)
#
#
# Indices 1 2 3 4 5 6 
#
# 1 0.017722 -0.002704 -0.004217 0.000000 0.000000 0.000000
# 2 -0.002704 0.011395 -0.002731 0.000000 0.000000 0.000000
# 3 -0.004217 -0.002731 0.010411 0.000000 0.000000 0.000000
# 4 0.000000 0.000000 0.000000 0.027246 0.000000 0.000000
# 5 0.000000 0.000000 0.000000 0.000000 0.030190 0.000000
# 6 0.000000 0.000000 0.000000 0.000000 0.000000 0.050546
#
#
# Mechanical properties :
#
#
# Convention : Reuss Voigt Hill
#
# Bulk Modulus (GPa) = 49.44378 53.35181 51.39779
# Shear Modulus (GPa) = 28.80919 30.91871 29.86395
#
# Velocity S-wave (km/s) = 3.39757 3.51976 3.45920
# Velocity P-wave (km/s) = 5.93319 6.15595 6.04559
#
# Compressibility (1/GPa) = 0.02022499
#
# Stress axis : x y z
#
# Youngs Moduli (GPa) = 56.42732 87.75443 96.05084
#
# Poissons Ratio (x) = 0.23732 0.40500
# Poissons Ratio (y) = 0.15260 0.26230
# Poissons Ratio (z) = 0.23793 0.23965
#
# Static dielectric constant tensor:
#      x y z
#    x 2.183790 0.000000 0.000000 
#    y 0.000000 1.963380 0.000000 
#    z 0.000000 0.000000 2.030910 
# 
# From -- ./inp_files/6006.got.cif
#   From: 2010.05.17/outbox.cif.g08.bks.cpg/sg61_4_cif.got.tgz:6006.got - 2010.06.03 15:17:17.
