data_PCOD9460650
_publ_section_title
;
Structure prediction by ZEFSAII (Michael W. Deem and Ramdas Pophale) SiO2 
 PCOD9460650
Probable space group: P B C A
;
_chemical_formula_sum "Si O2"
_cell_formula_units_Z 64
_cell_length_a 9.649448
_cell_length_b 10.498732
_cell_length_c 27.535016
_cell_angle_alpha 90.000000
_cell_angle_beta 90.000000
_cell_angle_gamma 90.000000
_cell_volume 2789.488999
_symmetry_space_group_name_H-M "P B C A"
_symmetry_group_IT_number 61
_symmetry_cell_setting 'orthorhombic'
loop_
_space_group_symop_operation_xyz
x,y,z
1/2-x,-y,1/2+z
1/2+x,1/2-y,-z
-x,1/2+y,1/2-z
-x,-y,-z
1/2+x,y,1/2-z
1/2-x,1/2+y,z
x,1/2-y,1/2+z
loop_
_atom_site_type_symbol
_atom_site_label
_atom_site_fract_x
_atom_site_fract_y
_atom_site_fract_z
Si Si1 0.864267 0.156280 0.827947
Si Si2 0.427541 0.597026 0.658275
Si Si3 0.947964 0.846676 0.612551
Si Si4 0.269294 0.789036 0.764942
Si Si5 0.305842 0.286542 0.361564
Si Si6 0.021574 0.964384 0.759957
Si Si7 0.878911 0.654687 0.004337
Si Si8 0.828016 0.127781 0.532661
O O1 0.729935 0.112069 0.857481
O O2 0.969877 0.236029 0.859837
O O3 0.790248 0.240687 0.786066
O O4 0.939000 0.041533 0.800470
O O5 0.491374 0.477613 0.630781
O O6 0.529829 0.714124 0.647503
O O7 0.440065 0.557763 0.715176
O O8 0.785250 0.836418 0.625298
O O9 0.959480 0.831518 0.555533
O O10 0.255080 0.684120 0.807587
O O11 0.418954 0.852703 0.759497
O O12 0.160866 0.899659 0.778415
O O13 0.281428 0.369168 0.410518
O O14 0.763158 0.764969 0.005035
O O15 0.815869 0.511824 0.008380
O O16 0.006885 0.660524 0.967032
#
# Coordination Sequence:
#
# PCOD9460650 Si02
#       8
#     8   8   8   8   8   8   8   8
#     4  12  25  39  60  91 130 182 222 276 342 399
#     4  12  23  40  61  90 131 167 226 274 331 402
#     4  11  24  44  65  95 133 172 226 280 342 407
#     4  12  23  38  59  87 127 175 221 278 326 399
#     4  11  23  39  69  93 126 178 223 276 339 411
#     4  12  24  38  57  87 129 175 226 274 331 393
#     4  10  23  47  75 106 139 183 225 296 350 430
#     4  10  23  45  77 105 142 178 231 284 366 421
#
# _framework density 22.943269999999998
#
# number of rings (size 3 to 8) (size 9 to 14) (size 15 to 20)
#    0.000    0.750    6.250    0.750    3.500    1.500 
#    2.250    0.000    0.000    0.000    0.000    0.000 
#    0.000    0.000    0.000    0.000    0.000    0.000 
#
# Total GULP energy -357676.856617 kJ/mol
# GULP energy per Si atom -5588.700885 kJ/mol
# Density = 2.289105 g / cm^3
# Si number density = 22.943270 Si / 1000 Ang^3
#
#
#
# Elastic Constant Matrix: (Units=GPa)
#
#
# Indices 1 2 3 4 5 6 
#
# 1 129.0118 66.5080 17.3528 0.0000 0.0000 0.0000
# 2 66.5080 113.9526 21.2874 0.0000 0.0000 0.0000
# 3 17.3528 21.2874 67.0459 0.0000 0.0000 0.0000
# 4 0.0000 0.0000 0.0000 25.9459 0.0000 0.0000
# 5 0.0000 0.0000 0.0000 0.0000 23.5153 0.0000
# 6 0.0000 0.0000 0.0000 0.0000 0.0000 49.6849
#
#
#
# Elastic Compliance Matrix: (Units=1/GPa)
#
#
# Indices 1 2 3 4 5 6 
#
# 1 0.011135 -0.006336 -0.000870 0.000000 0.000000 0.000000
# 2 -0.006336 0.012934 -0.002467 0.000000 0.000000 0.000000
# 3 -0.000870 -0.002467 0.015924 0.000000 0.000000 0.000000
# 4 0.000000 0.000000 0.000000 0.038542 0.000000 0.000000
# 5 0.000000 0.000000 0.000000 0.000000 0.042525 0.000000
# 6 0.000000 0.000000 0.000000 0.000000 0.000000 0.020127
#
#
# Mechanical properties :
#
#
# Convention : Reuss Voigt Hill
#
# Bulk Modulus (GPa) = 48.43431 57.81187 53.12309
# Shear Modulus (GPa) = 29.86587 33.48670 31.67629
#
# Velocity S-wave (km/s) = 3.61186 3.82454 3.71972
# Velocity P-wave (km/s) = 6.20889 6.68994 6.45390
#
# Compressibility (1/GPa) = 0.02064652
#
# Stress axis : x y z
#
# Youngs Moduli (GPa) = 89.80956 77.31274 62.79989
#
# Poissons Ratio (x) = 0.48987 0.05464
# Poissons Ratio (y) = 0.56905 0.15492
# Poissons Ratio (z) = 0.07814 0.19072
#
# Static dielectric constant tensor:
#      x y z
#    x 1.863940 0.000000 0.000000 
#    y 0.000000 1.888280 0.000000 
#    z 0.000000 0.000000 1.944920 
# 
# From -- ./inp_files/11748.got.cif
#   From: 2010.05.17/outbox.cif.g08.bks.cpg/sg61_6_cif.got.tgz:11748.got - 2010.06.03 15:17:17.
