data_PCOD9460350
_publ_section_title
;
Structure prediction by ZEFSAII (Michael W. Deem and Ramdas Pophale) SiO2 
 PCOD9460350
Probable space group: P B C A
;
_chemical_formula_sum "Si O2"
_cell_formula_units_Z 32
_cell_length_a 11.952981
_cell_length_b 8.921814
_cell_length_c 11.668034
_cell_angle_alpha 90.000000
_cell_angle_beta 90.000000
_cell_angle_gamma 90.000000
_cell_volume 1244.305670
_symmetry_space_group_name_H-M "P B C A"
_symmetry_group_IT_number 61
_symmetry_cell_setting 'orthorhombic'
loop_
_space_group_symop_operation_xyz
x,y,z
1/2-x,-y,1/2+z
1/2+x,1/2-y,-z
-x,1/2+y,1/2-z
-x,-y,-z
1/2+x,y,1/2-z
1/2-x,1/2+y,z
x,1/2-y,1/2+z
loop_
_atom_site_type_symbol
_atom_site_label
_atom_site_fract_x
_atom_site_fract_y
_atom_site_fract_z
Si Si1 0.658201 0.813615 0.961613
Si Si2 0.026957 0.493754 0.202452
Si Si3 0.606582 0.182151 0.371510
Si Si4 0.330748 0.996248 0.421351
O O1 0.556192 0.883012 0.892597
O O2 0.760714 0.784703 0.871004
O O3 0.650951 0.661116 0.030466
O O4 0.706216 0.941671 0.047309
O O5 0.030896 0.327363 0.150961
O O6 0.130313 0.487007 0.292514
O O7 0.926420 0.554185 0.280724
O O8 0.596354 0.116280 0.499617
#
# Coordination Sequence:
#
# PCOD9460350 Si02
#       4
#     8   8   8   8
#     4  10  22  42  62  97 128 164 227 256 316 400
#     4  12  23  43  70  90 136 175 204 281 323 372
#     4  10  23  42  62 100 128 164 226 257 318 402
#     4  10  23  42  63  93 131 170 210 271 319 386
#
# _framework density 25.717151999999999
#
# number of rings (size 3 to 8) (size 9 to 14) (size 15 to 20)
#    1.500    0.000    2.500    2.250    3.500    0.000 
#    0.000    2.500    0.000    0.000    0.000    0.000 
#    0.000    0.000    0.000    0.000    0.000    0.000 
#
# Total GULP energy -179091.338108 kJ/mol
# GULP energy per Si atom -5596.604316 kJ/mol
# Density = 2.565862 g / cm^3
# Si number density = 25.717152 Si / 1000 Ang^3
#
#
#
# Elastic Constant Matrix: (Units=GPa)
#
#
# Indices 1 2 3 4 5 6 
#
# 1 47.0910 -0.6872 0.3740 0.0000 0.0000 0.0000
# 2 -0.6872 144.2057 47.7638 0.0000 0.0000 0.0000
# 3 0.3740 47.7638 106.0729 0.0000 0.0000 0.0000
# 4 0.0000 0.0000 0.0000 54.8104 0.0000 0.0000
# 5 0.0000 0.0000 0.0000 0.0000 9.4465 0.0000
# 6 0.0000 0.0000 0.0000 0.0000 0.0000 41.7379
#
#
#
# Elastic Compliance Matrix: (Units=1/GPa)
#
#
# Indices 1 2 3 4 5 6 
#
# 1 0.021239 0.000148 -0.000142 0.000000 0.000000 0.000000
# 2 0.000148 0.008151 -0.003671 0.000000 0.000000 0.000000
# 3 -0.000142 -0.003671 0.011081 0.000000 0.000000 0.000000
# 4 0.000000 0.000000 0.000000 0.018245 0.000000 0.000000
# 5 0.000000 0.000000 0.000000 0.000000 0.105860 0.000000
# 6 0.000000 0.000000 0.000000 0.000000 0.000000 0.023959
#
#
# Mechanical properties :
#
#
# Convention : Reuss Voigt Hill
#
# Bulk Modulus (GPa) = 30.17311 43.58564 36.87937
# Shear Modulus (GPa) = 24.16506 37.86022 31.01264
#
# Velocity S-wave (km/s) = 3.06869 3.84106 3.47639
# Velocity P-wave (km/s) = 4.93092 6.05446 5.52135
#
# Compressibility (1/GPa) = 0.03314210
#
# Stress axis : x y z
#
# Youngs Moduli (GPa) = 47.08369 122.68255 90.24496
#
# Poissons Ratio (x) = -0.01817 0.01278
# Poissons Ratio (y) = -0.00697 0.33128
# Poissons Ratio (z) = 0.00667 0.45036
#
# Static dielectric constant tensor:
#      x y z
#    x 2.124390 0.000000 0.000000 
#    y 0.000000 1.949170 0.000000 
#    z 0.000000 0.000000 1.950750 
# 
# From -- ./inp_files/6918.got.cif
#   From: 2010.05.17/outbox.cif.g08.bks.cpg/sg61_4_cif.got.tgz:6918.got - 2010.06.03 15:17:17.
