data_PCOD9460933
_publ_section_title
;
Structure prediction by ZEFSAII (Michael W. Deem and Ramdas Pophale) SiO2 
 PCOD9460933
Probable space group: P B C A
;
_chemical_formula_sum "Si O2"
_cell_formula_units_Z 48
_cell_length_a 19.002751
_cell_length_b 13.340299
_cell_length_c 8.779792
_cell_angle_alpha 90.000000
_cell_angle_beta 90.000000
_cell_angle_gamma 90.000000
_cell_volume 2225.698169
_symmetry_space_group_name_H-M "P B C A"
_symmetry_group_IT_number 61
_symmetry_cell_setting 'orthorhombic'
loop_
_space_group_symop_operation_xyz
x,y,z
1/2-x,-y,1/2+z
1/2+x,1/2-y,-z
-x,1/2+y,1/2-z
-x,-y,-z
1/2+x,y,1/2-z
1/2-x,1/2+y,z
x,1/2-y,1/2+z
loop_
_atom_site_type_symbol
_atom_site_label
_atom_site_fract_x
_atom_site_fract_y
_atom_site_fract_z
Si Si1 0.928629 0.113431 0.578430
Si Si2 0.313930 0.974313 0.785103
Si Si3 0.976522 0.722850 0.329329
Si Si4 0.960219 0.470546 0.755498
Si Si5 0.376542 0.768574 0.920533
Si Si6 0.172340 0.053394 0.922637
O O1 0.951747 0.225376 0.618437
O O2 0.927540 0.091172 0.398395
O O3 0.859683 0.067754 0.653993
O O4 0.992825 0.052833 0.658745
O O5 0.344136 0.873584 0.866995
O O6 0.321006 0.964291 0.603517
O O7 0.234724 0.996221 0.836506
O O8 0.988908 0.604175 0.337094
O O9 0.953599 0.744298 0.156879
O O10 0.904689 0.762245 0.407660
O O11 0.900746 0.515049 0.648391
O O12 0.326923 0.673447 0.895525
#
# Coordination Sequence:
#
# PCOD9460933 Si02
#       6
#     8   8   8   8   8   8
#     4  11  22  41  68 101 136 174 228 286 340 404
#     4  12  28  46  70 102 139 189 232 286 353 414
#     4  12  23  41  71 105 138 179 227 288 344 410
#     4  11  23  41  69 102 134 176 229 284 340 407
#     4  12  24  45  70 100 136 182 228 281 351 411
#     4  12  28  45  71 100 141 185 233 287 347 424
#
# _framework density 21.566268000000001
#
# number of rings (size 3 to 8) (size 9 to 14) (size 15 to 20)
#    0.000    0.333    6.667    2.000    4.667    2.667 
#    0.000    0.000    0.000    0.000    0.000    0.000 
#    0.000    0.000    0.000    0.000    0.000    0.000 
#
# Total GULP energy -268167.040096 kJ/mol
# GULP energy per Si atom -5586.813335 kJ/mol
# Density = 2.151718 g / cm^3
# Si number density = 21.566268 Si / 1000 Ang^3
#
#
#
# Elastic Constant Matrix: (Units=GPa)
#
#
# Indices 1 2 3 4 5 6 
#
# 1 79.7266 26.6581 38.3378 0.0000 0.0000 0.0000
# 2 26.6581 86.3803 31.6006 0.0000 0.0000 0.0000
# 3 38.3378 31.6006 90.2325 0.0000 0.0000 0.0000
# 4 0.0000 0.0000 0.0000 26.4259 0.0000 0.0000
# 5 0.0000 0.0000 0.0000 0.0000 37.4288 0.0000
# 6 0.0000 0.0000 0.0000 0.0000 0.0000 36.5631
#
#
#
# Elastic Compliance Matrix: (Units=1/GPa)
#
#
# Indices 1 2 3 4 5 6 
#
# 1 0.016363 -0.002875 -0.005946 0.000000 0.000000 0.000000
# 2 -0.002875 0.013783 -0.003606 0.000000 0.000000 0.000000
# 3 -0.005946 -0.003606 0.014871 0.000000 0.000000 0.000000
# 4 0.000000 0.000000 0.000000 0.037842 0.000000 0.000000
# 5 0.000000 0.000000 0.000000 0.000000 0.026717 0.000000
# 6 0.000000 0.000000 0.000000 0.000000 0.000000 0.027350
#
#
# Mechanical properties :
#
#
# Convention : Reuss Voigt Hill
#
# Bulk Modulus (GPa) = 49.58933 49.94804 49.76869
# Shear Modulus (GPa) = 29.67358 30.73307 30.20332
#
# Velocity S-wave (km/s) = 3.71337 3.77908 3.74637
# Velocity P-wave (km/s) = 6.43656 6.50019 6.46846
#
# Compressibility (1/GPa) = 0.02016563
#
# Stress axis : x y z
#
# Youngs Moduli (GPa) = 61.11302 72.55355 67.24353
#
# Poissons Ratio (x) = 0.20858 0.39980
# Poissons Ratio (y) = 0.17569 0.24245
# Poissons Ratio (z) = 0.36335 0.26159
#
# Static dielectric constant tensor:
#      x y z
#    x 1.745500 0.000000 0.000000 
#    y 0.000000 1.808960 0.000000 
#    z 0.000000 0.000000 1.776070 
# 
# From -- ./inp_files/3464.got.cif
#   From: 2010.05.17/outbox.cif.g08.bks.cpg/sg61_2_cif.got.tgz:3464.got - 2010.06.03 15:17:17.
