data_PCOD9460817
_publ_section_title
;
Structure prediction by ZEFSAII (Michael W. Deem and Ramdas Pophale) SiO2 
 PCOD9460817
Probable space group: P B C A
;
_chemical_formula_sum "Si O2"
_cell_formula_units_Z 40
_cell_length_a 9.230136
_cell_length_b 10.327125
_cell_length_c 16.019079
_cell_angle_alpha 90.000000
_cell_angle_beta 90.000000
_cell_angle_gamma 90.000000
_cell_volume 1526.950917
_symmetry_space_group_name_H-M "P B C A"
_symmetry_group_IT_number 61
_symmetry_cell_setting 'orthorhombic'
loop_
_space_group_symop_operation_xyz
x,y,z
1/2-x,-y,1/2+z
1/2+x,1/2-y,-z
-x,1/2+y,1/2-z
-x,-y,-z
1/2+x,y,1/2-z
1/2-x,1/2+y,z
x,1/2-y,1/2+z
loop_
_atom_site_type_symbol
_atom_site_label
_atom_site_fract_x
_atom_site_fract_y
_atom_site_fract_z
Si Si1 0.740699 0.518100 0.625661
Si Si2 0.134783 0.598110 0.714343
Si Si3 0.510942 0.311341 0.445145
Si Si4 0.681252 0.902812 0.475058
Si Si5 0.544914 0.845090 0.710998
O O1 0.750672 0.602636 0.710390
O O2 0.589302 0.571967 0.589089
O O3 0.843089 0.517581 0.542766
O O4 0.802388 0.384205 0.665983
O O5 0.180202 0.562598 0.621503
O O6 0.067747 0.740975 0.716888
O O7 0.031806 0.477022 0.738473
O O8 0.418247 0.218659 0.504184
O O9 0.654464 0.356861 0.490323
O O10 0.545126 0.227262 0.361867
#
# Coordination Sequence:
#
# PCOD9460817 Si02
#       5
#     8   8   8   8   8
#     4  10  25  46  71 107 155 203 273 321 391 484
#     4  11  27  45  81 111 162 210 269 327 415 472
#     4  10  25  45  72 112 154 207 266 325 400 476
#     4  11  26  45  77 113 158 212 263 333 403 478
#     4  10  26  46  73 111 153 208 268 331 389 486
#
# _framework density 26.195993999999999
#
# number of rings (size 3 to 8) (size 9 to 14) (size 15 to 20)
#    0.000    1.600    0.000    0.600   16.800    3.200 
#    0.000    0.000    0.000    0.000    0.000    0.000 
#    0.000    0.000    0.000    0.000    0.000    0.000 
#
# Total GULP energy -223175.210031 kJ/mol
# GULP energy per Si atom -5579.380251 kJ/mol
# Density = 2.613637 g / cm^3
# Si number density = 26.195994 Si / 1000 Ang^3
#
#
#
# Elastic Constant Matrix: (Units=GPa)
#
#
# Indices 1 2 3 4 5 6 
#
# 1 63.5126 56.4448 32.8101 0.0000 0.0000 0.0000
# 2 56.4448 144.9570 40.9545 0.0000 0.0000 0.0000
# 3 32.8101 40.9545 164.1116 0.0000 0.0000 0.0000
# 4 0.0000 0.0000 0.0000 47.8332 0.0000 0.0000
# 5 0.0000 0.0000 0.0000 0.0000 24.2063 0.0000
# 6 0.0000 0.0000 0.0000 0.0000 0.0000 45.5377
#
#
#
# Elastic Compliance Matrix: (Units=1/GPa)
#
#
# Indices 1 2 3 4 5 6 
#
# 1 0.025208 -0.009029 -0.002787 0.000000 0.000000 0.000000
# 2 -0.009029 0.010656 -0.000854 0.000000 0.000000 0.000000
# 3 -0.002787 -0.000854 0.006864 0.000000 0.000000 0.000000
# 4 0.000000 0.000000 0.000000 0.020906 0.000000 0.000000
# 5 0.000000 0.000000 0.000000 0.000000 0.041312 0.000000
# 6 0.000000 0.000000 0.000000 0.000000 0.000000 0.021960
#
#
# Mechanical properties :
#
#
# Convention : Reuss Voigt Hill
#
# Bulk Modulus (GPa) = 57.50793 70.33333 63.92063
# Shear Modulus (GPa) = 31.63760 39.67356 35.65558
#
# Velocity S-wave (km/s) = 3.47901 3.89587 3.69332
# Velocity P-wave (km/s) = 6.17564 6.86616 6.53004
#
# Compressibility (1/GPa) = 0.01738891
#
# Stress axis : x y z
#
# Youngs Moduli (GPa) = 39.66945 93.84808 145.69442
#
# Poissons Ratio (x) = 0.84731 0.40600
# Poissons Ratio (y) = 0.35816 0.12443
# Poissons Ratio (z) = 0.11055 0.08015
#
# Static dielectric constant tensor:
#      x y z
#    x 2.157660 0.000000 0.000000 
#    y 0.000000 2.037910 0.000000 
#    z 0.000000 0.000000 2.119220 
# 
# From -- ./inp_files/8820.got.cif
#   From: 2010.05.17/outbox.cif.g08.bks.cpg/sg61_5_cif.got.tgz:8820.got - 2010.06.03 15:17:17.
