data_PCOD9460211
_publ_section_title
;
Structure prediction by ZEFSAII (Michael W. Deem and Ramdas Pophale) SiO2 
 PCOD9460211
Probable space group: P B C A
;
_chemical_formula_sum "Si O2"
_cell_formula_units_Z 64
_cell_length_a 14.600554
_cell_length_b 16.442320
_cell_length_c 12.942396
_cell_angle_alpha 90.000000
_cell_angle_beta 90.000000
_cell_angle_gamma 90.000000
_cell_volume 3107.041935
_symmetry_space_group_name_H-M "P B C A"
_symmetry_group_IT_number 61
_symmetry_cell_setting 'orthorhombic'
loop_
_space_group_symop_operation_xyz
x,y,z
1/2-x,-y,1/2+z
1/2+x,1/2-y,-z
-x,1/2+y,1/2-z
-x,-y,-z
1/2+x,y,1/2-z
1/2-x,1/2+y,z
x,1/2-y,1/2+z
loop_
_atom_site_type_symbol
_atom_site_label
_atom_site_fract_x
_atom_site_fract_y
_atom_site_fract_z
Si Si1 0.894031 0.441361 0.162342
Si Si2 0.438867 0.156343 0.386853
Si Si3 0.738350 0.904554 0.983465
Si Si4 0.687400 0.778496 0.433797
Si Si5 0.522482 0.786644 0.270242
Si Si6 0.068035 0.114963 0.924868
Si Si7 0.262941 0.557934 0.664942
Si Si8 0.554432 0.505122 0.240954
O O1 0.950151 0.361746 0.196920
O O2 0.809780 0.446237 0.242002
O O3 0.967965 0.513010 0.182502
O O4 0.851295 0.428073 0.050125
O O5 0.359541 0.198221 0.455803
O O6 0.491355 0.214911 0.308658
O O7 0.511792 0.126491 0.471145
O O8 0.404411 0.085698 0.310380
O O9 0.752388 0.977004 0.902727
O O10 0.730689 0.811542 0.942725
O O11 0.828070 0.905948 0.054575
O O12 0.608041 0.771820 0.347050
O O13 0.746825 0.857078 0.396870
O O14 0.441410 0.807942 0.348921
O O15 0.019218 0.044333 0.859278
O O16 0.365560 0.547218 0.707205
#
# Coordination Sequence:
#
# PCOD9460211 Si02
#       8
#     8   8   8   8   8   8   8   8
#     4  10  22  42  62  90 133 166 210 276 328 380
#     4  11  20  40  67  94 122 174 223 263 336 405
#     4  12  22  43  65  92 132 175 212 274 334 390
#     4  10  23  40  64  96 130 173 220 271 331 399
#     4   9  20  41  62  89 127 164 214 271 323 384
#     4  10  22  38  63  92 124 167 219 270 322 396
#     4  11  24  42  65  96 130 172 224 266 332 400
#     4  11  22  40  65  91 132 170 209 279 329 389
#
# _framework density 20.598371
#
# number of rings (size 3 to 8) (size 9 to 14) (size 15 to 20)
#    0.000    1.500    2.500    3.375    0.000    2.500 
#    2.250    0.000    0.000    0.000    0.000    0.000 
#    0.000    0.000    0.000    0.000    0.000    0.000 
#
# Total GULP energy -356919.798073 kJ/mol
# GULP energy per Si atom -5576.871845 kJ/mol
# Density = 2.055149 g / cm^3
# Si number density = 20.598371 Si / 1000 Ang^3
#
#
#
# Elastic Constant Matrix: (Units=GPa)
#
#
# Indices 1 2 3 4 5 6 
#
# 1 64.9701 7.6774 14.8083 0.0000 0.0000 0.0000
# 2 7.6774 96.9815 40.6530 0.0000 0.0000 0.0000
# 3 14.8083 40.6530 54.7719 0.0000 0.0000 0.0000
# 4 0.0000 0.0000 0.0000 -2.0607 0.0000 0.0000
# 5 0.0000 0.0000 0.0000 0.0000 25.7930 0.0000
# 6 0.0000 0.0000 0.0000 0.0000 0.0000 17.2067
#
#
#
# Elastic Compliance Matrix: (Units=1/GPa)
#
#
# Indices 1 2 3 4 5 6 
#
# 1 0.016447 0.000816 -0.005052 0.000000 0.000000 0.000000
# 2 0.000816 0.015009 -0.011360 0.000000 0.000000 0.000000
# 3 -0.005052 -0.011360 0.028055 0.000000 0.000000 0.000000
# 4 0.000000 0.000000 0.000000 -0.485283 0.000000 0.000000
# 5 0.000000 0.000000 0.000000 0.000000 0.038770 0.000000
# 6 0.000000 0.000000 0.000000 0.000000 0.000000 0.058117
#
#
# Mechanical properties :
#
#
# Convention : Reuss Voigt Hill
#
# Bulk Modulus (GPa) = 35.31387 38.11121 36.71254
# Shear Modulus (GPa) = -17.34589 18.42680 0.54046
#
# Velocity S-wave (km/s) = -2.90504 2.99419 0.51279
# Velocity P-wave (km/s) = 2.43492 5.52230 4.26759
#
# Compressibility (1/GPa) = 0.02831749
#
# Stress axis : x y z
#
# Youngs Moduli (GPa) = 60.80210 66.62780 35.64375
#
# Poissons Ratio (x) = -0.05435 0.18008
# Poissons Ratio (y) = -0.04960 0.40493
# Poissons Ratio (z) = 0.30718 0.75692
#
# Static dielectric constant tensor:
#      x y z
#    x 1.732280 0.000000 0.000000 
#    y 0.000000 1.859740 0.000000 
#    z 0.000000 0.000000 1.744220 
# 
# From -- ./inp_files/5975.got.cif
#   From: 2010.05.17/outbox.cif.g08.bks.cpg/sg61_3_cif.got.tgz:5975.got - 2010.06.03 15:17:17.
