data_PCOD9460471
_publ_section_title
;
Structure prediction by ZEFSAII (Michael W. Deem and Ramdas Pophale) SiO2 
 PCOD9460471
Probable space group: P B C A
;
_chemical_formula_sum "Si O2"
_cell_formula_units_Z 60
_cell_length_a 9.903017
_cell_length_b 11.545594
_cell_length_c 21.279106
_cell_angle_alpha 90.000000
_cell_angle_beta 90.000000
_cell_angle_gamma 90.000000
_cell_volume 2432.972410
_symmetry_space_group_name_H-M "P B C A"
_symmetry_group_IT_number 61
_symmetry_cell_setting 'orthorhombic'
loop_
_space_group_symop_operation_xyz
x,y,z
1/2-x,-y,1/2+z
1/2+x,1/2-y,-z
-x,1/2+y,1/2-z
-x,-y,-z
1/2+x,y,1/2-z
1/2-x,1/2+y,z
x,1/2-y,1/2+z
loop_
_atom_site_type_symbol
_atom_site_label
_atom_site_fract_x
_atom_site_fract_y
_atom_site_fract_z
Si Si1 0.515763 0.728442 0.747722
Si Si2 0.289920 0.557936 0.964188
Si Si3 0.122108 0.550798 0.855385
Si Si4 0.854570 0.430203 0.348188
Si Si5 0.503611 0.612647 0.063898
Si Si6 0.767133 0.883899 0.744568
Si Si7 0.100509 0.351757 0.075334
Si Si8 0.500000 0.500000 0.500000
O O1 0.555253 0.632732 0.696154
O O2 0.554994 0.664214 0.812342
O O3 0.614815 0.838827 0.740517
O O4 0.363567 0.773768 0.741895
O O5 0.243702 0.603482 0.895968
O O6 0.347219 0.428233 0.951547
O O7 0.412610 0.613455 0.001406
O O8 0.156391 0.563953 0.005926
O O9 0.176533 0.439736 0.819479
O O10 0.003090 0.537029 0.908576
O O11 0.783715 0.515867 0.296987
O O12 0.739688 0.369722 0.390413
O O13 0.943072 0.514109 0.391065
O O14 0.475695 0.736051 0.094406
O O15 0.081677 0.372503 0.002361
#
# Coordination Sequence:
#
# PCOD9460471 Si02
#       8
#     8   8   8   8   8   8   8   4
#     4  11  24  42  67 104 132 187 227 287 363 418
#     4  10  24  46  65 106 135 189 233 299 349 433
#     4  10  24  41  69  97 144 173 241 287 342 434
#     4  11  23  43  70  99 143 178 242 290 354 438
#     4  11  24  44  73  99 145 183 240 296 364 417
#     4  11  25  43  69 102 141 182 231 293 359 420
#     4  11  23  45  69 103 138 192 229 297 356 424
#     4  10  22  46  66  96 146 172 244 284 346 426
#
# _framework density 24.661192
#
# number of rings (size 3 to 8) (size 9 to 14) (size 15 to 20)
#    0.000    1.333    1.333    3.200    5.600    4.267 
#    2.400    0.000    0.000    0.000    0.000    0.000 
#    0.000    0.000    0.000    0.000    0.000    0.000 
#
# Total GULP energy -334590.881872 kJ/mol
# GULP energy per Si atom -5576.514698 kJ/mol
# Density = 2.460506 g / cm^3
# Si number density = 24.661192 Si / 1000 Ang^3
#
#
#
# Elastic Constant Matrix: (Units=GPa)
#
#
# Indices 1 2 3 4 5 6 
#
# 1 113.5967 10.0807 35.9104 0.0000 0.0000 0.0000
# 2 10.0807 79.2921 26.7997 0.0000 0.0000 0.0000
# 3 35.9104 26.7997 83.4253 0.0000 0.0000 0.0000
# 4 0.0000 0.0000 0.0000 32.4196 0.0000 0.0000
# 5 0.0000 0.0000 0.0000 0.0000 36.8265 0.0000
# 6 0.0000 0.0000 0.0000 0.0000 0.0000 24.3408
#
#
#
# Elastic Compliance Matrix: (Units=1/GPa)
#
#
# Indices 1 2 3 4 5 6 
#
# 1 0.010193 0.000210 -0.004455 0.000000 0.000000 0.000000
# 2 0.000210 0.014152 -0.004637 0.000000 0.000000 0.000000
# 3 -0.004455 -0.004637 0.015394 0.000000 0.000000 0.000000
# 4 0.000000 0.000000 0.000000 0.030846 0.000000 0.000000
# 5 0.000000 0.000000 0.000000 0.000000 0.027154 0.000000
# 6 0.000000 0.000000 0.000000 0.000000 0.000000 0.041083
#
#
# Mechanical properties :
#
#
# Convention : Reuss Voigt Hill
#
# Bulk Modulus (GPa) = 45.50538 46.87730 46.19134
# Shear Modulus (GPa) = 30.50455 32.28560 31.39508
#
# Velocity S-wave (km/s) = 3.52084 3.62217 3.57186
# Velocity P-wave (km/s) = 5.91783 6.04510 5.98180
#
# Compressibility (1/GPa) = 0.02197542
#
# Stress axis : x y z
#
# Youngs Moduli (GPa) = 98.10914 70.66137 64.96114
#
# Poissons Ratio (x) = -0.01483 0.28939
# Poissons Ratio (y) = -0.02059 0.30119
# Poissons Ratio (z) = 0.43706 0.32762
#
# Static dielectric constant tensor:
#      x y z
#    x 1.955430 0.000000 0.000000 
#    y 0.000000 2.149260 0.000000 
#    z 0.000000 0.000000 2.677430 
# 
# From -- ./inp_files/11367.got.cif
#   From: 2010.05.17/outbox.cif.g08.bks.cpg/sg61_6_cif.got.tgz:11367.got - 2010.06.03 15:17:17.
