data_PCOD9460024
_publ_section_title
;
Structure prediction by ZEFSAII (Michael W. Deem and Ramdas Pophale) SiO2 
 PCOD9460024
Probable space group: P B C A
;
_chemical_formula_sum "Si O2"
_cell_formula_units_Z 52
_cell_length_a 8.346416
_cell_length_b 12.693087
_cell_length_c 18.400698
_cell_angle_alpha 90.000000
_cell_angle_beta 90.000000
_cell_angle_gamma 90.000000
_cell_volume 1949.402781
_symmetry_space_group_name_H-M "P B C A"
_symmetry_group_IT_number 61
_symmetry_cell_setting 'orthorhombic'
loop_
_space_group_symop_operation_xyz
x,y,z
1/2-x,-y,1/2+z
1/2+x,1/2-y,-z
-x,1/2+y,1/2-z
-x,-y,-z
1/2+x,y,1/2-z
1/2-x,1/2+y,z
x,1/2-y,1/2+z
loop_
_atom_site_type_symbol
_atom_site_label
_atom_site_fract_x
_atom_site_fract_y
_atom_site_fract_z
Si Si1 0.088785 0.979157 0.337844
Si Si2 0.602291 0.364496 0.218691
Si Si3 0.841396 0.290984 0.792188
Si Si4 0.273477 0.138661 0.061303
Si Si5 0.658985 0.633237 0.132637
Si Si6 0.500000 0.500000 0.000000
Si Si7 0.988471 0.817220 0.445685
O O1 0.258015 0.917371 0.326685
O O2 0.986112 0.924569 0.400692
O O3 0.995121 0.950944 0.264339
O O4 0.159645 0.093159 0.355198
O O5 0.473000 0.291992 0.178471
O O6 0.691781 0.284104 0.273026
O O7 0.793828 0.375494 0.852516
O O8 0.893636 0.342403 0.715816
O O9 0.170828 0.247717 0.054271
O O10 0.176947 0.049972 0.017865
O O11 0.442437 0.158585 0.023941
O O12 0.565605 0.553897 0.078361
O O13 0.622857 0.743091 0.092571
#
# Coordination Sequence:
#
# PCOD9460024 Si02
#       7
#     8   8   8   8   8   4   8
#     4  11  22  42  65  99 140 182 232 300 353 434
#     4  10  21  40  67  97 136 176 238 295 358 413
#     4  11  22  42  71 102 133 188 239 293 357 438
#     4  11  24  42  72  95 142 191 235 294 367 432
#     4  11  23  42  73 101 141 185 238 292 366 430
#     4  10  22  42  68 100 140 186 236 298 366 430
#     4  11  23  44  67  98 141 184 233 299 359 434
#
# _framework density 26.674838000000001
#
# number of rings (size 3 to 8) (size 9 to 14) (size 15 to 20)
#    0.000    1.231    6.154    0.923    2.154    3.692 
#    0.000    2.308    6.769    0.000    0.000    0.000 
#    0.000    0.000    0.000    0.000    0.000    0.000 
#
# Total GULP energy -290090.037829 kJ/mol
# GULP energy per Si atom -5578.654574 kJ/mol
# Density = 2.661413 g / cm^3
# Si number density = 26.674838 Si / 1000 Ang^3
#
#
#
# Elastic Constant Matrix: (Units=GPa)
#
#
# Indices 1 2 3 4 5 6 
#
# 1 89.0987 28.6107 15.1237 0.0000 0.0000 0.0000
# 2 28.6107 82.4883 32.0434 0.0000 0.0000 0.0000
# 3 15.1237 32.0434 139.8074 0.0000 0.0000 0.0000
# 4 0.0000 0.0000 0.0000 39.0768 0.0000 0.0000
# 5 0.0000 0.0000 0.0000 0.0000 41.0227 0.0000
# 6 0.0000 0.0000 0.0000 0.0000 0.0000 38.4495
#
#
#
# Elastic Compliance Matrix: (Units=1/GPa)
#
#
# Indices 1 2 3 4 5 6 
#
# 1 0.012650 -0.004233 -0.000398 0.000000 0.000000 0.000000
# 2 -0.004233 0.014724 -0.002917 0.000000 0.000000 0.000000
# 3 -0.000398 -0.002917 0.007864 0.000000 0.000000 0.000000
# 4 0.000000 0.000000 0.000000 0.025591 0.000000 0.000000
# 5 0.000000 0.000000 0.000000 0.000000 0.024377 0.000000
# 6 0.000000 0.000000 0.000000 0.000000 0.000000 0.026008
#
#
# Mechanical properties :
#
#
# Convention : Reuss Voigt Hill
#
# Bulk Modulus (GPa) = 49.64587 51.43890 50.54239
# Shear Modulus (GPa) = 37.58696 39.41758 38.50227
#
# Velocity S-wave (km/s) = 3.75784 3.84827 3.80332
# Velocity P-wave (km/s) = 6.12212 6.25069 6.18674
#
# Compressibility (1/GPa) = 0.02014266
#
# Stress axis : x y z
#
# Youngs Moduli (GPa) = 79.04891 67.91539 127.15684
#
# Poissons Ratio (x) = 0.28749 0.05064
# Poissons Ratio (y) = 0.33462 0.37089
# Poissons Ratio (z) = 0.03148 0.19810
#
# Static dielectric constant tensor:
#      x y z
#    x 2.043420 0.000000 0.000000 
#    y 0.000000 2.127500 0.000000 
#    z 0.000000 0.000000 2.037640 
# 
# From -- ./inp_files/2963.got.cif
#   From: 2010.05.17/outbox.cif.g08.bks.cpg/sg61_2_cif.got.tgz:2963.got - 2010.06.03 15:17:17.
