data_PCOD9460799
_publ_section_title
;
Structure prediction by ZEFSAII (Michael W. Deem and Ramdas Pophale) SiO2 
 PCOD9460799
Probable space group: P B C A
;
_chemical_formula_sum "Si O2"
_cell_formula_units_Z 64
_cell_length_a 30.518045
_cell_length_b 10.413967
_cell_length_c 8.677610
_cell_angle_alpha 90.000000
_cell_angle_beta 90.000000
_cell_angle_gamma 90.000000
_cell_volume 2757.865194
_symmetry_space_group_name_H-M "P B C A"
_symmetry_group_IT_number 61
_symmetry_cell_setting 'orthorhombic'
loop_
_space_group_symop_operation_xyz
x,y,z
1/2-x,-y,1/2+z
1/2+x,1/2-y,-z
-x,1/2+y,1/2-z
-x,-y,-z
1/2+x,y,1/2-z
1/2-x,1/2+y,z
x,1/2-y,1/2+z
loop_
_atom_site_type_symbol
_atom_site_label
_atom_site_fract_x
_atom_site_fract_y
_atom_site_fract_z
Si Si1 0.283737 0.420352 0.792293
Si Si2 0.400977 0.811557 0.192423
Si Si3 0.659741 0.174437 0.079394
Si Si4 0.129510 0.826774 0.670416
Si Si5 0.947809 0.957811 0.833144
Si Si6 0.451307 0.452339 0.823277
Si Si7 0.746228 0.328938 0.389764
Si Si8 0.131626 0.924072 0.327252
O O1 0.335504 0.416423 0.757194
O O2 0.264279 0.298627 0.694062
O O3 0.265003 0.555832 0.729671
O O4 0.274539 0.389431 0.970597
O O5 0.362319 0.779429 0.312830
O O6 0.424524 0.679488 0.145927
O O7 0.435134 0.910115 0.261634
O O8 0.378017 0.864866 0.041141
O O9 0.701824 0.210508 0.982368
O O10 0.665145 0.043452 0.175406
O O11 0.081817 0.852898 0.743770
O O12 0.132499 0.855934 0.491311
O O13 0.143056 0.681374 0.701861
O O14 0.917184 0.027827 0.710398
O O15 0.947360 0.039225 0.991459
O O16 0.997785 0.934757 0.785078
#
# Coordination Sequence:
#
# PCOD9460799 Si02
#       8
#     8   8   8   8   8   8   8   8
#     4  12  27  47  74 106 147 186 241 298 367 430
#     4  11  21  43  68  97 137 179 224 292 337 416
#     4  11  23  45  70  98 135 177 233 274 356 409
#     4  12  25  46  70  98 143 185 229 287 355 420
#     4  10  25  42  66 102 137 183 237 288 348 410
#     4  11  23  44  68  99 140 183 234 289 348 415
#     4  12  26  47  73 109 141 188 237 300 356 437
#     4  11  24  44  67 100 134 184 232 283 343 418
#
# _framework density 23.206354000000001
#
# number of rings (size 3 to 8) (size 9 to 14) (size 15 to 20)
#    0.000    0.750    3.750    3.000    3.500    1.500 
#    2.250    0.000    0.000    0.000    0.000    0.000 
#    0.000    0.000    0.000    0.000    0.000    0.000 
#
# Total GULP energy -358407.392060 kJ/mol
# GULP energy per Si atom -5600.115501 kJ/mol
# Density = 2.315354 g / cm^3
# Si number density = 23.206354 Si / 1000 Ang^3
#
#
#
# Elastic Constant Matrix: (Units=GPa)
#
#
# Indices 1 2 3 4 5 6 
#
# 1 86.1943 0.0240 14.8865 0.0000 0.0000 0.0000
# 2 0.0240 93.2179 4.0395 0.0000 0.0000 0.0000
# 3 14.8865 4.0395 67.3292 0.0000 0.0000 0.0000
# 4 0.0000 0.0000 0.0000 34.2529 0.0000 0.0000
# 5 0.0000 0.0000 0.0000 0.0000 40.6286 0.0000
# 6 0.0000 0.0000 0.0000 0.0000 0.0000 20.0820
#
#
#
# Elastic Compliance Matrix: (Units=1/GPa)
#
#
# Indices 1 2 3 4 5 6 
#
# 1 0.012063 0.000113 -0.002674 0.000000 0.000000 0.000000
# 2 0.000113 0.010757 -0.000670 0.000000 0.000000 0.000000
# 3 -0.002674 -0.000670 0.015484 0.000000 0.000000 0.000000
# 4 0.000000 0.000000 0.000000 0.029195 0.000000 0.000000
# 5 0.000000 0.000000 0.000000 0.000000 0.024613 0.000000
# 6 0.000000 0.000000 0.000000 0.000000 0.000000 0.049796
#
#
# Mechanical properties :
#
#
# Convention : Reuss Voigt Hill
#
# Bulk Modulus (GPa) = 31.40619 31.62681 31.51650
# Shear Modulus (GPa) = 31.44968 34.17880 32.81424
#
# Velocity S-wave (km/s) = 3.68532 3.84190 3.76442
# Velocity P-wave (km/s) = 5.62776 5.77394 5.70131
#
# Compressibility (1/GPa) = 0.03184086
#
# Stress axis : x y z
#
# Youngs Moduli (GPa) = 82.89483 92.96639 64.58349
#
# Poissons Ratio (x) = -0.01048 0.17270
# Poissons Ratio (y) = -0.00935 0.04329
# Poissons Ratio (z) = 0.22166 0.06231
#
# Static dielectric constant tensor:
#      x y z
#    x 1.866170 0.000000 0.000000 
#    y 0.000000 1.875550 0.000000 
#    z 0.000000 0.000000 1.867660 
# 
# From -- ./inp_files/4626.got.cif
#   From: 2010.05.17/outbox.cif.g08.bks.cpg/sg61_3_cif.got.tgz:4626.got - 2010.06.03 15:17:17.
