data_PCOD9460767
_publ_section_title
;
Structure prediction by ZEFSAII (Michael W. Deem and Ramdas Pophale) SiO2 
 PCOD9460767
Probable space group: P B C A
;
_chemical_formula_sum "Si O2"
_cell_formula_units_Z 36
_cell_length_a 4.954969
_cell_length_b 13.864734
_cell_length_c 18.928015
_cell_angle_alpha 90.000000
_cell_angle_beta 90.000000
_cell_angle_gamma 90.000000
_cell_volume 1300.341895
_symmetry_space_group_name_H-M "P B C A"
_symmetry_group_IT_number 61
_symmetry_cell_setting 'orthorhombic'
loop_
_space_group_symop_operation_xyz
x,y,z
1/2-x,-y,1/2+z
1/2+x,1/2-y,-z
-x,1/2+y,1/2-z
-x,-y,-z
1/2+x,y,1/2-z
1/2-x,1/2+y,z
x,1/2-y,1/2+z
loop_
_atom_site_type_symbol
_atom_site_label
_atom_site_fract_x
_atom_site_fract_y
_atom_site_fract_z
Si Si1 0.150873 0.312187 0.706618
Si Si2 0.000000 0.000000 0.000000
Si Si3 0.475642 0.431882 0.592949
Si Si4 0.378311 0.917695 0.206388
Si Si5 0.654576 0.818040 0.498417
O O1 0.345951 0.339629 0.772860
O O2 0.314507 0.354628 0.640835
O O3 0.127192 0.197281 0.697413
O O4 0.053438 0.900460 0.053553
O O5 0.722477 0.950361 0.971685
O O6 0.497707 0.524775 0.641134
O O7 0.764261 0.396352 0.561130
O O8 0.576624 0.944409 0.271285
O O9 0.426400 0.740478 0.514865
#
# Coordination Sequence:
#
# PCOD9460767 Si02
#       5
#     8   4   8   8   8
#     4  10  24  46  72 110 149 197 260 327 400 469
#     4  12  30  52  74 122 152 222 268 326 402 478
#     4  12  27  46  81 108 159 210 263 326 395 475
#     4  10  24  45  75 112 147 194 257 325 394 468
#     4  12  29  53  76 110 157 205 269 328 391 477
#
# _framework density 27.685026000000001
#
# number of rings (size 3 to 8) (size 9 to 14) (size 15 to 20)
#    0.000    0.889    2.222    2.000    9.333    0.000 
#    8.000    0.000    0.000    0.000    0.000    0.000 
#    0.000    0.000    0.000    0.000    0.000    0.000 
#
# Total GULP energy -200953.445695 kJ/mol
# GULP energy per Si atom -5582.040158 kJ/mol
# Density = 2.762201 g / cm^3
# Si number density = 27.685026 Si / 1000 Ang^3
#
#
#
# Elastic Constant Matrix: (Units=GPa)
#
#
# Indices 1 2 3 4 5 6 
#
# 1 201.4715 51.3188 33.0094 0.0000 0.0000 0.0000
# 2 51.3188 148.5432 7.0624 0.0000 0.0000 0.0000
# 3 33.0094 7.0624 80.1864 0.0000 0.0000 0.0000
# 4 0.0000 0.0000 0.0000 43.1070 0.0000 0.0000
# 5 0.0000 0.0000 0.0000 0.0000 48.0270 0.0000
# 6 0.0000 0.0000 0.0000 0.0000 0.0000 34.2841
#
#
#
# Elastic Compliance Matrix: (Units=1/GPa)
#
#
# Indices 1 2 3 4 5 6 
#
# 1 0.005813 -0.001902 -0.002225 0.000000 0.000000 0.000000
# 2 -0.001902 0.007383 0.000133 0.000000 0.000000 0.000000
# 3 -0.002225 0.000133 0.013375 0.000000 0.000000 0.000000
# 4 0.000000 0.000000 0.000000 0.023198 0.000000 0.000000
# 5 0.000000 0.000000 0.000000 0.000000 0.020822 0.000000
# 6 0.000000 0.000000 0.000000 0.000000 0.000000 0.029168
#
#
# Mechanical properties :
#
#
# Convention : Reuss Voigt Hill
#
# Bulk Modulus (GPa) = 53.81734 68.10913 60.96324
# Shear Modulus (GPa) = 43.88199 47.67098 45.77648
#
# Velocity S-wave (km/s) = 3.98558 4.15409 4.07071
# Velocity P-wave (km/s) = 6.37661 6.90387 6.64547
#
# Compressibility (1/GPa) = 0.01858137
#
# Stress axis : x y z
#
# Youngs Moduli (GPa) = 172.03884 135.44712 74.76475
#
# Poissons Ratio (x) = 0.25767 0.16637
# Poissons Ratio (y) = 0.32728 -0.00993
# Poissons Ratio (z) = 0.38283 -0.01800
#
# Static dielectric constant tensor:
#      x y z
#    x 1.987580 0.000000 0.000000 
#    y 0.000000 1.885800 0.000000 
#    z 0.000000 0.000000 2.032280 
# 
# From -- ./inp_files/385.got.cif
#   From: 2010.05.17/outbox.cif.g08.bks.cpg/sg61_1_cif.got.tgz:385.got - 2010.06.03 15:17:17.
