data_PCOD9460252
_publ_section_title
;
Structure prediction by ZEFSAII (Michael W. Deem and Ramdas Pophale) SiO2 
 PCOD9460252
Probable space group: P B C A
;
_chemical_formula_sum "Si O2"
_cell_formula_units_Z 56
_cell_length_a 12.187488
_cell_length_b 13.814081
_cell_length_c 14.964894
_cell_angle_alpha 90.000000
_cell_angle_beta 90.000000
_cell_angle_gamma 90.000000
_cell_volume 2519.473787
_symmetry_space_group_name_H-M "P B C A"
_symmetry_group_IT_number 61
_symmetry_cell_setting 'orthorhombic'
loop_
_space_group_symop_operation_xyz
x,y,z
1/2-x,-y,1/2+z
1/2+x,1/2-y,-z
-x,1/2+y,1/2-z
-x,-y,-z
1/2+x,y,1/2-z
1/2-x,1/2+y,z
x,1/2-y,1/2+z
loop_
_atom_site_type_symbol
_atom_site_label
_atom_site_fract_x
_atom_site_fract_y
_atom_site_fract_z
Si Si1 0.227687 0.396392 0.293376
Si Si2 0.805631 0.584208 0.422350
Si Si3 0.730718 0.260396 0.061989
Si Si4 0.327107 0.059268 0.431935
Si Si5 0.516849 0.363050 0.800178
Si Si6 0.086992 0.989269 0.648716
Si Si7 0.059621 0.840300 0.353154
O O1 0.182384 0.299997 0.343822
O O2 0.227252 0.476349 0.371642
O O3 0.157613 0.441099 0.215282
O O4 0.355140 0.374225 0.275149
O O5 0.822019 0.681482 0.480708
O O6 0.856036 0.493634 0.475906
O O7 0.677619 0.561258 0.411610
O O8 0.863479 0.600000 0.327861
O O9 0.741853 0.146448 0.053334
O O10 0.857034 0.296650 0.073607
O O11 0.431274 0.096049 0.375330
O O12 0.475580 0.408909 0.707866
O O13 0.509130 0.247944 0.812876
O O14 0.003877 0.067660 0.609160
#
# Coordination Sequence:
#
# PCOD9460252 Si02
#       7
#     8   8   8   8   8   8   8
#     4   8  18  38  59  80 114 156 192 232 296 342
#     4  11  22  36  62  90 113 155 201 240 298 351
#     4   8  19  39  58  84 117 152 194 241 289 343
#     4   9  18  40  63  83 115 155 192 246 286 349
#     4  10  22  40  60  84 123 154 197 239 297 355
#     4  11  22  37  58  91 119 154 196 243 294 352
#     4   9  20  40  58  81 120 153 194 245 287 346
#
# _framework density 22.226863000000002
#
# number of rings (size 3 to 8) (size 9 to 14) (size 15 to 20)
#    0.857    1.714    0.000    1.286    2.000    1.714 
#    5.143    0.000    0.000    0.000    0.000    0.000 
#    0.000    0.000    0.000    0.000    0.000    0.000 
#
# Total GULP energy -312184.839253 kJ/mol
# GULP energy per Si atom -5574.729272 kJ/mol
# Density = 2.217627 g / cm^3
# Si number density = 22.226863 Si / 1000 Ang^3
#
#
#
# Elastic Constant Matrix: (Units=GPa)
#
#
# Indices 1 2 3 4 5 6 
#
# 1 34.6264 7.0073 0.1784 0.0000 0.0000 0.0000
# 2 7.0073 83.3111 -1.8186 0.0000 0.0000 0.0000
# 3 0.1784 -1.8186 22.7279 0.0000 0.0000 0.0000
# 4 0.0000 0.0000 0.0000 9.0300 0.0000 0.0000
# 5 0.0000 0.0000 0.0000 0.0000 19.5816 0.0000
# 6 0.0000 0.0000 0.0000 0.0000 0.0000 35.6484
#
#
#
# Elastic Compliance Matrix: (Units=1/GPa)
#
#
# Indices 1 2 3 4 5 6 
#
# 1 0.029384 -0.002481 -0.000429 0.000000 0.000000 0.000000
# 2 -0.002481 0.012234 0.000998 0.000000 0.000000 0.000000
# 3 -0.000429 0.000998 0.044082 0.000000 0.000000 0.000000
# 4 0.000000 0.000000 0.000000 0.110742 0.000000 0.000000
# 5 0.000000 0.000000 0.000000 0.000000 0.051068 0.000000
# 6 0.000000 0.000000 0.000000 0.000000 0.000000 0.028052
#
#
# Mechanical properties :
#
#
# Convention : Reuss Voigt Hill
#
# Bulk Modulus (GPa) = 12.21353 16.82217 14.51785
# Shear Modulus (GPa) = 16.30380 21.87188 19.08784
#
# Velocity S-wave (km/s) = 2.71129 3.14033 2.93366
# Velocity P-wave (km/s) = 3.91259 4.55343 4.24512
#
# Compressibility (1/GPa) = 0.08187641
#
# Stress axis : x y z
#
# Youngs Moduli (GPa) = 34.03214 81.74164 22.68499
#
# Poissons Ratio (x) = 0.20279 0.00973
# Poissons Ratio (y) = 0.08443 -0.02265
# Poissons Ratio (z) = 0.01460 -0.08161
#
# Static dielectric constant tensor:
#      x y z
#    x 1.857050 0.000000 0.000000 
#    y 0.000000 1.825240 0.000000 
#    z 0.000000 0.000000 1.831080 
# 
# From -- ./inp_files/9569.got.cif
#   From: 2010.05.17/outbox.cif.g08.bks.cpg/sg61_5_cif.got.tgz:9569.got - 2010.06.03 15:17:17.
