data_PCOD9460913
_publ_section_title
;
Structure prediction by ZEFSAII (Michael W. Deem and Ramdas Pophale) SiO2 
 PCOD9460913
Probable space group: P B C A
;
_chemical_formula_sum "Si O2"
_cell_formula_units_Z 48
_cell_length_a 9.118390
_cell_length_b 14.843308
_cell_length_c 15.418975
_cell_angle_alpha 90.000000
_cell_angle_beta 90.000000
_cell_angle_gamma 90.000000
_cell_volume 2086.913108
_symmetry_space_group_name_H-M "P B C A"
_symmetry_group_IT_number 61
_symmetry_cell_setting 'orthorhombic'
loop_
_space_group_symop_operation_xyz
x,y,z
1/2-x,-y,1/2+z
1/2+x,1/2-y,-z
-x,1/2+y,1/2-z
-x,-y,-z
1/2+x,y,1/2-z
1/2-x,1/2+y,z
x,1/2-y,1/2+z
loop_
_atom_site_type_symbol
_atom_site_label
_atom_site_fract_x
_atom_site_fract_y
_atom_site_fract_z
Si Si1 0.016893 0.916036 0.885997
Si Si2 0.737660 0.938214 0.127955
Si Si3 0.883275 0.757760 0.097563
Si Si4 0.456887 0.917548 0.805821
Si Si5 0.809963 0.320584 0.463202
Si Si6 0.299003 0.483196 0.563035
O O1 0.001915 0.883347 0.788088
O O2 0.859086 0.939550 0.922749
O O3 0.110760 0.007646 0.881353
O O4 0.100969 0.852536 0.951736
O O5 0.784694 0.835723 0.140723
O O6 0.643502 0.992398 0.198724
O O7 0.656115 0.955323 0.035269
O O8 0.872598 0.662149 0.145278
O O9 0.057283 0.781988 0.094833
O O10 0.814027 0.745523 0.001097
O O11 0.593250 0.944977 0.865187
O O12 0.727299 0.409561 0.429002
#
# Coordination Sequence:
#
# PCOD9460913 Si02
#       6
#     8   8   8   8   8   8
#     4  11  22  47  64  96 142 182 217 294 355 383
#     4  11  22  46  67  95 135 184 230 274 341 415
#     4  12  24  43  71 104 132 179 239 278 337 420
#     4  12  26  41  70 105 140 178 233 292 342 399
#     4  11  24  43  71  99 134 182 233 281 337 420
#     4  11  21  43  72  91 133 183 229 277 343 412
#
# _framework density 23.000478999999999
#
# number of rings (size 3 to 8) (size 9 to 14) (size 15 to 20)
#    0.000    0.667    6.667    3.500    2.333    0.000 
#    3.000    1.667    0.000    0.000    0.000    0.000 
#    0.000    0.000    0.000    0.000    0.000    0.000 
#
# Total GULP energy -268538.746344 kJ/mol
# GULP energy per Si atom -5594.557215 kJ/mol
# Density = 2.294813 g / cm^3
# Si number density = 23.000479 Si / 1000 Ang^3
#
#
#
# Elastic Constant Matrix: (Units=GPa)
#
#
# Indices 1 2 3 4 5 6 
#
# 1 45.5873 14.1277 -23.6278 0.0000 0.0000 0.0000
# 2 14.1277 83.2911 -22.5878 0.0000 0.0000 0.0000
# 3 -23.6278 -22.5878 23.1239 0.0000 0.0000 0.0000
# 4 0.0000 0.0000 0.0000 27.7316 0.0000 0.0000
# 5 0.0000 0.0000 0.0000 0.0000 36.8203 0.0000
# 6 0.0000 0.0000 0.0000 0.0000 0.0000 33.8731
#
#
#
# Elastic Compliance Matrix: (Units=1/GPa)
#
#
# Indices 1 2 3 4 5 6 
#
# 1 0.049663 0.007261 0.057838 0.000000 0.000000 0.000000
# 2 0.007261 0.017394 0.024411 0.000000 0.000000 0.000000
# 3 0.057838 0.024411 0.126188 0.000000 0.000000 0.000000
# 4 0.000000 0.000000 0.000000 0.036060 0.000000 0.000000
# 5 0.000000 0.000000 0.000000 0.000000 0.027159 0.000000
# 6 0.000000 0.000000 0.000000 0.000000 0.000000 0.029522
#
#
# Mechanical properties :
#
#
# Convention : Reuss Voigt Hill
#
# Bulk Modulus (GPa) = 2.68625 9.75851 6.22238
# Shear Modulus (GPa) = 21.63991 31.95768 26.79879
#
# Velocity S-wave (km/s) = 3.07065 3.73156 3.41712
# Velocity P-wave (km/s) = 3.70706 4.77682 4.27553
#
# Compressibility (1/GPa) = 0.37226557
#
# Stress axis : x y z
#
# Youngs Moduli (GPa) = 20.13581 57.48973 7.92467
#
# Poissons Ratio (x) = -0.41746 -0.45835
# Poissons Ratio (y) = -0.14621 -0.19345
# Poissons Ratio (z) = -1.16461 -1.40337
#
# Static dielectric constant tensor:
#      x y z
#    x 1.870780 0.000000 0.000000 
#    y 0.000000 1.886460 0.000000 
#    z 0.000000 0.000000 1.854170 
# 
# From -- ./inp_files/8910.got.cif
#   From: 2010.05.17/outbox.cif.g08.bks.cpg/sg61_5_cif.got.tgz:8910.got - 2010.06.03 15:17:17.
