data_PCOD9460976
_publ_section_title
;
Structure prediction by ZEFSAII (Michael W. Deem and Ramdas Pophale) SiO2 
 PCOD9460976
Probable space group: P B C A
;
_chemical_formula_sum "Si O2"
_cell_formula_units_Z 48
_cell_length_a 8.998079
_cell_length_b 29.141254
_cell_length_c 8.749464
_cell_angle_alpha 90.000000
_cell_angle_beta 90.000000
_cell_angle_gamma 90.000000
_cell_volume 2294.243377
_symmetry_space_group_name_H-M "P B C A"
_symmetry_group_IT_number 61
_symmetry_cell_setting 'orthorhombic'
loop_
_space_group_symop_operation_xyz
x,y,z
1/2-x,-y,1/2+z
1/2+x,1/2-y,-z
-x,1/2+y,1/2-z
-x,-y,-z
1/2+x,y,1/2-z
1/2-x,1/2+y,z
x,1/2-y,1/2+z
loop_
_atom_site_type_symbol
_atom_site_label
_atom_site_fract_x
_atom_site_fract_y
_atom_site_fract_z
Si Si1 0.194548 0.215342 0.614796
Si Si2 0.315045 0.611070 0.899371
Si Si3 0.609259 0.462875 0.572939
Si Si4 0.027938 0.125698 0.578194
Si Si5 0.952314 0.798193 0.055454
Si Si6 0.848833 0.515778 0.426775
O O1 0.108539 0.172950 0.534486
O O2 0.372076 0.211316 0.585552
O O3 0.121455 0.262696 0.560639
O O4 0.142888 0.209259 0.789562
O O5 0.391371 0.607452 0.732728
O O6 0.417662 0.648776 0.985643
O O7 0.146907 0.630294 0.887287
O O8 0.303942 0.562424 0.984792
O O9 0.500000 0.500000 0.500000
O O10 0.548539 0.412179 0.551750
O O11 0.749142 0.472000 0.466030
O O12 0.643490 0.474573 0.747497
O O13 0.000000 0.500000 0.500000
#
# Coordination Sequence:
#
# PCOD9460976 Si02
#       6
#     8   8   8   8   8   8
#     4  11  23  42  67  98 132 177 217 278 329 404
#     4  11  23  42  65  97 127 174 217 277 331 400
#     4  12  25  46  63  99 129 175 222 274 333 398
#     4  11  23  41  67  93 133 167 225 270 336 396
#     4  11  23  42  67  97 134 172 225 268 341 393
#     4  12  27  42  69  93 135 173 222 276 334 397
#
# _framework density 20.92193
#
# number of rings (size 3 to 8) (size 9 to 14) (size 15 to 20)
#    0.000    0.667    1.667    9.000    4.667    1.333 
#    0.000    3.333    0.000    0.000    0.000    0.000 
#    0.000    0.000    0.000    0.000    0.000    0.000 
#
# Total GULP energy -268101.479841 kJ/mol
# GULP energy per Si atom -5585.447497 kJ/mol
# Density = 2.087431 g / cm^3
# Si number density = 20.921930 Si / 1000 Ang^3
#
#
#
# Elastic Constant Matrix: (Units=GPa)
#
#
# Indices 1 2 3 4 5 6 
#
# 1 152.4366 9.4414 4.8206 0.0000 0.0000 0.0000
# 2 9.4414 80.7894 9.6072 0.0000 0.0000 0.0000
# 3 4.8206 9.6072 63.8648 0.0000 0.0000 0.0000
# 4 0.0000 0.0000 0.0000 42.6269 0.0000 0.0000
# 5 0.0000 0.0000 0.0000 0.0000 23.4286 0.0000
# 6 0.0000 0.0000 0.0000 0.0000 0.0000 40.9168
#
#
#
# Elastic Compliance Matrix: (Units=1/GPa)
#
#
# Indices 1 2 3 4 5 6 
#
# 1 0.006617 -0.000727 -0.000390 0.000000 0.000000 0.000000
# 2 -0.000727 0.012683 -0.001853 0.000000 0.000000 0.000000
# 3 -0.000390 -0.001853 0.015966 0.000000 0.000000 0.000000
# 4 0.000000 0.000000 0.000000 0.023459 0.000000 0.000000
# 5 0.000000 0.000000 0.000000 0.000000 0.042683 0.000000
# 6 0.000000 0.000000 0.000000 0.000000 0.000000 0.024440
#
#
# Mechanical properties :
#
#
# Convention : Reuss Voigt Hill
#
# Bulk Modulus (GPa) = 34.09873 38.31437 36.20655
# Shear Modulus (GPa) = 35.31951 39.60923 37.46437
#
# Velocity S-wave (km/s) = 4.11318 4.35580 4.23623
# Velocity P-wave (km/s) = 6.23627 6.60682 6.42422
#
# Compressibility (1/GPa) = 0.02932661
#
# Stress axis : x y z
#
# Youngs Moduli (GPa) = 151.11524 78.84454 62.63197
#
# Poissons Ratio (x) = 0.05732 0.02444
# Poissons Ratio (y) = 0.10985 0.11606
# Poissons Ratio (z) = 0.05896 0.14610
#
# Static dielectric constant tensor:
#      x y z
#    x 1.711810 0.000000 0.000000 
#    y 0.000000 1.772210 0.000000 
#    z 0.000000 0.000000 1.747290 
# 
# From -- ./inp_files/1893.got.cif
#   From: 2010.05.17/outbox.cif.g08.bks.cpg/sg61_1_cif.got.tgz:1893.got - 2010.06.03 15:17:17.
