data_PCOD9460588
_publ_section_title
;
Structure prediction by ZEFSAII (Michael W. Deem and Ramdas Pophale) SiO2 
 PCOD9460588
Probable space group: P B C A
;
_chemical_formula_sum "Si O2"
_cell_formula_units_Z 48
_cell_length_a 5.169789
_cell_length_b 14.555193
_cell_length_c 24.690653
_cell_angle_alpha 90.000000
_cell_angle_beta 90.000000
_cell_angle_gamma 90.000000
_cell_volume 1857.904397
_symmetry_space_group_name_H-M "P B C A"
_symmetry_group_IT_number 61
_symmetry_cell_setting 'orthorhombic'
loop_
_space_group_symop_operation_xyz
x,y,z
1/2-x,-y,1/2+z
1/2+x,1/2-y,-z
-x,1/2+y,1/2-z
-x,-y,-z
1/2+x,y,1/2-z
1/2-x,1/2+y,z
x,1/2-y,1/2+z
loop_
_atom_site_type_symbol
_atom_site_label
_atom_site_fract_x
_atom_site_fract_y
_atom_site_fract_z
Si Si1 0.277593 0.672376 0.579226
Si Si2 0.490554 0.669580 0.373036
Si Si3 0.332124 0.237890 0.283087
Si Si4 0.367962 0.517757 0.120139
Si Si5 0.261597 0.955534 0.285735
Si Si6 0.113608 0.840478 0.960048
O O1 0.134936 0.733502 0.624261
O O2 0.300574 0.571768 0.604287
O O3 0.113874 0.657443 0.524349
O O4 0.994641 0.241083 0.559867
O O5 0.240433 0.682663 0.336454
O O6 0.673660 0.589969 0.353051
O O7 0.398843 0.650800 0.434368
O O8 0.611115 0.215667 0.260534
O O9 0.286136 0.345926 0.292895
O O10 0.609517 0.488765 0.157782
O O11 0.463745 0.574865 0.067514
O O12 0.988500 0.980597 0.257601
#
# Coordination Sequence:
#
# PCOD9460588 Si02
#       6
#     8   8   8   8   8   8
#     4  11  23  47  68  97 143 180 231 295 353 428
#     4  11  25  43  68 103 135 185 234 288 360 424
#     4  10  23  43  72 101 139 191 240 292 359 433
#     4  11  26  42  70 104 137 180 239 295 358 432
#     4  10  23  43  69 102 141 187 235 293 365 427
#     4  11  25  44  70 101 135 187 235 289 364 428
#
# _framework density 25.835557000000001
#
# number of rings (size 3 to 8) (size 9 to 14) (size 15 to 20)
#    0.000    1.333    3.333    0.500    7.000    4.667 
#    0.000    0.000    0.000    0.000    0.000    0.000 
#    0.000    0.000    0.000    0.000    0.000    0.000 
#
# Total GULP energy -268774.296401 kJ/mol
# GULP energy per Si atom -5599.464508 kJ/mol
# Density = 2.577675 g / cm^3
# Si number density = 25.835557 Si / 1000 Ang^3
#
#
#
# Elastic Constant Matrix: (Units=GPa)
#
#
# Indices 1 2 3 4 5 6 
#
# 1 73.0416 32.8123 13.8572 0.0000 0.0000 0.0000
# 2 32.8123 169.0368 43.1968 0.0000 0.0000 0.0000
# 3 13.8572 43.1968 99.5752 0.0000 0.0000 0.0000
# 4 0.0000 0.0000 0.0000 36.5097 0.0000 0.0000
# 5 0.0000 0.0000 0.0000 0.0000 45.1279 0.0000
# 6 0.0000 0.0000 0.0000 0.0000 0.0000 32.7153
#
#
#
# Elastic Compliance Matrix: (Units=1/GPa)
#
#
# Indices 1 2 3 4 5 6 
#
# 1 0.015075 -0.002688 -0.000932 0.000000 0.000000 0.000000
# 2 -0.002688 0.007133 -0.002720 0.000000 0.000000 0.000000
# 3 -0.000932 -0.002720 0.011352 0.000000 0.000000 0.000000
# 4 0.000000 0.000000 0.000000 0.027390 0.000000 0.000000
# 5 0.000000 0.000000 0.000000 0.000000 0.022159 0.000000
# 6 0.000000 0.000000 0.000000 0.000000 0.000000 0.030567
#
#
# Mechanical properties :
#
#
# Convention : Reuss Voigt Hill
#
# Bulk Modulus (GPa) = 47.89241 57.93180 52.91210
# Shear Modulus (GPa) = 37.50468 39.65640 38.58054
#
# Velocity S-wave (km/s) = 3.81421 3.92210 3.86853
# Velocity P-wave (km/s) = 6.16241 6.55610 6.36230
#
# Compressibility (1/GPa) = 0.02088014
#
# Stress axis : x y z
#
# Youngs Moduli (GPa) = 66.33407 140.19688 88.08728
#
# Poissons Ratio (x) = 0.37688 0.08207
# Poissons Ratio (y) = 0.17832 0.23962
# Poissons Ratio (z) = 0.06181 0.38136
#
# Static dielectric constant tensor:
#      x y z
#    x 2.062730 0.000000 0.000000 
#    y 0.000000 2.003990 0.000000 
#    z 0.000000 0.000000 2.012390 
# 
# From -- ./inp_files/11245.got.cif
#   From: 2010.05.17/outbox.cif.g08.bks.cpg/sg61_6_cif.got.tgz:11245.got - 2010.06.03 15:17:17.
