data_PCOD9460915
_publ_section_title
;
Structure prediction by ZEFSAII (Michael W. Deem and Ramdas Pophale) SiO2 
 PCOD9460915
Probable space group: P B C A
;
_chemical_formula_sum "Si O2"
_cell_formula_units_Z 48
_cell_length_a 9.099950
_cell_length_b 17.254190
_cell_length_c 12.281839
_cell_angle_alpha 90.000000
_cell_angle_beta 90.000000
_cell_angle_gamma 90.000000
_cell_volume 1928.399376
_symmetry_space_group_name_H-M "P B C A"
_symmetry_group_IT_number 61
_symmetry_cell_setting 'orthorhombic'
loop_
_space_group_symop_operation_xyz
x,y,z
1/2-x,-y,1/2+z
1/2+x,1/2-y,-z
-x,1/2+y,1/2-z
-x,-y,-z
1/2+x,y,1/2-z
1/2-x,1/2+y,z
x,1/2-y,1/2+z
loop_
_atom_site_type_symbol
_atom_site_label
_atom_site_fract_x
_atom_site_fract_y
_atom_site_fract_z
Si Si1 0.319017 0.809695 0.237774
Si Si2 0.165228 0.895019 0.046119
Si Si3 0.941189 0.704814 0.416677
Si Si4 0.350189 0.989747 0.897228
Si Si5 0.349868 0.165298 0.959847
Si Si6 0.958215 0.527233 0.709554
O O1 0.215621 0.832526 0.135760
O O2 0.412547 0.734265 0.205934
O O3 0.223350 0.804843 0.346116
O O4 0.424249 0.884411 0.252275
O O5 0.075749 0.960745 0.112755
O O6 0.058597 0.858896 0.954623
O O7 0.308283 0.929728 0.989578
O O8 0.007584 0.781649 0.475946
O O9 0.782881 0.677522 0.457146
O O10 0.377021 0.074277 0.948660
O O11 0.475154 0.977796 0.807658
O O12 0.197245 0.997743 0.831159
#
# Coordination Sequence:
#
# PCOD9460915 Si02
#       6
#     8   8   8   8   8   8
#     4  11  22  43  70  92 128 178 219 261 333 403
#     4  12  23  42  68  97 131 169 223 273 322 388
#     4  12  23  41  68  99 128 171 226 275 325 395
#     4  11  24  42  70  95 130 179 219 264 329 398
#     4  11  24  42  68  96 133 178 217 267 344 394
#     4  11  21  44  68  92 130 176 211 260 338 391
#
# _framework density 24.891110000000001
#
# number of rings (size 3 to 8) (size 9 to 14) (size 15 to 20)
#    0.000    0.667   10.000    0.500    0.000    0.667 
#    3.000    1.667    0.000    0.000    0.000    0.000 
#    0.000    0.000    0.000    0.000    0.000    0.000 
#
# Total GULP energy -268701.206292 kJ/mol
# GULP energy per Si atom -5597.941798 kJ/mol
# Density = 2.483446 g / cm^3
# Si number density = 24.891110 Si / 1000 Ang^3
#
#
#
# Elastic Constant Matrix: (Units=GPa)
#
#
# Indices 1 2 3 4 5 6 
#
# 1 88.9732 -1.2586 8.8435 0.0000 0.0000 0.0000
# 2 -1.2586 32.1710 11.6524 0.0000 0.0000 0.0000
# 3 8.8435 11.6524 72.4055 0.0000 0.0000 0.0000
# 4 0.0000 0.0000 0.0000 32.5990 0.0000 0.0000
# 5 0.0000 0.0000 0.0000 0.0000 33.1310 0.0000
# 6 0.0000 0.0000 0.0000 0.0000 0.0000 23.9748
#
#
#
# Elastic Compliance Matrix: (Units=1/GPa)
#
#
# Indices 1 2 3 4 5 6 
#
# 1 0.011408 0.001010 -0.001556 0.000000 0.000000 0.000000
# 2 0.001010 0.033097 -0.005450 0.000000 0.000000 0.000000
# 3 -0.001556 -0.005450 0.014878 0.000000 0.000000 0.000000
# 4 0.000000 0.000000 0.000000 0.030676 0.000000 0.000000
# 5 0.000000 0.000000 0.000000 0.000000 0.030183 0.000000
# 6 0.000000 0.000000 0.000000 0.000000 0.000000 0.041710
#
#
# Mechanical properties :
#
#
# Convention : Reuss Voigt Hill
#
# Bulk Modulus (GPa) = 21.10055 25.78048 23.44052
# Shear Modulus (GPa) = 26.35155 29.56181 27.95668
#
# Velocity S-wave (km/s) = 3.25726 3.44996 3.35499
# Velocity P-wave (km/s) = 4.75834 5.12342 4.94425
#
# Compressibility (1/GPa) = 0.04739212
#
# Stress axis : x y z
#
# Youngs Moduli (GPa) = 87.65570 30.21395 67.21243
#
# Poissons Ratio (x) = -0.03051 0.10458
# Poissons Ratio (y) = -0.08852 0.36629
# Poissons Ratio (z) = 0.13638 0.16466
#
# Static dielectric constant tensor:
#      x y z
#    x 1.964970 0.000000 0.000000 
#    y 0.000000 1.992480 0.000000 
#    z 0.000000 0.000000 2.015070 
# 
# From -- ./inp_files/5264.got.cif
#   From: 2010.05.17/outbox.cif.g08.bks.cpg/sg61_3_cif.got.tgz:5264.got - 2010.06.03 15:17:17.
