data_PCOD9460237
_publ_section_title
;
Structure prediction by ZEFSAII (Michael W. Deem and Ramdas Pophale) SiO2 
 PCOD9460237
Probable space group: P B C A
;
_chemical_formula_sum "Si O2"
_cell_formula_units_Z 32
_cell_length_a 12.006458
_cell_length_b 13.889449
_cell_length_c 7.437297
_cell_angle_alpha 90.000000
_cell_angle_beta 90.000000
_cell_angle_gamma 90.000000
_cell_volume 1240.266600
_symmetry_space_group_name_H-M "P B C A"
_symmetry_group_IT_number 61
_symmetry_cell_setting 'orthorhombic'
loop_
_space_group_symop_operation_xyz
x,y,z
1/2-x,-y,1/2+z
1/2+x,1/2-y,-z
-x,1/2+y,1/2-z
-x,-y,-z
1/2+x,y,1/2-z
1/2-x,1/2+y,z
x,1/2-y,1/2+z
loop_
_atom_site_type_symbol
_atom_site_label
_atom_site_fract_x
_atom_site_fract_y
_atom_site_fract_z
Si Si1 0.261771 0.107721 0.462073
Si Si2 0.698563 0.183800 0.430329
Si Si3 0.883725 0.068444 0.551949
Si Si4 0.995138 0.426778 0.694478
O O1 0.229353 0.204909 0.563996
O O2 0.233618 0.137757 0.258543
O O3 0.384854 0.064314 0.427160
O O4 0.179007 0.025221 0.528095
O O5 0.779540 0.362135 0.080842
O O6 0.571661 0.146822 0.420988
O O7 0.959067 0.114353 0.393679
O O8 0.947964 0.025069 0.723977
#
# Coordination Sequence:
#
# PCOD9460237 Si02
#       4
#     8   8   8   8
#     4  10  22  39  63  97 134 178 234 288 348 424
#     4  10  22  39  63  97 134 178 234 288 348 424
#     4   9  20  41  62  94 138 183 238 281 346 436
#     4   9  20  39  64  91 132 181 222 287 354 402
#
# _framework density 25.800903999999999
#
# number of rings (size 3 to 8) (size 9 to 14) (size 15 to 20)
#    0.000    2.500    0.000    0.000    0.000   17.000 
#    0.000    5.000    0.000    0.000    0.000    0.000 
#    0.000    0.000    0.000    0.000    0.000    0.000 
#
# Total GULP energy -178178.542978 kJ/mol
# GULP energy per Si atom -5568.079468 kJ/mol
# Density = 2.574218 g / cm^3
# Si number density = 25.800904 Si / 1000 Ang^3
#
#
#
# Elastic Constant Matrix: (Units=GPa)
#
#
# Indices 1 2 3 4 5 6 
#
# 1 133.2032 30.2226 61.7438 0.0000 0.0000 0.0000
# 2 30.2226 119.1630 -3.3669 0.0000 0.0000 0.0000
# 3 61.7438 -3.3669 -10.8321 0.0000 0.0000 0.0000
# 4 0.0000 0.0000 0.0000 35.7103 0.0000 0.0000
# 5 0.0000 0.0000 0.0000 0.0000 20.2262 0.0000
# 6 0.0000 0.0000 0.0000 0.0000 0.0000 5.3249
#
#
#
# Elastic Compliance Matrix: (Units=1/GPa)
#
#
# Indices 1 2 3 4 5 6 
#
# 1 0.002066 -0.000190 0.011833 0.000000 0.000000 0.000000
# 2 -0.000190 0.008336 -0.003672 0.000000 0.000000 0.000000
# 3 0.011833 -0.003672 -0.023730 0.000000 0.000000 0.000000
# 4 0.000000 0.000000 0.000000 0.028003 0.000000 0.000000
# 5 0.000000 0.000000 0.000000 0.000000 0.049441 0.000000
# 6 0.000000 0.000000 0.000000 0.000000 0.000000 0.187796
#
#
# Mechanical properties :
#
#
# Convention : Reuss Voigt Hill
#
# Bulk Modulus (GPa) = 382.43142 46.52590 214.47866
# Shear Modulus (GPa) = 21.11126 22.44793 21.77959
#
# Velocity S-wave (km/s) = 2.86359 2.95285 2.90856
# Velocity P-wave (km/s) = 12.62851 5.44955 9.72566
#
# Compressibility (1/GPa) = 0.00261485
#
# Stress axis : x y z
#
# Youngs Moduli (GPa) = 484.13576 119.95868 -42.14069
#
# Poissons Ratio (x) = 0.02274 0.49864
# Poissons Ratio (y) = 0.09176 -0.15472
# Poissons Ratio (z) = -5.72860 0.44043
#
# Static dielectric constant tensor:
#      x y z
#    x 2.308450 0.000000 0.000000 
#    y 0.000000 2.117050 0.000000 
#    z 0.000000 0.000000 2.081690 
# 
# From -- ./inp_files/2045.got.cif
#   From: 2010.05.17/outbox.cif.g08.bks.cpg/sg61_2_cif.got.tgz:2045.got - 2010.06.03 15:17:17.
