data_PCOD9460753
_publ_section_title
;
Structure prediction by ZEFSAII (Michael W. Deem and Ramdas Pophale) SiO2 
 PCOD9460753
Probable space group: P B C A
;
_chemical_formula_sum "Si O2"
_cell_formula_units_Z 60
_cell_length_a 15.090542
_cell_length_b 17.320615
_cell_length_c 9.809282
_cell_angle_alpha 90.000000
_cell_angle_beta 90.000000
_cell_angle_gamma 90.000000
_cell_volume 2563.925293
_symmetry_space_group_name_H-M "P B C A"
_symmetry_group_IT_number 61
_symmetry_cell_setting 'orthorhombic'
loop_
_space_group_symop_operation_xyz
x,y,z
1/2-x,-y,1/2+z
1/2+x,1/2-y,-z
-x,1/2+y,1/2-z
-x,-y,-z
1/2+x,y,1/2-z
1/2-x,1/2+y,z
x,1/2-y,1/2+z
loop_
_atom_site_type_symbol
_atom_site_label
_atom_site_fract_x
_atom_site_fract_y
_atom_site_fract_z
Si Si1 0.405026 0.617086 0.864825
Si Si2 0.987150 0.184108 0.093604
Si Si3 0.500000 0.000000 0.000000
Si Si4 0.510546 0.325568 0.589138
Si Si5 0.221067 0.331108 0.938026
Si Si6 0.407203 0.075916 0.758129
Si Si7 0.149680 0.954118 0.964675
Si Si8 0.739306 0.703253 0.760732
O O1 0.497666 0.612781 0.784288
O O2 0.371247 0.529992 0.881080
O O3 0.332190 0.665701 0.786398
O O4 0.426045 0.651795 0.013777
O O5 0.998379 0.196815 0.253256
O O6 0.916283 0.115705 0.074344
O O7 0.966847 0.261609 0.009122
O O8 0.521230 0.911446 0.943247
O O9 0.430769 0.015882 0.874295
O O10 0.615851 0.325305 0.560459
O O11 0.253594 0.419259 0.942416
O O12 0.262589 0.285636 0.811136
O O13 0.258929 0.293514 0.076548
O O14 0.369605 0.032710 0.624064
O O15 0.337703 0.144441 0.784664
#
# Coordination Sequence:
#
# PCOD9460753 Si02
#       8
#     8   8   4   8   8   8   8   8
#     4  11  22  47  72 100 142 193 242 309 377 432
#     4  11  25  44  73 100 141 193 245 296 374 447
#     4  12  26  42  72 108 144 182 248 310 364 442
#     4  12  26  44  72 108 145 193 246 310 367 449
#     4  11  25  46  66 103 143 186 245 296 369 439
#     4  10  24  46  68 104 143 185 244 300 367 441
#     4  10  24  44  72 100 142 190 240 301 376 444
#     4  11  25  46  71 101 145 191 240 305 365 440
#
# _framework density 23.401620000000001
#
# number of rings (size 3 to 8) (size 9 to 14) (size 15 to 20)
#    0.000    1.067    1.333    4.800    7.467    1.067 
#    2.400    0.000    0.000    0.000    0.000    0.000 
#    0.000    0.000    0.000    0.000    0.000    0.000 
#
# Total GULP energy -335078.627081 kJ/mol
# GULP energy per Si atom -5584.643785 kJ/mol
# Density = 2.334836 g / cm^3
# Si number density = 23.401620 Si / 1000 Ang^3
#
#
#
# Elastic Constant Matrix: (Units=GPa)
#
#
# Indices 1 2 3 4 5 6 
#
# 1 52.5176 14.0682 12.8678 0.0000 0.0000 0.0000
# 2 14.0682 53.8431 57.9927 0.0000 0.0000 0.0000
# 3 12.8678 57.9927 95.7607 0.0000 0.0000 0.0000
# 4 0.0000 0.0000 0.0000 23.0420 0.0000 0.0000
# 5 0.0000 0.0000 0.0000 0.0000 -36.1435 0.0000
# 6 0.0000 0.0000 0.0000 0.0000 0.0000 25.3661
#
#
#
# Elastic Compliance Matrix: (Units=1/GPa)
#
#
# Indices 1 2 3 4 5 6 
#
# 1 0.020540 -0.006885 0.001409 0.000000 0.000000 0.000000
# 2 -0.006885 0.055719 -0.032818 0.000000 0.000000 0.000000
# 3 0.001409 -0.032818 0.030128 0.000000 0.000000 0.000000
# 4 0.000000 0.000000 0.000000 0.043399 0.000000 0.000000
# 5 0.000000 0.000000 0.000000 0.000000 -0.027667 0.000000
# 6 0.000000 0.000000 0.000000 0.000000 0.000000 0.039423
#
#
# Mechanical properties :
#
#
# Convention : Reuss Voigt Hill
#
# Bulk Modulus (GPa) = 33.55725 41.33098 37.44411
# Shear Modulus (GPa) = 20.15633 10.26576 15.21105
#
# Velocity S-wave (km/s) = 2.93801 2.09673 2.55228
# Velocity P-wave (km/s) = 5.08725 4.85404 4.97201
#
# Compressibility (1/GPa) = 0.02979982
#
# Stress axis : x y z
#
# Youngs Moduli (GPa) = 48.68503 17.94735 33.19178
#
# Poissons Ratio (x) = 0.12356 -0.04678
# Poissons Ratio (y) = 0.33518 1.08929
# Poissons Ratio (z) = -0.06861 0.58900
#
# Static dielectric constant tensor:
#      x y z
#    x 1.893610 0.000000 0.000000 
#    y 0.000000 1.863850 0.000000 
#    z 0.000000 0.000000 1.894510 
# 
# From -- ./inp_files/3602.got.cif
#   From: 2010.05.17/outbox.cif.g08.bks.cpg/sg61_2_cif.got.tgz:3602.got - 2010.06.03 15:17:17.
