data_PCOD9460038
_publ_section_title
;
Structure prediction by ZEFSAII (Michael W. Deem and Ramdas Pophale) SiO2 
 PCOD9460038
Probable space group: P B C A
;
_chemical_formula_sum "Si O2"
_cell_formula_units_Z 48
_cell_length_a 13.554015
_cell_length_b 17.346757
_cell_length_c 9.355565
_cell_angle_alpha 90.000000
_cell_angle_beta 90.000000
_cell_angle_gamma 90.000000
_cell_volume 2199.663646
_symmetry_space_group_name_H-M "P B C A"
_symmetry_group_IT_number 61
_symmetry_cell_setting 'orthorhombic'
loop_
_space_group_symop_operation_xyz
x,y,z
1/2-x,-y,1/2+z
1/2+x,1/2-y,-z
-x,1/2+y,1/2-z
-x,-y,-z
1/2+x,y,1/2-z
1/2-x,1/2+y,z
x,1/2-y,1/2+z
loop_
_atom_site_type_symbol
_atom_site_label
_atom_site_fract_x
_atom_site_fract_y
_atom_site_fract_z
Si Si1 0.996886 0.217722 0.163009
Si Si2 0.793371 0.412200 0.889299
Si Si3 0.324771 0.829237 0.104257
Si Si4 0.624440 0.097744 0.195627
Si Si5 0.871486 0.257186 0.917895
Si Si6 0.743209 0.037955 0.692971
O O1 0.087452 0.277268 0.166124
O O2 0.031389 0.137011 0.230763
O O3 0.904434 0.247812 0.254082
O O4 0.957163 0.214219 0.003538
O O5 0.715758 0.367569 0.788147
O O6 0.866968 0.348877 0.950651
O O7 0.828131 0.477720 0.777941
O O8 0.736417 0.450422 0.023248
O O9 0.233994 0.778213 0.048211
O O10 0.276370 0.883780 0.224105
O O11 0.365547 0.877485 0.968652
O O12 0.651004 0.006857 0.210339
#
# Coordination Sequence:
#
# PCOD9460038 Si02
#       6
#     8   8   8   8   8   8
#     4  12  26  41  68 101 134 174 228 277 338 400
#     4  10  21  41  69  97 135 175 229 272 346 402
#     4  12  23  46  71  92 140 177 225 282 346 401
#     4  10  21  44  63  97 132 175 221 279 334 400
#     4  12  26  42  69 104 130 181 228 280 332 412
#     4  10  21  40  73  96 126 194 213 278 359 395
#
# _framework density 21.821518999999999
#
# number of rings (size 3 to 8) (size 9 to 14) (size 15 to 20)
#    1.000    0.000    5.000    2.000    4.667    0.000 
#    0.000    5.833    0.000    0.000    0.000    0.000 
#    0.000    0.000    0.000    0.000    0.000    0.000 
#
# Total GULP energy -267281.476391 kJ/mol
# GULP energy per Si atom -5568.364091 kJ/mol
# Density = 2.177185 g / cm^3
# Si number density = 21.821519 Si / 1000 Ang^3
#
#
#
# Elastic Constant Matrix: (Units=GPa)
#
#
# Indices 1 2 3 4 5 6 
#
# 1 52.3692 21.5026 1.9095 0.0000 0.0000 0.0000
# 2 21.5026 54.1575 14.5177 0.0000 0.0000 0.0000
# 3 1.9095 14.5177 94.9069 0.0000 0.0000 0.0000
# 4 0.0000 0.0000 0.0000 13.9083 0.0000 0.0000
# 5 0.0000 0.0000 0.0000 0.0000 33.0919 0.0000
# 6 0.0000 0.0000 0.0000 0.0000 0.0000 21.6886
#
#
#
# Elastic Compliance Matrix: (Units=1/GPa)
#
#
# Indices 1 2 3 4 5 6 
#
# 1 0.022900 -0.009352 0.000970 0.000000 0.000000 0.000000
# 2 -0.009352 0.023073 -0.003341 0.000000 0.000000 0.000000
# 3 0.000970 -0.003341 0.011028 0.000000 0.000000 0.000000
# 4 0.000000 0.000000 0.000000 0.071900 0.000000 0.000000
# 5 0.000000 0.000000 0.000000 0.000000 0.030219 0.000000
# 6 0.000000 0.000000 0.000000 0.000000 0.000000 0.046107
#
#
# Mechanical properties :
#
#
# Convention : Reuss Voigt Hill
#
# Bulk Modulus (GPa) = 29.80240 30.81035 30.30637
# Shear Modulus (GPa) = 20.84559 24.63802 22.74180
#
# Velocity S-wave (km/s) = 3.09411 3.36381 3.23177
# Velocity P-wave (km/s) = 5.14312 5.40711 5.27677
#
# Compressibility (1/GPa) = 0.03355435
#
# Stress axis : x y z
#
# Youngs Moduli (GPa) = 43.66860 43.33979 90.67620
#
# Poissons Ratio (x) = 0.40532 -0.08794
# Poissons Ratio (y) = 0.40839 0.30298
# Poissons Ratio (z) = -0.04235 0.14481
#
# Static dielectric constant tensor:
#      x y z
#    x 1.818850 0.000000 0.000000 
#    y 0.000000 1.843090 0.000000 
#    z 0.000000 0.000000 1.755450 
# 
# From -- ./inp_files/2859.got.cif
#   From: 2010.05.17/outbox.cif.g08.bks.cpg/sg61_2_cif.got.tgz:2859.got - 2010.06.03 15:17:17.
