data_PCOD9460461
_publ_section_title
;
Structure prediction by ZEFSAII (Michael W. Deem and Ramdas Pophale) SiO2 
 PCOD9460461
Probable space group: P B C A
;
_chemical_formula_sum "Si O2"
_cell_formula_units_Z 60
_cell_length_a 9.274214
_cell_length_b 13.594957
_cell_length_c 16.741004
_cell_angle_alpha 90.000000
_cell_angle_beta 90.000000
_cell_angle_gamma 90.000000
_cell_volume 2110.748315
_symmetry_space_group_name_H-M "P B C A"
_symmetry_group_IT_number 61
_symmetry_cell_setting 'orthorhombic'
loop_
_space_group_symop_operation_xyz
x,y,z
1/2-x,-y,1/2+z
1/2+x,1/2-y,-z
-x,1/2+y,1/2-z
-x,-y,-z
1/2+x,y,1/2-z
1/2-x,1/2+y,z
x,1/2-y,1/2+z
loop_
_atom_site_type_symbol
_atom_site_label
_atom_site_fract_x
_atom_site_fract_y
_atom_site_fract_z
Si Si1 0.500000 0.500000 0.500000
Si Si2 0.258187 0.851192 0.444676
Si Si3 0.046839 0.084936 0.086362
Si Si4 0.129883 0.358532 0.747834
Si Si5 0.604634 0.735190 0.820272
Si Si6 0.663500 0.024496 0.881051
Si Si7 0.699005 0.648541 0.992751
Si Si8 0.252400 0.428724 0.279788
O O1 0.625490 0.575553 0.541441
O O2 0.454881 0.451056 0.589856
O O3 0.367556 0.852057 0.519810
O O4 0.210714 0.737699 0.445756
O O5 0.317861 0.891116 0.360861
O O6 0.899251 0.068668 0.038783
O O7 0.017468 0.127864 0.173653
O O8 0.170713 0.006911 0.110464
O O9 0.267449 0.311641 0.702265
O O10 0.182930 0.461868 0.783062
O O11 0.048342 0.285483 0.806272
O O12 0.636230 0.694282 0.909853
O O13 0.633841 0.649837 0.754788
O O14 0.653189 0.093586 0.962654
O O15 0.642647 0.066641 0.795282
#
# Coordination Sequence:
#
# PCOD9460461 Si02
#       8
#     4   8   8   8   8   8   8   8
#     4  10  24  44  74  94 140 184 250 292 364 448
#     4  11  24  42  67 105 136 189 240 299 373 436
#     4  10  22  45  67 101 142 186 241 296 371 451
#     4  11  25  49  73 105 153 197 250 312 384 448
#     4  11  26  47  75 110 147 203 254 312 386 457
#     4   9  22  46  69 104 142 191 243 308 373 440
#     4  11  23  41  74 102 148 185 246 307 367 455
#     4  10  25  45  72 107 150 193 249 319 374 455
#
# _framework density 28.425937000000001
#
# number of rings (size 3 to 8) (size 9 to 14) (size 15 to 20)
#    0.000    1.600    1.333    1.200    5.600    3.200 
#   16.800    0.000    0.000    0.000    0.000    0.000 
#    0.000    0.000    0.000    0.000    0.000    0.000 
#
# Total GULP energy -335166.285344 kJ/mol
# GULP energy per Si atom -5586.104756 kJ/mol
# Density = 2.836124 g / cm^3
# Si number density = 28.425937 Si / 1000 Ang^3
#
#
#
# Elastic Constant Matrix: (Units=GPa)
#
#
# Indices 1 2 3 4 5 6 
#
# 1 97.5258 14.7794 45.9552 0.0000 0.0000 0.0000
# 2 14.7794 129.8296 53.5260 0.0000 0.0000 0.0000
# 3 45.9552 53.5260 178.1877 0.0000 0.0000 0.0000
# 4 0.0000 0.0000 0.0000 52.3102 0.0000 0.0000
# 5 0.0000 0.0000 0.0000 0.0000 51.5513 0.0000
# 6 0.0000 0.0000 0.0000 0.0000 0.0000 33.4446
#
#
#
# Elastic Compliance Matrix: (Units=1/GPa)
#
#
# Indices 1 2 3 4 5 6 
#
# 1 0.011673 -0.000100 -0.002981 0.000000 0.000000 0.000000
# 2 -0.000100 0.008792 -0.002615 0.000000 0.000000 0.000000
# 3 -0.002981 -0.002615 0.007166 0.000000 0.000000 0.000000
# 4 0.000000 0.000000 0.000000 0.019117 0.000000 0.000000
# 5 0.000000 0.000000 0.000000 0.000000 0.019398 0.000000
# 6 0.000000 0.000000 0.000000 0.000000 0.000000 0.029900
#
#
# Mechanical properties :
#
#
# Convention : Reuss Voigt Hill
#
# Bulk Modulus (GPa) = 61.57626 70.45161 66.01394
# Shear Modulus (GPa) = 44.30591 46.88004 45.59298
#
# Velocity S-wave (km/s) = 3.95225 4.06544 4.00924
# Velocity P-wave (km/s) = 6.52197 6.84654 6.68622
#
# Compressibility (1/GPa) = 0.01624002
#
# Stress axis : x y z
#
# Youngs Moduli (GPa) = 85.66547 113.73974 139.54120
#
# Poissons Ratio (x) = 0.01138 0.41591
# Poissons Ratio (y) = 0.00857 0.36493
# Poissons Ratio (z) = 0.25533 0.29746
#
# Static dielectric constant tensor:
#      x y z
#    x 3.345580 0.000000 0.000000 
#    y 0.000000 2.568460 0.000000 
#    z 0.000000 0.000000 2.565570 
# 
# From -- ./inp_files/9259.got.cif
#   From: 2010.05.17/outbox.cif.g08.bks.cpg/sg61_5_cif.got.tgz:9259.got - 2010.06.03 15:17:17.
