data_PCOD9460201
_publ_section_title
;
Structure prediction by ZEFSAII (Michael W. Deem and Ramdas Pophale) SiO2 
 PCOD9460201
Probable space group: P B C A
;
_chemical_formula_sum "Si O2"
_cell_formula_units_Z 48
_cell_length_a 13.090531
_cell_length_b 10.696759
_cell_length_c 12.760090
_cell_angle_alpha 90.000000
_cell_angle_beta 90.000000
_cell_angle_gamma 90.000000
_cell_volume 1786.747620
_symmetry_space_group_name_H-M "P B C A"
_symmetry_group_IT_number 61
_symmetry_cell_setting 'orthorhombic'
loop_
_space_group_symop_operation_xyz
x,y,z
1/2-x,-y,1/2+z
1/2+x,1/2-y,-z
-x,1/2+y,1/2-z
-x,-y,-z
1/2+x,y,1/2-z
1/2-x,1/2+y,z
x,1/2-y,1/2+z
loop_
_atom_site_type_symbol
_atom_site_label
_atom_site_fract_x
_atom_site_fract_y
_atom_site_fract_z
Si Si1 0.557174 0.486903 0.693965
Si Si2 0.234422 0.777199 0.706798
Si Si3 0.181090 0.029218 0.493259
Si Si4 0.014216 0.705169 0.658087
Si Si5 0.209457 0.474531 0.241699
Si Si6 0.839086 0.683218 0.506863
O O1 0.584059 0.520451 0.573068
O O2 0.494742 0.591332 0.758781
O O3 0.521365 0.343615 0.694085
O O4 0.669004 0.498765 0.744431
O O5 0.291330 0.670598 0.772642
O O6 0.315425 0.813763 0.617217
O O7 0.136685 0.718341 0.645130
O O8 0.179620 0.885277 0.774853
O O9 0.173055 0.022581 0.619081
O O10 0.193310 0.174527 0.464655
O O11 0.274298 0.939380 0.461285
O O12 0.953163 0.672052 0.552120
#
# Coordination Sequence:
#
# PCOD9460201 Si02
#       6
#     8   8   8   8   8   8
#     4  10  22  38  60  92 124 162 208 254 306 366
#     4   9  19  38  59  85 122 161 204 252 302 365
#     4   9  19  37  58  84 120 161 204 248 303 364
#     4  10  22  38  60  92 124 160 208 254 308 368
#     4   9  19  37  58  84 120 161 204 248 303 364
#     4   9  19  38  59  85 122 161 204 252 302 365
#
# _framework density 26.864455
#
# number of rings (size 3 to 8) (size 9 to 14) (size 15 to 20)
#    0.000    2.667    0.000    0.000    0.000    9.333 
#    0.000   48.333    0.000    0.000    0.000    0.000 
#    0.000    0.000    0.000    0.000    0.000    0.000 
#
# Total GULP energy -267434.859388 kJ/mol
# GULP energy per Si atom -5571.559571 kJ/mol
# Density = 2.680331 g / cm^3
# Si number density = 26.864455 Si / 1000 Ang^3
#
#
#
# Elastic Constant Matrix: (Units=GPa)
#
#
# Indices 1 2 3 4 5 6 
#
# 1 47.9928 -31.7094 15.9243 0.0000 0.0000 0.0000
# 2 -31.7094 64.6395 -22.5141 0.0000 0.0000 0.0000
# 3 15.9243 -22.5141 87.6661 0.0000 0.0000 0.0000
# 4 0.0000 0.0000 0.0000 45.3443 0.0000 0.0000
# 5 0.0000 0.0000 0.0000 0.0000 53.4484 0.0000
# 6 0.0000 0.0000 0.0000 0.0000 0.0000 30.4359
#
#
#
# Elastic Compliance Matrix: (Units=1/GPa)
#
#
# Indices 1 2 3 4 5 6 
#
# 1 0.031115 0.014601 -0.001902 0.000000 0.000000 0.000000
# 2 0.014601 0.023842 0.003471 0.000000 0.000000 0.000000
# 3 -0.001902 0.003471 0.012644 0.000000 0.000000 0.000000
# 4 0.000000 0.000000 0.000000 0.022054 0.000000 0.000000
# 5 0.000000 0.000000 0.000000 0.000000 0.018710 0.000000
# 6 0.000000 0.000000 0.000000 0.000000 0.000000 0.032856
#
#
# Mechanical properties :
#
#
# Convention : Reuss Voigt Hill
#
# Bulk Modulus (GPa) = 10.00601 13.74443 11.87522
# Shear Modulus (GPa) = 35.16341 41.75224 38.45782
#
# Velocity S-wave (km/s) = 3.62182 3.94659 3.78769
# Velocity P-wave (km/s) = 4.60683 5.08869 4.85374
#
# Compressibility (1/GPa) = 0.09993990
#
# Stress axis : x y z
#
# Youngs Moduli (GPa) = 32.13917 41.94286 79.09030
#
# Poissons Ratio (x) = -0.61241 0.15044
# Poissons Ratio (y) = -0.46927 -0.27451
# Poissons Ratio (z) = 0.06113 -0.14557
#
# Static dielectric constant tensor:
#      x y z
#    x 2.167640 0.000000 0.000000 
#    y 0.000000 2.269360 0.000000 
#    z 0.000000 0.000000 2.186480 
# 
# From -- ./inp_files/9167.got.cif
#   From: 2010.05.17/outbox.cif.g08.bks.cpg/sg61_5_cif.got.tgz:9167.got - 2010.06.03 15:17:17.
