data_PCOD9460055
_publ_section_title
;
Structure prediction by ZEFSAII (Michael W. Deem and Ramdas Pophale) SiO2 
 PCOD9460055
Probable space group: P B C A
;
_chemical_formula_sum "Si O2"
_cell_formula_units_Z 64
_cell_length_a 14.255597
_cell_length_b 19.347580
_cell_length_c 8.961137
_cell_angle_alpha 90.000000
_cell_angle_beta 90.000000
_cell_angle_gamma 90.000000
_cell_volume 2471.582876
_symmetry_space_group_name_H-M "P B C A"
_symmetry_group_IT_number 61
_symmetry_cell_setting 'orthorhombic'
loop_
_space_group_symop_operation_xyz
x,y,z
1/2-x,-y,1/2+z
1/2+x,1/2-y,-z
-x,1/2+y,1/2-z
-x,-y,-z
1/2+x,y,1/2-z
1/2-x,1/2+y,z
x,1/2-y,1/2+z
loop_
_atom_site_type_symbol
_atom_site_label
_atom_site_fract_x
_atom_site_fract_y
_atom_site_fract_z
Si Si1 0.370344 0.128441 0.162969
Si Si2 0.285072 0.077214 0.446864
Si Si3 0.820914 0.676714 0.854946
Si Si4 0.980280 0.393505 0.114810
Si Si5 0.062604 0.761430 0.206461
Si Si6 0.670239 0.991277 0.250370
Si Si7 0.060944 0.308593 0.568442
Si Si8 0.706152 0.390480 0.066874
O O1 0.363072 0.093688 0.323763
O O2 0.352712 0.211218 0.172836
O O3 0.456519 0.105094 0.059304
O O4 0.284209 0.105320 0.059190
O O5 0.259947 0.145146 0.542706
O O6 0.317884 0.022032 0.572675
O O7 0.192514 0.059299 0.346996
O O8 0.793696 0.675265 0.680850
O O9 0.910999 0.623224 0.858479
O O10 0.861460 0.748406 0.913857
O O11 0.929293 0.324409 0.180616
O O12 0.926830 0.455967 0.196919
O O13 0.012111 0.789724 0.061128
O O14 0.995319 0.702521 0.279650
O O15 0.760717 0.948639 0.183609
O O16 0.108835 0.379845 0.521038
#
# Coordination Sequence:
#
# PCOD9460055 Si02
#       8
#     8   8   8   8   8   8   8   8
#     4  11  24  38  62  93 126 169 207 256 312 375
#     4  11  25  43  65  90 125 163 216 265 314 373
#     4  10  22  41  64  94 127 171 204 257 319 371
#     4  10  21  41  65  91 131 166 208 257 316 369
#     4  11  22  39  62  92 135 164 201 254 311 374
#     4  10  23  43  63  90 123 165 212 267 312 369
#     4  11  21  40  62  94 131 163 202 255 310 376
#     4  10  22  39  63  89 128 162 209 253 313 371
#
# _framework density 25.894337
#
# number of rings (size 3 to 8) (size 9 to 14) (size 15 to 20)
#    0.000    1.500    5.000    1.500    3.500    5.500 
#    0.000    0.000    0.000    5.250    0.000    0.000 
#    0.000    0.000    0.000    0.000    0.000    0.000 
#
# Total GULP energy -357474.994257 kJ/mol
# GULP energy per Si atom -5585.546785 kJ/mol
# Density = 2.583540 g / cm^3
# Si number density = 25.894337 Si / 1000 Ang^3
#
#
#
# Elastic Constant Matrix: (Units=GPa)
#
#
# Indices 1 2 3 4 5 6 
#
# 1 53.0118 -5.0168 4.0745 0.0000 0.0000 0.0000
# 2 -5.0168 39.6300 -6.0414 0.0000 0.0000 0.0000
# 3 4.0745 -6.0414 144.4750 0.0000 0.0000 0.0000
# 4 0.0000 0.0000 0.0000 25.7093 0.0000 0.0000
# 5 0.0000 0.0000 0.0000 0.0000 31.1336 0.0000
# 6 0.0000 0.0000 0.0000 0.0000 0.0000 45.2905
#
#
#
# Elastic Compliance Matrix: (Units=1/GPa)
#
#
# Indices 1 2 3 4 5 6 
#
# 1 0.019120 0.002353 -0.000441 0.000000 0.000000 0.000000
# 2 0.002353 0.025685 0.001008 0.000000 0.000000 0.000000
# 3 -0.000441 0.001008 0.006976 0.000000 0.000000 0.000000
# 4 0.000000 0.000000 0.000000 0.038896 0.000000 0.000000
# 5 0.000000 0.000000 0.000000 0.000000 0.032120 0.000000
# 6 0.000000 0.000000 0.000000 0.000000 0.000000 0.022080
#
#
# Mechanical properties :
#
#
# Convention : Reuss Voigt Hill
#
# Bulk Modulus (GPa) = 17.35459 24.79437 21.07448
# Shear Modulus (GPa) = 31.59676 36.70006 34.14841
#
# Velocity S-wave (km/s) = 3.49695 3.76879 3.63541
# Velocity P-wave (km/s) = 4.79808 5.34176 5.07720
#
# Compressibility (1/GPa) = 0.05762164
#
# Stress axis : x y z
#
# Youngs Moduli (GPa) = 52.30039 38.93335 143.34487
#
# Poissons Ratio (x) = -0.09162 0.06319
# Poissons Ratio (y) = -0.12308 -0.14445
# Poissons Ratio (z) = 0.02306 -0.03923
#
# Static dielectric constant tensor:
#      x y z
#    x 2.206760 0.000000 0.000000 
#    y 0.000000 2.228430 0.000000 
#    z 0.000000 0.000000 2.062930 
# 
# From -- ./inp_files/3732.got.cif
#   From: 2010.05.17/outbox.cif.g08.bks.cpg/sg61_2_cif.got.tgz:3732.got - 2010.06.03 15:17:17.
