data_PCOD9460770
_publ_section_title
;
Structure prediction by ZEFSAII (Michael W. Deem and Ramdas Pophale) SiO2 
 PCOD9460770
Probable space group: P B C A
;
_chemical_formula_sum "Si O2"
_cell_formula_units_Z 64
_cell_length_a 11.801420
_cell_length_b 13.866882
_cell_length_c 16.301137
_cell_angle_alpha 90.000000
_cell_angle_beta 90.000000
_cell_angle_gamma 90.000000
_cell_volume 2667.663116
_symmetry_space_group_name_H-M "P B C A"
_symmetry_group_IT_number 61
_symmetry_cell_setting 'orthorhombic'
loop_
_space_group_symop_operation_xyz
x,y,z
1/2-x,-y,1/2+z
1/2+x,1/2-y,-z
-x,1/2+y,1/2-z
-x,-y,-z
1/2+x,y,1/2-z
1/2-x,1/2+y,z
x,1/2-y,1/2+z
loop_
_atom_site_type_symbol
_atom_site_label
_atom_site_fract_x
_atom_site_fract_y
_atom_site_fract_z
Si Si1 0.829180 0.759808 0.289627
Si Si2 0.580224 0.428196 0.854248
Si Si3 0.038925 0.725267 0.457502
Si Si4 0.391308 0.863795 0.948702
Si Si5 0.711524 0.513048 0.427807
Si Si6 0.912573 0.183818 0.711308
Si Si7 0.753732 0.260680 0.964102
Si Si8 0.500791 0.521165 0.308502
O O1 0.843104 0.644135 0.298081
O O2 0.706466 0.790619 0.255332
O O3 0.815429 0.782098 0.387243
O O4 0.954072 0.795828 0.257995
O O5 0.534696 0.367230 0.931984
O O6 0.665684 0.507581 0.888119
O O7 0.485397 0.457228 0.788326
O O8 0.090569 0.753112 0.370458
O O9 0.130338 0.703364 0.526126
O O10 0.990030 0.825901 0.492175
O O11 0.441565 0.896052 0.863014
O O12 0.314394 0.767851 0.953658
O O13 0.326099 0.950541 0.994066
O O14 0.722204 0.626603 0.452513
O O15 0.616750 0.502094 0.357204
O O16 0.919265 0.071327 0.690761
#
# Coordination Sequence:
#
# PCOD9460770 Si02
#       8
#     8   8   8   8   8   8   8   8
#     4  10  24  46  67 100 139 189 225 292 358 416
#     4  10  26  41  65 100 140 179 229 299 353 415
#     4  11  22  44  66  95 134 179 236 286 352 417
#     4  12  23  44  67 100 128 187 234 282 356 426
#     4  11  22  43  69  93 137 180 232 285 353 413
#     4  11  24  45  70 100 142 182 239 293 348 425
#     4  11  23  42  71  94 136 181 226 295 345 418
#     4  12  25  38  70  99 130 182 239 286 345 428
#
# _framework density 23.991035
#
# number of rings (size 3 to 8) (size 9 to 14) (size 15 to 20)
#    0.000    1.000    6.250    1.125   12.250    0.000 
#    0.000    0.625    0.000    0.000    0.000    0.000 
#    0.000    0.000    0.000    0.000    0.000    0.000 
#
# Total GULP energy -356345.381367 kJ/mol
# GULP energy per Si atom -5567.896584 kJ/mol
# Density = 2.393643 g / cm^3
# Si number density = 23.991035 Si / 1000 Ang^3
#
#
#
# Elastic Constant Matrix: (Units=GPa)
#
#
# Indices 1 2 3 4 5 6 
#
# 1 74.5700 5.8364 23.6616 0.0000 0.0000 0.0000
# 2 5.8364 61.4356 12.1667 0.0000 0.0000 0.0000
# 3 23.6616 12.1667 44.6715 0.0000 0.0000 0.0000
# 4 0.0000 0.0000 0.0000 24.8783 0.0000 0.0000
# 5 0.0000 0.0000 0.0000 0.0000 52.3580 0.0000
# 6 0.0000 0.0000 0.0000 0.0000 0.0000 30.1076
#
#
#
# Elastic Compliance Matrix: (Units=1/GPa)
#
#
# Indices 1 2 3 4 5 6 
#
# 1 0.016121 0.000169 -0.008585 0.000000 0.000000 0.000000
# 2 0.000169 0.017207 -0.004776 0.000000 0.000000 0.000000
# 3 -0.008585 -0.004776 0.028234 0.000000 0.000000 0.000000
# 4 0.000000 0.000000 0.000000 0.040196 0.000000 0.000000
# 5 0.000000 0.000000 0.000000 0.000000 0.019099 0.000000
# 6 0.000000 0.000000 0.000000 0.000000 0.000000 0.033214
#
#
# Mechanical properties :
#
#
# Convention : Reuss Voigt Hill
#
# Bulk Modulus (GPa) = 28.42725 29.33405 28.88065
# Shear Modulus (GPa) = 26.01715 30.73627 28.37671
#
# Velocity S-wave (km/s) = 3.29668 3.58321 3.44292
# Velocity P-wave (km/s) = 5.13474 5.41967 5.27913
#
# Compressibility (1/GPa) = 0.03517751
#
# Stress axis : x y z
#
# Youngs Moduli (GPa) = 62.03061 58.11593 35.41873
#
# Poissons Ratio (x) = -0.00980 0.30407
# Poissons Ratio (y) = -0.01046 0.16915
# Poissons Ratio (z) = 0.53253 0.27755
#
# Static dielectric constant tensor:
#      x y z
#    x 2.139450 0.000000 0.000000 
#    y 0.000000 1.998240 0.000000 
#    z 0.000000 0.000000 1.955560 
# 
# From -- ./inp_files/9301.got.cif
#   From: 2010.05.17/outbox.cif.g08.bks.cpg/sg61_5_cif.got.tgz:9301.got - 2010.06.03 15:17:17.
