data_PCOD9460712
_publ_section_title
;
Structure prediction by ZEFSAII (Michael W. Deem and Ramdas Pophale) SiO2 
 PCOD9460712
Probable space group: P B C A
;
_chemical_formula_sum "Si O2"
_cell_formula_units_Z 64
_cell_length_a 15.722021
_cell_length_b 17.354400
_cell_length_c 12.101366
_cell_angle_alpha 90.000000
_cell_angle_beta 90.000000
_cell_angle_gamma 90.000000
_cell_volume 3301.812227
_symmetry_space_group_name_H-M "P B C A"
_symmetry_group_IT_number 61
_symmetry_cell_setting 'orthorhombic'
loop_
_space_group_symop_operation_xyz
x,y,z
1/2-x,-y,1/2+z
1/2+x,1/2-y,-z
-x,1/2+y,1/2-z
-x,-y,-z
1/2+x,y,1/2-z
1/2-x,1/2+y,z
x,1/2-y,1/2+z
loop_
_atom_site_type_symbol
_atom_site_label
_atom_site_fract_x
_atom_site_fract_y
_atom_site_fract_z
Si Si1 0.598983 0.521623 0.504801
Si Si2 0.369155 0.986221 0.245317
Si Si3 0.025592 0.927823 0.926476
Si Si4 0.645819 0.158963 0.378687
Si Si5 0.793413 0.332485 0.057139
Si Si6 0.211150 0.072609 0.332709
Si Si7 0.303006 0.673915 0.712279
Si Si8 0.813502 0.336082 0.496316
O O1 0.500000 0.500000 0.500000
O O2 0.632767 0.515767 0.379815
O O3 0.633646 0.602827 0.551478
O O4 0.641611 0.459778 0.584950
O O5 0.371419 0.893406 0.238602
O O6 0.440381 0.033636 0.312437
O O7 0.281499 0.007784 0.307093
O O8 0.948497 0.868159 0.910653
O O9 0.102000 0.885125 0.989289
O O10 0.000000 0.000000 0.000000
O O11 0.711857 0.147899 0.479693
O O12 0.674114 0.102763 0.280686
O O13 0.655698 0.246283 0.331581
O O14 0.755532 0.317599 0.179016
O O15 0.830485 0.254330 0.004883
O O16 0.257351 0.141140 0.397549
O O17 0.241028 0.646471 0.612877
#
# Coordination Sequence:
#
# PCOD9460712 Si02
#       8
#     8   8   8   8   8   8   8   8
#     4  12  25  39  64 103 135 170 225 288 339 402
#     4  11  23  41  67  97 130 178 223 277 338 410
#     4  11  26  43  67 101 135 175 229 283 343 404
#     4  11  24  43  68  98 135 179 224 282 343 412
#     4  11  23  44  68  94 132 184 219 268 354 409
#     4  11  21  41  68  92 137 173 224 274 340 410
#     4  11  22  41  73  94 129 182 228 269 338 420
#     4  10  24  42  64  95 131 175 219 277 334 403
#
# _framework density 19.383295
#
# number of rings (size 3 to 8) (size 9 to 14) (size 15 to 20)
#    0.000    1.000    5.000    1.500    3.500    2.000 
#    0.000    2.500    0.000    0.000    0.000    0.000 
#    0.000    0.000    0.000    0.000    0.000    0.000 
#
# Total GULP energy -357351.292858 kJ/mol
# GULP energy per Si atom -5583.613951 kJ/mol
# Density = 1.933918 g / cm^3
# Si number density = 19.383295 Si / 1000 Ang^3
#
#
#
# Elastic Constant Matrix: (Units=GPa)
#
#
# Indices 1 2 3 4 5 6 
#
# 1 114.7976 56.5143 31.4539 0.0000 0.0000 0.0000
# 2 56.5143 106.7223 12.6945 0.0000 0.0000 0.0000
# 3 31.4539 12.6945 104.1179 0.0000 0.0000 0.0000
# 4 0.0000 0.0000 0.0000 34.0741 0.0000 0.0000
# 5 0.0000 0.0000 0.0000 0.0000 20.8497 0.0000
# 6 0.0000 0.0000 0.0000 0.0000 0.0000 25.3761
#
#
#
# Elastic Compliance Matrix: (Units=1/GPa)
#
#
# Indices 1 2 3 4 5 6 
#
# 1 0.012673 -0.006347 -0.003055 0.000000 0.000000 0.000000
# 2 -0.006347 0.012687 0.000371 0.000000 0.000000 0.000000
# 3 -0.003055 0.000371 0.010482 0.000000 0.000000 0.000000
# 4 0.000000 0.000000 0.000000 0.029348 0.000000 0.000000
# 5 0.000000 0.000000 0.000000 0.000000 0.047962 0.000000
# 6 0.000000 0.000000 0.000000 0.000000 0.000000 0.039407
#
#
# Mechanical properties :
#
#
# Convention : Reuss Voigt Hill
#
# Bulk Modulus (GPa) = 56.24458 58.55148 57.39803
# Shear Modulus (GPa) = 28.32086 31.05834 29.68960
#
# Velocity S-wave (km/s) = 3.82658 4.00725 3.91795
# Velocity P-wave (km/s) = 6.97163 7.18912 7.08121
#
# Compressibility (1/GPa) = 0.01777949
#
# Stress axis : x y z
#
# Youngs Moduli (GPa) = 78.90969 78.81909 95.40103
#
# Poissons Ratio (x) = 0.50030 0.29140
# Poissons Ratio (y) = 0.50088 -0.03536
# Poissons Ratio (z) = 0.24103 -0.02922
#
# Static dielectric constant tensor:
#      x y z
#    x 1.671530 0.000000 0.000000 
#    y 0.000000 1.716900 0.000000 
#    z 0.000000 0.000000 1.660400 
# 
# From -- ./inp_files/5979.got.cif
#   From: 2010.05.17/outbox.cif.g08.bks.cpg/sg61_3_cif.got.tgz:5979.got - 2010.06.03 15:17:17.
