data_PCOD9460630
_publ_section_title
;
Structure prediction by ZEFSAII (Michael W. Deem and Ramdas Pophale) SiO2 
 PCOD9460630
Probable space group: P B C A
;
_chemical_formula_sum "Si O2"
_cell_formula_units_Z 40
_cell_length_a 13.414600
_cell_length_b 15.203847
_cell_length_c 8.382894
_cell_angle_alpha 90.000000
_cell_angle_beta 90.000000
_cell_angle_gamma 90.000000
_cell_volume 1709.720789
_symmetry_space_group_name_H-M "P B C A"
_symmetry_group_IT_number 61
_symmetry_cell_setting 'orthorhombic'
loop_
_space_group_symop_operation_xyz
x,y,z
1/2-x,-y,1/2+z
1/2+x,1/2-y,-z
-x,1/2+y,1/2-z
-x,-y,-z
1/2+x,y,1/2-z
1/2-x,1/2+y,z
x,1/2-y,1/2+z
loop_
_atom_site_type_symbol
_atom_site_label
_atom_site_fract_x
_atom_site_fract_y
_atom_site_fract_z
Si Si1 0.269143 0.724380 0.245768
Si Si2 0.986778 0.822789 0.648947
Si Si3 0.651786 0.566047 0.231895
Si Si4 0.408256 0.169968 0.822941
Si Si5 0.757028 0.410222 0.382536
O O1 0.371391 0.689256 0.316320
O O2 0.215785 0.639533 0.171400
O O3 0.183192 0.762914 0.363681
O O4 0.283598 0.810624 0.138067
O O5 0.040269 0.895723 0.760804
O O6 0.021031 0.846745 0.471134
O O7 0.033031 0.727097 0.691227
O O8 0.672678 0.475472 0.319751
O O9 0.699684 0.566697 0.055621
O O10 0.351443 0.089225 0.740399
#
# Coordination Sequence:
#
# PCOD9460630 Si02
#       5
#     8   8   8   8   8
#     4   9  24  41  69  97 133 175 225 276 343 397
#     4  11  21  39  68  96 128 175 224 268 336 400
#     4  11  23  43  69  96 139 179 225 277 337 404
#     4   9  21  38  62  94 134 168 215 277 325 394
#     4  10  23  45  66 100 142 176 220 287 338 393
#
# _framework density 23.395631999999999
#
# number of rings (size 3 to 8) (size 9 to 14) (size 15 to 20)
#    1.200    0.800    0.000    3.600    2.800    0.000 
#    3.600    3.000    0.000    0.000    0.000    0.000 
#    0.000    0.000    0.000    0.000    0.000    0.000 
#
# Total GULP energy -223104.776341 kJ/mol
# GULP energy per Si atom -5577.619409 kJ/mol
# Density = 2.334238 g / cm^3
# Si number density = 23.395632 Si / 1000 Ang^3
#
#
#
# Elastic Constant Matrix: (Units=GPa)
#
#
# Indices 1 2 3 4 5 6 
#
# 1 121.0283 13.1804 12.3564 0.0000 0.0000 0.0000
# 2 13.1804 85.0701 14.6327 0.0000 0.0000 0.0000
# 3 12.3564 14.6327 80.4344 0.0000 0.0000 0.0000
# 4 0.0000 0.0000 0.0000 27.1643 0.0000 0.0000
# 5 0.0000 0.0000 0.0000 0.0000 26.5652 0.0000
# 6 0.0000 0.0000 0.0000 0.0000 0.0000 17.3284
#
#
#
# Elastic Compliance Matrix: (Units=1/GPa)
#
#
# Indices 1 2 3 4 5 6 
#
# 1 0.008498 -0.001127 -0.001100 0.000000 0.000000 0.000000
# 2 -0.001127 0.012284 -0.002062 0.000000 0.000000 0.000000
# 3 -0.001100 -0.002062 0.012977 0.000000 0.000000 0.000000
# 4 0.000000 0.000000 0.000000 0.036813 0.000000 0.000000
# 5 0.000000 0.000000 0.000000 0.000000 0.037643 0.000000
# 6 0.000000 0.000000 0.000000 0.000000 0.000000 0.057709
#
#
# Mechanical properties :
#
#
# Convention : Reuss Voigt Hill
#
# Bulk Modulus (GPa) = 39.71404 40.76353 40.23878
# Shear Modulus (GPa) = 27.33804 30.63579 28.98691
#
# Velocity S-wave (km/s) = 3.42206 3.62258 3.52375
# Velocity P-wave (km/s) = 5.71190 5.91260 5.81312
#
# Compressibility (1/GPa) = 0.02518001
#
# Stress axis : x y z
#
# Youngs Moduli (GPa) = 117.67976 81.40482 77.06192
#
# Poissons Ratio (x) = 0.09177 0.08479
# Poissons Ratio (y) = 0.13266 0.15887
# Poissons Ratio (z) = 0.12949 0.16782
#
# Static dielectric constant tensor:
#      x y z
#    x 1.910790 0.000000 0.000000 
#    y 0.000000 1.907160 0.000000 
#    z 0.000000 0.000000 1.925820 
# 
# From -- ./inp_files/2694.got.cif
#   From: 2010.05.17/outbox.cif.g08.bks.cpg/sg61_2_cif.got.tgz:2694.got - 2010.06.03 15:17:17.
