data_PCOD9460175
_publ_section_title
;
Structure prediction by ZEFSAII (Michael W. Deem and Ramdas Pophale) SiO2 
 PCOD9460175
Probable space group: P B C A
;
_chemical_formula_sum "Si O2"
_cell_formula_units_Z 24
_cell_length_a 9.531758
_cell_length_b 9.985807
_cell_length_c 10.092455
_cell_angle_alpha 90.000000
_cell_angle_beta 90.000000
_cell_angle_gamma 90.000000
_cell_volume 960.623037
_symmetry_space_group_name_H-M "P B C A"
_symmetry_group_IT_number 61
_symmetry_cell_setting 'orthorhombic'
loop_
_space_group_symop_operation_xyz
x,y,z
1/2-x,-y,1/2+z
1/2+x,1/2-y,-z
-x,1/2+y,1/2-z
-x,-y,-z
1/2+x,y,1/2-z
1/2-x,1/2+y,z
x,1/2-y,1/2+z
loop_
_atom_site_type_symbol
_atom_site_label
_atom_site_fract_x
_atom_site_fract_y
_atom_site_fract_z
Si Si1 0.378410 0.503156 0.671132
Si Si2 0.163527 0.421625 0.464888
Si Si3 0.440610 0.215432 0.980031
O O1 0.237788 0.504306 0.581854
O O2 0.342952 0.508864 0.823521
O O3 0.476391 0.625655 0.627051
O O4 0.452883 0.367568 0.618975
O O5 0.017794 0.354892 0.505313
O O6 0.276358 0.298200 0.447903
#
# Coordination Sequence:
#
# PCOD9460175 Si02
#       3
#     8   8   8
#     4   9  22  45  71 102 140 187 243 293 361 429
#     4  10  21  46  75 101 145 187 242 296 359 434
#     4   9  22  45  72 102 138 193 238 290 365 424
#
# _framework density 24.983785999999998
#
# number of rings (size 3 to 8) (size 9 to 14) (size 15 to 20)
#    2.000    0.667    0.000    0.000    0.000    5.333 
#    6.000    3.333    0.000    0.000    0.000    0.000 
#    0.000    0.000    0.000    0.000    0.000    0.000 
#
# Total GULP energy -134247.082003 kJ/mol
# GULP energy per Si atom -5593.628417 kJ/mol
# Density = 2.492692 g / cm^3
# Si number density = 24.983786 Si / 1000 Ang^3
#
#
#
# Elastic Constant Matrix: (Units=GPa)
#
#
# Indices 1 2 3 4 5 6 
#
# 1 119.5846 6.6630 63.9865 0.0000 0.0000 0.0000
# 2 6.6630 66.4814 50.2281 0.0000 0.0000 0.0000
# 3 63.9865 50.2281 198.7195 0.0000 0.0000 0.0000
# 4 0.0000 0.0000 0.0000 17.1230 0.0000 0.0000
# 5 0.0000 0.0000 0.0000 0.0000 36.2680 0.0000
# 6 0.0000 0.0000 0.0000 0.0000 0.0000 107.6764
#
#
#
# Elastic Compliance Matrix: (Units=1/GPa)
#
#
# Indices 1 2 3 4 5 6 
#
# 1 0.010278 0.001817 -0.003769 0.000000 0.000000 0.000000
# 2 0.001817 0.018914 -0.005366 0.000000 0.000000 0.000000
# 3 -0.003769 -0.005366 0.007602 0.000000 0.000000 0.000000
# 4 0.000000 0.000000 0.000000 0.058401 0.000000 0.000000
# 5 0.000000 0.000000 0.000000 0.000000 0.027573 0.000000
# 6 0.000000 0.000000 0.000000 0.000000 0.000000 0.009287
#
#
# Mechanical properties :
#
#
# Convention : Reuss Voigt Hill
#
# Bulk Modulus (GPa) = 45.12879 69.61562 57.37221
# Shear Modulus (GPa) = 32.45193 49.80735 41.12964
#
# Velocity S-wave (km/s) = 3.60796 4.46980 4.06181
# Velocity P-wave (km/s) = 5.95474 7.38672 6.70905
#
# Compressibility (1/GPa) = 0.02215880
#
# Stress axis : x y z
#
# Youngs Moduli (GPa) = 97.29981 52.87208 131.54570
#
# Poissons Ratio (x) = -0.09608 0.49575
# Poissons Ratio (y) = -0.17682 0.70584
# Poissons Ratio (z) = 0.36669 0.28370
#
# Static dielectric constant tensor:
#      x y z
#    x 1.971960 0.000000 0.000000 
#    y 0.000000 2.121140 0.000000 
#    z 0.000000 0.000000 1.868090 
# 
# From -- ./inp_files/1585.got.cif
#   From: 2010.05.17/outbox.cif.g08.bks.cpg/sg61_1_cif.got.tgz:1585.got - 2010.06.03 15:17:17.
