data_PCOD9460759
_publ_section_title
;
Structure prediction by ZEFSAII (Michael W. Deem and Ramdas Pophale) SiO2 
 PCOD9460759
Probable space group: P B C A
;
_chemical_formula_sum "Si O2"
_cell_formula_units_Z 64
_cell_length_a 31.768326
_cell_length_b 11.419142
_cell_length_c 7.383114
_cell_angle_alpha 90.000000
_cell_angle_beta 90.000000
_cell_angle_gamma 90.000000
_cell_volume 2678.350306
_symmetry_space_group_name_H-M "P B C A"
_symmetry_group_IT_number 61
_symmetry_cell_setting 'orthorhombic'
loop_
_space_group_symop_operation_xyz
x,y,z
1/2-x,-y,1/2+z
1/2+x,1/2-y,-z
-x,1/2+y,1/2-z
-x,-y,-z
1/2+x,y,1/2-z
1/2-x,1/2+y,z
x,1/2-y,1/2+z
loop_
_atom_site_type_symbol
_atom_site_label
_atom_site_fract_x
_atom_site_fract_y
_atom_site_fract_z
Si Si1 0.528965 0.428141 0.815849
Si Si2 0.779285 0.133329 0.121415
Si Si3 0.118207 0.398432 0.277838
Si Si4 0.299430 0.951968 0.066443
Si Si5 0.437057 0.096850 0.207707
Si Si6 0.068769 0.262149 0.985176
Si Si7 0.577759 0.858466 0.212617
Si Si8 0.676330 0.628060 0.754047
O O1 0.482172 0.456962 0.754725
O O2 0.533291 0.335422 0.978260
O O3 0.552949 0.353090 0.662521
O O4 0.554818 0.547011 0.838511
O O5 0.809139 0.092560 0.955287
O O6 0.733874 0.136365 0.023515
O O7 0.778535 0.039703 0.285149
O O8 0.797388 0.255695 0.196542
O O9 0.162199 0.394706 0.175850
O O10 0.102543 0.531183 0.298270
O O11 0.081751 0.343316 0.151532
O O12 0.111146 0.315059 0.448601
O O13 0.316101 0.031210 0.900467
O O14 0.440945 0.230359 0.269055
O O15 0.428366 0.099196 0.993271
O O16 0.626901 0.846837 0.256157
#
# Coordination Sequence:
#
# PCOD9460759 Si02
#       8
#     8   8   8   8   8   8   8   8
#     4  11  24  43  67 100 143 189 247 297 363 431
#     4  12  26  44  76 105 145 188 233 306 367 450
#     4  11  25  47  69  99 140 184 239 295 365 446
#     4  12  25  47  71 109 141 186 240 303 369 444
#     4  12  25  41  69 102 140 188 243 303 360 430
#     4  10  24  45  67  97 140 192 234 300 358 436
#     4  12  26  44  70 103 141 192 238 308 367 430
#     4  12  24  47  72 107 149 186 247 301 373 447
#
# _framework density 23.895308
#
# number of rings (size 3 to 8) (size 9 to 14) (size 15 to 20)
#    0.000    0.500    5.000    2.625    7.000    1.500 
#    0.000    0.000    0.000    0.000    0.000    0.000 
#    0.000    0.000    0.000    0.000    0.000    0.000 
#
# Total GULP energy -358253.229076 kJ/mol
# GULP energy per Si atom -5597.706704 kJ/mol
# Density = 2.384092 g / cm^3
# Si number density = 23.895308 Si / 1000 Ang^3
#
#
#
# Elastic Constant Matrix: (Units=GPa)
#
#
# Indices 1 2 3 4 5 6 
#
# 1 97.7318 25.9806 -10.8341 0.0000 0.0000 0.0000
# 2 25.9806 96.5427 8.2093 0.0000 0.0000 0.0000
# 3 -10.8341 8.2093 60.3805 0.0000 0.0000 0.0000
# 4 0.0000 0.0000 0.0000 28.5903 0.0000 0.0000
# 5 0.0000 0.0000 0.0000 0.0000 33.6721 0.0000
# 6 0.0000 0.0000 0.0000 0.0000 0.0000 30.5674
#
#
#
# Elastic Compliance Matrix: (Units=1/GPa)
#
#
# Indices 1 2 3 4 5 6 
#
# 1 0.011378 -0.003273 0.002487 0.000000 0.000000 0.000000
# 2 -0.003273 0.011421 -0.002140 0.000000 0.000000 0.000000
# 3 0.002487 -0.002140 0.017299 0.000000 0.000000 0.000000
# 4 0.000000 0.000000 0.000000 0.034977 0.000000 0.000000
# 5 0.000000 0.000000 0.000000 0.000000 0.029698 0.000000
# 6 0.000000 0.000000 0.000000 0.000000 0.000000 0.032715
#
#
# Mechanical properties :
#
#
# Convention : Reuss Voigt Hill
#
# Bulk Modulus (GPa) = 29.20232 33.48519 31.34375
# Shear Modulus (GPa) = 32.30897 33.98590 33.14744
#
# Velocity S-wave (km/s) = 3.68109 3.77541 3.72855
# Velocity P-wave (km/s) = 5.50588 5.74880 5.62865
#
# Compressibility (1/GPa) = 0.03424386
#
# Stress axis : x y z
#
# Youngs Moduli (GPa) = 87.88961 87.55816 57.80759
#
# Poissons Ratio (x) = 0.28661 -0.14374
# Poissons Ratio (y) = 0.28769 0.12372
# Poissons Ratio (z) = -0.21854 0.18739
#
# Static dielectric constant tensor:
#      x y z
#    x 1.890730 0.000000 0.000000 
#    y 0.000000 1.909050 0.000000 
#    z 0.000000 0.000000 2.035280 
# 
# From -- ./inp_files/4651.got.cif
#   From: 2010.05.17/outbox.cif.g08.bks.cpg/sg61_3_cif.got.tgz:4651.got - 2010.06.03 15:17:17.
