data_PCOD9460179
_publ_section_title
;
Structure prediction by ZEFSAII (Michael W. Deem and Ramdas Pophale) SiO2 
 PCOD9460179
Probable space group: P B C A
;
_chemical_formula_sum "Si O2"
_cell_formula_units_Z 48
_cell_length_a 10.433710
_cell_length_b 13.938640
_cell_length_c 13.776662
_cell_angle_alpha 90.000000
_cell_angle_beta 90.000000
_cell_angle_gamma 90.000000
_cell_volume 2003.563755
_symmetry_space_group_name_H-M "P B C A"
_symmetry_group_IT_number 61
_symmetry_cell_setting 'orthorhombic'
loop_
_space_group_symop_operation_xyz
x,y,z
1/2-x,-y,1/2+z
1/2+x,1/2-y,-z
-x,1/2+y,1/2-z
-x,-y,-z
1/2+x,y,1/2-z
1/2-x,1/2+y,z
x,1/2-y,1/2+z
loop_
_atom_site_type_symbol
_atom_site_label
_atom_site_fract_x
_atom_site_fract_y
_atom_site_fract_z
Si Si1 0.051216 0.442421 0.811953
Si Si2 0.181500 0.840403 0.039039
Si Si3 0.542578 0.194894 0.013030
Si Si4 0.330124 0.819695 0.330687
Si Si5 0.663837 0.550855 0.160154
Si Si6 0.574050 0.845784 0.247015
O O1 0.015906 0.393098 0.913433
O O2 0.199891 0.416331 0.795706
O O3 0.051072 0.558386 0.814940
O O4 0.954395 0.417131 0.726081
O O5 0.336761 0.835274 0.055504
O O6 0.160257 0.914607 0.950843
O O7 0.120503 0.870191 0.142946
O O8 0.095652 0.747693 0.003096
O O9 0.624677 0.275241 0.070224
O O10 0.442520 0.789931 0.257335
O O11 0.190691 0.789217 0.298600
O O12 0.334118 0.934892 0.335381
#
# Coordination Sequence:
#
# PCOD9460179 Si02
#       6
#     8   8   8   8   8   8
#     4   9  19  35  55  78 108 146 188 223 270 336
#     4  10  22  37  56  84 115 143 184 235 283 324
#     4  10  22  36  54  85 113 142 185 234 279 324
#     4   9  19  35  55  78 108 144 185 222 273 337
#     4   9  19  37  57  79 110 149 186 223 275 341
#     4   9  19  36  55  76 108 149 186 223 272 334
#
# _framework density 23.957311000000001
#
# number of rings (size 3 to 8) (size 9 to 14) (size 15 to 20)
#    0.000    2.667    0.000    0.000    0.000   15.333 
#    0.000    3.333    0.000   22.000    0.000    0.000 
#    0.000    0.000    0.000    0.000    0.000    0.000 
#
# Total GULP energy -267728.267470 kJ/mol
# GULP energy per Si atom -5577.672239 kJ/mol
# Density = 2.390278 g / cm^3
# Si number density = 23.957311 Si / 1000 Ang^3
#
#
#
# Elastic Constant Matrix: (Units=GPa)
#
#
# Indices 1 2 3 4 5 6 
#
# 1 42.4066 64.6853 120.8548 0.0000 0.0000 0.0000
# 2 64.6853 34.1154 -55.4638 0.0000 0.0000 0.0000
# 3 120.8548 -55.4638 -12.5725 0.0000 0.0000 0.0000
# 4 0.0000 0.0000 0.0000 29.2901 0.0000 0.0000
# 5 0.0000 0.0000 0.0000 0.0000 46.6293 0.0000
# 6 0.0000 0.0000 0.0000 0.0000 0.0000 24.0179
#
#
#
# Elastic Compliance Matrix: (Units=1/GPa)
#
#
# Indices 1 2 3 4 5 6 
#
# 1 0.002398 0.004030 0.005276 0.000000 0.000000 0.000000
# 2 0.004030 0.010359 -0.006958 0.000000 0.000000 0.000000
# 3 0.005276 -0.006958 0.001873 0.000000 0.000000 0.000000
# 4 0.000000 0.000000 0.000000 0.034141 0.000000 0.000000
# 5 0.000000 0.000000 0.000000 0.000000 0.021446 0.000000
# 6 0.000000 0.000000 0.000000 0.000000 0.000000 0.041636
#
#
# Mechanical properties :
#
#
# Convention : Reuss Voigt Hill
#
# Bulk Modulus (GPa) = 51.74633 36.01135 43.87884
# Shear Modulus (GPa) = 44.01444 15.57900 29.79672
#
# Velocity S-wave (km/s) = 4.29091 2.55283 3.53050
# Velocity P-wave (km/s) = 6.79673 4.87374 5.91392
#
# Compressibility (1/GPa) = 0.01932504
#
# Stress axis : x y z
#
# Youngs Moduli (GPa) = 416.95845 96.53845 533.88806
#
# Poissons Ratio (x) = -0.38905 -2.81673
# Poissons Ratio (y) = -1.68033 3.71495
# Poissons Ratio (z) = -2.19982 0.67174
#
# Static dielectric constant tensor:
#      x y z
#    x 1.987290 0.000000 0.000000 
#    y 0.000000 1.949950 0.000000 
#    z 0.000000 0.000000 1.922700 
# 
# From -- ./inp_files/7552.got.cif
#   From: 2010.05.17/outbox.cif.g08.bks.cpg/sg61_4_cif.got.tgz:7552.got - 2010.06.03 15:17:17.
