data_PCOD9460729
_publ_section_title
;
Structure prediction by ZEFSAII (Michael W. Deem and Ramdas Pophale) SiO2 
 PCOD9460729
Probable space group: P B C A
;
_chemical_formula_sum "Si O2"
_cell_formula_units_Z 40
_cell_length_a 8.225589
_cell_length_b 10.626508
_cell_length_c 21.148132
_cell_angle_alpha 90.000000
_cell_angle_beta 90.000000
_cell_angle_gamma 90.000000
_cell_volume 1848.543146
_symmetry_space_group_name_H-M "P B C A"
_symmetry_group_IT_number 61
_symmetry_cell_setting 'orthorhombic'
loop_
_space_group_symop_operation_xyz
x,y,z
1/2-x,-y,1/2+z
1/2+x,1/2-y,-z
-x,1/2+y,1/2-z
-x,-y,-z
1/2+x,y,1/2-z
1/2-x,1/2+y,z
x,1/2-y,1/2+z
loop_
_atom_site_type_symbol
_atom_site_label
_atom_site_fract_x
_atom_site_fract_y
_atom_site_fract_z
Si Si1 0.675459 0.374447 0.748119
Si Si2 0.079562 0.990141 0.837327
Si Si3 0.256187 0.911149 0.966687
Si Si4 0.909893 0.253391 0.831744
Si Si5 0.639490 0.659779 0.464906
O O1 0.789539 0.483722 0.720049
O O2 0.565111 0.408412 0.807622
O O3 0.788578 0.260339 0.772151
O O4 0.557754 0.339836 0.691117
O O5 0.167841 0.941763 0.900369
O O6 0.994753 0.123120 0.848120
O O7 0.447706 0.875180 0.963265
O O8 0.170667 0.788130 0.996352
O O9 0.260035 0.040973 0.007628
O O10 0.821006 0.307997 0.892678
#
# Coordination Sequence:
#
# PCOD9460729 Si02
#       5
#     8   8   8   8   8
#     4  10  24  43  67 103 133 183 231 290 357 426
#     4  11  23  45  72  99 142 181 234 295 353 423
#     4  11  26  46  74 104 142 188 236 293 351 423
#     4  11  23  43  67 100 137 180 232 289 352 425
#     4  11  26  47  71 106 140 187 237 290 355 414
#
# _framework density 21.638662
#
# number of rings (size 3 to 8) (size 9 to 14) (size 15 to 20)
#    0.000    1.200    2.000    2.400    5.600    1.600 
#    0.000    0.000    0.000    0.000    0.000    0.000 
#    0.000    0.000    0.000    0.000    0.000    0.000 
#
# Total GULP energy -223167.780274 kJ/mol
# GULP energy per Si atom -5579.194507 kJ/mol
# Density = 2.158941 g / cm^3
# Si number density = 21.638662 Si / 1000 Ang^3
#
#
#
# Elastic Constant Matrix: (Units=GPa)
#
#
# Indices 1 2 3 4 5 6 
#
# 1 75.4455 45.7674 46.1968 0.0000 0.0000 0.0000
# 2 45.7674 140.3217 73.0131 0.0000 0.0000 0.0000
# 3 46.1968 73.0131 133.6936 0.0000 0.0000 0.0000
# 4 0.0000 0.0000 0.0000 30.1328 0.0000 0.0000
# 5 0.0000 0.0000 0.0000 0.0000 43.4610 0.0000
# 6 0.0000 0.0000 0.0000 0.0000 0.0000 15.6959
#
#
#
# Elastic Compliance Matrix: (Units=1/GPa)
#
#
# Indices 1 2 3 4 5 6 
#
# 1 0.018089 -0.003699 -0.004231 0.000000 0.000000 0.000000
# 2 -0.003699 0.010712 -0.004572 0.000000 0.000000 0.000000
# 3 -0.004231 -0.004572 0.011438 0.000000 0.000000 0.000000
# 4 0.000000 0.000000 0.000000 0.033186 0.000000 0.000000
# 5 0.000000 0.000000 0.000000 0.000000 0.023009 0.000000
# 6 0.000000 0.000000 0.000000 0.000000 0.000000 0.063711
#
#
# Mechanical properties :
#
#
# Convention : Reuss Voigt Hill
#
# Bulk Modulus (GPa) = 65.63043 75.49061 70.56052
# Shear Modulus (GPa) = 26.28448 30.15682 28.22065
#
# Velocity S-wave (km/s) = 3.48904 3.73722 3.61526
# Velocity P-wave (km/s) = 6.82841 7.32018 7.07857
#
# Compressibility (1/GPa) = 0.01523684
#
# Stress axis : x y z
#
# Youngs Moduli (GPa) = 55.28310 93.35606 87.42459
#
# Poissons Ratio (x) = 0.34528 0.36985
# Poissons Ratio (y) = 0.20447 0.39969
# Poissons Ratio (z) = 0.23388 0.42681
#
# Static dielectric constant tensor:
#      x y z
#    x 1.790590 0.000000 0.000000 
#    y 0.000000 1.797230 0.000000 
#    z 0.000000 0.000000 1.782050 
# 
# From -- ./inp_files/6399.got.cif
#   From: 2010.05.17/outbox.cif.g08.bks.cpg/sg61_4_cif.got.tgz:6399.got - 2010.06.03 15:17:17.
