data_PCOD9460027
_publ_section_title
;
Structure prediction by ZEFSAII (Michael W. Deem and Ramdas Pophale) SiO2 
 PCOD9460027
Probable space group: P B C A
;
_chemical_formula_sum "Si O2"
_cell_formula_units_Z 36
_cell_length_a 22.438209
_cell_length_b 12.189618
_cell_length_c 5.259284
_cell_angle_alpha 90.000000
_cell_angle_beta 90.000000
_cell_angle_gamma 90.000000
_cell_volume 1438.483577
_symmetry_space_group_name_H-M "P B C A"
_symmetry_group_IT_number 61
_symmetry_cell_setting 'orthorhombic'
loop_
_space_group_symop_operation_xyz
x,y,z
1/2-x,-y,1/2+z
1/2+x,1/2-y,-z
-x,1/2+y,1/2-z
-x,-y,-z
1/2+x,y,1/2-z
1/2-x,1/2+y,z
x,1/2-y,1/2+z
loop_
_atom_site_type_symbol
_atom_site_label
_atom_site_fract_x
_atom_site_fract_y
_atom_site_fract_z
Si Si1 0.211106 0.987001 0.035736
Si Si2 0.605909 0.677413 0.937027
Si Si3 0.051986 0.310045 0.162974
Si Si4 0.684077 0.280527 0.856810
Si Si5 0.500000 0.000000 0.500000
O O1 0.169228 0.882898 0.043846
O O2 0.261085 0.990074 0.257678
O O3 0.170798 0.092493 0.111194
O O4 0.599962 0.734786 0.663334
O O5 0.556081 0.584206 0.970827
O O6 0.031509 0.219507 0.376332
O O7 0.123481 0.290416 0.151200
O O8 0.035456 0.426804 0.273905
O O9 0.718618 0.260140 0.600579
#
# Coordination Sequence:
#
# PCOD9460027 Si02
#       5
#     8   8   8   8   4
#     4  12  27  47  75 108 147 198 250 306 375 446
#     4  12  29  50  75 112 156 197 250 318 379 445
#     4  10  22  40  66 100 134 176 230 286 347 422
#     4  10  21  40  68 100 133 178 235 291 348 424
#     4  12  26  48  76 108 148 196 246 300 378 452
#
# _framework density 25.026357000000001
#
# number of rings (size 3 to 8) (size 9 to 14) (size 15 to 20)
#    0.000    0.889    0.000    6.667    0.000   14.222 
#    0.000    0.000    0.000    0.000    0.000    0.000 
#    0.000    0.000    0.000    0.000    0.000    0.000 
#
# Total GULP energy -200559.835537 kJ/mol
# GULP energy per Si atom -5571.106543 kJ/mol
# Density = 2.496940 g / cm^3
# Si number density = 25.026357 Si / 1000 Ang^3
#
#
#
# Elastic Constant Matrix: (Units=GPa)
#
#
# Indices 1 2 3 4 5 6 
#
# 1 106.1483 22.9563 7.1263 0.0000 0.0000 0.0000
# 2 22.9563 46.1324 -8.8887 0.0000 0.0000 0.0000
# 3 7.1263 -8.8887 152.5666 0.0000 0.0000 0.0000
# 4 0.0000 0.0000 0.0000 10.9558 0.0000 0.0000
# 5 0.0000 0.0000 0.0000 0.0000 24.8055 0.0000
# 6 0.0000 0.0000 0.0000 0.0000 0.0000 58.8257
#
#
#
# Elastic Compliance Matrix: (Units=1/GPa)
#
#
# Indices 1 2 3 4 5 6 
#
# 1 0.010656 -0.005460 -0.000816 0.000000 0.000000 0.000000
# 2 -0.005460 0.024720 0.001695 0.000000 0.000000 0.000000
# 3 -0.000816 0.001695 0.006691 0.000000 0.000000 0.000000
# 4 0.000000 0.000000 0.000000 0.091275 0.000000 0.000000
# 5 0.000000 0.000000 0.000000 0.000000 0.040314 0.000000
# 6 0.000000 0.000000 0.000000 0.000000 0.000000 0.016999
#
#
# Mechanical properties :
#
#
# Convention : Reuss Voigt Hill
#
# Bulk Modulus (GPa) = 30.38870 38.58166 34.48518
# Shear Modulus (GPa) = 23.72066 37.82764 30.77415
#
# Velocity S-wave (km/s) = 3.08202 3.89203 3.51047
# Velocity P-wave (km/s) = 4.98339 5.97052 5.49915
#
# Compressibility (1/GPa) = 0.03290696
#
# Stress axis : x y z
#
# Youngs Moduli (GPa) = 93.84060 40.45250 149.44574
#
# Poissons Ratio (x) = 0.22087 0.12193
# Poissons Ratio (y) = 0.51237 -0.25335
# Poissons Ratio (z) = 0.07656 -0.06858
#
# Static dielectric constant tensor:
#      x y z
#    x 1.966040 0.000000 0.000000 
#    y 0.000000 2.026430 0.000000 
#    z 0.000000 0.000000 2.114550 
# 
# From -- ./inp_files/1141.got.cif
#   From: 2010.05.17/outbox.cif.g08.bks.cpg/sg61_1_cif.got.tgz:1141.got - 2010.06.03 15:17:17.
