data_PCOD9460460
_publ_section_title
;
Structure prediction by ZEFSAII (Michael W. Deem and Ramdas Pophale) SiO2 
 PCOD9460460
Probable space group: P B C A
;
_chemical_formula_sum "Si O2"
_cell_formula_units_Z 64
_cell_length_a 29.780870
_cell_length_b 10.517830
_cell_length_c 9.276607
_cell_angle_alpha 90.000000
_cell_angle_beta 90.000000
_cell_angle_gamma 90.000000
_cell_volume 2905.712797
_symmetry_space_group_name_H-M "P B C A"
_symmetry_group_IT_number 61
_symmetry_cell_setting 'orthorhombic'
loop_
_space_group_symop_operation_xyz
x,y,z
1/2-x,-y,1/2+z
1/2+x,1/2-y,-z
-x,1/2+y,1/2-z
-x,-y,-z
1/2+x,y,1/2-z
1/2-x,1/2+y,z
x,1/2-y,1/2+z
loop_
_atom_site_type_symbol
_atom_site_label
_atom_site_fract_x
_atom_site_fract_y
_atom_site_fract_z
Si Si1 0.605335 0.365386 0.839486
Si Si2 0.610052 0.505908 0.130973
Si Si3 0.545680 0.112153 0.842058
Si Si4 0.661308 0.697244 0.694153
Si Si5 0.950310 0.039257 0.625438
Si Si6 0.605508 0.728653 0.457128
Si Si7 0.702343 0.041946 0.342956
Si Si8 0.791945 0.453216 0.659498
O O1 0.574055 0.241324 0.817684
O O2 0.584266 0.479483 0.741736
O O3 0.659888 0.363157 0.813639
O O4 0.602775 0.399360 0.008915
O O5 0.573235 0.492545 0.252690
O O6 0.607877 0.633475 0.033660
O O7 0.659096 0.492473 0.204683
O O8 0.494092 0.094214 0.793893
O O9 0.543221 0.075800 0.011264
O O10 0.643337 0.646344 0.542288
O O11 0.682432 0.593237 0.795045
O O12 0.696114 0.804492 0.647934
O O13 0.620621 0.753846 0.793521
O O14 0.937099 0.155102 0.517653
O O15 0.714975 0.027618 0.510239
O O16 0.748104 0.049999 0.255530
#
# Coordination Sequence:
#
# PCOD9460460 Si02
#       8
#     8   8   8   8   8   8   8   8
#     4  11  23  46  65  95 136 178 216 277 340 406
#     4  10  22  45  65  95 132 175 223 274 333 395
#     4  11  26  42  63 100 142 169 224 275 341 400
#     4  11  20  41  63  93 130 166 228 276 329 395
#     4  11  24  42  67 100 129 180 227 272 336 399
#     4  11  20  40  69  92 124 176 227 280 316 394
#     4  11  23  42  66  99 129 175 227 269 346 406
#     4  10  24  38  65  98 130 174 222 278 330 411
#
# _framework density 22.025576000000001
#
# number of rings (size 3 to 8) (size 9 to 14) (size 15 to 20)
#    0.000    1.250    5.000    2.250    3.500    2.500 
#    4.500    2.500    0.000    0.000    0.000    0.000 
#    0.000    0.000    0.000    0.000    0.000    0.000 
#
# Total GULP energy -356327.848455 kJ/mol
# GULP energy per Si atom -5567.622632 kJ/mol
# Density = 2.197544 g / cm^3
# Si number density = 22.025576 Si / 1000 Ang^3
#
#
#
# Elastic Constant Matrix: (Units=GPa)
#
#
# Indices 1 2 3 4 5 6 
#
# 1 92.9910 17.5219 18.4836 0.0000 0.0000 0.0000
# 2 17.5219 63.3375 -1.6881 0.0000 0.0000 0.0000
# 3 18.4836 -1.6881 70.5394 0.0000 0.0000 0.0000
# 4 0.0000 0.0000 0.0000 153.7961 0.0000 0.0000
# 5 0.0000 0.0000 0.0000 0.0000 28.5482 0.0000
# 6 0.0000 0.0000 0.0000 0.0000 0.0000 -131.5041
#
#
#
# Elastic Compliance Matrix: (Units=1/GPa)
#
#
# Indices 1 2 3 4 5 6 
#
# 1 0.012041 -0.003417 -0.003237 0.000000 0.000000 0.000000
# 2 -0.003417 0.016768 0.001297 0.000000 0.000000 0.000000
# 3 -0.003237 0.001297 0.015056 0.000000 0.000000 0.000000
# 4 0.000000 0.000000 0.000000 0.006502 0.000000 0.000000
# 5 0.000000 0.000000 0.000000 0.000000 0.035029 0.000000
# 6 0.000000 0.000000 0.000000 0.000000 0.000000 -0.007604
#
#
# Mechanical properties :
#
#
# Convention : Reuss Voigt Hill
#
# Bulk Modulus (GPa) = 30.16585 32.83363 31.49974
# Shear Modulus (GPa) = 50.22275 23.00472 36.61374
#
# Velocity S-wave (km/s) = 4.78033 3.23531 4.08159
# Velocity P-wave (km/s) = 6.64788 5.37547 6.04524
#
# Compressibility (1/GPa) = 0.03315007
#
# Stress axis : x y z
#
# Youngs Moduli (GPa) = 83.04933 59.63602 66.42008
#
# Poissons Ratio (x) = 0.20380 0.21500
# Poissons Ratio (y) = 0.28381 -0.08613
# Poissons Ratio (z) = 0.26882 -0.07733
#
# Static dielectric constant tensor:
#      x y z
#    x 1.931720 0.000000 0.000000 
#    y 0.000000 1.974450 0.000000 
#    z 0.000000 0.000000 1.796910 
# 
# From -- ./inp_files/4616.got.cif
#   From: 2010.05.17/outbox.cif.g08.bks.cpg/sg61_3_cif.got.tgz:4616.got - 2010.06.03 15:17:17.
