data_PCOD9460273
_publ_section_title
;
Structure prediction by ZEFSAII (Michael W. Deem and Ramdas Pophale) SiO2 
 PCOD9460273
Probable space group: P B C A
;
_chemical_formula_sum "Si O2"
_cell_formula_units_Z 48
_cell_length_a 8.168313
_cell_length_b 8.672926
_cell_length_c 26.275058
_cell_angle_alpha 90.000000
_cell_angle_beta 90.000000
_cell_angle_gamma 90.000000
_cell_volume 1861.408511
_symmetry_space_group_name_H-M "P B C A"
_symmetry_group_IT_number 61
_symmetry_cell_setting 'orthorhombic'
loop_
_space_group_symop_operation_xyz
x,y,z
1/2-x,-y,1/2+z
1/2+x,1/2-y,-z
-x,1/2+y,1/2-z
-x,-y,-z
1/2+x,y,1/2-z
1/2-x,1/2+y,z
x,1/2-y,1/2+z
loop_
_atom_site_type_symbol
_atom_site_label
_atom_site_fract_x
_atom_site_fract_y
_atom_site_fract_z
Si Si1 0.716701 0.407547 0.461937
Si Si2 0.103518 0.116205 0.102102
Si Si3 0.606544 0.608544 0.735169
Si Si4 0.281413 0.224461 0.867273
Si Si5 0.821369 0.096259 0.298705
Si Si6 0.897411 0.932181 0.569559
O O1 0.878541 0.467001 0.433871
O O2 0.646414 0.258937 0.434220
O O3 0.578346 0.539585 0.451786
O O4 0.718910 0.386106 0.522292
O O5 0.240021 0.107884 0.146221
O O6 0.928458 0.149586 0.127698
O O7 0.723417 0.663274 0.689590
O O8 0.603702 0.746246 0.776233
O O9 0.443278 0.550269 0.706643
O O10 0.674330 0.456852 0.762091
O O11 0.118237 0.305115 0.886831
O O12 0.332752 0.087929 0.904903
#
# Coordination Sequence:
#
# PCOD9460273 Si02
#       6
#     8   8   8   8   8   8
#     4  10  22  40  64  93 128 167 209 267 325 388
#     4  11  23  41  63  91 127 165 211 263 326 391
#     4  12  25  43  67  97 134 176 224 276 335 399
#     4  11  23  40  61  91 127 167 216 268 322 390
#     4  12  25  44  68  98 134 176 224 277 336 402
#     4  10  22  40  63  94 128 165 214 264 322 391
#
# _framework density 25.786923999999999
#
# number of rings (size 3 to 8) (size 9 to 14) (size 15 to 20)
#    0.000    1.000    0.000    8.000    0.000    3.333 
#    0.000    0.000    0.000    0.000    0.000    0.000 
#    0.000    0.000    0.000    0.000    0.000    0.000 
#
# Total GULP energy -269104.053480 kJ/mol
# GULP energy per Si atom -5606.334448 kJ/mol
# Density = 2.572823 g / cm^3
# Si number density = 25.786924 Si / 1000 Ang^3
#
#
#
# Elastic Constant Matrix: (Units=GPa)
#
#
# Indices 1 2 3 4 5 6 
#
# 1 46.7569 15.3647 26.1625 0.0000 0.0000 0.0000
# 2 15.3647 44.7189 9.5662 0.0000 0.0000 0.0000
# 3 26.1625 9.5662 122.5718 0.0000 0.0000 0.0000
# 4 0.0000 0.0000 0.0000 40.2601 0.0000 0.0000
# 5 0.0000 0.0000 0.0000 0.0000 32.5856 0.0000
# 6 0.0000 0.0000 0.0000 0.0000 0.0000 31.0658
#
#
#
# Elastic Compliance Matrix: (Units=1/GPa)
#
#
# Indices 1 2 3 4 5 6 
#
# 1 0.026928 -0.008159 -0.005111 0.000000 0.000000 0.000000
# 2 -0.008159 0.025214 -0.000226 0.000000 0.000000 0.000000
# 3 -0.005111 -0.000226 0.009267 0.000000 0.000000 0.000000
# 4 0.000000 0.000000 0.000000 0.024838 0.000000 0.000000
# 5 0.000000 0.000000 0.000000 0.000000 0.030688 0.000000
# 6 0.000000 0.000000 0.000000 0.000000 0.000000 0.032190
#
#
# Mechanical properties :
#
#
# Convention : Reuss Voigt Hill
#
# Bulk Modulus (GPa) = 29.05572 35.13715 32.09644
# Shear Modulus (GPa) = 26.65393 31.64590 29.14992
#
# Velocity S-wave (km/s) = 3.21849 3.50695 3.36581
# Velocity P-wave (km/s) = 5.01035 5.48214 5.25155
#
# Compressibility (1/GPa) = 0.03441663
#
# Stress axis : x y z
#
# Youngs Moduli (GPa) = 37.13599 39.66121 107.90906
#
# Poissons Ratio (x) = 0.32358 0.55152
# Poissons Ratio (y) = 0.30298 0.02443
# Poissons Ratio (z) = 0.18980 0.00898
#
# Static dielectric constant tensor:
#      x y z
#    x 2.111660 0.000000 0.000000 
#    y 0.000000 2.005030 0.000000 
#    z 0.000000 0.000000 1.956050 
# 
# From -- ./inp_files/11689.got.cif
#   From: 2010.05.17/outbox.cif.g08.bks.cpg/sg61_6_cif.got.tgz:11689.got - 2010.06.03 15:17:17.
