data_PCOD9460792
_publ_section_title
;
Structure prediction by ZEFSAII (Michael W. Deem and Ramdas Pophale) SiO2 
 PCOD9460792
Probable space group: P B C A
;
_chemical_formula_sum "Si O2"
_cell_formula_units_Z 40
_cell_length_a 8.793055
_cell_length_b 20.463293
_cell_length_c 7.595520
_cell_angle_alpha 90.000000
_cell_angle_beta 90.000000
_cell_angle_gamma 90.000000
_cell_volume 1366.698834
_symmetry_space_group_name_H-M "P B C A"
_symmetry_group_IT_number 61
_symmetry_cell_setting 'orthorhombic'
loop_
_space_group_symop_operation_xyz
x,y,z
1/2-x,-y,1/2+z
1/2+x,1/2-y,-z
-x,1/2+y,1/2-z
-x,-y,-z
1/2+x,y,1/2-z
1/2-x,1/2+y,z
x,1/2-y,1/2+z
loop_
_atom_site_type_symbol
_atom_site_label
_atom_site_fract_x
_atom_site_fract_y
_atom_site_fract_z
Si Si1 0.599848 0.563299 0.456908
Si Si2 0.645161 0.132496 0.840113
Si Si3 0.839420 0.027070 0.059894
Si Si4 0.171404 0.771892 0.688320
Si Si5 0.467756 0.815131 0.501536
O O1 0.500000 0.500000 0.500000
O O2 0.499202 0.623236 0.524286
O O3 0.743169 0.540037 0.567948
O O4 0.642027 0.558834 0.252197
O O5 0.742760 0.200050 0.808759
O O6 0.488479 0.251485 0.599487
O O7 0.757365 0.078268 0.927654
O O8 0.051980 0.133277 0.844842
O O9 0.000000 0.000000 0.000000
O O10 0.303346 0.813730 0.595822
O O11 0.106962 0.809652 0.858698
#
# Coordination Sequence:
#
# PCOD9460792 Si02
#       5
#     8   8   8   8   8
#     4  10  24  50  87 127 185 239 308 402 487 582
#     4  11  26  49  86 133 184 253 313 381 512 568
#     4  11  24  51  88 137 186 239 314 408 483 590
#     4  12  25  53  86 123 190 240 320 396 470 579
#     4  12  25  53  88 126 185 254 314 406 469 580
#
# _framework density 29.267602
#
# number of rings (size 3 to 8) (size 9 to 14) (size 15 to 20)
#    0.000    0.800    4.000    2.400    0.000    6.400 
#   10.800    0.000   13.200    0.000    0.000    0.000 
#    0.000    0.000    0.000    0.000    0.000    0.000 
#
# Total GULP energy -223291.595135 kJ/mol
# GULP energy per Si atom -5582.289878 kJ/mol
# Density = 2.920099 g / cm^3
# Si number density = 29.267602 Si / 1000 Ang^3
#
#
#
# Elastic Constant Matrix: (Units=GPa)
#
#
# Indices 1 2 3 4 5 6 
#
# 1 235.1063 67.6511 118.0806 0.0000 0.0000 0.0000
# 2 67.6511 196.9591 89.5733 0.0000 0.0000 0.0000
# 3 118.0806 89.5733 275.6786 0.0000 0.0000 0.0000
# 4 0.0000 0.0000 0.0000 44.1752 0.0000 0.0000
# 5 0.0000 0.0000 0.0000 0.0000 79.8019 0.0000
# 6 0.0000 0.0000 0.0000 0.0000 0.0000 31.9317
#
#
#
# Elastic Compliance Matrix: (Units=1/GPa)
#
#
# Indices 1 2 3 4 5 6 
#
# 1 0.005574 -0.000972 -0.002071 0.000000 0.000000 0.000000
# 2 -0.000972 0.006127 -0.001574 0.000000 0.000000 0.000000
# 3 -0.002071 -0.001574 0.005026 0.000000 0.000000 0.000000
# 4 0.000000 0.000000 0.000000 0.022637 0.000000 0.000000
# 5 0.000000 0.000000 0.000000 0.000000 0.012531 0.000000
# 6 0.000000 0.000000 0.000000 0.000000 0.000000 0.031317
#
#
# Mechanical properties :
#
#
# Convention : Reuss Voigt Hill
#
# Bulk Modulus (GPa) = 133.49844 139.81710 136.65777
# Shear Modulus (GPa) = 52.66217 60.01104 56.33661
#
# Velocity S-wave (km/s) = 4.24646 4.53308 4.39210
# Velocity P-wave (km/s) = 8.35196 8.67606 8.51555
#
# Compressibility (1/GPa) = 0.00749072
#
# Stress axis : x y z
#
# Youngs Moduli (GPa) = 179.42013 163.20766 198.95912
#
# Poissons Ratio (x) = 0.15870 0.41211
# Poissons Ratio (y) = 0.17446 0.31323
# Poissons Ratio (z) = 0.37164 0.25694
#
# Static dielectric constant tensor:
#      x y z
#    x 2.353640 0.000000 0.000000 
#    y 0.000000 2.355530 0.000000 
#    z 0.000000 0.000000 2.616090 
# 
# From -- ./inp_files/4810.got.cif
#   From: 2010.05.17/outbox.cif.g08.bks.cpg/sg61_3_cif.got.tgz:4810.got - 2010.06.03 15:17:17.
