data_PCOD9460526
_publ_section_title
;
Structure prediction by ZEFSAII (Michael W. Deem and Ramdas Pophale) SiO2 
 PCOD9460526
Probable space group: P B C A
;
_chemical_formula_sum "Si O2"
_cell_formula_units_Z 64
_cell_length_a 13.329076
_cell_length_b 23.689370
_cell_length_c 9.125265
_cell_angle_alpha 90.000000
_cell_angle_beta 90.000000
_cell_angle_gamma 90.000000
_cell_volume 2881.370070
_symmetry_space_group_name_H-M "P B C A"
_symmetry_group_IT_number 61
_symmetry_cell_setting 'orthorhombic'
loop_
_space_group_symop_operation_xyz
x,y,z
1/2-x,-y,1/2+z
1/2+x,1/2-y,-z
-x,1/2+y,1/2-z
-x,-y,-z
1/2+x,y,1/2-z
1/2-x,1/2+y,z
x,1/2-y,1/2+z
loop_
_atom_site_type_symbol
_atom_site_label
_atom_site_fract_x
_atom_site_fract_y
_atom_site_fract_z
Si Si1 0.998809 0.677638 0.476710
Si Si2 0.754784 0.107602 0.547171
Si Si3 0.527917 0.059043 0.569686
Si Si4 0.462382 0.447788 0.402852
Si Si5 0.948008 0.256011 0.806255
Si Si6 0.803811 0.832427 0.782947
Si Si7 0.085011 0.157170 0.482239
Si Si8 0.764475 0.791042 0.279772
O O1 0.988090 0.701429 0.642100
O O2 0.055691 0.717856 0.357421
O O3 0.029714 0.612561 0.494463
O O4 0.890399 0.677251 0.402359
O O5 0.646179 0.076440 0.556839
O O6 0.844289 0.064653 0.580616
O O7 0.774636 0.135257 0.384901
O O8 0.755938 0.159284 0.664203
O O9 0.493199 0.049522 0.734603
O O10 0.500000 0.000000 0.500000
O O11 0.500000 0.500000 0.500000
O O12 0.521573 0.392641 0.453093
O O13 0.840359 0.230480 0.850901
O O14 0.002316 0.302551 0.905648
O O15 0.844553 0.867332 0.647187
O O16 0.792735 0.770094 0.714136
O O17 0.155543 0.187932 0.600774
#
# Coordination Sequence:
#
# PCOD9460526 Si02
#       8
#     8   8   8   8   8   8   8   8
#     4  10  24  43  69 105 149 202 243 311 381 454
#     4  11  26  49  77 112 151 202 264 316 393 470
#     4  11  27  53  80 109 155 206 264 327 386 457
#     4  12  29  52  77 106 148 202 265 331 387 456
#     4  11  25  39  70 107 154 194 244 306 391 460
#     4  10  23  40  70 104 151 189 244 303 386 464
#     4  11  25  46  69 106 154 198 249 323 388 455
#     4  12  23  42  69 112 151 202 243 310 381 478
#
# _framework density 22.211655
#
# number of rings (size 3 to 8) (size 9 to 14) (size 15 to 20)
#    0.000    1.000    2.500    2.250   17.500    1.000 
#    2.250    0.000    0.000    0.000    0.000    0.000 
#    0.000    0.000    0.000    0.000    0.000    0.000 
#
# Total GULP energy -356944.446921 kJ/mol
# GULP energy per Si atom -5577.256983 kJ/mol
# Density = 2.216110 g / cm^3
# Si number density = 22.211655 Si / 1000 Ang^3
#
#
#
# Elastic Constant Matrix: (Units=GPa)
#
#
# Indices 1 2 3 4 5 6 
#
# 1 94.7543 34.2268 62.1143 0.0000 0.0000 0.0000
# 2 34.2268 135.8744 80.2864 0.0000 0.0000 0.0000
# 3 62.1143 80.2864 121.3870 0.0000 0.0000 0.0000
# 4 0.0000 0.0000 0.0000 37.4872 0.0000 0.0000
# 5 0.0000 0.0000 0.0000 0.0000 23.8668 0.0000
# 6 0.0000 0.0000 0.0000 0.0000 0.0000 30.8454
#
#
#
# Elastic Compliance Matrix: (Units=1/GPa)
#
#
# Indices 1 2 3 4 5 6 
#
# 1 0.016025 0.001327 -0.009078 0.000000 0.000000 0.000000
# 2 0.001327 0.012191 -0.008743 0.000000 0.000000 0.000000
# 3 -0.009078 -0.008743 0.018666 0.000000 0.000000 0.000000
# 4 0.000000 0.000000 0.000000 0.026676 0.000000 0.000000
# 5 0.000000 0.000000 0.000000 0.000000 0.041899 0.000000
# 6 0.000000 0.000000 0.000000 0.000000 0.000000 0.032420
#
#
# Mechanical properties :
#
#
# Convention : Reuss Voigt Hill
#
# Bulk Modulus (GPa) = 71.96529 78.36340 75.16435
# Shear Modulus (GPa) = 26.95484 30.13243 28.54364
#
# Velocity S-wave (km/s) = 3.48738 3.68721 3.58868
# Velocity P-wave (km/s) = 6.97752 7.31329 7.14738
#
# Compressibility (1/GPa) = 0.01389559
#
# Stress axis : x y z
#
# Youngs Moduli (GPa) = 62.40216 82.02579 53.57370
#
# Poissons Ratio (x) = -0.10888 0.48635
# Poissons Ratio (y) = -0.08283 0.46838
# Poissons Ratio (z) = 0.56649 0.71712
#
# Static dielectric constant tensor:
#      x y z
#    x 1.996630 0.000000 0.000000 
#    y 0.000000 1.895860 0.000000 
#    z 0.000000 0.000000 1.817130 
# 
# From -- ./inp_files/3201.got.cif
#   From: 2010.05.17/outbox.cif.g08.bks.cpg/sg61_2_cif.got.tgz:3201.got - 2010.06.03 15:17:17.
