data_PCOD9460318
_publ_section_title
;
Structure prediction by ZEFSAII (Michael W. Deem and Ramdas Pophale) SiO2 
 PCOD9460318
Probable space group: P B C A
;
_chemical_formula_sum "Si O2"
_cell_formula_units_Z 56
_cell_length_a 11.653411
_cell_length_b 20.322430
_cell_length_c 8.789035
_cell_angle_alpha 90.000000
_cell_angle_beta 90.000000
_cell_angle_gamma 90.000000
_cell_volume 2081.468745
_symmetry_space_group_name_H-M "P B C A"
_symmetry_group_IT_number 61
_symmetry_cell_setting 'orthorhombic'
loop_
_space_group_symop_operation_xyz
x,y,z
1/2-x,-y,1/2+z
1/2+x,1/2-y,-z
-x,1/2+y,1/2-z
-x,-y,-z
1/2+x,y,1/2-z
1/2-x,1/2+y,z
x,1/2-y,1/2+z
loop_
_atom_site_type_symbol
_atom_site_label
_atom_site_fract_x
_atom_site_fract_y
_atom_site_fract_z
Si Si1 0.677036 0.607443 0.719877
Si Si2 0.647675 0.361798 0.953812
Si Si3 0.925465 0.722855 0.923733
Si Si4 0.031274 0.410752 0.993689
Si Si5 0.289990 0.965711 0.808481
Si Si6 0.407856 0.121214 0.323171
Si Si7 0.406074 0.243359 0.676795
O O1 0.777661 0.617532 0.596137
O O2 0.554173 0.595823 0.635112
O O3 0.707980 0.534746 0.778281
O O4 0.664567 0.675901 0.811158
O O5 0.683651 0.407545 0.812370
O O6 0.509664 0.369978 0.945778
O O7 0.660884 0.283036 0.940206
O O8 0.885879 0.652602 0.982222
O O9 0.047767 0.731590 0.014820
O O10 0.969005 0.726165 0.751770
O O11 0.960041 0.401610 0.838874
O O12 0.117208 0.468518 0.946049
O O13 0.171682 0.938377 0.873907
O O14 0.361190 0.193573 0.273594
#
# Coordination Sequence:
#
# PCOD9460318 Si02
#       7
#     8   8   8   8   8   8   8
#     4  11  22  40  61  96 134 174 220 281 338 410
#     4  10  22  41  64  92 134 172 225 285 335 413
#     4   9  19  41  66  96 123 173 220 279 340 382
#     4   9  19  39  66  90 128 167 228 277 335 407
#     4  11  22  39  64  92 131 183 219 273 356 399
#     4   9  19  40  64  93 125 174 225 274 344 400
#     4   9  20  40  65  92 130 166 224 280 328 398
#
# _framework density 26.904078999999999
#
# number of rings (size 3 to 8) (size 9 to 14) (size 15 to 20)
#    0.000    2.286    1.429    1.286    2.000    0.571 
#   10.286    1.429    0.000    0.000    0.000    0.000 
#    0.000    0.000    0.000    0.000    0.000    0.000 
#
# Total GULP energy -312837.059263 kJ/mol
# GULP energy per Si atom -5586.376058 kJ/mol
# Density = 2.684284 g / cm^3
# Si number density = 26.904079 Si / 1000 Ang^3
#
#
#
# Elastic Constant Matrix: (Units=GPa)
#
#
# Indices 1 2 3 4 5 6 
#
# 1 55.0495 0.1591 18.4172 0.0000 0.0000 0.0000
# 2 0.1591 130.7630 0.5936 0.0000 0.0000 0.0000
# 3 18.4172 0.5936 56.6109 0.0000 0.0000 0.0000
# 4 0.0000 0.0000 0.0000 30.4216 0.0000 0.0000
# 5 0.0000 0.0000 0.0000 0.0000 44.6258 0.0000
# 6 0.0000 0.0000 0.0000 0.0000 0.0000 15.5789
#
#
#
# Elastic Compliance Matrix: (Units=1/GPa)
#
#
# Indices 1 2 3 4 5 6 
#
# 1 0.020384 0.000005 -0.006632 0.000000 0.000000 0.000000
# 2 0.000005 0.007648 -0.000082 0.000000 0.000000 0.000000
# 3 -0.006632 -0.000082 0.019823 0.000000 0.000000 0.000000
# 4 0.000000 0.000000 0.000000 0.032871 0.000000 0.000000
# 5 0.000000 0.000000 0.000000 0.000000 0.022409 0.000000
# 6 0.000000 0.000000 0.000000 0.000000 0.000000 0.064190
#
#
# Mechanical properties :
#
#
# Convention : Reuss Voigt Hill
#
# Bulk Modulus (GPa) = 29.03751 31.19590 30.11671
# Shear Modulus (GPa) = 26.01187 33.00884 29.51036
#
# Velocity S-wave (km/s) = 3.11277 3.50653 3.31550
# Velocity P-wave (km/s) = 4.87192 5.29289 5.08676
#
# Compressibility (1/GPa) = 0.03443821
#
# Stress axis : x y z
#
# Youngs Moduli (GPa) = 49.05785 130.75675 50.44705
#
# Poissons Ratio (x) = -0.00069 0.33455
# Poissons Ratio (y) = -0.00026 0.00413
# Poissons Ratio (z) = 0.32533 0.01071
#
# Static dielectric constant tensor:
#      x y z
#    x 2.200510 0.000000 0.000000 
#    y 0.000000 2.165000 0.000000 
#    z 0.000000 0.000000 2.083570 
# 
# From -- ./inp_files/5357.got.cif
#   From: 2010.05.17/outbox.cif.g08.bks.cpg/sg61_3_cif.got.tgz:5357.got - 2010.06.03 15:17:17.
