data_PCOD9460126
_publ_section_title
;
Structure prediction by ZEFSAII (Michael W. Deem and Ramdas Pophale) SiO2 
 PCOD9460126
Probable space group: P B C A
;
_chemical_formula_sum "Si O2"
_cell_formula_units_Z 64
_cell_length_a 7.702835
_cell_length_b 22.088786
_cell_length_c 12.820746
_cell_angle_alpha 90.000000
_cell_angle_beta 90.000000
_cell_angle_gamma 90.000000
_cell_volume 2181.402161
_symmetry_space_group_name_H-M "P B C A"
_symmetry_group_IT_number 61
_symmetry_cell_setting 'orthorhombic'
loop_
_space_group_symop_operation_xyz
x,y,z
1/2-x,-y,1/2+z
1/2+x,1/2-y,-z
-x,1/2+y,1/2-z
-x,-y,-z
1/2+x,y,1/2-z
1/2-x,1/2+y,z
x,1/2-y,1/2+z
loop_
_atom_site_type_symbol
_atom_site_label
_atom_site_fract_x
_atom_site_fract_y
_atom_site_fract_z
Si Si1 0.888150 0.209670 0.878913
Si Si2 0.880998 0.618867 0.353263
Si Si3 0.490154 0.748822 0.184321
Si Si4 0.093838 0.068079 0.370216
Si Si5 0.955250 0.181807 0.421547
Si Si6 0.947130 0.580448 0.585809
Si Si7 0.698636 0.026860 0.909380
Si Si8 0.402626 0.121275 0.859306
O O1 0.009308 0.259193 0.813919
O O2 0.686875 0.221069 0.858165
O O3 0.929244 0.252010 0.979708
O O4 0.967344 0.145522 0.889030
O O5 0.005908 0.678975 0.347704
O O6 0.885079 0.574901 0.253458
O O7 0.917880 0.583923 0.461439
O O8 0.700758 0.655964 0.348180
O O9 0.604434 0.812360 0.197863
O O10 0.119363 0.138809 0.401443
O O11 0.198871 0.034725 0.463281
O O12 0.908907 0.033432 0.384131
O O13 0.888761 0.143389 0.523950
O O14 0.101989 0.536892 0.620464
O O15 0.768973 0.580326 0.651777
O O16 0.575557 0.080300 0.859918
#
# Coordination Sequence:
#
# PCOD9460126 Si02
#       8
#     8   8   8   8   8   8   8   8
#     4  11  21  37  62 103 143 187 231 286 359 423
#     4  10  22  38  68 106 140 186 237 293 360 419
#     4  11  21  37  64 101 151 188 234 295 349 431
#     4  10  21  43  69  99 141 182 240 303 354 419
#     4   9  20  38  62  97 139 177 229 290 344 423
#     4  11  23  42  72 105 142 189 235 288 362 433
#     4  10  23  44  74  97 141 190 238 298 359 420
#     4  10  21  43  65 102 143 184 234 286 353 429
#
# _framework density 29.338926000000001
#
# number of rings (size 3 to 8) (size 9 to 14) (size 15 to 20)
#    0.000    1.750    2.500    1.500    1.750    0.000 
#    4.500   11.250    2.750    0.000    0.000    0.000 
#    0.000    0.000    0.000    0.000    0.000    0.000 
#
# Total GULP energy -356691.824824 kJ/mol
# GULP energy per Si atom -5573.309763 kJ/mol
# Density = 2.927215 g / cm^3
# Si number density = 29.338926 Si / 1000 Ang^3
#
#
#
# Elastic Constant Matrix: (Units=GPa)
#
#
# Indices 1 2 3 4 5 6 
#
# 1 95.2952 6.3019 12.2390 0.0000 0.0000 0.0000
# 2 6.3019 169.8890 16.5025 0.0000 0.0000 0.0000
# 3 12.2390 16.5025 93.9537 0.0000 0.0000 0.0000
# 4 0.0000 0.0000 0.0000 51.8584 0.0000 0.0000
# 5 0.0000 0.0000 0.0000 0.0000 36.6314 0.0000
# 6 0.0000 0.0000 0.0000 0.0000 0.0000 40.1474
#
#
#
# Elastic Compliance Matrix: (Units=1/GPa)
#
#
# Indices 1 2 3 4 5 6 
#
# 1 0.010684 -0.000266 -0.001345 0.000000 0.000000 0.000000
# 2 -0.000266 0.005995 -0.001018 0.000000 0.000000 0.000000
# 3 -0.001345 -0.001018 0.010998 0.000000 0.000000 0.000000
# 4 0.000000 0.000000 0.000000 0.019283 0.000000 0.000000
# 5 0.000000 0.000000 0.000000 0.000000 0.027299 0.000000
# 6 0.000000 0.000000 0.000000 0.000000 0.000000 0.024908
#
#
# Mechanical properties :
#
#
# Convention : Reuss Voigt Hill
#
# Bulk Modulus (GPa) = 44.60631 47.69163 46.14897
# Shear Modulus (GPa) = 44.68349 47.33375 46.00862
#
# Velocity S-wave (km/s) = 3.90681 4.02100 3.96432
# Velocity P-wave (km/s) = 5.96554 6.15212 6.05955
#
# Compressibility (1/GPa) = 0.02241835
#
# Stress axis : x y z
#
# Youngs Moduli (GPa) = 93.59768 166.80641 90.92861
#
# Poissons Ratio (x) = 0.04431 0.12231
# Poissons Ratio (y) = 0.02486 0.09260
# Poissons Ratio (z) = 0.12590 0.16987
#
# Static dielectric constant tensor:
#      x y z
#    x 2.474710 0.000000 0.000000 
#    y 0.000000 2.446360 0.000000 
#    z 0.000000 0.000000 6.645150 
# 
# From -- ./inp_files/7247.got.cif
#   From: 2010.05.17/outbox.cif.g08.bks.cpg/sg61_4_cif.got.tgz:7247.got - 2010.06.03 15:17:17.
