data_PCOD9460458
_publ_section_title
;
Structure prediction by ZEFSAII (Michael W. Deem and Ramdas Pophale) SiO2 
 PCOD9460458
Probable space group: P B C A
;
_chemical_formula_sum "Si O2"
_cell_formula_units_Z 56
_cell_length_a 7.851686
_cell_length_b 13.687476
_cell_length_c 21.652114
_cell_angle_alpha 90.000000
_cell_angle_beta 90.000000
_cell_angle_gamma 90.000000
_cell_volume 2326.947575
_symmetry_space_group_name_H-M "P B C A"
_symmetry_group_IT_number 61
_symmetry_cell_setting 'orthorhombic'
loop_
_space_group_symop_operation_xyz
x,y,z
1/2-x,-y,1/2+z
1/2+x,1/2-y,-z
-x,1/2+y,1/2-z
-x,-y,-z
1/2+x,y,1/2-z
1/2-x,1/2+y,z
x,1/2-y,1/2+z
loop_
_atom_site_type_symbol
_atom_site_label
_atom_site_fract_x
_atom_site_fract_y
_atom_site_fract_z
Si Si1 0.179590 0.957145 0.551951
Si Si2 0.336448 0.318316 0.197858
Si Si3 0.311719 0.834386 0.069118
Si Si4 0.417101 0.814573 0.882830
Si Si5 0.154502 0.036624 0.184305
Si Si6 0.918837 0.828775 0.019329
Si Si7 0.834478 0.352543 0.715833
O O1 0.297600 0.969163 0.613061
O O2 0.305033 0.922239 0.497585
O O3 0.041405 0.878572 0.574541
O O4 0.103695 0.065462 0.545595
O O5 0.194246 0.328406 0.143670
O O6 0.471311 0.248769 0.164179
O O7 0.400146 0.428845 0.206610
O O8 0.299519 0.257018 0.259452
O O9 0.401422 0.740064 0.040781
O O10 0.114441 0.840725 0.042490
O O11 0.289824 0.875326 0.840943
O O12 0.329792 0.735737 0.927324
O O13 0.306820 0.072905 0.227539
O O14 0.021320 0.123337 0.193384
#
# Coordination Sequence:
#
# PCOD9460458 Si02
#       7
#     8   8   8   8   8   8   8
#     4  11  22  46  65  95 135 179 222 282 333 403
#     4  10  22  45  64  92 134 170 217 283 332 392
#     4  10  23  41  72  94 133 177 222 275 341 403
#     4  11  24  43  65  96 139 171 225 275 338 400
#     4  11  24  38  69  92 127 176 226 270 351 397
#     4  11  21  44  64  97 133 174 222 275 341 401
#     4  12  23  43  65  97 133 176 222 285 331 414
#
# _framework density 24.065863
#
# number of rings (size 3 to 8) (size 9 to 14) (size 15 to 20)
#    0.000    1.143    5.714    0.429    4.000    0.571 
#    0.000    0.000    0.000    0.000    0.000    0.000 
#    0.000    0.000    0.000    0.000    0.000    0.000 
#
# Total GULP energy -312974.951005 kJ/mol
# GULP energy per Si atom -5588.838411 kJ/mol
# Density = 2.401109 g / cm^3
# Si number density = 24.065863 Si / 1000 Ang^3
#
#
#
# Elastic Constant Matrix: (Units=GPa)
#
#
# Indices 1 2 3 4 5 6 
#
# 1 40.5290 7.8198 24.0060 0.0000 0.0000 0.0000
# 2 7.8198 115.5185 16.1541 0.0000 0.0000 0.0000
# 3 24.0060 16.1541 66.6328 0.0000 0.0000 0.0000
# 4 0.0000 0.0000 0.0000 34.9538 0.0000 0.0000
# 5 0.0000 0.0000 0.0000 0.0000 30.7007 0.0000
# 6 0.0000 0.0000 0.0000 0.0000 0.0000 20.1564
#
#
#
# Elastic Compliance Matrix: (Units=1/GPa)
#
#
# Indices 1 2 3 4 5 6 
#
# 1 0.031403 -0.000563 -0.011177 0.000000 0.000000 0.000000
# 2 -0.000563 0.008970 -0.001972 0.000000 0.000000 0.000000
# 3 -0.011177 -0.001972 0.019512 0.000000 0.000000 0.000000
# 4 0.000000 0.000000 0.000000 0.028609 0.000000 0.000000
# 5 0.000000 0.000000 0.000000 0.000000 0.032573 0.000000
# 6 0.000000 0.000000 0.000000 0.000000 0.000000 0.049612
#
#
# Mechanical properties :
#
#
# Convention : Reuss Voigt Hill
#
# Bulk Modulus (GPa) = 30.80530 35.40444 33.10487
# Shear Modulus (GPa) = 23.93219 28.80888 26.37054
#
# Velocity S-wave (km/s) = 3.15690 3.46365 3.31383
# Velocity P-wave (km/s) = 5.11041 5.54429 5.33177
#
# Compressibility (1/GPa) = 0.03246195
#
# Stress axis : x y z
#
# Youngs Moduli (GPa) = 31.84449 111.47670 51.24925
#
# Poissons Ratio (x) = 0.06273 0.57282
# Poissons Ratio (y) = 0.01792 0.10106
# Poissons Ratio (z) = 0.35593 0.21983
#
# Static dielectric constant tensor:
#      x y z
#    x 1.946330 0.000000 0.000000 
#    y 0.000000 1.950970 0.000000 
#    z 0.000000 0.000000 2.008250 
# 
# From -- ./inp_files/3048.got.cif
#   From: 2010.05.17/outbox.cif.g08.bks.cpg/sg61_2_cif.got.tgz:3048.got - 2010.06.03 15:17:17.
