data_PCOD9460444
_publ_section_title
;
Structure prediction by ZEFSAII (Michael W. Deem and Ramdas Pophale) SiO2 
 PCOD9460444
Probable space group: P B C A
;
_chemical_formula_sum "Si O2"
_cell_formula_units_Z 64
_cell_length_a 14.504007
_cell_length_b 16.754786
_cell_length_c 11.584320
_cell_angle_alpha 90.000000
_cell_angle_beta 90.000000
_cell_angle_gamma 90.000000
_cell_volume 2815.123367
_symmetry_space_group_name_H-M "P B C A"
_symmetry_group_IT_number 61
_symmetry_cell_setting 'orthorhombic'
loop_
_space_group_symop_operation_xyz
x,y,z
1/2-x,-y,1/2+z
1/2+x,1/2-y,-z
-x,1/2+y,1/2-z
-x,-y,-z
1/2+x,y,1/2-z
1/2-x,1/2+y,z
x,1/2-y,1/2+z
loop_
_atom_site_type_symbol
_atom_site_label
_atom_site_fract_x
_atom_site_fract_y
_atom_site_fract_z
Si Si1 0.446423 0.647998 0.011517
Si Si2 0.518921 0.881612 0.266813
Si Si3 0.901217 0.260494 0.112196
Si Si4 0.809947 0.874603 0.802298
Si Si5 0.814098 0.714760 0.087788
Si Si6 0.339467 0.400494 0.522197
Si Si7 0.703871 0.540371 0.713251
Si Si8 0.148789 0.080143 0.601027
O O1 0.486197 0.607466 0.897347
O O2 0.374819 0.714706 0.964962
O O3 0.530799 0.691196 0.075377
O O4 0.388477 0.600151 0.107026
O O5 0.570058 0.797622 0.236069
O O6 0.596114 0.945491 0.233421
O O7 0.432582 0.889611 0.182534
O O8 0.794720 0.234918 0.099136
O O9 0.912099 0.336550 0.024891
O O10 0.843373 0.804657 0.719436
O O11 0.779879 0.946731 0.719687
O O12 0.719851 0.858789 0.878578
O O13 0.832897 0.639461 0.004445
O O14 0.275772 0.420860 0.410218
O O15 0.371325 0.488340 0.562341
O O16 0.761173 0.577724 0.817333
#
# Coordination Sequence:
#
# PCOD9460444 Si02
#       8
#     8   8   8   8   8   8   8   8
#     4  12  25  44  65 101 137 177 228 280 348 408
#     4  11  25  42  67  99 132 181 222 286 345 408
#     4  11  25  42  68 101 135 179 225 284 341 412
#     4  11  24  44  68 100 137 180 226 285 338 412
#     4  12  25  43  70  99 138 181 225 282 343 413
#     4  10  22  44  69  99 130 180 227 278 337 405
#     4  10  23  44  69  98 134 176 229 280 344 404
#     4  11  23  44  69  98 135 178 231 280 343 406
#
# _framework density 22.734349999999999
#
# number of rings (size 3 to 8) (size 9 to 14) (size 15 to 20)
#    0.000    1.000    3.750    2.250    3.500    3.500 
#    4.500    0.000    0.000    0.000    0.000    0.000 
#    0.000    0.000    0.000    0.000    0.000    0.000 
#
# Total GULP energy -357729.850511 kJ/mol
# GULP energy per Si atom -5589.528914 kJ/mol
# Density = 2.268261 g / cm^3
# Si number density = 22.734350 Si / 1000 Ang^3
#
#
#
# Elastic Constant Matrix: (Units=GPa)
#
#
# Indices 1 2 3 4 5 6 
#
# 1 51.1634 -10.8575 -6.8125 0.0000 0.0000 0.0000
# 2 -10.8575 19.8532 7.0967 0.0000 0.0000 0.0000
# 3 -6.8125 7.0967 82.1790 0.0000 0.0000 0.0000
# 4 0.0000 0.0000 0.0000 29.5803 0.0000 0.0000
# 5 0.0000 0.0000 0.0000 0.0000 33.2790 0.0000
# 6 0.0000 0.0000 0.0000 0.0000 0.0000 9.7152
#
#
#
# Elastic Compliance Matrix: (Units=1/GPa)
#
#
# Indices 1 2 3 4 5 6 
#
# 1 0.022164 0.011830 0.000816 0.000000 0.000000 0.000000
# 2 0.011830 0.058288 -0.004053 0.000000 0.000000 0.000000
# 3 0.000816 -0.004053 0.012586 0.000000 0.000000 0.000000
# 4 0.000000 0.000000 0.000000 0.033806 0.000000 0.000000
# 5 0.000000 0.000000 0.000000 0.000000 0.030049 0.000000
# 6 0.000000 0.000000 0.000000 0.000000 0.000000 0.102932
#
#
# Mechanical properties :
#
#
# Convention : Reuss Voigt Hill
#
# Bulk Modulus (GPa) = 9.07245 14.67214 11.87230
# Shear Modulus (GPa) = 17.89666 25.43282 21.66474
#
# Velocity S-wave (km/s) = 2.80877 3.34832 3.09034
# Velocity P-wave (km/s) = 3.81027 4.62775 4.23876
#
# Compressibility (1/GPa) = 0.11022375
#
# Stress axis : x y z
#
# Youngs Moduli (GPa) = 45.11770 17.15616 79.45223
#
# Poissons Ratio (x) = -0.20295 -0.06482
# Poissons Ratio (y) = -0.53373 0.32201
# Poissons Ratio (z) = -0.03681 0.06953
#
# Static dielectric constant tensor:
#      x y z
#    x 1.799660 0.000000 0.000000 
#    y 0.000000 1.853310 0.000000 
#    z 0.000000 0.000000 1.861570 
# 
# From -- ./inp_files/6004.got.cif
#   From: 2010.05.17/outbox.cif.g08.bks.cpg/sg61_4_cif.got.tgz:6004.got - 2010.06.03 15:17:17.
