data_PCOD9460741
_publ_section_title
;
Structure prediction by ZEFSAII (Michael W. Deem and Ramdas Pophale) SiO2 
 PCOD9460741
Probable space group: P B C A
;
_chemical_formula_sum "Si O2"
_cell_formula_units_Z 44
_cell_length_a 17.074756
_cell_length_b 20.492139
_cell_length_c 5.014862
_cell_angle_alpha 90.000000
_cell_angle_beta 90.000000
_cell_angle_gamma 90.000000
_cell_volume 1754.691555
_symmetry_space_group_name_H-M "P B C A"
_symmetry_group_IT_number 61
_symmetry_cell_setting 'orthorhombic'
loop_
_space_group_symop_operation_xyz
x,y,z
1/2-x,-y,1/2+z
1/2+x,1/2-y,-z
-x,1/2+y,1/2-z
-x,-y,-z
1/2+x,y,1/2-z
1/2-x,1/2+y,z
x,1/2-y,1/2+z
loop_
_atom_site_type_symbol
_atom_site_label
_atom_site_fract_x
_atom_site_fract_y
_atom_site_fract_z
Si Si1 0.000000 0.000000 0.500000
Si Si2 0.052042 0.086435 0.998690
Si Si3 0.140218 0.209575 0.813346
Si Si4 0.398023 0.412477 0.665428
Si Si5 0.823008 0.206369 0.635033
Si Si6 0.303802 0.007216 0.535017
O O1 0.991213 0.952166 0.233359
O O2 0.008509 0.913560 0.751188
O O3 0.076781 0.157490 0.904231
O O4 0.131216 0.048821 0.064207
O O5 0.094794 0.981079 0.518219
O O6 0.130570 0.227423 0.504236
O O7 0.230312 0.189297 0.870295
O O8 0.372249 0.352868 0.486768
O O9 0.343733 0.426123 0.919750
O O10 0.838750 0.266823 0.430954
O O11 0.252099 0.016657 0.794584
#
# Coordination Sequence:
#
# PCOD9460741 Si02
#       6
#     4   8   8   8   8   8
#     4  10  24  44  64  98 140 182 236 298 360 438
#     4  11  26  44  72 102 148 190 237 313 368 439
#     4  10  24  46  71 104 141 188 242 294 354 435
#     4  11  26  44  71 102 148 186 237 308 365 433
#     4  10  24  46  72 104 142 189 243 294 356 435
#     4  11  26  43  70 100 136 189 241 286 362 431
#
# _framework density 25.07563
#
# number of rings (size 3 to 8) (size 9 to 14) (size 15 to 20)
#    0.000    1.455    0.000    3.273   15.273    5.818 
#    0.000    0.000    0.000    0.000    0.000    0.000 
#    0.000    0.000    0.000    0.000    0.000    0.000 
#
# Total GULP energy -245616.225844 kJ/mol
# GULP energy per Si atom -5582.186951 kJ/mol
# Density = 2.501856 g / cm^3
# Si number density = 25.075630 Si / 1000 Ang^3
#
#
#
# Elastic Constant Matrix: (Units=GPa)
#
#
# Indices 1 2 3 4 5 6 
#
# 1 100.3060 12.1578 27.5517 0.0000 0.0000 0.0000
# 2 12.1578 48.0254 -0.8318 0.0000 0.0000 0.0000
# 3 27.5517 -0.8318 106.7420 0.0000 0.0000 0.0000
# 4 0.0000 0.0000 0.0000 23.7071 0.0000 0.0000
# 5 0.0000 0.0000 0.0000 0.0000 24.5550 0.0000
# 6 0.0000 0.0000 0.0000 0.0000 0.0000 41.0515
#
#
#
# Elastic Compliance Matrix: (Units=1/GPa)
#
#
# Indices 1 2 3 4 5 6 
#
# 1 0.011110 -0.002863 -0.002890 0.000000 0.000000 0.000000
# 2 -0.002863 0.021563 0.000907 0.000000 0.000000 0.000000
# 3 -0.002890 0.000907 0.010121 0.000000 0.000000 0.000000
# 4 0.000000 0.000000 0.000000 0.042181 0.000000 0.000000
# 5 0.000000 0.000000 0.000000 0.000000 0.040725 0.000000
# 6 0.000000 0.000000 0.000000 0.000000 0.000000 0.024360
#
#
# Mechanical properties :
#
#
# Convention : Reuss Voigt Hill
#
# Bulk Modulus (GPa) = 30.20886 36.98098 33.59492
# Shear Modulus (GPa) = 29.27636 32.27577 30.77606
#
# Velocity S-wave (km/s) = 3.42061 3.59156 3.50713
# Velocity P-wave (km/s) = 5.26061 5.65499 5.46136
#
# Compressibility (1/GPa) = 0.03310287
#
# Stress axis : x y z
#
# Youngs Moduli (GPa) = 90.00659 46.37634 98.80039
#
# Poissons Ratio (x) = 0.13276 0.28554
# Poissons Ratio (y) = 0.25766 -0.08961
# Poissons Ratio (z) = 0.26012 -0.04206
#
# Static dielectric constant tensor:
#      x y z
#    x 2.009640 0.000000 0.000000 
#    y 0.000000 1.638730 0.000000 
#    z 0.000000 0.000000 1.742990 
# 
# From -- ./inp_files/956.got.cif
#   From: 2010.05.17/outbox.cif.g08.bks.cpg/sg61_1_cif.got.tgz:956.got - 2010.06.03 15:17:17.
