data_PCOD9460457
_publ_section_title
;
Structure prediction by ZEFSAII (Michael W. Deem and Ramdas Pophale) SiO2 
 PCOD9460457
Probable space group: P B C A
;
_chemical_formula_sum "Si O2"
_cell_formula_units_Z 36
_cell_length_a 6.325855
_cell_length_b 8.475888
_cell_length_c 23.076928
_cell_angle_alpha 90.000000
_cell_angle_beta 90.000000
_cell_angle_gamma 90.000000
_cell_volume 1237.321152
_symmetry_space_group_name_H-M "P B C A"
_symmetry_group_IT_number 61
_symmetry_cell_setting 'orthorhombic'
loop_
_space_group_symop_operation_xyz
x,y,z
1/2-x,-y,1/2+z
1/2+x,1/2-y,-z
-x,1/2+y,1/2-z
-x,-y,-z
1/2+x,y,1/2-z
1/2-x,1/2+y,z
x,1/2-y,1/2+z
loop_
_atom_site_type_symbol
_atom_site_label
_atom_site_fract_x
_atom_site_fract_y
_atom_site_fract_z
Si Si1 0.668464 0.534838 0.251291
Si Si2 0.000000 0.000000 0.500000
Si Si3 0.118560 0.831595 0.046198
Si Si4 0.050384 0.161381 0.635732
Si Si5 0.697541 0.977961 0.623823
O O1 0.418613 0.605739 0.246293
O O2 0.645896 0.420608 0.306742
O O3 0.690530 0.452668 0.189215
O O4 0.036459 0.805001 0.506044
O O5 0.750584 0.962730 0.486878
O O6 0.264556 0.765698 0.098609
O O7 0.949356 0.923542 0.083972
O O8 0.936069 0.013979 0.601397
O O9 0.877171 0.300781 0.634828
#
# Coordination Sequence:
#
# PCOD9460457 Si02
#       5
#     8   4   8   8   8
#     4  10  22  44  74 122 164 224 272 340 434 540
#     4  12  32  52  88 112 170 218 304 362 452 506
#     4  12  28  54  80 122 158 224 288 368 434 524
#     4  11  26  48  79 117 168 218 277 351 436 534
#     4  11  26  48  79 117 168 218 277 351 436 534
#
# _framework density 29.095113000000001
#
# number of rings (size 3 to 8) (size 9 to 14) (size 15 to 20)
#    0.000    0.889    4.444    0.000    6.222    8.000 
#    0.000    0.000    0.000    0.000    0.000    0.000 
#    0.000    0.000    0.000    0.000    0.000    0.000 
#
# Total GULP energy -200519.530555 kJ/mol
# GULP energy per Si atom -5569.986960 kJ/mol
# Density = 2.902889 g / cm^3
# Si number density = 29.095113 Si / 1000 Ang^3
#
#
#
# Elastic Constant Matrix: (Units=GPa)
#
#
# Indices 1 2 3 4 5 6 
#
# 1 184.6278 30.1379 29.0612 0.0000 0.0000 0.0000
# 2 30.1379 93.2964 17.3890 0.0000 0.0000 0.0000
# 3 29.0612 17.3890 50.6887 0.0000 0.0000 0.0000
# 4 0.0000 0.0000 0.0000 23.3134 0.0000 0.0000
# 5 0.0000 0.0000 0.0000 0.0000 56.1235 0.0000
# 6 0.0000 0.0000 0.0000 0.0000 0.0000 62.8606
#
#
#
# Elastic Compliance Matrix: (Units=1/GPa)
#
#
# Indices 1 2 3 4 5 6 
#
# 1 0.006123 -0.001414 -0.003026 0.000000 0.000000 0.000000
# 2 -0.001414 0.011777 -0.003229 0.000000 0.000000 0.000000
# 3 -0.003026 -0.003229 0.022571 0.000000 0.000000 0.000000
# 4 0.000000 0.000000 0.000000 0.042894 0.000000 0.000000
# 5 0.000000 0.000000 0.000000 0.000000 0.017818 0.000000
# 6 0.000000 0.000000 0.000000 0.000000 0.000000 0.015908
#
#
# Mechanical properties :
#
#
# Convention : Reuss Voigt Hill
#
# Bulk Modulus (GPa) = 39.78823 53.53211 46.66017
# Shear Modulus (GPa) = 35.50950 45.26115 40.38532
#
# Velocity S-wave (km/s) = 3.49730 3.94842 3.72969
# Velocity P-wave (km/s) = 5.47842 6.26304 5.88382
#
# Compressibility (1/GPa) = 0.02513306
#
# Stress axis : x y z
#
# Youngs Moduli (GPa) = 163.30859 84.90939 44.30504
#
# Poissons Ratio (x) = 0.12007 0.13405
# Poissons Ratio (y) = 0.23094 0.14308
# Poissons Ratio (z) = 0.49410 0.27421
#
# Static dielectric constant tensor:
#      x y z
#    x 2.452880 0.000000 0.000000 
#    y 0.000000 2.149300 0.000000 
#    z 0.000000 0.000000 1.920550 
# 
# From -- ./inp_files/11557.got.cif
#   From: 2010.05.17/outbox.cif.g08.bks.cpg/sg61_6_cif.got.tgz:11557.got - 2010.06.03 15:17:17.
