data_PCOD9460798
_publ_section_title
;
Structure prediction by ZEFSAII (Michael W. Deem and Ramdas Pophale) SiO2 
 PCOD9460798
Probable space group: P B C A
;
_chemical_formula_sum "Si O2"
_cell_formula_units_Z 48
_cell_length_a 12.243231
_cell_length_b 21.735394
_cell_length_c 8.283931
_cell_angle_alpha 90.000000
_cell_angle_beta 90.000000
_cell_angle_gamma 90.000000
_cell_volume 2204.448887
_symmetry_space_group_name_H-M "P B C A"
_symmetry_group_IT_number 61
_symmetry_cell_setting 'orthorhombic'
loop_
_space_group_symop_operation_xyz
x,y,z
1/2-x,-y,1/2+z
1/2+x,1/2-y,-z
-x,1/2+y,1/2-z
-x,-y,-z
1/2+x,y,1/2-z
1/2-x,1/2+y,z
x,1/2-y,1/2+z
loop_
_atom_site_type_symbol
_atom_site_label
_atom_site_fract_x
_atom_site_fract_y
_atom_site_fract_z
Si Si1 0.215551 0.447702 0.777986
Si Si2 0.894124 0.522374 0.898728
Si Si3 0.547627 0.544581 0.865925
Si Si4 0.332343 0.820204 0.595136
Si Si5 0.205017 0.733432 0.815252
Si Si6 0.424538 0.176920 0.534194
O O1 0.332192 0.468406 0.702068
O O2 0.139574 0.504694 0.721259
O O3 0.180302 0.383884 0.693435
O O4 0.187670 0.447604 0.969869
O O5 0.950559 0.563212 0.758710
O O6 0.000000 0.500000 0.000000
O O7 0.592114 0.604880 0.949210
O O8 0.500000 0.500000 0.000000
O O9 0.301354 0.761892 0.706665
O O10 0.248313 0.815450 0.445094
O O11 0.452496 0.813180 0.523479
O O12 0.110392 0.706198 0.703764
O O13 0.155222 0.791705 0.907016
#
# Coordination Sequence:
#
# PCOD9460798 Si02
#       6
#     8   8   8   8   8   8
#     4  11  24  42  69 103 140 183 228 289 355 419
#     4  10  25  42  65 105 141 183 226 278 359 419
#     4  11  23  43  69 105 137 180 230 284 364 414
#     4  11  24  46  70  99 137 186 239 290 352 423
#     4  10  26  45  70 101 135 189 241 289 351 413
#     4  11  24  47  70 100 143 181 237 295 345 428
#
# _framework density 21.774149999999999
#
# number of rings (size 3 to 8) (size 9 to 14) (size 15 to 20)
#    0.000    1.333    1.667    2.000    9.333    0.000 
#    9.000    0.000    0.000    0.000    0.000    0.000 
#    0.000    0.000    0.000    0.000    0.000    0.000 
#
# Total GULP energy -268057.929911 kJ/mol
# GULP energy per Si atom -5584.540206 kJ/mol
# Density = 2.172459 g / cm^3
# Si number density = 21.774150 Si / 1000 Ang^3
#
#
#
# Elastic Constant Matrix: (Units=GPa)
#
#
# Indices 1 2 3 4 5 6 
#
# 1 107.9251 32.2023 62.3044 0.0000 0.0000 0.0000
# 2 32.2023 107.5905 48.5830 0.0000 0.0000 0.0000
# 3 62.3044 48.5830 131.7629 0.0000 0.0000 0.0000
# 4 0.0000 0.0000 0.0000 756.6158 0.0000 0.0000
# 5 0.0000 0.0000 0.0000 0.0000 30.2368 0.0000
# 6 0.0000 0.0000 0.0000 0.0000 0.0000 31.2323
#
#
#
# Elastic Compliance Matrix: (Units=1/GPa)
#
#
# Indices 1 2 3 4 5 6 
#
# 1 0.012901 -0.001328 -0.005611 0.000000 0.000000 0.000000
# 2 -0.001328 0.011288 -0.003534 0.000000 0.000000 0.000000
# 3 -0.005611 -0.003534 0.011545 0.000000 0.000000 0.000000
# 4 0.000000 0.000000 0.000000 0.001322 0.000000 0.000000
# 5 0.000000 0.000000 0.000000 0.000000 0.033072 0.000000
# 6 0.000000 0.000000 0.000000 0.000000 0.000000 0.032018
#
#
# Mechanical properties :
#
#
# Convention : Reuss Voigt Hill
#
# Bulk Modulus (GPa) = 67.61770 70.38420 69.00095
# Shear Modulus (GPa) = 39.05613 177.22957 108.14285
#
# Velocity S-wave (km/s) = 4.23980 9.03168 7.05504
# Velocity P-wave (km/s) = 7.42222 11.88093 9.90570
#
# Compressibility (1/GPa) = 0.01478903
#
# Stress axis : x y z
#
# Youngs Moduli (GPa) = 77.51443 88.59148 86.61405
#
# Poissons Ratio (x) = 0.11763 0.48596
# Poissons Ratio (y) = 0.10292 0.30611
# Poissons Ratio (z) = 0.43490 0.31309
#
# Static dielectric constant tensor:
#      x y z
#    x 1.809920 0.000000 0.000000 
#    y 0.000000 1.671290 0.000000 
#    z 0.000000 0.000000 1.839060 
# 
# From -- ./inp_files/2285.got.cif
#   From: 2010.05.17/outbox.cif.g08.bks.cpg/sg61_2_cif.got.tgz:2285.got - 2010.06.03 15:17:17.
