data_PCOD9460917
_publ_section_title
;
Structure prediction by ZEFSAII (Michael W. Deem and Ramdas Pophale) SiO2 
 PCOD9460917
Probable space group: P B C A
;
_chemical_formula_sum "Si O2"
_cell_formula_units_Z 64
_cell_length_a 18.435551
_cell_length_b 8.918376
_cell_length_c 17.088025
_cell_angle_alpha 90.000000
_cell_angle_beta 90.000000
_cell_angle_gamma 90.000000
_cell_volume 2809.530631
_symmetry_space_group_name_H-M "P B C A"
_symmetry_group_IT_number 61
_symmetry_cell_setting 'orthorhombic'
loop_
_space_group_symop_operation_xyz
x,y,z
1/2-x,-y,1/2+z
1/2+x,1/2-y,-z
-x,1/2+y,1/2-z
-x,-y,-z
1/2+x,y,1/2-z
1/2-x,1/2+y,z
x,1/2-y,1/2+z
loop_
_atom_site_type_symbol
_atom_site_label
_atom_site_fract_x
_atom_site_fract_y
_atom_site_fract_z
Si Si1 0.320112 0.237009 0.982497
Si Si2 0.070414 0.284215 0.012588
Si Si3 0.920290 0.446688 0.446902
Si Si4 0.128174 0.295533 0.761360
Si Si5 0.874553 0.961273 0.336413
Si Si6 0.802888 0.907811 0.583567
Si Si7 0.724648 0.414173 0.883246
Si Si8 0.012134 0.796062 0.642730
O O1 0.278950 0.362547 0.932714
O O2 0.321611 0.078822 0.936498
O O3 0.399858 0.302525 0.999460
O O4 0.271294 0.192379 0.058677
O O5 0.081704 0.366499 0.095987
O O6 0.051220 0.108077 0.023688
O O7 0.149479 0.302933 0.973662
O O8 0.022461 0.348701 0.940869
O O9 0.837134 0.490359 0.425836
O O10 0.966172 0.377257 0.375022
O O11 0.120031 0.118823 0.746776
O O12 0.176204 0.358877 0.830527
O O13 0.173593 0.342570 0.684093
O O14 0.046349 0.334071 0.789869
O O15 0.789685 0.982316 0.352594
O O16 0.914023 0.119771 0.338344
#
# Coordination Sequence:
#
# PCOD9460917 Si02
#       8
#     8   8   8   8   8   8   8   8
#     4  12  21  41  73 104 139 191 246 311 361 441
#     4  11  21  44  71 102 140 182 246 307 352 445
#     4  12  22  41  75 105 141 188 256 301 371 444
#     4  11  28  44  68 105 153 188 236 312 375 452
#     4  12  24  46  74 100 141 199 242 298 373 448
#     4  11  22  41  63 105 145 178 239 309 375 421
#     4  12  23  43  74 102 138 193 250 300 359 453
#     4  11  27  44  71 105 147 189 247 303 382 446
#
# _framework density 22.779605
#
# number of rings (size 3 to 8) (size 9 to 14) (size 15 to 20)
#    0.000    0.500    6.250    1.500    3.500    1.000 
#    0.000    0.000    0.000    0.000    0.000    0.000 
#    0.000    0.000    0.000    0.000    0.000    0.000 
#
# Total GULP energy -356595.774002 kJ/mol
# GULP energy per Si atom -5571.808969 kJ/mol
# Density = 2.272776 g / cm^3
# Si number density = 22.779605 Si / 1000 Ang^3
#
#
#
# Elastic Constant Matrix: (Units=GPa)
#
#
# Indices 1 2 3 4 5 6 
#
# 1 88.3687 13.2954 25.2707 0.0000 0.0000 0.0000
# 2 13.2954 93.6319 36.0743 0.0000 0.0000 0.0000
# 3 25.2707 36.0743 43.2960 0.0000 0.0000 0.0000
# 4 0.0000 0.0000 0.0000 31.0320 0.0000 0.0000
# 5 0.0000 0.0000 0.0000 0.0000 28.6062 0.0000
# 6 0.0000 0.0000 0.0000 0.0000 0.0000 42.0836
#
#
#
# Elastic Compliance Matrix: (Units=1/GPa)
#
#
# Indices 1 2 3 4 5 6 
#
# 1 0.013761 0.001680 -0.009431 0.000000 0.000000 0.000000
# 2 0.001680 0.015935 -0.014257 0.000000 0.000000 0.000000
# 3 -0.009431 -0.014257 0.040481 0.000000 0.000000 0.000000
# 4 0.000000 0.000000 0.000000 0.032225 0.000000 0.000000
# 5 0.000000 0.000000 0.000000 0.000000 0.034958 0.000000
# 6 0.000000 0.000000 0.000000 0.000000 0.000000 0.023762
#
#
# Mechanical properties :
#
#
# Convention : Reuss Voigt Hill
#
# Bulk Modulus (GPa) = 38.22846 41.61970 39.92408
# Shear Modulus (GPa) = 23.38013 30.38810 26.88411
#
# Velocity S-wave (km/s) = 3.20716 3.65637 3.43911
# Velocity P-wave (km/s) = 5.52565 6.01129 5.77358
#
# Compressibility (1/GPa) = 0.02615852
#
# Stress axis : x y z
#
# Youngs Moduli (GPa) = 72.67159 62.75673 24.70321
#
# Poissons Ratio (x) = -0.10541 0.23298
# Poissons Ratio (y) = -0.12206 0.35220
# Poissons Ratio (z) = 0.68538 0.89473
#
# Static dielectric constant tensor:
#      x y z
#    x 1.877460 0.000000 0.000000 
#    y 0.000000 1.949080 0.000000 
#    z 0.000000 0.000000 1.915590 
# 
# From -- ./inp_files/9775.got.cif
#   From: 2010.05.17/outbox.cif.g08.bks.cpg/sg61_5_cif.got.tgz:9775.got - 2010.06.03 15:17:17.
