data_PCOD9460429
_publ_section_title
;
Structure prediction by ZEFSAII (Michael W. Deem and Ramdas Pophale) SiO2 
 PCOD9460429
Probable space group: P B C A
;
_chemical_formula_sum "Si O2"
_cell_formula_units_Z 56
_cell_length_a 11.082245
_cell_length_b 13.670835
_cell_length_c 15.397717
_cell_angle_alpha 90.000000
_cell_angle_beta 90.000000
_cell_angle_gamma 90.000000
_cell_volume 2332.808677
_symmetry_space_group_name_H-M "P B C A"
_symmetry_group_IT_number 61
_symmetry_cell_setting 'orthorhombic'
loop_
_space_group_symop_operation_xyz
x,y,z
1/2-x,-y,1/2+z
1/2+x,1/2-y,-z
-x,1/2+y,1/2-z
-x,-y,-z
1/2+x,y,1/2-z
1/2-x,1/2+y,z
x,1/2-y,1/2+z
loop_
_atom_site_type_symbol
_atom_site_label
_atom_site_fract_x
_atom_site_fract_y
_atom_site_fract_z
Si Si1 0.080767 0.805312 0.071972
Si Si2 0.030717 0.332585 0.597499
Si Si3 0.194204 0.395884 0.861362
Si Si4 0.924436 0.527150 0.625997
Si Si5 0.872000 0.264199 0.746072
Si Si6 0.520249 0.564440 0.689808
Si Si7 0.838604 0.842954 0.446164
O O1 0.098643 0.731383 0.151625
O O2 0.202192 0.870478 0.077967
O O3 0.960523 0.869455 0.086357
O O4 0.064993 0.781400 0.970262
O O5 0.149472 0.271029 0.581253
O O6 0.023822 0.448646 0.592247
O O7 0.981899 0.311137 0.693011
O O8 0.300178 0.471975 0.890226
O O9 0.255221 0.319707 0.793368
O O10 0.091653 0.465409 0.825049
O O11 0.147515 0.348919 0.950666
O O12 0.934065 0.546517 0.728389
O O13 0.885368 0.150091 0.718105
O O14 0.438739 0.598868 0.608558
#
# Coordination Sequence:
#
# PCOD9460429 Si02
#       7
#     8   8   8   8   8   8   8
#     4  11  22  44  69  98 134 184 228 287 351 405
#     4  10  22  44  64  99 134 176 232 281 344 420
#     4  11  23  45  68 101 138 180 234 283 351 422
#     4  10  23  42  68  97 133 181 233 280 342 422
#     4   9  22  43  65  96 134 175 231 279 337 411
#     4  10  24  42  67 101 139 181 227 289 349 409
#     4  11  24  42  67 102 141 172 231 289 347 416
#
# _framework density 24.005396000000001
#
# number of rings (size 3 to 8) (size 9 to 14) (size 15 to 20)
#    0.000    1.714    2.857    0.857    6.000    3.429 
#    2.571    1.429    0.000    0.000    0.000    0.000 
#    0.000    0.000    0.000    0.000    0.000    0.000 
#
# Total GULP energy -312647.804902 kJ/mol
# GULP energy per Si atom -5582.996516 kJ/mol
# Density = 2.395076 g / cm^3
# Si number density = 24.005396 Si / 1000 Ang^3
#
#
#
# Elastic Constant Matrix: (Units=GPa)
#
#
# Indices 1 2 3 4 5 6 
#
# 1 66.2074 30.8085 39.9101 0.0000 0.0000 0.0000
# 2 30.8085 81.1372 41.4507 0.0000 0.0000 0.0000
# 3 39.9101 41.4507 123.5043 0.0000 0.0000 0.0000
# 4 0.0000 0.0000 0.0000 29.6088 0.0000 0.0000
# 5 0.0000 0.0000 0.0000 0.0000 27.0735 0.0000
# 6 0.0000 0.0000 0.0000 0.0000 0.0000 46.4629
#
#
#
# Elastic Compliance Matrix: (Units=1/GPa)
#
#
# Indices 1 2 3 4 5 6 
#
# 1 0.020492 -0.005308 -0.004840 0.000000 0.000000 0.000000
# 2 -0.005308 0.016250 -0.003739 0.000000 0.000000 0.000000
# 3 -0.004840 -0.003739 0.010916 0.000000 0.000000 0.000000
# 4 0.000000 0.000000 0.000000 0.033774 0.000000 0.000000
# 5 0.000000 0.000000 0.000000 0.000000 0.036936 0.000000
# 6 0.000000 0.000000 0.000000 0.000000 0.000000 0.021523
#
#
# Mechanical properties :
#
#
# Convention : Reuss Voigt Hill
#
# Bulk Modulus (GPa) = 50.29245 55.02084 52.65664
# Shear Modulus (GPa) = 28.68733 31.20769 29.94751
#
# Velocity S-wave (km/s) = 3.46068 3.60950 3.53587
# Velocity P-wave (km/s) = 6.07983 6.35148 6.21714
#
# Compressibility (1/GPa) = 0.01988370
#
# Stress axis : x y z
#
# Youngs Moduli (GPa) = 48.79977 61.53719 91.61028
#
# Poissons Ratio (x) = 0.32665 0.44343
# Poissons Ratio (y) = 0.25904 0.34250
# Poissons Ratio (z) = 0.23621 0.23007
#
# Static dielectric constant tensor:
#      x y z
#    x 1.942700 0.000000 0.000000 
#    y 0.000000 1.941690 0.000000 
#    z 0.000000 0.000000 1.961580 
# 
# From -- ./inp_files/7523.got.cif
#   From: 2010.05.17/outbox.cif.g08.bks.cpg/sg61_4_cif.got.tgz:7523.got - 2010.06.03 15:17:17.
