data_PCOD9460780
_publ_section_title
;
Structure prediction by ZEFSAII (Michael W. Deem and Ramdas Pophale) SiO2 
 PCOD9460780
Probable space group: P B C A
;
_chemical_formula_sum "Si O2"
_cell_formula_units_Z 56
_cell_length_a 17.860290
_cell_length_b 13.206635
_cell_length_c 8.935284
_cell_angle_alpha 90.000000
_cell_angle_beta 90.000000
_cell_angle_gamma 90.000000
_cell_volume 2107.604136
_symmetry_space_group_name_H-M "P B C A"
_symmetry_group_IT_number 61
_symmetry_cell_setting 'orthorhombic'
loop_
_space_group_symop_operation_xyz
x,y,z
1/2-x,-y,1/2+z
1/2+x,1/2-y,-z
-x,1/2+y,1/2-z
-x,-y,-z
1/2+x,y,1/2-z
1/2-x,1/2+y,z
x,1/2-y,1/2+z
loop_
_atom_site_type_symbol
_atom_site_label
_atom_site_fract_x
_atom_site_fract_y
_atom_site_fract_z
Si Si1 0.995326 0.530771 0.828180
Si Si2 0.800099 0.715202 0.907500
Si Si3 0.255094 0.378295 0.400007
Si Si4 0.108926 0.865815 0.621793
Si Si5 0.308447 0.086001 0.392959
Si Si6 0.073559 0.452264 0.573369
Si Si7 0.465406 0.717919 0.538335
O O1 0.917883 0.472490 0.800875
O O2 0.990939 0.650844 0.818171
O O3 0.064726 0.483515 0.744782
O O4 0.000000 0.500000 0.000000
O O5 0.791217 0.833427 0.954924
O O6 0.783869 0.687020 0.734844
O O7 0.879761 0.677760 0.974478
O O8 0.735465 0.658445 0.995917
O O9 0.338584 0.372662 0.474968
O O10 0.244832 0.493384 0.340903
O O11 0.158374 0.837883 0.766252
O O12 0.033625 0.804232 0.577283
O O13 0.363394 0.018242 0.494997
O O14 0.052356 0.334392 0.561945
O O15 0.000000 0.500000 0.500000
#
# Coordination Sequence:
#
# PCOD9460780 Si02
#       7
#     8   8   8   8   8   8   8
#     4  10  24  46  76 118 158 216 280 341 427 494
#     4  12  29  50  86 118 172 223 287 352 443 525
#     4  12  27  52  80 123 165 227 283 359 438 516
#     4  11  26  52  83 121 174 228 293 356 431 533
#     4  12  26  54  80 126 175 223 292 357 443 520
#     4  12  27  49  82 126 172 221 284 368 429 530
#     4  11  27  54  87 121 173 229 293 351 442 529
#
# _framework density 26.570454000000002
#
# number of rings (size 3 to 8) (size 9 to 14) (size 15 to 20)
#    0.000    0.571    2.857    3.429    6.000    5.714 
#    5.143    0.000    0.000    0.000    0.000    0.000 
#    0.000    0.000    0.000    0.000    0.000    0.000 
#
# Total GULP energy -311949.528061 kJ/mol
# GULP energy per Si atom -5570.527287 kJ/mol
# Density = 2.650998 g / cm^3
# Si number density = 26.570454 Si / 1000 Ang^3
#
#
#
# Elastic Constant Matrix: (Units=GPa)
#
#
# Indices 1 2 3 4 5 6 
#
# 1 156.9638 57.8410 67.2512 0.0000 0.0000 0.0000
# 2 57.8410 136.8186 26.2155 0.0000 0.0000 0.0000
# 3 67.2512 26.2155 148.4531 0.0000 0.0000 0.0000
# 4 0.0000 0.0000 0.0000 38.0170 0.0000 0.0000
# 5 0.0000 0.0000 0.0000 0.0000 19.4705 0.0000
# 6 0.0000 0.0000 0.0000 0.0000 0.0000 32.1395
#
#
#
# Elastic Compliance Matrix: (Units=1/GPa)
#
#
# Indices 1 2 3 4 5 6 
#
# 1 0.009049 -0.003146 -0.003543 0.000000 0.000000 0.000000
# 2 -0.003146 0.008659 -0.000104 0.000000 0.000000 0.000000
# 3 -0.003543 -0.000104 0.008360 0.000000 0.000000 0.000000
# 4 0.000000 0.000000 0.000000 0.026304 0.000000 0.000000
# 5 0.000000 0.000000 0.000000 0.000000 0.051360 0.000000
# 6 0.000000 0.000000 0.000000 0.000000 0.000000 0.031114
#
#
# Mechanical properties :
#
#
# Convention : Reuss Voigt Hill
#
# Bulk Modulus (GPa) = 80.12823 82.76123 81.44473
# Shear Modulus (GPa) = 32.76698 37.32058 35.04378
#
# Velocity S-wave (km/s) = 3.51552 3.75185 3.63561
# Velocity P-wave (km/s) = 6.83380 7.06993 6.95287
#
# Compressibility (1/GPa) = 0.01248000
#
# Stress axis : x y z
#
# Youngs Moduli (GPa) = 110.51512 115.48714 119.62149
#
# Poissons Ratio (x) = 0.36336 0.42388
# Poissons Ratio (y) = 0.34772 0.01241
# Poissons Ratio (z) = 0.39161 0.01198
#
# Static dielectric constant tensor:
#      x y z
#    x 2.366960 0.000000 0.000000 
#    y 0.000000 2.131380 0.000000 
#    z 0.000000 0.000000 2.132630 
# 
# From -- ./inp_files/3963.got.cif
#   From: 2010.05.17/outbox.cif.g08.bks.cpg/sg61_2_cif.got.tgz:3963.got - 2010.06.03 15:17:17.
