data_PCOD9460523
_publ_section_title
;
Structure prediction by ZEFSAII (Michael W. Deem and Ramdas Pophale) SiO2 
 PCOD9460523
Probable space group: P B C A
;
_chemical_formula_sum "Si O2"
_cell_formula_units_Z 64
_cell_length_a 31.403156
_cell_length_b 5.596620
_cell_length_c 18.168165
_cell_angle_alpha 90.000000
_cell_angle_beta 90.000000
_cell_angle_gamma 90.000000
_cell_volume 3193.082813
_symmetry_space_group_name_H-M "P B C A"
_symmetry_group_IT_number 61
_symmetry_cell_setting 'orthorhombic'
loop_
_space_group_symop_operation_xyz
x,y,z
1/2-x,-y,1/2+z
1/2+x,1/2-y,-z
-x,1/2+y,1/2-z
-x,-y,-z
1/2+x,y,1/2-z
1/2-x,1/2+y,z
x,1/2-y,1/2+z
loop_
_atom_site_type_symbol
_atom_site_label
_atom_site_fract_x
_atom_site_fract_y
_atom_site_fract_z
Si Si1 0.441429 0.557467 0.695425
Si Si2 0.729269 0.398790 0.586067
Si Si3 0.369147 0.507029 0.409156
Si Si4 0.912801 0.010136 0.044807
Si Si5 0.987995 0.428061 0.657443
Si Si6 0.771005 0.878442 0.764656
Si Si7 0.629880 0.081728 0.263239
Si Si8 0.426941 0.339150 0.116895
O O1 0.460147 0.435511 0.768904
O O2 0.481908 0.701696 0.666116
O O3 0.401246 0.694047 0.729818
O O4 0.423381 0.443309 0.619997
O O5 0.754714 0.636781 0.560270
O O6 0.679793 0.443933 0.569586
O O7 0.733319 0.386004 0.675379
O O8 0.384443 0.247913 0.438164
O O9 0.371865 0.489775 0.320280
O O10 0.394446 0.749586 0.432511
O O11 0.956326 0.054938 0.089412
O O12 0.921118 0.024579 0.957952
O O13 0.024918 0.626424 0.647439
O O14 0.748677 0.632269 0.790631
O O15 0.821153 0.869384 0.781555
O O16 0.607325 0.911166 0.321904
#
# Coordination Sequence:
#
# PCOD9460523 Si02
#       8
#     8   8   8   8   8   8   8   8
#     4  11  22  39  65  93 125 166 224 269 323 376
#     4   9  17  34  61  92 125 154 204 266 320 373
#     4  11  24  41  66  98 126 170 214 266 323 386
#     4  12  27  42  63  94 136 170 217 264 326 384
#     4  11  23  40  63  91 124 169 223 271 316 379
#     4   9  19  34  60  98 127 156 202 267 324 375
#     4  10  23  40  68  94 128 170 218 267 322 379
#     4  11  26  42  62  92 129 180 211 272 321 385
#
# _framework density 20.043326
#
# number of rings (size 3 to 8) (size 9 to 14) (size 15 to 20)
#    0.000    1.500    2.500    1.875    8.750    2.500 
#    0.000    0.000    0.000    4.500    0.000    0.000 
#    0.000    0.000    0.000    0.000    0.000    0.000 
#
# Total GULP energy -356325.855967 kJ/mol
# GULP energy per Si atom -5567.591499 kJ/mol
# Density = 1.999771 g / cm^3
# Si number density = 20.043326 Si / 1000 Ang^3
#
#
#
# Elastic Constant Matrix: (Units=GPa)
#
#
# Indices 1 2 3 4 5 6 
#
# 1 135.6294 69.5557 6.6208 0.0000 0.0000 0.0000
# 2 69.5557 154.0337 -57.5554 0.0000 0.0000 0.0000
# 3 6.6208 -57.5554 179.4513 0.0000 0.0000 0.0000
# 4 0.0000 0.0000 0.0000 22.4643 0.0000 0.0000
# 5 0.0000 0.0000 0.0000 0.0000 -1.6264 0.0000
# 6 0.0000 0.0000 0.0000 0.0000 0.0000 30.9826
#
#
#
# Elastic Compliance Matrix: (Units=1/GPa)
#
#
# Indices 1 2 3 4 5 6 
#
# 1 0.010258 -0.005423 -0.002118 0.000000 0.000000 0.000000
# 2 -0.005423 0.010243 0.003485 0.000000 0.000000 0.000000
# 3 -0.002118 0.003485 0.006769 0.000000 0.000000 0.000000
# 4 0.000000 0.000000 0.000000 0.044515 0.000000 0.000000
# 5 0.000000 0.000000 0.000000 0.000000 -0.614853 0.000000
# 6 0.000000 0.000000 0.000000 0.000000 0.000000 0.032276
#
#
# Mechanical properties :
#
#
# Convention : Reuss Voigt Hill
#
# Bulk Modulus (GPa) = 52.19703 56.26184 54.22944
# Shear Modulus (GPa) = -10.07467 40.39699 15.16116
#
# Velocity S-wave (km/s) = -2.24441 4.49428 2.75329
# Velocity P-wave (km/s) = 4.40252 7.42041 6.10101
#
# Compressibility (1/GPa) = 0.01915818
#
# Stress axis : x y z
#
# Youngs Moduli (GPa) = 97.48775 97.62367 147.74159
#
# Poissons Ratio (x) = 0.52945 0.31290
# Poissons Ratio (y) = 0.52871 -0.51495
# Poissons Ratio (z) = 0.20647 -0.34026
#
# Static dielectric constant tensor:
#      x y z
#    x 1.677130 0.000000 0.000000 
#    y 0.000000 1.829270 0.000000 
#    z 0.000000 0.000000 1.706200 
# 
# From -- ./inp_files/9913.got.cif
#   From: 2010.05.17/outbox.cif.g08.bks.cpg/sg61_5_cif.got.tgz:9913.got - 2010.06.03 15:17:17.
