data_PCOD9460100
_publ_section_title
;
Structure prediction by ZEFSAII (Michael W. Deem and Ramdas Pophale) SiO2 
 PCOD9460100
Probable space group: P B C A
;
_chemical_formula_sum "Si O2"
_cell_formula_units_Z 56
_cell_length_a 14.061354
_cell_length_b 18.607225
_cell_length_c 8.983338
_cell_angle_alpha 90.000000
_cell_angle_beta 90.000000
_cell_angle_gamma 90.000000
_cell_volume 2350.425507
_symmetry_space_group_name_H-M "P B C A"
_symmetry_group_IT_number 61
_symmetry_cell_setting 'orthorhombic'
loop_
_space_group_symop_operation_xyz
x,y,z
1/2-x,-y,1/2+z
1/2+x,1/2-y,-z
-x,1/2+y,1/2-z
-x,-y,-z
1/2+x,y,1/2-z
1/2-x,1/2+y,z
x,1/2-y,1/2+z
loop_
_atom_site_type_symbol
_atom_site_label
_atom_site_fract_x
_atom_site_fract_y
_atom_site_fract_z
Si Si1 0.319411 0.477618 0.861143
Si Si2 0.491112 0.265242 0.584667
Si Si3 0.023166 0.855704 0.879381
Si Si4 0.707284 0.210260 0.070986
Si Si5 0.338671 0.151341 0.931417
Si Si6 0.241719 0.917875 0.155207
Si Si7 0.809660 0.605198 0.332879
O O1 0.400586 0.417262 0.838694
O O2 0.327347 0.548294 0.757455
O O3 0.217906 0.451233 0.795304
O O4 0.305258 0.474386 0.038763
O O5 0.453221 0.187826 0.530381
O O6 0.476879 0.293264 0.752651
O O7 0.601909 0.260453 0.547277
O O8 0.441606 0.329171 0.491668
O O9 0.918460 0.891442 0.885163
O O10 0.783190 0.273091 0.071744
O O11 0.706364 0.178193 0.237148
O O12 0.726303 0.148768 0.948494
O O13 0.332096 0.112152 0.775268
O O14 0.273584 0.106435 0.045454
#
# Coordination Sequence:
#
# PCOD9460100 Si02
#       7
#     8   8   8   8   8   8   8
#     4  11  24  49  65 100 140 183 234 269 351 410
#     4  11  24  38  68 102 140 178 228 290 347 398
#     4  11  24  41  68 103 139 181 232 287 339 415
#     4  10  23  42  65 104 137 174 232 285 341 396
#     4  12  22  41  68  99 137 179 226 287 345 397
#     4  11  26  45  73  97 141 189 222 288 336 416
#     4  10  21  42  65  95 138 176 222 287 331 406
#
# _framework density 23.825472999999999
#
# number of rings (size 3 to 8) (size 9 to 14) (size 15 to 20)
#    0.000    1.143    2.857    3.429    6.000    0.000 
#    2.571    3.571    0.000    0.000    0.000    0.000 
#    0.000    0.000    0.000    0.000    0.000    0.000 
#
# Total GULP energy -312766.117092 kJ/mol
# GULP energy per Si atom -5585.109234 kJ/mol
# Density = 2.377124 g / cm^3
# Si number density = 23.825473 Si / 1000 Ang^3
#
#
#
# Elastic Constant Matrix: (Units=GPa)
#
#
# Indices 1 2 3 4 5 6 
#
# 1 77.6739 0.3104 17.7226 0.0000 0.0000 0.0000
# 2 0.3104 50.9778 8.8548 0.0000 0.0000 0.0000
# 3 17.7226 8.8548 131.6436 0.0000 0.0000 0.0000
# 4 0.0000 0.0000 0.0000 48.4069 0.0000 0.0000
# 5 0.0000 0.0000 0.0000 0.0000 22.1723 0.0000
# 6 0.0000 0.0000 0.0000 0.0000 0.0000 20.6340
#
#
#
# Elastic Compliance Matrix: (Units=1/GPa)
#
#
# Indices 1 2 3 4 5 6 
#
# 1 0.013285 0.000232 -0.001804 0.000000 0.000000 0.000000
# 2 0.000232 0.019852 -0.001367 0.000000 0.000000 0.000000
# 3 -0.001804 -0.001367 0.007931 0.000000 0.000000 0.000000
# 4 0.000000 0.000000 0.000000 0.020658 0.000000 0.000000
# 5 0.000000 0.000000 0.000000 0.000000 0.045101 0.000000
# 6 0.000000 0.000000 0.000000 0.000000 0.000000 0.048464
#
#
# Mechanical properties :
#
#
# Convention : Reuss Voigt Hill
#
# Bulk Modulus (GPa) = 28.41565 34.89677 31.65621
# Shear Modulus (GPa) = 28.91862 33.80313 31.36088
#
# Velocity S-wave (km/s) = 3.48770 3.77076 3.63199
# Velocity P-wave (km/s) = 5.30765 5.79972 5.55914
#
# Compressibility (1/GPa) = 0.03519188
#
# Stress axis : x y z
#
# Youngs Moduli (GPa) = 75.27256 50.37186 126.08628
#
# Poissons Ratio (x) = -0.01171 0.22748
# Poissons Ratio (y) = -0.01750 0.17231
# Poissons Ratio (z) = 0.13580 0.06884
#
# Static dielectric constant tensor:
#      x y z
#    x 1.859440 0.000000 0.000000 
#    y 0.000000 2.039510 0.000000 
#    z 0.000000 0.000000 1.963480 
# 
# From -- ./inp_files/3070.got.cif
#   From: 2010.05.17/outbox.cif.g08.bks.cpg/sg61_2_cif.got.tgz:3070.got - 2010.06.03 15:17:17.
