data_PCOD9460213
_publ_section_title
;
Structure prediction by ZEFSAII (Michael W. Deem and Ramdas Pophale) SiO2 
 PCOD9460213
Probable space group: P B C A
;
_chemical_formula_sum "Si O2"
_cell_formula_units_Z 64
_cell_length_a 9.335677
_cell_length_b 12.071025
_cell_length_c 29.688392
_cell_angle_alpha 90.000000
_cell_angle_beta 90.000000
_cell_angle_gamma 90.000000
_cell_volume 3345.620237
_symmetry_space_group_name_H-M "P B C A"
_symmetry_group_IT_number 61
_symmetry_cell_setting 'orthorhombic'
loop_
_space_group_symop_operation_xyz
x,y,z
1/2-x,-y,1/2+z
1/2+x,1/2-y,-z
-x,1/2+y,1/2-z
-x,-y,-z
1/2+x,y,1/2-z
1/2-x,1/2+y,z
x,1/2-y,1/2+z
loop_
_atom_site_type_symbol
_atom_site_label
_atom_site_fract_x
_atom_site_fract_y
_atom_site_fract_z
Si Si1 0.169054 0.901819 0.263867
Si Si2 0.081259 0.950080 0.749778
Si Si3 0.090756 0.024006 0.543885
Si Si4 0.194337 0.764935 0.685800
Si Si5 0.648441 0.711841 0.417551
Si Si6 0.488677 0.760344 0.573160
Si Si7 0.035259 0.726284 0.325414
Si Si8 0.597942 0.607535 0.988988
O O1 0.137090 0.828914 0.219478
O O2 0.125308 0.829667 0.306742
O O3 0.332024 0.938682 0.260015
O O4 0.077582 0.013811 0.263297
O O5 0.152074 0.880571 0.709372
O O6 0.079916 0.875768 0.794227
O O7 0.019212 0.127458 0.569270
O O8 0.247354 0.060555 0.525777
O O9 0.096166 0.912344 0.572890
O O10 0.000000 0.000000 0.500000
O O11 0.138032 0.758309 0.635008
O O12 0.366146 0.753931 0.683087
O O13 0.819264 0.707949 0.429822
O O14 0.569404 0.804291 0.448264
O O15 0.548990 0.793636 0.621685
O O16 0.579583 0.816524 0.533472
O O17 0.500000 0.500000 0.000000
#
# Coordination Sequence:
#
# PCOD9460213 Si02
#       8
#     8   8   8   8   8   8   8   8
#     4  11  22  39  63  91 123 163 199 255 311 362
#     4  11  22  39  63  87 126 160 200 254 313 360
#     4  11  22  40  66  88 125 163 207 257 307 369
#     4  10  22  38  64  92 120 162 215 249 298 374
#     4  10  22  39  65  96 118 164 217 250 305 380
#     4  10  22  41  63  91 124 164 210 256 310 370
#     4  10  22  40  60  92 122 159 211 254 301 374
#     4  11  22  40  64  91 126 158 202 262 314 365
#
# _framework density 19.129487000000001
#
# number of rings (size 3 to 8) (size 9 to 14) (size 15 to 20)
#    0.000    1.500    5.000    0.000    1.750    2.000 
#    2.250    1.250    0.000    0.000    0.000    0.000 
#    0.000    0.000    0.000    0.000    0.000    0.000 
#
# Total GULP energy -357001.189312 kJ/mol
# GULP energy per Si atom -5578.143583 kJ/mol
# Density = 1.908595 g / cm^3
# Si number density = 19.129487 Si / 1000 Ang^3
#
#
#
# Elastic Constant Matrix: (Units=GPa)
#
#
# Indices 1 2 3 4 5 6 
#
# 1 25.6351 7.2116 18.1391 0.0000 0.0000 0.0000
# 2 7.2116 97.7814 37.6354 0.0000 0.0000 0.0000
# 3 18.1391 37.6354 127.6666 0.0000 0.0000 0.0000
# 4 0.0000 0.0000 0.0000 11.6873 0.0000 0.0000
# 5 0.0000 0.0000 0.0000 0.0000 27.1803 0.0000
# 6 0.0000 0.0000 0.0000 0.0000 0.0000 30.6190
#
#
#
# Elastic Compliance Matrix: (Units=1/GPa)
#
#
# Indices 1 2 3 4 5 6 
#
# 1 0.043445 -0.000934 -0.005897 0.000000 0.000000 0.000000
# 2 -0.000934 0.011556 -0.003274 0.000000 0.000000 0.000000
# 3 -0.005897 -0.003274 0.009636 0.000000 0.000000 0.000000
# 4 0.000000 0.000000 0.000000 0.085563 0.000000 0.000000
# 5 0.000000 0.000000 0.000000 0.000000 0.036791 0.000000
# 6 0.000000 0.000000 0.000000 0.000000 0.000000 0.032659
#
#
# Mechanical properties :
#
#
# Convention : Reuss Voigt Hill
#
# Bulk Modulus (GPa) = 22.50958 41.89507 32.20233
# Shear Modulus (GPa) = 19.63326 26.43712 23.03519
#
# Velocity S-wave (km/s) = 3.20712 3.72157 3.47388
# Velocity P-wave (km/s) = 5.05041 6.35729 5.74116
#
# Compressibility (1/GPa) = 0.04442553
#
# Stress axis : x y z
#
# Youngs Moduli (GPa) = 23.01778 86.53595 103.77841
#
# Poissons Ratio (x) = 0.08085 0.61201
# Poissons Ratio (y) = 0.02151 0.33976
# Poissons Ratio (z) = 0.13574 0.28331
#
# Static dielectric constant tensor:
#      x y z
#    x 1.624070 0.000000 0.000000 
#    y 0.000000 1.668000 0.000000 
#    z 0.000000 0.000000 1.626460 
# 
# From -- ./inp_files/2426.got.cif
#   From: 2010.05.17/outbox.cif.g08.bks.cpg/sg61_2_cif.got.tgz:2426.got - 2010.06.03 15:17:17.
