data_PCOD9460343
_publ_section_title
;
Structure prediction by ZEFSAII (Michael W. Deem and Ramdas Pophale) SiO2 
 PCOD9460343
Probable space group: P B C A
;
_chemical_formula_sum "Si O2"
_cell_formula_units_Z 64
_cell_length_a 9.506687
_cell_length_b 10.732049
_cell_length_c 26.746761
_cell_angle_alpha 90.000000
_cell_angle_beta 90.000000
_cell_angle_gamma 90.000000
_cell_volume 2728.871209
_symmetry_space_group_name_H-M "P B C A"
_symmetry_group_IT_number 61
_symmetry_cell_setting 'orthorhombic'
loop_
_space_group_symop_operation_xyz
x,y,z
1/2-x,-y,1/2+z
1/2+x,1/2-y,-z
-x,1/2+y,1/2-z
-x,-y,-z
1/2+x,y,1/2-z
1/2-x,1/2+y,z
x,1/2-y,1/2+z
loop_
_atom_site_type_symbol
_atom_site_label
_atom_site_fract_x
_atom_site_fract_y
_atom_site_fract_z
Si Si1 0.462484 0.568459 0.596600
Si Si2 0.233079 0.415143 0.252580
Si Si3 0.943187 0.478663 0.663341
Si Si4 0.206364 0.890807 0.476086
Si Si5 0.132900 0.621776 0.441303
Si Si6 0.743358 0.437623 0.839206
Si Si7 0.815656 0.712521 0.430630
Si Si8 0.491320 0.207579 0.804346
O O1 0.576887 0.546917 0.554002
O O2 0.388520 0.472679 0.633562
O O3 0.335386 0.639937 0.568242
O O4 0.531571 0.659368 0.638791
O O5 0.146736 0.429380 0.303585
O O6 0.239759 0.542278 0.219815
O O7 0.383512 0.363625 0.268119
O O8 0.144918 0.326510 0.216139
O O9 0.859863 0.431719 0.615010
O O10 0.967725 0.354290 0.695994
O O11 0.102105 0.521852 0.650105
O O12 0.220016 0.750266 0.451563
O O13 0.199746 0.849503 0.534125
O O14 0.322275 0.999620 0.472186
O O15 0.969162 0.661717 0.448000
O O16 0.703691 0.318942 0.872467
#
# Coordination Sequence:
#
# PCOD9460343 Si02
#       8
#     8   8   8   8   8   8   8   8
#     4  10  22  43  64  94 140 171 230 299 344 418
#     4  11  24  38  69  99 127 182 231 280 346 432
#     4  11  22  43  67  93 141 177 227 287 359 412
#     4  11  22  43  70 102 131 185 235 290 358 424
#     4  10  23  44  68  97 141 179 227 295 352 426
#     4  10  22  42  61  93 131 184 219 284 351 414
#     4  10  22  42  69  91 141 181 224 291 366 416
#     4  11  22  41  66  95 137 174 226 290 347 412
#
# _framework density 23.452921
#
# number of rings (size 3 to 8) (size 9 to 14) (size 15 to 20)
#    0.000    1.500    5.000    1.125    3.500    0.500 
#    4.500    0.000    0.000    0.000    0.000    0.000 
#    0.000    0.000    0.000    0.000    0.000    0.000 
#
# Total GULP energy -356508.945468 kJ/mol
# GULP energy per Si atom -5570.452273 kJ/mol
# Density = 2.339954 g / cm^3
# Si number density = 23.452921 Si / 1000 Ang^3
#
#
#
# Elastic Constant Matrix: (Units=GPa)
#
#
# Indices 1 2 3 4 5 6 
#
# 1 58.8393 6.6702 23.7573 0.0000 0.0000 0.0000
# 2 6.6702 36.6822 10.9953 0.0000 0.0000 0.0000
# 3 23.7573 10.9953 105.2826 0.0000 0.0000 0.0000
# 4 0.0000 0.0000 0.0000 32.0329 0.0000 0.0000
# 5 0.0000 0.0000 0.0000 0.0000 36.3220 0.0000
# 6 0.0000 0.0000 0.0000 0.0000 0.0000 22.2112
#
#
#
# Elastic Compliance Matrix: (Units=1/GPa)
#
#
# Indices 1 2 3 4 5 6 
#
# 1 0.018873 -0.002225 -0.004026 0.000000 0.000000 0.000000
# 2 -0.002225 0.028404 -0.002464 0.000000 0.000000 0.000000
# 3 -0.004026 -0.002464 0.010664 0.000000 0.000000 0.000000
# 4 0.000000 0.000000 0.000000 0.031218 0.000000 0.000000
# 5 0.000000 0.000000 0.000000 0.000000 0.027532 0.000000
# 6 0.000000 0.000000 0.000000 0.000000 0.000000 0.045022
#
#
# Mechanical properties :
#
#
# Convention : Reuss Voigt Hill
#
# Bulk Modulus (GPa) = 24.68501 31.51664 28.10082
# Shear Modulus (GPa) = 25.95394 28.73865 27.34630
#
# Velocity S-wave (km/s) = 3.33023 3.50433 3.41839
# Velocity P-wave (km/s) = 5.03343 5.46271 5.25246
#
# Compressibility (1/GPa) = 0.04051041
#
# Stress axis : x y z
#
# Youngs Moduli (GPa) = 52.98458 35.20572 93.77171
#
# Poissons Ratio (x) = 0.07833 0.37757
# Poissons Ratio (y) = 0.11789 0.23109
# Poissons Ratio (z) = 0.21334 0.08676
#
# Static dielectric constant tensor:
#      x y z
#    x 1.952120 0.000000 0.000000 
#    y 0.000000 1.960320 0.000000 
#    z 0.000000 0.000000 1.892450 
# 
# From -- ./inp_files/11749.got.cif
#   From: 2010.05.17/outbox.cif.g08.bks.cpg/sg61_6_cif.got.tgz:11749.got - 2010.06.03 15:17:17.
