data_PCOD9460335
_publ_section_title
;
Structure prediction by ZEFSAII (Michael W. Deem and Ramdas Pophale) SiO2 
 PCOD9460335
Probable space group: P B C A
;
_chemical_formula_sum "Si O2"
_cell_formula_units_Z 56
_cell_length_a 14.971866
_cell_length_b 30.478313
_cell_length_c 5.050553
_cell_angle_alpha 90.000000
_cell_angle_beta 90.000000
_cell_angle_gamma 90.000000
_cell_volume 2304.654295
_symmetry_space_group_name_H-M "P B C A"
_symmetry_group_IT_number 61
_symmetry_cell_setting 'orthorhombic'
loop_
_space_group_symop_operation_xyz
x,y,z
1/2-x,-y,1/2+z
1/2+x,1/2-y,-z
-x,1/2+y,1/2-z
-x,-y,-z
1/2+x,y,1/2-z
1/2-x,1/2+y,z
x,1/2-y,1/2+z
loop_
_atom_site_type_symbol
_atom_site_label
_atom_site_fract_x
_atom_site_fract_y
_atom_site_fract_z
Si Si1 0.044695 0.523124 0.752963
Si Si2 0.858249 0.337603 0.236304
Si Si3 0.856867 0.610001 0.333744
Si Si4 0.497620 0.778628 0.963580
Si Si5 0.328239 0.832418 0.150357
Si Si6 0.049976 0.900883 0.919687
Si Si7 0.809131 0.067760 0.482486
O O1 0.021358 0.573714 0.687471
O O2 0.000000 0.500000 0.500000
O O3 0.000000 0.500000 0.000000
O O4 0.149481 0.529908 0.832509
O O5 0.768116 0.311123 0.295705
O O6 0.924868 0.311805 0.049771
O O7 0.910776 0.354482 0.494254
O O8 0.824040 0.383641 0.109697
O O9 0.860330 0.644049 0.579683
O O10 0.958844 0.600836 0.258583
O O11 0.795780 0.568682 0.417787
O O12 0.811451 0.631539 0.078457
O O13 0.504134 0.737483 0.164095
O O14 0.403334 0.801045 0.033144
O O15 0.126572 0.928846 0.773988
#
# Coordination Sequence:
#
# PCOD9460335 Si02
#       7
#     8   8   8   8   8   8   8
#     4  11  23  41  65  92 137 177 207 264 328 389
#     4  10  23  41  68  95 126 175 225 273 327 394
#     4  11  23  38  69  98 127 162 226 283 315 382
#     4  12  27  42  63  94 134 173 213 272 338 407
#     4  11  23  42  64  93 130 166 218 280 328 381
#     4  11  21  41  70  97 125 175 227 266 331 388
#     4  10  22  41  69 101 127 172 228 272 325 392
#
# _framework density 24.298653999999999
#
# number of rings (size 3 to 8) (size 9 to 14) (size 15 to 20)
#    0.000    1.143    4.286    1.714    4.000    1.143 
#    0.000    1.429    0.000    0.000    0.000    0.000 
#    0.000    0.000    0.000    0.000    0.000    0.000 
#
# Total GULP energy -312938.306140 kJ/mol
# GULP energy per Si atom -5588.184038 kJ/mol
# Density = 2.424335 g / cm^3
# Si number density = 24.298654 Si / 1000 Ang^3
#
#
#
# Elastic Constant Matrix: (Units=GPa)
#
#
# Indices 1 2 3 4 5 6 
#
# 1 97.1987 1.8850 -8.5682 0.0000 0.0000 0.0000
# 2 1.8850 44.1319 7.7034 0.0000 0.0000 0.0000
# 3 -8.5682 7.7034 113.8252 0.0000 0.0000 0.0000
# 4 0.0000 0.0000 0.0000 45.5471 0.0000 0.0000
# 5 0.0000 0.0000 0.0000 0.0000 26.3338 0.0000
# 6 0.0000 0.0000 0.0000 0.0000 0.0000 23.7442
#
#
#
# Elastic Compliance Matrix: (Units=1/GPa)
#
#
# Indices 1 2 3 4 5 6 
#
# 1 0.010372 -0.000586 0.000820 0.000000 0.000000 0.000000
# 2 -0.000586 0.022963 -0.001598 0.000000 0.000000 0.000000
# 3 0.000820 -0.001598 0.008955 0.000000 0.000000 0.000000
# 4 0.000000 0.000000 0.000000 0.021955 0.000000 0.000000
# 5 0.000000 0.000000 0.000000 0.000000 0.037974 0.000000
# 6 0.000000 0.000000 0.000000 0.000000 0.000000 0.042115
#
#
# Mechanical properties :
#
#
# Convention : Reuss Voigt Hill
#
# Bulk Modulus (GPa) = 25.27646 28.57736 26.92691
# Shear Modulus (GPa) = 31.20105 36.06739 33.63422
#
# Velocity S-wave (km/s) = 3.58727 3.85689 3.72452
# Velocity P-wave (km/s) = 5.25195 5.62321 5.44075
#
# Compressibility (1/GPa) = 0.03956250
#
# Stress axis : x y z
#
# Youngs Moduli (GPa) = 96.41439 43.54759 111.66543
#
# Poissons Ratio (x) = 0.02553 -0.09161
# Poissons Ratio (y) = 0.05652 0.17847
# Poissons Ratio (z) = -0.07910 0.06960
#
# Static dielectric constant tensor:
#      x y z
#    x 2.035500 0.000000 0.000000 
#    y 0.000000 1.980700 0.000000 
#    z 0.000000 0.000000 -2.742580 
# 
# From -- ./inp_files/585.got.cif
#   From: 2010.05.17/outbox.cif.g08.bks.cpg/sg61_1_cif.got.tgz:585.got - 2010.06.03 15:17:17.
