data_PCOD9460754
_publ_section_title
;
Structure prediction by ZEFSAII (Michael W. Deem and Ramdas Pophale) SiO2 
 PCOD9460754
Probable space group: P B C A
;
_chemical_formula_sum "Si O2"
_cell_formula_units_Z 56
_cell_length_a 21.089960
_cell_length_b 8.460137
_cell_length_c 13.527942
_cell_angle_alpha 90.000000
_cell_angle_beta 90.000000
_cell_angle_gamma 90.000000
_cell_volume 2413.708860
_symmetry_space_group_name_H-M "P B C A"
_symmetry_group_IT_number 61
_symmetry_cell_setting 'orthorhombic'
loop_
_space_group_symop_operation_xyz
x,y,z
1/2-x,-y,1/2+z
1/2+x,1/2-y,-z
-x,1/2+y,1/2-z
-x,-y,-z
1/2+x,y,1/2-z
1/2-x,1/2+y,z
x,1/2-y,1/2+z
loop_
_atom_site_type_symbol
_atom_site_label
_atom_site_fract_x
_atom_site_fract_y
_atom_site_fract_z
Si Si1 0.563618 0.287184 0.036215
Si Si2 0.663021 0.733423 0.066745
Si Si3 0.731571 0.481166 0.647134
Si Si4 0.840195 0.709683 0.721662
Si Si5 0.560825 0.774995 0.732630
Si Si6 0.555730 0.091380 0.860498
Si Si7 0.922476 0.407607 0.410142
O O1 0.557816 0.120968 0.978150
O O2 0.586233 0.420401 0.957429
O O3 0.610736 0.283941 0.128923
O O4 0.494755 0.351090 0.069324
O O5 0.727203 0.632787 0.076771
O O6 0.683065 0.911779 0.086657
O O7 0.613558 0.678569 0.152335
O O8 0.626507 0.705152 0.966189
O O9 0.783325 0.590687 0.698542
O O10 0.693634 0.377910 0.725854
O O11 0.878571 0.652588 0.815421
O O12 0.498943 0.711483 0.677119
O O13 0.585766 0.625582 0.795138
O O14 0.546363 0.920897 0.807397
#
# Coordination Sequence:
#
# PCOD9460754 Si02
#       7
#     8   8   8   8   8   8   8
#     4  11  23  41  67  99 133 166 210 273 334 386
#     4  11  23  47  68  95 134 174 225 260 329 390
#     4  10  24  44  72  88 132 190 214 264 312 396
#     4  11  23  47  68  95 134 174 225 260 329 390
#     4  12  25  41  67 102 133 168 217 276 336 391
#     4  12  25  41  67 102 133 168 217 276 336 391
#     4  11  23  41  67  99 133 166 210 273 334 386
#
# _framework density 23.200811000000002
#
# number of rings (size 3 to 8) (size 9 to 14) (size 15 to 20)
#    0.000    0.857    5.714    0.857    6.000    0.571 
#    0.000    8.571    0.000    0.000    0.000    0.000 
#    0.000    0.000    0.000    0.000    0.000    0.000 
#
# Total GULP energy -313424.176587 kJ/mol
# GULP energy per Si atom -5596.860296 kJ/mol
# Density = 2.314800 g / cm^3
# Si number density = 23.200811 Si / 1000 Ang^3
#
#
#
# Elastic Constant Matrix: (Units=GPa)
#
#
# Indices 1 2 3 4 5 6 
#
# 1 69.2745 31.2013 -5.3036 0.0000 0.0000 0.0000
# 2 31.2013 68.2476 -13.0999 0.0000 0.0000 0.0000
# 3 -5.3036 -13.0999 41.2606 0.0000 0.0000 0.0000
# 4 0.0000 0.0000 0.0000 28.7940 0.0000 0.0000
# 5 0.0000 0.0000 0.0000 0.0000 16.7360 0.0000
# 6 0.0000 0.0000 0.0000 0.0000 0.0000 43.3219
#
#
#
# Elastic Compliance Matrix: (Units=1/GPa)
#
#
# Indices 1 2 3 4 5 6 
#
# 1 0.018183 -0.008374 -0.000322 0.000000 0.000000 0.000000
# 2 -0.008374 0.019460 0.005102 0.000000 0.000000 0.000000
# 3 -0.000322 0.005102 0.025815 0.000000 0.000000 0.000000
# 4 0.000000 0.000000 0.000000 0.034729 0.000000 0.000000
# 5 0.000000 0.000000 0.000000 0.000000 0.059751 0.000000
# 6 0.000000 0.000000 0.000000 0.000000 0.000000 0.023083
#
#
# Mechanical properties :
#
#
# Convention : Reuss Voigt Hill
#
# Bulk Modulus (GPa) = 17.77151 22.70869 20.24010
# Shear Modulus (GPa) = 24.15857 28.83607 26.49732
#
# Velocity S-wave (km/s) = 3.23039 3.52929 3.38314
# Velocity P-wave (km/s) = 4.64655 5.13975 4.89936
#
# Compressibility (1/GPa) = 0.05626985
#
# Stress axis : x y z
#
# Youngs Moduli (GPa) = 54.99780 51.38626 38.73760
#
# Poissons Ratio (x) = 0.43033 0.01246
# Poissons Ratio (y) = 0.46057 -0.19764
# Poissons Ratio (z) = 0.01769 -0.26218
#
# Static dielectric constant tensor:
#      x y z
#    x 1.818160 0.000000 0.000000 
#    y 0.000000 1.946070 0.000000 
#    z 0.000000 0.000000 1.856180 
# 
# From -- ./inp_files/8369.got.cif
#   From: 2010.05.17/outbox.cif.g08.bks.cpg/sg61_5_cif.got.tgz:8369.got - 2010.06.03 15:17:17.
