data_PCOD9460545
_publ_section_title
;
Structure prediction by ZEFSAII (Michael W. Deem and Ramdas Pophale) SiO2 
 PCOD9460545
Probable space group: P B C A
;
_chemical_formula_sum "Si O2"
_cell_formula_units_Z 64
_cell_length_a 18.440863
_cell_length_b 8.061709
_cell_length_c 20.365638
_cell_angle_alpha 90.000000
_cell_angle_beta 90.000000
_cell_angle_gamma 90.000000
_cell_volume 3027.654950
_symmetry_space_group_name_H-M "P B C A"
_symmetry_group_IT_number 61
_symmetry_cell_setting 'orthorhombic'
loop_
_space_group_symop_operation_xyz
x,y,z
1/2-x,-y,1/2+z
1/2+x,1/2-y,-z
-x,1/2+y,1/2-z
-x,-y,-z
1/2+x,y,1/2-z
1/2-x,1/2+y,z
x,1/2-y,1/2+z
loop_
_atom_site_type_symbol
_atom_site_label
_atom_site_fract_x
_atom_site_fract_y
_atom_site_fract_z
Si Si1 0.328979 0.075610 0.877541
Si Si2 0.665156 0.697262 0.767953
Si Si3 0.706248 0.910279 0.559198
Si Si4 0.822095 0.660128 0.946683
Si Si5 0.315126 0.828491 0.683127
Si Si6 0.524774 0.437069 0.572518
Si Si7 0.900209 0.509878 0.836245
Si Si8 0.064301 0.382464 0.474849
O O1 0.348547 0.144916 0.806692
O O2 0.316877 0.226044 0.926400
O O3 0.254025 0.975179 0.879724
O O4 0.392574 0.972651 0.910045
O O5 0.663880 0.519959 0.806355
O O6 0.745520 0.776302 0.774594
O O7 0.614050 0.845105 0.794408
O O8 0.762033 0.897660 0.498140
O O9 0.633528 0.015862 0.550831
O O10 0.793890 0.791027 0.892448
O O11 0.849185 0.508344 0.901528
O O12 0.893038 0.754660 0.976209
O O13 0.376364 0.685817 0.696243
O O14 0.500000 0.500000 0.500000
O O15 0.478587 0.515561 0.631159
O O16 0.521270 0.238684 0.574003
O O17 0.000000 0.500000 0.500000
#
# Coordination Sequence:
#
# PCOD9460545 Si02
#       8
#     8   8   8   8   8   8   8   8
#     4  12  26  45  72 102 143 191 245 298 368 446
#     4  12  24  46  68 103 138 195 245 303 359 436
#     4  12  24  44  71 107 144 185 242 306 369 452
#     4  10  23  43  67 108 140 182 244 297 375 428
#     4  10  23  41  71  99 137 182 241 298 356 431
#     4  12  23  50  69 101 148 184 232 311 375 434
#     4  10  25  43  70 101 144 188 238 303 361 440
#     4  12  26  41  70 112 147 188 231 297 389 448
#
# _framework density 21.138472
#
# number of rings (size 3 to 8) (size 9 to 14) (size 15 to 20)
#    0.750    0.000    5.000    1.500    5.250    1.000 
#    2.250    0.000    0.000    0.000    0.000    0.000 
#    0.000    0.000    0.000    0.000    0.000    0.000 
#
# Total GULP energy -356752.480016 kJ/mol
# GULP energy per Si atom -5574.257500 kJ/mol
# Density = 2.109036 g / cm^3
# Si number density = 21.138472 Si / 1000 Ang^3
#
#
#
# Elastic Constant Matrix: (Units=GPa)
#
#
# Indices 1 2 3 4 5 6 
#
# 1 90.6201 19.1732 3.9465 0.0000 0.0000 0.0000
# 2 19.1732 100.1772 0.9591 0.0000 0.0000 0.0000
# 3 3.9465 0.9591 60.4838 0.0000 0.0000 0.0000
# 4 0.0000 0.0000 0.0000 36.5886 0.0000 0.0000
# 5 0.0000 0.0000 0.0000 0.0000 23.9676 0.0000
# 6 0.0000 0.0000 0.0000 0.0000 0.0000 50.8756
#
#
#
# Elastic Compliance Matrix: (Units=1/GPa)
#
#
# Indices 1 2 3 4 5 6 
#
# 1 0.011532 -0.002200 -0.000718 0.000000 0.000000 0.000000
# 2 -0.002200 0.010404 -0.000021 0.000000 0.000000 0.000000
# 3 -0.000718 -0.000021 0.016581 0.000000 0.000000 0.000000
# 4 0.000000 0.000000 0.000000 0.027331 0.000000 0.000000
# 5 0.000000 0.000000 0.000000 0.000000 0.041723 0.000000
# 6 0.000000 0.000000 0.000000 0.000000 0.000000 0.019656
#
#
# Mechanical properties :
#
#
# Convention : Reuss Voigt Hill
#
# Bulk Modulus (GPa) = 30.63952 33.27096 31.95524
# Shear Modulus (GPa) = 34.72627 37.43319 36.07973
#
# Velocity S-wave (km/s) = 4.05754 4.21272 4.13586
# Velocity P-wave (km/s) = 6.03968 6.27984 6.16093
#
# Compressibility (1/GPa) = 0.03263758
#
# Stress axis : x y z
#
# Youngs Moduli (GPa) = 86.71633 96.12029 60.31178
#
# Poissons Ratio (x) = 0.21149 0.04328
# Poissons Ratio (y) = 0.19080 0.00129
# Poissons Ratio (z) = 0.06222 0.00206
#
# Static dielectric constant tensor:
#      x y z
#    x 1.669110 0.000000 0.000000 
#    y 0.000000 1.795190 0.000000 
#    z 0.000000 0.000000 1.813070 
# 
# From -- ./inp_files/10547.got.cif
#   From: 2010.05.17/outbox.cif.g08.bks.cpg/sg61_6_cif.got.tgz:10547.got - 2010.06.03 15:17:17.
