data_PCOD9460257
_publ_section_title
;
Structure prediction by ZEFSAII (Michael W. Deem and Ramdas Pophale) SiO2 
 PCOD9460257
Probable space group: P B C A
;
_chemical_formula_sum "Si O2"
_cell_formula_units_Z 40
_cell_length_a 14.007096
_cell_length_b 9.964149
_cell_length_c 12.756514
_cell_angle_alpha 90.000000
_cell_angle_beta 90.000000
_cell_angle_gamma 90.000000
_cell_volume 1780.411244
_symmetry_space_group_name_H-M "P B C A"
_symmetry_group_IT_number 61
_symmetry_cell_setting 'orthorhombic'
loop_
_space_group_symop_operation_xyz
x,y,z
1/2-x,-y,1/2+z
1/2+x,1/2-y,-z
-x,1/2+y,1/2-z
-x,-y,-z
1/2+x,y,1/2-z
1/2-x,1/2+y,z
x,1/2-y,1/2+z
loop_
_atom_site_type_symbol
_atom_site_label
_atom_site_fract_x
_atom_site_fract_y
_atom_site_fract_z
Si Si1 0.535311 0.678127 0.095501
Si Si2 0.340471 0.823069 0.144274
Si Si3 0.243178 0.571341 0.034276
Si Si4 0.195763 0.665360 0.812861
Si Si5 0.923026 0.079773 0.888897
O O1 0.448655 0.773059 0.133994
O O2 0.636279 0.708599 0.146833
O O3 0.505124 0.528420 0.126141
O O4 0.541877 0.693590 0.968719
O O5 0.298388 0.810327 0.261249
O O6 0.270509 0.719743 0.078776
O O7 0.324689 0.975029 0.103768
O O8 0.205554 0.576992 0.916576
O O9 0.344205 0.497430 0.041825
O O10 0.129734 0.610421 0.718836
#
# Coordination Sequence:
#
# PCOD9460257 Si02
#       5
#     8   8   8   8   8
#     4  10  22  40  61  88 127 164 205 263 311 367
#     4  10  24  41  62  95 129 164 209 258 311 370
#     4  10  22  41  62  88 127 162 203 260 309 367
#     4  11  22  38  65  92 119 168 213 250 311 377
#     4   9  22  40  58  90 128 162 206 260 316 368
#
# _framework density 22.466719000000001
#
# number of rings (size 3 to 8) (size 9 to 14) (size 15 to 20)
#    0.000    2.000    0.000    2.400    0.000   18.400 
#    0.000    0.000    0.000    0.000    0.000    0.000 
#    0.000    0.000    0.000    0.000    0.000    0.000 
#
# Total GULP energy -223250.220388 kJ/mol
# GULP energy per Si atom -5581.255510 kJ/mol
# Density = 2.241558 g / cm^3
# Si number density = 22.466719 Si / 1000 Ang^3
#
#
#
# Elastic Constant Matrix: (Units=GPa)
#
#
# Indices 1 2 3 4 5 6 
#
# 1 40.0184 3.5668 16.0532 0.0000 0.0000 0.0000
# 2 3.5668 35.0469 22.4271 0.0000 0.0000 0.0000
# 3 16.0532 22.4271 96.7504 0.0000 0.0000 0.0000
# 4 0.0000 0.0000 0.0000 5.1348 0.0000 0.0000
# 5 0.0000 0.0000 0.0000 0.0000 39.9756 0.0000
# 6 0.0000 0.0000 0.0000 0.0000 0.0000 37.6736
#
#
#
# Elastic Compliance Matrix: (Units=1/GPa)
#
#
# Indices 1 2 3 4 5 6 
#
# 1 0.026771 0.000138 -0.004474 0.000000 0.000000 0.000000
# 2 0.000138 0.033504 -0.007789 0.000000 0.000000 0.000000
# 3 -0.004474 -0.007789 0.012884 0.000000 0.000000 0.000000
# 4 0.000000 0.000000 0.000000 0.194750 0.000000 0.000000
# 5 0.000000 0.000000 0.000000 0.000000 0.025015 0.000000
# 6 0.000000 0.000000 0.000000 0.000000 0.000000 0.026544
#
#
# Mechanical properties :
#
#
# Convention : Reuss Voigt Hill
#
# Bulk Modulus (GPa) = 20.44627 28.43443 24.44035
# Shear Modulus (GPa) = 13.88814 25.20804 19.54809
#
# Velocity S-wave (km/s) = 2.48899 3.35329 2.95293
# Velocity P-wave (km/s) = 4.16900 5.26084 4.74642
#
# Compressibility (1/GPa) = 0.04890867
#
# Stress axis : x y z
#
# Youngs Moduli (GPa) = 37.35401 29.84758 77.61690
#
# Poissons Ratio (x) = -0.00413 0.34726
# Poissons Ratio (y) = -0.00517 0.60458
# Poissons Ratio (z) = 0.16712 0.23249
#
# Static dielectric constant tensor:
#      x y z
#    x 1.835390 0.000000 0.000000 
#    y 0.000000 1.902030 0.000000 
#    z 0.000000 0.000000 1.875280 
# 
# From -- ./inp_files/5125.got.cif
#   From: 2010.05.17/outbox.cif.g08.bks.cpg/sg61_3_cif.got.tgz:5125.got - 2010.06.03 15:17:17.
