data_PCOD9460743
_publ_section_title
;
Structure prediction by ZEFSAII (Michael W. Deem and Ramdas Pophale) SiO2 
 PCOD9460743
Probable space group: P B C A
;
_chemical_formula_sum "Si O2"
_cell_formula_units_Z 56
_cell_length_a 14.722551
_cell_length_b 18.729764
_cell_length_c 9.273435
_cell_angle_alpha 90.000000
_cell_angle_beta 90.000000
_cell_angle_gamma 90.000000
_cell_volume 2557.148827
_symmetry_space_group_name_H-M "P B C A"
_symmetry_group_IT_number 61
_symmetry_cell_setting 'orthorhombic'
loop_
_space_group_symop_operation_xyz
x,y,z
1/2-x,-y,1/2+z
1/2+x,1/2-y,-z
-x,1/2+y,1/2-z
-x,-y,-z
1/2+x,y,1/2-z
1/2-x,1/2+y,z
x,1/2-y,1/2+z
loop_
_atom_site_type_symbol
_atom_site_label
_atom_site_fract_x
_atom_site_fract_y
_atom_site_fract_z
Si Si1 0.975313 0.842472 0.467485
Si Si2 0.339130 0.534671 0.466174
Si Si3 0.629111 0.554580 0.091401
Si Si4 0.579688 0.228853 0.695118
Si Si5 0.354417 0.102853 0.127515
Si Si6 0.562167 0.006033 0.324939
Si Si7 0.844048 0.655609 0.424140
O O1 0.884632 0.890236 0.490487
O O2 0.979387 0.818720 0.302762
O O3 0.971259 0.776341 0.577343
O O4 0.063370 0.882178 0.522568
O O5 0.236368 0.537836 0.406232
O O6 0.336072 0.481270 0.600813
O O7 0.403818 0.505878 0.337973
O O8 0.619815 0.618250 0.206396
O O9 0.546097 0.505093 0.150862
O O10 0.604813 0.556206 0.923058
O O11 0.628747 0.283760 0.806639
O O12 0.638617 0.179602 0.588480
O O13 0.262146 0.141585 0.091213
O O14 0.601421 0.082461 0.385607
#
# Coordination Sequence:
#
# PCOD9460743 Si02
#       7
#     8   8   8   8   8   8   8
#     4  11  24  43  67  95 131 174 221 275 325 396
#     4  12  22  41  64 101 135 169 212 274 338 399
#     4  11  22  38  63  95 134 171 203 262 333 399
#     4  10  24  44  66  87 129 179 225 277 318 384
#     4  12  24  40  69  98 132 171 216 275 341 399
#     4  11  23  38  62  93 136 172 208 260 333 399
#     4  11  22  44  63  94 128 174 224 272 326 392
#
# _framework density 21.89939
#
# number of rings (size 3 to 8) (size 9 to 14) (size 15 to 20)
#    0.000    0.857    5.714    0.429    2.000    3.429 
#    0.000    5.714    0.000    0.000    0.000    0.000 
#    0.000    0.000    0.000    0.000    0.000    0.000 
#
# Total GULP energy -312361.712096 kJ/mol
# GULP energy per Si atom -5577.887716 kJ/mol
# Density = 2.184955 g / cm^3
# Si number density = 21.899390 Si / 1000 Ang^3
#
#
#
# Elastic Constant Matrix: (Units=GPa)
#
#
# Indices 1 2 3 4 5 6 
#
# 1 90.4598 24.2587 11.6790 0.0000 0.0000 0.0000
# 2 24.2587 41.7403 38.5966 0.0000 0.0000 0.0000
# 3 11.6790 38.5966 134.3819 0.0000 0.0000 0.0000
# 4 0.0000 0.0000 0.0000 30.0731 0.0000 0.0000
# 5 0.0000 0.0000 0.0000 0.0000 13.3236 0.0000
# 6 0.0000 0.0000 0.0000 0.0000 0.0000 12.4185
#
#
#
# Elastic Compliance Matrix: (Units=1/GPa)
#
#
# Indices 1 2 3 4 5 6 
#
# 1 0.013300 -0.009069 0.001449 0.000000 0.000000 0.000000
# 2 -0.009069 0.038806 -0.010357 0.000000 0.000000 0.000000
# 3 0.001449 -0.010357 0.010290 0.000000 0.000000 0.000000
# 4 0.000000 0.000000 0.000000 0.033252 0.000000 0.000000
# 5 0.000000 0.000000 0.000000 0.000000 0.075055 0.000000
# 6 0.000000 0.000000 0.000000 0.000000 0.000000 0.080525
#
#
# Mechanical properties :
#
#
# Convention : Reuss Voigt Hill
#
# Bulk Modulus (GPa) = 37.82101 46.18342 42.00222
# Shear Modulus (GPa) = 16.89203 23.96622 20.42913
#
# Velocity S-wave (km/s) = 2.78033 3.31173 3.05759
# Velocity P-wave (km/s) = 5.25498 5.97981 5.62907
#
# Compressibility (1/GPa) = 0.02644033
#
# Stress axis : x y z
#
# Youngs Moduli (GPa) = 75.18950 25.76915 97.17816
#
# Poissons Ratio (x) = 0.23371 -0.14081
# Poissons Ratio (y) = 0.68193 1.00652
# Poissons Ratio (z) = -0.10895 0.26690
#
# Static dielectric constant tensor:
#      x y z
#    x 1.799430 0.000000 0.000000 
#    y 0.000000 1.861440 0.000000 
#    z 0.000000 0.000000 1.820940 
# 
# From -- ./inp_files/3045.got.cif
#   From: 2010.05.17/outbox.cif.g08.bks.cpg/sg61_2_cif.got.tgz:3045.got - 2010.06.03 15:17:17.
