data_PCOD9460347
_publ_section_title
;
Structure prediction by ZEFSAII (Michael W. Deem and Ramdas Pophale) SiO2 
 PCOD9460347
Probable space group: P B C A
;
_chemical_formula_sum "Si O2"
_cell_formula_units_Z 48
_cell_length_a 12.072508
_cell_length_b 13.268504
_cell_length_c 11.892209
_cell_angle_alpha 90.000000
_cell_angle_beta 90.000000
_cell_angle_gamma 90.000000
_cell_volume 1904.943042
_symmetry_space_group_name_H-M "P B C A"
_symmetry_group_IT_number 61
_symmetry_cell_setting 'orthorhombic'
loop_
_space_group_symop_operation_xyz
x,y,z
1/2-x,-y,1/2+z
1/2+x,1/2-y,-z
-x,1/2+y,1/2-z
-x,-y,-z
1/2+x,y,1/2-z
1/2-x,1/2+y,z
x,1/2-y,1/2+z
loop_
_atom_site_type_symbol
_atom_site_label
_atom_site_fract_x
_atom_site_fract_y
_atom_site_fract_z
Si Si1 0.618602 0.482490 0.154492
Si Si2 0.118602 0.517510 0.654493
Si Si3 0.628198 0.781703 0.686957
Si Si4 0.844356 0.082971 0.588648
Si Si5 0.128198 0.281703 0.686957
Si Si6 0.344356 0.582971 0.588649
O O1 0.500000 0.453761 0.110279
O O2 0.635888 0.602092 0.153199
O O3 0.712631 0.424657 0.089667
O O4 0.623436 0.452624 0.285992
O O5 0.123435 0.547375 0.785992
O O6 0.135888 0.397908 0.653199
O O7 0.212631 0.575343 0.589667
O O8 0.624890 0.699745 0.586554
O O9 0.750000 0.762466 0.750000
O O10 0.500000 0.772685 0.739716
O O11 0.883822 0.000000 0.499999
O O12 0.124889 0.199744 0.586554
#
# Coordination Sequence:
#
# PCOD9460347 Si02
#       6
#     8   8   8   8   8   8
#     4  10  22  42  62  88 131 173 210 262 323 381
#     4  10  22  42  62  88 131 173 210 262 323 381
#     4  11  22  41  65  91 125 169 212 259 319 378
#     4  11  23  38  66  96 127 163 218 264 318 376
#     4  11  22  41  65  91 125 169 212 259 319 378
#     4  11  23  38  66  96 127 163 218 264 318 376
#
# _framework density 25.197603000000001
#
# number of rings (size 3 to 8) (size 9 to 14) (size 15 to 20)
#    0.000    1.333    6.667    1.000    0.000    4.667 
#    0.000    0.000    0.000    0.000    0.000    0.000 
#    0.000    0.000    0.000    0.000    0.000    0.000 
#
# Total GULP energy -267722.119664 kJ/mol
# GULP energy per Si atom -5577.544160 kJ/mol
# Density = 2.514025 g / cm^3
# Si number density = 25.197603 Si / 1000 Ang^3
#
#
#
# Elastic Constant Matrix: (Units=GPa)
#
#
# Indices 1 2 3 4 5 6 
#
# 1 267.5824 16.2637 7.9283 0.0000 0.0000 0.0000
# 2 16.2637 131.4543 -31.2097 0.0000 0.0000 0.0000
# 3 7.9283 -31.2097 62.6207 0.0000 0.0000 0.0000
# 4 0.0000 0.0000 0.0000 19.6414 0.0000 0.0000
# 5 0.0000 0.0000 0.0000 0.0000 -12.1193 0.0000
# 6 0.0000 0.0000 0.0000 0.0000 0.0000 49.0445
#
#
#
# Elastic Compliance Matrix: (Units=1/GPa)
#
#
# Indices 1 2 3 4 5 6 
#
# 1 0.003802 -0.000663 -0.000812 0.000000 0.000000 0.000000
# 2 -0.000663 0.008744 0.004442 0.000000 0.000000 0.000000
# 3 -0.000812 0.004442 0.018286 0.000000 0.000000 0.000000
# 4 0.000000 0.000000 0.000000 0.050913 0.000000 0.000000
# 5 0.000000 0.000000 0.000000 0.000000 -0.082513 0.000000
# 6 0.000000 0.000000 0.000000 0.000000 0.000000 0.020390
#
#
# Mechanical properties :
#
#
# Convention : Reuss Voigt Hill
#
# Bulk Modulus (GPa) = 27.19980 49.73578 38.46779
# Shear Modulus (GPa) = 192.74329 42.55834 117.65081
#
# Velocity S-wave (km/s) = 8.75550 4.11418 6.84051
# Velocity P-wave (km/s) = 10.63154 6.50767 8.81418
#
# Compressibility (1/GPa) = 0.03676498
#
# Stress axis : x y z
#
# Youngs Moduli (GPa) = 263.05269 114.36664 54.68753
#
# Poissons Ratio (x) = 0.07583 0.04439
# Poissons Ratio (y) = 0.17442 -0.24291
# Poissons Ratio (z) = 0.21354 -0.50799
#
# Static dielectric constant tensor:
#      x y z
#    x 2.107490 0.000000 0.000000 
#    y 0.000000 1.909520 0.000000 
#    z 0.000000 0.000000 2.025920 
# 
# From -- ./inp_files/7441.got.cif
#   From: 2010.05.17/outbox.cif.g08.bks.cpg/sg61_4_cif.got.tgz:7441.got - 2010.06.03 15:17:17.
