data_PCOD9460608
_publ_section_title
;
Structure prediction by ZEFSAII (Michael W. Deem and Ramdas Pophale) SiO2 
 PCOD9460608
Probable space group: P B C A
;
_chemical_formula_sum "Si O2"
_cell_formula_units_Z 40
_cell_length_a 17.801173
_cell_length_b 10.645184
_cell_length_c 7.731259
_cell_angle_alpha 90.000000
_cell_angle_beta 90.000000
_cell_angle_gamma 90.000000
_cell_volume 1465.048547
_symmetry_space_group_name_H-M "P B C A"
_symmetry_group_IT_number 61
_symmetry_cell_setting 'orthorhombic'
loop_
_space_group_symop_operation_xyz
x,y,z
1/2-x,-y,1/2+z
1/2+x,1/2-y,-z
-x,1/2+y,1/2-z
-x,-y,-z
1/2+x,y,1/2-z
1/2-x,1/2+y,z
x,1/2-y,1/2+z
loop_
_atom_site_type_symbol
_atom_site_label
_atom_site_fract_x
_atom_site_fract_y
_atom_site_fract_z
Si Si1 0.742409 0.872821 0.181372
Si Si2 0.962947 0.788679 0.305444
Si Si3 0.111523 0.078212 0.018463
Si Si4 0.120254 0.668647 0.325277
Si Si5 0.644808 0.034186 0.966929
O O1 0.804895 0.877901 0.030919
O O2 0.696874 0.745301 0.173389
O O3 0.789724 0.898235 0.353661
O O4 0.682846 0.983469 0.140407
O O5 0.921331 0.653920 0.321358
O O6 0.941829 0.866800 0.135510
O O7 0.050031 0.761292 0.323641
O O8 0.926161 0.874310 0.455777
O O9 0.112284 0.929068 0.984902
O O10 0.122497 0.586053 0.150741
#
# Coordination Sequence:
#
# PCOD9460608 Si02
#       5
#     8   8   8   8   8
#     4  10  24  44  70  97 137 176 232 280 333 412
#     4  10  23  45  67  95 140 171 225 276 339 405
#     4  10  25  44  66 100 133 180 225 275 343 402
#     4  10  23  44  67 101 137 174 225 279 346 404
#     4  10  26  45  68 104 131 183 232 275 352 397
#
# _framework density 27.302849999999999
#
# number of rings (size 3 to 8) (size 9 to 14) (size 15 to 20)
#    0.000    2.400    0.000    0.600   14.000    0.800 
#   10.800    0.000    0.000    0.000    0.000    0.000 
#    0.000    0.000    0.000    0.000    0.000    0.000 
#
# Total GULP energy -224429.685898 kJ/mol
# GULP energy per Si atom -5610.742147 kJ/mol
# Density = 2.724071 g / cm^3
# Si number density = 27.302850 Si / 1000 Ang^3
#
#
#
# Elastic Constant Matrix: (Units=GPa)
#
#
# Indices 1 2 3 4 5 6 
#
# 1 172.3710 86.4145 11.7479 0.0000 0.0000 0.0000
# 2 86.4145 128.1865 48.0642 0.0000 0.0000 0.0000
# 3 11.7479 48.0642 66.2506 0.0000 0.0000 0.0000
# 4 0.0000 0.0000 0.0000 46.7941 0.0000 0.0000
# 5 0.0000 0.0000 0.0000 0.0000 17.4750 0.0000
# 6 0.0000 0.0000 0.0000 0.0000 0.0000 65.5663
#
#
#
# Elastic Compliance Matrix: (Units=1/GPa)
#
#
# Indices 1 2 3 4 5 6 
#
# 1 0.009499 -0.007929 0.004068 0.000000 0.000000 0.000000
# 2 -0.007929 0.017335 -0.011170 0.000000 0.000000 0.000000
# 3 0.004068 -0.011170 0.022477 0.000000 0.000000 0.000000
# 4 0.000000 0.000000 0.000000 0.021370 0.000000 0.000000
# 5 0.000000 0.000000 0.000000 0.000000 0.057225 0.000000
# 6 0.000000 0.000000 0.000000 0.000000 0.000000 0.015252
#
#
# Mechanical properties :
#
#
# Convention : Reuss Voigt Hill
#
# Bulk Modulus (GPa) = 51.95287 73.25125 62.60206
# Shear Modulus (GPa) = 27.83414 40.67250 34.25332
#
# Velocity S-wave (km/s) = 3.19636 3.86382 3.54583
# Velocity P-wave (km/s) = 5.71769 6.84053 6.30416
#
# Compressibility (1/GPa) = 0.01924821
#
# Stress axis : x y z
#
# Youngs Moduli (GPa) = 105.27154 57.68802 44.49069
#
# Poissons Ratio (x) = 0.45741 -0.18099
# Poissons Ratio (y) = 0.83470 0.49696
# Poissons Ratio (z) = -0.42824 0.64438
#
# Static dielectric constant tensor:
#      x y z
#    x 2.056860 0.000000 0.000000 
#    y 0.000000 2.129210 0.000000 
#    z 0.000000 0.000000 2.208330 
# 
# From -- ./inp_files/6398.got.cif
#   From: 2010.05.17/outbox.cif.g08.bks.cpg/sg61_4_cif.got.tgz:6398.got - 2010.06.03 15:17:17.
