data_PCOD9460312
_publ_section_title
;
Structure prediction by ZEFSAII (Michael W. Deem and Ramdas Pophale) SiO2 
 PCOD9460312
Probable space group: P B C A
;
_chemical_formula_sum "Si O2"
_cell_formula_units_Z 64
_cell_length_a 15.213948
_cell_length_b 12.020258
_cell_length_c 16.131519
_cell_angle_alpha 90.000000
_cell_angle_beta 90.000000
_cell_angle_gamma 90.000000
_cell_volume 2950.060896
_symmetry_space_group_name_H-M "P B C A"
_symmetry_group_IT_number 61
_symmetry_cell_setting 'orthorhombic'
loop_
_space_group_symop_operation_xyz
x,y,z
1/2-x,-y,1/2+z
1/2+x,1/2-y,-z
-x,1/2+y,1/2-z
-x,-y,-z
1/2+x,y,1/2-z
1/2-x,1/2+y,z
x,1/2-y,1/2+z
loop_
_atom_site_type_symbol
_atom_site_label
_atom_site_fract_x
_atom_site_fract_y
_atom_site_fract_z
Si Si1 0.494687 0.066924 0.831632
Si Si2 0.807355 0.230306 0.478945
Si Si3 0.629816 0.484182 0.466970
Si Si4 0.457276 0.206831 0.416960
Si Si5 0.083891 0.417513 0.697927
Si Si6 0.356585 0.687064 0.768611
Si Si7 0.782590 0.105846 0.844811
Si Si8 0.884157 0.760410 0.544098
O O1 0.450352 0.182346 0.859973
O O2 0.569498 0.105138 0.766666
O O3 0.542325 0.021126 0.912667
O O4 0.441686 0.973148 0.784704
O O5 0.848758 0.109333 0.488858
O O6 0.819212 0.282815 0.387992
O O7 0.704443 0.220454 0.497890
O O8 0.862403 0.309797 0.541300
O O9 0.705683 0.437326 0.405766
O O10 0.623529 0.394292 0.539650
O O11 0.499980 0.112448 0.359092
O O12 0.529833 0.227744 0.490220
O O13 0.132626 0.301177 0.715926
O O14 0.146060 0.509484 0.657592
O O15 0.262691 0.635050 0.742979
O O16 0.377048 0.713497 0.863653
#
# Coordination Sequence:
#
# PCOD9460312 Si02
#       8
#     8   8   8   8   8   8   8   8
#     4   9  22  40  62  87 126 170 217 259 335 398
#     4  11  23  40  67  93 126 169 222 268 329 410
#     4   9  20  41  62  86 120 176 213 260 333 406
#     4  10  24  42  64  96 132 169 226 277 332 408
#     4  11  23  42  65  91 134 168 211 282 334 389
#     4  10  23  42  62  95 129 168 220 276 320 402
#     4  10  22  41  63  91 126 176 210 263 348 389
#     4  10  23  41  62  94 133 167 219 285 330 393
#
# _framework density 21.694467
#
# number of rings (size 3 to 8) (size 9 to 14) (size 15 to 20)
#    0.000    2.000    0.000    3.750    7.000    2.500 
#    9.000    0.000    0.000    0.000    0.000    0.000 
#    0.000    0.000    0.000    0.000    0.000    0.000 
#
# Total GULP energy -357572.713874 kJ/mol
# GULP energy per Si atom -5587.073654 kJ/mol
# Density = 2.164509 g / cm^3
# Si number density = 21.694467 Si / 1000 Ang^3
#
#
#
# Elastic Constant Matrix: (Units=GPa)
#
#
# Indices 1 2 3 4 5 6 
#
# 1 41.5607 10.5782 2.6283 0.0000 0.0000 0.0000
# 2 10.5782 68.2351 21.4478 0.0000 0.0000 0.0000
# 3 2.6283 21.4478 91.0827 0.0000 0.0000 0.0000
# 4 0.0000 0.0000 0.0000 86.3984 0.0000 0.0000
# 5 0.0000 0.0000 0.0000 0.0000 26.4739 0.0000
# 6 0.0000 0.0000 0.0000 0.0000 0.0000 20.5980
#
#
#
# Elastic Compliance Matrix: (Units=1/GPa)
#
#
# Indices 1 2 3 4 5 6 
#
# 1 0.025053 -0.003949 0.000207 0.000000 0.000000 0.000000
# 2 -0.003949 0.016449 -0.003759 0.000000 0.000000 0.000000
# 3 0.000207 -0.003759 0.011858 0.000000 0.000000 0.000000
# 4 0.000000 0.000000 0.000000 0.011574 0.000000 0.000000
# 5 0.000000 0.000000 0.000000 0.000000 0.037773 0.000000
# 6 0.000000 0.000000 0.000000 0.000000 0.000000 0.048548
#
#
# Mechanical properties :
#
#
# Convention : Reuss Voigt Hill
#
# Bulk Modulus (GPa) = 26.07034 30.02079 28.04557
# Shear Modulus (GPa) = 27.92594 37.77567 32.85081
#
# Velocity S-wave (km/s) = 3.59170 4.17737 3.89556
# Velocity P-wave (km/s) = 5.40773 6.09387 5.76102
#
# Compressibility (1/GPa) = 0.03835777
#
# Stress axis : x y z
#
# Youngs Moduli (GPa) = 39.91503 60.79366 84.32900
#
# Poissons Ratio (x) = 0.24007 -0.01745
# Poissons Ratio (y) = 0.15762 0.31703
# Poissons Ratio (z) = -0.00826 0.22855
#
# Static dielectric constant tensor:
#      x y z
#    x 1.815530 0.000000 0.000000 
#    y 0.000000 1.774360 0.000000 
#    z 0.000000 0.000000 1.792760 
# 
# From -- ./inp_files/8232.got.cif
#   From: 2010.05.17/outbox.cif.g08.bks.cpg/sg61_5_cif.got.tgz:8232.got - 2010.06.03 15:17:17.
