data_PCOD9460576
_publ_section_title
;
Structure prediction by ZEFSAII (Michael W. Deem and Ramdas Pophale) SiO2 
 PCOD9460576
Probable space group: P B C A
;
_chemical_formula_sum "Si O2"
_cell_formula_units_Z 44
_cell_length_a 14.914841
_cell_length_b 9.047204
_cell_length_c 13.088808
_cell_angle_alpha 90.000000
_cell_angle_beta 90.000000
_cell_angle_gamma 90.000000
_cell_volume 1766.172458
_symmetry_space_group_name_H-M "P B C A"
_symmetry_group_IT_number 61
_symmetry_cell_setting 'orthorhombic'
loop_
_space_group_symop_operation_xyz
x,y,z
1/2-x,-y,1/2+z
1/2+x,1/2-y,-z
-x,1/2+y,1/2-z
-x,-y,-z
1/2+x,y,1/2-z
1/2-x,1/2+y,z
x,1/2-y,1/2+z
loop_
_atom_site_type_symbol
_atom_site_label
_atom_site_fract_x
_atom_site_fract_y
_atom_site_fract_z
Si Si1 0.806986 0.720589 0.171260
Si Si2 0.660943 0.974416 0.756207
Si Si3 0.355501 0.571856 0.530397
Si Si4 0.446495 0.195042 0.922775
Si Si5 0.000000 0.000000 0.000000
Si Si6 0.045058 0.495005 0.735346
O O1 0.823707 0.894114 0.175013
O O2 0.718532 0.665566 0.227091
O O3 0.887956 0.634849 0.229185
O O4 0.805045 0.662689 0.055912
O O5 0.692624 0.047458 0.862809
O O6 0.555618 0.950096 0.768170
O O7 0.449874 0.658363 0.546417
O O8 0.382488 0.411457 0.487327
O O9 0.435797 0.135445 0.807705
O O10 0.438991 0.365324 0.949852
O O11 0.955202 0.026179 0.884658
#
# Coordination Sequence:
#
# PCOD9460576 Si02
#       6
#     8   8   8   8   4   8
#     4  11  25  43  66  97 131 173 225 277 335 406
#     4  11  25  42  67  98 131 173 223 276 338 408
#     4   9  20  42  63  87 134 176 213 274 338 395
#     4   9  20  38  65  95 127 176 225 272 332 404
#     4  12  22  36  70 102 130 174 224 280 344 400
#     4  10  23  43  64  95 134 173 222 274 333 406
#
# _framework density 24.91263
#
# number of rings (size 3 to 8) (size 9 to 14) (size 15 to 20)
#    0.000    1.818    0.000    4.364    0.000   13.091 
#    0.000    0.000    0.000    0.000    0.000    0.000 
#    0.000    0.000    0.000    0.000    0.000    0.000 
#
# Total GULP energy -245503.071270 kJ/mol
# GULP energy per Si atom -5579.615256 kJ/mol
# Density = 2.485593 g / cm^3
# Si number density = 24.912630 Si / 1000 Ang^3
#
#
#
# Elastic Constant Matrix: (Units=GPa)
#
#
# Indices 1 2 3 4 5 6 
#
# 1 109.5340 36.6561 -4.8361 0.0000 0.0000 0.0000
# 2 36.6561 109.2037 20.2211 0.0000 0.0000 0.0000
# 3 -4.8361 20.2211 122.3855 0.0000 0.0000 0.0000
# 4 0.0000 0.0000 0.0000 13.8655 0.0000 0.0000
# 5 0.0000 0.0000 0.0000 0.0000 14.3630 0.0000
# 6 0.0000 0.0000 0.0000 0.0000 0.0000 27.2694
#
#
#
# Elastic Compliance Matrix: (Units=1/GPa)
#
#
# Indices 1 2 3 4 5 6 
#
# 1 0.010407 -0.003682 0.001020 0.000000 0.000000 0.000000
# 2 -0.003682 0.010749 -0.001921 0.000000 0.000000 0.000000
# 3 0.001020 -0.001921 0.008529 0.000000 0.000000 0.000000
# 4 0.000000 0.000000 0.000000 0.072122 0.000000 0.000000
# 5 0.000000 0.000000 0.000000 0.000000 0.069623 0.000000
# 6 0.000000 0.000000 0.000000 0.000000 0.000000 0.036671
#
#
# Mechanical properties :
#
#
# Convention : Reuss Voigt Hill
#
# Bulk Modulus (GPa) = 48.74107 49.46726 49.10416
# Shear Modulus (GPa) = 22.31075 30.37171 26.34123
#
# Velocity S-wave (km/s) = 2.99584 3.49539 3.25521
# Velocity P-wave (km/s) = 5.61907 6.01579 5.82081
#
# Compressibility (1/GPa) = 0.02051658
#
# Stress axis : x y z
#
# Youngs Moduli (GPa) = 96.09091 93.03254 117.25157
#
# Poissons Ratio (x) = 0.34255 -0.11955
# Poissons Ratio (y) = 0.35381 0.22530
# Poissons Ratio (z) = -0.09797 0.17876
#
# Static dielectric constant tensor:
#      x y z
#    x 1.984060 0.000000 0.000000 
#    y 0.000000 1.982890 0.000000 
#    z 0.000000 0.000000 1.989820 
# 
# From -- ./inp_files/8084.got.cif
#   From: 2010.05.17/outbox.cif.g08.bks.cpg/sg61_5_cif.got.tgz:8084.got - 2010.06.03 15:17:17.
