data_PCOD9460683
_publ_section_title
;
Structure prediction by ZEFSAII (Michael W. Deem and Ramdas Pophale) SiO2 
 PCOD9460683
Probable space group: P B C A
;
_chemical_formula_sum "Si O2"
_cell_formula_units_Z 44
_cell_length_a 6.984036
_cell_length_b 8.355423
_cell_length_c 29.215904
_cell_angle_alpha 90.000000
_cell_angle_beta 90.000000
_cell_angle_gamma 90.000000
_cell_volume 1704.881662
_symmetry_space_group_name_H-M "P B C A"
_symmetry_group_IT_number 61
_symmetry_cell_setting 'orthorhombic'
loop_
_space_group_symop_operation_xyz
x,y,z
1/2-x,-y,1/2+z
1/2+x,1/2-y,-z
-x,1/2+y,1/2-z
-x,-y,-z
1/2+x,y,1/2-z
1/2-x,1/2+y,z
x,1/2-y,1/2+z
loop_
_atom_site_type_symbol
_atom_site_label
_atom_site_fract_x
_atom_site_fract_y
_atom_site_fract_z
Si Si1 0.457746 0.964270 0.668857
Si Si2 0.162426 0.327557 0.040250
Si Si3 0.000000 0.000000 0.000000
Si Si4 0.874324 0.403197 0.897232
Si Si5 0.656972 0.342577 0.276084
Si Si6 0.875541 0.612774 0.190811
O O1 0.351131 0.091838 0.701219
O O2 0.335102 0.957440 0.622459
O O3 0.419652 0.789565 0.689531
O O4 0.685633 0.974620 0.671560
O O5 0.332694 0.242436 0.069415
O O6 0.048840 0.440938 0.076318
O O7 0.045034 0.183719 0.018784
O O8 0.271846 0.449945 0.007191
O O9 0.005363 0.348477 0.854959
O O10 0.517639 0.494953 0.281177
O O11 0.682440 0.246664 0.228520
#
# Coordination Sequence:
#
# PCOD9460683 Si02
#       6
#     8   8   4   8   8   8
#     4  11  27  48  73 102 152 209 260 331 381 453
#     4  10  23  51  80 122 160 201 238 335 372 514
#     4  10  24  48  90 112 166 196 256 294 418 470
#     4  10  23  48  74 117 160 191 261 325 396 448
#     4  11  29  45  69 104 148 195 281 324 372 447
#     4  11  28  48  75 109 147 216 262 334 398 450
#
# _framework density 25.808246
#
# number of rings (size 3 to 8) (size 9 to 14) (size 15 to 20)
#    0.000    1.455    0.000    2.182    7.636   11.636 
#   13.091    0.000    0.000    0.000    0.000    0.000 
#    0.000    0.000    0.000    0.000    0.000    0.000 
#
# Total GULP energy -245164.372931 kJ/mol
# GULP energy per Si atom -5571.917567 kJ/mol
# Density = 2.574951 g / cm^3
# Si number density = 25.808246 Si / 1000 Ang^3
#
#
#
# Elastic Constant Matrix: (Units=GPa)
#
#
# Indices 1 2 3 4 5 6 
#
# 1 140.1471 6.0022 31.1564 0.0000 0.0000 0.0000
# 2 6.0022 67.3679 22.1145 0.0000 0.0000 0.0000
# 3 31.1564 22.1145 72.6525 0.0000 0.0000 0.0000
# 4 0.0000 0.0000 0.0000 50.2925 0.0000 0.0000
# 5 0.0000 0.0000 0.0000 0.0000 41.8600 0.0000
# 6 0.0000 0.0000 0.0000 0.0000 0.0000 38.6485
#
#
#
# Elastic Compliance Matrix: (Units=1/GPa)
#
#
# Indices 1 2 3 4 5 6 
#
# 1 0.007900 0.000454 -0.003526 0.000000 0.000000 0.000000
# 2 0.000454 0.016518 -0.005222 0.000000 0.000000 0.000000
# 3 -0.003526 -0.005222 0.016866 0.000000 0.000000 0.000000
# 4 0.000000 0.000000 0.000000 0.019884 0.000000 0.000000
# 5 0.000000 0.000000 0.000000 0.000000 0.023889 0.000000
# 6 0.000000 0.000000 0.000000 0.000000 0.000000 0.025874
#
#
# Mechanical properties :
#
#
# Convention : Reuss Voigt Hill
#
# Bulk Modulus (GPa) = 40.49533 44.30150 42.39842
# Shear Modulus (GPa) = 36.83220 40.88650 38.85935
#
# Velocity S-wave (km/s) = 3.78186 3.98457 3.88454
# Velocity P-wave (km/s) = 5.89872 6.19451 6.04842
#
# Compressibility (1/GPa) = 0.02469421
#
# Stress axis : x y z
#
# Youngs Moduli (GPa) = 126.58613 60.54093 59.29173
#
# Poissons Ratio (x) = -0.02746 0.20905
# Poissons Ratio (y) = -0.05741 0.30964
# Poissons Ratio (z) = 0.44632 0.31616
#
# Static dielectric constant tensor:
#      x y z
#    x 2.148620 0.000000 0.000000 
#    y 0.000000 2.048580 0.000000 
#    z 0.000000 0.000000 2.079600 
# 
# From -- ./inp_files/11664.got.cif
#   From: 2010.05.17/outbox.cif.g08.bks.cpg/sg61_6_cif.got.tgz:11664.got - 2010.06.03 15:17:17.
