data_PCOD9460035
_publ_section_title
;
Structure prediction by ZEFSAII (Michael W. Deem and Ramdas Pophale) SiO2 
 PCOD9460035
Probable space group: P B C A
;
_chemical_formula_sum "Si O2"
_cell_formula_units_Z 48
_cell_length_a 14.047038
_cell_length_b 13.229969
_cell_length_c 10.517262
_cell_angle_alpha 90.000000
_cell_angle_beta 90.000000
_cell_angle_gamma 90.000000
_cell_volume 1954.547714
_symmetry_space_group_name_H-M "P B C A"
_symmetry_group_IT_number 61
_symmetry_cell_setting 'orthorhombic'
loop_
_space_group_symop_operation_xyz
x,y,z
1/2-x,-y,1/2+z
1/2+x,1/2-y,-z
-x,1/2+y,1/2-z
-x,-y,-z
1/2+x,y,1/2-z
1/2-x,1/2+y,z
x,1/2-y,1/2+z
loop_
_atom_site_type_symbol
_atom_site_label
_atom_site_fract_x
_atom_site_fract_y
_atom_site_fract_z
Si Si1 0.749359 0.584921 0.167505
Si Si2 0.894547 0.926932 0.878035
Si Si3 0.291133 0.760941 0.025335
Si Si4 0.880073 0.357680 0.338333
Si Si5 0.439414 0.137192 0.193170
Si Si6 0.848424 0.407998 0.056308
O O1 0.794820 0.562262 0.303171
O O2 0.647010 0.625408 0.205410
O O3 0.812880 0.664442 0.089558
O O4 0.762841 0.486576 0.082020
O O5 0.874697 0.819434 0.947923
O O6 0.971888 0.901774 0.771156
O O7 0.910325 0.044122 0.922793
O O8 0.231780 0.825093 0.133796
O O9 0.204160 0.694880 0.974642
O O10 0.940784 0.254897 0.348623
O O11 0.896002 0.393497 0.193073
O O12 0.414906 0.073541 0.065457
#
# Coordination Sequence:
#
# PCOD9460035 Si02
#       6
#     8   8   8   8   8   8
#     4  11  23  42  69  95 132 181 226 280 350 409
#     4  11  24  42  68 103 131 181 229 275 352 402
#     4  11  20  42  66  95 131 176 217 288 331 413
#     4  10  22  43  67  95 135 175 230 282 331 416
#     4  11  24  44  66 102 140 175 231 288 334 418
#     4  10  21  40  69  88 133 179 217 276 342 394
#
# _framework density 24.558109999999999
#
# number of rings (size 3 to 8) (size 9 to 14) (size 15 to 20)
#    0.000    1.333    5.000    1.000    2.333    5.333 
#    3.000    1.667    0.000    0.000    0.000    0.000 
#    0.000    0.000    0.000    0.000    0.000    0.000 
#
# Total GULP energy -267460.724144 kJ/mol
# GULP energy per Si atom -5572.098420 kJ/mol
# Density = 2.450221 g / cm^3
# Si number density = 24.558110 Si / 1000 Ang^3
#
#
#
# Elastic Constant Matrix: (Units=GPa)
#
#
# Indices 1 2 3 4 5 6 
#
# 1 53.3246 28.3142 5.4040 0.0000 0.0000 0.0000
# 2 28.3142 143.3280 38.5739 0.0000 0.0000 0.0000
# 3 5.4040 38.5739 99.6108 0.0000 0.0000 0.0000
# 4 0.0000 0.0000 0.0000 43.6714 0.0000 0.0000
# 5 0.0000 0.0000 0.0000 0.0000 36.0802 0.0000
# 6 0.0000 0.0000 0.0000 0.0000 0.0000 19.3497
#
#
#
# Elastic Compliance Matrix: (Units=1/GPa)
#
#
# Indices 1 2 3 4 5 6 
#
# 1 0.020975 -0.004284 0.000521 0.000000 0.000000 0.000000
# 2 -0.004284 0.008664 -0.003123 0.000000 0.000000 0.000000
# 3 0.000521 -0.003123 0.011220 0.000000 0.000000 0.000000
# 4 0.000000 0.000000 0.000000 0.022898 0.000000 0.000000
# 5 0.000000 0.000000 0.000000 0.000000 0.027716 0.000000
# 6 0.000000 0.000000 0.000000 0.000000 0.000000 0.051680
#
#
# Mechanical properties :
#
#
# Convention : Reuss Voigt Hill
#
# Bulk Modulus (GPa) = 36.91701 48.98307 42.95004
# Shear Modulus (GPa) = 30.12899 34.75168 32.44034
#
# Velocity S-wave (km/s) = 3.50643 3.76584 3.63845
# Velocity P-wave (km/s) = 5.60880 6.23681 5.93112
#
# Compressibility (1/GPa) = 0.02708779
#
# Stress axis : x y z
#
# Youngs Moduli (GPa) = 47.67611 115.42515 89.12653
#
# Poissons Ratio (x) = 0.49445 -0.04643
# Poissons Ratio (y) = 0.20423 0.27830
# Poissons Ratio (z) = -0.02484 0.36042
#
# Static dielectric constant tensor:
#      x y z
#    x 1.933300 0.000000 0.000000 
#    y 0.000000 2.114750 0.000000 
#    z 0.000000 0.000000 2.027860 
# 
# From -- ./inp_files/5772.got.cif
#   From: 2010.05.17/outbox.cif.g08.bks.cpg/sg61_3_cif.got.tgz:5772.got - 2010.06.03 15:17:17.
