data_PCOD9460997
_publ_section_title
;
Structure prediction by ZEFSAII (Michael W. Deem and Ramdas Pophale) SiO2 
 PCOD9460997
Probable space group: P B C A
;
_chemical_formula_sum "Si O2"
_cell_formula_units_Z 64
_cell_length_a 13.655201
_cell_length_b 16.254976
_cell_length_c 12.975953
_cell_angle_alpha 90.000000
_cell_angle_beta 90.000000
_cell_angle_gamma 90.000000
_cell_volume 2880.206947
_symmetry_space_group_name_H-M "P B C A"
_symmetry_group_IT_number 61
_symmetry_cell_setting 'orthorhombic'
loop_
_space_group_symop_operation_xyz
x,y,z
1/2-x,-y,1/2+z
1/2+x,1/2-y,-z
-x,1/2+y,1/2-z
-x,-y,-z
1/2+x,y,1/2-z
1/2-x,1/2+y,z
x,1/2-y,1/2+z
loop_
_atom_site_type_symbol
_atom_site_label
_atom_site_fract_x
_atom_site_fract_y
_atom_site_fract_z
Si Si1 0.790471 0.987767 0.107623
Si Si2 0.840285 0.455994 0.279815
Si Si3 0.442856 0.204980 0.766508
Si Si4 0.831602 0.972414 0.408959
Si Si5 0.576959 0.636106 0.321531
Si Si6 0.496765 0.928023 0.620436
Si Si7 0.409379 0.831864 0.422741
Si Si8 0.542366 0.178095 0.976506
O O1 0.713987 0.013193 0.196511
O O2 0.826133 0.893277 0.116772
O O3 0.891552 0.039610 0.106919
O O4 0.727990 0.993400 0.004877
O O5 0.888760 0.381157 0.221367
O O6 0.750069 0.423002 0.346204
O O7 0.918973 0.500084 0.353104
O O8 0.375976 0.280795 0.726237
O O9 0.520707 0.187949 0.674318
O O10 0.493162 0.218882 0.876536
O O11 0.913644 0.908878 0.442749
O O12 0.870364 0.049504 0.342831
O O13 0.498574 0.619590 0.230152
O O14 0.533534 0.660035 0.432052
O O15 0.462944 0.881218 0.517147
O O16 0.382406 0.744266 0.474065
#
# Coordination Sequence:
#
# PCOD9460997 Si02
#       8
#     8   8   8   8   8   8   8   8
#     4  12  24  43  70 103 139 184 237 291 353 420
#     4  12  24  41  70 100 140 178 227 293 345 424
#     4  11  23  44  68 100 137 186 234 288 358 413
#     4  12  24  42  64 104 138 177 238 292 347 421
#     4  11  24  44  71  99 138 186 238 289 351 427
#     4  12  22  47  73 100 140 191 233 284 358 434
#     4  11  23  43  72 100 138 186 235 287 352 431
#     4  11  24  45  70  99 142 185 236 294 358 419
#
# _framework density 22.220625999999999
#
# number of rings (size 3 to 8) (size 9 to 14) (size 15 to 20)
#    0.000    0.500    5.000    4.500    0.000    1.000 
#    2.250    0.000    0.000    0.000    0.000    0.000 
#    0.000    0.000    0.000    0.000    0.000    0.000 
#
# Total GULP energy -357053.641969 kJ/mol
# GULP energy per Si atom -5578.963156 kJ/mol
# Density = 2.217005 g / cm^3
# Si number density = 22.220626 Si / 1000 Ang^3
#
#
#
# Elastic Constant Matrix: (Units=GPa)
#
#
# Indices 1 2 3 4 5 6 
#
# 1 44.1073 16.0643 23.0021 0.0000 0.0000 0.0000
# 2 16.0643 80.6292 11.4913 0.0000 0.0000 0.0000
# 3 23.0021 11.4913 113.2864 0.0000 0.0000 0.0000
# 4 0.0000 0.0000 0.0000 -27.5869 0.0000 0.0000
# 5 0.0000 0.0000 0.0000 0.0000 36.2317 0.0000
# 6 0.0000 0.0000 0.0000 0.0000 0.0000 9.5669
#
#
#
# Elastic Compliance Matrix: (Units=1/GPa)
#
#
# Indices 1 2 3 4 5 6 
#
# 1 0.026980 -0.004662 -0.005005 0.000000 0.000000 0.000000
# 2 -0.004662 0.013390 -0.000412 0.000000 0.000000 0.000000
# 3 -0.005005 -0.000412 0.009885 0.000000 0.000000 0.000000
# 4 0.000000 0.000000 0.000000 -0.036249 0.000000 0.000000
# 5 0.000000 0.000000 0.000000 0.000000 0.027600 0.000000
# 6 0.000000 0.000000 0.000000 0.000000 0.000000 0.104527
#
#
# Mechanical properties :
#
#
# Convention : Reuss Voigt Hill
#
# Bulk Modulus (GPa) = 33.22540 37.68206 35.45373
# Shear Modulus (GPa) = 28.35685 16.14002 22.24844
#
# Velocity S-wave (km/s) = 3.57620 2.69802 3.16769
# Velocity P-wave (km/s) = 5.66014 5.16727 5.41931
#
# Compressibility (1/GPa) = 0.03009745
#
# Stress axis : x y z
#
# Youngs Moduli (GPa) = 37.06420 74.68272 101.16104
#
# Poissons Ratio (x) = 0.34818 0.50634
# Poissons Ratio (y) = 0.17280 0.04164
# Poissons Ratio (z) = 0.18552 0.03074
#
# Static dielectric constant tensor:
#      x y z
#    x 1.775670 0.000000 0.000000 
#    y 0.000000 1.988560 0.000000 
#    z 0.000000 0.000000 1.844590 
# 
# From -- ./inp_files/5982.got.cif
#   From: 2010.05.17/outbox.cif.g08.bks.cpg/sg61_3_cif.got.tgz:5982.got - 2010.06.03 15:17:17.
