data_PCOD9460516
_publ_section_title
;
Structure prediction by ZEFSAII (Michael W. Deem and Ramdas Pophale) SiO2 
 PCOD9460516
Probable space group: P B C A
;
_chemical_formula_sum "Si O2"
_cell_formula_units_Z 64
_cell_length_a 33.028441
_cell_length_b 8.890516
_cell_length_c 10.536616
_cell_angle_alpha 90.000000
_cell_angle_beta 90.000000
_cell_angle_gamma 90.000000
_cell_volume 3093.970691
_symmetry_space_group_name_H-M "P B C A"
_symmetry_group_IT_number 61
_symmetry_cell_setting 'orthorhombic'
loop_
_space_group_symop_operation_xyz
x,y,z
1/2-x,-y,1/2+z
1/2+x,1/2-y,-z
-x,1/2+y,1/2-z
-x,-y,-z
1/2+x,y,1/2-z
1/2-x,1/2+y,z
x,1/2-y,1/2+z
loop_
_atom_site_type_symbol
_atom_site_label
_atom_site_fract_x
_atom_site_fract_y
_atom_site_fract_z
Si Si1 0.270352 0.714351 0.444775
Si Si2 0.376965 0.581322 0.824862
Si Si3 0.184933 0.691324 0.318656
Si Si4 0.764144 0.041671 0.386204
Si Si5 0.029454 0.181334 0.105256
Si Si6 0.123994 0.187739 0.101200
Si Si7 0.187355 0.481046 0.759166
Si Si8 0.028367 0.093691 0.828293
O O1 0.224201 0.674272 0.407546
O O2 0.285777 0.595311 0.547191
O O3 0.264159 0.871336 0.513015
O O4 0.299410 0.675073 0.328619
O O5 0.349083 0.434046 0.840874
O O6 0.369763 0.666120 0.690746
O O7 0.424731 0.541929 0.827263
O O8 0.370616 0.689294 0.948772
O O9 0.204243 0.651172 0.180775
O O10 0.172405 0.866825 0.328173
O O11 0.732173 0.971991 0.288232
O O12 0.077043 0.145121 0.123844
O O13 0.020247 0.320567 0.197124
O O14 0.023721 0.199976 0.953482
O O15 0.001582 0.044008 0.149092
O O16 0.154575 0.063564 0.155827
#
# Coordination Sequence:
#
# PCOD9460516 Si02
#       8
#     8   8   8   8   8   8   8   8
#     4  11  23  39  56  78 115 156 201 253 305 363
#     4  10  23  41  63  89 129 163 208 256 313 368
#     4  11  24  39  55  87 116 156 204 257 310 365
#     4  11  23  39  57  79 114 156 201 256 303 364
#     4   9  19  38  62  91 126 159 209 244 312 366
#     4  10  23  40  62  92 122 166 205 257 307 378
#     4  11  24  36  58  86 113 157 206 251 309 363
#     4   9  19  38  63  92 123 167 200 256 302 370
#
# _framework density 20.685393999999999
#
# number of rings (size 3 to 8) (size 9 to 14) (size 15 to 20)
#    0.000    1.750    2.500    0.750    5.250    1.500 
#    0.000    0.000    0.000    0.000    0.000    0.000 
#    0.000    0.000    0.000    0.000    0.000    0.000 
#
# Total GULP energy -356757.046526 kJ/mol
# GULP energy per Si atom -5574.328852 kJ/mol
# Density = 2.063831 g / cm^3
# Si number density = 20.685394 Si / 1000 Ang^3
#
#
#
# Elastic Constant Matrix: (Units=GPa)
#
#
# Indices 1 2 3 4 5 6 
#
# 1 70.7607 28.9628 20.4931 0.0000 0.0000 0.0000
# 2 28.9628 60.3512 18.8566 0.0000 0.0000 0.0000
# 3 20.4931 18.8566 52.9367 0.0000 0.0000 0.0000
# 4 0.0000 0.0000 0.0000 33.2496 0.0000 0.0000
# 5 0.0000 0.0000 0.0000 0.0000 27.1828 0.0000
# 6 0.0000 0.0000 0.0000 0.0000 0.0000 30.4340
#
#
#
# Elastic Compliance Matrix: (Units=1/GPa)
#
#
# Indices 1 2 3 4 5 6 
#
# 1 0.018492 -0.007469 -0.004498 0.000000 0.000000 0.000000
# 2 -0.007469 0.021661 -0.004825 0.000000 0.000000 0.000000
# 3 -0.004498 -0.004825 0.022350 0.000000 0.000000 0.000000
# 4 0.000000 0.000000 0.000000 0.030076 0.000000 0.000000
# 5 0.000000 0.000000 0.000000 0.000000 0.036788 0.000000
# 6 0.000000 0.000000 0.000000 0.000000 0.000000 0.032858
#
#
# Mechanical properties :
#
#
# Convention : Reuss Voigt Hill
#
# Bulk Modulus (GPa) = 34.57771 35.63042 35.10406
# Shear Modulus (GPa) = 24.33694 25.88901 25.11297
#
# Velocity S-wave (km/s) = 3.43378 3.54158 3.48809
# Velocity P-wave (km/s) = 5.69854 5.82975 5.76452
#
# Compressibility (1/GPa) = 0.02892037
#
# Stress axis : x y z
#
# Youngs Moduli (GPa) = 54.07763 46.16487 44.74187
#
# Poissons Ratio (x) = 0.34480 0.20126
# Poissons Ratio (y) = 0.40390 0.21586
# Poissons Ratio (z) = 0.24325 0.22273
#
# Static dielectric constant tensor:
#      x y z
#    x 1.709550 0.000000 0.000000 
#    y 0.000000 1.733100 0.000000 
#    z 0.000000 0.000000 1.835860 
# 
# From -- ./inp_files/6783.got.cif
#   From: 2010.05.17/outbox.cif.g08.bks.cpg/sg61_4_cif.got.tgz:6783.got - 2010.06.03 15:17:17.
