data_PCOD9460413
_publ_section_title
;
Structure prediction by ZEFSAII (Michael W. Deem and Ramdas Pophale) SiO2 
 PCOD9460413
Probable space group: P B C A
;
_chemical_formula_sum "Si O2"
_cell_formula_units_Z 64
_cell_length_a 17.167663
_cell_length_b 13.948451
_cell_length_c 12.856602
_cell_angle_alpha 90.000000
_cell_angle_beta 90.000000
_cell_angle_gamma 90.000000
_cell_volume 3078.671564
_symmetry_space_group_name_H-M "P B C A"
_symmetry_group_IT_number 61
_symmetry_cell_setting 'orthorhombic'
loop_
_space_group_symop_operation_xyz
x,y,z
1/2-x,-y,1/2+z
1/2+x,1/2-y,-z
-x,1/2+y,1/2-z
-x,-y,-z
1/2+x,y,1/2-z
1/2-x,1/2+y,z
x,1/2-y,1/2+z
loop_
_atom_site_type_symbol
_atom_site_label
_atom_site_fract_x
_atom_site_fract_y
_atom_site_fract_z
Si Si1 0.521811 0.415094 0.744073
Si Si2 0.195389 0.115321 0.313573
Si Si3 0.984007 0.889969 0.977274
Si Si4 0.324522 0.725284 0.982609
Si Si5 0.530901 0.928468 0.089159
Si Si6 0.283549 0.257988 0.167784
Si Si7 0.947751 0.279313 0.927606
Si Si8 0.709030 0.592622 0.650481
O O1 0.616056 0.411314 0.747507
O O2 0.492128 0.384782 0.856364
O O3 0.500929 0.520548 0.695336
O O4 0.491123 0.336553 0.662769
O O5 0.165329 0.182375 0.407939
O O6 0.254832 0.177710 0.247686
O O7 0.238073 0.016280 0.340802
O O8 0.898982 0.841463 0.993657
O O9 0.034782 0.831496 0.059507
O O10 0.000000 0.000000 0.000000
O O11 0.287073 0.767868 0.087071
O O12 0.263174 0.657040 0.922448
O O13 0.623840 0.923958 0.101794
O O14 0.519065 0.824703 0.036381
O O15 0.500000 0.000000 0.000000
O O16 0.357128 0.219285 0.102734
O O17 0.298585 0.351979 0.238790
#
# Coordination Sequence:
#
# PCOD9460413 Si02
#       8
#     8   8   8   8   8   8   8   8
#     4  10  22  43  68  93 136 174 227 282 347 421
#     4  10  22  44  68  95 131 185 223 282 346 421
#     4  12  28  42  68 101 138 184 234 295 355 417
#     4  11  23  46  65  99 137 180 233 281 362 421
#     4   9  20  42  67  98 127 176 224 276 343 413
#     4  11  24  40  70 101 133 174 226 290 344 403
#     4  11  24  42  66  99 134 178 224 286 345 421
#     4  10  23  41  69  98 135 176 229 282 338 423
#
# _framework density 20.788187000000001
#
# number of rings (size 3 to 8) (size 9 to 14) (size 15 to 20)
#    0.000    1.500    3.750    0.000    5.250    3.000 
#    0.000    0.000    0.000    0.000    0.000    0.000 
#    0.000    0.000    0.000    0.000    0.000    0.000 
#
# Total GULP energy -356479.008871 kJ/mol
# GULP energy per Si atom -5569.984514 kJ/mol
# Density = 2.074087 g / cm^3
# Si number density = 20.788187 Si / 1000 Ang^3
#
#
#
# Elastic Constant Matrix: (Units=GPa)
#
#
# Indices 1 2 3 4 5 6 
#
# 1 57.4160 10.3385 20.2383 0.0000 0.0000 0.0000
# 2 10.3385 109.7891 35.0592 0.0000 0.0000 0.0000
# 3 20.2383 35.0592 95.5582 0.0000 0.0000 0.0000
# 4 0.0000 0.0000 0.0000 22.9876 0.0000 0.0000
# 5 0.0000 0.0000 0.0000 0.0000 70.1475 0.0000
# 6 0.0000 0.0000 0.0000 0.0000 0.0000 22.5071
#
#
#
# Elastic Compliance Matrix: (Units=1/GPa)
#
#
# Indices 1 2 3 4 5 6 
#
# 1 0.018853 -0.000567 -0.003785 0.000000 0.000000 0.000000
# 2 -0.000567 0.010334 -0.003671 0.000000 0.000000 0.000000
# 3 -0.003785 -0.003671 0.012613 0.000000 0.000000 0.000000
# 4 0.000000 0.000000 0.000000 0.043502 0.000000 0.000000
# 5 0.000000 0.000000 0.000000 0.000000 0.014256 0.000000
# 6 0.000000 0.000000 0.000000 0.000000 0.000000 0.044430
#
#
# Mechanical properties :
#
#
# Convention : Reuss Voigt Hill
#
# Bulk Modulus (GPa) = 38.82840 43.78171 41.30505
# Shear Modulus (GPa) = 29.65262 36.27027 32.96144
#
# Velocity S-wave (km/s) = 3.78089 4.18156 3.98626
# Velocity P-wave (km/s) = 6.14645 6.66487 6.41090
#
# Compressibility (1/GPa) = 0.02575435
#
# Stress axis : x y z
#
# Youngs Moduli (GPa) = 53.04219 96.76655 79.28039
#
# Poissons Ratio (x) = 0.05483 0.30007
# Poissons Ratio (y) = 0.03006 0.29108
# Poissons Ratio (z) = 0.20076 0.35527
#
# Static dielectric constant tensor:
#      x y z
#    x 1.727970 0.000000 0.000000 
#    y 0.000000 1.793830 0.000000 
#    z 0.000000 0.000000 1.782770 
# 
# From -- ./inp_files/6289.got.cif
#   From: 2010.05.17/outbox.cif.g08.bks.cpg/sg61_4_cif.got.tgz:6289.got - 2010.06.03 15:17:17.
