data_PCOD9460192
_publ_section_title
;
Structure prediction by ZEFSAII (Michael W. Deem and Ramdas Pophale) SiO2 
 PCOD9460192
Probable space group: P B C A
;
_chemical_formula_sum "Si O2"
_cell_formula_units_Z 56
_cell_length_a 8.911002
_cell_length_b 19.966863
_cell_length_c 15.470541
_cell_angle_alpha 90.000000
_cell_angle_beta 90.000000
_cell_angle_gamma 90.000000
_cell_volume 2752.592235
_symmetry_space_group_name_H-M "P B C A"
_symmetry_group_IT_number 61
_symmetry_cell_setting 'orthorhombic'
loop_
_space_group_symop_operation_xyz
x,y,z
1/2-x,-y,1/2+z
1/2+x,1/2-y,-z
-x,1/2+y,1/2-z
-x,-y,-z
1/2+x,y,1/2-z
1/2-x,1/2+y,z
x,1/2-y,1/2+z
loop_
_atom_site_type_symbol
_atom_site_label
_atom_site_fract_x
_atom_site_fract_y
_atom_site_fract_z
Si Si1 0.007391 0.602852 0.318623
Si Si2 0.564582 0.152733 0.497623
Si Si3 0.122885 0.206863 0.679591
Si Si4 0.241295 0.225840 0.487554
Si Si5 0.090621 0.047126 0.856466
Si Si6 0.321583 0.831053 0.808775
Si Si7 0.360993 0.115982 0.774342
O O1 0.911163 0.630738 0.398903
O O2 0.069721 0.532126 0.351298
O O3 0.146876 0.651735 0.301393
O O4 0.911361 0.606349 0.231308
O O5 0.410597 0.197330 0.496975
O O6 0.702449 0.196797 0.534022
O O7 0.545949 0.087066 0.556772
O O8 0.167009 0.221200 0.581616
O O9 0.135320 0.268229 0.747553
O O10 0.242809 0.152938 0.712800
O O11 0.959062 0.174090 0.681694
O O12 0.159865 0.185454 0.409951
O O13 0.260416 0.068911 0.834510
O O14 0.978264 0.074924 0.783149
#
# Coordination Sequence:
#
# PCOD9460192 Si02
#       7
#     8   8   8   8   8   8   8
#     4  11  24  42  62  88 130 169 214 256 313 391
#     4  11  24  41  63  94 126 166 209 268 327 382
#     4  11  21  41  62  97 128 156 212 271 330 375
#     4  11  24  39  65  96 130 158 210 273 329 380
#     4  11  22  42  63  90 127 176 214 251 315 388
#     4  11  24  40  64  94 126 167 208 270 323 375
#     4  10  22  37  67  91 122 165 211 265 316 379
#
# _framework density 20.344459000000001
#
# number of rings (size 3 to 8) (size 9 to 14) (size 15 to 20)
#    0.000    1.143    2.857    3.857    6.000    0.000 
#    0.000    0.000    0.000    3.429    0.000    0.000 
#    0.000    0.000    0.000    0.000    0.000    0.000 
#
# Total GULP energy -312510.634670 kJ/mol
# GULP energy per Si atom -5580.547048 kJ/mol
# Density = 2.029815 g / cm^3
# Si number density = 20.344459 Si / 1000 Ang^3
#
#
#
# Elastic Constant Matrix: (Units=GPa)
#
#
# Indices 1 2 3 4 5 6 
#
# 1 70.3410 20.5519 19.1903 0.0000 0.0000 0.0000
# 2 20.5519 73.2523 17.3759 0.0000 0.0000 0.0000
# 3 19.1903 17.3759 74.6290 0.0000 0.0000 0.0000
# 4 0.0000 0.0000 0.0000 28.2511 0.0000 0.0000
# 5 0.0000 0.0000 0.0000 0.0000 24.2506 0.0000
# 6 0.0000 0.0000 0.0000 0.0000 0.0000 27.9249
#
#
#
# Elastic Compliance Matrix: (Units=1/GPa)
#
#
# Indices 1 2 3 4 5 6 
#
# 1 0.016216 -0.003769 -0.003292 0.000000 0.000000 0.000000
# 2 -0.003769 0.015325 -0.002599 0.000000 0.000000 0.000000
# 3 -0.003292 -0.002599 0.014851 0.000000 0.000000 0.000000
# 4 0.000000 0.000000 0.000000 0.035397 0.000000 0.000000
# 5 0.000000 0.000000 0.000000 0.000000 0.041236 0.000000
# 6 0.000000 0.000000 0.000000 0.000000 0.000000 0.035810
#
#
# Mechanical properties :
#
#
# Convention : Reuss Voigt Hill
#
# Bulk Modulus (GPa) = 36.93805 36.93983 36.93894
# Shear Modulus (GPa) = 26.71227 26.82560 26.76893
#
# Velocity S-wave (km/s) = 3.62746 3.63515 3.63131
# Velocity P-wave (km/s) = 5.97833 5.98462 5.98148
#
# Compressibility (1/GPa) = 0.02707235
#
# Stress axis : x y z
#
# Youngs Moduli (GPa) = 61.66841 65.25154 67.33383
#
# Poissons Ratio (x) = 0.24591 0.22168
# Poissons Ratio (y) = 0.23240 0.17501
# Poissons Ratio (z) = 0.20303 0.16960
#
# Static dielectric constant tensor:
#      x y z
#    x 1.723270 0.000000 0.000000 
#    y 0.000000 1.785490 0.000000 
#    z 0.000000 0.000000 1.727310 
# 
# From -- ./inp_files/3968.got.cif
#   From: 2010.05.17/outbox.cif.g08.bks.cpg/sg61_2_cif.got.tgz:3968.got - 2010.06.03 15:17:17.
