data_PCOD9460540
_publ_section_title
;
Structure prediction by ZEFSAII (Michael W. Deem and Ramdas Pophale) SiO2 
 PCOD9460540
Probable space group: P B C A
;
_chemical_formula_sum "Si O2"
_cell_formula_units_Z 56
_cell_length_a 14.401427
_cell_length_b 19.384446
_cell_length_c 9.259591
_cell_angle_alpha 90.000000
_cell_angle_beta 90.000000
_cell_angle_gamma 90.000000
_cell_volume 2584.941536
_symmetry_space_group_name_H-M "P B C A"
_symmetry_group_IT_number 61
_symmetry_cell_setting 'orthorhombic'
loop_
_space_group_symop_operation_xyz
x,y,z
1/2-x,-y,1/2+z
1/2+x,1/2-y,-z
-x,1/2+y,1/2-z
-x,-y,-z
1/2+x,y,1/2-z
1/2-x,1/2+y,z
x,1/2-y,1/2+z
loop_
_atom_site_type_symbol
_atom_site_label
_atom_site_fract_x
_atom_site_fract_y
_atom_site_fract_z
Si Si1 0.210292 0.847711 0.865473
Si Si2 0.827525 0.195279 0.620048
Si Si3 0.659236 0.055773 0.291547
Si Si4 0.707215 0.361677 0.355582
Si Si5 0.240590 0.444920 0.404422
Si Si6 0.495404 0.843729 0.708689
Si Si7 0.465804 0.722231 0.521341
O O1 0.220352 0.768086 0.915659
O O2 0.280924 0.875472 0.747146
O O3 0.105114 0.853926 0.813232
O O4 0.240561 0.890746 0.005430
O O5 0.788067 0.183568 0.780373
O O6 0.796402 0.124145 0.547746
O O7 0.936301 0.202821 0.596066
O O8 0.683245 0.034377 0.454958
O O9 0.555085 0.083169 0.275983
O O10 0.690400 0.997951 0.176310
O O11 0.680258 0.416398 0.231640
O O12 0.617843 0.320629 0.409167
O O13 0.456300 0.802181 0.568606
O O14 0.475236 0.797581 0.852416
#
# Coordination Sequence:
#
# PCOD9460540 Si02
#       7
#     8   8   8   8   8   8   8
#     4  11  23  43  71 101 137 174 225 290 332 415
#     4   9  24  40  69  98 135 174 225 274 348 390
#     4  12  24  47  65  99 138 178 235 272 354 397
#     4  10  23  41  69  95 135 175 222 273 345 391
#     4  10  26  43  69  94 137 184 220 283 334 417
#     4  11  27  39  72 100 140 174 230 283 345 406
#     4  11  23  43  65 106 135 173 228 279 344 405
#
# _framework density 21.663933
#
# number of rings (size 3 to 8) (size 9 to 14) (size 15 to 20)
#    0.857    0.571    1.429    2.571   14.000    0.000 
#    2.571    2.857    0.000    0.000    0.000    0.000 
#    0.000    0.000    0.000    0.000    0.000    0.000 
#
# Total GULP energy -311950.639198 kJ/mol
# GULP energy per Si atom -5570.547129 kJ/mol
# Density = 2.161462 g / cm^3
# Si number density = 21.663933 Si / 1000 Ang^3
#
#
#
# Elastic Constant Matrix: (Units=GPa)
#
#
# Indices 1 2 3 4 5 6 
#
# 1 48.7147 7.6251 10.8036 0.0000 0.0000 0.0000
# 2 7.6251 37.6603 -3.4336 0.0000 0.0000 0.0000
# 3 10.8036 -3.4336 126.5934 0.0000 0.0000 0.0000
# 4 0.0000 0.0000 0.0000 15.6312 0.0000 0.0000
# 5 0.0000 0.0000 0.0000 0.0000 27.0907 0.0000
# 6 0.0000 0.0000 0.0000 0.0000 0.0000 15.3696
#
#
#
# Elastic Compliance Matrix: (Units=1/GPa)
#
#
# Indices 1 2 3 4 5 6 
#
# 1 0.021681 -0.004570 -0.001974 0.000000 0.000000 0.000000
# 2 -0.004570 0.027582 0.001138 0.000000 0.000000 0.000000
# 3 -0.001974 0.001138 0.008099 0.000000 0.000000 0.000000
# 4 0.000000 0.000000 0.000000 0.063975 0.000000 0.000000
# 5 0.000000 0.000000 0.000000 0.000000 0.036913 0.000000
# 6 0.000000 0.000000 0.000000 0.000000 0.000000 0.065064
#
#
# Mechanical properties :
#
#
# Convention : Reuss Voigt Hill
#
# Bulk Modulus (GPa) = 21.48231 26.99541 24.23886
# Shear Modulus (GPa) = 20.02873 24.81649 22.42261
#
# Velocity S-wave (km/s) = 3.04389 3.38823 3.22066
# Velocity P-wave (km/s) = 4.72137 5.27208 5.00431
#
# Compressibility (1/GPa) = 0.04654992
#
# Stress axis : x y z
#
# Youngs Moduli (GPa) = 46.12374 36.25536 123.47726
#
# Poissons Ratio (x) = 0.16568 0.24377
# Poissons Ratio (y) = 0.21077 -0.14053
# Poissons Ratio (z) = 0.09106 -0.04126
#
# Static dielectric constant tensor:
#      x y z
#    x 1.745720 0.000000 0.000000 
#    y 0.000000 1.910280 0.000000 
#    z 0.000000 0.000000 1.844780 
# 
# From -- ./inp_files/3052.got.cif
#   From: 2010.05.17/outbox.cif.g08.bks.cpg/sg61_2_cif.got.tgz:3052.got - 2010.06.03 15:17:17.
