data_PCOD9460651
_publ_section_title
;
Structure prediction by ZEFSAII (Michael W. Deem and Ramdas Pophale) SiO2 
 PCOD9460651
Probable space group: P B C A
;
_chemical_formula_sum "Si O2"
_cell_formula_units_Z 52
_cell_length_a 9.454953
_cell_length_b 9.612098
_cell_length_c 19.071299
_cell_angle_alpha 90.000000
_cell_angle_beta 90.000000
_cell_angle_gamma 90.000000
_cell_volume 1733.236553
_symmetry_space_group_name_H-M "P B C A"
_symmetry_group_IT_number 61
_symmetry_cell_setting 'orthorhombic'
loop_
_space_group_symop_operation_xyz
x,y,z
1/2-x,-y,1/2+z
1/2+x,1/2-y,-z
-x,1/2+y,1/2-z
-x,-y,-z
1/2+x,y,1/2-z
1/2-x,1/2+y,z
x,1/2-y,1/2+z
loop_
_atom_site_type_symbol
_atom_site_label
_atom_site_fract_x
_atom_site_fract_y
_atom_site_fract_z
Si Si1 0.000000 0.500000 0.500000
Si Si2 0.299018 0.159224 0.839895
Si Si3 0.295887 0.221744 0.686162
Si Si4 0.033265 0.105572 0.157191
Si Si5 0.260073 0.257844 0.988774
Si Si6 0.172065 0.481967 0.075050
Si Si7 0.953987 0.592999 0.183479
O O1 0.998009 0.478567 0.586846
O O2 0.104624 0.643113 0.503888
O O3 0.240722 0.206920 0.765249
O O4 0.445238 0.248381 0.843767
O O5 0.225904 0.216895 0.909139
O O6 0.308707 0.991905 0.832129
O O7 0.268398 0.393301 0.525694
O O8 0.260423 0.097565 0.635483
O O9 0.459787 0.262056 0.685252
O O10 0.196102 0.156812 0.157557
O O11 0.013318 0.042356 0.235807
O O12 0.139017 0.354885 0.021490
O O13 0.035820 0.530804 0.116335
#
# Coordination Sequence:
#
# PCOD9460651 Si02
#       7
#     4   8   8   8   8   8   8
#     4  10  24  48  74 114 164 204 260 336 400 488
#     4  10  25  47  71 119 150 202 278 331 396 494
#     4  11  24  48  76 107 157 211 267 336 409 485
#     4  10  23  45  77 110 155 214 264 329 413 489
#     4  11  27  48  78 111 159 209 263 334 415 478
#     4  12  25  49  77 110 153 216 257 330 410 483
#     4  11  24  42  77 113 151 206 276 331 399 496
#
# _framework density 30.001676
#
# number of rings (size 3 to 8) (size 9 to 14) (size 15 to 20)
#    0.000    1.231    3.077    0.923    4.308    1.846 
#    5.538    0.000    0.000    0.000    0.000    0.000 
#    0.000    0.000    0.000    0.000    0.000    0.000 
#
# Total GULP energy -289832.035364 kJ/mol
# GULP energy per Si atom -5573.692988 kJ/mol
# Density = 2.993339 g / cm^3
# Si number density = 30.001676 Si / 1000 Ang^3
#
#
#
# Elastic Constant Matrix: (Units=GPa)
#
#
# Indices 1 2 3 4 5 6 
#
# 1 52.2985 30.0196 -6.1669 0.0000 0.0000 0.0000
# 2 30.0196 215.9553 60.6039 0.0000 0.0000 0.0000
# 3 -6.1669 60.6039 235.3991 0.0000 0.0000 0.0000
# 4 0.0000 0.0000 0.0000 51.6380 0.0000 0.0000
# 5 0.0000 0.0000 0.0000 0.0000 35.3682 0.0000
# 6 0.0000 0.0000 0.0000 0.0000 0.0000 59.9188
#
#
#
# Elastic Compliance Matrix: (Units=1/GPa)
#
#
# Indices 1 2 3 4 5 6 
#
# 1 0.021209 -0.003346 0.001417 0.000000 0.000000 0.000000
# 2 -0.003346 0.005519 -0.001509 0.000000 0.000000 0.000000
# 3 0.001417 -0.001509 0.004674 0.000000 0.000000 0.000000
# 4 0.000000 0.000000 0.000000 0.019366 0.000000 0.000000
# 5 0.000000 0.000000 0.000000 0.000000 0.028274 0.000000
# 6 0.000000 0.000000 0.000000 0.000000 0.000000 0.016689
#
#
# Mechanical properties :
#
#
# Convention : Reuss Voigt Hill
#
# Bulk Modulus (GPa) = 40.77218 74.72958 57.75088
# Shear Modulus (GPa) = 45.13439 57.33144 51.23291
#
# Velocity S-wave (km/s) = 3.88286 4.37617 4.13688
# Velocity P-wave (km/s) = 5.80703 7.10613 6.48917
#
# Compressibility (1/GPa) = 0.02452653
#
# Stress axis : x y z
#
# Youngs Moduli (GPa) = 47.15063 181.19130 213.96771
#
# Poissons Ratio (x) = 0.60624 -0.30319
# Poissons Ratio (y) = 0.15776 0.32278
# Poissons Ratio (z) = -0.06681 0.27333
#
# Static dielectric constant tensor:
#      x y z
#    x 2.752110 0.000000 0.000000 
#    y 0.000000 2.394580 0.000000 
#    z 0.000000 0.000000 2.383150 
# 
# From -- ./inp_files/9473.got.cif
#   From: 2010.05.17/outbox.cif.g08.bks.cpg/sg61_5_cif.got.tgz:9473.got - 2010.06.03 15:17:17.
