data_PCOD9460478
_publ_section_title
;
Structure prediction by ZEFSAII (Michael W. Deem and Ramdas Pophale) SiO2 
 PCOD9460478
Probable space group: P B C A
;
_chemical_formula_sum "Si O2"
_cell_formula_units_Z 48
_cell_length_a 10.410411
_cell_length_b 13.158013
_cell_length_c 12.578940
_cell_angle_alpha 90.000000
_cell_angle_beta 90.000000
_cell_angle_gamma 90.000000
_cell_volume 1723.067268
_symmetry_space_group_name_H-M "P B C A"
_symmetry_group_IT_number 61
_symmetry_cell_setting 'orthorhombic'
loop_
_space_group_symop_operation_xyz
x,y,z
1/2-x,-y,1/2+z
1/2+x,1/2-y,-z
-x,1/2+y,1/2-z
-x,-y,-z
1/2+x,y,1/2-z
1/2-x,1/2+y,z
x,1/2-y,1/2+z
loop_
_atom_site_type_symbol
_atom_site_label
_atom_site_fract_x
_atom_site_fract_y
_atom_site_fract_z
Si Si1 0.822996 0.778838 0.329462
Si Si2 0.922727 0.500320 0.779687
Si Si3 0.423402 0.733777 0.397294
Si Si4 0.741139 0.955798 0.574688
Si Si5 0.585054 0.905220 0.366124
Si Si6 0.160401 0.857476 0.534270
O O1 0.888517 0.890895 0.333908
O O2 0.894428 0.724658 0.231955
O O3 0.674601 0.818038 0.312814
O O4 0.789616 0.698990 0.424686
O O5 0.830551 0.462953 0.685451
O O6 0.905823 0.416977 0.868660
O O7 0.059285 0.511354 0.722840
O O8 0.323450 0.647522 0.432669
O O9 0.445463 0.856468 0.389682
O O10 0.544166 0.720203 0.481543
O O11 0.648732 0.947967 0.471445
O O12 0.819505 0.059556 0.555120
#
# Coordination Sequence:
#
# PCOD9460478 Si02
#       6
#     8   8   8   8   8   8
#     4  10  22  46  68  96 140 182 226 280 352 414
#     4  11  24  44  71 100 139 183 230 286 348 419
#     4  10  24  44  66 107 135 187 231 280 354 413
#     4  12  24  46  72 106 140 182 236 300 340 420
#     4  10  24  44  66 107 135 187 231 280 354 413
#     4  11  24  44  71 100 139 183 230 286 348 419
#
# _framework density 27.857301
#
# number of rings (size 3 to 8) (size 9 to 14) (size 15 to 20)
#    0.000    1.333    3.333    1.000    4.667    5.333 
#    6.000    0.000    0.000    0.000    0.000    0.000 
#    0.000    0.000    0.000    0.000    0.000    0.000 
#
# Total GULP energy -267768.961454 kJ/mol
# GULP energy per Si atom -5578.520030 kJ/mol
# Density = 2.779390 g / cm^3
# Si number density = 27.857301 Si / 1000 Ang^3
#
#
#
# Elastic Constant Matrix: (Units=GPa)
#
#
# Indices 1 2 3 4 5 6 
#
# 1 74.7683 2.6533 19.3830 0.0000 0.0000 0.0000
# 2 2.6533 91.8848 2.2899 0.0000 0.0000 0.0000
# 3 19.3830 2.2899 77.8114 0.0000 0.0000 0.0000
# 4 0.0000 0.0000 0.0000 9.3727 0.0000 0.0000
# 5 0.0000 0.0000 0.0000 0.0000 55.8497 0.0000
# 6 0.0000 0.0000 0.0000 0.0000 0.0000 53.9679
#
#
#
# Elastic Compliance Matrix: (Units=1/GPa)
#
#
# Indices 1 2 3 4 5 6 
#
# 1 0.014308 -0.000325 -0.003555 0.000000 0.000000 0.000000
# 2 -0.000325 0.010899 -0.000240 0.000000 0.000000 0.000000
# 3 -0.003555 -0.000240 0.013744 0.000000 0.000000 0.000000
# 4 0.000000 0.000000 0.000000 0.106693 0.000000 0.000000
# 5 0.000000 0.000000 0.000000 0.000000 0.017905 0.000000
# 6 0.000000 0.000000 0.000000 0.000000 0.000000 0.018530
#
#
# Mechanical properties :
#
#
# Convention : Reuss Voigt Hill
#
# Bulk Modulus (GPa) = 32.56019 32.56853 32.56436
# Shear Modulus (GPa) = 24.93100 38.51395 31.72248
#
# Velocity S-wave (km/s) = 2.99482 3.72229 3.37820
# Velocity P-wave (km/s) = 4.86541 5.49459 5.18954
#
# Compressibility (1/GPa) = 0.03071236
#
# Stress axis : x y z
#
# Youngs Moduli (GPa) = 69.89269 91.75536 72.75853
#
# Poissons Ratio (x) = 0.02978 0.25862
# Poissons Ratio (y) = 0.02268 0.01745
# Poissons Ratio (z) = 0.24844 0.02201
#
# Static dielectric constant tensor:
#      x y z
#    x 2.614880 0.000000 0.000000 
#    y 0.000000 2.256910 0.000000 
#    z 0.000000 0.000000 2.247410 
# 
# From -- ./inp_files/7467.got.cif
#   From: 2010.05.17/outbox.cif.g08.bks.cpg/sg61_4_cif.got.tgz:7467.got - 2010.06.03 15:17:17.
