data_PCOD9460266
_publ_section_title
;
Structure prediction by ZEFSAII (Michael W. Deem and Ramdas Pophale) SiO2 
 PCOD9460266
Probable space group: P B C A
;
_chemical_formula_sum "Si O2"
_cell_formula_units_Z 40
_cell_length_a 14.092383
_cell_length_b 9.670856
_cell_length_c 11.081301
_cell_angle_alpha 90.000000
_cell_angle_beta 90.000000
_cell_angle_gamma 90.000000
_cell_volume 1510.219613
_symmetry_space_group_name_H-M "P B C A"
_symmetry_group_IT_number 61
_symmetry_cell_setting 'orthorhombic'
loop_
_space_group_symop_operation_xyz
x,y,z
1/2-x,-y,1/2+z
1/2+x,1/2-y,-z
-x,1/2+y,1/2-z
-x,-y,-z
1/2+x,y,1/2-z
1/2-x,1/2+y,z
x,1/2-y,1/2+z
loop_
_atom_site_type_symbol
_atom_site_label
_atom_site_fract_x
_atom_site_fract_y
_atom_site_fract_z
Si Si1 0.483013 0.008368 0.269990
Si Si2 0.178388 0.513031 0.598085
Si Si3 0.882882 0.506220 0.965084
Si Si4 0.643945 0.214650 0.607074
Si Si5 0.848864 0.268979 0.600066
O O1 0.592841 0.010146 0.309764
O O2 0.426308 0.136391 0.332963
O O3 0.465037 0.020415 0.129242
O O4 0.434679 0.862048 0.311868
O O5 0.289528 0.504961 0.624471
O O6 0.165554 0.402020 0.491900
O O7 0.164112 0.657955 0.529993
O O8 0.884980 0.653768 0.028891
O O9 0.873592 0.385492 0.062784
O O10 0.745614 0.258742 0.665193
#
# Coordination Sequence:
#
# PCOD9460266 Si02
#       5
#     8   8   8   8   8
#     4  11  22  41  66  87 124 175 202 245 328 371
#     4   9  20  41  61  88 133 163 198 266 310 359
#     4  10  22  40  62  93 126 158 212 263 297 368
#     4   9  19  38  61  89 124 160 203 253 305 368
#     4   9  19  38  61  89 124 160 203 253 305 368
#
# _framework density 26.486211999999998
#
# number of rings (size 3 to 8) (size 9 to 14) (size 15 to 20)
#    0.000    2.400    0.000    3.600    0.000    6.400 
#    0.000   16.000    0.000    0.000    0.000    0.000 
#    0.000    0.000    0.000    0.000    0.000    0.000 
#
# Total GULP energy -224064.022531 kJ/mol
# GULP energy per Si atom -5601.600563 kJ/mol
# Density = 2.642593 g / cm^3
# Si number density = 26.486212 Si / 1000 Ang^3
#
#
#
# Elastic Constant Matrix: (Units=GPa)
#
#
# Indices 1 2 3 4 5 6 
#
# 1 206.2339 38.7478 34.0547 0.0000 0.0000 0.0000
# 2 38.7478 74.5694 23.5955 0.0000 0.0000 0.0000
# 3 34.0547 23.5955 48.6481 0.0000 0.0000 0.0000
# 4 0.0000 0.0000 0.0000 20.0104 0.0000 0.0000
# 5 0.0000 0.0000 0.0000 0.0000 28.6978 0.0000
# 6 0.0000 0.0000 0.0000 0.0000 0.0000 215.6214
#
#
#
# Elastic Compliance Matrix: (Units=1/GPa)
#
#
# Indices 1 2 3 4 5 6 
#
# 1 0.005728 -0.002017 -0.003032 0.000000 0.000000 0.000000
# 2 -0.002017 0.016552 -0.006616 0.000000 0.000000 0.000000
# 3 -0.003032 -0.006616 0.025887 0.000000 0.000000 0.000000
# 4 0.000000 0.000000 0.000000 0.049974 0.000000 0.000000
# 5 0.000000 0.000000 0.000000 0.000000 0.034846 0.000000
# 6 0.000000 0.000000 0.000000 0.000000 0.000000 0.004638
#
#
# Mechanical properties :
#
#
# Convention : Reuss Voigt Hill
#
# Bulk Modulus (GPa) = 40.26158 58.02749 49.14454
# Shear Modulus (GPa) = 29.54491 68.40281 48.97386
#
# Velocity S-wave (km/s) = 3.34351 5.08742 4.30470
# Velocity P-wave (km/s) = 5.48993 7.51434 6.58045
#
# Compressibility (1/GPa) = 0.02483758
#
# Stress axis : x y z
#
# Youngs Moduli (GPa) = 174.56603 60.41554 38.62970
#
# Poissons Ratio (x) = 0.12188 0.11711
# Poissons Ratio (y) = 0.35217 0.25557
# Poissons Ratio (z) = 0.52921 0.39970
#
# Static dielectric constant tensor:
#      x y z
#    x 2.218570 0.000000 0.000000 
#    y 0.000000 2.038130 0.000000 
#    z 0.000000 0.000000 2.030570 
# 
# From -- ./inp_files/7704.got.cif
#   From: 2010.05.17/outbox.cif.g08.bks.cpg/sg61_4_cif.got.tgz:7704.got - 2010.06.03 15:17:17.
