data_PCOD9460671
_publ_section_title
;
Structure prediction by ZEFSAII (Michael W. Deem and Ramdas Pophale) SiO2 
 PCOD9460671
Probable space group: P B C A
;
_chemical_formula_sum "Si O2"
_cell_formula_units_Z 40
_cell_length_a 8.128268
_cell_length_b 14.085737
_cell_length_c 14.012104
_cell_angle_alpha 90.000000
_cell_angle_beta 90.000000
_cell_angle_gamma 90.000000
_cell_volume 1604.282853
_symmetry_space_group_name_H-M "P B C A"
_symmetry_group_IT_number 61
_symmetry_cell_setting 'orthorhombic'
loop_
_space_group_symop_operation_xyz
x,y,z
1/2-x,-y,1/2+z
1/2+x,1/2-y,-z
-x,1/2+y,1/2-z
-x,-y,-z
1/2+x,y,1/2-z
1/2-x,1/2+y,z
x,1/2-y,1/2+z
loop_
_atom_site_type_symbol
_atom_site_label
_atom_site_fract_x
_atom_site_fract_y
_atom_site_fract_z
Si Si1 0.081284 0.803165 0.983327
Si Si2 0.832688 0.282796 0.721241
Si Si3 0.922473 0.643057 0.080561
Si Si4 0.873321 0.483645 0.818879
Si Si5 0.442122 0.098908 0.661112
O O1 0.984417 0.867362 0.059501
O O2 0.066990 0.698661 0.027473
O O3 0.046159 0.794153 0.871077
O O4 0.264644 0.846117 0.987472
O O5 0.653847 0.296337 0.670236
O O6 0.846296 0.376773 0.783208
O O7 0.862447 0.187916 0.780751
O O8 0.974746 0.537472 0.109887
O O9 0.930622 0.548032 0.730977
O O10 0.704255 0.524405 0.856512
#
# Coordination Sequence:
#
# PCOD9460671 Si02
#       5
#     8   8   8   8   8
#     4  10  24  44  72 101 140 192 233 289 364 419
#     4  10  25  47  67 102 149 177 242 296 349 420
#     4  10  23  47  67 104 136 189 231 294 350 416
#     4  12  25  46  70 108 143 185 243 294 354 432
#     4  12  25  42  75 100 140 196 232 294 365 417
#
# _framework density 24.933257999999999
#
# number of rings (size 3 to 8) (size 9 to 14) (size 15 to 20)
#    1.200    0.000    4.000    1.200    2.800    3.200 
#    3.600    0.000    0.000    0.000    0.000    0.000 
#    0.000    0.000    0.000    0.000    0.000    0.000 
#
# Total GULP energy -223238.555182 kJ/mol
# GULP energy per Si atom -5580.963880 kJ/mol
# Density = 2.487651 g / cm^3
# Si number density = 24.933258 Si / 1000 Ang^3
#
#
#
# Elastic Constant Matrix: (Units=GPa)
#
#
# Indices 1 2 3 4 5 6 
#
# 1 32.1985 -8.9765 -13.7305 0.0000 0.0000 0.0000
# 2 -8.9765 85.2786 21.3126 0.0000 0.0000 0.0000
# 3 -13.7305 21.3126 91.5758 0.0000 0.0000 0.0000
# 4 0.0000 0.0000 0.0000 33.1962 0.0000 0.0000
# 5 0.0000 0.0000 0.0000 0.0000 130.8535 0.0000
# 6 0.0000 0.0000 0.0000 0.0000 0.0000 35.7889
#
#
#
# Elastic Compliance Matrix: (Units=1/GPa)
#
#
# Indices 1 2 3 4 5 6 
#
# 1 0.033643 0.002421 0.004481 0.000000 0.000000 0.000000
# 2 0.002421 0.012625 -0.002575 0.000000 0.000000 0.000000
# 3 0.004481 -0.002575 0.012191 0.000000 0.000000 0.000000
# 4 0.000000 0.000000 0.000000 0.030124 0.000000 0.000000
# 5 0.000000 0.000000 0.000000 0.000000 0.007642 0.000000
# 6 0.000000 0.000000 0.000000 0.000000 0.000000 0.027942
#
#
# Mechanical properties :
#
#
# Convention : Reuss Voigt Hill
#
# Bulk Modulus (GPa) = 14.90021 22.91826 18.90924
# Shear Modulus (GPa) = 36.26251 53.99752 45.13001
#
# Velocity S-wave (km/s) = 3.81777 4.65874 4.25906
# Velocity P-wave (km/s) = 5.04211 6.17659 5.63796
#
# Compressibility (1/GPa) = 0.06711313
#
# Stress axis : x y z
#
# Youngs Moduli (GPa) = 29.72374 79.20966 82.02739
#
# Poissons Ratio (x) = -0.19180 -0.36754
# Poissons Ratio (y) = -0.07198 0.21123
# Poissons Ratio (z) = -0.13318 0.20397
#
# Static dielectric constant tensor:
#      x y z
#    x 2.091780 0.000000 0.000000 
#    y 0.000000 1.913890 0.000000 
#    z 0.000000 0.000000 2.107410 
# 
# From -- ./inp_files/8855.got.cif
#   From: 2010.05.17/outbox.cif.g08.bks.cpg/sg61_5_cif.got.tgz:8855.got - 2010.06.03 15:17:17.
