data_PCOD9460141
_publ_section_title
;
Structure prediction by ZEFSAII (Michael W. Deem and Ramdas Pophale) SiO2 
 PCOD9460141
Probable space group: P B C A
;
_chemical_formula_sum "Si O2"
_cell_formula_units_Z 60
_cell_length_a 9.144875
_cell_length_b 9.300437
_cell_length_c 26.607375
_cell_angle_alpha 90.000000
_cell_angle_beta 90.000000
_cell_angle_gamma 90.000000
_cell_volume 2262.992733
_symmetry_space_group_name_H-M "P B C A"
_symmetry_group_IT_number 61
_symmetry_cell_setting 'orthorhombic'
loop_
_space_group_symop_operation_xyz
x,y,z
1/2-x,-y,1/2+z
1/2+x,1/2-y,-z
-x,1/2+y,1/2-z
-x,-y,-z
1/2+x,y,1/2-z
1/2-x,1/2+y,z
x,1/2-y,1/2+z
loop_
_atom_site_type_symbol
_atom_site_label
_atom_site_fract_x
_atom_site_fract_y
_atom_site_fract_z
Si Si1 0.596928 0.421875 0.093670
Si Si2 0.876059 0.749576 0.349392
Si Si3 0.944997 0.492813 0.701304
Si Si4 0.025256 0.466954 0.856348
Si Si5 0.740698 0.154139 0.059369
Si Si6 0.000000 0.000000 0.500000
Si Si7 0.105343 0.764060 0.723177
Si Si8 0.338702 0.204284 0.071369
O O1 0.626605 0.430578 0.153376
O O2 0.720325 0.320696 0.069071
O O3 0.605903 0.575581 0.066252
O O4 0.445759 0.338455 0.083727
O O5 0.932231 0.600259 0.327214
O O6 0.004938 0.865985 0.346662
O O7 0.740219 0.784281 0.311959
O O8 0.818163 0.743165 0.406479
O O9 0.016082 0.619000 0.734514
O O10 0.853636 0.373764 0.732026
O O11 0.003890 0.365981 0.808692
O O12 0.884822 0.425039 0.890554
O O13 0.153575 0.415028 0.892422
O O14 0.645893 0.098748 0.012901
O O15 0.107906 0.864489 0.519663
#
# Coordination Sequence:
#
# PCOD9460141 Si02
#       8
#     8   8   8   8   8   4   8   8
#     4  10  22  42  63  94 133 177 214 267 331 402
#     4  11  22  40  66  93 130 170 219 274 334 402
#     4  12  24  41  63  95 129 172 228 268 336 393
#     4   9  19  39  62  88 127 179 214 261 342 385
#     4  10  21  43  69  93 143 175 219 271 339 398
#     4   8  18  42  64 102 126 180 210 272 322 396
#     4  11  22  40  59  89 130 166 221 280 315 388
#     4   9  19  40  68  91 137 168 216 269 335 394
#
# _framework density 26.513562
#
# number of rings (size 3 to 8) (size 9 to 14) (size 15 to 20)
#    0.000    2.133    4.000    2.400    1.867    1.067 
#   14.400    0.000    0.000    4.000    0.000    0.000 
#    0.000    0.000    0.000    0.000    0.000    0.000 
#
# Total GULP energy -334151.194969 kJ/mol
# GULP energy per Si atom -5569.186583 kJ/mol
# Density = 2.645322 g / cm^3
# Si number density = 26.513562 Si / 1000 Ang^3
#
#
#
# Elastic Constant Matrix: (Units=GPa)
#
#
# Indices 1 2 3 4 5 6 
#
# 1 53.7320 23.8999 29.0152 0.0000 0.0000 0.0000
# 2 23.8999 119.5042 18.3091 0.0000 0.0000 0.0000
# 3 29.0152 18.3091 82.8029 0.0000 0.0000 0.0000
# 4 0.0000 0.0000 0.0000 42.4975 0.0000 0.0000
# 5 0.0000 0.0000 0.0000 0.0000 20.6820 0.0000
# 6 0.0000 0.0000 0.0000 0.0000 0.0000 32.7436
#
#
#
# Elastic Compliance Matrix: (Units=1/GPa)
#
#
# Indices 1 2 3 4 5 6 
#
# 1 0.024440 -0.003701 -0.007746 0.000000 0.000000 0.000000
# 2 -0.003701 0.009222 -0.000742 0.000000 0.000000 0.000000
# 3 -0.007746 -0.000742 0.014955 0.000000 0.000000 0.000000
# 4 0.000000 0.000000 0.000000 0.023531 0.000000 0.000000
# 5 0.000000 0.000000 0.000000 0.000000 0.048351 0.000000
# 6 0.000000 0.000000 0.000000 0.000000 0.000000 0.030540
#
#
# Mechanical properties :
#
#
# Convention : Reuss Voigt Hill
#
# Bulk Modulus (GPa) = 41.25594 44.27636 42.76615
# Shear Modulus (GPa) = 27.24850 31.50562 29.37706
#
# Velocity S-wave (km/s) = 3.20928 3.45089 3.33228
# Velocity P-wave (km/s) = 5.41542 5.71086 5.56510
#
# Compressibility (1/GPa) = 0.02423893
#
# Stress axis : x y z
#
# Youngs Moduli (GPa) = 40.91702 108.43874 66.86667
#
# Poissons Ratio (x) = 0.40134 0.51792
# Poissons Ratio (y) = 0.15144 0.04963
# Poissons Ratio (z) = 0.31693 0.08048
#
# Static dielectric constant tensor:
#      x y z
#    x 2.072590 0.000000 0.000000 
#    y 0.000000 2.065720 0.000000 
#    z 0.000000 0.000000 2.233390 
# 
# From -- ./inp_files/11769.got.cif
#   From: 2010.05.17/outbox.cif.g08.bks.cpg/sg61_6_cif.got.tgz:11769.got - 2010.06.03 15:17:17.
