data_PCOD9460404
_publ_section_title
;
Structure prediction by ZEFSAII (Michael W. Deem and Ramdas Pophale) SiO2 
 PCOD9460404
Probable space group: P B C A
;
_chemical_formula_sum "Si O2"
_cell_formula_units_Z 56
_cell_length_a 13.557911
_cell_length_b 30.996838
_cell_length_c 5.202225
_cell_angle_alpha 90.000000
_cell_angle_beta 90.000000
_cell_angle_gamma 90.000000
_cell_volume 2186.247390
_symmetry_space_group_name_H-M "P B C A"
_symmetry_group_IT_number 61
_symmetry_cell_setting 'orthorhombic'
loop_
_space_group_symop_operation_xyz
x,y,z
1/2-x,-y,1/2+z
1/2+x,1/2-y,-z
-x,1/2+y,1/2-z
-x,-y,-z
1/2+x,y,1/2-z
1/2-x,1/2+y,z
x,1/2-y,1/2+z
loop_
_atom_site_type_symbol
_atom_site_label
_atom_site_fract_x
_atom_site_fract_y
_atom_site_fract_z
Si Si1 0.627457 0.915303 0.076073
Si Si2 0.686390 0.993005 0.410055
Si Si3 0.709665 0.276064 0.744337
Si Si4 0.727878 0.124997 0.190128
Si Si5 0.446799 0.930614 0.753204
Si Si6 0.942654 0.140661 0.942362
Si Si7 0.946731 0.228468 0.211490
O O1 0.651170 0.946262 0.314723
O O2 0.570839 0.870447 0.143674
O O3 0.727032 0.900429 0.936199
O O4 0.545851 0.940527 0.910793
O O5 0.731400 0.994410 0.694282
O O6 0.599570 0.027421 0.374991
O O7 0.676824 0.248218 0.500260
O O8 0.686810 0.326929 0.739999
O O9 0.828278 0.273116 0.731050
O O10 0.641265 0.093703 0.090169
O O11 0.828154 0.133771 0.030933
O O12 0.483884 0.895404 0.548737
O O13 0.974860 0.185656 0.057194
O O14 0.975277 0.234150 0.508108
#
# Coordination Sequence:
#
# PCOD9460404 Si02
#       7
#     8   8   8   8   8   8   8
#     4  11  25  43  72 101 138 184 231 290 348 423
#     4  12  27  49  76 105 141 184 231 284 358 418
#     4   9  19  35  61  96 128 177 229 282 338 405
#     4  10  22  43  66  96 139 181 231 286 348 419
#     4  11  25  45  68 104 137 184 230 292 347 421
#     4  10  24  40  68 102 137 182 237 280 353 411
#     4   9  19  35  63  94 136 179 225 281 338 407
#
# _framework density 25.614667000000001
#
# number of rings (size 3 to 8) (size 9 to 14) (size 15 to 20)
#    0.000    1.714    1.429    1.286   16.000    1.714 
#    0.000    1.429    0.000    0.000    0.000    0.000 
#    0.000    0.000    0.000    0.000    0.000    0.000 
#
# Total GULP energy -313116.683545 kJ/mol
# GULP energy per Si atom -5591.369349 kJ/mol
# Density = 2.555637 g / cm^3
# Si number density = 25.614667 Si / 1000 Ang^3
#
#
#
# Elastic Constant Matrix: (Units=GPa)
#
#
# Indices 1 2 3 4 5 6 
#
# 1 115.2743 21.8850 -1.4279 0.0000 0.0000 0.0000
# 2 21.8850 169.7702 36.2690 0.0000 0.0000 0.0000
# 3 -1.4279 36.2690 81.2259 0.0000 0.0000 0.0000
# 4 0.0000 0.0000 0.0000 29.5574 0.0000 0.0000
# 5 0.0000 0.0000 0.0000 0.0000 -1.9054 0.0000
# 6 0.0000 0.0000 0.0000 0.0000 0.0000 18.5526
#
#
#
# Elastic Compliance Matrix: (Units=1/GPa)
#
#
# Indices 1 2 3 4 5 6 
#
# 1 0.008933 -0.001310 0.000742 0.000000 0.000000 0.000000
# 2 -0.001310 0.006704 -0.003016 0.000000 0.000000 0.000000
# 3 0.000742 -0.003016 0.013671 0.000000 0.000000 0.000000
# 4 0.000000 0.000000 0.000000 0.033833 0.000000 0.000000
# 5 0.000000 0.000000 0.000000 0.000000 -0.524822 0.000000
# 6 0.000000 0.000000 0.000000 0.000000 0.000000 0.053901
#
#
# Mechanical properties :
#
#
# Convention : Reuss Voigt Hill
#
# Bulk Modulus (GPa) = 45.16926 53.30251 49.23589
# Shear Modulus (GPa) = -12.71512 29.87721 8.58104
#
# Velocity S-wave (km/s) = -2.23042 3.41898 1.83230
# Velocity P-wave (km/s) = 3.32256 6.03659 4.87236
#
# Compressibility (1/GPa) = 0.02213895
#
# Stress axis : x y z
#
# Youngs Moduli (GPa) = 111.94614 149.17392 73.14632
#
# Poissons Ratio (x) = 0.19543 -0.05427
# Poissons Ratio (y) = 0.14666 0.22063
# Poissons Ratio (z) = -0.08306 0.44995
#
# Static dielectric constant tensor:
#      x y z
#    x 2.028590 0.000000 0.000000 
#    y 0.000000 2.048230 0.000000 
#    z 0.000000 0.000000 2.045020 
# 
# From -- ./inp_files/605.got.cif
#   From: 2010.05.17/outbox.cif.g08.bks.cpg/sg61_1_cif.got.tgz:605.got - 2010.06.03 15:17:17.
