data_PCOD9460586
_publ_section_title
;
Structure prediction by ZEFSAII (Michael W. Deem and Ramdas Pophale) SiO2 
 PCOD9460586
Probable space group: P B C A
;
_chemical_formula_sum "Si O2"
_cell_formula_units_Z 56
_cell_length_a 14.373713
_cell_length_b 13.107086
_cell_length_c 11.028989
_cell_angle_alpha 90.000000
_cell_angle_beta 90.000000
_cell_angle_gamma 90.000000
_cell_volume 2077.833872
_symmetry_space_group_name_H-M "P B C A"
_symmetry_group_IT_number 61
_symmetry_cell_setting 'orthorhombic'
loop_
_space_group_symop_operation_xyz
x,y,z
1/2-x,-y,1/2+z
1/2+x,1/2-y,-z
-x,1/2+y,1/2-z
-x,-y,-z
1/2+x,y,1/2-z
1/2-x,1/2+y,z
x,1/2-y,1/2+z
loop_
_atom_site_type_symbol
_atom_site_label
_atom_site_fract_x
_atom_site_fract_y
_atom_site_fract_z
Si Si1 0.075086 0.119572 0.896556
Si Si2 0.989687 0.574901 0.276142
Si Si3 0.560727 0.225496 0.925532
Si Si4 0.294957 0.085827 0.255303
Si Si5 0.736806 0.019963 0.489042
Si Si6 0.231554 0.312174 0.205139
Si Si7 0.392011 0.412218 0.350224
O O1 0.006695 0.029248 0.857818
O O2 0.139515 0.078678 0.005682
O O3 0.152515 0.144182 0.796110
O O4 0.033532 0.224446 0.945638
O O5 0.095047 0.592028 0.233501
O O6 0.960194 0.681479 0.333110
O O7 0.916851 0.529364 0.181011
O O8 0.668477 0.188743 0.918742
O O9 0.488662 0.139184 0.886244
O O10 0.247305 0.192248 0.228805
O O11 0.279750 0.056870 0.397123
O O12 0.259236 0.004749 0.152667
O O13 0.821510 0.088407 0.537404
O O14 0.333861 0.354520 0.244659
#
# Coordination Sequence:
#
# PCOD9460586 Si02
#       7
#     8   8   8   8   8   8   8
#     4  10  23  43  68 104 146 192 244 302 370 448
#     4  11  24  44  72 105 147 191 246 302 380 436
#     4  12  23  44  73 103 144 198 245 307 371 446
#     4  11  23  47  75 108 150 201 245 308 375 443
#     4  10  24  44  71 109 150 190 250 304 371 444
#     4  11  23  46  68 103 149 190 248 304 373 440
#     4  11  25  44  69 108 144 193 246 313 362 449
#
# _framework density 26.951142999999998
#
# number of rings (size 3 to 8) (size 9 to 14) (size 15 to 20)
#    0.000    1.143    4.286    1.286    0.000    4.000 
#    0.000    0.000    0.000    0.000    0.000    0.000 
#    0.000    0.000    0.000    0.000    0.000    0.000 
#
# Total GULP energy -312922.939304 kJ/mol
# GULP energy per Si atom -5587.909630 kJ/mol
# Density = 2.688980 g / cm^3
# Si number density = 26.951143 Si / 1000 Ang^3
#
#
#
# Elastic Constant Matrix: (Units=GPa)
#
#
# Indices 1 2 3 4 5 6 
#
# 1 122.5760 18.8818 26.4762 0.0000 0.0000 0.0000
# 2 18.8818 41.4403 14.8454 0.0000 0.0000 0.0000
# 3 26.4762 14.8454 75.9817 0.0000 0.0000 0.0000
# 4 0.0000 0.0000 0.0000 39.6827 0.0000 0.0000
# 5 0.0000 0.0000 0.0000 0.0000 39.1448 0.0000
# 6 0.0000 0.0000 0.0000 0.0000 0.0000 50.2125
#
#
#
# Elastic Compliance Matrix: (Units=1/GPa)
#
#
# Indices 1 2 3 4 5 6 
#
# 1 0.009219 -0.003279 -0.002572 0.000000 0.000000 0.000000
# 2 -0.003279 0.027114 -0.004155 0.000000 0.000000 0.000000
# 3 -0.002572 -0.004155 0.014869 0.000000 0.000000 0.000000
# 4 0.000000 0.000000 0.000000 0.025200 0.000000 0.000000
# 5 0.000000 0.000000 0.000000 0.000000 0.025546 0.000000
# 6 0.000000 0.000000 0.000000 0.000000 0.000000 0.019915
#
#
# Mechanical properties :
#
#
# Convention : Reuss Voigt Hill
#
# Bulk Modulus (GPa) = 32.06153 40.04499 36.05326
# Shear Modulus (GPa) = 32.83622 37.79431 35.31526
#
# Velocity S-wave (km/s) = 3.49429 3.74883 3.62379
# Velocity P-wave (km/s) = 5.31056 5.79904 5.56017
#
# Compressibility (1/GPa) = 0.03119003
#
# Stress axis : x y z
#
# Youngs Moduli (GPa) = 108.47386 36.88177 67.25429
#
# Poissons Ratio (x) = 0.12094 0.17295
# Poissons Ratio (y) = 0.35571 0.27943
# Poissons Ratio (z) = 0.27896 0.15324
#
# Static dielectric constant tensor:
#      x y z
#    x 2.016420 0.000000 0.000000 
#    y 0.000000 2.249020 0.000000 
#    z 0.000000 0.000000 2.227630 
# 
# From -- ./inp_files/5796.got.cif
#   From: 2010.05.17/outbox.cif.g08.bks.cpg/sg61_3_cif.got.tgz:5796.got - 2010.06.03 15:17:17.
