data_PCOD9460882
_publ_section_title
;
Structure prediction by ZEFSAII (Michael W. Deem and Ramdas Pophale) SiO2 
 PCOD9460882
Probable space group: P B C A
;
_chemical_formula_sum "Si O2"
_cell_formula_units_Z 64
_cell_length_a 14.487633
_cell_length_b 16.911449
_cell_length_c 11.578761
_cell_angle_alpha 90.000000
_cell_angle_beta 90.000000
_cell_angle_gamma 90.000000
_cell_volume 2836.875952
_symmetry_space_group_name_H-M "P B C A"
_symmetry_group_IT_number 61
_symmetry_cell_setting 'orthorhombic'
loop_
_space_group_symop_operation_xyz
x,y,z
1/2-x,-y,1/2+z
1/2+x,1/2-y,-z
-x,1/2+y,1/2-z
-x,-y,-z
1/2+x,y,1/2-z
1/2-x,1/2+y,z
x,1/2-y,1/2+z
loop_
_atom_site_type_symbol
_atom_site_label
_atom_site_fract_x
_atom_site_fract_y
_atom_site_fract_z
Si Si1 0.026918 0.648360 0.551232
Si Si2 0.497433 0.268217 0.754176
Si Si3 0.072888 0.970988 0.239978
Si Si4 0.234968 0.088949 0.218905
Si Si5 0.727591 0.686452 0.053339
Si Si6 0.119682 0.840346 0.407754
Si Si7 0.647400 0.214656 0.408942
Si Si8 0.575303 0.574667 0.350853
O O1 0.023321 0.569379 0.630104
O O2 0.130210 0.652420 0.496453
O O3 0.026298 0.720503 0.640959
O O4 0.934905 0.666578 0.475335
O O5 0.461687 0.216646 0.861590
O O6 0.604807 0.272069 0.781408
O O7 0.452551 0.353662 0.736451
O O8 0.131109 0.904772 0.307786
O O9 0.143644 0.038440 0.204667
O O10 0.001447 0.008648 0.331007
O O11 0.242969 0.128662 0.344220
O O12 0.231748 0.156987 0.121511
O O13 0.327136 0.041028 0.191315
O O14 0.701897 0.776465 0.091177
O O15 0.812535 0.706285 0.967035
O O16 0.088195 0.885704 0.523538
#
# Coordination Sequence:
#
# PCOD9460882 Si02
#       8
#     8   8   8   8   8   8   8   8
#     4  11  25  49  70 106 148 193 241 306 372 441
#     4  11  20  42  73 101 133 184 244 294 356 430
#     4  11  29  45  68 104 151 192 236 296 378 446
#     4  12  26  44  69 107 142 189 240 300 363 445
#     4  12  25  45  77 107 140 186 251 310 354 437
#     4  11  23  44  73  99 137 189 236 298 358 424
#     4  12  23  42  76 104 138 188 246 302 364 429
#     4  12  22  47  68  99 147 185 238 299 367 428
#
# _framework density 22.560027000000002
#
# number of rings (size 3 to 8) (size 9 to 14) (size 15 to 20)
#    0.000    0.500    6.250    1.125    3.500    2.500 
#    4.500    0.000    0.000    0.000    0.000    0.000 
#    0.000    0.000    0.000    0.000    0.000    0.000 
#
# Total GULP energy -357112.270387 kJ/mol
# GULP energy per Si atom -5579.879225 kJ/mol
# Density = 2.250868 g / cm^3
# Si number density = 22.560027 Si / 1000 Ang^3
#
#
#
# Elastic Constant Matrix: (Units=GPa)
#
#
# Indices 1 2 3 4 5 6 
#
# 1 65.9084 -11.6962 8.0528 0.0000 0.0000 0.0000
# 2 -11.6962 42.9540 10.7995 0.0000 0.0000 0.0000
# 3 8.0528 10.7995 65.2512 0.0000 0.0000 0.0000
# 4 0.0000 0.0000 0.0000 37.9104 0.0000 0.0000
# 5 0.0000 0.0000 0.0000 0.0000 32.7455 0.0000
# 6 0.0000 0.0000 0.0000 0.0000 0.0000 27.1952
#
#
#
# Elastic Compliance Matrix: (Units=1/GPa)
#
#
# Indices 1 2 3 4 5 6 
#
# 1 0.016450 0.005206 -0.002892 0.000000 0.000000 0.000000
# 2 0.005206 0.025939 -0.004936 0.000000 0.000000 0.000000
# 3 -0.002892 -0.004936 0.016499 0.000000 0.000000 0.000000
# 4 0.000000 0.000000 0.000000 0.026378 0.000000 0.000000
# 5 0.000000 0.000000 0.000000 0.000000 0.030539 0.000000
# 6 0.000000 0.000000 0.000000 0.000000 0.000000 0.036771
#
#
# Mechanical properties :
#
#
# Convention : Reuss Voigt Hill
#
# Bulk Modulus (GPa) = 18.64073 20.93620 19.78846
# Shear Modulus (GPa) = 28.45757 30.70073 29.57915
#
# Velocity S-wave (km/s) = 3.55549 3.69297 3.62488
# Velocity P-wave (km/s) = 5.01359 5.24255 5.12935
#
# Compressibility (1/GPa) = 0.05364596
#
# Stress axis : x y z
#
# Youngs Moduli (GPa) = 60.79097 38.55158 60.60924
#
# Poissons Ratio (x) = -0.20071 0.17527
# Poissons Ratio (y) = -0.31649 0.29914
# Poissons Ratio (z) = 0.17579 0.19028
#
# Static dielectric constant tensor:
#      x y z
#    x 1.887400 0.000000 0.000000 
#    y 0.000000 1.851570 0.000000 
#    z 0.000000 0.000000 1.889920 
# 
# From -- ./inp_files/6009.got.cif
#   From: 2010.05.17/outbox.cif.g08.bks.cpg/sg61_4_cif.got.tgz:6009.got - 2010.06.03 15:17:17.
