data_PCOD9460242
_publ_section_title
;
Structure prediction by ZEFSAII (Michael W. Deem and Ramdas Pophale) SiO2 
 PCOD9460242
Probable space group: P B C A
;
_chemical_formula_sum "Si O2"
_cell_formula_units_Z 64
_cell_length_a 18.960215
_cell_length_b 12.470811
_cell_length_c 12.767760
_cell_angle_alpha 90.000000
_cell_angle_beta 90.000000
_cell_angle_gamma 90.000000
_cell_volume 3018.927376
_symmetry_space_group_name_H-M "P B C A"
_symmetry_group_IT_number 61
_symmetry_cell_setting 'orthorhombic'
loop_
_space_group_symop_operation_xyz
x,y,z
1/2-x,-y,1/2+z
1/2+x,1/2-y,-z
-x,1/2+y,1/2-z
-x,-y,-z
1/2+x,y,1/2-z
1/2-x,1/2+y,z
x,1/2-y,1/2+z
loop_
_atom_site_type_symbol
_atom_site_label
_atom_site_fract_x
_atom_site_fract_y
_atom_site_fract_z
Si Si1 0.775236 0.427671 0.862831
Si Si2 0.570433 0.162006 0.824266
Si Si3 0.298966 0.227432 0.527412
Si Si4 0.648496 0.566694 0.804620
Si Si5 0.077756 0.567579 0.251923
Si Si6 0.428244 0.886193 0.788224
Si Si7 0.827323 0.900014 0.516292
Si Si8 0.413224 0.220327 0.871914
O O1 0.719354 0.494534 0.794682
O O2 0.848017 0.416285 0.802763
O O3 0.756767 0.307463 0.895724
O O4 0.790515 0.494420 0.968975
O O5 0.585807 0.270229 0.760586
O O6 0.492025 0.173051 0.873962
O O7 0.570996 0.061071 0.744408
O O8 0.626012 0.141945 0.917637
O O9 0.336625 0.132618 0.590834
O O10 0.237802 0.177925 0.455240
O O11 0.362176 0.288300 0.470407
O O12 0.587423 0.477474 0.798749
O O13 0.627842 0.655872 0.719396
O O14 0.078118 0.652366 0.346854
O O15 0.010568 0.605688 0.183786
O O16 0.378974 0.913272 0.886260
#
# Coordination Sequence:
#
# PCOD9460242 Si02
#       8
#     8   8   8   8   8   8   8   8
#     4  10  22  39  65  92 136 170 213 278 319 391
#     4  10  23  43  64  99 130 173 225 280 329 400
#     4  11  24  42  64 100 134 174 218 269 344 400
#     4  11  23  43  66  95 136 172 217 282 331 395
#     4  10  22  41  65  94 127 173 225 268 334 393
#     4  11  23  42  68  94 133 172 218 270 341 394
#     4  10  24  40  63  99 125 173 221 267 328 399
#     4  11  23  41  70  97 132 182 224 271 348 408
#
# _framework density 21.199581999999999
#
# number of rings (size 3 to 8) (size 9 to 14) (size 15 to 20)
#    0.000    1.500    2.500    1.500    3.500    4.000 
#    6.750    1.250    0.000    0.000    0.000    0.000 
#    0.000    0.000    0.000    0.000    0.000    0.000 
#
# Total GULP energy -356896.611411 kJ/mol
# GULP energy per Si atom -5576.509553 kJ/mol
# Density = 2.115133 g / cm^3
# Si number density = 21.199582 Si / 1000 Ang^3
#
#
#
# Elastic Constant Matrix: (Units=GPa)
#
#
# Indices 1 2 3 4 5 6 
#
# 1 93.8859 13.5884 15.3993 0.0000 0.0000 0.0000
# 2 13.5884 106.7204 13.3637 0.0000 0.0000 0.0000
# 3 15.3993 13.3637 20.1708 0.0000 0.0000 0.0000
# 4 0.0000 0.0000 0.0000 19.2920 0.0000 0.0000
# 5 0.0000 0.0000 0.0000 0.0000 28.0121 0.0000
# 6 0.0000 0.0000 0.0000 0.0000 0.0000 33.7810
#
#
#
# Elastic Compliance Matrix: (Units=1/GPa)
#
#
# Indices 1 2 3 4 5 6 
#
# 1 0.012193 -0.000422 -0.009029 0.000000 0.000000 0.000000
# 2 -0.000422 0.010233 -0.006457 0.000000 0.000000 0.000000
# 3 -0.009029 -0.006457 0.060748 0.000000 0.000000 0.000000
# 4 0.000000 0.000000 0.000000 0.051835 0.000000 0.000000
# 5 0.000000 0.000000 0.000000 0.000000 0.035699 0.000000
# 6 0.000000 0.000000 0.000000 0.000000 0.000000 0.029602
#
#
# Mechanical properties :
#
#
# Convention : Reuss Voigt Hill
#
# Bulk Modulus (GPa) = 19.47158 33.94222 26.70690
# Shear Modulus (GPa) = 20.06046 28.11206 24.08626
#
# Velocity S-wave (km/s) = 3.07948 3.64547 3.37436
# Velocity P-wave (km/s) = 4.67430 5.81075 5.27323
#
# Compressibility (1/GPa) = 0.05135690
#
# Stress axis : x y z
#
# Youngs Moduli (GPa) = 82.01217 97.72696 16.46139
#
# Poissons Ratio (x) = 0.04123 0.14864
# Poissons Ratio (y) = 0.03460 0.10630
# Poissons Ratio (z) = 0.74052 0.63105
#
# Static dielectric constant tensor:
#      x y z
#    x 1.762920 0.000000 0.000000 
#    y 0.000000 1.806110 0.000000 
#    z 0.000000 0.000000 1.745230 
# 
# From -- ./inp_files/8205.got.cif
#   From: 2010.05.17/outbox.cif.g08.bks.cpg/sg61_5_cif.got.tgz:8205.got - 2010.06.03 15:17:17.
