data_PCOD9460449
_publ_section_title
;
Structure prediction by ZEFSAII (Michael W. Deem and Ramdas Pophale) SiO2 
 PCOD9460449
Probable space group: P B C A
;
_chemical_formula_sum "Si O2"
_cell_formula_units_Z 56
_cell_length_a 22.530439
_cell_length_b 10.907758
_cell_length_c 11.418996
_cell_angle_alpha 90.000000
_cell_angle_beta 90.000000
_cell_angle_gamma 90.000000
_cell_volume 2806.293361
_symmetry_space_group_name_H-M "P B C A"
_symmetry_group_IT_number 61
_symmetry_cell_setting 'orthorhombic'
loop_
_space_group_symop_operation_xyz
x,y,z
1/2-x,-y,1/2+z
1/2+x,1/2-y,-z
-x,1/2+y,1/2-z
-x,-y,-z
1/2+x,y,1/2-z
1/2-x,1/2+y,z
x,1/2-y,1/2+z
loop_
_atom_site_type_symbol
_atom_site_label
_atom_site_fract_x
_atom_site_fract_y
_atom_site_fract_z
Si Si1 0.078841 0.643572 0.331175
Si Si2 0.058442 0.337171 0.689876
Si Si3 0.169572 0.646186 0.769245
Si Si4 0.205033 0.164114 0.857092
Si Si5 0.615486 0.073770 0.828753
Si Si6 0.129104 0.091914 0.398744
Si Si7 0.647864 0.991285 0.461218
O O1 0.113496 0.766742 0.294260
O O2 0.087123 0.545584 0.227680
O O3 0.110053 0.584417 0.444307
O O4 0.008952 0.656598 0.350966
O O5 0.077208 0.195761 0.692078
O O6 0.069766 0.388436 0.821104
O O7 0.103539 0.414182 0.606738
O O8 0.229298 0.704107 0.821030
O O9 0.162720 0.519487 0.838451
O O10 0.173162 0.603683 0.634218
O O11 0.176123 0.098680 0.743214
O O12 0.166266 0.283373 0.886027
O O13 0.196031 0.071062 0.966250
O O14 0.621475 0.062008 0.966549
#
# Coordination Sequence:
#
# PCOD9460449 Si02
#       7
#     8   8   8   8   8   8   8
#     4  11  26  42  68 102 135 175 220 277 338 392
#     4  10  22  44  70  95 133 177 226 271 334 397
#     4  11  27  41  67 101 134 170 223 276 332 395
#     4  10  23  44  68  94 129 177 223 268 334 398
#     4  10  23  42  66  95 129 178 219 271 334 388
#     4  10  23  44  65  97 128 175 225 272 326 397
#     4  10  23  47  65 101 134 180 218 277 338 385
#
# _framework density 19.955148999999999
#
# number of rings (size 3 to 8) (size 9 to 14) (size 15 to 20)
#    0.000    1.714    1.429    0.429   12.000    1.714 
#    0.000    0.000    0.000    0.000    0.000    0.000 
#    0.000    0.000    0.000    0.000    0.000    0.000 
#
# Total GULP energy -312743.185088 kJ/mol
# GULP energy per Si atom -5584.699734 kJ/mol
# Density = 1.990973 g / cm^3
# Si number density = 19.955149 Si / 1000 Ang^3
#
#
#
# Elastic Constant Matrix: (Units=GPa)
#
#
# Indices 1 2 3 4 5 6 
#
# 1 72.0662 -9.9921 16.1698 0.0000 0.0000 0.0000
# 2 -9.9921 35.6875 20.1186 0.0000 0.0000 0.0000
# 3 16.1698 20.1186 146.1662 0.0000 0.0000 0.0000
# 4 0.0000 0.0000 0.0000 39.3887 0.0000 0.0000
# 5 0.0000 0.0000 0.0000 0.0000 8.4102 0.0000
# 6 0.0000 0.0000 0.0000 0.0000 0.0000 11.1566
#
#
#
# Elastic Compliance Matrix: (Units=1/GPa)
#
#
# Indices 1 2 3 4 5 6 
#
# 1 0.015211 0.005646 -0.002460 0.000000 0.000000 0.000000
# 2 0.005646 0.032474 -0.005094 0.000000 0.000000 0.000000
# 3 -0.002460 -0.005094 0.007815 0.000000 0.000000 0.000000
# 4 0.000000 0.000000 0.000000 0.025388 0.000000 0.000000
# 5 0.000000 0.000000 0.000000 0.000000 0.118903 0.000000
# 6 0.000000 0.000000 0.000000 0.000000 0.000000 0.089633
#
#
# Mechanical properties :
#
#
# Convention : Reuss Voigt Hill
#
# Bulk Modulus (GPa) = 19.34900 34.05694 26.70297
# Shear Modulus (GPa) = 16.10475 26.96600 21.53537
#
# Velocity S-wave (km/s) = 2.84394 3.68003 3.28866
# Velocity P-wave (km/s) = 4.52783 5.92964 5.27551
#
# Compressibility (1/GPa) = 0.05168225
#
# Stress axis : x y z
#
# Youngs Moduli (GPa) = 65.74269 30.79422 127.96181
#
# Poissons Ratio (x) = -0.17385 0.31476
# Poissons Ratio (y) = -0.37115 0.65187
# Poissons Ratio (z) = 0.16171 0.15687
#
# Static dielectric constant tensor:
#      x y z
#    x 1.708150 0.000000 0.000000 
#    y 0.000000 1.691610 0.000000 
#    z 0.000000 0.000000 1.713170 
# 
# From -- ./inp_files/6448.got.cif
#   From: 2010.05.17/outbox.cif.g08.bks.cpg/sg61_4_cif.got.tgz:6448.got - 2010.06.03 15:17:17.
