data_PCOD9460758
_publ_section_title
;
Structure prediction by ZEFSAII (Michael W. Deem and Ramdas Pophale) SiO2 
 PCOD9460758
Probable space group: P B C A
;
_chemical_formula_sum "Si O2"
_cell_formula_units_Z 56
_cell_length_a 21.348879
_cell_length_b 8.453322
_cell_length_c 15.657624
_cell_angle_alpha 90.000000
_cell_angle_beta 90.000000
_cell_angle_gamma 90.000000
_cell_volume 2825.714940
_symmetry_space_group_name_H-M "P B C A"
_symmetry_group_IT_number 61
_symmetry_cell_setting 'orthorhombic'
loop_
_space_group_symop_operation_xyz
x,y,z
1/2-x,-y,1/2+z
1/2+x,1/2-y,-z
-x,1/2+y,1/2-z
-x,-y,-z
1/2+x,y,1/2-z
1/2-x,1/2+y,z
x,1/2-y,1/2+z
loop_
_atom_site_type_symbol
_atom_site_label
_atom_site_fract_x
_atom_site_fract_y
_atom_site_fract_z
Si Si1 0.684142 0.747451 0.935359
Si Si2 0.419974 0.516963 0.093346
Si Si3 0.616252 0.209063 0.240731
Si Si4 0.935902 0.921310 0.096960
Si Si5 0.794176 0.930231 0.351796
Si Si6 0.325149 0.148713 0.374260
Si Si7 0.715047 0.966932 0.195566
O O1 0.631504 0.623289 0.903096
O O2 0.753727 0.686838 0.910516
O O3 0.675008 0.924321 0.901123
O O4 0.679300 0.739186 0.036690
O O5 0.414322 0.620311 0.178795
O O6 0.490644 0.453646 0.090661
O O7 0.411285 0.605147 0.000999
O O8 0.573779 0.290185 0.169354
O O9 0.659486 0.339196 0.288157
O O10 0.658181 0.086285 0.186889
O O11 0.893078 0.068593 0.129742
O O12 0.742352 0.002861 0.288770
O O13 0.307218 0.285875 0.307596
O O14 0.272117 0.012470 0.367282
#
# Coordination Sequence:
#
# PCOD9460758 Si02
#       7
#     8   8   8   8   8   8   8
#     4  11  22  38  62  88 123 164 204 256 317 370
#     4  10  24  45  64  90 127 167 212 259 304 365
#     4  12  24  38  68  92 124 168 204 260 312 374
#     4  10  24  45  64  90 127 167 212 259 304 365
#     4  12  21  37  60  92 126 155 200 256 314 374
#     4  11  22  38  62  88 123 164 204 256 317 370
#     4  12  21  37  60  92 126 155 200 256 314 374
#
# _framework density 19.817995
#
# number of rings (size 3 to 8) (size 9 to 14) (size 15 to 20)
#    0.000    0.857    5.714    0.857    0.000    6.857 
#    0.000    0.000    0.000    6.000    0.000    0.000 
#    0.000    0.000    0.000    0.000    0.000    0.000 
#
# Total GULP energy -312462.684281 kJ/mol
# GULP energy per Si atom -5579.690791 kJ/mol
# Density = 1.977289 g / cm^3
# Si number density = 19.817995 Si / 1000 Ang^3
#
#
#
# Elastic Constant Matrix: (Units=GPa)
#
#
# Indices 1 2 3 4 5 6 
#
# 1 64.4378 5.6316 19.8033 0.0000 0.0000 0.0000
# 2 5.6316 47.1816 11.4002 0.0000 0.0000 0.0000
# 3 19.8033 11.4002 39.0530 0.0000 0.0000 0.0000
# 4 0.0000 0.0000 0.0000 35.7012 0.0000 0.0000
# 5 0.0000 0.0000 0.0000 0.0000 30.3643 0.0000
# 6 0.0000 0.0000 0.0000 0.0000 0.0000 17.8205
#
#
#
# Elastic Compliance Matrix: (Units=1/GPa)
#
#
# Indices 1 2 3 4 5 6 
#
# 1 0.018384 0.000063 -0.009341 0.000000 0.000000 0.000000
# 2 0.000063 0.022803 -0.006688 0.000000 0.000000 0.000000
# 3 -0.009341 -0.006688 0.032295 0.000000 0.000000 0.000000
# 4 0.000000 0.000000 0.000000 0.028010 0.000000 0.000000
# 5 0.000000 0.000000 0.000000 0.000000 0.032933 0.000000
# 6 0.000000 0.000000 0.000000 0.000000 0.000000 0.056115
#
#
# Mechanical properties :
#
#
# Convention : Reuss Voigt Hill
#
# Bulk Modulus (GPa) = 24.06757 24.92697 24.49727
# Shear Modulus (GPa) = 21.15738 24.36633 22.76185
#
# Velocity S-wave (km/s) = 3.27094 3.51023 3.39270
# Velocity P-wave (km/s) = 5.14160 5.38834 5.26642
#
# Compressibility (1/GPa) = 0.04154968
#
# Stress axis : x y z
#
# Youngs Moduli (GPa) = 54.39520 43.85328 30.96436
#
# Poissons Ratio (x) = -0.00275 0.28923
# Poissons Ratio (y) = -0.00341 0.20710
# Poissons Ratio (z) = 0.50808 0.29331
#
# Static dielectric constant tensor:
#      x y z
#    x 1.684980 0.000000 0.000000 
#    y 0.000000 1.716070 0.000000 
#    z 0.000000 0.000000 1.738540 
# 
# From -- ./inp_files/8359.got.cif
#   From: 2010.05.17/outbox.cif.g08.bks.cpg/sg61_5_cif.got.tgz:8359.got - 2010.06.03 15:17:17.
