data_PCOD9460560
_publ_section_title
;
Structure prediction by ZEFSAII (Michael W. Deem and Ramdas Pophale) SiO2 
 PCOD9460560
Probable space group: P B C A
;
_chemical_formula_sum "Si O2"
_cell_formula_units_Z 64
_cell_length_a 13.588594
_cell_length_b 9.444505
_cell_length_c 24.120039
_cell_angle_alpha 90.000000
_cell_angle_beta 90.000000
_cell_angle_gamma 90.000000
_cell_volume 3095.506566
_symmetry_space_group_name_H-M "P B C A"
_symmetry_group_IT_number 61
_symmetry_cell_setting 'orthorhombic'
loop_
_space_group_symop_operation_xyz
x,y,z
1/2-x,-y,1/2+z
1/2+x,1/2-y,-z
-x,1/2+y,1/2-z
-x,-y,-z
1/2+x,y,1/2-z
1/2-x,1/2+y,z
x,1/2-y,1/2+z
loop_
_atom_site_type_symbol
_atom_site_label
_atom_site_fract_x
_atom_site_fract_y
_atom_site_fract_z
Si Si1 0.159640 0.061419 0.909289
Si Si2 0.261972 0.181788 0.643673
Si Si3 0.945476 0.004199 0.898864
Si Si4 0.088424 0.634954 0.318389
Si Si5 0.095042 0.222780 0.550949
Si Si6 0.552705 0.571939 0.628437
Si Si7 0.191231 0.134973 0.437624
Si Si8 0.365580 0.454490 0.694324
O O1 0.212605 0.211180 0.911998
O O2 0.161311 0.967447 0.853184
O O3 0.210800 0.953606 0.951739
O O4 0.043268 0.089416 0.916074
O O5 0.182769 0.198959 0.594914
O O6 0.304076 0.330078 0.664856
O O7 0.353873 0.095730 0.619100
O O8 0.205014 0.092243 0.691034
O O9 0.923120 0.890365 0.946162
O O10 0.983348 0.914398 0.844779
O O11 0.095224 0.800266 0.333879
O O12 0.103486 0.598942 0.254800
O O13 0.128334 0.163752 0.492419
O O14 0.998804 0.146804 0.575448
O O15 0.630833 0.460964 0.605407
O O16 0.465141 0.493427 0.661345
#
# Coordination Sequence:
#
# PCOD9460560 Si02
#       8
#     8   8   8   8   8   8   8   8
#     4  10  25  42  62  94 134 165 226 271 319 404
#     4  11  22  42  65 102 131 167 227 263 325 410
#     4   9  21  46  61  93 137 162 216 275 317 397
#     4   9  23  46  62  92 134 172 211 278 329 383
#     4  10  23  42  67  95 132 172 215 281 331 389
#     4  10  23  44  66  95 134 163 231 272 325 404
#     4  12  24  42  67  96 126 184 217 274 340 388
#     4  11  24  40  69  99 125 180 211 277 332 389
#
# _framework density 20.675128999999998
#
# number of rings (size 3 to 8) (size 9 to 14) (size 15 to 20)
#    0.750    1.000    1.250    1.875    3.500    2.500 
#    2.250    0.000    0.000    0.000    0.000    0.000 
#    0.000    0.000    0.000    0.000    0.000    0.000 
#
# Total GULP energy -357114.247057 kJ/mol
# GULP energy per Si atom -5579.910110 kJ/mol
# Density = 2.062807 g / cm^3
# Si number density = 20.675129 Si / 1000 Ang^3
#
#
#
# Elastic Constant Matrix: (Units=GPa)
#
#
# Indices 1 2 3 4 5 6 
#
# 1 75.3100 22.0448 12.9547 0.0000 0.0000 0.0000
# 2 22.0448 117.3292 32.4202 0.0000 0.0000 0.0000
# 3 12.9547 32.4202 74.0444 0.0000 0.0000 0.0000
# 4 0.0000 0.0000 0.0000 18.3140 0.0000 0.0000
# 5 0.0000 0.0000 0.0000 0.0000 25.7858 0.0000
# 6 0.0000 0.0000 0.0000 0.0000 0.0000 39.8030
#
#
#
# Elastic Compliance Matrix: (Units=1/GPa)
#
#
# Indices 1 2 3 4 5 6 
#
# 1 0.014196 -0.002254 -0.001497 0.000000 0.000000 0.000000
# 2 -0.002254 0.010054 -0.004008 0.000000 0.000000 0.000000
# 3 -0.001497 -0.004008 0.015522 0.000000 0.000000 0.000000
# 4 0.000000 0.000000 0.000000 0.054603 0.000000 0.000000
# 5 0.000000 0.000000 0.000000 0.000000 0.038781 0.000000
# 6 0.000000 0.000000 0.000000 0.000000 0.000000 0.025124
#
#
# Mechanical properties :
#
#
# Convention : Reuss Voigt Hill
#
# Bulk Modulus (GPa) = 41.22856 44.61368 42.92112
# Shear Modulus (GPa) = 27.49050 30.06481 28.77765
#
# Velocity S-wave (km/s) = 3.65038 3.81747 3.73486
# Velocity P-wave (km/s) = 6.14422 6.40750 6.27724
#
# Compressibility (1/GPa) = 0.02425503
#
# Stress axis : x y z
#
# Youngs Moduli (GPa) = 70.44430 99.46415 64.42425
#
# Poissons Ratio (x) = 0.22415 0.09644
# Poissons Ratio (y) = 0.15875 0.25820
# Poissons Ratio (z) = 0.10545 0.39863
#
# Static dielectric constant tensor:
#      x y z
#    x 1.759860 0.000000 0.000000 
#    y 0.000000 1.742970 0.000000 
#    z 0.000000 0.000000 1.715210 
# 
# From -- ./inp_files/11092.got.cif
#   From: 2010.05.17/outbox.cif.g08.bks.cpg/sg61_6_cif.got.tgz:11092.got - 2010.06.03 15:17:17.
