data_PCOD9460784
_publ_section_title
;
Structure prediction by ZEFSAII (Michael W. Deem and Ramdas Pophale) SiO2 
 PCOD9460784
Probable space group: P B C A
;
_chemical_formula_sum "Si O2"
_cell_formula_units_Z 40
_cell_length_a 8.871912
_cell_length_b 19.731237
_cell_length_c 9.337037
_cell_angle_alpha 90.000000
_cell_angle_beta 90.000000
_cell_angle_gamma 90.000000
_cell_volume 1634.483792
_symmetry_space_group_name_H-M "P B C A"
_symmetry_group_IT_number 61
_symmetry_cell_setting 'orthorhombic'
loop_
_space_group_symop_operation_xyz
x,y,z
1/2-x,-y,1/2+z
1/2+x,1/2-y,-z
-x,1/2+y,1/2-z
-x,-y,-z
1/2+x,y,1/2-z
1/2-x,1/2+y,z
x,1/2-y,1/2+z
loop_
_atom_site_type_symbol
_atom_site_label
_atom_site_fract_x
_atom_site_fract_y
_atom_site_fract_z
Si Si1 0.036906 0.592275 0.304531
Si Si2 0.047950 0.097066 0.630179
Si Si3 0.584524 0.328387 0.077991
Si Si4 0.307917 0.985627 0.896493
Si Si5 0.102798 0.802536 0.568096
O O1 0.138918 0.529249 0.353422
O O2 0.121368 0.647550 0.204350
O O3 0.977592 0.629375 0.444237
O O4 0.905414 0.561672 0.208525
O O5 0.024802 0.162385 0.530383
O O6 0.092942 0.123869 0.783932
O O7 0.162718 0.044472 0.555340
O O8 0.887040 0.058038 0.617753
O O9 0.464616 0.269322 0.112964
O O10 0.744804 0.298914 0.024784
#
# Coordination Sequence:
#
# PCOD9460784 Si02
#       5
#     8   8   8   8   8
#     4  11  24  46  69 100 142 181 231 292 356 422
#     4  10  26  45  74 104 141 180 237 288 361 416
#     4  12  27  44  74 100 138 191 239 289 355 419
#     4  10  24  47  72 103 143 178 228 298 353 430
#     4  11  27  46  67 103 140 184 238 292 348 419
#
# _framework density 24.472556000000001
#
# number of rings (size 3 to 8) (size 9 to 14) (size 15 to 20)
#    0.000    1.200    2.000    1.200   11.200    7.200 
#    0.000    0.000    0.000    0.000    0.000    0.000 
#    0.000    0.000    0.000    0.000    0.000    0.000 
#
# Total GULP energy -224212.330832 kJ/mol
# GULP energy per Si atom -5605.308271 kJ/mol
# Density = 2.441686 g / cm^3
# Si number density = 24.472556 Si / 1000 Ang^3
#
#
#
# Elastic Constant Matrix: (Units=GPa)
#
#
# Indices 1 2 3 4 5 6 
#
# 1 63.3868 15.5869 21.6999 0.0000 0.0000 0.0000
# 2 15.5869 103.3773 33.8354 0.0000 0.0000 0.0000
# 3 21.6999 33.8354 146.3092 0.0000 0.0000 0.0000
# 4 0.0000 0.0000 0.0000 34.4998 0.0000 0.0000
# 5 0.0000 0.0000 0.0000 0.0000 8.1637 0.0000
# 6 0.0000 0.0000 0.0000 0.0000 0.0000 51.4349
#
#
#
# Elastic Compliance Matrix: (Units=1/GPa)
#
#
# Indices 1 2 3 4 5 6 
#
# 1 0.016949 -0.001875 -0.002080 0.000000 0.000000 0.000000
# 2 -0.001875 0.010673 -0.002190 0.000000 0.000000 0.000000
# 3 -0.002080 -0.002190 0.007650 0.000000 0.000000 0.000000
# 4 0.000000 0.000000 0.000000 0.028986 0.000000 0.000000
# 5 0.000000 0.000000 0.000000 0.000000 0.122494 0.000000
# 6 0.000000 0.000000 0.000000 0.000000 0.000000 0.019442
#
#
# Mechanical properties :
#
#
# Convention : Reuss Voigt Hill
#
# Bulk Modulus (GPa) = 43.51283 50.59086 47.05185
# Shear Modulus (GPa) = 22.10978 34.94976 28.52977
#
# Velocity S-wave (km/s) = 3.00901 3.78315 3.41807
# Velocity P-wave (km/s) = 5.46727 6.30875 5.90302
#
# Compressibility (1/GPa) = 0.02298173
#
# Stress axis : x y z
#
# Youngs Moduli (GPa) = 58.99944 93.69614 130.72109
#
# Poissons Ratio (x) = 0.17565 0.27194
# Poissons Ratio (y) = 0.11060 0.28630
# Poissons Ratio (z) = 0.12274 0.20521
#
# Static dielectric constant tensor:
#      x y z
#    x 1.932330 0.000000 0.000000 
#    y 0.000000 1.973410 0.000000 
#    z 0.000000 0.000000 1.926120 
# 
# From -- ./inp_files/1743.got.cif
#   From: 2010.05.17/outbox.cif.g08.bks.cpg/sg61_1_cif.got.tgz:1743.got - 2010.06.03 15:17:17.
