data_PCOD9460227
_publ_section_title
;
Structure prediction by ZEFSAII (Michael W. Deem and Ramdas Pophale) SiO2 
 PCOD9460227
Probable space group: P B C A
;
_chemical_formula_sum "Si O2"
_cell_formula_units_Z 64
_cell_length_a 11.884395
_cell_length_b 27.805543
_cell_length_c 9.129309
_cell_angle_alpha 90.000000
_cell_angle_beta 90.000000
_cell_angle_gamma 90.000000
_cell_volume 3016.798931
_symmetry_space_group_name_H-M "P B C A"
_symmetry_group_IT_number 61
_symmetry_cell_setting 'orthorhombic'
loop_
_space_group_symop_operation_xyz
x,y,z
1/2-x,-y,1/2+z
1/2+x,1/2-y,-z
-x,1/2+y,1/2-z
-x,-y,-z
1/2+x,y,1/2-z
1/2-x,1/2+y,z
x,1/2-y,1/2+z
loop_
_atom_site_type_symbol
_atom_site_label
_atom_site_fract_x
_atom_site_fract_y
_atom_site_fract_z
Si Si1 0.360403 0.962306 0.552948
Si Si2 0.665842 0.470944 0.391907
Si Si3 0.482769 0.810572 0.451649
Si Si4 0.642848 0.596391 0.556315
Si Si5 0.475536 0.916122 0.305058
Si Si6 0.780069 0.301085 0.027246
Si Si7 0.488172 0.947534 0.838734
Si Si8 0.097747 0.769269 0.761329
O O1 0.254781 0.930687 0.494591
O O2 0.453815 0.956179 0.427875
O O3 0.421060 0.939095 0.691830
O O4 0.293482 0.011342 0.591741
O O5 0.635678 0.423222 0.299446
O O6 0.607779 0.465771 0.549593
O O7 0.588618 0.513389 0.321377
O O8 0.492268 0.864283 0.381426
O O9 0.352346 0.802488 0.482296
O O10 0.524755 0.770693 0.331296
O O11 0.538458 0.801891 0.612753
O O12 0.576808 0.573855 0.692983
O O13 0.674688 0.649864 0.595395
O O14 0.553261 0.594857 0.422535
O O15 0.837195 0.296287 0.868284
O O16 0.815747 0.259568 0.137160
#
# Coordination Sequence:
#
# PCOD9460227 Si02
#       8
#     8   8   8   8   8   8   8   8
#     4  11  21  39  65  88 124 170 215 260 321 384
#     4   9  20  39  61  89 126 163 208 266 323 374
#     4  11  22  42  67  98 125 173 212 259 328 390
#     4  10  22  39  60  89 129 166 209 269 318 373
#     4  11  22  38  64  95 129 168 218 265 317 389
#     4  11  21  41  65  91 130 165 206 264 320 392
#     4   9  20  38  61  88 121 165 211 259 317 372
#     4  10  24  40  67  96 131 162 211 267 328 385
#
# _framework density 21.214538000000001
#
# number of rings (size 3 to 8) (size 9 to 14) (size 15 to 20)
#    0.000    1.750    2.500    2.250    1.750    0.500 
#    0.000    5.000   11.000    0.000    0.000    0.000 
#    0.000    0.000    0.000    0.000    0.000    0.000 
#
# Total GULP energy -356851.873144 kJ/mol
# GULP energy per Si atom -5575.810518 kJ/mol
# Density = 2.116625 g / cm^3
# Si number density = 21.214538 Si / 1000 Ang^3
#
#
#
# Elastic Constant Matrix: (Units=GPa)
#
#
# Indices 1 2 3 4 5 6 
#
# 1 86.3192 -5.9315 51.9295 0.0000 0.0000 0.0000
# 2 -5.9315 31.9525 26.4948 0.0000 0.0000 0.0000
# 3 51.9295 26.4948 150.4566 0.0000 0.0000 0.0000
# 4 0.0000 0.0000 0.0000 28.9645 0.0000 0.0000
# 5 0.0000 0.0000 0.0000 0.0000 13.7228 0.0000
# 6 0.0000 0.0000 0.0000 0.0000 0.0000 15.4036
#
#
#
# Elastic Compliance Matrix: (Units=1/GPa)
#
#
# Indices 1 2 3 4 5 6 
#
# 1 0.016648 0.009198 -0.007366 0.000000 0.000000 0.000000
# 2 0.009198 0.041730 -0.010523 0.000000 0.000000 0.000000
# 3 -0.007366 -0.010523 0.011042 0.000000 0.000000 0.000000
# 4 0.000000 0.000000 0.000000 0.034525 0.000000 0.000000
# 5 0.000000 0.000000 0.000000 0.000000 0.072872 0.000000
# 6 0.000000 0.000000 0.000000 0.000000 0.000000 0.064920
#
#
# Mechanical properties :
#
#
# Convention : Reuss Voigt Hill
#
# Bulk Modulus (GPa) = 19.21667 45.96821 32.59244
# Shear Modulus (GPa) = 18.08554 24.70054 21.39304
#
# Velocity S-wave (km/s) = 2.92294 3.41592 3.17900
# Velocity P-wave (km/s) = 4.52431 6.10518 5.37320
#
# Compressibility (1/GPa) = 0.05203815
#
# Stress axis : x y z
#
# Youngs Moduli (GPa) = 60.06632 23.96379 90.56489
#
# Poissons Ratio (x) = -0.22042 0.66709
# Poissons Ratio (y) = -0.55250 0.95303
# Poissons Ratio (z) = 0.44244 0.25217
#
# Static dielectric constant tensor:
#      x y z
#    x 1.764200 0.000000 0.000000 
#    y 0.000000 1.811750 0.000000 
#    z 0.000000 0.000000 1.800710 
# 
# From -- ./inp_files/2440.got.cif
#   From: 2010.05.17/outbox.cif.g08.bks.cpg/sg61_2_cif.got.tgz:2440.got - 2010.06.03 15:17:17.
