data_PCOD9460962
_publ_section_title
;
Structure prediction by ZEFSAII (Michael W. Deem and Ramdas Pophale) SiO2 
 PCOD9460962
Probable space group: P B C A
;
_chemical_formula_sum "Si O2"
_cell_formula_units_Z 48
_cell_length_a 12.938726
_cell_length_b 7.345875
_cell_length_c 26.472299
_cell_angle_alpha 90.000000
_cell_angle_beta 90.000000
_cell_angle_gamma 90.000000
_cell_volume 2516.093116
_symmetry_space_group_name_H-M "P B C A"
_symmetry_group_IT_number 61
_symmetry_cell_setting 'orthorhombic'
loop_
_space_group_symop_operation_xyz
x,y,z
1/2-x,-y,1/2+z
1/2+x,1/2-y,-z
-x,1/2+y,1/2-z
-x,-y,-z
1/2+x,y,1/2-z
1/2-x,1/2+y,z
x,1/2-y,1/2+z
loop_
_atom_site_type_symbol
_atom_site_label
_atom_site_fract_x
_atom_site_fract_y
_atom_site_fract_z
Si Si1 0.886649 0.553038 0.779603
Si Si2 0.001605 0.295917 0.317718
Si Si3 0.687105 0.936142 0.927114
Si Si4 0.000094 0.156435 0.928778
Si Si5 0.611087 0.189656 0.467847
Si Si6 0.812540 0.924774 0.821792
O O1 0.966795 0.408357 0.803210
O O2 0.868537 0.733035 0.813338
O O3 0.774748 0.456037 0.779223
O O4 0.927301 0.620488 0.725797
O O5 0.048037 0.312517 0.373721
O O6 0.896904 0.416871 0.319911
O O7 0.604806 0.774866 0.928408
O O8 0.776577 0.905015 0.968217
O O9 0.748632 0.932637 0.874072
O O10 0.966518 0.947992 0.939264
O O11 0.068506 0.217775 0.976055
O O12 0.628636 0.376799 0.438178
#
# Coordination Sequence:
#
# PCOD9460962 Si02
#       6
#     8   8   8   8   8   8
#     4  12  24  39  65  94 127 162 216 267 315 374
#     4  12  24  40  64  94 130 165 210 266 323 377
#     4  12  21  40  69  92 122 163 215 257 313 376
#     4  11  24  40  62  94 129 164 207 263 324 377
#     4  11  23  38  63  95 125 160 212 267 314 380
#     4  12  23  39  67  97 120 166 218 265 311 378
#
# _framework density 19.077193999999999
#
# number of rings (size 3 to 8) (size 9 to 14) (size 15 to 20)
#    0.000    0.333    8.333    1.500    0.000    0.000 
#    0.000    1.667    0.000    0.000    0.000    0.000 
#    0.000    0.000    0.000    0.000    0.000    0.000 
#
# Total GULP energy -268301.792750 kJ/mol
# GULP energy per Si atom -5589.620682 kJ/mol
# Density = 1.903377 g / cm^3
# Si number density = 19.077194 Si / 1000 Ang^3
#
#
#
# Elastic Constant Matrix: (Units=GPa)
#
#
# Indices 1 2 3 4 5 6 
#
# 1 67.8362 22.1998 65.2822 0.0000 0.0000 0.0000
# 2 22.1998 125.6982 65.4332 0.0000 0.0000 0.0000
# 3 65.2822 65.4332 175.8517 0.0000 0.0000 0.0000
# 4 0.0000 0.0000 0.0000 26.4131 0.0000 0.0000
# 5 0.0000 0.0000 0.0000 0.0000 47.3022 0.0000
# 6 0.0000 0.0000 0.0000 0.0000 0.0000 30.3703
#
#
#
# Elastic Compliance Matrix: (Units=1/GPa)
#
#
# Indices 1 2 3 4 5 6 
#
# 1 0.022958 0.000474 -0.008699 0.000000 0.000000 0.000000
# 2 0.000474 0.009876 -0.003851 0.000000 0.000000 0.000000
# 3 -0.008699 -0.003851 0.010349 0.000000 0.000000 0.000000
# 4 0.000000 0.000000 0.000000 0.037860 0.000000 0.000000
# 5 0.000000 0.000000 0.000000 0.000000 0.021141 0.000000
# 6 0.000000 0.000000 0.000000 0.000000 0.000000 0.032927
#
#
# Mechanical properties :
#
#
# Convention : Reuss Voigt Hill
#
# Bulk Modulus (GPa) = 52.54602 75.02406 63.78504
# Shear Modulus (GPa) = 30.19201 35.24850 32.72025
#
# Velocity S-wave (km/s) = 3.98254 4.30313 4.14593
# Velocity P-wave (km/s) = 6.98220 8.00632 7.51173
#
# Compressibility (1/GPa) = 0.01903094
#
# Stress axis : x y z
#
# Youngs Moduli (GPa) = 43.55801 101.25060 96.62905
#
# Poissons Ratio (x) = -0.04796 0.84058
# Poissons Ratio (y) = -0.02063 0.37210
# Poissons Ratio (z) = 0.37891 0.38990
#
# Static dielectric constant tensor:
#      x y z
#    x 1.652730 0.000000 0.000000 
#    y 0.000000 1.710040 0.000000 
#    z 0.000000 0.000000 1.688010 
# 
# From -- ./inp_files/10275.got.cif
#   From: 2010.05.17/outbox.cif.g08.bks.cpg/sg61_6_cif.got.tgz:10275.got - 2010.06.03 15:17:17.
