data_PCOD9460293
_publ_section_title
;
Structure prediction by ZEFSAII (Michael W. Deem and Ramdas Pophale) SiO2 
 PCOD9460293
Probable space group: P B C A
;
_chemical_formula_sum "Si O2"
_cell_formula_units_Z 32
_cell_length_a 9.017957
_cell_length_b 7.718489
_cell_length_c 16.454387
_cell_angle_alpha 90.000000
_cell_angle_beta 90.000000
_cell_angle_gamma 90.000000
_cell_volume 1145.307639
_symmetry_space_group_name_H-M "P B C A"
_symmetry_group_IT_number 61
_symmetry_cell_setting 'orthorhombic'
loop_
_space_group_symop_operation_xyz
x,y,z
1/2-x,-y,1/2+z
1/2+x,1/2-y,-z
-x,1/2+y,1/2-z
-x,-y,-z
1/2+x,y,1/2-z
1/2-x,1/2+y,z
x,1/2-y,1/2+z
loop_
_atom_site_type_symbol
_atom_site_label
_atom_site_fract_x
_atom_site_fract_y
_atom_site_fract_z
Si Si1 0.688476 0.767841 0.813325
Si Si2 0.980750 0.724372 0.908101
Si Si3 0.927992 0.855002 0.586737
Si Si4 0.926431 0.533435 0.680092
O O1 0.856336 0.729115 0.837256
O O2 0.605237 0.830832 0.895755
O O3 0.591820 0.595876 0.793634
O O4 0.645606 0.911077 0.746968
O O5 0.088454 0.558737 0.900065
O O6 0.060049 0.908908 0.898507
O O7 0.902445 0.699843 0.994827
O O8 0.862519 0.719113 0.651513
#
# Coordination Sequence:
#
# PCOD9460293 Si02
#       4
#     8   8   8   8
#     4  10  22  40  71 103 147 192 235 311 372 432
#     4  11  20  44  70 101 147 191 245 307 373 440
#     4   9  23  39  70 104 143 190 244 304 363 456
#     4  10  22  40  67 105 141 187 242 305 363 448
#
# _framework density 27.940092
#
# number of rings (size 3 to 8) (size 9 to 14) (size 15 to 20)
#    1.500    0.500    0.000    3.750    0.000    0.000 
#    0.000    2.500    5.500    0.000    0.000    0.000 
#    0.000    0.000    0.000    0.000    0.000    0.000 
#
# Total GULP energy -178979.433065 kJ/mol
# GULP energy per Si atom -5593.107283 kJ/mol
# Density = 2.787650 g / cm^3
# Si number density = 27.940092 Si / 1000 Ang^3
#
#
#
# Elastic Constant Matrix: (Units=GPa)
#
#
# Indices 1 2 3 4 5 6 
#
# 1 90.8276 47.6719 23.7991 0.0000 0.0000 0.0000
# 2 47.6719 225.7375 77.4934 0.0000 0.0000 0.0000
# 3 23.7991 77.4934 157.1741 0.0000 0.0000 0.0000
# 4 0.0000 0.0000 0.0000 63.3063 0.0000 0.0000
# 5 0.0000 0.0000 0.0000 0.0000 25.0082 0.0000
# 6 0.0000 0.0000 0.0000 0.0000 0.0000 17.4983
#
#
#
# Elastic Compliance Matrix: (Units=1/GPa)
#
#
# Indices 1 2 3 4 5 6 
#
# 1 0.012448 -0.002385 -0.000709 0.000000 0.000000 0.000000
# 2 -0.002385 0.005790 -0.002493 0.000000 0.000000 0.000000
# 3 -0.000709 -0.002493 0.007699 0.000000 0.000000 0.000000
# 4 0.000000 0.000000 0.000000 0.015796 0.000000 0.000000
# 5 0.000000 0.000000 0.000000 0.000000 0.039987 0.000000
# 6 0.000000 0.000000 0.000000 0.000000 0.000000 0.057149
#
#
# Mechanical properties :
#
#
# Convention : Reuss Voigt Hill
#
# Bulk Modulus (GPa) = 67.74465 85.74089 76.74277
# Shear Modulus (GPa) = 32.26574 42.81421 37.53998
#
# Velocity S-wave (km/s) = 3.40195 3.91878 3.66948
# Velocity P-wave (km/s) = 6.30318 7.15750 6.74388
#
# Compressibility (1/GPa) = 0.01476131
#
# Stress axis : x y z
#
# Youngs Moduli (GPa) = 80.33691 172.72289 129.88718
#
# Poissons Ratio (x) = 0.41202 0.09205
# Poissons Ratio (y) = 0.19164 0.32385
# Poissons Ratio (z) = 0.05693 0.43065
#
# Static dielectric constant tensor:
#      x y z
#    x 2.175640 0.000000 0.000000 
#    y 0.000000 2.180300 0.000000 
#    z 0.000000 0.000000 2.092910 
# 
# From -- ./inp_files/2512.got.cif
#   From: 2010.05.17/outbox.cif.g08.bks.cpg/sg61_2_cif.got.tgz:2512.got - 2010.06.03 15:17:17.
