data_PCOD9460296
_publ_section_title
;
Structure prediction by ZEFSAII (Michael W. Deem and Ramdas Pophale) SiO2 
 PCOD9460296
Probable space group: P B C A
;
_chemical_formula_sum "Si O2"
_cell_formula_units_Z 40
_cell_length_a 8.980950
_cell_length_b 21.117710
_cell_length_c 8.746404
_cell_angle_alpha 90.000000
_cell_angle_beta 90.000000
_cell_angle_gamma 90.000000
_cell_volume 1658.817597
_symmetry_space_group_name_H-M "P B C A"
_symmetry_group_IT_number 61
_symmetry_cell_setting 'orthorhombic'
loop_
_space_group_symop_operation_xyz
x,y,z
1/2-x,-y,1/2+z
1/2+x,1/2-y,-z
-x,1/2+y,1/2-z
-x,-y,-z
1/2+x,y,1/2-z
1/2-x,1/2+y,z
x,1/2-y,1/2+z
loop_
_atom_site_type_symbol
_atom_site_label
_atom_site_fract_x
_atom_site_fract_y
_atom_site_fract_z
Si Si1 0.171606 0.550340 0.085959
Si Si2 0.062555 0.982445 0.242671
Si Si3 0.107679 0.129584 0.932202
Si Si4 0.134007 0.223747 0.689218
Si Si5 0.560200 0.743907 0.443268
O O1 0.292055 0.498780 0.144227
O O2 0.041354 0.543108 0.211555
O O3 0.110025 0.540005 0.913484
O O4 0.276559 0.611020 0.063199
O O5 0.969828 0.931653 0.143563
O O6 0.188828 0.165805 0.791721
O O7 0.987066 0.182788 0.979741
O O8 0.269141 0.253242 0.597889
O O9 0.048486 0.270931 0.802497
O O10 0.001259 0.201790 0.579033
#
# Coordination Sequence:
#
# PCOD9460296 Si02
#       5
#     8   8   8   8   8
#     4  11  23  42  67 102 137 181 228 275 334 405
#     4  11  23  41  70 100 141 180 228 280 331 410
#     4  10  23  42  71  94 138 178 224 271 353 385
#     4  10  22  41  70  96 131 169 225 278 342 405
#     4  10  22  40  68  96 128 171 219 278 336 408
#
# _framework density 24.11356
#
# number of rings (size 3 to 8) (size 9 to 14) (size 15 to 20)
#    1.200    0.400    2.000    3.000    0.000    0.000 
#    0.000    8.000    0.000    0.000    0.000    0.000 
#    0.000    0.000    0.000    0.000    0.000    0.000 
#
# Total GULP energy -223009.492150 kJ/mol
# GULP energy per Si atom -5575.237304 kJ/mol
# Density = 2.405868 g / cm^3
# Si number density = 24.113560 Si / 1000 Ang^3
#
#
#
# Elastic Constant Matrix: (Units=GPa)
#
#
# Indices 1 2 3 4 5 6 
#
# 1 95.4480 7.2343 -2.0660 0.0000 0.0000 0.0000
# 2 7.2343 40.1748 1.7739 0.0000 0.0000 0.0000
# 3 -2.0660 1.7739 43.5279 0.0000 0.0000 0.0000
# 4 0.0000 0.0000 0.0000 33.8537 0.0000 0.0000
# 5 0.0000 0.0000 0.0000 0.0000 36.7764 0.0000
# 6 0.0000 0.0000 0.0000 0.0000 0.0000 24.9120
#
#
#
# Elastic Compliance Matrix: (Units=1/GPa)
#
#
# Indices 1 2 3 4 5 6 
#
# 1 0.010637 -0.001941 0.000584 0.000000 0.000000 0.000000
# 2 -0.001941 0.025290 -0.001123 0.000000 0.000000 0.000000
# 3 0.000584 -0.001123 0.023047 0.000000 0.000000 0.000000
# 4 0.000000 0.000000 0.000000 0.029539 0.000000 0.000000
# 5 0.000000 0.000000 0.000000 0.000000 0.027191 0.000000
# 6 0.000000 0.000000 0.000000 0.000000 0.000000 0.040141
#
#
# Mechanical properties :
#
#
# Convention : Reuss Voigt Hill
#
# Bulk Modulus (GPa) = 18.51360 21.44834 19.98097
# Shear Modulus (GPa) = 27.96257 30.58899 29.27578
#
# Velocity S-wave (km/s) = 3.40901 3.56552 3.48814
# Velocity P-wave (km/s) = 4.81555 5.08573 4.95248
#
# Compressibility (1/GPa) = 0.05401434
#
# Stress axis : x y z
#
# Youngs Moduli (GPa) = 94.01435 39.54081 43.38914
#
# Poissons Ratio (x) = 0.07675 -0.02534
# Poissons Ratio (y) = 0.18249 0.04872
# Poissons Ratio (z) = -0.05490 0.04440
#
# Static dielectric constant tensor:
#      x y z
#    x 1.947890 0.000000 0.000000 
#    y 0.000000 1.963660 0.000000 
#    z 0.000000 0.000000 2.075700 
# 
# From -- ./inp_files/1807.got.cif
#   From: 2010.05.17/outbox.cif.g08.bks.cpg/sg61_1_cif.got.tgz:1807.got - 2010.06.03 15:17:17.
