data_PCOD9460635
_publ_section_title
;
Structure prediction by ZEFSAII (Michael W. Deem and Ramdas Pophale) SiO2 
 PCOD9460635
Probable space group: P B C A
;
_chemical_formula_sum "Si O2"
_cell_formula_units_Z 40
_cell_length_a 7.518801
_cell_length_b 8.943993
_cell_length_c 25.099461
_cell_angle_alpha 90.000000
_cell_angle_beta 90.000000
_cell_angle_gamma 90.000000
_cell_volume 1687.891151
_symmetry_space_group_name_H-M "P B C A"
_symmetry_group_IT_number 61
_symmetry_cell_setting 'orthorhombic'
loop_
_space_group_symop_operation_xyz
x,y,z
1/2-x,-y,1/2+z
1/2+x,1/2-y,-z
-x,1/2+y,1/2-z
-x,-y,-z
1/2+x,y,1/2-z
1/2-x,1/2+y,z
x,1/2-y,1/2+z
loop_
_atom_site_type_symbol
_atom_site_label
_atom_site_fract_x
_atom_site_fract_y
_atom_site_fract_z
Si Si1 0.637053 0.819673 0.205705
Si Si2 0.750864 0.434980 0.033513
Si Si3 0.425667 0.922548 0.115536
Si Si4 0.625185 0.809112 0.461025
Si Si5 0.521481 0.352213 0.696881
O O1 0.485944 0.803496 0.160730
O O2 0.825612 0.766826 0.183193
O O3 0.594357 0.724886 0.257825
O O4 0.623113 0.996975 0.217457
O O5 0.903784 0.438509 0.077047
O O6 0.578632 0.341408 0.051347
O O7 0.832810 0.356757 0.980786
O O8 0.673929 0.592751 0.013801
O O9 0.255761 0.865393 0.084556
O O10 0.411943 0.078988 0.147596
#
# Coordination Sequence:
#
# PCOD9460635 Si02
#       5
#     8   8   8   8   8
#     4  10  23  45  69  98 139 187 239 301 358 433
#     4  11  24  42  71 101 147 180 238 288 354 418
#     4  10  25  42  72 100 146 185 237 291 369 415
#     4  11  24  44  68 105 144 184 235 293 345 435
#     4  10  23  45  69 100 140 184 245 296 364 427
#
# _framework density 23.69821
#
# number of rings (size 3 to 8) (size 9 to 14) (size 15 to 20)
#    1.200    0.400    2.000    1.800    2.800    0.000 
#   10.800    0.000    0.000    0.000    0.000    0.000 
#    0.000    0.000    0.000    0.000    0.000    0.000 
#
# Total GULP energy -223692.193970 kJ/mol
# GULP energy per Si atom -5592.304849 kJ/mol
# Density = 2.364427 g / cm^3
# Si number density = 23.698210 Si / 1000 Ang^3
#
#
#
# Elastic Constant Matrix: (Units=GPa)
#
#
# Indices 1 2 3 4 5 6 
#
# 1 107.0407 1.8414 56.2089 0.0000 0.0000 0.0000
# 2 1.8414 69.5967 6.2875 0.0000 0.0000 0.0000
# 3 56.2089 6.2875 68.9904 0.0000 0.0000 0.0000
# 4 0.0000 0.0000 0.0000 29.9488 0.0000 0.0000
# 5 0.0000 0.0000 0.0000 0.0000 48.0969 0.0000
# 6 0.0000 0.0000 0.0000 0.0000 0.0000 31.7126
#
#
#
# Elastic Compliance Matrix: (Units=1/GPa)
#
#
# Indices 1 2 3 4 5 6 
#
# 1 0.016369 0.000778 -0.013408 0.000000 0.000000 0.000000
# 2 0.000778 0.014525 -0.001958 0.000000 0.000000 0.000000
# 3 -0.013408 -0.001958 0.025597 0.000000 0.000000 0.000000
# 4 0.000000 0.000000 0.000000 0.033390 0.000000 0.000000
# 5 0.000000 0.000000 0.000000 0.000000 0.020791 0.000000
# 6 0.000000 0.000000 0.000000 0.000000 0.000000 0.031533
#
#
# Mechanical properties :
#
#
# Convention : Reuss Voigt Hill
#
# Bulk Modulus (GPa) = 36.60775 41.58929 39.09852
# Shear Modulus (GPa) = 27.70296 34.03765 30.87031
#
# Velocity S-wave (km/s) = 3.42276 3.79396 3.61313
# Velocity P-wave (km/s) = 5.57686 6.06464 5.82586
#
# Compressibility (1/GPa) = 0.02731662
#
# Stress axis : x y z
#
# Youngs Moduli (GPa) = 61.08938 68.84791 39.06724
#
# Poissons Ratio (x) = -0.05358 0.52380
# Poissons Ratio (y) = -0.04754 0.07648
# Poissons Ratio (z) = 0.81907 0.13479
#
# Static dielectric constant tensor:
#      x y z
#    x 1.847670 0.000000 0.000000 
#    y 0.000000 1.914610 0.000000 
#    z 0.000000 0.000000 1.937050 
# 
# From -- ./inp_files/11332.got.cif
#   From: 2010.05.17/outbox.cif.g08.bks.cpg/sg61_6_cif.got.tgz:11332.got - 2010.06.03 15:17:17.
