data_PCOD9460615
_publ_section_title
;
Structure prediction by ZEFSAII (Michael W. Deem and Ramdas Pophale) SiO2 
 PCOD9460615
Probable space group: P B C A
;
_chemical_formula_sum "Si O2"
_cell_formula_units_Z 56
_cell_length_a 7.628027
_cell_length_b 22.768981
_cell_length_c 11.313052
_cell_angle_alpha 90.000000
_cell_angle_beta 90.000000
_cell_angle_gamma 90.000000
_cell_volume 1964.878043
_symmetry_space_group_name_H-M "P B C A"
_symmetry_group_IT_number 61
_symmetry_cell_setting 'orthorhombic'
loop_
_space_group_symop_operation_xyz
x,y,z
1/2-x,-y,1/2+z
1/2+x,1/2-y,-z
-x,1/2+y,1/2-z
-x,-y,-z
1/2+x,y,1/2-z
1/2-x,1/2+y,z
x,1/2-y,1/2+z
loop_
_atom_site_type_symbol
_atom_site_label
_atom_site_fract_x
_atom_site_fract_y
_atom_site_fract_z
Si Si1 0.937627 0.082186 0.967160
Si Si2 0.874478 0.683652 0.211736
Si Si3 0.816455 0.103142 0.368583
Si Si4 0.046827 0.294280 0.156447
Si Si5 0.378734 0.293383 0.007617
Si Si6 0.947812 0.485523 0.707258
Si Si7 0.484020 0.576064 0.598779
O O1 0.992244 0.150035 0.959654
O O2 0.985829 0.060062 0.098905
O O3 0.724712 0.075157 0.942720
O O4 0.044724 0.043505 0.874826
O O5 0.802010 0.658748 0.335062
O O6 0.958965 0.747067 0.237890
O O7 0.727782 0.687944 0.111427
O O8 0.999037 0.632274 0.169776
O O9 0.790397 0.049864 0.274937
O O10 0.870961 0.079980 0.495969
O O11 0.022591 0.981752 0.325255
O O12 0.996404 0.361965 0.169338
O O13 0.955116 0.267579 0.038316
O O14 0.246367 0.291080 0.115261
#
# Coordination Sequence:
#
# PCOD9460615 Si02
#       7
#     8   8   8   8   8   8   8
#     4  10  23  44  69  97 140 183 225 290 354 410
#     4  12  23  43  73  97 138 186 234 281 358 420
#     4  12  23  46  71 103 137 188 233 287 351 425
#     4  11  24  41  70 100 136 184 228 291 346 412
#     4  11  23  45  66  99 139 180 234 286 347 426
#     4  11  24  43  70  98 139 186 232 282 357 411
#     4  11  25  44  66 107 138 172 240 296 334 421
#
# _framework density 28.500494
#
# number of rings (size 3 to 8) (size 9 to 14) (size 15 to 20)
#    0.000    0.857    5.714    1.286    4.000    3.429 
#    0.000    0.000    0.000    0.000    0.000    0.000 
#    0.000    0.000    0.000    0.000    0.000    0.000 
#
# Total GULP energy -313006.737712 kJ/mol
# GULP energy per Si atom -5589.406031 kJ/mol
# Density = 2.843563 g / cm^3
# Si number density = 28.500494 Si / 1000 Ang^3
#
#
#
# Elastic Constant Matrix: (Units=GPa)
#
#
# Indices 1 2 3 4 5 6 
#
# 1 42.8473 8.8462 8.8847 0.0000 0.0000 0.0000
# 2 8.8462 163.3389 17.8432 0.0000 0.0000 0.0000
# 3 8.8847 17.8432 108.4351 0.0000 0.0000 0.0000
# 4 0.0000 0.0000 0.0000 30.4804 0.0000 0.0000
# 5 0.0000 0.0000 0.0000 0.0000 45.6655 0.0000
# 6 0.0000 0.0000 0.0000 0.0000 0.0000 42.4788
#
#
#
# Elastic Compliance Matrix: (Units=1/GPa)
#
#
# Indices 1 2 3 4 5 6 
#
# 1 0.023935 -0.001102 -0.001780 0.000000 0.000000 0.000000
# 2 -0.001102 0.006285 -0.000944 0.000000 0.000000 0.000000
# 3 -0.001780 -0.000944 0.009523 0.000000 0.000000 0.000000
# 4 0.000000 0.000000 0.000000 0.032808 0.000000 0.000000
# 5 0.000000 0.000000 0.000000 0.000000 0.021898 0.000000
# 6 0.000000 0.000000 0.000000 0.000000 0.000000 0.023541
#
#
# Mechanical properties :
#
#
# Convention : Reuss Voigt Hill
#
# Bulk Modulus (GPa) = 31.16015 42.86328 37.01171
# Shear Modulus (GPa) = 36.67310 42.32809 39.50059
#
# Velocity S-wave (km/s) = 3.59103 3.85797 3.72689
# Velocity P-wave (km/s) = 5.30574 5.90909 5.61553
#
# Compressibility (1/GPa) = 0.03209227
#
# Stress axis : x y z
#
# Youngs Moduli (GPa) = 41.77939 159.10818 105.00596
#
# Poissons Ratio (x) = 0.17532 0.18689
# Poissons Ratio (y) = 0.04604 0.09912
# Poissons Ratio (z) = 0.07436 0.15019
#
# Static dielectric constant tensor:
#      x y z
#    x 2.512690 0.000000 0.000000 
#    y 0.000000 2.173370 0.000000 
#    z 0.000000 0.000000 2.192630 
# 
# From -- ./inp_files/5325.got.cif
#   From: 2010.05.17/outbox.cif.g08.bks.cpg/sg61_3_cif.got.tgz:5325.got - 2010.06.03 15:17:17.
