data_PCOD9460921
_publ_section_title
;
Structure prediction by ZEFSAII (Michael W. Deem and Ramdas Pophale) SiO2 
 PCOD9460921
Probable space group: P B C A
;
_chemical_formula_sum "Si O2"
_cell_formula_units_Z 64
_cell_length_a 16.430573
_cell_length_b 9.423211
_cell_length_c 21.831828
_cell_angle_alpha 90.000000
_cell_angle_beta 90.000000
_cell_angle_gamma 90.000000
_cell_volume 3380.194775
_symmetry_space_group_name_H-M "P B C A"
_symmetry_group_IT_number 61
_symmetry_cell_setting 'orthorhombic'
loop_
_space_group_symop_operation_xyz
x,y,z
1/2-x,-y,1/2+z
1/2+x,1/2-y,-z
-x,1/2+y,1/2-z
-x,-y,-z
1/2+x,y,1/2-z
1/2-x,1/2+y,z
x,1/2-y,1/2+z
loop_
_atom_site_type_symbol
_atom_site_label
_atom_site_fract_x
_atom_site_fract_y
_atom_site_fract_z
Si Si1 0.895006 0.986198 0.731246
Si Si2 0.539287 0.624650 0.038164
Si Si3 0.370691 0.194066 0.277829
Si Si4 0.076539 0.503361 0.172860
Si Si5 0.514633 0.624290 0.451537
Si Si6 0.695691 0.981758 0.610364
Si Si7 0.154093 0.189247 0.383475
Si Si8 0.948713 0.810781 0.837503
O O1 0.860514 0.866038 0.685860
O O2 0.901040 0.933340 0.801086
O O3 0.986843 0.002262 0.704610
O O4 0.850725 0.138513 0.725787
O O5 0.622654 0.572175 0.067927
O O6 0.476389 0.666109 0.092612
O O7 0.500000 0.500000 0.000000
O O8 0.553859 0.752089 0.991438
O O9 0.370811 0.108801 0.214293
O O10 0.320398 0.101489 0.325998
O O11 0.464039 0.194529 0.302507
O O12 0.098619 0.337611 0.169709
O O13 0.066157 0.565948 0.105278
O O14 0.500000 0.500000 0.500000
O O15 0.430268 0.679692 0.420938
O O16 0.782407 0.923531 0.588403
O O17 0.688216 0.151015 0.616124
#
# Coordination Sequence:
#
# PCOD9460921 Si02
#       8
#     8   8   8   8   8   8   8   8
#     4   9  18  31  52  79 108 139 180 230 285 337
#     4  11  22  37  57  87 120 156 203 247 287 347
#     4   9  18  31  52  79 108 139 181 230 284 338
#     4   9  17  30  51  80 110 141 180 229 282 330
#     4  11  22  37  59  87 120 158 203 244 289 349
#     4  11  23  38  59  83 116 152 194 246 303 358
#     4  11  23  38  59  84 115 153 194 245 303 357
#     4   9  17  30  51  79 111 141 179 232 281 329
#
# _framework density 18.933819
#
# number of rings (size 3 to 8) (size 9 to 14) (size 15 to 20)
#    0.000    2.000    2.500    1.500    5.250    3.000 
#    0.000    0.000    0.000    3.000    0.000    0.000 
#    0.000    0.000    0.000    0.000    0.000    0.000 
#
# Total GULP energy -356861.706116 kJ/mol
# GULP energy per Si atom -5575.964158 kJ/mol
# Density = 1.889072 g / cm^3
# Si number density = 18.933819 Si / 1000 Ang^3
#
#
#
# Elastic Constant Matrix: (Units=GPa)
#
#
# Indices 1 2 3 4 5 6 
#
# 1 24.1004 -6.9935 -7.6213 0.0000 0.0000 0.0000
# 2 -6.9935 102.0163 17.0725 0.0000 0.0000 0.0000
# 3 -7.6213 17.0725 98.4734 0.0000 0.0000 0.0000
# 4 0.0000 0.0000 0.0000 29.3938 0.0000 0.0000
# 5 0.0000 0.0000 0.0000 0.0000 6.8465 0.0000
# 6 0.0000 0.0000 0.0000 0.0000 0.0000 24.2749
#
#
#
# Elastic Compliance Matrix: (Units=1/GPa)
#
#
# Indices 1 2 3 4 5 6 
#
# 1 0.043130 0.002470 0.002910 0.000000 0.000000 0.000000
# 2 0.002470 0.010237 -0.001584 0.000000 0.000000 0.000000
# 3 0.002910 -0.001584 0.010655 0.000000 0.000000 0.000000
# 4 0.000000 0.000000 0.000000 0.034021 0.000000 0.000000
# 5 0.000000 0.000000 0.000000 0.000000 0.146059 0.000000
# 6 0.000000 0.000000 0.000000 0.000000 0.000000 0.041195
#
#
# Mechanical properties :
#
#
# Convention : Reuss Voigt Hill
#
# Bulk Modulus (GPa) = 13.96389 25.50061 19.73225
# Shear Modulus (GPa) = 16.57960 26.91187 21.74573
#
# Velocity S-wave (km/s) = 2.96237 3.77419 3.39265
# Velocity P-wave (km/s) = 4.36943 5.70002 5.07849
#
# Compressibility (1/GPa) = 0.07161329
#
# Stress axis : x y z
#
# Youngs Moduli (GPa) = 23.18577 97.68788 93.85452
#
# Poissons Ratio (x) = -0.24126 -0.27310
# Poissons Ratio (y) = -0.05726 0.14863
# Poissons Ratio (z) = -0.06747 0.15470
#
# Static dielectric constant tensor:
#      x y z
#    x 1.716530 0.000000 0.000000 
#    y 0.000000 1.619150 0.000000 
#    z 0.000000 0.000000 1.638060 
# 
# From -- ./inp_files/10526.got.cif
#   From: 2010.05.17/outbox.cif.g08.bks.cpg/sg61_6_cif.got.tgz:10526.got - 2010.06.03 15:17:17.
