data_PCOD9460430
_publ_section_title
;
Structure prediction by ZEFSAII (Michael W. Deem and Ramdas Pophale) SiO2 
 PCOD9460430
Probable space group: P B C A
;
_chemical_formula_sum "Si O2"
_cell_formula_units_Z 56
_cell_length_a 23.625551
_cell_length_b 20.839651
_cell_length_c 5.091496
_cell_angle_alpha 90.000000
_cell_angle_beta 90.000000
_cell_angle_gamma 90.000000
_cell_volume 2506.789082
_symmetry_space_group_name_H-M "P B C A"
_symmetry_group_IT_number 61
_symmetry_cell_setting 'orthorhombic'
loop_
_space_group_symop_operation_xyz
x,y,z
1/2-x,-y,1/2+z
1/2+x,1/2-y,-z
-x,1/2+y,1/2-z
-x,-y,-z
1/2+x,y,1/2-z
1/2-x,1/2+y,z
x,1/2-y,1/2+z
loop_
_atom_site_type_symbol
_atom_site_label
_atom_site_fract_x
_atom_site_fract_y
_atom_site_fract_z
Si Si1 0.708011 0.206367 0.639868
Si Si2 0.111170 0.560565 0.325084
Si Si3 0.588473 0.206573 0.474175
Si Si4 0.565161 0.460923 0.554104
Si Si5 0.323728 0.973932 0.725282
Si Si6 0.994685 0.592606 0.549950
Si Si7 0.714784 0.901918 0.949042
O O1 0.709389 0.235031 0.931025
O O2 0.647904 0.173178 0.560610
O O3 0.760404 0.159440 0.594245
O O4 0.079866 0.530010 0.071610
O O5 0.144453 0.501344 0.466059
O O6 0.160372 0.608650 0.234499
O O7 0.061898 0.590219 0.504338
O O8 0.587667 0.264908 0.682390
O O9 0.534897 0.160612 0.496899
O O10 0.628208 0.436005 0.613603
O O11 0.532681 0.454814 0.829384
O O12 0.528995 0.425738 0.334562
O O13 0.268642 0.931212 0.700680
O O14 0.304245 0.039897 0.863075
#
# Coordination Sequence:
#
# PCOD9460430 Si02
#       7
#     8   8   8   8   8   8   8
#     4  10  24  43  67  92 124 170 227 278 319 384
#     4  11  25  41  62 100 138 172 216 262 329 417
#     4  10  22  44  65  93 120 158 221 278 325 374
#     4  11  24  40  64  97 132 167 214 257 325 395
#     4  11  23  41  65 101 136 175 217 276 331 404
#     4  12  24  41  68  94 132 174 209 272 330 396
#     4  11  24  41  66  96 139 176 222 271 341 390
#
# _framework density 22.339335999999999
#
# number of rings (size 3 to 8) (size 9 to 14) (size 15 to 20)
#    0.000    1.143    2.857    2.571    6.000    2.286 
#    0.000    1.429    0.000    0.000    0.000    0.000 
#    0.000    0.000    0.000    0.000    0.000    0.000 
#
# Total GULP energy -312974.010164 kJ/mol
# GULP energy per Si atom -5588.821610 kJ/mol
# Density = 2.228849 g / cm^3
# Si number density = 22.339336 Si / 1000 Ang^3
#
#
#
# Elastic Constant Matrix: (Units=GPa)
#
#
# Indices 1 2 3 4 5 6 
#
# 1 155.2150 29.4026 39.0979 0.0000 0.0000 0.0000
# 2 29.4026 31.2194 5.1554 0.0000 0.0000 0.0000
# 3 39.0979 5.1554 102.8544 0.0000 0.0000 0.0000
# 4 0.0000 0.0000 0.0000 27.3007 0.0000 0.0000
# 5 0.0000 0.0000 0.0000 0.0000 33.9482 0.0000
# 6 0.0000 0.0000 0.0000 0.0000 0.0000 35.4372
#
#
#
# Elastic Compliance Matrix: (Units=1/GPa)
#
#
# Indices 1 2 3 4 5 6 
#
# 1 0.008619 -0.007639 -0.002893 0.000000 0.000000 0.000000
# 2 -0.007639 0.039070 0.000946 0.000000 0.000000 0.000000
# 3 -0.002893 0.000946 0.010775 0.000000 0.000000 0.000000
# 4 0.000000 0.000000 0.000000 0.036629 0.000000 0.000000
# 5 0.000000 0.000000 0.000000 0.000000 0.029457 0.000000
# 6 0.000000 0.000000 0.000000 0.000000 0.000000 0.028219
#
#
# Mechanical properties :
#
#
# Convention : Reuss Voigt Hill
#
# Bulk Modulus (GPa) = 25.45207 48.51117 36.98162
# Shear Modulus (GPa) = 27.02141 33.71274 30.36708
#
# Velocity S-wave (km/s) = 3.48169 3.88895 3.69094
# Velocity P-wave (km/s) = 5.25176 6.47518 5.89529
#
# Compressibility (1/GPa) = 0.03928954
#
# Stress axis : x y z
#
# Youngs Moduli (GPa) = 116.02821 25.59513 92.80824
#
# Poissons Ratio (x) = 0.19553 0.26852
# Poissons Ratio (y) = 0.88637 -0.08776
# Poissons Ratio (z) = 0.33570 -0.02420
#
# Static dielectric constant tensor:
#      x y z
#    x 1.874230 0.000000 0.000000 
#    y 0.000000 1.840890 0.000000 
#    z 0.000000 0.000000 1.894410 
# 
# From -- ./inp_files/1206.got.cif
#   From: 2010.05.17/outbox.cif.g08.bks.cpg/sg61_1_cif.got.tgz:1206.got - 2010.06.03 15:17:17.
