data_PCOD9460415
_publ_section_title
;
Structure prediction by ZEFSAII (Michael W. Deem and Ramdas Pophale) SiO2 
 PCOD9460415
Probable space group: P B C A
;
_chemical_formula_sum "Si O2"
_cell_formula_units_Z 48
_cell_length_a 12.498003
_cell_length_b 23.822322
_cell_length_c 7.443748
_cell_angle_alpha 90.000000
_cell_angle_beta 90.000000
_cell_angle_gamma 90.000000
_cell_volume 2216.237899
_symmetry_space_group_name_H-M "P B C A"
_symmetry_group_IT_number 61
_symmetry_cell_setting 'orthorhombic'
loop_
_space_group_symop_operation_xyz
x,y,z
1/2-x,-y,1/2+z
1/2+x,1/2-y,-z
-x,1/2+y,1/2-z
-x,-y,-z
1/2+x,y,1/2-z
1/2-x,1/2+y,z
x,1/2-y,1/2+z
loop_
_atom_site_type_symbol
_atom_site_label
_atom_site_fract_x
_atom_site_fract_y
_atom_site_fract_z
Si Si1 0.238530 0.429504 0.767683
Si Si2 0.891699 0.519553 0.900144
Si Si3 0.445917 0.559356 0.973176
Si Si4 0.262406 0.809739 0.634343
Si Si5 0.131363 0.722464 0.816203
Si Si6 0.495533 0.177420 0.495339
O O1 0.338323 0.466291 0.700434
O O2 0.154624 0.438389 0.604654
O O3 0.249836 0.361964 0.770077
O O4 0.187719 0.454143 0.950553
O O5 0.915326 0.562831 0.737310
O O6 0.000000 0.500000 0.000000
O O7 0.519805 0.611283 0.031231
O O8 0.500000 0.500000 0.000000
O O9 0.235128 0.748874 0.717253
O O10 0.173557 0.814982 0.478567
O O11 0.379901 0.811619 0.547264
O O12 0.048543 0.690321 0.692459
O O13 0.070584 0.778668 0.878199
#
# Coordination Sequence:
#
# PCOD9460415 Si02
#       6
#     8   8   8   8   8   8
#     4  11  25  43  65 101 138 177 230 277 342 414
#     4  12  25  43  70  99 140 184 221 284 340 416
#     4  11  24  44  69 102 138 179 232 279 349 416
#     4  10  23  42  64  98 129 174 228 281 343 409
#     4  10  22  43  69  92 134 179 226 285 347 406
#     4  10  23  43  66  99 133 175 230 284 339 415
#
# _framework density 21.658325000000001
#
# number of rings (size 3 to 8) (size 9 to 14) (size 15 to 20)
#    0.000    1.333    3.333    1.000    4.667    0.000 
#   21.000    0.000    0.000    0.000    0.000    0.000 
#    0.000    0.000    0.000    0.000    0.000    0.000 
#
# Total GULP energy -268064.668558 kJ/mol
# GULP energy per Si atom -5584.680595 kJ/mol
# Density = 2.160903 g / cm^3
# Si number density = 21.658325 Si / 1000 Ang^3
#
#
#
# Elastic Constant Matrix: (Units=GPa)
#
#
# Indices 1 2 3 4 5 6 
#
# 1 78.5675 44.3268 31.0292 0.0000 0.0000 0.0000
# 2 44.3268 98.2857 13.3058 0.0000 0.0000 0.0000
# 3 31.0292 13.3058 97.2443 0.0000 0.0000 0.0000
# 4 0.0000 0.0000 0.0000 0.2749 0.0000 0.0000
# 5 0.0000 0.0000 0.0000 0.0000 44.7125 0.0000
# 6 0.0000 0.0000 0.0000 0.0000 0.0000 35.2434
#
#
#
# Elastic Compliance Matrix: (Units=1/GPa)
#
#
# Indices 1 2 3 4 5 6 
#
# 1 0.019226 -0.007988 -0.005042 0.000000 0.000000 0.000000
# 2 -0.007988 0.013686 0.000676 0.000000 0.000000 0.000000
# 3 -0.005042 0.000676 0.011800 0.000000 0.000000 0.000000
# 4 0.000000 0.000000 0.000000 3.638172 0.000000 0.000000
# 5 0.000000 0.000000 0.000000 0.000000 0.022365 0.000000
# 6 0.000000 0.000000 0.000000 0.000000 0.000000 0.028374
#
#
# Mechanical properties :
#
#
# Convention : Reuss Voigt Hill
#
# Bulk Modulus (GPa) = 49.99047 50.15789 50.07418
# Shear Modulus (GPa) = 1.32802 28.40853 14.86828
#
# Velocity S-wave (km/s) = 0.78390 3.62562 2.62294
# Velocity P-wave (km/s) = 4.89396 6.38246 5.68712
#
# Compressibility (1/GPa) = 0.02000381
#
# Stress axis : x y z
#
# Youngs Moduli (GPa) = 52.01292 73.06942 84.74893
#
# Poissons Ratio (x) = 0.58371 0.42728
# Poissons Ratio (y) = 0.41550 -0.05732
# Poissons Ratio (z) = 0.26223 -0.04942
#
# Static dielectric constant tensor:
#      x y z
#    x 1.888130 0.000000 0.000000 
#    y 0.000000 1.856730 0.000000 
#    z 0.000000 0.000000 1.847180 
# 
# From -- ./inp_files/2286.got.cif
#   From: 2010.05.17/outbox.cif.g08.bks.cpg/sg61_2_cif.got.tgz:2286.got - 2010.06.03 15:17:17.
