data_PCOD9460995
_publ_section_title
;
Structure prediction by ZEFSAII (Michael W. Deem and Ramdas Pophale) SiO2 
 PCOD9460995
Probable space group: P B C A
;
_chemical_formula_sum "Si O2"
_cell_formula_units_Z 64
_cell_length_a 8.215417
_cell_length_b 22.083833
_cell_length_c 14.804220
_cell_angle_alpha 90.000000
_cell_angle_beta 90.000000
_cell_angle_gamma 90.000000
_cell_volume 2685.898502
_symmetry_space_group_name_H-M "P B C A"
_symmetry_group_IT_number 61
_symmetry_cell_setting 'orthorhombic'
loop_
_space_group_symop_operation_xyz
x,y,z
1/2-x,-y,1/2+z
1/2+x,1/2-y,-z
-x,1/2+y,1/2-z
-x,-y,-z
1/2+x,y,1/2-z
1/2-x,1/2+y,z
x,1/2-y,1/2+z
loop_
_atom_site_type_symbol
_atom_site_label
_atom_site_fract_x
_atom_site_fract_y
_atom_site_fract_z
Si Si1 0.341418 0.666975 0.214775
Si Si2 0.786601 0.008273 0.670288
Si Si3 0.973253 0.801057 0.287413
Si Si4 0.199707 0.147638 0.867853
Si Si5 0.647899 0.613628 0.120695
Si Si6 0.668495 0.501090 0.372308
Si Si7 0.818074 0.630741 0.950951
Si Si8 0.166930 0.868694 0.550011
O O1 0.423388 0.731984 0.222658
O O2 0.475497 0.625582 0.165841
O O3 0.279172 0.640756 0.308683
O O4 0.191228 0.665891 0.144029
O O5 0.736879 0.076927 0.649228
O O6 0.756865 0.996108 0.776060
O O7 0.975113 0.000157 0.646729
O O8 0.684003 0.957872 0.617149
O O9 0.954286 0.834142 0.191242
O O10 0.851145 0.830605 0.361349
O O11 0.152590 0.812976 0.325630
O O12 0.209401 0.156575 0.974700
O O13 0.678515 0.644351 0.023824
O O14 0.708580 0.438026 0.419190
O O15 0.700246 0.560516 0.430940
O O16 0.987723 0.634989 0.007049
#
# Coordination Sequence:
#
# PCOD9460995 Si02
#       8
#     8   8   8   8   8   8   8   8
#     4  12  27  45  64  99 136 180 234 279 329 402
#     4  12  21  41  74 100 135 173 223 275 350 403
#     4  11  25  44  69  95 135 183 232 276 332 402
#     4  11  23  45  71  99 133 179 222 285 347 398
#     4  12  25  44  69 101 135 177 224 285 342 404
#     4  12  22  42  70 106 139 175 219 278 348 411
#     4  11  23  43  70  97 134 180 219 276 348 402
#     4  11  23  43  69  98 139 176 218 280 344 407
#
# _framework density 23.828151999999999
#
# number of rings (size 3 to 8) (size 9 to 14) (size 15 to 20)
#    0.000    0.500    6.250    3.375    0.000    4.000 
#    2.250    1.250    0.000    0.000    0.000    0.000 
#    0.000    0.000    0.000    0.000    0.000    0.000 
#
# Total GULP energy -358731.649450 kJ/mol
# GULP energy per Si atom -5605.182023 kJ/mol
# Density = 2.377392 g / cm^3
# Si number density = 23.828152 Si / 1000 Ang^3
#
#
#
# Elastic Constant Matrix: (Units=GPa)
#
#
# Indices 1 2 3 4 5 6 
#
# 1 43.8674 8.2761 0.9791 0.0000 0.0000 0.0000
# 2 8.2761 92.7365 -13.4472 0.0000 0.0000 0.0000
# 3 0.9791 -13.4472 73.8270 0.0000 0.0000 0.0000
# 4 0.0000 0.0000 0.0000 -3.1039 0.0000 0.0000
# 5 0.0000 0.0000 0.0000 0.0000 37.1328 0.0000
# 6 0.0000 0.0000 0.0000 0.0000 0.0000 1.0587
#
#
#
# Elastic Compliance Matrix: (Units=1/GPa)
#
#
# Indices 1 2 3 4 5 6 
#
# 1 0.023222 -0.002174 -0.000704 0.000000 0.000000 0.000000
# 2 -0.002174 0.011279 0.002083 0.000000 0.000000 0.000000
# 3 -0.000704 0.002083 0.013934 0.000000 0.000000 0.000000
# 4 0.000000 0.000000 0.000000 -0.322173 0.000000 0.000000
# 5 0.000000 0.000000 0.000000 0.000000 0.026930 0.000000
# 6 0.000000 0.000000 0.000000 0.000000 0.000000 0.944519
#
#
# Mechanical properties :
#
#
# Convention : Reuss Voigt Hill
#
# Bulk Modulus (GPa) = 21.34707 22.44967 21.89837
# Shear Modulus (GPa) = 6.99381 21.32571 14.15976
#
# Velocity S-wave (km/s) = 1.71507 2.99487 2.44036
# Velocity P-wave (km/s) = 3.59168 4.62611 4.14132
#
# Compressibility (1/GPa) = 0.04684483
#
# Stress axis : x y z
#
# Youngs Moduli (GPa) = 43.06279 88.65726 71.76698
#
# Poissons Ratio (x) = 0.19278 0.05053
# Poissons Ratio (y) = 0.09364 -0.14951
# Poissons Ratio (z) = 0.03032 -0.18470
#
# Static dielectric constant tensor:
#      x y z
#    x 1.935440 0.000000 0.000000 
#    y 0.000000 1.858250 0.000000 
#    z 0.000000 0.000000 1.898540 
# 
# From -- ./inp_files/7252.got.cif
#   From: 2010.05.17/outbox.cif.g08.bks.cpg/sg61_4_cif.got.tgz:7252.got - 2010.06.03 15:17:17.
