data_PCOD9460510
_publ_section_title
;
Structure prediction by ZEFSAII (Michael W. Deem and Ramdas Pophale) SiO2 
 PCOD9460510
Probable space group: P B C A
;
_chemical_formula_sum "Si O2"
_cell_formula_units_Z 40
_cell_length_a 8.743190
_cell_length_b 19.975892
_cell_length_c 9.325640
_cell_angle_alpha 90.000000
_cell_angle_beta 90.000000
_cell_angle_gamma 90.000000
_cell_volume 1628.751182
_symmetry_space_group_name_H-M "P B C A"
_symmetry_group_IT_number 61
_symmetry_cell_setting 'orthorhombic'
loop_
_space_group_symop_operation_xyz
x,y,z
1/2-x,-y,1/2+z
1/2+x,1/2-y,-z
-x,1/2+y,1/2-z
-x,-y,-z
1/2+x,y,1/2-z
1/2-x,1/2+y,z
x,1/2-y,1/2+z
loop_
_atom_site_type_symbol
_atom_site_label
_atom_site_fract_x
_atom_site_fract_y
_atom_site_fract_z
Si Si1 0.282588 0.081242 0.331260
Si Si2 0.835017 0.305968 0.890981
Si Si3 0.512998 0.515003 0.745161
Si Si4 0.768837 0.606145 0.867710
Si Si5 0.037422 0.225981 0.662020
O O1 0.324195 0.122945 0.190117
O O2 0.266332 0.128083 0.469761
O O3 0.127050 0.041292 0.310052
O O4 0.408585 0.024193 0.359776
O O5 0.661103 0.279068 0.899755
O O6 0.936047 0.259540 0.784501
O O7 0.925923 0.303387 0.039684
O O8 0.617154 0.575611 0.800197
O O9 0.390632 0.545367 0.634914
O O10 0.851690 0.666080 0.786474
#
# Coordination Sequence:
#
# PCOD9460510 Si02
#       5
#     8   8   8   8   8
#     4  11  22  42  65  94 129 173 220 276 340 402
#     4  12  26  45  71 101 139 180 228 284 342 410
#     4  10  23  39  64  95 128 171 223 276 334 403
#     4  11  22  40  63  93 132 173 222 277 336 403
#     4  12  25  44  68 101 136 179 226 279 342 406
#
# _framework density 24.558693000000002
#
# number of rings (size 3 to 8) (size 9 to 14) (size 15 to 20)
#    0.000    0.800    0.000    8.400    0.000    1.600 
#    0.000    8.000    0.000    0.000    0.000    0.000 
#    0.000    0.000    0.000    0.000    0.000    0.000 
#
# Total GULP energy -223915.720064 kJ/mol
# GULP energy per Si atom -5597.893002 kJ/mol
# Density = 2.450280 g / cm^3
# Si number density = 24.558693 Si / 1000 Ang^3
#
#
#
# Elastic Constant Matrix: (Units=GPa)
#
#
# Indices 1 2 3 4 5 6 
#
# 1 141.2597 17.8837 31.5377 0.0000 0.0000 0.0000
# 2 17.8837 71.5719 4.7041 0.0000 0.0000 0.0000
# 3 31.5377 4.7041 60.4126 0.0000 0.0000 0.0000
# 4 0.0000 0.0000 0.0000 33.6689 0.0000 0.0000
# 5 0.0000 0.0000 0.0000 0.0000 28.4987 0.0000
# 6 0.0000 0.0000 0.0000 0.0000 0.0000 60.2867
#
#
#
# Elastic Compliance Matrix: (Units=1/GPa)
#
#
# Indices 1 2 3 4 5 6 
#
# 1 0.008234 -0.001784 -0.004159 0.000000 0.000000 0.000000
# 2 -0.001784 0.014430 -0.000192 0.000000 0.000000 0.000000
# 3 -0.004159 -0.000192 0.018739 0.000000 0.000000 0.000000
# 4 0.000000 0.000000 0.000000 0.029701 0.000000 0.000000
# 5 0.000000 0.000000 0.000000 0.000000 0.035089 0.000000
# 6 0.000000 0.000000 0.000000 0.000000 0.000000 0.016587
#
#
# Mechanical properties :
#
#
# Convention : Reuss Voigt Hill
#
# Bulk Modulus (GPa) = 34.32672 42.38836 38.35754
# Shear Modulus (GPa) = 34.53925 39.09877 36.81901
#
# Velocity S-wave (km/s) = 3.75426 3.99438 3.87618
# Velocity P-wave (km/s) = 5.72717 6.21055 5.97375
#
# Compressibility (1/GPa) = 0.02913182
#
# Stress axis : x y z
#
# Youngs Moduli (GPa) = 121.45304 69.29830 53.36420
#
# Poissons Ratio (x) = 0.12363 0.22196
# Poissons Ratio (y) = 0.21667 0.01026
# Poissons Ratio (z) = 0.50517 0.01333
#
# Static dielectric constant tensor:
#      x y z
#    x 1.916530 0.000000 0.000000 
#    y 0.000000 1.967810 0.000000 
#    z 0.000000 0.000000 1.964750 
# 
# From -- ./inp_files/1768.got.cif
#   From: 2010.05.17/outbox.cif.g08.bks.cpg/sg61_1_cif.got.tgz:1768.got - 2010.06.03 15:17:17.
