data_PCOD9460345
_publ_section_title
;
Structure prediction by ZEFSAII (Michael W. Deem and Ramdas Pophale) SiO2 
 PCOD9460345
Probable space group: P B C A
;
_chemical_formula_sum "Si O2"
_cell_formula_units_Z 64
_cell_length_a 9.803944
_cell_length_b 18.122550
_cell_length_c 14.758351
_cell_angle_alpha 90.000000
_cell_angle_beta 90.000000
_cell_angle_gamma 90.000000
_cell_volume 2622.152606
_symmetry_space_group_name_H-M "P B C A"
_symmetry_group_IT_number 61
_symmetry_cell_setting 'orthorhombic'
loop_
_space_group_symop_operation_xyz
x,y,z
1/2-x,-y,1/2+z
1/2+x,1/2-y,-z
-x,1/2+y,1/2-z
-x,-y,-z
1/2+x,y,1/2-z
1/2-x,1/2+y,z
x,1/2-y,1/2+z
loop_
_atom_site_type_symbol
_atom_site_label
_atom_site_fract_x
_atom_site_fract_y
_atom_site_fract_z
Si Si1 0.915950 0.709195 0.471195
Si Si2 0.604401 0.843449 0.010378
Si Si3 0.336438 0.041801 0.352550
Si Si4 0.818590 0.377383 0.487422
Si Si5 0.886842 0.003459 0.862820
Si Si6 0.161012 0.612303 0.172863
Si Si7 0.331674 0.397995 0.299600
Si Si8 0.771369 0.729021 0.825090
O O1 0.764183 0.685361 0.504915
O O2 0.905273 0.728143 0.362969
O O3 0.992147 0.781252 0.509519
O O4 0.024928 0.647267 0.497304
O O5 0.585998 0.871999 0.112326
O O6 0.594850 0.898342 0.925469
O O7 0.264991 0.105979 0.411142
O O8 0.400119 0.074165 0.260238
O O9 0.469268 0.015243 0.404254
O O10 0.253172 0.968569 0.332860
O O11 0.795947 0.453531 0.435105
O O12 0.762152 0.317527 0.416580
O O13 0.911999 0.065116 0.784217
O O14 0.805454 0.931150 0.832456
O O15 0.174090 0.700143 0.189137
O O16 0.244978 0.329449 0.256374
#
# Coordination Sequence:
#
# PCOD9460345 Si02
#       8
#     8   8   8   8   8   8   8   8
#     4  11  22  42  66 101 135 167 232 270 341 399
#     4  11  23  44  66  99 133 182 214 284 337 403
#     4  11  22  39  64  99 126 184 229 278 337 405
#     4  11  21  42  69  94 136 180 232 273 339 413
#     4  10  22  42  65  94 135 179 232 272 332 416
#     4  10  22  42  61  95 141 165 226 289 332 402
#     4  10  24  42  67  93 134 180 230 274 345 398
#     4  10  23  43  63  99 133 176 225 288 331 408
#
# _framework density 24.407427999999999
#
# number of rings (size 3 to 8) (size 9 to 14) (size 15 to 20)
#    0.000    1.500    2.500    3.375    3.500    0.000 
#    9.000    0.625    0.000    0.000    0.000    0.000 
#    0.000    0.000    0.000    0.000    0.000    0.000 
#
# Total GULP energy -356474.572247 kJ/mol
# GULP energy per Si atom -5569.915191 kJ/mol
# Density = 2.435188 g / cm^3
# Si number density = 24.407428 Si / 1000 Ang^3
#
#
#
# Elastic Constant Matrix: (Units=GPa)
#
#
# Indices 1 2 3 4 5 6 
#
# 1 47.0704 4.7407 -7.0467 0.0000 0.0000 0.0000
# 2 4.7407 109.1726 34.7549 0.0000 0.0000 0.0000
# 3 -7.0467 34.7549 129.4931 0.0000 0.0000 0.0000
# 4 0.0000 0.0000 0.0000 40.9857 0.0000 0.0000
# 5 0.0000 0.0000 0.0000 0.0000 21.0958 0.0000
# 6 0.0000 0.0000 0.0000 0.0000 0.0000 21.0419
#
#
#
# Elastic Compliance Matrix: (Units=1/GPa)
#
#
# Indices 1 2 3 4 5 6 
#
# 1 0.021623 -0.001436 0.001562 0.000000 0.000000 0.000000
# 2 -0.001436 0.010111 -0.002792 0.000000 0.000000 0.000000
# 3 0.001562 -0.002792 0.008557 0.000000 0.000000 0.000000
# 4 0.000000 0.000000 0.000000 0.024399 0.000000 0.000000
# 5 0.000000 0.000000 0.000000 0.000000 0.047403 0.000000
# 6 0.000000 0.000000 0.000000 0.000000 0.000000 0.047524
#
#
# Mechanical properties :
#
#
# Convention : Reuss Voigt Hill
#
# Bulk Modulus (GPa) = 28.60488 38.95932 33.78210
# Shear Modulus (GPa) = 28.31230 33.51049 30.91140
#
# Velocity S-wave (km/s) = 3.40955 3.70937 3.56262
# Velocity P-wave (km/s) = 5.21970 5.86026 5.54923
#
# Compressibility (1/GPa) = 0.03495907
#
# Stress axis : x y z
#
# Youngs Moduli (GPa) = 46.24642 98.90257 116.86688
#
# Poissons Ratio (x) = 0.14205 -0.18257
# Poissons Ratio (y) = 0.06642 0.32628
# Poissons Ratio (z) = -0.07225 0.27612
#
# Static dielectric constant tensor:
#      x y z
#    x 1.962090 0.000000 0.000000 
#    y 0.000000 1.993700 0.000000 
#    z 0.000000 0.000000 2.005810 
# 
# From -- ./inp_files/7643.got.cif
#   From: 2010.05.17/outbox.cif.g08.bks.cpg/sg61_4_cif.got.tgz:7643.got - 2010.06.03 15:17:17.
