data_PCOD9460905
_publ_section_title
;
Structure prediction by ZEFSAII (Michael W. Deem and Ramdas Pophale) SiO2 
 PCOD9460905
Probable space group: P B C A
;
_chemical_formula_sum "Si O2"
_cell_formula_units_Z 48
_cell_length_a 17.056945
_cell_length_b 27.585766
_cell_length_c 4.917199
_cell_angle_alpha 90.000000
_cell_angle_beta 90.000000
_cell_angle_gamma 90.000000
_cell_volume 2313.684204
_symmetry_space_group_name_H-M "P B C A"
_symmetry_group_IT_number 61
_symmetry_cell_setting 'orthorhombic'
loop_
_space_group_symop_operation_xyz
x,y,z
1/2-x,-y,1/2+z
1/2+x,1/2-y,-z
-x,1/2+y,1/2-z
-x,-y,-z
1/2+x,y,1/2-z
1/2-x,1/2+y,z
x,1/2-y,1/2+z
loop_
_atom_site_type_symbol
_atom_site_label
_atom_site_fract_x
_atom_site_fract_y
_atom_site_fract_z
Si Si1 0.047576 0.369149 0.674475
Si Si2 0.823872 0.140458 0.893546
Si Si3 0.150139 0.113797 0.660636
Si Si4 0.803139 0.508065 0.041541
Si Si5 0.556704 0.782072 0.448723
Si Si6 0.107203 0.586088 0.110555
O O1 0.102669 0.390079 0.439248
O O2 0.004091 0.322644 0.548349
O O3 0.979789 0.405883 0.775301
O O4 0.099659 0.357609 0.937219
O O5 0.734613 0.138362 0.799427
O O6 0.858575 0.192238 0.977564
O O7 0.877996 0.120329 0.649604
O O8 0.835607 0.104843 0.149990
O O9 0.165892 0.060701 0.536624
O O10 0.728724 0.496176 0.847113
O O11 0.867955 0.467345 0.978948
O O12 0.548150 0.735730 0.641896
#
# Coordination Sequence:
#
# PCOD9460905 Si02
#       6
#     8   8   8   8   8   8
#     4  11  25  40  63  95 132 170 207 268 346 378
#     4  11  22  40  68  91 124 166 217 266 319 380
#     4  12  23  40  63  98 133 169 211 273 325 376
#     4  12  22  38  63  95 128 177 227 260 307 374
#     4  11  23  45  69  91 118 164 214 257 320 408
#     4  11  21  41  62  91 129 179 218 256 307 392
#
# _framework density 20.746134000000001
#
# number of rings (size 3 to 8) (size 9 to 14) (size 15 to 20)
#    0.000    0.667    3.333    7.000    0.000    1.333 
#    0.000    5.000    0.000    0.000    0.000    0.000 
#    0.000    0.000    0.000    0.000    0.000    0.000 
#
# Total GULP energy -268552.291187 kJ/mol
# GULP energy per Si atom -5594.839400 kJ/mol
# Density = 2.069891 g / cm^3
# Si number density = 20.746134 Si / 1000 Ang^3
#
#
#
# Elastic Constant Matrix: (Units=GPa)
#
#
# Indices 1 2 3 4 5 6 
#
# 1 93.5425 22.6884 12.7149 0.0000 0.0000 0.0000
# 2 22.6884 58.0540 -1.1128 0.0000 0.0000 0.0000
# 3 12.7149 -1.1128 89.0535 0.0000 0.0000 0.0000
# 4 0.0000 0.0000 0.0000 29.2159 0.0000 0.0000
# 5 0.0000 0.0000 0.0000 0.0000 43.3567 0.0000
# 6 0.0000 0.0000 0.0000 0.0000 0.0000 14.5795
#
#
#
# Elastic Compliance Matrix: (Units=1/GPa)
#
#
# Indices 1 2 3 4 5 6 
#
# 1 0.012087 -0.004758 -0.001785 0.000000 0.000000 0.000000
# 2 -0.004758 0.019102 0.000918 0.000000 0.000000 0.000000
# 3 -0.001785 0.000918 0.011496 0.000000 0.000000 0.000000
# 4 0.000000 0.000000 0.000000 0.034228 0.000000 0.000000
# 5 0.000000 0.000000 0.000000 0.000000 0.023064 0.000000
# 6 0.000000 0.000000 0.000000 0.000000 0.000000 0.068590
#
#
# Mechanical properties :
#
#
# Convention : Reuss Voigt Hill
#
# Bulk Modulus (GPa) = 31.81203 34.35899 33.08551
# Shear Modulus (GPa) = 26.27491 31.18773 28.73132
#
# Velocity S-wave (km/s) = 3.56265 3.88145 3.72546
# Velocity P-wave (km/s) = 5.68248 6.05683 5.87263
#
# Compressibility (1/GPa) = 0.03143465
#
# Stress axis : x y z
#
# Youngs Moduli (GPa) = 82.73330 52.34937 86.99008
#
# Poissons Ratio (x) = 0.24908 0.15530
# Poissons Ratio (y) = 0.39365 -0.07986
# Poissons Ratio (z) = 0.14770 -0.04806
#
# Static dielectric constant tensor:
#      x y z
#    x 1.749360 0.000000 0.000000 
#    y 0.000000 1.729520 0.000000 
#    z 0.000000 0.000000 1.731500 
# 
# From -- ./inp_files/545.got.cif
#   From: 2010.05.17/outbox.cif.g08.bks.cpg/sg61_1_cif.got.tgz:545.got - 2010.06.03 15:17:17.
