data_PCOD9460105
_publ_section_title
;
Structure prediction by ZEFSAII (Michael W. Deem and Ramdas Pophale) SiO2 
 PCOD9460105
Probable space group: P B C A
;
_chemical_formula_sum "Si O2"
_cell_formula_units_Z 64
_cell_length_a 7.641944
_cell_length_b 12.697506
_cell_length_c 30.074193
_cell_angle_alpha 90.000000
_cell_angle_beta 90.000000
_cell_angle_gamma 90.000000
_cell_volume 2918.208110
_symmetry_space_group_name_H-M "P B C A"
_symmetry_group_IT_number 61
_symmetry_cell_setting 'orthorhombic'
loop_
_space_group_symop_operation_xyz
x,y,z
1/2-x,-y,1/2+z
1/2+x,1/2-y,-z
-x,1/2+y,1/2-z
-x,-y,-z
1/2+x,y,1/2-z
1/2-x,1/2+y,z
x,1/2-y,1/2+z
loop_
_atom_site_type_symbol
_atom_site_label
_atom_site_fract_x
_atom_site_fract_y
_atom_site_fract_z
Si Si1 0.333241 0.955574 0.307993
Si Si2 0.891883 0.856640 0.101524
Si Si3 0.205470 0.773540 0.137080
Si Si4 0.718366 0.180603 0.033202
Si Si5 0.982408 0.577717 0.160921
Si Si6 0.759236 0.435536 0.290890
Si Si7 0.592000 0.977066 0.066834
Si Si8 0.421467 0.753536 0.555034
O O1 0.313054 0.873857 0.348936
O O2 0.260285 0.914447 0.261251
O O3 0.541676 0.971395 0.301834
O O4 0.213923 0.056472 0.321080
O O5 0.849930 0.750923 0.074454
O O6 0.795668 0.947659 0.074741
O O7 0.099509 0.859980 0.107759
O O8 0.057015 0.693992 0.154202
O O9 0.282402 0.833307 0.179135
O O10 0.335436 0.720615 0.102287
O O11 0.922793 0.167939 0.042934
O O12 0.604005 0.074465 0.033081
O O13 0.704619 0.244806 0.987299
O O14 0.118014 0.521400 0.194067
O O15 0.986728 0.522244 0.112686
O O16 0.502173 0.864768 0.058813
#
# Coordination Sequence:
#
# PCOD9460105 Si02
#       8
#     8   8   8   8   8   8   8   8
#     4  10  22  41  68  90 138 175 215 286 331 397
#     4   9  21  40  62  93 126 170 216 270 334 387
#     4  11  23  42  67  96 132 174 222 277 336 409
#     4  11  22  41  65  96 131 174 227 276 337 405
#     4  11  22  43  67  95 134 174 222 276 337 405
#     4  11  22  44  65  99 135 173 225 276 340 402
#     4  10  21  42  67  91 133 178 216 274 342 395
#     4  11  24  41  67  97 134 175 223 284 340 405
#
# _framework density 21.931266999999998
#
# number of rings (size 3 to 8) (size 9 to 14) (size 15 to 20)
#    0.000    1.500    3.750    1.125    0.000    3.000 
#    4.500    3.125    0.000    0.000    0.000    0.000 
#    0.000    0.000    0.000    0.000    0.000    0.000 
#
# Total GULP energy -356905.029382 kJ/mol
# GULP energy per Si atom -5576.641084 kJ/mol
# Density = 2.188135 g / cm^3
# Si number density = 21.931267 Si / 1000 Ang^3
#
#
#
# Elastic Constant Matrix: (Units=GPa)
#
#
# Indices 1 2 3 4 5 6 
#
# 1 65.6624 7.1382 17.4133 0.0000 0.0000 0.0000
# 2 7.1382 59.8042 14.4460 0.0000 0.0000 0.0000
# 3 17.4133 14.4460 72.6292 0.0000 0.0000 0.0000
# 4 0.0000 0.0000 0.0000 20.3984 0.0000 0.0000
# 5 0.0000 0.0000 0.0000 0.0000 30.6025 0.0000
# 6 0.0000 0.0000 0.0000 0.0000 0.0000 22.4973
#
#
#
# Elastic Compliance Matrix: (Units=1/GPa)
#
#
# Indices 1 2 3 4 5 6 
#
# 1 0.016326 -0.001054 -0.003705 0.000000 0.000000 0.000000
# 2 -0.001054 0.017633 -0.003255 0.000000 0.000000 0.000000
# 3 -0.003705 -0.003255 0.015304 0.000000 0.000000 0.000000
# 4 0.000000 0.000000 0.000000 0.049023 0.000000 0.000000
# 5 0.000000 0.000000 0.000000 0.000000 0.032677 0.000000
# 6 0.000000 0.000000 0.000000 0.000000 0.000000 0.044450
#
#
# Mechanical properties :
#
#
# Convention : Reuss Voigt Hill
#
# Bulk Modulus (GPa) = 30.08655 30.67675 30.38165
# Shear Modulus (GPa) = 24.68899 25.30621 24.99760
#
# Velocity S-wave (km/s) = 3.35885 3.40058 3.37978
# Velocity P-wave (km/s) = 5.36571 5.42555 5.39571
#
# Compressibility (1/GPa) = 0.03323744
#
# Stress axis : x y z
#
# Youngs Moduli (GPa) = 61.25031 56.71133 65.34177
#
# Poissons Ratio (x) = 0.05976 0.24208
# Poissons Ratio (y) = 0.06455 0.21266
# Poissons Ratio (z) = 0.22692 0.18457
#
# Static dielectric constant tensor:
#      x y z
#    x 1.849320 0.000000 0.000000 
#    y 0.000000 1.810390 0.000000 
#    z 0.000000 0.000000 1.810820 
# 
# From -- ./inp_files/11732.got.cif
#   From: 2010.05.17/outbox.cif.g08.bks.cpg/sg61_6_cif.got.tgz:11732.got - 2010.06.03 15:17:17.
