data_PCOD9460261
_publ_section_title
;
Structure prediction by ZEFSAII (Michael W. Deem and Ramdas Pophale) SiO2 
 PCOD9460261
Probable space group: P B C A
;
_chemical_formula_sum "Si O2"
_cell_formula_units_Z 36
_cell_length_a 9.762084
_cell_length_b 28.476330
_cell_length_c 4.764291
_cell_angle_alpha 90.000000
_cell_angle_beta 90.000000
_cell_angle_gamma 90.000000
_cell_volume 1324.417277
_symmetry_space_group_name_H-M "P B C A"
_symmetry_group_IT_number 61
_symmetry_cell_setting 'orthorhombic'
loop_
_space_group_symop_operation_xyz
x,y,z
1/2-x,-y,1/2+z
1/2+x,1/2-y,-z
-x,1/2+y,1/2-z
-x,-y,-z
1/2+x,y,1/2-z
1/2-x,1/2+y,z
x,1/2-y,1/2+z
loop_
_atom_site_type_symbol
_atom_site_label
_atom_site_fract_x
_atom_site_fract_y
_atom_site_fract_z
Si Si1 0.500000 0.000000 0.000000
Si Si2 0.701569 0.281331 0.474139
Si Si3 0.056846 0.659179 0.799981
Si Si4 0.272455 0.967715 0.155416
Si Si5 0.931784 0.405129 0.671201
O O1 0.575337 0.030971 0.735979
O O2 0.502010 0.050746 0.186512
O O3 0.713332 0.266907 0.796933
O O4 0.555699 0.304676 0.412080
O O5 0.820739 0.314755 0.361159
O O6 0.990651 0.626612 0.556385
O O7 0.106065 0.627875 0.063024
O O8 0.199245 0.926080 0.001469
O O9 0.311329 0.008488 0.911533
#
# Coordination Sequence:
#
# PCOD9460261 Si02
#       5
#     4   8   8   8   8
#     4  10  24  42  70  90 148 196 242 292 346 418
#     4  12  26  50  77 107 144 186 232 301 387 455
#     4  12  27  44  77 109 144 184 243 302 359 448
#     4  10  22  40  61  93 129 186 235 283 340 398
#     4  11  25  43  66 107 142 191 245 299 354 420
#
# _framework density 27.181764999999999
#
# number of rings (size 3 to 8) (size 9 to 14) (size 15 to 20)
#    0.000    0.889    0.000    6.667    6.222    8.000 
#    0.000    0.000    0.000    0.000    0.000    0.000 
#    0.000    0.000    0.000    0.000    0.000    0.000 
#
# Total GULP energy -201090.624590 kJ/mol
# GULP energy per Si atom -5585.850683 kJ/mol
# Density = 2.711990 g / cm^3
# Si number density = 27.181765 Si / 1000 Ang^3
#
#
#
# Elastic Constant Matrix: (Units=GPa)
#
#
# Indices 1 2 3 4 5 6 
#
# 1 77.5083 5.8515 18.7147 0.0000 0.0000 0.0000
# 2 5.8515 103.1740 51.1564 0.0000 0.0000 0.0000
# 3 18.7147 51.1564 134.9113 0.0000 0.0000 0.0000
# 4 0.0000 0.0000 0.0000 68.7864 0.0000 0.0000
# 5 0.0000 0.0000 0.0000 0.0000 37.6473 0.0000
# 6 0.0000 0.0000 0.0000 0.0000 0.0000 37.1705
#
#
#
# Elastic Compliance Matrix: (Units=1/GPa)
#
#
# Indices 1 2 3 4 5 6 
#
# 1 0.013352 0.000198 -0.001927 0.000000 0.000000 0.000000
# 2 0.000198 0.011940 -0.004555 0.000000 0.000000 0.000000
# 3 -0.001927 -0.004555 0.009407 0.000000 0.000000 0.000000
# 4 0.000000 0.000000 0.000000 0.014538 0.000000 0.000000
# 5 0.000000 0.000000 0.000000 0.000000 0.026562 0.000000
# 6 0.000000 0.000000 0.000000 0.000000 0.000000 0.026903
#
#
# Mechanical properties :
#
#
# Convention : Reuss Voigt Hill
#
# Bulk Modulus (GPa) = 45.18579 51.89318 48.53948
# Shear Modulus (GPa) = 40.76764 44.71225 42.73994
#
# Velocity S-wave (km/s) = 3.87695 4.06018 3.96962
# Velocity P-wave (km/s) = 6.05810 6.41192 6.23752
#
# Compressibility (1/GPa) = 0.02213085
#
# Stress axis : x y z
#
# Youngs Moduli (GPa) = 74.89374 83.75551 106.30642
#
# Poissons Ratio (x) = -0.01662 0.20490
# Poissons Ratio (y) = -0.01486 0.48421
# Poissons Ratio (z) = 0.14435 0.38149
#
# Static dielectric constant tensor:
#      x y z
#    x 2.377110 0.000000 0.000000 
#    y 0.000000 2.179470 0.000000 
#    z 0.000000 0.000000 2.134000 
# 
# From -- ./inp_files/204.got.cif
#   From: 2010.05.17/outbox.cif.g08.bks.cpg/sg61_1_cif.got.tgz:204.got - 2010.06.03 15:17:17.
