data_PCOD9460256
_publ_section_title
;
Structure prediction by ZEFSAII (Michael W. Deem and Ramdas Pophale) SiO2 
 PCOD9460256
Probable space group: P B C A
;
_chemical_formula_sum "Si O2"
_cell_formula_units_Z 40
_cell_length_a 12.030590
_cell_length_b 12.020062
_cell_length_c 13.060567
_cell_angle_alpha 90.000000
_cell_angle_beta 90.000000
_cell_angle_gamma 90.000000
_cell_volume 1888.668189
_symmetry_space_group_name_H-M "P B C A"
_symmetry_group_IT_number 61
_symmetry_cell_setting 'orthorhombic'
loop_
_space_group_symop_operation_xyz
x,y,z
1/2-x,-y,1/2+z
1/2+x,1/2-y,-z
-x,1/2+y,1/2-z
-x,-y,-z
1/2+x,y,1/2-z
1/2-x,1/2+y,z
x,1/2-y,1/2+z
loop_
_atom_site_type_symbol
_atom_site_label
_atom_site_fract_x
_atom_site_fract_y
_atom_site_fract_z
Si Si1 0.260226 0.939087 0.424737
Si Si2 0.074589 0.063298 0.759860
Si Si3 0.231595 0.624195 0.265169
Si Si4 0.071929 0.715501 0.882395
Si Si5 0.915240 0.593307 0.390915
O O1 0.340245 0.879697 0.339690
O O2 0.269967 0.554169 0.366521
O O3 0.154408 0.862411 0.446807
O O4 0.338299 0.956932 0.521455
O O5 0.012785 0.137883 0.678984
O O6 0.151493 0.967149 0.710507
O O7 0.984874 0.999217 0.830399
O O8 0.151946 0.722216 0.301077
O O9 0.333440 0.649707 0.192066
O O10 0.000753 0.814116 0.933315
#
# Coordination Sequence:
#
# PCOD9460256 Si02
#       5
#     8   8   8   8   8
#     4  10  22  40  60  95 124 159 215 260 304 386
#     4   9  19  39  62  83 126 167 199 263 308 369
#     4   9  22  39  61  89 124 163 207 254 312 383
#     4  11  21  39  65  88 127 168 207 258 317 372
#     4  11  21  39  66  92 122 174 201 263 322 365
#
# _framework density 21.178944000000001
#
# number of rings (size 3 to 8) (size 9 to 14) (size 15 to 20)
#    1.200    0.800    2.000    1.800    0.000    1.600 
#    3.600    1.000    0.000    0.000    0.000    0.000 
#    0.000    0.000    0.000    0.000    0.000    0.000 
#
# Total GULP energy -222894.172030 kJ/mol
# GULP energy per Si atom -5572.354301 kJ/mol
# Density = 2.113074 g / cm^3
# Si number density = 21.178944 Si / 1000 Ang^3
#
#
#
# Elastic Constant Matrix: (Units=GPa)
#
#
# Indices 1 2 3 4 5 6 
#
# 1 89.0042 20.2666 15.3647 0.0000 0.0000 0.0000
# 2 20.2666 49.4934 -8.1078 0.0000 0.0000 0.0000
# 3 15.3647 -8.1078 15.9517 0.0000 0.0000 0.0000
# 4 0.0000 0.0000 0.0000 6.3610 0.0000 0.0000
# 5 0.0000 0.0000 0.0000 0.0000 34.8611 0.0000
# 6 0.0000 0.0000 0.0000 0.0000 0.0000 42.7593
#
#
#
# Elastic Compliance Matrix: (Units=1/GPa)
#
#
# Indices 1 2 3 4 5 6 
#
# 1 0.017596 -0.010888 -0.022482 0.000000 0.000000 0.000000
# 2 -0.010888 0.028777 0.025114 0.000000 0.000000 0.000000
# 3 -0.022482 0.025114 0.097109 0.000000 0.000000 0.000000
# 4 0.000000 0.000000 0.000000 0.157209 0.000000 0.000000
# 5 0.000000 0.000000 0.000000 0.000000 0.028685 0.000000
# 6 0.000000 0.000000 0.000000 0.000000 0.000000 0.023387
#
#
# Mechanical properties :
#
#
# Convention : Reuss Voigt Hill
#
# Bulk Modulus (GPa) = 7.87593 23.27737 15.57665
# Shear Modulus (GPa) = 12.14775 25.25798 18.70287
#
# Velocity S-wave (km/s) = 2.39754 3.45715 2.97490
# Velocity P-wave (km/s) = 3.37507 5.19139 4.37845
#
# Compressibility (1/GPa) = 0.12696920
#
# Stress axis : x y z
#
# Youngs Moduli (GPa) = 56.83184 34.74973 10.29770
#
# Poissons Ratio (x) = 0.37836 0.23152
# Poissons Ratio (y) = 0.61879 -0.25862
# Poissons Ratio (z) = 1.27771 -0.87270
#
# Static dielectric constant tensor:
#      x y z
#    x 1.773720 0.000000 0.000000 
#    y 0.000000 1.780310 0.000000 
#    z 0.000000 0.000000 1.733860 
# 
# From -- ./inp_files/5563.got.cif
#   From: 2010.05.17/outbox.cif.g08.bks.cpg/sg61_3_cif.got.tgz:5563.got - 2010.06.03 15:17:17.
