data_PCOD9460140
_publ_section_title
;
Structure prediction by ZEFSAII (Michael W. Deem and Ramdas Pophale) SiO2 
 PCOD9460140
Probable space group: P B C A
;
_chemical_formula_sum "Si O2"
_cell_formula_units_Z 40
_cell_length_a 16.189069
_cell_length_b 7.449087
_cell_length_c 14.438989
_cell_angle_alpha 90.000000
_cell_angle_beta 90.000000
_cell_angle_gamma 90.000000
_cell_volume 1741.252312
_symmetry_space_group_name_H-M "P B C A"
_symmetry_group_IT_number 61
_symmetry_cell_setting 'orthorhombic'
loop_
_space_group_symop_operation_xyz
x,y,z
1/2-x,-y,1/2+z
1/2+x,1/2-y,-z
-x,1/2+y,1/2-z
-x,-y,-z
1/2+x,y,1/2-z
1/2-x,1/2+y,z
x,1/2-y,1/2+z
loop_
_atom_site_type_symbol
_atom_site_label
_atom_site_fract_x
_atom_site_fract_y
_atom_site_fract_z
Si Si1 0.122595 0.611051 0.747714
Si Si2 0.412241 0.455823 0.047164
Si Si3 0.917877 0.422334 0.044481
Si Si4 0.796533 0.062766 0.198891
Si Si5 0.186481 0.228294 0.933614
O O1 0.078372 0.539423 0.657362
O O2 0.073658 0.606665 0.844548
O O3 0.209345 0.502434 0.759838
O O4 0.149770 0.817950 0.733443
O O5 0.500000 0.500000 0.000000
O O6 0.394713 0.254464 0.012522
O O7 0.339207 0.592919 0.015933
O O8 0.853006 0.583953 0.039122
O O9 0.000000 0.500000 0.000000
O O10 0.771150 0.200555 0.114695
O O11 0.843759 0.894829 0.153573
#
# Coordination Sequence:
#
# PCOD9460140 Si02
#       5
#     8   8   8   8   8
#     4  10  23  43  69 103 136 185 234 287 350 420
#     4  12  25  44  67 104 140 186 234 289 354 414
#     4  11  23  45  66 101 139 186 231 280 350 418
#     4   9  20  45  68  97 134 183 234 286 354 416
#     4  10  21  43  69  93 138 177 227 292 343 413
#
# _framework density 22.971972000000001
#
# number of rings (size 3 to 8) (size 9 to 14) (size 15 to 20)
#    0.000    1.600    4.000    0.000    0.000    3.200 
#   10.800    0.000    0.000    0.000    0.000    0.000 
#    0.000    0.000    0.000    0.000    0.000    0.000 
#
# Total GULP energy -222854.023779 kJ/mol
# GULP energy per Si atom -5571.350594 kJ/mol
# Density = 2.291969 g / cm^3
# Si number density = 22.971972 Si / 1000 Ang^3
#
#
#
# Elastic Constant Matrix: (Units=GPa)
#
#
# Indices 1 2 3 4 5 6 
#
# 1 40.8760 -2.5402 24.5537 0.0000 0.0000 0.0000
# 2 -2.5402 135.9458 21.6020 0.0000 0.0000 0.0000
# 3 24.5537 21.6020 137.1283 0.0000 0.0000 0.0000
# 4 0.0000 0.0000 0.0000 22.4201 0.0000 0.0000
# 5 0.0000 0.0000 0.0000 0.0000 38.5574 0.0000
# 6 0.0000 0.0000 0.0000 0.0000 0.0000 25.5476
#
#
#
# Elastic Compliance Matrix: (Units=1/GPa)
#
#
# Indices 1 2 3 4 5 6 
#
# 1 0.027647 0.001337 -0.005161 0.000000 0.000000 0.000000
# 2 0.001337 0.007609 -0.001438 0.000000 0.000000 0.000000
# 3 -0.005161 -0.001438 0.008443 0.000000 0.000000 0.000000
# 4 0.000000 0.000000 0.000000 0.044603 0.000000 0.000000
# 5 0.000000 0.000000 0.000000 0.000000 0.025935 0.000000
# 6 0.000000 0.000000 0.000000 0.000000 0.000000 0.039143
#
#
# Mechanical properties :
#
#
# Convention : Reuss Voigt Hill
#
# Bulk Modulus (GPa) = 30.14303 44.57567 37.35935
# Shear Modulus (GPa) = 28.57735 35.32735 31.95235
#
# Velocity S-wave (km/s) = 3.53088 3.92579 3.73356
# Velocity P-wave (km/s) = 5.45646 6.32421 5.90629
#
# Compressibility (1/GPa) = 0.03317517
#
# Stress axis : x y z
#
# Youngs Moduli (GPa) = 36.16967 131.41707 118.43992
#
# Poissons Ratio (x) = -0.17567 0.61127
# Poissons Ratio (y) = -0.04835 0.17032
# Poissons Ratio (z) = 0.18667 0.18899
#
# Static dielectric constant tensor:
#      x y z
#    x 2.013180 0.000000 0.000000 
#    y 0.000000 1.957410 0.000000 
#    z 0.000000 0.000000 1.887630 
# 
# From -- ./inp_files/6401.got.cif
#   From: 2010.05.17/outbox.cif.g08.bks.cpg/sg61_4_cif.got.tgz:6401.got - 2010.06.03 15:17:17.
