data_PCOD9460434
_publ_section_title
;
Structure prediction by ZEFSAII (Michael W. Deem and Ramdas Pophale) SiO2 
 PCOD9460434
Probable space group: P B C A
;
_chemical_formula_sum "Si O2"
_cell_formula_units_Z 64
_cell_length_a 11.985854
_cell_length_b 8.673483
_cell_length_c 27.710594
_cell_angle_alpha 90.000000
_cell_angle_beta 90.000000
_cell_angle_gamma 90.000000
_cell_volume 2880.768438
_symmetry_space_group_name_H-M "P B C A"
_symmetry_group_IT_number 61
_symmetry_cell_setting 'orthorhombic'
loop_
_space_group_symop_operation_xyz
x,y,z
1/2-x,-y,1/2+z
1/2+x,1/2-y,-z
-x,1/2+y,1/2-z
-x,-y,-z
1/2+x,y,1/2-z
1/2-x,1/2+y,z
x,1/2-y,1/2+z
loop_
_atom_site_type_symbol
_atom_site_label
_atom_site_fract_x
_atom_site_fract_y
_atom_site_fract_z
Si Si1 0.161706 0.668931 0.713108
Si Si2 0.665770 0.657721 0.084287
Si Si3 0.657816 0.289242 0.156974
Si Si4 0.275527 0.690920 0.117797
Si Si5 0.137960 0.537200 0.958003
Si Si6 0.523888 0.528814 0.863112
Si Si7 0.275716 0.072125 0.278130
Si Si8 0.604670 0.017962 0.931699
O O1 0.224255 0.754779 0.669015
O O2 0.054914 0.578838 0.692283
O O3 0.145942 0.794220 0.755973
O O4 0.240374 0.539050 0.735256
O O5 0.737445 0.750792 0.123694
O O6 0.640381 0.777313 0.041659
O O7 0.748425 0.527877 0.064348
O O8 0.556698 0.594934 0.110819
O O9 0.546235 0.314316 0.125885
O O10 0.676208 0.455929 0.182028
O O11 0.668962 0.159457 0.198178
O O12 0.356834 0.541874 0.121856
O O13 0.172661 0.630927 0.086045
O O14 0.345040 0.832260 0.095111
O O15 0.028516 0.503217 0.925872
O O16 0.123317 0.467280 0.010890
#
# Coordination Sequence:
#
# PCOD9460434 Si02
#       8
#     8   8   8   8   8   8   8   8
#     4  11  23  43  65  96 130 173 219 269 327 387
#     4  12  23  45  67  97 135 175 222 270 329 404
#     4  11  23  43  65  96 130 173 219 269 327 387
#     4  12  23  45  67  97 135 175 222 270 329 404
#     4  11  25  43  69 100 133 172 219 276 333 392
#     4  12  24  40  70  96 129 180 217 264 335 392
#     4  10  22  44  66  92 136 166 224 276 320 386
#     4  11  25  43  69 100 133 172 219 276 333 392
#
# _framework density 22.216297000000001
#
# number of rings (size 3 to 8) (size 9 to 14) (size 15 to 20)
#    0.000    0.750    6.250    0.750    1.750    1.000 
#    0.000    0.625    0.000    0.000    0.000    0.000 
#    0.000    0.000    0.000    0.000    0.000    0.000 
#
# Total GULP energy -356536.834341 kJ/mol
# GULP energy per Si atom -5570.888037 kJ/mol
# Density = 2.216573 g / cm^3
# Si number density = 22.216297 Si / 1000 Ang^3
#
#
#
# Elastic Constant Matrix: (Units=GPa)
#
#
# Indices 1 2 3 4 5 6 
#
# 1 76.6918 14.4295 4.1974 0.0000 0.0000 0.0000
# 2 14.4295 85.3234 18.1373 0.0000 0.0000 0.0000
# 3 4.1974 18.1373 29.5841 0.0000 0.0000 0.0000
# 4 0.0000 0.0000 0.0000 34.6079 0.0000 0.0000
# 5 0.0000 0.0000 0.0000 0.0000 23.8788 0.0000
# 6 0.0000 0.0000 0.0000 0.0000 0.0000 32.4000
#
#
#
# Elastic Compliance Matrix: (Units=1/GPa)
#
#
# Indices 1 2 3 4 5 6 
#
# 1 0.013477 -0.002153 -0.000592 0.000000 0.000000 0.000000
# 2 -0.002153 0.013820 -0.008167 0.000000 0.000000 0.000000
# 3 -0.000592 -0.008167 0.038893 0.000000 0.000000 0.000000
# 4 0.000000 0.000000 0.000000 0.028895 0.000000 0.000000
# 5 0.000000 0.000000 0.000000 0.000000 0.041878 0.000000
# 6 0.000000 0.000000 0.000000 0.000000 0.000000 0.030864
#
#
# Mechanical properties :
#
#
# Convention : Reuss Voigt Hill
#
# Bulk Modulus (GPa) = 22.54032 29.45864 25.99948
# Shear Modulus (GPa) = 24.45685 28.49967 26.47826
#
# Velocity S-wave (km/s) = 3.32151 3.58554 3.45605
# Velocity P-wave (km/s) = 4.98776 5.51636 5.25871
#
# Compressibility (1/GPa) = 0.04436494
#
# Stress axis : x y z
#
# Youngs Moduli (GPa) = 74.20196 72.35666 25.71143
#
# Poissons Ratio (x) = 0.15580 0.01522
# Poissons Ratio (y) = 0.15978 0.21000
# Poissons Ratio (z) = 0.04393 0.59097
#
# Static dielectric constant tensor:
#      x y z
#    x 1.915140 0.000000 0.000000 
#    y 0.000000 1.835550 0.000000 
#    z 0.000000 0.000000 1.853450 
# 
# From -- ./inp_files/11787.got.cif
#   From: 2010.05.17/outbox.cif.g08.bks.cpg/sg61_6_cif.got.tgz:11787.got - 2010.06.03 15:17:17.
