data_PCOD9460486
_publ_section_title
;
Structure prediction by ZEFSAII (Michael W. Deem and Ramdas Pophale) SiO2 
 PCOD9460486
Probable space group: P B C A
;
_chemical_formula_sum "Si O2"
_cell_formula_units_Z 56
_cell_length_a 13.825561
_cell_length_b 18.923531
_cell_length_c 9.054292
_cell_angle_alpha 90.000000
_cell_angle_beta 90.000000
_cell_angle_gamma 90.000000
_cell_volume 2368.860220
_symmetry_space_group_name_H-M "P B C A"
_symmetry_group_IT_number 61
_symmetry_cell_setting 'orthorhombic'
loop_
_space_group_symop_operation_xyz
x,y,z
1/2-x,-y,1/2+z
1/2+x,1/2-y,-z
-x,1/2+y,1/2-z
-x,-y,-z
1/2+x,y,1/2-z
1/2-x,1/2+y,z
x,1/2-y,1/2+z
loop_
_atom_site_type_symbol
_atom_site_label
_atom_site_fract_x
_atom_site_fract_y
_atom_site_fract_z
Si Si1 0.373130 0.702365 0.767286
Si Si2 0.218176 0.919537 0.243199
Si Si3 0.209130 0.356970 0.749954
Si Si4 0.497327 0.274628 0.505588
Si Si5 0.497303 0.404706 0.724931
Si Si6 0.130606 0.648416 0.481261
Si Si7 0.331295 0.039067 0.065997
O O1 0.299462 0.638555 0.781290
O O2 0.318226 0.775433 0.726462
O O3 0.429593 0.718535 0.918462
O O4 0.451294 0.692503 0.636717
O O5 0.177618 0.954515 0.391349
O O6 0.137273 0.879875 0.146460
O O7 0.269028 0.976904 0.138051
O O8 0.264636 0.359713 0.906161
O O9 0.281784 0.389869 0.632070
O O10 0.111739 0.403471 0.753163
O O11 0.481225 0.333367 0.629009
O O12 0.402798 0.229491 0.470127
O O13 0.443781 0.395835 0.881066
O O14 0.439530 0.463181 0.632497
#
# Coordination Sequence:
#
# PCOD9460486 Si02
#       7
#     8   8   8   8   8   8   8
#     4  11  24  42  73 106 139 187 243 296 363 439
#     4  12  27  46  72 107 148 194 250 297 369 435
#     4  10  22  47  73 104 145 187 240 305 367 429
#     4  11  22  42  66 111 140 179 238 295 360 428
#     4  10  23  44  69  97 145 186 236 291 361 432
#     4  11  24  42  68 103 146 178 239 294 357 428
#     4  11  26  47  71 104 148 196 241 301 366 444
#
# _framework density 23.640059999999998
#
# number of rings (size 3 to 8) (size 9 to 14) (size 15 to 20)
#    0.000    1.143    2.857    4.286    8.000    0.000 
#    2.571    5.000    0.000    0.000    0.000    0.000 
#    0.000    0.000    0.000    0.000    0.000    0.000 
#
# Total GULP energy -313601.459100 kJ/mol
# GULP energy per Si atom -5600.026055 kJ/mol
# Density = 2.358625 g / cm^3
# Si number density = 23.640060 Si / 1000 Ang^3
#
#
#
# Elastic Constant Matrix: (Units=GPa)
#
#
# Indices 1 2 3 4 5 6 
#
# 1 98.3368 -1.6406 15.1716 0.0000 0.0000 0.0000
# 2 -1.6406 38.2601 -11.6724 0.0000 0.0000 0.0000
# 3 15.1716 -11.6724 96.4504 0.0000 0.0000 0.0000
# 4 0.0000 0.0000 0.0000 35.9067 0.0000 0.0000
# 5 0.0000 0.0000 0.0000 0.0000 28.4256 0.0000
# 6 0.0000 0.0000 0.0000 0.0000 0.0000 28.4656
#
#
#
# Elastic Compliance Matrix: (Units=1/GPa)
#
#
# Indices 1 2 3 4 5 6 
#
# 1 0.010422 -0.000055 -0.001646 0.000000 0.000000 0.000000
# 2 -0.000055 0.027139 0.003293 0.000000 0.000000 0.000000
# 3 -0.001646 0.003293 0.011025 0.000000 0.000000 0.000000
# 4 0.000000 0.000000 0.000000 0.027850 0.000000 0.000000
# 5 0.000000 0.000000 0.000000 0.000000 0.035180 0.000000
# 6 0.000000 0.000000 0.000000 0.000000 0.000000 0.035130
#
#
# Mechanical properties :
#
#
# Convention : Reuss Voigt Hill
#
# Bulk Modulus (GPa) = 19.31612 26.30716 22.81164
# Shear Modulus (GPa) = 31.09070 33.97217 32.53144
#
# Velocity S-wave (km/s) = 3.63046 3.79497 3.71363
# Velocity P-wave (km/s) = 5.07566 5.50952 5.29703
#
# Compressibility (1/GPa) = 0.05177023
#
# Stress axis : x y z
#
# Youngs Moduli (GPa) = 95.94924 36.84708 90.69903
#
# Poissons Ratio (x) = 0.00204 0.14930
# Poissons Ratio (y) = 0.00530 -0.29868
# Poissons Ratio (z) = 0.15794 -0.12134
#
# Static dielectric constant tensor:
#      x y z
#    x 1.926100 0.000000 0.000000 
#    y 0.000000 1.706000 0.000000 
#    z 0.000000 0.000000 1.879340 
# 
# From -- ./inp_files/3035.got.cif
#   From: 2010.05.17/outbox.cif.g08.bks.cpg/sg61_2_cif.got.tgz:3035.got - 2010.06.03 15:17:17.
