data_PCOD9460812
_publ_section_title
;
Structure prediction by ZEFSAII (Michael W. Deem and Ramdas Pophale) SiO2 
 PCOD9460812
Probable space group: P B C A
;
_chemical_formula_sum "Si O2"
_cell_formula_units_Z 48
_cell_length_a 8.240537
_cell_length_b 18.103589
_cell_length_c 12.318966
_cell_angle_alpha 90.000000
_cell_angle_beta 90.000000
_cell_angle_gamma 90.000000
_cell_volume 1837.783939
_symmetry_space_group_name_H-M "P B C A"
_symmetry_group_IT_number 61
_symmetry_cell_setting 'orthorhombic'
loop_
_space_group_symop_operation_xyz
x,y,z
1/2-x,-y,1/2+z
1/2+x,1/2-y,-z
-x,1/2+y,1/2-z
-x,-y,-z
1/2+x,y,1/2-z
1/2-x,1/2+y,z
x,1/2-y,1/2+z
loop_
_atom_site_type_symbol
_atom_site_label
_atom_site_fract_x
_atom_site_fract_y
_atom_site_fract_z
Si Si1 0.524712 0.593386 0.442699
Si Si2 0.449187 0.354423 0.198473
Si Si3 0.829229 0.960478 0.302919
Si Si4 0.315470 0.300140 0.707149
Si Si5 0.677680 0.574703 0.111239
Si Si6 0.365472 0.638732 0.014003
O O1 0.581905 0.521719 0.374693
O O2 0.537800 0.663664 0.362394
O O3 0.335369 0.581717 0.466782
O O4 0.685896 0.607767 0.514954
O O5 0.343539 0.426469 0.167968
O O6 0.563138 0.387626 0.290091
O O7 0.349667 0.283551 0.235738
O O8 0.550736 0.330163 0.092648
O O9 0.810217 0.002805 0.187222
O O10 0.302432 0.355365 0.807560
O O11 0.170866 0.308683 0.618039
O O12 0.499168 0.581306 0.059721
#
# Coordination Sequence:
#
# PCOD9460812 Si02
#       6
#     8   8   8   8   8   8
#     4   9  21  43  69  99 133 193 235 271 358 439
#     4  12  26  44  68 112 143 184 242 317 349 402
#     4  11  23  42  69 105 145 180 239 300 358 420
#     4   9  23  43  69  99 140 191 236 286 361 424
#     4  11  20  46  75  98 138 196 236 279 364 450
#     4  10  25  44  74  98 141 189 244 290 347 435
#
# _framework density 26.118414000000001
#
# number of rings (size 3 to 8) (size 9 to 14) (size 15 to 20)
#    1.000    0.667    1.667    3.000    4.667    4.000 
#    3.000    1.667    0.000    0.000    0.000    0.000 
#    0.000    0.000    0.000    0.000    0.000    0.000 
#
# Total GULP energy -268152.396965 kJ/mol
# GULP energy per Si atom -5586.508270 kJ/mol
# Density = 2.605897 g / cm^3
# Si number density = 26.118414 Si / 1000 Ang^3
#
#
#
# Elastic Constant Matrix: (Units=GPa)
#
#
# Indices 1 2 3 4 5 6 
#
# 1 160.8020 30.2154 16.8914 0.0000 0.0000 0.0000
# 2 30.2154 156.2974 22.7701 0.0000 0.0000 0.0000
# 3 16.8914 22.7701 53.7136 0.0000 0.0000 0.0000
# 4 0.0000 0.0000 0.0000 24.5235 0.0000 0.0000
# 5 0.0000 0.0000 0.0000 0.0000 50.0761 0.0000
# 6 0.0000 0.0000 0.0000 0.0000 0.0000 28.2021
#
#
#
# Elastic Compliance Matrix: (Units=1/GPa)
#
#
# Indices 1 2 3 4 5 6 
#
# 1 0.006585 -0.001035 -0.001632 0.000000 0.000000 0.000000
# 2 -0.001035 0.006982 -0.002634 0.000000 0.000000 0.000000
# 3 -0.001632 -0.002634 0.020247 0.000000 0.000000 0.000000
# 4 0.000000 0.000000 0.000000 0.040777 0.000000 0.000000
# 5 0.000000 0.000000 0.000000 0.000000 0.019970 0.000000
# 6 0.000000 0.000000 0.000000 0.000000 0.000000 0.035458
#
#
# Mechanical properties :
#
#
# Convention : Reuss Voigt Hill
#
# Bulk Modulus (GPa) = 43.08262 56.72962 49.90612
# Shear Modulus (GPa) = 33.70210 40.62276 37.16243
#
# Velocity S-wave (km/s) = 3.59605 3.94805 3.77615
# Velocity P-wave (km/s) = 5.81146 6.52304 6.17750
#
# Compressibility (1/GPa) = 0.02321122
#
# Stress axis : x y z
#
# Youngs Moduli (GPa) = 151.86556 143.22635 49.38972
#
# Poissons Ratio (x) = 0.14827 0.08060
# Poissons Ratio (y) = 0.15722 0.13010
# Poissons Ratio (z) = 0.24782 0.37729
#
# Static dielectric constant tensor:
#      x y z
#    x 2.072760 0.000000 0.000000 
#    y 0.000000 1.975490 0.000000 
#    z 0.000000 0.000000 2.089330 
# 
# From -- ./inp_files/7028.got.cif
#   From: 2010.05.17/outbox.cif.g08.bks.cpg/sg61_4_cif.got.tgz:7028.got - 2010.06.03 15:17:17.
