data_PCOD9460087
_publ_section_title
;
Structure prediction by ZEFSAII (Michael W. Deem and Ramdas Pophale) SiO2 
 PCOD9460087
Probable space group: P B C A
;
_chemical_formula_sum "Si O2"
_cell_formula_units_Z 56
_cell_length_a 13.698687
_cell_length_b 12.114725
_cell_length_c 14.596173
_cell_angle_alpha 90.000000
_cell_angle_beta 90.000000
_cell_angle_gamma 90.000000
_cell_volume 2422.319945
_symmetry_space_group_name_H-M "P B C A"
_symmetry_group_IT_number 61
_symmetry_cell_setting 'orthorhombic'
loop_
_space_group_symop_operation_xyz
x,y,z
1/2-x,-y,1/2+z
1/2+x,1/2-y,-z
-x,1/2+y,1/2-z
-x,-y,-z
1/2+x,y,1/2-z
1/2-x,1/2+y,z
x,1/2-y,1/2+z
loop_
_atom_site_type_symbol
_atom_site_label
_atom_site_fract_x
_atom_site_fract_y
_atom_site_fract_z
Si Si1 0.886682 0.137708 0.159545
Si Si2 0.151209 0.670764 0.141684
Si Si3 0.319829 0.548060 0.728883
Si Si4 0.369135 0.040791 0.836428
Si Si5 0.063085 0.314901 0.928481
Si Si6 0.954775 0.804470 0.355734
Si Si7 0.740608 0.714551 0.540541
O O1 0.839925 0.195795 0.250593
O O2 0.874840 0.010444 0.185175
O O3 0.822211 0.180463 0.075996
O O4 0.996080 0.184159 0.151596
O O5 0.154524 0.536529 0.146090
O O6 0.044629 0.710626 0.108819
O O7 0.229919 0.709285 0.068491
O O8 0.206598 0.537667 0.753094
O O9 0.359339 0.666847 0.701761
O O10 0.465135 0.110712 0.815553
O O11 0.313347 0.109655 0.915762
O O12 0.399523 0.922050 0.874001
O O13 0.149758 0.226127 0.924121
O O14 0.053825 0.334467 0.037432
#
# Coordination Sequence:
#
# PCOD9460087 Si02
#       7
#     8   8   8   8   8   8   8
#     4   9  21  41  59  90 132 159 215 270 310 384
#     4  10  21  42  62  93 131 166 218 263 324 390
#     4  10  22  39  64  93 130 161 214 277 312 382
#     4  11  21  39  64  94 125 164 220 261 324 384
#     4  12  21  40  69  90 128 174 214 268 326 391
#     4  11  22  40  69  91 123 177 214 258 330 395
#     4  11  23  40  65  95 130 170 211 272 324 390
#
# _framework density 23.118334000000001
#
# number of rings (size 3 to 8) (size 9 to 14) (size 15 to 20)
#    0.857    0.571    5.714    1.286    2.000    2.286 
#    5.143    0.000    0.000    2.571    0.000    0.000 
#    0.000    0.000    0.000    0.000    0.000    0.000 
#
# Total GULP energy -312689.515931 kJ/mol
# GULP energy per Si atom -5583.741356 kJ/mol
# Density = 2.306572 g / cm^3
# Si number density = 23.118334 Si / 1000 Ang^3
#
#
#
# Elastic Constant Matrix: (Units=GPa)
#
#
# Indices 1 2 3 4 5 6 
#
# 1 80.3917 21.6257 16.1076 0.0000 0.0000 0.0000
# 2 21.6257 38.7264 -1.5057 0.0000 0.0000 0.0000
# 3 16.1076 -1.5057 57.4094 0.0000 0.0000 0.0000
# 4 0.0000 0.0000 0.0000 21.0331 0.0000 0.0000
# 5 0.0000 0.0000 0.0000 0.0000 33.3774 0.0000
# 6 0.0000 0.0000 0.0000 0.0000 0.0000 38.9761
#
#
#
# Elastic Compliance Matrix: (Units=1/GPa)
#
#
# Indices 1 2 3 4 5 6 
#
# 1 0.015796 -0.009002 -0.004668 0.000000 0.000000 0.000000
# 2 -0.009002 0.030979 0.003338 0.000000 0.000000 0.000000
# 3 -0.004668 0.003338 0.018816 0.000000 0.000000 0.000000
# 4 0.000000 0.000000 0.000000 0.047544 0.000000 0.000000
# 5 0.000000 0.000000 0.000000 0.000000 0.029960 0.000000
# 6 0.000000 0.000000 0.000000 0.000000 0.000000 0.025657
#
#
# Mechanical properties :
#
#
# Convention : Reuss Voigt Hill
#
# Bulk Modulus (GPa) = 22.25833 27.66475 24.96154
# Shear Modulus (GPa) = 24.46273 28.03064 26.24668
#
# Velocity S-wave (km/s) = 3.25645 3.48585 3.37310
# Velocity P-wave (km/s) = 4.87732 5.30981 5.09815
#
# Compressibility (1/GPa) = 0.04492701
#
# Stress axis : x y z
#
# Youngs Moduli (GPa) = 63.30674 32.27981 53.14603
#
# Poissons Ratio (x) = 0.29060 0.24809
# Poissons Ratio (y) = 0.56991 -0.17742
# Poissons Ratio (z) = 0.29552 -0.10776
#
# Static dielectric constant tensor:
#      x y z
#    x 1.891700 0.000000 0.000000 
#    y 0.000000 1.907670 0.000000 
#    z 0.000000 0.000000 1.862470 
# 
# From -- ./inp_files/7932.got.cif
#   From: 2010.05.17/outbox.cif.g08.bks.cpg/sg61_4_cif.got.tgz:7932.got - 2010.06.03 15:17:17.
