data_PCOD9460958
_publ_section_title
;
Structure prediction by ZEFSAII (Michael W. Deem and Ramdas Pophale) SiO2 
 PCOD9460958
Probable space group: P B C A
;
_chemical_formula_sum "Si O2"
_cell_formula_units_Z 32
_cell_length_a 10.511146
_cell_length_b 7.873482
_cell_length_c 14.111046
_cell_angle_alpha 90.000000
_cell_angle_beta 90.000000
_cell_angle_gamma 90.000000
_cell_volume 1167.820555
_symmetry_space_group_name_H-M "P B C A"
_symmetry_group_IT_number 61
_symmetry_cell_setting 'orthorhombic'
loop_
_space_group_symop_operation_xyz
x,y,z
1/2-x,-y,1/2+z
1/2+x,1/2-y,-z
-x,1/2+y,1/2-z
-x,-y,-z
1/2+x,y,1/2-z
1/2-x,1/2+y,z
x,1/2-y,1/2+z
loop_
_atom_site_type_symbol
_atom_site_label
_atom_site_fract_x
_atom_site_fract_y
_atom_site_fract_z
Si Si1 0.009665 0.241076 0.645102
Si Si2 0.117886 0.887576 0.685243
Si Si3 0.280922 0.981306 0.850026
Si Si4 0.557468 0.187960 0.562417
O O1 0.996573 0.350484 0.739899
O O2 0.872527 0.145145 0.647386
O O3 0.043564 0.337080 0.549189
O O4 0.102181 0.078756 0.648976
O O5 0.079677 0.746382 0.606933
O O6 0.245456 0.899824 0.747444
O O7 0.144498 0.045401 0.888596
O O8 0.354461 0.853527 0.918582
#
# Coordination Sequence:
#
# PCOD9460958 Si02
#       4
#     8   8   8   8
#     4  11  25  48  68 102 145 175 236 285 340 417
#     4  11  22  46  69  99 138 180 230 284 335 413
#     4  11  22  46  69  99 140 177 229 280 344 409
#     4  11  25  48  68 104 141 180 232 290 339 417
#
# _framework density 27.401471000000001
#
# number of rings (size 3 to 8) (size 9 to 14) (size 15 to 20)
#    0.000    1.000    5.000    3.000    0.000    1.000 
#   27.000    0.000    0.000    0.000    0.000    0.000 
#    0.000    0.000    0.000    0.000    0.000    0.000 
#
# Total GULP energy -178933.211556 kJ/mol
# GULP energy per Si atom -5591.662861 kJ/mol
# Density = 2.733910 g / cm^3
# Si number density = 27.401471 Si / 1000 Ang^3
#
#
#
# Elastic Constant Matrix: (Units=GPa)
#
#
# Indices 1 2 3 4 5 6 
#
# 1 108.8033 8.2965 -14.3657 0.0000 0.0000 0.0000
# 2 8.2965 48.8533 -8.2293 0.0000 0.0000 0.0000
# 3 -14.3657 -8.2293 97.0038 0.0000 0.0000 0.0000
# 4 0.0000 0.0000 0.0000 56.8176 0.0000 0.0000
# 5 0.0000 0.0000 0.0000 0.0000 35.4370 0.0000
# 6 0.0000 0.0000 0.0000 0.0000 0.0000 24.6947
#
#
#
# Elastic Compliance Matrix: (Units=1/GPa)
#
#
# Indices 1 2 3 4 5 6 
#
# 1 0.009467 -0.001391 0.001284 0.000000 0.000000 0.000000
# 2 -0.001391 0.020971 0.001573 0.000000 0.000000 0.000000
# 3 0.001284 0.001573 0.010632 0.000000 0.000000 0.000000
# 4 0.000000 0.000000 0.000000 0.017600 0.000000 0.000000
# 5 0.000000 0.000000 0.000000 0.000000 0.028219 0.000000
# 6 0.000000 0.000000 0.000000 0.000000 0.000000 0.040494
#
#
# Mechanical properties :
#
#
# Convention : Reuss Voigt Hill
#
# Bulk Modulus (GPa) = 22.72693 25.11818 23.92255
# Shear Modulus (GPa) = 35.94038 41.32047 38.63042
#
# Velocity S-wave (km/s) = 3.62556 3.88747 3.75880
# Velocity P-wave (km/s) = 5.08314 5.41632 5.25237
#
# Compressibility (1/GPa) = 0.04400066
#
# Stress axis : x y z
#
# Youngs Moduli (GPa) = 105.63556 47.68559 94.05169
#
# Poissons Ratio (x) = 0.06635 -0.12075
# Poissons Ratio (y) = 0.14698 -0.14794
# Poissons Ratio (z) = -0.13563 -0.07501
#
# Static dielectric constant tensor:
#      x y z
#    x 2.219590 0.000000 0.000000 
#    y 0.000000 2.208100 0.000000 
#    z 0.000000 0.000000 2.093220 
# 
# From -- ./inp_files/2522.got.cif
#   From: 2010.05.17/outbox.cif.g08.bks.cpg/sg61_2_cif.got.tgz:2522.got - 2010.06.03 15:17:17.
