data_PCOD9460641
_publ_section_title
;
Structure prediction by ZEFSAII (Michael W. Deem and Ramdas Pophale) SiO2 
 PCOD9460641
Probable space group: P B C A
;
_chemical_formula_sum "Si O2"
_cell_formula_units_Z 40
_cell_length_a 5.531226
_cell_length_b 13.822393
_cell_length_c 19.684409
_cell_angle_alpha 90.000000
_cell_angle_beta 90.000000
_cell_angle_gamma 90.000000
_cell_volume 1504.967151
_symmetry_space_group_name_H-M "P B C A"
_symmetry_group_IT_number 61
_symmetry_cell_setting 'orthorhombic'
loop_
_space_group_symop_operation_xyz
x,y,z
1/2-x,-y,1/2+z
1/2+x,1/2-y,-z
-x,1/2+y,1/2-z
-x,-y,-z
1/2+x,y,1/2-z
1/2-x,1/2+y,z
x,1/2-y,1/2+z
loop_
_atom_site_type_symbol
_atom_site_label
_atom_site_fract_x
_atom_site_fract_y
_atom_site_fract_z
Si Si1 0.906089 0.696599 0.783471
Si Si2 0.752029 0.946596 0.581153
Si Si3 0.908866 0.476211 0.730241
Si Si4 0.848790 0.866472 0.024435
Si Si5 0.619947 0.775245 0.904069
O O1 0.672788 0.726317 0.738787
O O2 0.911834 0.578737 0.772362
O O3 0.836034 0.743948 0.855195
O O4 0.559765 0.904301 0.526563
O O5 0.962858 0.873011 0.603946
O O6 0.612798 0.979168 0.649250
O O7 0.828402 0.047447 0.546552
O O8 0.662578 0.427287 0.754467
O O9 0.946951 0.817141 0.092381
O O10 0.714136 0.787359 0.980331
#
# Coordination Sequence:
#
# PCOD9460641 Si02
#       5
#     8   8   8   8   8
#     4  10  24  45  73 105 144 196 243 306 371 441
#     4  11  26  46  73 105 152 198 254 315 387 463
#     4  10  23  45  71 104 144 195 244 305 375 443
#     4  11  25  47  70 110 145 199 252 316 388 457
#     4  12  25  45  76 106 151 195 257 316 384 466
#
# _framework density 26.578651000000001
#
# number of rings (size 3 to 8) (size 9 to 14) (size 15 to 20)
#    0.000    1.200    2.000    3.000    5.600    4.800 
#    3.600    0.000    0.000    0.000    0.000    0.000 
#    0.000    0.000    0.000    0.000    0.000    0.000 
#
# Total GULP energy -223731.519585 kJ/mol
# GULP energy per Si atom -5593.287990 kJ/mol
# Density = 2.651816 g / cm^3
# Si number density = 26.578651 Si / 1000 Ang^3
#
#
#
# Elastic Constant Matrix: (Units=GPa)
#
#
# Indices 1 2 3 4 5 6 
#
# 1 114.7633 38.0276 1.7422 0.0000 0.0000 0.0000
# 2 38.0276 106.6349 26.7698 0.0000 0.0000 0.0000
# 3 1.7422 26.7698 63.0127 0.0000 0.0000 0.0000
# 4 0.0000 0.0000 0.0000 21.2635 0.0000 0.0000
# 5 0.0000 0.0000 0.0000 0.0000 47.4957 0.0000
# 6 0.0000 0.0000 0.0000 0.0000 0.0000 31.9482
#
#
#
# Elastic Compliance Matrix: (Units=1/GPa)
#
#
# Indices 1 2 3 4 5 6 
#
# 1 0.009988 -0.003909 0.001385 0.000000 0.000000 0.000000
# 2 -0.003909 0.012028 -0.005002 0.000000 0.000000 0.000000
# 3 0.001385 -0.005002 0.017956 0.000000 0.000000 0.000000
# 4 0.000000 0.000000 0.000000 0.047029 0.000000 0.000000
# 5 0.000000 0.000000 0.000000 0.000000 0.021055 0.000000
# 6 0.000000 0.000000 0.000000 0.000000 0.000000 0.031301
#
#
# Mechanical properties :
#
#
# Convention : Reuss Voigt Hill
#
# Bulk Modulus (GPa) = 40.12970 46.38779 43.25874
# Shear Modulus (GPa) = 30.72853 34.66625 32.69739
#
# Velocity S-wave (km/s) = 3.40389 3.61541 3.51124
# Velocity P-wave (km/s) = 5.52991 5.90925 5.72272
#
# Compressibility (1/GPa) = 0.02491920
#
# Stress axis : x y z
#
# Youngs Moduli (GPa) = 100.12017 83.14215 55.69052
#
# Poissons Ratio (x) = 0.32504 -0.07712
# Poissons Ratio (y) = 0.39142 0.27854
# Poissons Ratio (z) = -0.13864 0.41585
#
# Static dielectric constant tensor:
#      x y z
#    x 2.072490 0.000000 0.000000 
#    y 0.000000 2.145210 0.000000 
#    z 0.000000 0.000000 2.042590 
# 
# From -- ./inp_files/8715.got.cif
#   From: 2010.05.17/outbox.cif.g08.bks.cpg/sg61_5_cif.got.tgz:8715.got - 2010.06.03 15:17:17.
