data_PCOD9460244
_publ_section_title
;
Structure prediction by ZEFSAII (Michael W. Deem and Ramdas Pophale) SiO2 
 PCOD9460244
Probable space group: P B C A
;
_chemical_formula_sum "Si O2"
_cell_formula_units_Z 48
_cell_length_a 10.944820
_cell_length_b 16.351480
_cell_length_c 11.171059
_cell_angle_alpha 90.000000
_cell_angle_beta 90.000000
_cell_angle_gamma 90.000000
_cell_volume 1999.217462
_symmetry_space_group_name_H-M "P B C A"
_symmetry_group_IT_number 61
_symmetry_cell_setting 'orthorhombic'
loop_
_space_group_symop_operation_xyz
x,y,z
1/2-x,-y,1/2+z
1/2+x,1/2-y,-z
-x,1/2+y,1/2-z
-x,-y,-z
1/2+x,y,1/2-z
1/2-x,1/2+y,z
x,1/2-y,1/2+z
loop_
_atom_site_type_symbol
_atom_site_label
_atom_site_fract_x
_atom_site_fract_y
_atom_site_fract_z
Si Si1 0.841304 0.818943 0.225382
Si Si2 0.089660 0.292748 0.951724
Si Si3 0.764869 0.964462 0.069305
Si Si4 0.985972 0.922669 0.396482
Si Si5 0.696102 0.556113 0.312762
Si Si6 0.323062 0.257687 0.606882
O O1 0.875495 0.728917 0.182897
O O2 0.838824 0.886812 0.121883
O O3 0.948362 0.848476 0.311412
O O4 0.712020 0.810823 0.293843
O O5 0.953145 0.252921 0.961341
O O6 0.079338 0.387522 0.984598
O O7 0.204278 0.253925 0.022600
O O8 0.625662 0.934109 0.079077
O O9 0.777369 0.032910 0.174136
O O10 0.784449 0.974958 0.925076
O O11 0.922970 0.001402 0.341474
O O12 0.676891 0.651893 0.335355
#
# Coordination Sequence:
#
# PCOD9460244 Si02
#       6
#     8   8   8   8   8   8
#     4  10  22  39  65  96 135 181 237 297 355 423
#     4  11  21  42  70  97 140 185 242 294 361 434
#     4  11  22  45  65  99 141 182 234 296 356 429
#     4  10  22  39  66  91 137 187 226 293 366 416
#     4  11  24  41  70  99 137 184 236 292 360 432
#     4  11  24  40  70 103 133 189 237 298 364 433
#
# _framework density 24.009392999999999
#
# number of rings (size 3 to 8) (size 9 to 14) (size 15 to 20)
#    0.000    1.333    3.333    1.500    2.333    1.333 
#    0.000    3.333   11.000    0.000    0.000    0.000 
#    0.000    0.000    0.000    0.000    0.000    0.000 
#
# Total GULP energy -267338.979527 kJ/mol
# GULP energy per Si atom -5569.562073 kJ/mol
# Density = 2.395475 g / cm^3
# Si number density = 24.009393 Si / 1000 Ang^3
#
#
#
# Elastic Constant Matrix: (Units=GPa)
#
#
# Indices 1 2 3 4 5 6 
#
# 1 108.6409 6.2552 -6.7228 0.0000 0.0000 0.0000
# 2 6.2552 38.5195 -0.6941 0.0000 0.0000 0.0000
# 3 -6.7228 -0.6941 51.2058 0.0000 0.0000 0.0000
# 4 0.0000 0.0000 0.0000 43.0234 0.0000 0.0000
# 5 0.0000 0.0000 0.0000 0.0000 34.6060 0.0000
# 6 0.0000 0.0000 0.0000 0.0000 0.0000 25.9165
#
#
#
# Elastic Compliance Matrix: (Units=1/GPa)
#
#
# Indices 1 2 3 4 5 6 
#
# 1 0.009366 -0.001499 0.001209 0.000000 0.000000 0.000000
# 2 -0.001499 0.026207 0.000158 0.000000 0.000000 0.000000
# 3 0.001209 0.000158 0.019690 0.000000 0.000000 0.000000
# 4 0.000000 0.000000 0.000000 0.023243 0.000000 0.000000
# 5 0.000000 0.000000 0.000000 0.000000 0.028897 0.000000
# 6 0.000000 0.000000 0.000000 0.000000 0.000000 0.038585
#
#
# Mechanical properties :
#
#
# Convention : Reuss Voigt Hill
#
# Bulk Modulus (GPa) = 18.18181 21.78257 19.98219
# Shear Modulus (GPa) = 30.37954 34.01102 32.19528
#
# Velocity S-wave (km/s) = 3.56099 3.76782 3.66586
# Velocity P-wave (km/s) = 4.94942 5.29347 5.12433
#
# Compressibility (1/GPa) = 0.05500002
#
# Stress axis : x y z
#
# Youngs Moduli (GPa) = 106.77160 38.15752 50.78735
#
# Poissons Ratio (x) = 0.05720 -0.06142
# Poissons Ratio (y) = 0.16006 -0.00804
# Poissons Ratio (z) = -0.12912 -0.00604
#
# Static dielectric constant tensor:
#      x y z
#    x 1.894440 0.000000 0.000000 
#    y 0.000000 1.926550 0.000000 
#    z 0.000000 0.000000 2.173350 
# 
# From -- ./inp_files/5217.got.cif
#   From: 2010.05.17/outbox.cif.g08.bks.cpg/sg61_3_cif.got.tgz:5217.got - 2010.06.03 15:17:17.
