data_PCOD9460833
_publ_section_title
;
Structure prediction by ZEFSAII (Michael W. Deem and Ramdas Pophale) SiO2 
 PCOD9460833
Probable space group: P B C A
;
_chemical_formula_sum "Si O2"
_cell_formula_units_Z 40
_cell_length_a 4.713984
_cell_length_b 8.995528
_cell_length_c 32.185727
_cell_angle_alpha 90.000000
_cell_angle_beta 90.000000
_cell_angle_gamma 90.000000
_cell_volume 1364.828514
_symmetry_space_group_name_H-M "P B C A"
_symmetry_group_IT_number 61
_symmetry_cell_setting 'orthorhombic'
loop_
_space_group_symop_operation_xyz
x,y,z
1/2-x,-y,1/2+z
1/2+x,1/2-y,-z
-x,1/2+y,1/2-z
-x,-y,-z
1/2+x,y,1/2-z
1/2-x,1/2+y,z
x,1/2-y,1/2+z
loop_
_atom_site_type_symbol
_atom_site_label
_atom_site_fract_x
_atom_site_fract_y
_atom_site_fract_z
Si Si1 0.957283 0.752627 0.470968
Si Si2 0.172501 0.469619 0.919661
Si Si3 0.823720 0.343461 0.852028
Si Si4 0.523988 0.829635 0.276376
Si Si5 0.162846 0.883736 0.335650
O O1 0.137762 0.764662 0.513818
O O2 0.983790 0.097353 0.554420
O O3 0.094355 0.614702 0.446464
O O4 0.948484 0.357467 0.897930
O O5 0.297770 0.549484 0.878355
O O6 0.870964 0.505512 0.832593
O O7 0.527207 0.262300 0.849305
O O8 0.035398 0.244599 0.821947
O O9 0.837781 0.786218 0.263806
O O10 0.313375 0.958282 0.292201
#
# Coordination Sequence:
#
# PCOD9460833 Si02
#       5
#     8   8   8   8   8
#     4  12  27  52  79 124 154 202 254 324 403 462
#     4  10  26  52  80 112 164 202 262 320 378 494
#     4  10  25  49  79 115 152 212 263 313 399 453
#     4  12  25  50  73 112 156 200 258 328 381 452
#     4  10  25  49  79 115 152 212 263 313 399 453
#
# _framework density 29.307714000000001
#
# number of rings (size 3 to 8) (size 9 to 14) (size 15 to 20)
#    1.200    0.000    2.000    2.400    2.800    3.200 
#   10.800    0.000    0.000    0.000    0.000    0.000 
#    0.000    0.000    0.000    0.000    0.000    0.000 
#
# Total GULP energy -223348.656072 kJ/mol
# GULP energy per Si atom -5583.716402 kJ/mol
# Density = 2.924101 g / cm^3
# Si number density = 29.307714 Si / 1000 Ang^3
#
#
#
# Elastic Constant Matrix: (Units=GPa)
#
#
# Indices 1 2 3 4 5 6 
#
# 1 103.9369 14.5589 -38.6237 0.0000 0.0000 0.0000
# 2 14.5589 143.1641 10.1372 0.0000 0.0000 0.0000
# 3 -38.6237 10.1372 90.7790 0.0000 0.0000 0.0000
# 4 0.0000 0.0000 0.0000 54.0422 0.0000 0.0000
# 5 0.0000 0.0000 0.0000 0.0000 38.1584 0.0000
# 6 0.0000 0.0000 0.0000 0.0000 0.0000 42.3209
#
#
#
# Elastic Compliance Matrix: (Units=1/GPa)
#
#
# Indices 1 2 3 4 5 6 
#
# 1 0.011765 -0.001563 0.005180 0.000000 0.000000 0.000000
# 2 -0.001563 0.007248 -0.001475 0.000000 0.000000 0.000000
# 3 0.005180 -0.001475 0.013384 0.000000 0.000000 0.000000
# 4 0.000000 0.000000 0.000000 0.018504 0.000000 0.000000
# 5 0.000000 0.000000 0.000000 0.000000 0.026207 0.000000
# 6 0.000000 0.000000 0.000000 0.000000 0.000000 0.023629
#
#
# Mechanical properties :
#
#
# Convention : Reuss Voigt Hill
#
# Bulk Modulus (GPa) = 27.26047 34.44719 30.85383
# Shear Modulus (GPa) = 46.00646 50.35814 48.18230
#
# Velocity S-wave (km/s) = 3.96633 4.14968 4.05904
# Velocity P-wave (km/s) = 5.50431 5.89398 5.70247
#
# Compressibility (1/GPa) = 0.03668316
#
# Stress axis : x y z
#
# Youngs Moduli (GPa) = 84.99614 137.96196 74.71331
#
# Poissons Ratio (x) = 0.21567 -0.38704
# Poissons Ratio (y) = 0.13287 0.11017
# Poissons Ratio (z) = -0.44031 0.20343
#
# Static dielectric constant tensor:
#      x y z
#    x 2.400410 0.000000 0.000000 
#    y 0.000000 2.504180 0.000000 
#    z 0.000000 0.000000 2.392710 
# 
# From -- ./inp_files/11199.got.cif
#   From: 2010.05.17/outbox.cif.g08.bks.cpg/sg61_6_cif.got.tgz:11199.got - 2010.06.03 15:17:17.
