data_PCOD9460279
_publ_section_title
;
Structure prediction by ZEFSAII (Michael W. Deem and Ramdas Pophale) SiO2 
 PCOD9460279
Probable space group: P B C A
;
_chemical_formula_sum "Si O2"
_cell_formula_units_Z 32
_cell_length_a 9.196570
_cell_length_b 9.555652
_cell_length_c 13.242147
_cell_angle_alpha 90.000000
_cell_angle_beta 90.000000
_cell_angle_gamma 90.000000
_cell_volume 1163.709583
_symmetry_space_group_name_H-M "P B C A"
_symmetry_group_IT_number 61
_symmetry_cell_setting 'orthorhombic'
loop_
_space_group_symop_operation_xyz
x,y,z
1/2-x,-y,1/2+z
1/2+x,1/2-y,-z
-x,1/2+y,1/2-z
-x,-y,-z
1/2+x,y,1/2-z
1/2-x,1/2+y,z
x,1/2-y,1/2+z
loop_
_atom_site_type_symbol
_atom_site_label
_atom_site_fract_x
_atom_site_fract_y
_atom_site_fract_z
Si Si1 0.730396 0.089166 0.191302
Si Si2 0.940430 0.170068 0.682900
Si Si3 0.190590 0.294853 0.585390
Si Si4 0.487879 0.801189 0.407142
O O1 0.879856 0.171898 0.173981
O O2 0.705726 0.121134 0.310211
O O3 0.607744 0.165957 0.124341
O O4 0.697405 0.929180 0.166889
O O5 0.987662 0.133047 0.796924
O O6 0.082986 0.164881 0.614113
O O7 0.351191 0.244051 0.556728
O O8 0.104117 0.371364 0.496361
#
# Coordination Sequence:
#
# PCOD9460279 Si02
#       4
#     8   8   8   8
#     4  10  23  44  68  95 128 167 214 266 318 376
#     4  10  23  44  68  95 128 167 214 266 318 376
#     4  10  22  40  64  96 130 167 211 262 318 378
#     4  10  22  40  64  96 130 167 211 262 318 378
#
# _framework density 27.498269000000001
#
# number of rings (size 3 to 8) (size 9 to 14) (size 15 to 20)
#    0.000    2.000    0.000    1.500    0.000   22.000 
#    0.000   10.000    0.000    0.000    0.000    0.000 
#    0.000    0.000    0.000    0.000    0.000    0.000 
#
# Total GULP energy -179106.804738 kJ/mol
# GULP energy per Si atom -5597.087648 kJ/mol
# Density = 2.743568 g / cm^3
# Si number density = 27.498269 Si / 1000 Ang^3
#
#
#
# Elastic Constant Matrix: (Units=GPa)
#
#
# Indices 1 2 3 4 5 6 
#
# 1 200.2038 13.4817 61.6073 0.0000 0.0000 0.0000
# 2 13.4817 59.0395 -0.2045 0.0000 0.0000 0.0000
# 3 61.6073 -0.2045 166.3268 0.0000 0.0000 0.0000
# 4 0.0000 0.0000 0.0000 -3.9714 0.0000 0.0000
# 5 0.0000 0.0000 0.0000 0.0000 66.5713 0.0000
# 6 0.0000 0.0000 0.0000 0.0000 0.0000 33.0400
#
#
#
# Elastic Compliance Matrix: (Units=1/GPa)
#
#
# Indices 1 2 3 4 5 6 
#
# 1 0.005738 -0.001318 -0.002127 0.000000 0.000000 0.000000
# 2 -0.001318 0.017240 0.000509 0.000000 0.000000 0.000000
# 3 -0.002127 0.000509 0.006801 0.000000 0.000000 0.000000
# 4 0.000000 0.000000 0.000000 -0.251802 0.000000 0.000000
# 5 0.000000 0.000000 0.000000 0.000000 0.015021 0.000000
# 6 0.000000 0.000000 0.000000 0.000000 0.000000 0.030266
#
#
# Mechanical properties :
#
#
# Convention : Reuss Voigt Hill
#
# Bulk Modulus (GPa) = 41.82616 63.92656 52.87636
# Shear Modulus (GPa) = -30.69472 42.50704 5.90616
#
# Velocity S-wave (km/s) = -3.34465 3.93594 1.46714
# Velocity P-wave (km/s) = 0.57267 6.62974 4.70539
#
# Compressibility (1/GPa) = 0.02390848
#
# Stress axis : x y z
#
# Youngs Moduli (GPa) = 174.27129 58.00304 147.04288
#
# Poissons Ratio (x) = 0.07643 0.31277
# Poissons Ratio (y) = 0.22963 -0.07488
# Poissons Ratio (z) = 0.37068 -0.02954
#
# Static dielectric constant tensor:
#      x y z
#    x 2.078340 0.000000 0.000000 
#    y 0.000000 2.193710 0.000000 
#    z 0.000000 0.000000 2.146070 
# 
# From -- ./inp_files/2041.got.cif
#   From: 2010.05.17/outbox.cif.g08.bks.cpg/sg61_2_cif.got.tgz:2041.got - 2010.06.03 15:17:17.
