data_PCOD9460351
_publ_section_title
;
Structure prediction by ZEFSAII (Michael W. Deem and Ramdas Pophale) SiO2 
 PCOD9460351
Probable space group: P B C A
;
_chemical_formula_sum "Si O2"
_cell_formula_units_Z 64
_cell_length_a 16.636022
_cell_length_b 13.693234
_cell_length_c 12.079135
_cell_angle_alpha 90.000000
_cell_angle_beta 90.000000
_cell_angle_gamma 90.000000
_cell_volume 2751.638332
_symmetry_space_group_name_H-M "P B C A"
_symmetry_group_IT_number 61
_symmetry_cell_setting 'orthorhombic'
loop_
_space_group_symop_operation_xyz
x,y,z
1/2-x,-y,1/2+z
1/2+x,1/2-y,-z
-x,1/2+y,1/2-z
-x,-y,-z
1/2+x,y,1/2-z
1/2-x,1/2+y,z
x,1/2-y,1/2+z
loop_
_atom_site_type_symbol
_atom_site_label
_atom_site_fract_x
_atom_site_fract_y
_atom_site_fract_z
Si Si1 0.710909 0.784492 0.844992
Si Si2 0.393033 0.327901 0.994956
Si Si3 0.268775 0.077600 0.745758
Si Si4 0.029771 0.280726 0.638535
Si Si5 0.746309 0.099783 0.139182
Si Si6 0.348635 0.732819 0.966707
Si Si7 0.904966 0.607431 0.723863
Si Si8 0.561059 0.991695 0.352635
O O1 0.720586 0.693599 0.759903
O O2 0.720707 0.875152 0.762740
O O3 0.631901 0.754296 0.915611
O O4 0.781837 0.784547 0.937328
O O5 0.435921 0.283636 0.887481
O O6 0.313364 0.379816 0.951481
O O7 0.447354 0.415460 0.044370
O O8 0.174077 0.072047 0.709008
O O9 0.348414 0.038380 0.683634
O O10 0.275649 0.013547 0.856843
O O11 0.070018 0.238647 0.527834
O O12 0.058527 0.209204 0.733038
O O13 0.060534 0.391580 0.645548
O O14 0.678113 0.177013 0.109379
O O15 0.366743 0.636802 0.894703
O O16 0.980788 0.535702 0.717347
#
# Coordination Sequence:
#
# PCOD9460351 Si02
#       8
#     8   8   8   8   8   8   8   8
#     4  10  22  42  62  98 134 177 227 278 351 414
#     4  10  24  38  69 101 135 171 240 286 340 429
#     4  11  23  43  65  98 136 176 227 286 340 424
#     4  12  24  43  70  97 140 184 227 296 354 416
#     4  11  23  42  70  98 137 184 227 286 356 407
#     4  11  21  40  65  97 132 175 231 276 346 411
#     4  12  25  43  71  99 141 187 234 289 358 419
#     4  11  25  43  67 106 135 178 242 288 345 421
#
# _framework density 23.258872
#
# number of rings (size 3 to 8) (size 9 to 14) (size 15 to 20)
#    0.000    1.000    3.750    2.625    5.250    0.000 
#    2.250    0.000    2.750    3.750    0.000    0.000 
#    0.000    0.000    0.000    0.000    0.000    0.000 
#
# Total GULP energy -356830.952953 kJ/mol
# GULP energy per Si atom -5575.483640 kJ/mol
# Density = 2.320593 g / cm^3
# Si number density = 23.258872 Si / 1000 Ang^3
#
#
#
# Elastic Constant Matrix: (Units=GPa)
#
#
# Indices 1 2 3 4 5 6 
#
# 1 119.1581 45.1722 13.7374 0.0000 0.0000 0.0000
# 2 45.1722 92.0799 20.6674 0.0000 0.0000 0.0000
# 3 13.7374 20.6674 36.6264 0.0000 0.0000 0.0000
# 4 0.0000 0.0000 0.0000 20.7991 0.0000 0.0000
# 5 0.0000 0.0000 0.0000 0.0000 40.7578 0.0000
# 6 0.0000 0.0000 0.0000 0.0000 0.0000 26.3104
#
#
#
# Elastic Compliance Matrix: (Units=1/GPa)
#
#
# Indices 1 2 3 4 5 6 
#
# 1 0.010353 -0.004817 -0.001165 0.000000 0.000000 0.000000
# 2 -0.004817 0.014677 -0.006475 0.000000 0.000000 0.000000
# 3 -0.001165 -0.006475 0.031393 0.000000 0.000000 0.000000
# 4 0.000000 0.000000 0.000000 0.048079 0.000000 0.000000
# 5 0.000000 0.000000 0.000000 0.000000 0.024535 0.000000
# 6 0.000000 0.000000 0.000000 0.000000 0.000000 0.038008
#
#
# Mechanical properties :
#
#
# Convention : Reuss Voigt Hill
#
# Bulk Modulus (GPa) = 31.73717 45.22425 38.48071
# Shear Modulus (GPa) = 24.69608 28.79262 26.74435
#
# Velocity S-wave (km/s) = 3.26205 3.52223 3.39463
# Velocity P-wave (km/s) = 5.27852 6.00229 5.65200
#
# Compressibility (1/GPa) = 0.03150880
#
# Stress axis : x y z
#
# Youngs Moduli (GPa) = 96.59291 68.13514 31.85406
#
# Poissons Ratio (x) = 0.32823 0.03710
# Poissons Ratio (y) = 0.46533 0.20625
# Poissons Ratio (z) = 0.11250 0.44117
#
# Static dielectric constant tensor:
#      x y z
#    x 1.934110 0.000000 0.000000 
#    y 0.000000 1.871870 0.000000 
#    z 0.000000 0.000000 1.941280 
# 
# From -- ./inp_files/6306.got.cif
#   From: 2010.05.17/outbox.cif.g08.bks.cpg/sg61_4_cif.got.tgz:6306.got - 2010.06.03 15:17:17.
