data_PCOD9460613
_publ_section_title
;
Structure prediction by ZEFSAII (Michael W. Deem and Ramdas Pophale) SiO2 
 PCOD9460613
Probable space group: P B C A
;
_chemical_formula_sum "Si O2"
_cell_formula_units_Z 56
_cell_length_a 13.340724
_cell_length_b 19.493063
_cell_length_c 9.460191
_cell_angle_alpha 90.000000
_cell_angle_beta 90.000000
_cell_angle_gamma 90.000000
_cell_volume 2460.137554
_symmetry_space_group_name_H-M "P B C A"
_symmetry_group_IT_number 61
_symmetry_cell_setting 'orthorhombic'
loop_
_space_group_symop_operation_xyz
x,y,z
1/2-x,-y,1/2+z
1/2+x,1/2-y,-z
-x,1/2+y,1/2-z
-x,-y,-z
1/2+x,y,1/2-z
1/2-x,1/2+y,z
x,1/2-y,1/2+z
loop_
_atom_site_type_symbol
_atom_site_label
_atom_site_fract_x
_atom_site_fract_y
_atom_site_fract_z
Si Si1 0.555310 0.058417 0.909451
Si Si2 0.988378 0.292030 0.032089
Si Si3 0.163802 0.394743 0.639304
Si Si4 0.894832 0.734477 0.215977
Si Si5 0.714670 0.554555 0.841847
Si Si6 0.004838 0.572493 0.576404
Si Si7 0.722799 0.667103 0.599990
O O1 0.513979 0.128090 0.973907
O O2 0.676105 0.053985 0.913099
O O3 0.527278 0.063312 0.740737
O O4 0.500000 0.000000 0.000000
O O5 0.878712 0.289514 0.095932
O O6 0.073213 0.260893 0.131904
O O7 0.006462 0.259789 0.880192
O O8 0.138642 0.344274 0.767219
O O9 0.183046 0.474341 0.678140
O O10 0.074435 0.387878 0.521454
O O11 0.257375 0.362145 0.556496
O O12 0.808938 0.782652 0.155120
O O13 0.622626 0.590731 0.925465
O O14 0.720741 0.599685 0.699593
O O15 0.000000 0.500000 0.500000
#
# Coordination Sequence:
#
# PCOD9460613 Si02
#       7
#     8   8   8   8   8   8   8
#     4  12  25  45  74 113 148 191 260 318 379 455
#     4  12  28  47  77 106 152 202 253 323 376 472
#     4  11  25  50  72 113 153 201 258 319 387 464
#     4  12  28  51  74 108 157 200 260 317 391 467
#     4  11  24  44  78 108 149 201 248 322 385 444
#     4  10  23  44  69 103 151 193 237 317 381 448
#     4  12  25  51  77 111 151 205 260 314 390 465
#
# _framework density 22.762955999999999
#
# number of rings (size 3 to 8) (size 9 to 14) (size 15 to 20)
#    0.000    0.571    5.714    0.857    6.000    0.000 
#    2.571    0.000    0.000    0.000    0.000    0.000 
#    0.000    0.000    0.000    0.000    0.000    0.000 
#
# Total GULP energy -312938.584094 kJ/mol
# GULP energy per Si atom -5588.189002 kJ/mol
# Density = 2.271115 g / cm^3
# Si number density = 22.762956 Si / 1000 Ang^3
#
#
#
# Elastic Constant Matrix: (Units=GPa)
#
#
# Indices 1 2 3 4 5 6 
#
# 1 139.5316 18.7683 20.4382 0.0000 0.0000 0.0000
# 2 18.7683 78.1250 20.6969 0.0000 0.0000 0.0000
# 3 20.4382 20.6969 79.5337 0.0000 0.0000 0.0000
# 4 0.0000 0.0000 0.0000 37.1896 0.0000 0.0000
# 5 0.0000 0.0000 0.0000 0.0000 31.0556 0.0000
# 6 0.0000 0.0000 0.0000 0.0000 0.0000 29.8926
#
#
#
# Elastic Compliance Matrix: (Units=1/GPa)
#
#
# Indices 1 2 3 4 5 6 
#
# 1 0.007588 -0.001403 -0.001585 0.000000 0.000000 0.000000
# 2 -0.001403 0.014007 -0.003285 0.000000 0.000000 0.000000
# 3 -0.001585 -0.003285 0.013835 0.000000 0.000000 0.000000
# 4 0.000000 0.000000 0.000000 0.026889 0.000000 0.000000
# 5 0.000000 0.000000 0.000000 0.000000 0.032200 0.000000
# 6 0.000000 0.000000 0.000000 0.000000 0.000000 0.033453
#
#
# Mechanical properties :
#
#
# Convention : Reuss Voigt Hill
#
# Bulk Modulus (GPa) = 43.69562 46.33301 45.01432
# Shear Modulus (GPa) = 33.75051 35.44667 34.59859
#
# Velocity S-wave (km/s) = 3.85475 3.95043 3.90288
# Velocity P-wave (km/s) = 6.24898 6.41924 6.33468
#
# Compressibility (1/GPa) = 0.02288559
#
# Stress axis : x y z
#
# Youngs Moduli (GPa) = 131.79256 71.39188 72.27909
#
# Poissons Ratio (x) = 0.10016 0.11454
# Poissons Ratio (y) = 0.18490 0.23740
# Poissons Ratio (z) = 0.20886 0.23449
#
# Static dielectric constant tensor:
#      x y z
#    x 1.929800 0.000000 0.000000 
#    y 0.000000 1.803830 0.000000 
#    z 0.000000 0.000000 1.850400 
# 
# From -- ./inp_files/3055.got.cif
#   From: 2010.05.17/outbox.cif.g08.bks.cpg/sg61_2_cif.got.tgz:3055.got - 2010.06.03 15:17:17.
