data_PCOD9460011
_publ_section_title
;
Structure prediction by ZEFSAII (Michael W. Deem and Ramdas Pophale) SiO2 
 PCOD9460011
Probable space group: P B C A
;
_chemical_formula_sum "Si O2"
_cell_formula_units_Z 48
_cell_length_a 9.096244
_cell_length_b 9.639594
_cell_length_c 20.921958
_cell_angle_alpha 90.000000
_cell_angle_beta 90.000000
_cell_angle_gamma 90.000000
_cell_volume 1834.523038
_symmetry_space_group_name_H-M "P B C A"
_symmetry_group_IT_number 61
_symmetry_cell_setting 'orthorhombic'
loop_
_space_group_symop_operation_xyz
x,y,z
1/2-x,-y,1/2+z
1/2+x,1/2-y,-z
-x,1/2+y,1/2-z
-x,-y,-z
1/2+x,y,1/2-z
1/2-x,1/2+y,z
x,1/2-y,1/2+z
loop_
_atom_site_type_symbol
_atom_site_label
_atom_site_fract_x
_atom_site_fract_y
_atom_site_fract_z
Si Si1 0.192294 0.493532 0.552240
Si Si2 0.527346 0.290401 0.036300
Si Si3 0.651216 0.334705 0.826971
Si Si4 0.124440 0.913103 0.767020
Si Si5 0.270999 0.830500 0.348198
Si Si6 0.973728 0.600457 0.910749
O O1 0.130908 0.415088 0.491352
O O2 0.110208 0.432361 0.613679
O O3 0.363890 0.478533 0.567864
O O4 0.137150 0.650834 0.545583
O O5 0.607914 0.267539 0.103470
O O6 0.524701 0.187756 0.976533
O O7 0.811003 0.369658 0.801047
O O8 0.548394 0.384749 0.769233
O O9 0.614602 0.183289 0.854394
O O10 0.189540 0.798275 0.815377
O O11 0.162932 0.064426 0.795172
O O12 0.138873 0.912222 0.385436
#
# Coordination Sequence:
#
# PCOD9460011 Si02
#       6
#     8   8   8   8   8   8
#     4  10  21  40  66  90 132 168 218 266 329 384
#     4  10  21  41  66  92 132 174 208 271 332 381
#     4  10  24  43  62  93 129 174 216 271 329 378
#     4  11  26  44  67  92 133 174 216 273 320 394
#     4  11  25  44  65  98 133 171 218 268 333 382
#     4  10  23  40  65  97 128 168 222 269 319 399
#
# _framework density 26.164838
#
# number of rings (size 3 to 8) (size 9 to 14) (size 15 to 20)
#    0.000    1.667    1.667    1.000    9.333    3.333 
#    3.000    0.000    0.000    0.000    0.000    0.000 
#    0.000    0.000    0.000    0.000    0.000    0.000 
#
# Total GULP energy -268557.657131 kJ/mol
# GULP energy per Si atom -5594.951190 kJ/mol
# Density = 2.610529 g / cm^3
# Si number density = 26.164838 Si / 1000 Ang^3
#
#
#
# Elastic Constant Matrix: (Units=GPa)
#
#
# Indices 1 2 3 4 5 6 
#
# 1 82.4429 -7.7378 29.3545 0.0000 0.0000 0.0000
# 2 -7.7378 50.6910 4.8831 0.0000 0.0000 0.0000
# 3 29.3545 4.8831 99.4413 0.0000 0.0000 0.0000
# 4 0.0000 0.0000 0.0000 22.2272 0.0000 0.0000
# 5 0.0000 0.0000 0.0000 0.0000 57.7774 0.0000
# 6 0.0000 0.0000 0.0000 0.0000 0.0000 26.5964
#
#
#
# Elastic Compliance Matrix: (Units=1/GPa)
#
#
# Indices 1 2 3 4 5 6 
#
# 1 0.013868 0.002523 -0.004218 0.000000 0.000000 0.000000
# 2 0.002523 0.020280 -0.001741 0.000000 0.000000 0.000000
# 3 -0.004218 -0.001741 0.011387 0.000000 0.000000 0.000000
# 4 0.000000 0.000000 0.000000 0.044990 0.000000 0.000000
# 5 0.000000 0.000000 0.000000 0.000000 0.017308 0.000000
# 6 0.000000 0.000000 0.000000 0.000000 0.000000 0.037599
#
#
# Mechanical properties :
#
#
# Convention : Reuss Voigt Hill
#
# Bulk Modulus (GPa) = 25.86338 31.73054 28.79696
# Shear Modulus (GPa) = 30.26807 35.05856 32.66332
#
# Velocity S-wave (km/s) = 3.40490 3.66445 3.53706
# Velocity P-wave (km/s) = 5.03627 5.48250 5.26411
#
# Compressibility (1/GPa) = 0.03866470
#
# Stress axis : x y z
#
# Youngs Moduli (GPa) = 72.10755 49.30915 87.82175
#
# Poissons Ratio (x) = -0.12442 0.37041
# Poissons Ratio (y) = -0.18194 0.15287
# Poissons Ratio (z) = 0.30413 0.08583
#
# Static dielectric constant tensor:
#      x y z
#    x 2.075550 0.000000 0.000000 
#    y 0.000000 2.166120 0.000000 
#    z 0.000000 0.000000 2.031010 
# 
# From -- ./inp_files/10837.got.cif
#   From: 2010.05.17/outbox.cif.g08.bks.cpg/sg61_6_cif.got.tgz:10837.got - 2010.06.03 15:17:17.
