data_PCOD9460629
_publ_section_title
;
Structure prediction by ZEFSAII (Michael W. Deem and Ramdas Pophale) SiO2 
 PCOD9460629
Probable space group: P B C A
;
_chemical_formula_sum "Si O2"
_cell_formula_units_Z 40
_cell_length_a 11.713814
_cell_length_b 12.266150
_cell_length_c 11.709635
_cell_angle_alpha 90.000000
_cell_angle_beta 90.000000
_cell_angle_gamma 90.000000
_cell_volume 1682.480165
_symmetry_space_group_name_H-M "P B C A"
_symmetry_group_IT_number 61
_symmetry_cell_setting 'orthorhombic'
loop_
_space_group_symop_operation_xyz
x,y,z
1/2-x,-y,1/2+z
1/2+x,1/2-y,-z
-x,1/2+y,1/2-z
-x,-y,-z
1/2+x,y,1/2-z
1/2-x,1/2+y,z
x,1/2-y,1/2+z
loop_
_atom_site_type_symbol
_atom_site_label
_atom_site_fract_x
_atom_site_fract_y
_atom_site_fract_z
Si Si1 0.562160 0.746696 0.434996
Si Si2 0.522713 0.016245 0.154221
Si Si3 0.089923 0.326575 0.247679
Si Si4 0.762338 0.393887 0.054605
Si Si5 0.084677 0.383621 0.615298
O O1 0.510229 0.625671 0.411559
O O2 0.532132 0.800615 0.311706
O O3 0.680793 0.712258 0.493940
O O4 0.499380 0.824277 0.526233
O O5 0.527000 0.042971 0.289363
O O6 0.431250 0.918858 0.153735
O O7 0.641160 0.970993 0.106272
O O8 0.179418 0.359980 0.343236
O O9 0.133139 0.216363 0.189754
O O10 0.681637 0.444199 0.956585
#
# Coordination Sequence:
#
# PCOD9460629 Si02
#       5
#     8   8   8   8   8
#     4  10  23  45  64  95 138 174 219 283 329 391
#     4  11  24  44  69  97 137 177 221 281 332 397
#     4  10  24  44  66 100 133 174 225 272 337 396
#     4  11  24  40  69  97 128 183 217 271 335 398
#     4  10  24  44  64 100 133 176 225 274 330 400
#
# _framework density 23.774425999999998
#
# number of rings (size 3 to 8) (size 9 to 14) (size 15 to 20)
#    0.000    1.600    2.000    0.600    5.600    3.200 
#   14.400    0.000    0.000    0.000    0.000    0.000 
#    0.000    0.000    0.000    0.000    0.000    0.000 
#
# Total GULP energy -223386.879962 kJ/mol
# GULP energy per Si atom -5584.671999 kJ/mol
# Density = 2.372031 g / cm^3
# Si number density = 23.774426 Si / 1000 Ang^3
#
#
#
# Elastic Constant Matrix: (Units=GPa)
#
#
# Indices 1 2 3 4 5 6 
#
# 1 49.0630 5.6346 10.8560 0.0000 0.0000 0.0000
# 2 5.6346 87.2734 8.0467 0.0000 0.0000 0.0000
# 3 10.8560 8.0467 96.9286 0.0000 0.0000 0.0000
# 4 0.0000 0.0000 0.0000 17.1508 0.0000 0.0000
# 5 0.0000 0.0000 0.0000 0.0000 63.4536 0.0000
# 6 0.0000 0.0000 0.0000 0.0000 0.0000 14.3481
#
#
#
# Elastic Compliance Matrix: (Units=1/GPa)
#
#
# Indices 1 2 3 4 5 6 
#
# 1 0.021014 -0.001148 -0.002258 0.000000 0.000000 0.000000
# 2 -0.001148 0.011609 -0.000835 0.000000 0.000000 0.000000
# 3 -0.002258 -0.000835 0.010639 0.000000 0.000000 0.000000
# 4 0.000000 0.000000 0.000000 0.058306 0.000000 0.000000
# 5 0.000000 0.000000 0.000000 0.000000 0.015760 0.000000
# 6 0.000000 0.000000 0.000000 0.000000 0.000000 0.069696
#
#
# Mechanical properties :
#
#
# Convention : Reuss Voigt Hill
#
# Bulk Modulus (GPa) = 28.75343 31.37105 30.06224
# Shear Modulus (GPa) = 24.14296 32.90570 28.52433
#
# Velocity S-wave (km/s) = 3.19015 3.72436 3.46756
# Velocity P-wave (km/s) = 5.06852 5.63191 5.35763
#
# Compressibility (1/GPa) = 0.03477846
#
# Stress axis : x y z
#
# Youngs Moduli (GPa) = 47.58840 86.13714 93.99276
#
# Poissons Ratio (x) = 0.09893 0.21225
# Poissons Ratio (y) = 0.05465 0.07850
# Poissons Ratio (z) = 0.10746 0.07194
#
# Static dielectric constant tensor:
#      x y z
#    x 1.934290 0.000000 0.000000 
#    y 0.000000 1.887610 0.000000 
#    z 0.000000 0.000000 1.940630 
# 
# From -- ./inp_files/5092.got.cif
#   From: 2010.05.17/outbox.cif.g08.bks.cpg/sg61_3_cif.got.tgz:5092.got - 2010.06.03 15:17:17.
