data_PCOD9460896
_publ_section_title
;
Structure prediction by ZEFSAII (Michael W. Deem and Ramdas Pophale) SiO2 
 PCOD9460896
Probable space group: P B C A
;
_chemical_formula_sum "Si O2"
_cell_formula_units_Z 64
_cell_length_a 13.441538
_cell_length_b 7.676624
_cell_length_c 25.987783
_cell_angle_alpha 90.000000
_cell_angle_beta 90.000000
_cell_angle_gamma 90.000000
_cell_volume 2681.565845
_symmetry_space_group_name_H-M "P B C A"
_symmetry_group_IT_number 61
_symmetry_cell_setting 'orthorhombic'
loop_
_space_group_symop_operation_xyz
x,y,z
1/2-x,-y,1/2+z
1/2+x,1/2-y,-z
-x,1/2+y,1/2-z
-x,-y,-z
1/2+x,y,1/2-z
1/2-x,1/2+y,z
x,1/2-y,1/2+z
loop_
_atom_site_type_symbol
_atom_site_label
_atom_site_fract_x
_atom_site_fract_y
_atom_site_fract_z
Si Si1 0.965634 0.852711 0.558495
Si Si2 0.957070 0.661308 0.449433
Si Si3 0.165752 0.217188 0.355605
Si Si4 0.835330 0.311851 0.452986
Si Si5 0.694973 0.587210 0.716599
Si Si6 0.311975 0.355221 0.706201
Si Si7 0.161274 0.784553 0.437733
Si Si8 0.828465 0.637455 0.869815
O O1 0.947322 0.779503 0.500981
O O2 0.925121 0.742995 0.606972
O O3 0.086224 0.841291 0.563484
O O4 0.899715 0.031210 0.563209
O O5 0.906488 0.478036 0.459660
O O6 0.911026 0.751842 0.399059
O O7 0.073022 0.645470 0.437005
O O8 0.203788 0.339734 0.309837
O O9 0.260740 0.234473 0.394094
O O10 0.146811 0.031363 0.327588
O O11 0.789779 0.240480 0.506129
O O12 0.751797 0.388460 0.415646
O O13 0.637501 0.737515 0.748808
O O14 0.733210 0.463370 0.760991
O O15 0.242386 0.245392 0.668436
O O16 0.369075 0.484188 0.667370
#
# Coordination Sequence:
#
# PCOD9460896 Si02
#       8
#     8   8   8   8   8   8   8   8
#     4  11  24  38  59  92 130 164 202 253 301 374
#     4  11  24  38  59  92 130 163 204 251 304 370
#     4  11  21  38  67  90 118 169 208 245 316 378
#     4  11  24  38  59  92 130 164 202 253 301 374
#     4   9  20  38  62  92 116 152 205 262 310 358
#     4   9  20  38  62  92 116 152 205 262 310 358
#     4  11  24  38  59  92 130 163 204 251 304 370
#     4  11  21  38  67  90 118 169 208 245 316 378
#
# _framework density 23.866654
#
# number of rings (size 3 to 8) (size 9 to 14) (size 15 to 20)
#    0.000    1.500    2.500    3.750    7.000    2.000 
#    0.000    0.000    0.000   22.500    0.000    0.000 
#    0.000    0.000    0.000    0.000    0.000    0.000 
#
# Total GULP energy -356758.177981 kJ/mol
# GULP energy per Si atom -5574.346531 kJ/mol
# Density = 2.381233 g / cm^3
# Si number density = 23.866654 Si / 1000 Ang^3
#
#
#
# Elastic Constant Matrix: (Units=GPa)
#
#
# Indices 1 2 3 4 5 6 
#
# 1 71.3159 -1.8910 9.1326 0.0000 0.0000 0.0000
# 2 -1.8910 75.9777 26.2963 0.0000 0.0000 0.0000
# 3 9.1326 26.2963 95.1208 0.0000 0.0000 0.0000
# 4 0.0000 0.0000 0.0000 48.2801 0.0000 0.0000
# 5 0.0000 0.0000 0.0000 0.0000 16.6329 0.0000
# 6 0.0000 0.0000 0.0000 0.0000 0.0000 23.6033
#
#
#
# Elastic Compliance Matrix: (Units=1/GPa)
#
#
# Indices 1 2 3 4 5 6 
#
# 1 0.014254 0.000916 -0.001622 0.000000 0.000000 0.000000
# 2 0.000916 0.014613 -0.004128 0.000000 0.000000 0.000000
# 3 -0.001622 -0.004128 0.011810 0.000000 0.000000 0.000000
# 4 0.000000 0.000000 0.000000 0.020712 0.000000 0.000000
# 5 0.000000 0.000000 0.000000 0.000000 0.060122 0.000000
# 6 0.000000 0.000000 0.000000 0.000000 0.000000 0.042367
#
#
# Mechanical properties :
#
#
# Convention : Reuss Voigt Hill
#
# Bulk Modulus (GPa) = 32.24760 34.38781 33.31770
# Shear Modulus (GPa) = 27.19132 31.62835 29.40983
#
# Velocity S-wave (km/s) = 3.37902 3.64429 3.51416
# Velocity P-wave (km/s) = 5.36326 5.66987 5.51870
#
# Compressibility (1/GPa) = 0.03101006
#
# Stress axis : x y z
#
# Youngs Moduli (GPa) = 70.15529 68.43127 84.67554
#
# Poissons Ratio (x) = -0.06269 0.13733
# Poissons Ratio (y) = -0.06427 0.34952
# Poissons Ratio (z) = 0.11378 0.28247
#
# Static dielectric constant tensor:
#      x y z
#    x 1.884330 0.000000 0.000000 
#    y 0.000000 2.080240 0.000000 
#    z 0.000000 0.000000 1.955290 
# 
# From -- ./inp_files/11085.got.cif
#   From: 2010.05.17/outbox.cif.g08.bks.cpg/sg61_6_cif.got.tgz:11085.got - 2010.06.03 15:17:17.
