data_PCOD9460508
_publ_section_title
;
Structure prediction by ZEFSAII (Michael W. Deem and Ramdas Pophale) SiO2 
 PCOD9460508
Probable space group: P B C A
;
_chemical_formula_sum "Si O2"
_cell_formula_units_Z 48
_cell_length_a 12.925804
_cell_length_b 23.862455
_cell_length_c 7.765545
_cell_angle_alpha 90.000000
_cell_angle_beta 90.000000
_cell_angle_gamma 90.000000
_cell_volume 2395.215698
_symmetry_space_group_name_H-M "P B C A"
_symmetry_group_IT_number 61
_symmetry_cell_setting 'orthorhombic'
loop_
_space_group_symop_operation_xyz
x,y,z
1/2-x,-y,1/2+z
1/2+x,1/2-y,-z
-x,1/2+y,1/2-z
-x,-y,-z
1/2+x,y,1/2-z
1/2-x,1/2+y,z
x,1/2-y,1/2+z
loop_
_atom_site_type_symbol
_atom_site_label
_atom_site_fract_x
_atom_site_fract_y
_atom_site_fract_z
Si Si1 0.519802 0.569182 0.197896
Si Si2 0.740160 0.679126 0.482151
Si Si3 0.331399 0.444814 0.502500
Si Si4 0.111480 0.726704 0.712719
Si Si5 0.150894 0.523141 0.612600
Si Si6 0.522140 0.309164 0.911361
O O1 0.565321 0.552961 0.383385
O O2 0.425099 0.529479 0.146429
O O3 0.488499 0.634060 0.196922
O O4 0.604521 0.557829 0.047527
O O5 0.722401 0.613822 0.443674
O O6 0.679307 0.720828 0.354195
O O7 0.684319 0.691907 0.662340
O O8 0.861133 0.693404 0.479068
O O9 0.260270 0.497096 0.557006
O O10 0.344452 0.445833 0.296336
O O11 0.063465 0.689903 0.561606
O O12 0.012532 0.754404 0.806588
#
# Coordination Sequence:
#
# PCOD9460508 Si02
#       6
#     8   8   8   8   8   8
#     4  11  23  42  63  90 126 164 205 259 310 370
#     4  11  22  40  63  89 123 161 203 257 309 370
#     4  12  22  41  64  92 123 165 211 250 314 374
#     4  10  23  39  62  91 123 159 205 255 311 373
#     4  11  24  40  63  90 127 164 205 259 308 369
#     4  11  21  40  63  90 123 161 206 254 315 370
#
# _framework density 20.039949
#
# number of rings (size 3 to 8) (size 9 to 14) (size 15 to 20)
#    0.000    1.000    5.000    2.500    0.000    0.000 
#    0.000    0.000    0.000    0.000    0.000    0.000 
#    0.000    0.000    0.000    0.000    0.000    0.000 
#
# Total GULP energy -268095.362341 kJ/mol
# GULP energy per Si atom -5585.320049 kJ/mol
# Density = 1.999434 g / cm^3
# Si number density = 20.039949 Si / 1000 Ang^3
#
#
#
# Elastic Constant Matrix: (Units=GPa)
#
#
# Indices 1 2 3 4 5 6 
#
# 1 55.7191 9.6533 -4.0957 0.0000 0.0000 0.0000
# 2 9.6533 50.9048 -3.3609 0.0000 0.0000 0.0000
# 3 -4.0957 -3.3609 64.6147 0.0000 0.0000 0.0000
# 4 0.0000 0.0000 0.0000 15.9706 0.0000 0.0000
# 5 0.0000 0.0000 0.0000 0.0000 17.9259 0.0000
# 6 0.0000 0.0000 0.0000 0.0000 0.0000 26.4199
#
#
#
# Elastic Compliance Matrix: (Units=1/GPa)
#
#
# Indices 1 2 3 4 5 6 
#
# 1 0.018621 -0.003465 0.001000 0.000000 0.000000 0.000000
# 2 -0.003465 0.020357 0.000839 0.000000 0.000000 0.000000
# 3 0.001000 0.000839 0.015583 0.000000 0.000000 0.000000
# 4 0.000000 0.000000 0.000000 0.062615 0.000000 0.000000
# 5 0.000000 0.000000 0.000000 0.000000 0.055785 0.000000
# 6 0.000000 0.000000 0.000000 0.000000 0.000000 0.037850
#
#
# Mechanical properties :
#
#
# Convention : Reuss Voigt Hill
#
# Bulk Modulus (GPa) = 19.48949 19.51467 19.50208
# Shear Modulus (GPa) = 21.62940 23.33274 22.48107
#
# Velocity S-wave (km/s) = 3.28886 3.41590 3.35298
# Velocity P-wave (km/s) = 4.91615 5.03159 4.97420
#
# Compressibility (1/GPa) = 0.05130971
#
# Stress axis : x y z
#
# Youngs Moduli (GPa) = 53.70273 49.12309 64.17083
#
# Poissons Ratio (x) = 0.17022 -0.06418
# Poissons Ratio (y) = 0.18609 -0.05385
# Poissons Ratio (z) = -0.05371 -0.04123
#
# Static dielectric constant tensor:
#      x y z
#    x 1.679610 0.000000 0.000000 
#    y 0.000000 1.686760 0.000000 
#    z 0.000000 0.000000 1.721200 
# 
# From -- ./inp_files/2243.got.cif
#   From: 2010.05.17/outbox.cif.g08.bks.cpg/sg61_2_cif.got.tgz:2243.got - 2010.06.03 15:17:17.
