data_PCOD9460036
_publ_section_title
;
Structure prediction by ZEFSAII (Michael W. Deem and Ramdas Pophale) SiO2 
 PCOD9460036
Probable space group: P B C A
;
_chemical_formula_sum "Si O2"
_cell_formula_units_Z 48
_cell_length_a 17.291501
_cell_length_b 11.608588
_cell_length_c 10.812437
_cell_angle_alpha 90.000000
_cell_angle_beta 90.000000
_cell_angle_gamma 90.000000
_cell_volume 2170.379517
_symmetry_space_group_name_H-M "P B C A"
_symmetry_group_IT_number 61
_symmetry_cell_setting 'orthorhombic'
loop_
_space_group_symop_operation_xyz
x,y,z
1/2-x,-y,1/2+z
1/2+x,1/2-y,-z
-x,1/2+y,1/2-z
-x,-y,-z
1/2+x,y,1/2-z
1/2-x,1/2+y,z
x,1/2-y,1/2+z
loop_
_atom_site_type_symbol
_atom_site_label
_atom_site_fract_x
_atom_site_fract_y
_atom_site_fract_z
Si Si1 0.957177 0.566899 0.249809
Si Si2 0.946076 0.759475 0.433227
Si Si3 0.328204 0.550079 0.636688
Si Si4 0.082672 0.839177 0.565923
Si Si5 0.592933 0.046383 0.599342
Si Si6 0.649230 0.903300 0.362544
O O1 0.933023 0.688204 0.307893
O O2 0.885122 0.480426 0.249948
O O3 0.012538 0.593455 0.135552
O O4 0.013963 0.508730 0.350613
O O5 0.887027 0.863692 0.430546
O O6 0.925581 0.671705 0.543744
O O7 0.035673 0.798155 0.444625
O O8 0.345649 0.426992 0.571660
O O9 0.352890 0.544628 0.780697
O O10 0.241452 0.595514 0.635263
O O11 0.111440 0.722993 0.633125
O O12 0.626318 0.969417 0.489141
#
# Coordination Sequence:
#
# PCOD9460036 Si02
#       6
#     8   8   8   8   8   8
#     4  10  21  40  70  89 125 179 224 258 328 405
#     4  11  20  42  68  92 131 171 223 267 318 401
#     4  11  27  40  65 106 133 166 227 274 334 400
#     4  11  23  42  68  98 128 172 229 273 318 406
#     4  10  21  46  66  90 131 182 214 266 341 389
#     4  11  23  45  65  94 140 175 213 280 347 379
#
# _framework density 22.115949000000001
#
# number of rings (size 3 to 8) (size 9 to 14) (size 15 to 20)
#    0.000    1.333    3.333    2.500    7.000    1.333 
#    9.000    0.000    0.000    0.000    0.000    0.000 
#    0.000    0.000    0.000    0.000    0.000    0.000 
#
# Total GULP energy -268233.605865 kJ/mol
# GULP energy per Si atom -5588.200122 kJ/mol
# Density = 2.206561 g / cm^3
# Si number density = 22.115949 Si / 1000 Ang^3
#
#
#
# Elastic Constant Matrix: (Units=GPa)
#
#
# Indices 1 2 3 4 5 6 
#
# 1 122.3550 30.5595 7.0109 0.0000 0.0000 0.0000
# 2 30.5595 126.1371 14.5103 0.0000 0.0000 0.0000
# 3 7.0109 14.5103 42.8581 0.0000 0.0000 0.0000
# 4 0.0000 0.0000 0.0000 24.4694 0.0000 0.0000
# 5 0.0000 0.0000 0.0000 0.0000 18.7586 0.0000
# 6 0.0000 0.0000 0.0000 0.0000 0.0000 27.6017
#
#
#
# Elastic Compliance Matrix: (Units=1/GPa)
#
#
# Indices 1 2 3 4 5 6 
#
# 1 0.008722 -0.002028 -0.000740 0.000000 0.000000 0.000000
# 2 -0.002028 0.008721 -0.002621 0.000000 0.000000 0.000000
# 3 -0.000740 -0.002621 0.024341 0.000000 0.000000 0.000000
# 4 0.000000 0.000000 0.000000 0.040867 0.000000 0.000000
# 5 0.000000 0.000000 0.000000 0.000000 0.053309 0.000000
# 6 0.000000 0.000000 0.000000 0.000000 0.000000 0.036230
#
#
# Mechanical properties :
#
#
# Convention : Reuss Voigt Hill
#
# Bulk Modulus (GPa) = 32.25184 43.94574 38.09879
# Shear Modulus (GPa) = 25.86617 30.11724 27.99170
#
# Velocity S-wave (km/s) = 3.42361 3.69424 3.56150
# Velocity P-wave (km/s) = 5.49935 6.17336 5.84608
#
# Compressibility (1/GPa) = 0.03100598
#
# Stress axis : x y z
#
# Youngs Moduli (GPa) = 114.65460 114.67002 41.08256
#
# Poissons Ratio (x) = 0.23254 0.03041
# Poissons Ratio (y) = 0.23251 0.10767
# Poissons Ratio (z) = 0.08486 0.30053
#
# Static dielectric constant tensor:
#      x y z
#    x 1.796920 0.000000 0.000000 
#    y 0.000000 1.853370 0.000000 
#    z 0.000000 0.000000 1.880740 
# 
# From -- ./inp_files/5225.got.cif
#   From: 2010.05.17/outbox.cif.g08.bks.cpg/sg61_3_cif.got.tgz:5225.got - 2010.06.03 15:17:17.
