data_PCOD9460118
_publ_section_title
;
Structure prediction by ZEFSAII (Michael W. Deem and Ramdas Pophale) SiO2 
 PCOD9460118
Probable space group: P B C A
;
_chemical_formula_sum "Si O2"
_cell_formula_units_Z 64
_cell_length_a 22.330249
_cell_length_b 14.314302
_cell_length_c 8.356774
_cell_angle_alpha 90.000000
_cell_angle_beta 90.000000
_cell_angle_gamma 90.000000
_cell_volume 2671.175353
_symmetry_space_group_name_H-M "P B C A"
_symmetry_group_IT_number 61
_symmetry_cell_setting 'orthorhombic'
loop_
_space_group_symop_operation_xyz
x,y,z
1/2-x,-y,1/2+z
1/2+x,1/2-y,-z
-x,1/2+y,1/2-z
-x,-y,-z
1/2+x,y,1/2-z
1/2-x,1/2+y,z
x,1/2-y,1/2+z
loop_
_atom_site_type_symbol
_atom_site_label
_atom_site_fract_x
_atom_site_fract_y
_atom_site_fract_z
Si Si1 0.140012 0.774019 0.401713
Si Si2 0.867757 0.974693 0.232026
Si Si3 0.406948 0.577323 0.418362
Si Si4 0.045685 0.892456 0.922736
Si Si5 0.447496 0.735828 0.598689
Si Si6 0.040503 0.593964 0.770186
Si Si7 0.344189 0.632194 0.101351
Si Si8 0.791865 0.354719 0.807653
O O1 0.097456 0.686446 0.439533
O O2 0.098578 0.840622 0.295764
O O3 0.159822 0.831369 0.555326
O O4 0.197883 0.729459 0.317167
O O5 0.873121 0.932727 0.410816
O O6 0.927976 0.036881 0.206574
O O7 0.812048 0.046992 0.232394
O O8 0.860753 0.910460 0.073409
O O9 0.443054 0.675015 0.434690
O O10 0.450391 0.490280 0.391012
O O11 0.365195 0.576457 0.261197
O O12 0.986904 0.829796 0.902372
O O13 0.041165 0.943832 0.091551
O O14 0.483054 0.660696 0.706643
O O15 0.380291 0.771212 0.622791
O O16 0.273491 0.643040 0.118698
#
# Coordination Sequence:
#
# PCOD9460118 Si02
#       8
#     8   8   8   8   8   8   8   8
#     4  10  21  42  73 109 139 192 255 302 362 428
#     4  11  27  49  76 109 144 196 257 298 369 441
#     4  12  27  49  73 110 147 196 247 302 373 448
#     4  10  22  46  75 104 147 189 248 312 360 446
#     4  11  28  45  74 112 150 197 244 303 388 443
#     4  11  21  45  79 104 148 195 246 310 362 448
#     4  12  30  51  72 108 157 199 239 316 380 439
#     4  11  25  45  76 109 148 196 250 309 365 444
#
# _framework density 23.959491
#
# number of rings (size 3 to 8) (size 9 to 14) (size 15 to 20)
#    0.000    1.000    3.750    1.125    7.000    2.500 
#    0.000    0.000    0.000    0.000    0.000    0.000 
#    0.000    0.000    0.000    0.000    0.000    0.000 
#
# Total GULP energy -357908.818614 kJ/mol
# GULP energy per Si atom -5592.325291 kJ/mol
# Density = 2.390496 g / cm^3
# Si number density = 23.959491 Si / 1000 Ang^3
#
#
#
# Elastic Constant Matrix: (Units=GPa)
#
#
# Indices 1 2 3 4 5 6 
#
# 1 91.5654 39.4697 17.7549 0.0000 0.0000 0.0000
# 2 39.4697 107.5170 34.2185 0.0000 0.0000 0.0000
# 3 17.7549 34.2185 143.9986 0.0000 0.0000 0.0000
# 4 0.0000 0.0000 0.0000 35.3668 0.0000 0.0000
# 5 0.0000 0.0000 0.0000 0.0000 36.2747 0.0000
# 6 0.0000 0.0000 0.0000 0.0000 0.0000 24.7440
#
#
#
# Elastic Compliance Matrix: (Units=1/GPa)
#
#
# Indices 1 2 3 4 5 6 
#
# 1 0.013008 -0.004614 -0.000508 0.000000 0.000000 0.000000
# 2 -0.004614 0.011698 -0.002211 0.000000 0.000000 0.000000
# 3 -0.000508 -0.002211 0.007532 0.000000 0.000000 0.000000
# 4 0.000000 0.000000 0.000000 0.028275 0.000000 0.000000
# 5 0.000000 0.000000 0.000000 0.000000 0.027567 0.000000
# 6 0.000000 0.000000 0.000000 0.000000 0.000000 0.040414
#
#
# Mechanical properties :
#
#
# Convention : Reuss Voigt Hill
#
# Bulk Modulus (GPa) = 56.90095 58.44078 57.67086
# Shear Modulus (GPa) = 33.55288 36.05295 34.80292
#
# Velocity S-wave (km/s) = 3.74625 3.88331 3.81540
# Velocity P-wave (km/s) = 6.52019 6.67467 6.59789
#
# Compressibility (1/GPa) = 0.01757440
#
# Stress axis : x y z
#
# Youngs Moduli (GPa) = 76.87343 85.48257 132.75831
#
# Poissons Ratio (x) = 0.39441 0.06738
# Poissons Ratio (y) = 0.35468 0.29353
# Poissons Ratio (z) = 0.03901 0.18900
#
# Static dielectric constant tensor:
#      x y z
#    x 1.889980 0.000000 0.000000 
#    y 0.000000 1.947130 0.000000 
#    z 0.000000 0.000000 1.975740 
# 
# From -- ./inp_files/4321.got.cif
#   From: 2010.05.17/outbox.cif.g08.bks.cpg/sg61_3_cif.got.tgz:4321.got - 2010.06.03 15:17:17.
