data_PCOD9460378
_publ_section_title
;
Structure prediction by ZEFSAII (Michael W. Deem and Ramdas Pophale) SiO2 
 PCOD9460378
Probable space group: P B C A
;
_chemical_formula_sum "Si O2"
_cell_formula_units_Z 40
_cell_length_a 13.695767
_cell_length_b 9.621738
_cell_length_c 13.809399
_cell_angle_alpha 90.000000
_cell_angle_beta 90.000000
_cell_angle_gamma 90.000000
_cell_volume 1819.762301
_symmetry_space_group_name_H-M "P B C A"
_symmetry_group_IT_number 61
_symmetry_cell_setting 'orthorhombic'
loop_
_space_group_symop_operation_xyz
x,y,z
1/2-x,-y,1/2+z
1/2+x,1/2-y,-z
-x,1/2+y,1/2-z
-x,-y,-z
1/2+x,y,1/2-z
1/2-x,1/2+y,z
x,1/2-y,1/2+z
loop_
_atom_site_type_symbol
_atom_site_label
_atom_site_fract_x
_atom_site_fract_y
_atom_site_fract_z
Si Si1 0.478437 0.279734 0.153094
Si Si2 0.079002 0.000600 0.304303
Si Si3 0.944717 0.254277 0.063176
Si Si4 0.245304 0.599798 0.427855
Si Si5 0.132499 0.152461 0.992729
O O1 0.423080 0.393096 0.215917
O O2 0.577528 0.351135 0.111598
O O3 0.513513 0.138930 0.205557
O O4 0.426030 0.238217 0.052620
O O5 0.037877 0.904267 0.391771
O O6 0.186187 0.045376 0.341400
O O7 0.849155 0.184770 0.108033
O O8 0.042806 0.160998 0.067068
O O9 0.310623 0.703459 0.491273
O O10 0.204470 0.475358 0.493305
#
# Coordination Sequence:
#
# PCOD9460378 Si02
#       5
#     8   8   8   8   8
#     4   9  24  39  64  99 130 184 235 279 357 405
#     4  11  22  42  69  98 139 187 230 298 341 408
#     4  10  22  42  68  96 140 185 230 285 353 408
#     4  11  20  39  68  96 132 178 234 283 348 412
#     4   9  22  37  65  98 131 183 226 291 341 411
#
# _framework density 21.980892000000001
#
# number of rings (size 3 to 8) (size 9 to 14) (size 15 to 20)
#    1.200    0.800    2.000    1.200    2.800    0.000 
#    0.000    4.000    0.000    0.000    0.000    0.000 
#    0.000    0.000    0.000    0.000    0.000    0.000 
#
# Total GULP energy -223055.797368 kJ/mol
# GULP energy per Si atom -5576.394934 kJ/mol
# Density = 2.193086 g / cm^3
# Si number density = 21.980892 Si / 1000 Ang^3
#
#
#
# Elastic Constant Matrix: (Units=GPa)
#
#
# Indices 1 2 3 4 5 6 
#
# 1 107.4450 45.6792 12.4204 0.0000 0.0000 0.0000
# 2 45.6792 118.7897 30.1040 0.0000 0.0000 0.0000
# 3 12.4204 30.1040 64.7161 0.0000 0.0000 0.0000
# 4 0.0000 0.0000 0.0000 26.8353 0.0000 0.0000
# 5 0.0000 0.0000 0.0000 0.0000 9.2091 0.0000
# 6 0.0000 0.0000 0.0000 0.0000 0.0000 40.5719
#
#
#
# Elastic Compliance Matrix: (Units=1/GPa)
#
#
# Indices 1 2 3 4 5 6 
#
# 1 0.011128 -0.004237 -0.000165 0.000000 0.000000 0.000000
# 2 -0.004237 0.011157 -0.004377 0.000000 0.000000 0.000000
# 3 -0.000165 -0.004377 0.017520 0.000000 0.000000 0.000000
# 4 0.000000 0.000000 0.000000 0.037264 0.000000 0.000000
# 5 0.000000 0.000000 0.000000 0.000000 0.108589 0.000000
# 6 0.000000 0.000000 0.000000 0.000000 0.000000 0.024648
#
#
# Mechanical properties :
#
#
# Convention : Reuss Voigt Hill
#
# Bulk Modulus (GPa) = 44.94979 51.92867 48.43923
# Shear Modulus (GPa) = 21.25154 28.83972 25.04563
#
# Velocity S-wave (km/s) = 3.11274 3.62613 3.37920
# Velocity P-wave (km/s) = 5.78038 6.41931 6.10820
#
# Compressibility (1/GPa) = 0.02224705
#
# Stress axis : x y z
#
# Youngs Moduli (GPa) = 89.86707 89.63184 57.07908
#
# Poissons Ratio (x) = 0.37979 0.00939
# Poissons Ratio (y) = 0.38079 0.24981
# Poissons Ratio (z) = 0.01479 0.39228
#
# Static dielectric constant tensor:
#      x y z
#    x 1.808510 0.000000 0.000000 
#    y 0.000000 1.831950 0.000000 
#    z 0.000000 0.000000 1.839710 
# 
# From -- ./inp_files/9394.got.cif
#   From: 2010.05.17/outbox.cif.g08.bks.cpg/sg61_5_cif.got.tgz:9394.got - 2010.06.03 15:17:17.
