data_PCOD9460045
_publ_section_title
;
Structure prediction by ZEFSAII (Michael W. Deem and Ramdas Pophale) SiO2 
 PCOD9460045
Probable space group: P B C A
;
_chemical_formula_sum "Si O2"
_cell_formula_units_Z 60
_cell_length_a 9.393750
_cell_length_b 9.370628
_cell_length_c 24.438974
_cell_angle_alpha 90.000000
_cell_angle_beta 90.000000
_cell_angle_gamma 90.000000
_cell_volume 2151.248917
_symmetry_space_group_name_H-M "P B C A"
_symmetry_group_IT_number 61
_symmetry_cell_setting 'orthorhombic'
loop_
_space_group_symop_operation_xyz
x,y,z
1/2-x,-y,1/2+z
1/2+x,1/2-y,-z
-x,1/2+y,1/2-z
-x,-y,-z
1/2+x,y,1/2-z
1/2-x,1/2+y,z
x,1/2-y,1/2+z
loop_
_atom_site_type_symbol
_atom_site_label
_atom_site_fract_x
_atom_site_fract_y
_atom_site_fract_z
Si Si1 0.339657 0.468043 0.036966
Si Si2 0.748250 0.478401 0.580245
Si Si3 0.927707 0.783902 0.439324
Si Si4 0.072934 0.676777 0.641554
Si Si5 0.500000 0.500000 0.500000
Si Si6 0.244274 0.922359 0.694043
Si Si7 0.336034 0.830559 0.266263
Si Si8 0.643707 0.770036 0.145759
O O1 0.172407 0.422050 0.046811
O O2 0.356869 0.634757 0.049462
O O3 0.428765 0.370004 0.078224
O O4 0.352442 0.455972 0.971463
O O5 0.593313 0.441502 0.556250
O O6 0.804965 0.387547 0.631311
O O7 0.736425 0.635119 0.604084
O O8 0.985669 0.786753 0.378051
O O9 0.046194 0.834712 0.482449
O O10 0.155837 0.824252 0.652371
O O11 0.163843 0.542269 0.664353
O O12 0.941295 0.685261 0.682906
O O13 0.337907 0.808953 0.728249
O O14 0.149882 0.020078 0.734984
O O15 0.177346 0.821254 0.293780
#
# Coordination Sequence:
#
# PCOD9460045 Si02
#       8
#     8   8   8   8   4   8   8   8
#     4  11  23  44  69 102 143 192 236 298 350 431
#     4  10  21  41  63  99 137 188 233 280 353 407
#     4  10  23  43  66  99 141 188 242 296 352 416
#     4  11  24  46  71 107 138 180 237 293 365 439
#     4   8  18  40  62  88 134 182 232 286 328 408
#     4  10  24  47  72 104 138 179 230 299 368 433
#     4  11  24  46  72 105 136 185 230 299 362 432
#     4  11  24  43  67 102 141 186 239 294 353 429
#
# _framework density 27.890775000000001
#
# number of rings (size 3 to 8) (size 9 to 14) (size 15 to 20)
#    0.000    1.600    0.000    4.000    3.733    0.533 
#   36.000    0.000    0.000    0.000    0.000    0.000 
#    0.000    0.000    0.000    0.000    0.000    0.000 
#
# Total GULP energy -335315.946397 kJ/mol
# GULP energy per Si atom -5588.599107 kJ/mol
# Density = 2.782729 g / cm^3
# Si number density = 27.890775 Si / 1000 Ang^3
#
#
#
# Elastic Constant Matrix: (Units=GPa)
#
#
# Indices 1 2 3 4 5 6 
#
# 1 62.7919 29.7519 32.0539 0.0000 0.0000 0.0000
# 2 29.7519 171.6724 36.5692 0.0000 0.0000 0.0000
# 3 32.0539 36.5692 106.7477 0.0000 0.0000 0.0000
# 4 0.0000 0.0000 0.0000 43.2621 0.0000 0.0000
# 5 0.0000 0.0000 0.0000 0.0000 38.4990 0.0000
# 6 0.0000 0.0000 0.0000 0.0000 0.0000 46.5905
#
#
#
# Elastic Compliance Matrix: (Units=1/GPa)
#
#
# Indices 1 2 3 4 5 6 
#
# 1 0.019626 -0.002315 -0.005100 0.000000 0.000000 0.000000
# 2 -0.002315 0.006557 -0.001551 0.000000 0.000000 0.000000
# 3 -0.005100 -0.001551 0.011431 0.000000 0.000000 0.000000
# 4 0.000000 0.000000 0.000000 0.023115 0.000000 0.000000
# 5 0.000000 0.000000 0.000000 0.000000 0.025975 0.000000
# 6 0.000000 0.000000 0.000000 0.000000 0.000000 0.021464
#
#
# Mechanical properties :
#
#
# Convention : Reuss Voigt Hill
#
# Bulk Modulus (GPa) = 50.81022 59.77355 55.29188
# Shear Modulus (GPa) = 37.69056 41.85945 39.77500
#
# Velocity S-wave (km/s) = 3.68008 3.87826 3.78047
# Velocity P-wave (km/s) = 6.02614 6.44456 6.23886
#
# Compressibility (1/GPa) = 0.01968108
#
# Stress axis : x y z
#
# Youngs Moduli (GPa) = 50.95278 152.51736 87.48363
#
# Poissons Ratio (x) = 0.35306 0.44619
# Poissons Ratio (y) = 0.11795 0.13569
# Poissons Ratio (z) = 0.25987 0.23656
#
# Static dielectric constant tensor:
#      x y z
#    x 1.677650 0.000000 0.000000 
#    y 0.000000 1.997300 0.000000 
#    z 0.000000 0.000000 1.845370 
# 
# From -- ./inp_files/11453.got.cif
#   From: 2010.05.17/outbox.cif.g08.bks.cpg/sg61_6_cif.got.tgz:11453.got - 2010.06.03 15:17:17.
