data_PCOD9460194
_publ_section_title
;
Structure prediction by ZEFSAII (Michael W. Deem and Ramdas Pophale) SiO2 
 PCOD9460194
Probable space group: P B C A
;
_chemical_formula_sum "Si O2"
_cell_formula_units_Z 64
_cell_length_a 10.628699
_cell_length_b 32.293651
_cell_length_c 8.815456
_cell_angle_alpha 90.000000
_cell_angle_beta 90.000000
_cell_angle_gamma 90.000000
_cell_volume 3025.812675
_symmetry_space_group_name_H-M "P B C A"
_symmetry_group_IT_number 61
_symmetry_cell_setting 'orthorhombic'
loop_
_space_group_symop_operation_xyz
x,y,z
1/2-x,-y,1/2+z
1/2+x,1/2-y,-z
-x,1/2+y,1/2-z
-x,-y,-z
1/2+x,y,1/2-z
1/2-x,1/2+y,z
x,1/2-y,1/2+z
loop_
_atom_site_type_symbol
_atom_site_label
_atom_site_fract_x
_atom_site_fract_y
_atom_site_fract_z
Si Si1 0.494135 0.049661 0.803617
Si Si2 0.244733 0.178231 0.211217
Si Si3 0.246346 0.182772 0.576743
Si Si4 0.561032 0.544735 0.337992
Si Si5 0.414896 0.240130 0.063190
Si Si6 0.194088 0.413681 0.773184
Si Si7 0.568778 0.245866 0.809315
Si Si8 0.757153 0.090235 0.865283
O O1 0.625839 0.074909 0.789776
O O2 0.379122 0.066084 0.699556
O O3 0.527379 0.001362 0.782518
O O4 0.452929 0.050700 0.980838
O O5 0.250606 0.179290 0.394595
O O6 0.367783 0.196189 0.125575
O O7 0.213935 0.130216 0.188410
O O8 0.143304 0.211973 0.154212
O O9 0.332391 0.221593 0.615477
O O10 0.116804 0.201151 0.640036
O O11 0.277769 0.139432 0.653341
O O12 0.452251 0.573714 0.265657
O O13 0.703833 0.555361 0.296940
O O14 0.552425 0.249842 0.130078
O O15 0.431794 0.246460 0.885836
O O16 0.232223 0.413837 0.952761
#
# Coordination Sequence:
#
# PCOD9460194 Si02
#       8
#     8   8   8   8   8   8   8   8
#     4  10  22  42  63  94 128 166 202 268 324 385
#     4  10  22  38  57  87 118 155 207 254 307 361
#     4  10  22  38  55  87 117 156 206 254 309 362
#     4  10  22  41  65  93 127 162 214 257 326 391
#     4  11  22  37  60  81 116 162 202 252 303 366
#     4  10  23  40  65  93 123 167 210 263 314 388
#     4  11  22  38  60  81 118 162 202 253 304 366
#     4  10  23  40  63  90 131 163 210 263 320 379
#
# _framework density 21.151342
#
# number of rings (size 3 to 8) (size 9 to 14) (size 15 to 20)
#    0.000    1.750    2.500    0.750    3.500    2.500 
#    2.250    0.000    0.000    0.000    0.000    0.000 
#    0.000    0.000    0.000    0.000    0.000    0.000 
#
# Total GULP energy -356367.445820 kJ/mol
# GULP energy per Si atom -5568.241341 kJ/mol
# Density = 2.110320 g / cm^3
# Si number density = 21.151342 Si / 1000 Ang^3
#
#
#
# Elastic Constant Matrix: (Units=GPa)
#
#
# Indices 1 2 3 4 5 6 
#
# 1 31.8755 -1.5248 9.4162 0.0000 0.0000 0.0000
# 2 -1.5248 91.9573 18.6386 0.0000 0.0000 0.0000
# 3 9.4162 18.6386 37.9124 0.0000 0.0000 0.0000
# 4 0.0000 0.0000 0.0000 28.2995 0.0000 0.0000
# 5 0.0000 0.0000 0.0000 0.0000 25.5450 0.0000
# 6 0.0000 0.0000 0.0000 0.0000 0.0000 16.3329
#
#
#
# Elastic Compliance Matrix: (Units=1/GPa)
#
#
# Indices 1 2 3 4 5 6 
#
# 1 0.034389 0.002556 -0.009798 0.000000 0.000000 0.000000
# 2 0.002556 0.012268 -0.006666 0.000000 0.000000 0.000000
# 3 -0.009798 -0.006666 0.032087 0.000000 0.000000 0.000000
# 4 0.000000 0.000000 0.000000 0.035336 0.000000 0.000000
# 5 0.000000 0.000000 0.000000 0.000000 0.039147 0.000000
# 6 0.000000 0.000000 0.000000 0.000000 0.000000 0.061226
#
#
# Mechanical properties :
#
#
# Convention : Reuss Voigt Hill
#
# Bulk Modulus (GPa) = 19.63534 23.86725 21.75130
# Shear Modulus (GPa) = 19.28677 23.04980 21.16829
#
# Velocity S-wave (km/s) = 3.02295 3.30473 3.16698
# Velocity P-wave (km/s) = 4.63549 5.08627 4.86610
#
# Compressibility (1/GPa) = 0.05092857
#
# Stress axis : x y z
#
# Youngs Moduli (GPa) = 29.07933 81.51185 31.16502
#
# Poissons Ratio (x) = -0.20835 0.30535
# Poissons Ratio (y) = -0.07433 0.20775
# Poissons Ratio (z) = 0.28491 0.54337
#
# Static dielectric constant tensor:
#      x y z
#    x 1.949580 0.000000 0.000000 
#    y 0.000000 1.742920 0.000000 
#    z 0.000000 0.000000 1.733350 
# 
# From -- ./inp_files/2455.got.cif
#   From: 2010.05.17/outbox.cif.g08.bks.cpg/sg61_2_cif.got.tgz:2455.got - 2010.06.03 15:17:17.
