data_PCOD9460918
_publ_section_title
;
Structure prediction by ZEFSAII (Michael W. Deem and Ramdas Pophale) SiO2 
 PCOD9460918
Probable space group: P B C A
;
_chemical_formula_sum "Si O2"
_cell_formula_units_Z 40
_cell_length_a 7.758085
_cell_length_b 14.200931
_cell_length_c 13.166297
_cell_angle_alpha 90.000000
_cell_angle_beta 90.000000
_cell_angle_gamma 90.000000
_cell_volume 1450.557665
_symmetry_space_group_name_H-M "P B C A"
_symmetry_group_IT_number 61
_symmetry_cell_setting 'orthorhombic'
loop_
_space_group_symop_operation_xyz
x,y,z
1/2-x,-y,1/2+z
1/2+x,1/2-y,-z
-x,1/2+y,1/2-z
-x,-y,-z
1/2+x,y,1/2-z
1/2-x,1/2+y,z
x,1/2-y,1/2+z
loop_
_atom_site_type_symbol
_atom_site_label
_atom_site_fract_x
_atom_site_fract_y
_atom_site_fract_z
Si Si1 0.028348 0.182967 0.800631
Si Si2 0.130869 0.371653 0.672969
Si Si3 0.114022 0.613043 0.891833
Si Si4 0.723647 0.211344 0.959045
Si Si5 0.702728 0.567659 0.124902
O O1 0.993610 0.107183 0.713318
O O2 0.865438 0.179887 0.875409
O O3 0.045866 0.283253 0.738792
O O4 0.206420 0.161699 0.857256
O O5 0.211513 0.320381 0.575044
O O6 0.247781 0.418575 0.757635
O O7 0.000312 0.448190 0.628448
O O8 0.175500 0.510105 0.924686
O O9 0.973564 0.671995 0.954528
O O10 0.783073 0.164252 0.062915
#
# Coordination Sequence:
#
# PCOD9460918 Si02
#       5
#     8   8   8   8   8
#     4  11  21  45  71  92 140 194 217 268 362 406
#     4  11  23  45  67  97 141 180 222 285 344 407
#     4  11  22  44  71  99 140 180 229 284 338 408
#     4  11  25  45  71  98 141 185 225 282 352 410
#     4  12  26  43  70 108 133 175 239 292 333 405
#
# _framework density 27.575600999999999
#
# number of rings (size 3 to 8) (size 9 to 14) (size 15 to 20)
#    0.000    0.800    6.000    3.000    2.800    0.800 
#    3.600    0.000    0.000    0.000    0.000    0.000 
#    0.000    0.000    0.000    0.000    0.000    0.000 
#
# Total GULP energy -223722.429852 kJ/mol
# GULP energy per Si atom -5593.060746 kJ/mol
# Density = 2.751284 g / cm^3
# Si number density = 27.575601 Si / 1000 Ang^3
#
#
#
# Elastic Constant Matrix: (Units=GPa)
#
#
# Indices 1 2 3 4 5 6 
#
# 1 130.0084 0.4000 0.1990 0.0000 0.0000 0.0000
# 2 0.4000 77.6691 -11.7647 0.0000 0.0000 0.0000
# 3 0.1990 -11.7647 60.2826 0.0000 0.0000 0.0000
# 4 0.0000 0.0000 0.0000 31.6959 0.0000 0.0000
# 5 0.0000 0.0000 0.0000 0.0000 52.4265 0.0000
# 6 0.0000 0.0000 0.0000 0.0000 0.0000 45.5963
#
#
#
# Elastic Compliance Matrix: (Units=1/GPa)
#
#
# Indices 1 2 3 4 5 6 
#
# 1 0.007692 -0.000045 -0.000034 0.000000 0.000000 0.000000
# 2 -0.000045 0.013268 0.002589 0.000000 0.000000 0.000000
# 3 -0.000034 0.002589 0.017094 0.000000 0.000000 0.000000
# 4 0.000000 0.000000 0.000000 0.031550 0.000000 0.000000
# 5 0.000000 0.000000 0.000000 0.000000 0.019074 0.000000
# 6 0.000000 0.000000 0.000000 0.000000 0.000000 0.021932
#
#
# Mechanical properties :
#
#
# Convention : Reuss Voigt Hill
#
# Bulk Modulus (GPa) = 23.21551 27.29207 25.25379
# Shear Modulus (GPa) = 41.68524 44.55212 43.11868
#
# Velocity S-wave (km/s) = 3.89224 4.02386 3.95860
# Velocity P-wave (km/s) = 5.35131 5.61313 5.48378
#
# Compressibility (1/GPa) = 0.04307466
#
# Stress axis : x y z
#
# Youngs Moduli (GPa) = 130.00517 75.37159 58.50003
#
# Poissons Ratio (x) = 0.00338 0.00200
# Poissons Ratio (y) = 0.00582 -0.15148
# Poissons Ratio (z) = 0.00444 -0.19517
#
# Static dielectric constant tensor:
#      x y z
#    x 2.108490 0.000000 0.000000 
#    y 0.000000 2.184610 0.000000 
#    z 0.000000 0.000000 2.149090 
# 
# From -- ./inp_files/2661.got.cif
#   From: 2010.05.17/outbox.cif.g08.bks.cpg/sg61_2_cif.got.tgz:2661.got - 2010.06.03 15:17:17.
