data_PCOD9460512
_publ_section_title
;
Structure prediction by ZEFSAII (Michael W. Deem and Ramdas Pophale) SiO2 
 PCOD9460512
Probable space group: P B C A
;
_chemical_formula_sum "Si O2"
_cell_formula_units_Z 56
_cell_length_a 14.802204
_cell_length_b 10.036704
_cell_length_c 19.080567
_cell_angle_alpha 90.000000
_cell_angle_beta 90.000000
_cell_angle_gamma 90.000000
_cell_volume 2834.710926
_symmetry_space_group_name_H-M "P B C A"
_symmetry_group_IT_number 61
_symmetry_cell_setting 'orthorhombic'
loop_
_space_group_symop_operation_xyz
x,y,z
1/2-x,-y,1/2+z
1/2+x,1/2-y,-z
-x,1/2+y,1/2-z
-x,-y,-z
1/2+x,y,1/2-z
1/2-x,1/2+y,z
x,1/2-y,1/2+z
loop_
_atom_site_type_symbol
_atom_site_label
_atom_site_fract_x
_atom_site_fract_y
_atom_site_fract_z
Si Si1 0.202199 0.204174 0.974029
Si Si2 0.900571 0.049200 0.355168
Si Si3 0.738565 0.927781 0.160528
Si Si4 0.767055 0.452787 0.437230
Si Si5 0.094361 0.144389 0.373842
Si Si6 0.131718 0.848704 0.199331
Si Si7 0.076222 0.112621 0.779504
O O1 0.260792 0.172967 0.904635
O O2 0.110400 0.262304 0.940816
O O3 0.248298 0.316590 0.021335
O O4 0.188187 0.067042 0.015469
O O5 0.876184 0.190700 0.318085
O O6 0.002097 0.065719 0.381977
O O7 0.828622 0.015219 0.414009
O O8 0.901691 0.929865 0.299042
O O9 0.691078 0.872395 0.230885
O O10 0.844042 0.959535 0.176361
O O11 0.680103 0.051339 0.135346
O O12 0.821627 0.419196 0.366836
O O13 0.089106 0.235025 0.303942
O O14 0.030520 0.909234 0.208261
#
# Coordination Sequence:
#
# PCOD9460512 Si02
#       7
#     8   8   8   8   8   8   8
#     4  11  25  44  67 100 139 185 229 273 355 415
#     4  11  23  41  68 102 138 176 233 287 346 406
#     4  11  22  42  70  94 139 178 225 282 346 412
#     4  12  24  45  70 100 139 183 229 291 338 413
#     4  10  23  43  66  98 138 185 226 280 347 426
#     4  11  24  42  68 101 134 175 233 291 337 404
#     4  10  23  39  66 102 130 173 229 286 338 409
#
# _framework density 19.755101
#
# number of rings (size 3 to 8) (size 9 to 14) (size 15 to 20)
#    0.000    1.143    5.714    0.000    4.000    1.714 
#    0.000    7.857    0.000    0.000    0.000    0.000 
#    0.000    0.000    0.000    0.000    0.000    0.000 
#
# Total GULP energy -312487.075344 kJ/mol
# GULP energy per Si atom -5580.126345 kJ/mol
# Density = 1.971014 g / cm^3
# Si number density = 19.755101 Si / 1000 Ang^3
#
#
#
# Elastic Constant Matrix: (Units=GPa)
#
#
# Indices 1 2 3 4 5 6 
#
# 1 96.5180 16.2531 29.2377 0.0000 0.0000 0.0000
# 2 16.2531 55.7180 27.4661 0.0000 0.0000 0.0000
# 3 29.2377 27.4661 97.6103 0.0000 0.0000 0.0000
# 4 0.0000 0.0000 0.0000 32.2041 0.0000 0.0000
# 5 0.0000 0.0000 0.0000 0.0000 20.6241 0.0000
# 6 0.0000 0.0000 0.0000 0.0000 0.0000 27.7999
#
#
#
# Elastic Compliance Matrix: (Units=1/GPa)
#
#
# Indices 1 2 3 4 5 6 
#
# 1 0.011572 -0.001935 -0.002922 0.000000 0.000000 0.000000
# 2 -0.001935 0.021162 -0.005375 0.000000 0.000000 0.000000
# 3 -0.002922 -0.005375 0.012632 0.000000 0.000000 0.000000
# 4 0.000000 0.000000 0.000000 0.031052 0.000000 0.000000
# 5 0.000000 0.000000 0.000000 0.000000 0.048487 0.000000
# 6 0.000000 0.000000 0.000000 0.000000 0.000000 0.035971
#
#
# Mechanical properties :
#
#
# Convention : Reuss Voigt Hill
#
# Bulk Modulus (GPa) = 40.15722 43.97336 42.06529
# Shear Modulus (GPa) = 26.36574 27.91824 27.14199
#
# Velocity S-wave (km/s) = 3.65722 3.76336 3.71067
# Velocity P-wave (km/s) = 6.18105 6.41805 6.30066
#
# Compressibility (1/GPa) = 0.02490212
#
# Stress axis : x y z
#
# Youngs Moduli (GPa) = 86.41798 47.25538 79.16190
#
# Poissons Ratio (x) = 0.09145 0.23128
# Poissons Ratio (y) = 0.16725 0.42549
# Poissons Ratio (z) = 0.25247 0.25399
#
# Static dielectric constant tensor:
#      x y z
#    x 1.697910 0.000000 0.000000 
#    y 0.000000 1.707920 0.000000 
#    z 0.000000 0.000000 1.694570 
# 
# From -- ./inp_files/10452.got.cif
#   From: 2010.05.17/outbox.cif.g08.bks.cpg/sg61_6_cif.got.tgz:10452.got - 2010.06.03 15:17:17.
