data_PCOD9460627
_publ_section_title
;
Structure prediction by ZEFSAII (Michael W. Deem and Ramdas Pophale) SiO2 
 PCOD9460627
Probable space group: P B C A
;
_chemical_formula_sum "Si O2"
_cell_formula_units_Z 56
_cell_length_a 8.801948
_cell_length_b 22.462792
_cell_length_c 13.757841
_cell_angle_alpha 90.000000
_cell_angle_beta 90.000000
_cell_angle_gamma 90.000000
_cell_volume 2720.149792
_symmetry_space_group_name_H-M "P B C A"
_symmetry_group_IT_number 61
_symmetry_cell_setting 'orthorhombic'
loop_
_space_group_symop_operation_xyz
x,y,z
1/2-x,-y,1/2+z
1/2+x,1/2-y,-z
-x,1/2+y,1/2-z
-x,-y,-z
1/2+x,y,1/2-z
1/2-x,1/2+y,z
x,1/2-y,1/2+z
loop_
_atom_site_type_symbol
_atom_site_label
_atom_site_fract_x
_atom_site_fract_y
_atom_site_fract_z
Si Si1 0.098739 0.377119 0.435210
Si Si2 0.557960 0.449650 0.376456
Si Si3 0.827378 0.291352 0.186175
Si Si4 0.630681 0.590636 0.789259
Si Si5 0.959729 0.736053 0.477668
Si Si6 0.874320 0.081446 0.442638
Si Si7 0.152221 0.790302 0.633794
O O1 0.196953 0.330609 0.367990
O O2 0.001380 0.333277 0.503998
O O3 0.218716 0.413808 0.497079
O O4 0.989546 0.419009 0.374349
O O5 0.699382 0.417561 0.325668
O O6 0.415099 0.447948 0.303588
O O7 0.507146 0.416646 0.475367
O O8 0.605540 0.517344 0.395217
O O9 0.897179 0.341638 0.256051
O O10 0.805297 0.236702 0.261305
O O11 0.941382 0.268628 0.103799
O O12 0.787711 0.732687 0.437626
O O13 0.999113 0.767290 0.580279
O O14 0.865035 0.138407 0.372168
#
# Coordination Sequence:
#
# PCOD9460627 Si02
#       7
#     8   8   8   8   8   8   8
#     4  11  22  41  64  99 131 171 221 268 329 407
#     4  11  23  43  70  91 128 179 223 277 326 383
#     4  12  22  39  66  99 131 172 216 269 329 398
#     4  12  22  39  71  97 123 167 234 270 321 396
#     4  11  22  39  61  95 137 164 208 268 326 393
#     4  10  23  45  63  91 137 174 215 276 331 391
#     4  11  24  38  66  98 135 172 214 268 336 402
#
# _framework density 20.587102999999999
#
# number of rings (size 3 to 8) (size 9 to 14) (size 15 to 20)
#    0.000    0.857    7.143    0.857    2.000    0.571 
#    5.143    0.000    0.000    0.000    0.000    0.000 
#    0.000    0.000    0.000    0.000    0.000    0.000 
#
# Total GULP energy -312332.259374 kJ/mol
# GULP energy per Si atom -5577.361775 kJ/mol
# Density = 2.054025 g / cm^3
# Si number density = 20.587103 Si / 1000 Ang^3
#
#
#
# Elastic Constant Matrix: (Units=GPa)
#
#
# Indices 1 2 3 4 5 6 
#
# 1 40.5094 15.7577 10.2716 0.0000 0.0000 0.0000
# 2 15.7577 32.6181 26.2030 0.0000 0.0000 0.0000
# 3 10.2716 26.2030 50.4819 0.0000 0.0000 0.0000
# 4 0.0000 0.0000 0.0000 35.1492 0.0000 0.0000
# 5 0.0000 0.0000 0.0000 0.0000 23.5895 0.0000
# 6 0.0000 0.0000 0.0000 0.0000 0.0000 13.9560
#
#
#
# Elastic Compliance Matrix: (Units=1/GPa)
#
#
# Indices 1 2 3 4 5 6 
#
# 1 0.030578 -0.016764 0.002480 0.000000 0.000000 0.000000
# 2 -0.016764 0.061775 -0.028654 0.000000 0.000000 0.000000
# 3 0.002480 -0.028654 0.034177 0.000000 0.000000 0.000000
# 4 0.000000 0.000000 0.000000 0.028450 0.000000 0.000000
# 5 0.000000 0.000000 0.000000 0.000000 0.042392 0.000000
# 6 0.000000 0.000000 0.000000 0.000000 0.000000 0.071654
#
#
# Mechanical properties :
#
#
# Convention : Reuss Voigt Hill
#
# Bulk Modulus (GPa) = 24.59776 25.34156 24.96966
# Shear Modulus (GPa) = 13.57022 19.29743 16.43382
#
# Velocity S-wave (km/s) = 2.57020 3.06495 2.82841
# Velocity P-wave (km/s) = 4.55872 4.98612 4.77720
#
# Compressibility (1/GPa) = 0.04065412
#
# Stress axis : x y z
#
# Youngs Moduli (GPa) = 32.70324 16.18774 29.25906
#
# Poissons Ratio (x) = 0.27138 -0.07256
# Poissons Ratio (y) = 0.54825 0.83838
# Poissons Ratio (z) = -0.08110 0.46384
#
# Static dielectric constant tensor:
#      x y z
#    x 1.766740 0.000000 0.000000 
#    y 0.000000 1.730080 0.000000 
#    z 0.000000 0.000000 1.800580 
# 
# From -- ./inp_files/7162.got.cif
#   From: 2010.05.17/outbox.cif.g08.bks.cpg/sg61_4_cif.got.tgz:7162.got - 2010.06.03 15:17:17.
