data_PCOD9460542
_publ_section_title
;
Structure prediction by ZEFSAII (Michael W. Deem and Ramdas Pophale) SiO2 
 PCOD9460542
Probable space group: P B C A
;
_chemical_formula_sum "Si O2"
_cell_formula_units_Z 56
_cell_length_a 31.258254
_cell_length_b 5.583883
_cell_length_c 13.192848
_cell_angle_alpha 90.000000
_cell_angle_beta 90.000000
_cell_angle_gamma 90.000000
_cell_volume 2302.711790
_symmetry_space_group_name_H-M "P B C A"
_symmetry_group_IT_number 61
_symmetry_cell_setting 'orthorhombic'
loop_
_space_group_symop_operation_xyz
x,y,z
1/2-x,-y,1/2+z
1/2+x,1/2-y,-z
-x,1/2+y,1/2-z
-x,-y,-z
1/2+x,y,1/2-z
1/2-x,1/2+y,z
x,1/2-y,1/2+z
loop_
_atom_site_type_symbol
_atom_site_label
_atom_site_fract_x
_atom_site_fract_y
_atom_site_fract_z
Si Si1 0.923305 0.245529 0.303626
Si Si2 0.228034 0.852266 0.591395
Si Si3 0.641354 0.411805 0.697489
Si Si4 0.505278 0.250544 0.560321
Si Si5 0.631551 0.826869 0.980354
Si Si6 0.259857 0.893046 0.814403
Si Si7 0.588958 0.460730 0.115256
O O1 0.889952 0.460409 0.277559
O O2 0.897420 0.084358 0.386624
O O3 0.969360 0.277231 0.353935
O O4 0.932684 0.143521 0.192315
O O5 0.256442 0.620057 0.562536
O O6 0.179942 0.802265 0.556264
O O7 0.230935 0.869415 0.714101
O O8 0.634641 0.527179 0.585416
O O9 0.691205 0.420080 0.720467
O O10 0.628300 0.139048 0.679742
O O11 0.500000 0.500000 0.500000
O O12 0.554147 0.242716 0.597222
O O13 0.500000 0.000000 0.500000
O O14 0.607192 0.584602 0.015579
O O15 0.253437 0.638358 0.868588
#
# Coordination Sequence:
#
# PCOD9460542 Si02
#       7
#     8   8   8   8   8   8   8
#     4  11  26  47  79 107 154 205 256 320 391 467
#     4  10  23  41  70 103 144 195 252 302 382 450
#     4  11  27  45  74 110 155 200 265 320 387 471
#     4  12  28  52  80 114 157 201 257 320 390 463
#     4  11  25  48  72 111 153 206 257 324 393 460
#     4  10  23  44  70 104 146 193 252 314 380 449
#     4  11  28  46  77 115 152 205 261 320 391 468
#
# _framework density 24.319151000000002
#
# number of rings (size 3 to 8) (size 9 to 14) (size 15 to 20)
#    0.000    1.143    1.429    2.571   16.000    2.286 
#    0.000    0.000    0.000    0.000    0.000    0.000 
#    0.000    0.000    0.000    0.000    0.000    0.000 
#
# Total GULP energy -312954.667278 kJ/mol
# GULP energy per Si atom -5588.476201 kJ/mol
# Density = 2.426380 g / cm^3
# Si number density = 24.319151 Si / 1000 Ang^3
#
#
#
# Elastic Constant Matrix: (Units=GPa)
#
#
# Indices 1 2 3 4 5 6 
#
# 1 136.8820 23.6431 15.3325 0.0000 0.0000 0.0000
# 2 23.6431 129.9274 24.7567 0.0000 0.0000 0.0000
# 3 15.3325 24.7567 97.9515 0.0000 0.0000 0.0000
# 4 0.0000 0.0000 0.0000 25.6049 0.0000 0.0000
# 5 0.0000 0.0000 0.0000 0.0000 31.1634 0.0000
# 6 0.0000 0.0000 0.0000 0.0000 0.0000 36.4807
#
#
#
# Elastic Compliance Matrix: (Units=1/GPa)
#
#
# Indices 1 2 3 4 5 6 
#
# 1 0.007615 -0.001217 -0.000884 0.000000 0.000000 0.000000
# 2 -0.001217 0.008281 -0.001902 0.000000 0.000000 0.000000
# 3 -0.000884 -0.001902 0.010828 0.000000 0.000000 0.000000
# 4 0.000000 0.000000 0.000000 0.039055 0.000000 0.000000
# 5 0.000000 0.000000 0.000000 0.000000 0.032089 0.000000
# 6 0.000000 0.000000 0.000000 0.000000 0.000000 0.027412
#
#
# Mechanical properties :
#
#
# Convention : Reuss Voigt Hill
#
# Bulk Modulus (GPa) = 53.43000 54.69175 54.06087
# Shear Modulus (GPa) = 35.83562 38.71836 37.27699
#
# Velocity S-wave (km/s) = 3.84286 3.99443 3.91938
# Velocity P-wave (km/s) = 6.45818 6.61906 6.53912
#
# Compressibility (1/GPa) = 0.01871608
#
# Stress axis : x y z
#
# Youngs Moduli (GPa) = 131.32219 120.76453 92.35003
#
# Poissons Ratio (x) = 0.14699 0.08167
# Poissons Ratio (y) = 0.15984 0.17568
# Poissons Ratio (z) = 0.11613 0.22974
#
# Static dielectric constant tensor:
#      x y z
#    x 1.936220 0.000000 0.000000 
#    y 0.000000 2.070870 0.000000 
#    z 0.000000 0.000000 1.975550 
# 
# From -- ./inp_files/8653.got.cif
#   From: 2010.05.17/outbox.cif.g08.bks.cpg/sg61_5_cif.got.tgz:8653.got - 2010.06.03 15:17:17.
