data_PCOD9460742
_publ_section_title
;
Structure prediction by ZEFSAII (Michael W. Deem and Ramdas Pophale) SiO2 
 PCOD9460742
Probable space group: P B C A
;
_chemical_formula_sum "Si O2"
_cell_formula_units_Z 60
_cell_length_a 12.322444
_cell_length_b 8.846986
_cell_length_c 23.414235
_cell_angle_alpha 90.000000
_cell_angle_beta 90.000000
_cell_angle_gamma 90.000000
_cell_volume 2552.537705
_symmetry_space_group_name_H-M "P B C A"
_symmetry_group_IT_number 61
_symmetry_cell_setting 'orthorhombic'
loop_
_space_group_symop_operation_xyz
x,y,z
1/2-x,-y,1/2+z
1/2+x,1/2-y,-z
-x,1/2+y,1/2-z
-x,-y,-z
1/2+x,y,1/2-z
1/2-x,1/2+y,z
x,1/2-y,1/2+z
loop_
_atom_site_type_symbol
_atom_site_label
_atom_site_fract_x
_atom_site_fract_y
_atom_site_fract_z
Si Si1 0.103424 0.904394 0.142329
Si Si2 0.000000 0.000000 0.000000
Si Si3 0.141614 0.392222 0.785095
Si Si4 0.516617 0.388783 0.251148
Si Si5 0.432324 0.227492 0.037220
Si Si6 0.867545 0.581697 0.084659
Si Si7 0.267058 0.857908 0.475380
Si Si8 0.195833 0.910996 0.689191
O O1 0.062803 0.882705 0.077268
O O2 0.204982 0.014528 0.153279
O O3 0.145222 0.736042 0.159575
O O4 0.004213 0.940865 0.185084
O O5 0.871577 0.960456 0.016242
O O6 0.980706 0.187082 0.017187
O O7 0.051909 0.283447 0.756166
O O8 0.146465 0.361078 0.851390
O O9 0.248868 0.366341 0.749274
O O10 0.098686 0.563404 0.777555
O O11 0.605060 0.468588 0.291563
O O12 0.507925 0.101378 0.065408
O O13 0.313793 0.162530 0.028602
O O14 0.810854 0.423835 0.074019
O O15 0.807740 0.694776 0.042319
#
# Coordination Sequence:
#
# PCOD9460742 Si02
#       8
#     8   4   8   8   8   8   8   8
#     4  11  24  39  67  95 129 177 213 274 332 396
#     4  10  24  44  66 100 132 174 220 290 336 394
#     4  11  24  41  65  96 130 174 214 270 323 403
#     4  11  21  43  61  93 134 167 212 268 321 393
#     4  11  23  45  69  95 140 171 234 282 342 404
#     4  11  24  43  69  99 135 179 230 275 345 404
#     4  11  24  45  69  99 134 180 227 288 338 399
#     4  11  23  39  63  96 132 168 219 262 333 393
#
# _framework density 23.506017
#
# number of rings (size 3 to 8) (size 9 to 14) (size 15 to 20)
#    0.000    1.067    5.333    0.400    3.733    0.000 
#    0.000    1.333    2.933    0.000    0.000    0.000 
#    0.000    0.000    0.000    0.000    0.000    0.000 
#
# Total GULP energy -334101.084303 kJ/mol
# GULP energy per Si atom -5568.351405 kJ/mol
# Density = 2.345252 g / cm^3
# Si number density = 23.506017 Si / 1000 Ang^3
#
#
#
# Elastic Constant Matrix: (Units=GPa)
#
#
# Indices 1 2 3 4 5 6 
#
# 1 95.7601 17.4095 18.3359 0.0000 0.0000 0.0000
# 2 17.4095 45.7882 -8.4786 0.0000 0.0000 0.0000
# 3 18.3359 -8.4786 26.7703 0.0000 0.0000 0.0000
# 4 0.0000 0.0000 0.0000 20.0317 0.0000 0.0000
# 5 0.0000 0.0000 0.0000 0.0000 22.1946 0.0000
# 6 0.0000 0.0000 0.0000 0.0000 0.0000 33.1010
#
#
#
# Elastic Compliance Matrix: (Units=1/GPa)
#
#
# Indices 1 2 3 4 5 6 
#
# 1 0.014145 -0.007619 -0.012102 0.000000 0.000000 0.000000
# 2 -0.007619 0.027304 0.013866 0.000000 0.000000 0.000000
# 3 -0.012102 0.013866 0.050035 0.000000 0.000000 0.000000
# 4 0.000000 0.000000 0.000000 0.049921 0.000000 0.000000
# 5 0.000000 0.000000 0.000000 0.000000 0.045056 0.000000
# 6 0.000000 0.000000 0.000000 0.000000 0.000000 0.030211
#
#
# Mechanical properties :
#
#
# Convention : Reuss Voigt Hill
#
# Bulk Modulus (GPa) = 12.53511 24.76135 18.64823
# Shear Modulus (GPa) = 19.60994 24.46892 22.03943
#
# Velocity S-wave (km/s) = 2.89148 3.22990 3.06536
# Velocity P-wave (km/s) = 4.06101 4.94637 4.52539
#
# Compressibility (1/GPa) = 0.07977591
#
# Stress axis : x y z
#
# Youngs Moduli (GPa) = 70.69579 36.62436 19.98588
#
# Poissons Ratio (x) = 0.27904 0.24186
# Poissons Ratio (y) = 0.53864 -0.27713
# Poissons Ratio (z) = 0.85553 -0.50784
#
# Static dielectric constant tensor:
#      x y z
#    x 1.881580 0.000000 0.000000 
#    y 0.000000 1.828620 0.000000 
#    z 0.000000 0.000000 1.600840 
# 
# From -- ./inp_files/4488.got.cif
#   From: 2010.05.17/outbox.cif.g08.bks.cpg/sg61_3_cif.got.tgz:4488.got - 2010.06.03 15:17:17.
