data_PCOD9460377
_publ_section_title
;
Structure prediction by ZEFSAII (Michael W. Deem and Ramdas Pophale) SiO2 
 PCOD9460377
Probable space group: P B C A
;
_chemical_formula_sum "Si O2"
_cell_formula_units_Z 44
_cell_length_a 9.732361
_cell_length_b 9.265906
_cell_length_c 18.060792
_cell_angle_alpha 90.000000
_cell_angle_beta 90.000000
_cell_angle_gamma 90.000000
_cell_volume 1628.706730
_symmetry_space_group_name_H-M "P B C A"
_symmetry_group_IT_number 61
_symmetry_cell_setting 'orthorhombic'
loop_
_space_group_symop_operation_xyz
x,y,z
1/2-x,-y,1/2+z
1/2+x,1/2-y,-z
-x,1/2+y,1/2-z
-x,-y,-z
1/2+x,y,1/2-z
1/2-x,1/2+y,z
x,1/2-y,1/2+z
loop_
_atom_site_type_symbol
_atom_site_label
_atom_site_fract_x
_atom_site_fract_y
_atom_site_fract_z
Si Si1 0.264600 0.918152 0.657814
Si Si2 0.006813 0.247146 0.387908
Si Si3 0.500000 0.000000 0.500000
Si Si4 0.582934 0.329845 0.271102
Si Si5 0.952941 0.083299 0.591797
Si Si6 0.767152 0.975696 0.490359
O O1 0.363171 0.829139 0.709618
O O2 0.333454 0.971818 0.579912
O O3 0.149335 0.805078 0.629325
O O4 0.188228 0.045057 0.702453
O O5 0.050467 0.331935 0.314382
O O6 0.075638 0.089955 0.398647
O O7 0.033775 0.346594 0.456922
O O8 0.358062 0.076964 0.461351
O O9 0.455362 0.350594 0.327528
O O10 0.106681 0.095860 0.555561
O O11 0.840809 0.109330 0.530014
#
# Coordination Sequence:
#
# PCOD9460377 Si02
#       6
#     8   8   4   8   8   8
#     4  10  23  43  66  95 135 177 225 285 356 418
#     4  10  23  39  61  95 130 176 229 281 348 419
#     4  12  24  36  60  96 132 164 220 288 342 404
#     4  10  22  42  68  95 132 180 230 287 351 424
#     4   9  21  44  66  89 131 179 224 272 342 431
#     4   9  21  40  63  92 128 171 218 275 344 408
#
# _framework density 27.0153
#
# number of rings (size 3 to 8) (size 9 to 14) (size 15 to 20)
#    0.000    2.545    0.000    2.182    0.000   17.455 
#    0.000    0.000    0.000    0.000    0.000    0.000 
#    0.000    0.000    0.000    0.000    0.000    0.000 
#
# Total GULP energy -244943.683095 kJ/mol
# GULP energy per Si atom -5566.901889 kJ/mol
# Density = 2.695381 g / cm^3
# Si number density = 27.015300 Si / 1000 Ang^3
#
#
#
# Elastic Constant Matrix: (Units=GPa)
#
#
# Indices 1 2 3 4 5 6 
#
# 1 87.4352 -4.5462 -24.2457 0.0000 0.0000 0.0000
# 2 -4.5462 108.3652 35.0196 0.0000 0.0000 0.0000
# 3 -24.2457 35.0196 86.8499 0.0000 0.0000 0.0000
# 4 0.0000 0.0000 0.0000 31.6184 0.0000 0.0000
# 5 0.0000 0.0000 0.0000 0.0000 9.5359 0.0000
# 6 0.0000 0.0000 0.0000 0.0000 0.0000 24.4842
#
#
#
# Elastic Compliance Matrix: (Units=1/GPa)
#
#
# Indices 1 2 3 4 5 6 
#
# 1 0.012441 -0.000690 0.003752 0.000000 0.000000 0.000000
# 2 -0.000690 0.010649 -0.004487 0.000000 0.000000 0.000000
# 3 0.003752 -0.004487 0.014371 0.000000 0.000000 0.000000
# 4 0.000000 0.000000 0.000000 0.031627 0.000000 0.000000
# 5 0.000000 0.000000 0.000000 0.000000 0.104866 0.000000
# 6 0.000000 0.000000 0.000000 0.000000 0.000000 0.040843
#
#
# Mechanical properties :
#
#
# Convention : Reuss Voigt Hill
#
# Bulk Modulus (GPa) = 28.89323 32.78952 30.84137
# Shear Modulus (GPa) = 21.81646 31.55589 26.68617
#
# Velocity S-wave (km/s) = 2.84484 3.42142 3.14637
# Velocity P-wave (km/s) = 4.63780 5.26990 4.96392
#
# Compressibility (1/GPa) = 0.03461019
#
# Stress axis : x y z
#
# Youngs Moduli (GPa) = 80.37632 93.90554 69.58676
#
# Poissons Ratio (x) = 0.06484 -0.26107
# Poissons Ratio (y) = 0.05549 0.31221
# Poissons Ratio (z) = -0.30154 0.42132
#
# Static dielectric constant tensor:
#      x y z
#    x 2.369090 0.000000 0.000000 
#    y 0.000000 2.163210 0.000000 
#    z 0.000000 0.000000 2.384500 
# 
# From -- ./inp_files/9146.got.cif
#   From: 2010.05.17/outbox.cif.g08.bks.cpg/sg61_5_cif.got.tgz:9146.got - 2010.06.03 15:17:17.
