data_PCOD9460737
_publ_section_title
;
Structure prediction by ZEFSAII (Michael W. Deem and Ramdas Pophale) SiO2 
 PCOD9460737
Probable space group: P B C A
;
_chemical_formula_sum "Si O2"
_cell_formula_units_Z 64
_cell_length_a 12.590596
_cell_length_b 13.482837
_cell_length_c 17.682390
_cell_angle_alpha 90.000000
_cell_angle_beta 90.000000
_cell_angle_gamma 90.000000
_cell_volume 3001.708659
_symmetry_space_group_name_H-M "P B C A"
_symmetry_group_IT_number 61
_symmetry_cell_setting 'orthorhombic'
loop_
_space_group_symop_operation_xyz
x,y,z
1/2-x,-y,1/2+z
1/2+x,1/2-y,-z
-x,1/2+y,1/2-z
-x,-y,-z
1/2+x,y,1/2-z
1/2-x,1/2+y,z
x,1/2-y,1/2+z
loop_
_atom_site_type_symbol
_atom_site_label
_atom_site_fract_x
_atom_site_fract_y
_atom_site_fract_z
Si Si1 0.679129 0.629434 0.439101
Si Si2 0.457822 0.989620 0.414774
Si Si3 0.910214 0.183834 0.852918
Si Si4 0.503379 0.014819 0.910476
Si Si5 0.631781 0.115334 0.333529
Si Si6 0.785280 0.455341 0.103047
Si Si7 0.456541 0.825126 0.205826
Si Si8 0.245943 0.438420 0.233314
O O1 0.623338 0.728430 0.408490
O O2 0.611272 0.544530 0.395444
O O3 0.797946 0.624624 0.408715
O O4 0.686806 0.609550 0.528741
O O5 0.497468 0.880727 0.390845
O O6 0.330918 0.001993 0.409935
O O7 0.500000 0.000000 0.500000
O O8 0.522523 0.061565 0.357638
O O9 0.804501 0.120080 0.834487
O O10 0.956723 0.203101 0.768911
O O11 0.388022 0.972991 0.886824
O O12 0.506619 0.124109 0.873142
O O13 0.500000 0.000000 0.000000
O O14 0.609268 0.225181 0.305271
O O15 0.704187 0.048104 0.277726
O O16 0.779439 0.401490 0.183439
O O17 0.378381 0.913290 0.233815
#
# Coordination Sequence:
#
# PCOD9460737 Si02
#       8
#     8   8   8   8   8   8   8   8
#     4  11  23  45  68 101 141 184 243 288 373 429
#     4  11  24  45  68  98 138 183 233 296 360 424
#     4  11  25  41  68 104 142 184 235 297 358 431
#     4  10  24  43  70  99 140 191 232 298 367 434
#     4  11  25  41  75 104 137 187 236 299 366 425
#     4  11  23  45  68  98 140 183 239 298 355 441
#     4  12  23  43  72 104 146 185 244 298 353 440
#     4  11  23  44  68  99 143 186 234 296 362 426
#
# _framework density 21.321189
#
# number of rings (size 3 to 8) (size 9 to 14) (size 15 to 20)
#    0.000    1.000    6.250    0.000    1.750    3.000 
#    0.000    1.250    0.000    0.000    0.000    0.000 
#    0.000    0.000    0.000    0.000    0.000    0.000 
#
# Total GULP energy -356317.328274 kJ/mol
# GULP energy per Si atom -5567.458254 kJ/mol
# Density = 2.127266 g / cm^3
# Si number density = 21.321189 Si / 1000 Ang^3
#
#
#
# Elastic Constant Matrix: (Units=GPa)
#
#
# Indices 1 2 3 4 5 6 
#
# 1 108.2363 12.8921 7.3155 0.0000 0.0000 0.0000
# 2 12.8921 83.8800 29.2960 0.0000 0.0000 0.0000
# 3 7.3155 29.2960 106.5709 0.0000 0.0000 0.0000
# 4 0.0000 0.0000 0.0000 23.3844 0.0000 0.0000
# 5 0.0000 0.0000 0.0000 0.0000 34.8998 0.0000
# 6 0.0000 0.0000 0.0000 0.0000 0.0000 20.5430
#
#
#
# Elastic Compliance Matrix: (Units=1/GPa)
#
#
# Indices 1 2 3 4 5 6 
#
# 1 0.009419 -0.001352 -0.000275 0.000000 0.000000 0.000000
# 2 -0.001352 0.013382 -0.003586 0.000000 0.000000 0.000000
# 3 -0.000275 -0.003586 0.010388 0.000000 0.000000 0.000000
# 4 0.000000 0.000000 0.000000 0.042763 0.000000 0.000000
# 5 0.000000 0.000000 0.000000 0.000000 0.028653 0.000000
# 6 0.000000 0.000000 0.000000 0.000000 0.000000 0.048678
#
#
# Mechanical properties :
#
#
# Convention : Reuss Voigt Hill
#
# Bulk Modulus (GPa) = 43.92953 44.18826 44.05890
# Shear Modulus (GPa) = 29.18914 32.37770 30.78342
#
# Velocity S-wave (km/s) = 3.70404 3.90111 3.80385
# Velocity P-wave (km/s) = 6.24032 6.40793 6.32468
#
# Compressibility (1/GPa) = 0.02276373
#
# Stress axis : x y z
#
# Youngs Moduli (GPa) = 106.17270 74.72762 96.26449
#
# Poissons Ratio (x) = 0.10100 0.02647
# Poissons Ratio (y) = 0.14350 0.34519
# Poissons Ratio (z) = 0.02920 0.26796
#
# Static dielectric constant tensor:
#      x y z
#    x 1.875360 0.000000 0.000000 
#    y 0.000000 1.781670 0.000000 
#    z 0.000000 0.000000 1.845680 
# 
# From -- ./inp_files/9295.got.cif
#   From: 2010.05.17/outbox.cif.g08.bks.cpg/sg61_5_cif.got.tgz:9295.got - 2010.06.03 15:17:17.
