data_PCOD9460789
_publ_section_title
;
Structure prediction by ZEFSAII (Michael W. Deem and Ramdas Pophale) SiO2 
 PCOD9460789
Probable space group: P B C A
;
_chemical_formula_sum "Si O2"
_cell_formula_units_Z 40
_cell_length_a 17.199595
_cell_length_b 6.804370
_cell_length_c 12.946901
_cell_angle_alpha 90.000000
_cell_angle_beta 90.000000
_cell_angle_gamma 90.000000
_cell_volume 1515.207003
_symmetry_space_group_name_H-M "P B C A"
_symmetry_group_IT_number 61
_symmetry_cell_setting 'orthorhombic'
loop_
_space_group_symop_operation_xyz
x,y,z
1/2-x,-y,1/2+z
1/2+x,1/2-y,-z
-x,1/2+y,1/2-z
-x,-y,-z
1/2+x,y,1/2-z
1/2-x,1/2+y,z
x,1/2-y,1/2+z
loop_
_atom_site_type_symbol
_atom_site_label
_atom_site_fract_x
_atom_site_fract_y
_atom_site_fract_z
Si Si1 0.344993 0.039288 0.179870
Si Si2 0.021299 0.388494 0.621069
Si Si3 0.078314 0.246997 0.833815
Si Si4 0.677660 0.582588 0.900520
Si Si5 0.892666 0.394183 0.030736
O O1 0.363040 0.899229 0.273911
O O2 0.261569 0.993169 0.128821
O O3 0.345276 0.273685 0.195893
O O4 0.405487 0.020745 0.085115
O O5 0.028250 0.348977 0.743596
O O6 0.111346 0.419542 0.589025
O O7 0.964025 0.226766 0.575887
O O8 0.978620 0.598987 0.605705
O O9 0.120337 0.416478 0.898527
O O10 0.671060 0.724666 0.001233
#
# Coordination Sequence:
#
# PCOD9460789 Si02
#       5
#     8   8   8   8   8
#     4  10  25  49  73 111 159 200 255 318 391 460
#     4  12  24  46  77 112 151 201 262 318 384 460
#     4  12  25  47  76 113 154 197 260 318 384 461
#     4  10  24  49  74 111 155 203 257 318 386 463
#     4  10  27  47  79 110 152 208 254 319 390 461
#
# _framework density 26.399031000000001
#
# number of rings (size 3 to 8) (size 9 to 14) (size 15 to 20)
#    1.200    0.000    2.000    3.000    0.000    6.400 
#    7.200    0.000    0.000    0.000    0.000    0.000 
#    0.000    0.000    0.000    0.000    0.000    0.000 
#
# Total GULP energy -223699.979993 kJ/mol
# GULP energy per Si atom -5592.499500 kJ/mol
# Density = 2.633895 g / cm^3
# Si number density = 26.399031 Si / 1000 Ang^3
#
#
#
# Elastic Constant Matrix: (Units=GPa)
#
#
# Indices 1 2 3 4 5 6 
#
# 1 110.4804 42.5910 39.9372 0.0000 0.0000 0.0000
# 2 42.5910 143.1388 36.6540 0.0000 0.0000 0.0000
# 3 39.9372 36.6540 78.5014 0.0000 0.0000 0.0000
# 4 0.0000 0.0000 0.0000 64.2231 0.0000 0.0000
# 5 0.0000 0.0000 0.0000 0.0000 26.5595 0.0000
# 6 0.0000 0.0000 0.0000 0.0000 0.0000 50.1956
#
#
#
# Elastic Compliance Matrix: (Units=1/GPa)
#
#
# Indices 1 2 3 4 5 6 
#
# 1 0.011680 -0.002219 -0.004906 0.000000 0.000000 0.000000
# 2 -0.002219 0.008357 -0.002773 0.000000 0.000000 0.000000
# 3 -0.004906 -0.002773 0.016529 0.000000 0.000000 0.000000
# 4 0.000000 0.000000 0.000000 0.015571 0.000000 0.000000
# 5 0.000000 0.000000 0.000000 0.000000 0.037651 0.000000
# 6 0.000000 0.000000 0.000000 0.000000 0.000000 0.019922
#
#
# Mechanical properties :
#
#
# Convention : Reuss Voigt Hill
#
# Bulk Modulus (GPa) = 59.63067 63.38721 61.50894
# Shear Modulus (GPa) = 37.01047 42.39152 39.70099
#
# Velocity S-wave (km/s) = 3.74834 4.01159 3.88220
# Velocity P-wave (km/s) = 6.43200 6.74688 6.59132
#
# Compressibility (1/GPa) = 0.01676990
#
# Stress axis : x y z
#
# Youngs Moduli (GPa) = 85.61350 119.66592 60.49850
#
# Poissons Ratio (x) = 0.26556 0.29682
# Poissons Ratio (y) = 0.18999 0.16776
# Poissons Ratio (z) = 0.42003 0.33182
#
# Static dielectric constant tensor:
#      x y z
#    x 2.058610 0.000000 0.000000 
#    y 0.000000 2.137570 0.000000 
#    z 0.000000 0.000000 2.175750 
# 
# From -- ./inp_files/8056.got.cif
#   From: 2010.05.17/outbox.cif.g08.bks.cpg/sg61_5_cif.got.tgz:8056.got - 2010.06.03 15:17:17.
