data_PCOD9460581
_publ_section_title
;
Structure prediction by ZEFSAII (Michael W. Deem and Ramdas Pophale) SiO2 
 PCOD9460581
Probable space group: P B C A
;
_chemical_formula_sum "Si O2"
_cell_formula_units_Z 52
_cell_length_a 11.084353
_cell_length_b 22.348889
_cell_length_c 8.771262
_cell_angle_alpha 90.000000
_cell_angle_beta 90.000000
_cell_angle_gamma 90.000000
_cell_volume 2172.843116
_symmetry_space_group_name_H-M "P B C A"
_symmetry_group_IT_number 61
_symmetry_cell_setting 'orthorhombic'
loop_
_space_group_symop_operation_xyz
x,y,z
1/2-x,-y,1/2+z
1/2+x,1/2-y,-z
-x,1/2+y,1/2-z
-x,-y,-z
1/2+x,y,1/2-z
1/2-x,1/2+y,z
x,1/2-y,1/2+z
loop_
_atom_site_type_symbol
_atom_site_label
_atom_site_fract_x
_atom_site_fract_y
_atom_site_fract_z
Si Si1 0.000000 0.000000 0.000000
Si Si2 0.023606 0.568583 0.811097
Si Si3 0.613554 0.270376 0.003156
Si Si4 0.870565 0.431078 0.680475
Si Si5 0.818052 0.989409 0.472000
Si Si6 0.230078 0.801846 0.764883
Si Si7 0.046455 0.699054 0.770090
O O1 0.006342 0.054691 0.134896
O O2 0.012471 0.048657 0.857137
O O3 0.114812 0.522184 0.890076
O O4 0.086108 0.633008 0.813386
O O5 0.902081 0.565442 0.915344
O O6 0.683330 0.309728 0.879719
O O7 0.517110 0.231371 0.911104
O O8 0.697694 0.223078 0.090703
O O9 0.549778 0.307463 0.135164
O O10 0.812630 0.467936 0.532786
O O11 0.837756 0.362431 0.691829
O O12 0.823778 0.464739 0.830799
O O13 0.145738 0.746257 0.718786
#
# Coordination Sequence:
#
# PCOD9460581 Si02
#       7
#     4   8   8   8   8   8   8
#     4  10  24  42  64 100 126 184 220 276 348 394
#     4  10  23  43  68  97 135 173 231 277 346 411
#     4  10  25  44  63 107 131 185 234 269 364 407
#     4  11  24  44  68  98 138 176 234 285 344 427
#     4  10  23  43  66  98 131 179 224 282 340 407
#     4  11  25  44  71 101 139 185 233 285 356 420
#     4  11  24  44  70 100 143 179 225 298 344 414
#
# _framework density 23.931778999999999
#
# number of rings (size 3 to 8) (size 9 to 14) (size 15 to 20)
#    0.000    1.538    0.000    2.769    8.615    3.692 
#   13.846    0.000    0.000    0.000    0.000    0.000 
#    0.000    0.000    0.000    0.000    0.000    0.000 
#
# Total GULP energy -290007.965046 kJ/mol
# GULP energy per Si atom -5577.076251 kJ/mol
# Density = 2.387731 g / cm^3
# Si number density = 23.931779 Si / 1000 Ang^3
#
#
#
# Elastic Constant Matrix: (Units=GPa)
#
#
# Indices 1 2 3 4 5 6 
#
# 1 23.7268 10.8527 16.0484 0.0000 0.0000 0.0000
# 2 10.8527 79.7675 36.2175 0.0000 0.0000 0.0000
# 3 16.0484 36.2175 121.0629 0.0000 0.0000 0.0000
# 4 0.0000 0.0000 0.0000 127.9633 0.0000 0.0000
# 5 0.0000 0.0000 0.0000 0.0000 36.0412 0.0000
# 6 0.0000 0.0000 0.0000 0.0000 0.0000 22.7514
#
#
#
# Elastic Compliance Matrix: (Units=1/GPa)
#
#
# Indices 1 2 3 4 5 6 
#
# 1 0.047465 -0.004167 -0.005045 0.000000 0.000000 0.000000
# 2 -0.004167 0.014873 -0.003897 0.000000 0.000000 0.000000
# 3 -0.005045 -0.003897 0.010095 0.000000 0.000000 0.000000
# 4 0.000000 0.000000 0.000000 0.007815 0.000000 0.000000
# 5 0.000000 0.000000 0.000000 0.000000 0.027746 0.000000
# 6 0.000000 0.000000 0.000000 0.000000 0.000000 0.043953
#
#
# Mechanical properties :
#
#
# Convention : Reuss Voigt Hill
#
# Bulk Modulus (GPa) = 21.63859 38.97717 30.30788
# Shear Modulus (GPa) = 25.83041 48.11374 36.97208
#
# Velocity S-wave (km/s) = 3.28889 4.48867 3.93478
# Velocity P-wave (km/s) = 4.84601 6.57163 5.77365
#
# Compressibility (1/GPa) = 0.04621373
#
# Stress axis : x y z
#
# Youngs Moduli (GPa) = 21.06814 67.23701 99.06041
#
# Poissons Ratio (x) = 0.28018 0.49981
# Poissons Ratio (y) = 0.08779 0.38604
# Poissons Ratio (z) = 0.10630 0.26202
#
# Static dielectric constant tensor:
#      x y z
#    x 1.693050 0.000000 0.000000 
#    y 0.000000 1.936250 0.000000 
#    z 0.000000 0.000000 1.887770 
# 
# From -- ./inp_files/2977.got.cif
#   From: 2010.05.17/outbox.cif.g08.bks.cpg/sg61_2_cif.got.tgz:2977.got - 2010.06.03 15:17:17.
