data_PCOD9460657
_publ_section_title
;
Structure prediction by ZEFSAII (Michael W. Deem and Ramdas Pophale) SiO2 
 PCOD9460657
Probable space group: P B C A
;
_chemical_formula_sum "Si O2"
_cell_formula_units_Z 40
_cell_length_a 8.812152
_cell_length_b 13.362108
_cell_length_c 13.265847
_cell_angle_alpha 90.000000
_cell_angle_beta 90.000000
_cell_angle_gamma 90.000000
_cell_volume 1562.039246
_symmetry_space_group_name_H-M "P B C A"
_symmetry_group_IT_number 61
_symmetry_cell_setting 'orthorhombic'
loop_
_space_group_symop_operation_xyz
x,y,z
1/2-x,-y,1/2+z
1/2+x,1/2-y,-z
-x,1/2+y,1/2-z
-x,-y,-z
1/2+x,y,1/2-z
1/2-x,1/2+y,z
x,1/2-y,1/2+z
loop_
_atom_site_type_symbol
_atom_site_label
_atom_site_fract_x
_atom_site_fract_y
_atom_site_fract_z
Si Si1 0.575362 0.016900 0.326892
Si Si2 0.034169 0.846627 0.337327
Si Si3 0.272753 0.357232 0.053689
Si Si4 0.834411 0.361646 0.736735
Si Si5 0.021365 0.833632 0.553989
O O1 0.409069 0.061499 0.342667
O O2 0.670775 0.105805 0.275370
O O3 0.559447 0.928138 0.246713
O O4 0.661775 0.965810 0.419770
O O5 0.121388 0.747497 0.302662
O O6 0.084184 0.880458 0.449676
O O7 0.853148 0.830524 0.358341
O O8 0.410948 0.278991 0.052484
O O9 0.159960 0.341204 0.958964
O O10 0.921248 0.379405 0.843791
#
# Coordination Sequence:
#
# PCOD9460657 Si02
#       5
#     8   8   8   8   8
#     4  12  25  44  70 109 143 187 248 296 359 447
#     4  10  25  46  71 103 149 186 242 312 354 432
#     4  10  23  46  69 108 140 193 239 306 358 428
#     4  12  25  43  76 102 144 200 239 295 385 430
#     4  10  24  45  75 103 147 195 243 302 375 430
#
# _framework density 25.607552999999999
#
# number of rings (size 3 to 8) (size 9 to 14) (size 15 to 20)
#    1.200    0.000    4.000    1.200    2.800    4.800 
#    0.000    1.000    0.000    0.000    0.000    0.000 
#    0.000    0.000    0.000    0.000    0.000    0.000 
#
# Total GULP energy -223515.803189 kJ/mol
# GULP energy per Si atom -5587.895080 kJ/mol
# Density = 2.554927 g / cm^3
# Si number density = 25.607553 Si / 1000 Ang^3
#
#
#
# Elastic Constant Matrix: (Units=GPa)
#
#
# Indices 1 2 3 4 5 6 
#
# 1 91.1606 5.5059 38.9148 0.0000 0.0000 0.0000
# 2 5.5059 64.2586 7.0882 0.0000 0.0000 0.0000
# 3 38.9148 7.0882 97.3800 0.0000 0.0000 0.0000
# 4 0.0000 0.0000 0.0000 25.6312 0.0000 0.0000
# 5 0.0000 0.0000 0.0000 0.0000 39.1207 0.0000
# 6 0.0000 0.0000 0.0000 0.0000 0.0000 52.0021
#
#
#
# Elastic Compliance Matrix: (Units=1/GPa)
#
#
# Indices 1 2 3 4 5 6 
#
# 1 0.013245 -0.000556 -0.005253 0.000000 0.000000 0.000000
# 2 -0.000556 0.015711 -0.000922 0.000000 0.000000 0.000000
# 3 -0.005253 -0.000922 0.012435 0.000000 0.000000 0.000000
# 4 0.000000 0.000000 0.000000 0.039015 0.000000 0.000000
# 5 0.000000 0.000000 0.000000 0.000000 0.025562 0.000000
# 6 0.000000 0.000000 0.000000 0.000000 0.000000 0.019230
#
#
# Mechanical properties :
#
#
# Convention : Reuss Voigt Hill
#
# Bulk Modulus (GPa) = 35.80072 39.53523 37.66798
# Shear Modulus (GPa) = 33.79075 36.77013 35.28044
#
# Velocity S-wave (km/s) = 3.63652 3.79345 3.71581
# Velocity P-wave (km/s) = 5.62523 5.88723 5.75772
#
# Compressibility (1/GPa) = 0.02793240
#
# Stress axis : x y z
#
# Youngs Moduli (GPa) = 75.49741 63.64815 80.41678
#
# Poissons Ratio (x) = 0.03536 0.42241
# Poissons Ratio (y) = 0.04194 0.07411
# Poissons Ratio (z) = 0.39657 0.05866
#
# Static dielectric constant tensor:
#      x y z
#    x 2.086640 0.000000 0.000000 
#    y 0.000000 1.985150 0.000000 
#    z 0.000000 0.000000 2.076810 
# 
# From -- ./inp_files/7378.got.cif
#   From: 2010.05.17/outbox.cif.g08.bks.cpg/sg61_4_cif.got.tgz:7378.got - 2010.06.03 15:17:17.
