data_PCOD9460202
_publ_section_title
;
Structure prediction by ZEFSAII (Michael W. Deem and Ramdas Pophale) SiO2 
 PCOD9460202
Probable space group: P B C A
;
_chemical_formula_sum "Si O2"
_cell_formula_units_Z 44
_cell_length_a 9.210428
_cell_length_b 8.585842
_cell_length_c 23.077212
_cell_angle_alpha 90.000000
_cell_angle_beta 90.000000
_cell_angle_gamma 90.000000
_cell_volume 1824.929299
_symmetry_space_group_name_H-M "P B C A"
_symmetry_group_IT_number 61
_symmetry_cell_setting 'orthorhombic'
loop_
_space_group_symop_operation_xyz
x,y,z
1/2-x,-y,1/2+z
1/2+x,1/2-y,-z
-x,1/2+y,1/2-z
-x,-y,-z
1/2+x,y,1/2-z
1/2-x,1/2+y,z
x,1/2-y,1/2+z
loop_
_atom_site_type_symbol
_atom_site_label
_atom_site_fract_x
_atom_site_fract_y
_atom_site_fract_z
Si Si1 0.227344 0.564467 0.588120
Si Si2 0.797197 0.502252 0.283138
Si Si3 0.458965 0.716628 0.399822
Si Si4 0.078973 0.198848 0.772934
Si Si5 0.788673 0.807392 0.994727
Si Si6 0.000000 0.500000 0.000000
O O1 0.270431 0.509166 0.651903
O O2 0.152564 0.424096 0.553975
O O3 0.324803 0.635122 0.533649
O O4 0.116550 0.702463 0.601310
O O5 0.672097 0.456405 0.238650
O O6 0.872653 0.668751 0.272671
O O7 0.915847 0.366200 0.272659
O O8 0.397482 0.724663 0.335613
O O9 0.363440 0.818749 0.444024
O O10 0.463359 0.551210 0.430887
O O11 0.619894 0.847135 0.002282
#
# Coordination Sequence:
#
# PCOD9460202 Si02
#       6
#     8   8   8   8   8   4
#     4  10  22  39  64  89 131 165 218 258 331 392
#     4  11  24  46  65 101 130 183 226 284 333 409
#     4  10  23  41  63  96 129 169 220 272 329 394
#     4  11  25  44  70  96 138 175 236 279 344 401
#     4  11  20  40  62  94 126 170 207 269 322 396
#     4  10  22  38  60  94 130 162 208 262 330 386
#
# _framework density 24.110523000000001
#
# number of rings (size 3 to 8) (size 9 to 14) (size 15 to 20)
#    0.000    1.455    1.818    2.727    2.545    2.909 
#    3.273    0.000    0.000    0.000    0.000    0.000 
#    0.000    0.000    0.000    0.000    0.000    0.000 
#
# Total GULP energy -244938.218238 kJ/mol
# GULP energy per Si atom -5566.777687 kJ/mol
# Density = 2.405565 g / cm^3
# Si number density = 24.110523 Si / 1000 Ang^3
#
#
#
# Elastic Constant Matrix: (Units=GPa)
#
#
# Indices 1 2 3 4 5 6 
#
# 1 81.0651 -4.2656 22.4197 0.0000 0.0000 0.0000
# 2 -4.2656 85.7028 4.0284 0.0000 0.0000 0.0000
# 3 22.4197 4.0284 99.8571 0.0000 0.0000 0.0000
# 4 0.0000 0.0000 0.0000 40.8232 0.0000 0.0000
# 5 0.0000 0.0000 0.0000 0.0000 29.9131 0.0000
# 6 0.0000 0.0000 0.0000 0.0000 0.0000 39.6957
#
#
#
# Elastic Compliance Matrix: (Units=1/GPa)
#
#
# Indices 1 2 3 4 5 6 
#
# 1 0.013207 0.000798 -0.002997 0.000000 0.000000 0.000000
# 2 0.000798 0.011739 -0.000653 0.000000 0.000000 0.000000
# 3 -0.002997 -0.000653 0.010714 0.000000 0.000000 0.000000
# 4 0.000000 0.000000 0.000000 0.024496 0.000000 0.000000
# 5 0.000000 0.000000 0.000000 0.000000 0.033430 0.000000
# 6 0.000000 0.000000 0.000000 0.000000 0.000000 0.025192
#
#
# Mechanical properties :
#
#
# Convention : Reuss Voigt Hill
#
# Bulk Modulus (GPa) = 33.38323 34.55445 33.96884
# Shear Modulus (GPa) = 37.18426 38.38257 37.78342
#
# Velocity S-wave (km/s) = 3.93140 3.99424 3.96295
# Velocity P-wave (km/s) = 5.87229 5.96949 5.92109
#
# Compressibility (1/GPa) = 0.02995516
#
# Stress axis : x y z
#
# Youngs Moduli (GPa) = 75.71894 85.18877 93.33931
#
# Poissons Ratio (x) = -0.06800 0.27977
# Poissons Ratio (y) = -0.06044 0.06093
# Poissons Ratio (z) = 0.22696 0.05561
#
# Static dielectric constant tensor:
#      x y z
#    x 1.698700 0.000000 0.000000 
#    y 0.000000 1.835840 0.000000 
#    z 0.000000 0.000000 1.881810 
# 
# From -- ./inp_files/3833.got.cif
#   From: 2010.05.17/outbox.cif.g08.bks.cpg/sg61_2_cif.got.tgz:3833.got - 2010.06.03 15:17:17.
