data_PCOD9460673
_publ_section_title
;
Structure prediction by ZEFSAII (Michael W. Deem and Ramdas Pophale) SiO2 
 PCOD9460673
Probable space group: P B C A
;
_chemical_formula_sum "Si O2"
_cell_formula_units_Z 32
_cell_length_a 14.791296
_cell_length_b 10.445525
_cell_length_c 9.069685
_cell_angle_alpha 90.000000
_cell_angle_beta 90.000000
_cell_angle_gamma 90.000000
_cell_volume 1401.292201
_symmetry_space_group_name_H-M "P B C A"
_symmetry_group_IT_number 61
_symmetry_cell_setting 'orthorhombic'
loop_
_space_group_symop_operation_xyz
x,y,z
1/2-x,-y,1/2+z
1/2+x,1/2-y,-z
-x,1/2+y,1/2-z
-x,-y,-z
1/2+x,y,1/2-z
1/2-x,1/2+y,z
x,1/2-y,1/2+z
loop_
_atom_site_type_symbol
_atom_site_label
_atom_site_fract_x
_atom_site_fract_y
_atom_site_fract_z
Si Si1 0.181443 0.418480 0.891081
Si Si2 0.109744 0.256366 0.634955
Si Si3 0.615129 0.514871 0.056919
Si Si4 0.039639 0.906023 0.232220
O O1 0.167686 0.305105 0.772676
O O2 0.284070 0.463175 0.890591
O O3 0.111401 0.527844 0.839830
O O4 0.153661 0.361374 0.048304
O O5 0.108260 0.377146 0.525208
O O6 0.012234 0.211708 0.694767
O O7 0.541975 0.503122 0.186542
O O8 0.588972 0.613703 0.925730
#
# Coordination Sequence:
#
# PCOD9460673 Si02
#       4
#     8   8   8   8
#     4  11  25  46  73 106 149 190 243 300 356 443
#     4  11  23  47  71 107 144 187 248 287 370 429
#     4  10  24  48  68 110 149 185 245 301 359 442
#     4  10  23  47  71 102 148 182 245 304 355 431
#
# _framework density 22.836065999999999
#
# number of rings (size 3 to 8) (size 9 to 14) (size 15 to 20)
#    0.000    1.500    2.500    0.750    7.000    0.000 
#   27.000    0.000    0.000    0.000    0.000    0.000 
#    0.000    0.000    0.000    0.000    0.000    0.000 
#
# Total GULP energy -178921.861194 kJ/mol
# GULP energy per Si atom -5591.308162 kJ/mol
# Density = 2.278409 g / cm^3
# Si number density = 22.836066 Si / 1000 Ang^3
#
#
#
# Elastic Constant Matrix: (Units=GPa)
#
#
# Indices 1 2 3 4 5 6 
#
# 1 219.6712 65.0977 79.2110 0.0000 0.0000 0.0000
# 2 65.0977 62.8043 51.9738 0.0000 0.0000 0.0000
# 3 79.2110 51.9738 72.4636 0.0000 0.0000 0.0000
# 4 0.0000 0.0000 0.0000 43.2447 0.0000 0.0000
# 5 0.0000 0.0000 0.0000 0.0000 39.6008 0.0000
# 6 0.0000 0.0000 0.0000 0.0000 0.0000 27.5171
#
#
#
# Elastic Compliance Matrix: (Units=1/GPa)
#
#
# Indices 1 2 3 4 5 6 
#
# 1 0.007669 -0.002489 -0.006598 0.000000 0.000000 0.000000
# 2 -0.002489 0.039982 -0.025956 0.000000 0.000000 0.000000
# 3 -0.006598 -0.025956 0.039629 0.000000 0.000000 0.000000
# 4 0.000000 0.000000 0.000000 0.023124 0.000000 0.000000
# 5 0.000000 0.000000 0.000000 0.000000 0.025252 0.000000
# 6 0.000000 0.000000 0.000000 0.000000 0.000000 0.036341
#
#
# Mechanical properties :
#
#
# Convention : Reuss Voigt Hill
#
# Bulk Modulus (GPa) = 58.15875 83.05600 70.60738
# Shear Modulus (GPa) = 20.17628 32.64962 26.41295
#
# Velocity S-wave (km/s) = 2.97564 3.78529 3.40462
# Velocity P-wave (km/s) = 6.10976 7.45346 6.81481
#
# Compressibility (1/GPa) = 0.01719432
#
# Stress axis : x y z
#
# Youngs Moduli (GPa) = 130.39594 25.01097 25.23390
#
# Poissons Ratio (x) = 0.06225 0.16649
# Poissons Ratio (y) = 0.32454 0.65498
# Poissons Ratio (z) = 0.86034 0.64919
#
# Static dielectric constant tensor:
#      x y z
#    x 1.819220 0.000000 0.000000 
#    y 0.000000 1.905170 0.000000 
#    z 0.000000 0.000000 1.904790 
# 
# From -- ./inp_files/2050.got.cif
#   From: 2010.05.17/outbox.cif.g08.bks.cpg/sg61_2_cif.got.tgz:2050.got - 2010.06.03 15:17:17.
