data_PCOD9461454
_publ_section_title
;
Structure prediction by ZEFSAII (Michael W. Deem and Ramdas Pophale) SiO2 
 PCOD9461454
Probable space group: P N M A
;
_chemical_formula_sum "Si O2"
_cell_formula_units_Z 64
_cell_length_a 12.356419
_cell_length_b 17.434696
_cell_length_c 17.549936
_cell_angle_alpha 90.000000
_cell_angle_beta 90.000000
_cell_angle_gamma 90.000000
_cell_volume 3780.789889
_symmetry_space_group_name_H-M "P N M A"
_symmetry_group_IT_number 62
_symmetry_cell_setting 'orthorhombic'
loop_
_space_group_symop_operation_xyz
x,y,z
1/2-x,-y,1/2+z
1/2+x,1/2-y,1/2-z
-x,1/2+y,-z
-x,-y,-z
1/2+x,y,1/2-z
1/2-x,1/2+y,1/2+z
x,1/2-y,z
loop_
_atom_site_type_symbol
_atom_site_label
_atom_site_fract_x
_atom_site_fract_y
_atom_site_fract_z
Si Si1 0.432437 0.074543 0.527256
Si Si2 0.843774 0.975888 0.843767
Si Si3 0.988096 0.334170 0.461521
Si Si4 0.315200 0.337983 0.909163
Si Si5 0.617121 0.980041 0.174782
Si Si6 0.305480 0.577656 0.964129
Si Si7 0.606241 0.984730 0.891684
Si Si8 0.872617 0.840083 0.967059
O O1 0.320256 0.087060 0.482430
O O2 0.515055 0.143184 0.511157
O O3 0.500000 0.000000 0.500000
O O4 0.394869 0.048348 0.610968
O O5 0.714313 0.983753 0.842811
O O6 0.866144 0.899074 0.895086
O O7 0.883206 0.982746 0.757837
O O8 0.964882 0.250000 0.430801
O O9 0.116001 0.349124 0.467784
O O10 0.926470 0.340268 0.542163
O O11 0.937447 0.399980 0.409381
O O12 0.295808 0.250000 0.885238
O O13 0.324860 0.398425 0.840756
O O14 0.222969 0.358720 0.972080
O O15 0.676899 0.037254 0.116459
O O16 0.493407 0.972430 0.146817
O O17 0.358586 0.521914 0.027958
O O18 0.862540 0.750000 0.946265
#
# Coordination Sequence:
#
# PCOD9461454 Si02
#       8
#     8   8   8   8   8   8   8   8
#     4   9  19  35  54  75 104 143 190 228 257 321
#     4  10  21  33  52  81 109 139 178 222 277 324
#     4  10  17  29  54  79 100 129 176 227 265 308
#     4  10  18  32  57  82 102 136 184 226 262 319
#     4  11  19  32  54  80 111 140 171 226 280 320
#     4  10  18  33  53  76 107 137 186 227 264 324
#     4  10  18  34  51  76 106 139 182 219 262 322
#     4  10  20  37  59  78 103 146 193 225 259 320
#
# _framework density 16.927679999999999
#
# number of rings (size 3 to 8) (size 9 to 14) (size 15 to 20)
#    0.000    2.000    3.750    2.250    0.000    3.500 
#    0.000    3.125    0.000    3.000    0.000    0.000 
#    0.000    0.000    0.000    0.000    0.000    0.000 
#
# Total GULP energy -356363.568463 kJ/mol
# GULP energy per Si atom -5568.180757 kJ/mol
# Density = 1.688915 g / cm^3
# Si number density = 16.927680 Si / 1000 Ang^3
#
#
#
# Elastic Constant Matrix: (Units=GPa)
#
#
# Indices 1 2 3 4 5 6 
#
# 1 101.9705 26.3454 38.1830 0.0000 0.0000 0.0000
# 2 26.3454 80.0038 29.5337 0.0000 0.0000 0.0000
# 3 38.1830 29.5337 58.8390 0.0000 0.0000 0.0000
# 4 0.0000 0.0000 0.0000 13.8424 0.0000 0.0000
# 5 0.0000 0.0000 0.0000 0.0000 9.1680 0.0000
# 6 0.0000 0.0000 0.0000 0.0000 0.0000 15.2682
#
#
#
# Elastic Compliance Matrix: (Units=1/GPa)
#
#
# Indices 1 2 3 4 5 6 
#
# 1 0.013089 -0.001442 -0.007770 0.000000 0.000000 0.000000
# 2 -0.001442 0.015501 -0.006845 0.000000 0.000000 0.000000
# 3 -0.007770 -0.006845 0.025474 0.000000 0.000000 0.000000
# 4 0.000000 0.000000 0.000000 0.072242 0.000000 0.000000
# 5 0.000000 0.000000 0.000000 0.000000 0.109075 0.000000
# 6 0.000000 0.000000 0.000000 0.000000 0.000000 0.065496
#
#
# Mechanical properties :
#
#
# Convention : Reuss Voigt Hill
#
# Bulk Modulus (GPa) = 45.55878 47.65974 46.60926
# Shear Modulus (GPa) = 14.69263 17.43913 16.06588
#
# Velocity S-wave (km/s) = 2.94932 3.21318 3.08407
# Velocity P-wave (km/s) = 6.21049 6.47936 6.34635
#
# Compressibility (1/GPa) = 0.02194967
#
# Stress axis : x y z
#
# Youngs Moduli (GPa) = 76.40112 64.51183 39.25617
#
# Poissons Ratio (x) = 0.09301 0.30503
# Poissons Ratio (y) = 0.11015 0.26871
# Poissons Ratio (z) = 0.59365 0.44158
#
# Static dielectric constant tensor:
#      x y z
#    x 1.601700 0.000000 0.000000 
#    y 0.000000 1.598090 0.000000 
#    z 0.000000 0.000000 1.564190 
# 
# From -- ./inp_files/23323.got.cif
#   From: 2010.05.17/outbox.cif.g08.bks.cpg/sg62_12_cif.got.tgz:23323.got - 2010.06.03 15:25:27.
