data_PCOD9461166
_publ_section_title
;
Structure prediction by ZEFSAII (Michael W. Deem and Ramdas Pophale) SiO2 
 PCOD9461166
Probable space group: P B C A
;
_chemical_formula_sum "Si O2"
_cell_formula_units_Z 40
_cell_length_a 18.885224
_cell_length_b 8.379745
_cell_length_c 9.474513
_cell_angle_alpha 90.000000
_cell_angle_beta 90.000000
_cell_angle_gamma 90.000000
_cell_volume 1499.373530
_symmetry_space_group_name_H-M "P B C A"
_symmetry_group_IT_number 61
_symmetry_cell_setting 'orthorhombic'
loop_
_space_group_symop_operation_xyz
x,y,z
1/2-x,-y,1/2+z
1/2+x,1/2-y,-z
-x,1/2+y,1/2-z
-x,-y,-z
1/2+x,y,1/2-z
1/2-x,1/2+y,z
x,1/2-y,1/2+z
loop_
_atom_site_type_symbol
_atom_site_label
_atom_site_fract_x
_atom_site_fract_y
_atom_site_fract_z
Si Si1 0.383389 0.970830 0.076439
Si Si2 0.652148 0.874528 0.638011
Si Si3 0.296500 0.774473 0.415393
Si Si4 0.924484 0.617603 0.200195
Si Si5 0.002493 0.223503 0.054811
O O1 0.453895 0.874836 0.125950
O O2 0.360446 0.093235 0.194594
O O3 0.321506 0.844377 0.040071
O O4 0.408480 0.019019 0.917285
O O5 0.714692 0.748698 0.615067
O O6 0.577383 0.829685 0.572402
O O7 0.681147 0.042090 0.574103
O O8 0.347982 0.701801 0.294856
O O9 0.955876 0.588479 0.352785
O O10 0.975430 0.734102 0.105405
#
# Coordination Sequence:
#
# PCOD9461166 Si02
#       5
#     8   8   8   8   8
#     4   8  20  42  67  95 140 173 230 290 344 415
#     4  12  21  45  67 102 136 188 235 289 359 420
#     4   9  23  41  64  97 142 179 231 284 354 427
#     4   8  18  45  60 104 132 185 220 298 337 421
#     4   9  20  40  70  96 142 179 234 290 346 418
#
# _framework density 26.677806
#
# number of rings (size 3 to 8) (size 9 to 14) (size 15 to 20)
#    2.400    0.000    2.000    0.000    0.000    5.600 
#   10.800    0.000    0.000    0.000    0.000    0.000 
#    0.000    0.000    0.000    0.000    0.000    0.000 
#
# Total GULP energy -222867.716806 kJ/mol
# GULP energy per Si atom -5571.692920 kJ/mol
# Density = 2.661709 g / cm^3
# Si number density = 26.677806 Si / 1000 Ang^3
#
#
#
# Elastic Constant Matrix: (Units=GPa)
#
#
# Indices 1 2 3 4 5 6 
#
# 1 244.4351 38.2162 67.3136 0.0000 0.0000 0.0000
# 2 38.2162 77.9160 47.3483 0.0000 0.0000 0.0000
# 3 67.3136 47.3483 115.7208 0.0000 0.0000 0.0000
# 4 0.0000 0.0000 0.0000 -12.3206 0.0000 0.0000
# 5 0.0000 0.0000 0.0000 0.0000 14.2841 0.0000
# 6 0.0000 0.0000 0.0000 0.0000 0.0000 20.9633
#
#
#
# Elastic Compliance Matrix: (Units=1/GPa)
#
#
# Indices 1 2 3 4 5 6 
#
# 1 0.004918 -0.000897 -0.002494 0.000000 0.000000 0.000000
# 2 -0.000897 0.017245 -0.006534 0.000000 0.000000 0.000000
# 3 -0.002494 -0.006534 0.012766 0.000000 0.000000 0.000000
# 4 0.000000 0.000000 0.000000 -0.081165 0.000000 0.000000
# 5 0.000000 0.000000 0.000000 0.000000 0.070008 0.000000
# 6 0.000000 0.000000 0.000000 0.000000 0.000000 0.047702
#
#
# Mechanical properties :
#
#
# Convention : Reuss Voigt Hill
#
# Bulk Modulus (GPa) = 66.31787 82.64757 74.48272
# Shear Modulus (GPa) = 51.89377 23.59827 37.74602
#
# Velocity S-wave (km/s) = 4.41523 2.97739 3.76558
# Velocity P-wave (km/s) = 7.13478 6.54729 6.84734
#
# Compressibility (1/GPa) = 0.01507889
#
# Stress axis : x y z
#
# Youngs Moduli (GPa) = 203.33328 57.98800 78.33476
#
# Poissons Ratio (x) = 0.05200 0.19536
# Poissons Ratio (y) = 0.18233 0.51186
# Poissons Ratio (z) = 0.50709 0.37891
#
# Static dielectric constant tensor:
#      x y z
#    x 2.066160 0.000000 0.000000 
#    y 0.000000 2.385010 0.000000 
#    z 0.000000 0.000000 2.094300 
# 
# From -- ./inp_files/5594.got.cif
#   From: 2010.05.17/outbox.cif.g08.bks.cpg/sg61_3_cif.got.tgz:5594.got - 2010.06.03 15:17:17.
