data_PCOD9461514
_publ_section_title
;
Structure prediction by ZEFSAII (Michael W. Deem and Ramdas Pophale) SiO2 
 PCOD9461514
Probable space group: P N M A
;
_chemical_formula_sum "Si O2"
_cell_formula_units_Z 64
_cell_length_a 15.921625
_cell_length_b 7.739226
_cell_length_c 24.120662
_cell_angle_alpha 90.000000
_cell_angle_beta 90.000000
_cell_angle_gamma 90.000000
_cell_volume 2972.173399
_symmetry_space_group_name_H-M "P N M A"
_symmetry_group_IT_number 62
_symmetry_cell_setting 'orthorhombic'
loop_
_space_group_symop_operation_xyz
x,y,z
1/2-x,-y,1/2+z
1/2+x,1/2-y,1/2-z
-x,1/2+y,-z
-x,-y,-z
1/2+x,y,1/2-z
1/2-x,1/2+y,1/2+z
x,1/2-y,z
loop_
_atom_site_type_symbol
_atom_site_label
_atom_site_fract_x
_atom_site_fract_y
_atom_site_fract_z
Si Si1 0.142869 0.460274 0.747789
Si Si2 0.070537 0.040426 0.863341
Si Si3 0.336843 0.041169 0.748261
Si Si4 0.590472 0.461746 0.875410
Si Si5 0.116421 0.445474 0.124202
Si Si6 0.736874 0.450765 0.576033
Si Si7 0.095382 0.538671 0.365285
Si Si8 0.260653 0.946854 0.047003
O O1 0.140483 0.250000 0.747414
O O2 0.086334 0.515448 0.799642
O O3 0.239803 0.509858 0.757526
O O4 0.114331 0.517420 0.687000
O O5 0.068058 0.250000 0.863910
O O6 0.150702 0.977600 0.898528
O O7 0.981311 0.980376 0.885909
O O8 0.339415 0.250000 0.745486
O O9 0.391612 0.988385 0.801104
O O10 0.367486 0.974863 0.689299
O O11 0.593873 0.250000 0.875300
O O12 0.495277 0.516562 0.887296
O O13 0.660154 0.520887 0.919123
O O14 0.136758 0.250000 0.109592
O O15 0.181508 0.554344 0.088300
O O16 0.736610 0.250000 0.593643
O O17 0.823337 0.523575 0.601092
O O18 0.739170 0.460993 0.510090
O O19 0.094568 0.750000 0.366761
O O20 0.281327 0.750000 0.031652
#
# Coordination Sequence:
#
# PCOD9461514 Si02
#       8
#     8   8   8   8   8   8   8   8
#     4   9  15  29  58  91 114 142 188 233 275 333
#     4  10  20  37  62  88 114 149 190 234 284 346
#     4  10  17  33  62  90 116 149 189 231 280 343
#     4   9  17  30  54  87 116 145 186 233 274 329
#     4  12  25  39  57  85 119 153 189 238 294 342
#     4  10  21  38  60  87 116 146 190 243 292 338
#     4   9  17  32  59  90 117 148 188 233 281 339
#     4  11  23  40  60  80 110 155 202 241 284 340
#
# _framework density 21.533064
#
# number of rings (size 3 to 8) (size 9 to 14) (size 15 to 20)
#    0.000    2.000    2.500    2.250    0.000    3.500 
#    0.000    1.250    0.000    1.500    0.000    0.000 
#    0.000    0.000    0.000    0.000    0.000    0.000 
#
# Total GULP energy -357562.122285 kJ/mol
# GULP energy per Si atom -5586.908161 kJ/mol
# Density = 2.148405 g / cm^3
# Si number density = 21.533064 Si / 1000 Ang^3
#
#
#
# Elastic Constant Matrix: (Units=GPa)
#
#
# Indices 1 2 3 4 5 6 
#
# 1 119.4878 -3.4706 28.2073 0.0000 0.0000 0.0000
# 2 -3.4706 36.2214 -8.1438 0.0000 0.0000 0.0000
# 3 28.2073 -8.1438 83.0993 0.0000 0.0000 0.0000
# 4 0.0000 0.0000 0.0000 15.5854 0.0000 0.0000
# 5 0.0000 0.0000 0.0000 0.0000 3.8399 0.0000
# 6 0.0000 0.0000 0.0000 0.0000 0.0000 4.5061
#
#
#
# Elastic Compliance Matrix: (Units=1/GPa)
#
#
# Indices 1 2 3 4 5 6 
#
# 1 0.009099 0.000181 -0.003071 0.000000 0.000000 0.000000
# 2 0.000181 0.028234 0.002705 0.000000 0.000000 0.000000
# 3 -0.003071 0.002705 0.013341 0.000000 0.000000 0.000000
# 4 0.000000 0.000000 0.000000 0.064163 0.000000 0.000000
# 5 0.000000 0.000000 0.000000 0.000000 0.260426 0.000000
# 6 0.000000 0.000000 0.000000 0.000000 0.000000 0.221921
#
#
# Mechanical properties :
#
#
# Convention : Reuss Voigt Hill
#
# Bulk Modulus (GPa) = 19.87835 30.22159 25.04997
# Shear Modulus (GPa) = 8.13907 19.60064 13.86986
#
# Velocity S-wave (km/s) = 1.94628 3.02032 2.54070
# Velocity P-wave (km/s) = 3.78183 5.12138 4.50171
#
# Compressibility (1/GPa) = 0.05030598
#
# Stress axis : x y z
#
# Youngs Moduli (GPa) = 109.89902 35.41874 74.95511
#
# Poissons Ratio (x) = -0.00643 0.23018
# Poissons Ratio (y) = -0.01994 -0.20278
# Poissons Ratio (z) = 0.33749 -0.09582
#
# Static dielectric constant tensor:
#      x y z
#    x 1.775380 0.000000 0.000000 
#    y 0.000000 1.801160 0.000000 
#    z 0.000000 0.000000 1.732660 
# 
# From -- ./inp_files/29874.got.cif
#   From: 2010.05.17/outbox.cif.g08.bks.cpg/sg62_15_cif.got.tgz:29874.got - 2010.06.03 15:25:27.
