data_PCOD9461902
_publ_section_title
;
Structure prediction by ZEFSAII (Michael W. Deem and Ramdas Pophale) SiO2 
 PCOD9461902
Probable space group: P N M A
;
_chemical_formula_sum "Si O2"
_cell_formula_units_Z 64
_cell_length_a 15.124847
_cell_length_b 8.510709
_cell_length_c 28.282862
_cell_angle_alpha 90.000000
_cell_angle_beta 90.000000
_cell_angle_gamma 90.000000
_cell_volume 3640.659695
_symmetry_space_group_name_H-M "P N M A"
_symmetry_group_IT_number 62
_symmetry_cell_setting 'orthorhombic'
loop_
_space_group_symop_operation_xyz
x,y,z
1/2-x,-y,1/2+z
1/2+x,1/2-y,1/2-z
-x,1/2+y,-z
-x,-y,-z
1/2+x,y,1/2-z
1/2-x,1/2+y,1/2+z
x,1/2-y,z
loop_
_atom_site_type_symbol
_atom_site_label
_atom_site_fract_x
_atom_site_fract_y
_atom_site_fract_z
Si Si1 0.273171 0.437198 0.362880
Si Si2 0.099010 0.939501 0.052715
Si Si3 0.099374 0.940533 0.218066
Si Si4 0.270254 0.059441 0.634961
Si Si5 0.094081 0.560297 0.944192
Si Si6 0.897719 0.562109 0.218351
Si Si7 0.596765 0.564035 0.823866
Si Si8 0.095469 0.937814 0.326353
O O1 0.263755 0.250000 0.365711
O O2 0.331535 0.492812 0.407442
O O3 0.328529 0.481761 0.316184
O O4 0.176841 0.512547 0.358674
O O5 0.096064 0.750000 0.053340
O O6 0.176467 0.988576 0.088100
O O7 0.111510 0.990831 0.998322
O O8 0.003278 0.999900 0.069191
O O9 0.101341 0.750000 0.217601
O O10 0.170692 0.993648 0.179973
O O11 0.116476 0.989859 0.272106
O O12 0.998597 0.985707 0.205787
O O13 0.265170 0.250000 0.635891
O O14 0.173073 0.990611 0.640728
O O15 0.092300 0.750000 0.943478
O O16 0.889614 0.750000 0.213608
O O17 0.884894 0.517349 0.273084
O O18 0.598944 0.750000 0.817474
O O19 0.498834 0.511406 0.839129
O O20 0.086139 0.750000 0.325756
#
# Coordination Sequence:
#
# PCOD9461902 Si02
#       8
#     8   8   8   8   8   8   8   8
#     4  11  21  32  49  75 105 135 168 209 259 305
#     4   9  18  33  54  78 104 136 171 205 244 297
#     4   8  16  29  47  71  97 126 162 206 244 280
#     4  10  18  31  52  75  99 131 173 211 246 296
#     4   9  19  34  51  76 110 138 161 201 256 304
#     4  10  19  33  51  73 103 138 176 210 243 293
#     4  11  22  35  50  72 103 135 168 210 260 303
#     4  10  20  35  52  70  97 134 173 210 250 300
#
# _framework density 17.579232000000001
#
# number of rings (size 3 to 8) (size 9 to 14) (size 15 to 20)
#    0.000    2.250    0.000    4.500    0.000    3.500 
#    0.000    3.125    0.000    0.750    0.000    0.000 
#    0.000    0.000    0.000    0.000    0.000    0.000 
#
# Total GULP energy -357269.688003 kJ/mol
# GULP energy per Si atom -5582.338875 kJ/mol
# Density = 1.753922 g / cm^3
# Si number density = 17.579232 Si / 1000 Ang^3
#
#
#
# Elastic Constant Matrix: (Units=GPa)
#
#
# Indices 1 2 3 4 5 6 
#
# 1 126.6811 9.9631 65.8669 0.0000 0.0000 0.0000
# 2 9.9631 18.8377 4.1654 0.0000 0.0000 0.0000
# 3 65.8669 4.1654 59.6503 0.0000 0.0000 0.0000
# 4 0.0000 0.0000 0.0000 13.9848 0.0000 0.0000
# 5 0.0000 0.0000 0.0000 0.0000 30.3494 0.0000
# 6 0.0000 0.0000 0.0000 0.0000 0.0000 27.2514
#
#
#
# Elastic Compliance Matrix: (Units=1/GPa)
#
#
# Indices 1 2 3 4 5 6 
#
# 1 0.019084 -0.005519 -0.020688 0.000000 0.000000 0.000000
# 2 -0.005519 0.055514 0.002218 0.000000 0.000000 0.000000
# 3 -0.020688 0.002218 0.039454 0.000000 0.000000 0.000000
# 4 0.000000 0.000000 0.000000 0.071506 0.000000 0.000000
# 5 0.000000 0.000000 0.000000 0.000000 0.032950 0.000000
# 6 0.000000 0.000000 0.000000 0.000000 0.000000 0.036695
#
#
# Mechanical properties :
#
#
# Convention : Reuss Voigt Hill
#
# Bulk Modulus (GPa) = 15.13482 40.57332 27.85407
# Shear Modulus (GPa) = 15.37488 22.66203 19.01846
#
# Velocity S-wave (km/s) = 2.96058 3.59435 3.29275
# Velocity P-wave (km/s) = 4.50721 6.35265 5.50777
#
# Compressibility (1/GPa) = 0.06607279
#
# Stress axis : x y z
#
# Youngs Moduli (GPa) = 52.39872 18.01363 25.34626
#
# Poissons Ratio (x) = 0.09942 0.52436
# Poissons Ratio (y) = 0.28919 -0.05621
# Poissons Ratio (z) = 1.08402 -0.03995
#
# Static dielectric constant tensor:
#      x y z
#    x 1.592680 0.000000 0.000000 
#    y 0.000000 1.591650 0.000000 
#    z 0.000000 0.000000 1.600630 
# 
# From -- ./inp_files/32717.got.cif
#   From: 2010.05.17/outbox.cif.g08.bks.cpg/sg62_17_cif.got.tgz:32717.got - 2010.06.03 15:25:27.
