data_PCOD9461563
_publ_section_title
;
Structure prediction by ZEFSAII (Michael W. Deem and Ramdas Pophale) SiO2 
 PCOD9461563
Probable space group: P N M A
;
_chemical_formula_sum "Si O2"
_cell_formula_units_Z 64
_cell_length_a 35.320496
_cell_length_b 8.913605
_cell_length_c 14.107505
_cell_angle_alpha 90.000000
_cell_angle_beta 90.000000
_cell_angle_gamma 90.000000
_cell_volume 4441.507413
_symmetry_space_group_name_H-M "P N M A"
_symmetry_group_IT_number 62
_symmetry_cell_setting 'orthorhombic'
loop_
_space_group_symop_operation_xyz
x,y,z
1/2-x,-y,1/2+z
1/2+x,1/2-y,1/2-z
-x,1/2+y,-z
-x,-y,-z
1/2+x,y,1/2-z
1/2-x,1/2+y,1/2+z
x,1/2-y,z
loop_
_atom_site_type_symbol
_atom_site_label
_atom_site_fract_x
_atom_site_fract_y
_atom_site_fract_z
Si Si1 0.540223 0.422643 0.612279
Si Si2 0.962833 0.577423 0.881814
Si Si3 0.732719 0.931246 0.095445
Si Si4 0.732302 0.931109 0.880742
Si Si5 0.619062 0.929038 0.606602
Si Si6 0.691365 0.430404 0.704803
Si Si7 0.305995 0.431827 0.713722
Si Si8 0.115901 0.929869 0.116097
O O1 0.544479 0.250000 0.640823
O O2 0.537967 0.426700 0.497147
O O3 0.500688 0.490430 0.648001
O O4 0.577471 0.516337 0.637905
O O5 0.965036 0.750000 0.852678
O O6 0.923275 0.504170 0.851652
O O7 0.732603 0.750000 0.092630
O O8 0.774353 0.975285 0.133414
O O9 0.703224 0.974911 0.177619
O O10 0.725092 0.981577 0.988786
O O11 0.731553 0.750000 0.875598
O O12 0.702938 0.000063 0.805754
O O13 0.773502 0.991232 0.849056
O O14 0.622068 0.750000 0.615116
O O15 0.622879 0.968708 0.494650
O O16 0.652136 0.008214 0.664873
O O17 0.690915 0.250000 0.710894
O O18 0.302012 0.250000 0.705688
O O19 0.347507 0.472953 0.677106
O O20 0.111481 0.750000 0.120293
#
# Coordination Sequence:
#
# PCOD9461563 Si02
#       8
#     8   8   8   8   8   8   8   8
#     4   9  16  26  39  55  78 110 142 169 202 244
#     4   9  16  25  38  56  80 109 140 172 204 240
#     4   8  16  29  44  59  79 107 137 169 206 245
#     4  10  18  29  44  61  80 105 137 173 209 243
#     4  10  18  27  40  61  85 109 139 174 207 240
#     4  10  19  31  44  60  82 109 139 170 206 248
#     4   9  17  30  44  60  82 109 139 170 205 246
#     4   9  17  27  41  60  84 112 141 172 205 243
#
# _framework density 14.409522000000001
#
# number of rings (size 3 to 8) (size 9 to 14) (size 15 to 20)
#    0.000    2.750    0.000    3.375    0.000    4.000 
#    0.000    5.625    0.000    0.000    0.000    0.000 
#    0.000    1.000    0.000    2.750    0.000    4.000 
#
# Total GULP energy -356536.485313 kJ/mol
# GULP energy per Si atom -5570.882583 kJ/mol
# Density = 1.437672 g / cm^3
# Si number density = 14.409522 Si / 1000 Ang^3
#
#
#
# Elastic Constant Matrix: (Units=GPa)
#
#
# Indices 1 2 3 4 5 6 
#
# 1 128.0691 45.0730 53.8789 0.0000 0.0000 0.0000
# 2 45.0730 50.3389 30.0378 0.0000 0.0000 0.0000
# 3 53.8789 30.0378 81.2239 0.0000 0.0000 0.0000
# 4 0.0000 0.0000 0.0000 14.4278 0.0000 0.0000
# 5 0.0000 0.0000 0.0000 0.0000 18.7822 0.0000
# 6 0.0000 0.0000 0.0000 0.0000 0.0000 28.1211
#
#
#
# Elastic Compliance Matrix: (Units=1/GPa)
#
#
# Indices 1 2 3 4 5 6 
#
# 1 0.013122 -0.008411 -0.005594 0.000000 0.000000 0.000000
# 2 -0.008411 0.030882 -0.005841 0.000000 0.000000 0.000000
# 3 -0.005594 -0.005841 0.018182 0.000000 0.000000 0.000000
# 4 0.000000 0.000000 0.000000 0.069311 0.000000 0.000000
# 5 0.000000 0.000000 0.000000 0.000000 0.053242 0.000000
# 6 0.000000 0.000000 0.000000 0.000000 0.000000 0.035561
#
#
# Mechanical properties :
#
#
# Convention : Reuss Voigt Hill
#
# Bulk Modulus (GPa) = 44.45596 57.51236 50.98416
# Shear Modulus (GPa) = 18.69230 20.97569 19.83399
#
# Velocity S-wave (km/s) = 3.60560 3.81948 3.71408
# Velocity P-wave (km/s) = 6.94641 7.71042 7.33836
#
# Compressibility (1/GPa) = 0.02249417
#
# Stress axis : x y z
#
# Youngs Moduli (GPa) = 76.20887 32.38091 54.99884
#
# Poissons Ratio (x) = 0.27237 0.30764
# Poissons Ratio (y) = 0.64103 0.32126
# Poissons Ratio (z) = 0.42628 0.18914
#
# Static dielectric constant tensor:
#      x y z
#    x 1.464880 0.000000 0.000000 
#    y 0.000000 1.482430 0.000000 
#    z 0.000000 0.000000 1.462640 
# 
# From -- ./inp_files/21231.got.cif
#   From: 2010.05.17/outbox.cif.g08.bks.cpg/sg62_11_cif.got.tgz:21231.got - 2010.06.03 15:25:27.
