data_PCOD9461814
_publ_section_title
;
Structure prediction by ZEFSAII (Michael W. Deem and Ramdas Pophale) SiO2 
 PCOD9461814
Probable space group: P N M A
;
_chemical_formula_sum "Si O2"
_cell_formula_units_Z 64
_cell_length_a 26.307115
_cell_length_b 7.370024
_cell_length_c 14.741528
_cell_angle_alpha 90.000000
_cell_angle_beta 90.000000
_cell_angle_gamma 90.000000
_cell_volume 2858.147431
_symmetry_space_group_name_H-M "P N M A"
_symmetry_group_IT_number 62
_symmetry_cell_setting 'orthorhombic'
loop_
_space_group_symop_operation_xyz
x,y,z
1/2-x,-y,1/2+z
1/2+x,1/2-y,1/2-z
-x,1/2+y,-z
-x,-y,-z
1/2+x,y,1/2-z
1/2-x,1/2+y,1/2+z
x,1/2-y,z
loop_
_atom_site_type_symbol
_atom_site_label
_atom_site_fract_x
_atom_site_fract_y
_atom_site_fract_z
Si Si1 0.163283 0.528148 0.248322
Si Si2 0.939037 0.462367 0.660097
Si Si3 0.274520 0.969461 0.260198
Si Si4 0.215945 0.031056 0.545539
Si Si5 0.049483 0.027880 0.711769
Si Si6 0.625623 0.465273 0.639971
Si Si7 0.395720 0.968572 0.027628
Si Si8 0.673227 0.966637 0.459572
O O1 0.163646 0.750000 0.251252
O O2 0.113246 0.461677 0.298984
O O3 0.218006 0.468130 0.286986
O O4 0.162113 0.472428 0.142596
O O5 0.939177 0.250000 0.683918
O O6 0.933692 0.477630 0.552064
O O7 0.992075 0.536986 0.696749
O O8 0.274300 0.750000 0.266996
O O9 0.322126 0.039470 0.316667
O O10 0.282792 0.008652 0.153579
O O11 0.215401 0.250000 0.535766
O O12 0.161817 0.964236 0.508946
O O13 0.270654 0.964536 0.509981
O O14 0.048020 0.250000 0.710480
O O15 0.077264 0.967992 0.803765
O O16 0.083911 0.973391 0.625701
O O17 0.626372 0.250000 0.655448
O O18 0.630479 0.492842 0.533085
O O19 0.393883 0.750000 0.029390
O O20 0.677525 0.750000 0.453984
#
# Coordination Sequence:
#
# PCOD9461814 Si02
#       8
#     8   8   8   8   8   8   8   8
#     4   8  16  31  49  68  94 128 162 196 237 287
#     4  10  20  33  50  72  97 127 165 205 241 280
#     4   8  13  25  46  68  89 121 161 192 224 281
#     4   8  14  27  47  68  93 125 157 187 229 293
#     4   9  18  33  51  71  98 131 165 197 235 290
#     4  10  18  30  51  74  95 125 165 203 237 279
#     4  10  18  31  50  72  97 128 160 192 238 296
#     4   9  18  32  49  70  97 127 159 198 245 291
#
# _framework density 22.392129000000001
#
# number of rings (size 3 to 8) (size 9 to 14) (size 15 to 20)
#    0.000    3.000    1.250    1.875    1.750    0.000 
#    0.000    2.500    0.000    3.000    0.000    0.000 
#    0.000    0.000    0.000    0.000    0.000    0.000 
#
# Total GULP energy -357296.470124 kJ/mol
# GULP energy per Si atom -5582.757346 kJ/mol
# Density = 2.234116 g / cm^3
# Si number density = 22.392129 Si / 1000 Ang^3
#
#
#
# Elastic Constant Matrix: (Units=GPa)
#
#
# Indices 1 2 3 4 5 6 
#
# 1 85.0490 9.1656 3.7410 0.0000 0.0000 0.0000
# 2 9.1656 79.3051 -4.7773 0.0000 0.0000 0.0000
# 3 3.7410 -4.7773 24.9450 0.0000 0.0000 0.0000
# 4 0.0000 0.0000 0.0000 2.2995 0.0000 0.0000
# 5 0.0000 0.0000 0.0000 0.0000 34.5867 0.0000
# 6 0.0000 0.0000 0.0000 0.0000 0.0000 -4.2393
#
#
#
# Elastic Compliance Matrix: (Units=1/GPa)
#
#
# Indices 1 2 3 4 5 6 
#
# 1 0.012013 -0.001514 -0.002092 0.000000 0.000000 0.000000
# 2 -0.001514 0.012948 0.002707 0.000000 0.000000 0.000000
# 3 -0.002092 0.002707 0.040920 0.000000 0.000000 0.000000
# 4 0.000000 0.000000 0.000000 0.434881 0.000000 0.000000
# 5 0.000000 0.000000 0.000000 0.000000 0.028913 0.000000
# 6 0.000000 0.000000 0.000000 0.000000 0.000000 -0.235890
#
#
# Mechanical properties :
#
#
# Convention : Reuss Voigt Hill
#
# Bulk Modulus (GPa) = 15.60487 22.83972 19.22229
# Shear Modulus (GPa) = 15.77567 18.60737 17.19152
#
# Velocity S-wave (km/s) = 2.65716 2.88580 2.77383
# Velocity P-wave (km/s) = 4.04945 4.61799 4.34303
#
# Compressibility (1/GPa) = 0.06408257
#
# Stress axis : x y z
#
# Youngs Moduli (GPa) = 83.24219 77.23432 24.43773
#
# Poissons Ratio (x) = 0.11696 0.05111
# Poissons Ratio (y) = 0.12606 -0.06615
# Poissons Ratio (z) = 0.17411 -0.20906
#
# Static dielectric constant tensor:
#      x y z
#    x 1.836650 0.000000 0.000000 
#    y 0.000000 1.868670 0.000000 
#    z 0.000000 0.000000 1.804320 
# 
# From -- ./inp_files/15323.got.cif
#   From: 2010.05.17/outbox.cif.g08.bks.cpg/sg62_8_cif.got.tgz:15323.got - 2010.06.03 15:25:27.
