data_PCOD9461658
_publ_section_title
;
Structure prediction by ZEFSAII (Michael W. Deem and Ramdas Pophale) SiO2 
 PCOD9461658
Probable space group: P N M A
;
_chemical_formula_sum "Si O2"
_cell_formula_units_Z 44
_cell_length_a 11.463677
_cell_length_b 7.795875
_cell_length_c 27.691080
_cell_angle_alpha 90.000000
_cell_angle_beta 90.000000
_cell_angle_gamma 90.000000
_cell_volume 2474.735009
_symmetry_space_group_name_H-M "P N M A"
_symmetry_group_IT_number 62
_symmetry_cell_setting 'orthorhombic'
loop_
_space_group_symop_operation_xyz
x,y,z
1/2-x,-y,1/2+z
1/2+x,1/2-y,1/2-z
-x,1/2+y,-z
-x,-y,-z
1/2+x,y,1/2-z
1/2-x,1/2+y,1/2+z
x,1/2-y,z
loop_
_atom_site_type_symbol
_atom_site_label
_atom_site_fract_x
_atom_site_fract_y
_atom_site_fract_z
Si Si1 0.828227 0.553332 0.116510
Si Si2 0.367888 0.750000 0.146253
Si Si3 0.746648 0.048234 0.410354
Si Si4 0.634673 0.043948 0.509243
Si Si5 0.139946 0.750000 0.335323
Si Si6 0.952157 0.939761 0.830214
Si Si7 0.661736 0.750000 0.276785
O O1 0.877905 0.750000 0.113610
O O2 0.829444 0.481326 0.062405
O O3 0.700401 0.587590 0.137968
O O4 0.915475 0.457877 0.152020
O O5 0.335622 0.581259 0.115049
O O6 0.502038 0.750000 0.160901
O O7 0.281406 0.750000 0.192483
O O8 0.782068 0.250000 0.410947
O O9 0.712571 0.986750 0.464012
O O10 0.628866 0.039447 0.377885
O O11 0.645650 0.250000 0.509181
O O12 0.500000 0.000000 0.500000
O O13 0.180533 0.750000 0.280069
O O14 0.930963 0.750000 0.810485
O O15 0.912201 0.084889 0.793413
#
# Coordination Sequence:
#
# PCOD9461658 Si02
#       7
#     8   4   8   8   4   8   4
#     4   9  19  34  55  82 122 147 184 241 289 343
#     4  10  22  38  60  80 112 158 204 235 283 364
#     4   9  19  34  55  86 114 149 192 237 286 349
#     4  10  18  28  53  85 118 151 180 233 298 339
#     4  10  23  40  61  80 114 161 204 240 295 342
#     4  10  18  33  58  89 115 141 185 244 297 346
#     4  10  21  38  63  80 110 153 198 243 302 340
#
# _framework density 17.779682000000001
#
# number of rings (size 3 to 8) (size 9 to 14) (size 15 to 20)
#    0.545    1.818    2.727    0.000    3.818    0.000 
#    0.000    3.636    0.000    0.000    0.000    0.000 
#    0.000    0.000    0.000    0.000    0.000    0.000 
#
# Total GULP energy -245142.623485 kJ/mol
# GULP energy per Si atom -5571.423261 kJ/mol
# Density = 1.773921 g / cm^3
# Si number density = 17.779682 Si / 1000 Ang^3
#
#
#
# Elastic Constant Matrix: (Units=GPa)
#
#
# Indices 1 2 3 4 5 6 
#
# 1 95.0262 26.6203 46.9159 0.0000 0.0000 0.0000
# 2 26.6203 67.4940 24.2859 0.0000 0.0000 0.0000
# 3 46.9159 24.2859 117.3753 0.0000 0.0000 0.0000
# 4 0.0000 0.0000 0.0000 9.7233 0.0000 0.0000
# 5 0.0000 0.0000 0.0000 0.0000 16.8911 0.0000
# 6 0.0000 0.0000 0.0000 0.0000 0.0000 13.2337
#
#
#
# Elastic Compliance Matrix: (Units=1/GPa)
#
#
# Indices 1 2 3 4 5 6 
#
# 1 0.013948 -0.003776 -0.004794 0.000000 0.000000 0.000000
# 2 -0.003776 0.017030 -0.002014 0.000000 0.000000 0.000000
# 3 -0.004794 -0.002014 0.010853 0.000000 0.000000 0.000000
# 4 0.000000 0.000000 0.000000 0.102846 0.000000 0.000000
# 5 0.000000 0.000000 0.000000 0.000000 0.059203 0.000000
# 6 0.000000 0.000000 0.000000 0.000000 0.000000 0.075565
#
#
# Mechanical properties :
#
#
# Convention : Reuss Voigt Hill
#
# Bulk Modulus (GPa) = 48.39772 52.83776 50.61774
# Shear Modulus (GPa) = 16.26014 20.10785 18.18400
#
# Velocity S-wave (km/s) = 3.02741 3.36660 3.20150
# Velocity P-wave (km/s) = 6.28492 6.70034 6.49595
#
# Compressibility (1/GPa) = 0.02066213
#
# Stress axis : x y z
#
# Youngs Moduli (GPa) = 71.69441 58.71876 92.14400
#
# Poissons Ratio (x) = 0.22174 0.44172
# Poissons Ratio (y) = 0.27074 0.18560
# Poissons Ratio (z) = 0.34369 0.11828
#
# Static dielectric constant tensor:
#      x y z
#    x 1.572610 0.000000 0.000000 
#    y 0.000000 1.656550 0.000000 
#    z 0.000000 0.000000 1.617520 
# 
# From -- ./inp_files/29207.got.cif
#   From: 2010.05.17/outbox.cif.g08.bks.cpg/sg62_15_cif.got.tgz:29207.got - 2010.06.03 15:25:27.
