data_PCOD9461830
_publ_section_title
;
Structure prediction by ZEFSAII (Michael W. Deem and Ramdas Pophale) SiO2 
 PCOD9461830
Probable space group: P N M A
;
_chemical_formula_sum "Si O2"
_cell_formula_units_Z 44
_cell_length_a 8.557805
_cell_length_b 18.448150
_cell_length_c 9.853885
_cell_angle_alpha 90.000000
_cell_angle_beta 90.000000
_cell_angle_gamma 90.000000
_cell_volume 1555.688700
_symmetry_space_group_name_H-M "P N M A"
_symmetry_group_IT_number 62
_symmetry_cell_setting 'orthorhombic'
loop_
_space_group_symop_operation_xyz
x,y,z
1/2-x,-y,1/2+z
1/2+x,1/2-y,1/2-z
-x,1/2+y,-z
-x,-y,-z
1/2+x,y,1/2-z
1/2-x,1/2+y,1/2+z
x,1/2-y,z
loop_
_atom_site_type_symbol
_atom_site_label
_atom_site_fract_x
_atom_site_fract_y
_atom_site_fract_z
Si Si1 0.511515 0.750000 0.651469
Si Si2 0.455392 0.592118 0.573263
Si Si3 0.281207 0.250000 0.611207
Si Si4 0.016100 0.088076 0.506921
Si Si5 0.732241 0.458978 0.212537
Si Si6 0.949630 0.250000 0.477913
Si Si7 0.326856 0.098179 0.680423
O O1 0.429166 0.676174 0.605553
O O2 0.654920 0.750000 0.544367
O O3 0.544379 0.750000 0.811646
O O4 0.595195 0.560557 0.668261
O O5 0.301990 0.551616 0.627156
O O6 0.532816 0.581011 0.426160
O O7 0.100678 0.250000 0.576283
O O8 0.342936 0.182809 0.696117
O O9 0.124708 0.096254 0.369856
O O10 0.908769 0.161806 0.503860
O O11 0.150845 0.094530 0.621797
O O12 0.000000 0.000000 0.500000
O O13 0.680605 0.543006 0.195447
#
# Coordination Sequence:
#
# PCOD9461830 Si02
#       7
#     4   8   4   8   8   4   8
#     4  10  18  30  52  80 108 139 180 230 285 327
#     4  10  21  32  53  80 112 140 183 226 281 338
#     4   8  18  34  49  77 108 147 186 230 282 349
#     4  10  20  35  55  84 115 148 194 232 285 338
#     4  11  20  35  55  80 109 150 181 232 281 336
#     4  10  18  34  55  77 116 146 186 236 289 338
#     4   9  19  33  52  76 108 146 186 229 282 339
#
# _framework density 28.283293
#
# number of rings (size 3 to 8) (size 9 to 14) (size 15 to 20)
#    0.000    2.182    1.818    2.727    0.000    0.000 
#    0.000    0.909    0.000    1.091    0.000    0.000 
#    0.000    0.000    0.000    0.000    0.000    0.000 
#
# Total GULP energy -245239.394292 kJ/mol
# GULP energy per Si atom -5573.622598 kJ/mol
# Density = 2.821892 g / cm^3
# Si number density = 28.283293 Si / 1000 Ang^3
#
#
#
# Elastic Constant Matrix: (Units=GPa)
#
#
# Indices 1 2 3 4 5 6 
#
# 1 56.6339 51.1718 32.1450 0.0000 0.0000 0.0000
# 2 51.1718 244.0464 49.6502 0.0000 0.0000 0.0000
# 3 32.1450 49.6502 114.2278 0.0000 0.0000 0.0000
# 4 0.0000 0.0000 0.0000 48.2731 0.0000 0.0000
# 5 0.0000 0.0000 0.0000 0.0000 17.1376 0.0000
# 6 0.0000 0.0000 0.0000 0.0000 0.0000 27.3676
#
#
#
# Elastic Compliance Matrix: (Units=1/GPa)
#
#
# Indices 1 2 3 4 5 6 
#
# 1 0.024174 -0.004042 -0.005046 0.000000 0.000000 0.000000
# 2 -0.004042 0.005171 -0.001110 0.000000 0.000000 0.000000
# 3 -0.005046 -0.001110 0.010657 0.000000 0.000000 0.000000
# 4 0.000000 0.000000 0.000000 0.020715 0.000000 0.000000
# 5 0.000000 0.000000 0.000000 0.000000 0.058351 0.000000
# 6 0.000000 0.000000 0.000000 0.000000 0.000000 0.036540
#
#
# Mechanical properties :
#
#
# Convention : Reuss Voigt Hill
#
# Bulk Modulus (GPa) = 51.00646 75.64912 63.32779
# Shear Modulus (GPa) = 27.39143 37.35174 32.37158
#
# Velocity S-wave (km/s) = 3.11540 3.63799 3.38679
# Velocity P-wave (km/s) = 5.56904 6.66720 6.14271
#
# Compressibility (1/GPa) = 0.01960536
#
# Stress axis : x y z
#
# Youngs Moduli (GPa) = 41.36760 193.38630 93.83619
#
# Poissons Ratio (x) = 0.78170 0.47347
# Poissons Ratio (y) = 0.16722 0.10417
# Poissons Ratio (z) = 0.20873 0.21468
#
# Static dielectric constant tensor:
#      x y z
#    x 2.288000 0.000000 0.000000 
#    y 0.000000 2.438580 0.000000 
#    z 0.000000 0.000000 2.300580 
# 
# From -- ./inp_files/12207.got.cif
#   From: 2010.05.17/outbox.cif.g08.bks.cpg/sg62_7_cif.got.tgz:12207.got - 2010.06.03 15:25:27.
