data_PCOD9461463
_publ_section_title
;
Structure prediction by ZEFSAII (Michael W. Deem and Ramdas Pophale) SiO2 
 PCOD9461463
Probable space group: P N M A
;
_chemical_formula_sum "Si O2"
_cell_formula_units_Z 64
_cell_length_a 24.239646
_cell_length_b 7.836715
_cell_length_c 19.712250
_cell_angle_alpha 90.000000
_cell_angle_beta 90.000000
_cell_angle_gamma 90.000000
_cell_volume 3744.523189
_symmetry_space_group_name_H-M "P N M A"
_symmetry_group_IT_number 62
_symmetry_cell_setting 'orthorhombic'
loop_
_space_group_symop_operation_xyz
x,y,z
1/2-x,-y,1/2+z
1/2+x,1/2-y,1/2-z
-x,1/2+y,-z
-x,-y,-z
1/2+x,y,1/2-z
1/2-x,1/2+y,1/2+z
x,1/2-y,z
loop_
_atom_site_type_symbol
_atom_site_label
_atom_site_fract_x
_atom_site_fract_y
_atom_site_fract_z
Si Si1 0.279875 0.052577 0.870968
Si Si2 0.172683 0.549563 0.788927
Si Si3 0.388745 0.040720 0.506391
Si Si4 0.436529 0.455681 0.362965
Si Si5 0.732145 0.455977 0.840980
Si Si6 0.737625 0.548722 0.486695
Si Si7 0.841866 0.041912 0.756870
Si Si8 0.938466 0.453970 0.850584
O O1 0.292752 0.250000 0.882209
O O2 0.324541 0.979331 0.817837
O O3 0.221707 0.039120 0.830840
O O4 0.271329 0.972945 0.944391
O O5 0.176970 0.750000 0.806061
O O6 0.113044 0.488326 0.813585
O O7 0.185965 0.525598 0.709848
O O8 0.388860 0.250000 0.505609
O O9 0.421005 0.985042 0.439033
O O10 0.324969 0.982414 0.504260
O O11 0.417278 0.982950 0.575998
O O12 0.436343 0.250000 0.363688
O O13 0.497317 0.510388 0.342035
O O14 0.727254 0.250000 0.839229
O O15 0.733727 0.518411 0.918360
O O16 0.791336 0.500422 0.807385
O O17 0.730681 0.750000 0.474530
O O18 0.842882 0.250000 0.752944
O O19 0.898337 0.981547 0.790969
O O20 0.930957 0.250000 0.852149
#
# Coordination Sequence:
#
# PCOD9461463 Si02
#       8
#     8   8   8   8   8   8   8   8
#     4  10  19  30  47  70  95 120 156 199 232 274
#     4  10  19  32  48  65  92 127 157 190 238 283
#     4   9  16  29  46  63  91 128 160 183 218 272
#     4  10  20  32  44  63  94 128 157 191 232 272
#     4   9  17  30  50  70  92 120 155 194 231 280
#     4  10  17  30  50  70  95 130 156 181 235 291
#     4   8  15  29  46  65  89 119 152 190 234 271
#     4  10  18  30  49  66  85 123 166 194 221 268
#
# _framework density 17.091626999999999
#
# number of rings (size 3 to 8) (size 9 to 14) (size 15 to 20)
#    0.000    2.500    2.500    1.875    0.000    1.500 
#    0.000    3.750    0.000    0.000    0.000    0.875 
#    0.000    0.000    0.000    0.000    0.000    0.000 
#
# Total GULP energy -356812.377275 kJ/mol
# GULP energy per Si atom -5575.193395 kJ/mol
# Density = 1.705273 g / cm^3
# Si number density = 17.091627 Si / 1000 Ang^3
#
#
#
# Elastic Constant Matrix: (Units=GPa)
#
#
# Indices 1 2 3 4 5 6 
#
# 1 86.7410 -3.9364 46.8232 0.0000 0.0000 0.0000
# 2 -3.9364 14.2745 -8.9340 0.0000 0.0000 0.0000
# 3 46.8232 -8.9340 97.8863 0.0000 0.0000 0.0000
# 4 0.0000 0.0000 0.0000 18.4908 0.0000 0.0000
# 5 0.0000 0.0000 0.0000 0.0000 21.9745 0.0000
# 6 0.0000 0.0000 0.0000 0.0000 0.0000 15.1246
#
#
#
# Elastic Compliance Matrix: (Units=1/GPa)
#
#
# Indices 1 2 3 4 5 6 
#
# 1 0.015544 -0.000389 -0.007471 0.000000 0.000000 0.000000
# 2 -0.000389 0.074309 0.006968 0.000000 0.000000 0.000000
# 3 -0.007471 0.006968 0.014426 0.000000 0.000000 0.000000
# 4 0.000000 0.000000 0.000000 0.054081 0.000000 0.000000
# 5 0.000000 0.000000 0.000000 0.000000 0.045507 0.000000
# 6 0.000000 0.000000 0.000000 0.000000 0.000000 0.066117
#
#
# Mechanical properties :
#
#
# Convention : Reuss Voigt Hill
#
# Bulk Modulus (GPa) = 9.75661 29.64526 19.70094
# Shear Modulus (GPa) = 16.34350 22.11458 19.22904
#
# Velocity S-wave (km/s) = 3.09565 3.60096 3.35782
# Velocity P-wave (km/s) = 4.30095 5.88828 5.15606
#
# Compressibility (1/GPa) = 0.10249465
#
# Stress axis : x y z
#
# Youngs Moduli (GPa) = 64.33501 13.45734 69.32168
#
# Poissons Ratio (x) = 0.00524 0.51788
# Poissons Ratio (y) = 0.02505 -0.48306
# Poissons Ratio (z) = 0.48063 -0.09378
#
# Static dielectric constant tensor:
#      x y z
#    x 1.561780 0.000000 0.000000 
#    y 0.000000 1.631300 0.000000 
#    z 0.000000 0.000000 1.596560 
# 
# From -- ./inp_files/24982.got.cif
#   From: 2010.05.17/outbox.cif.g08.bks.cpg/sg62_13_cif.got.tgz:24982.got - 2010.06.03 15:25:27.
