data_PCOD9461701
_publ_section_title
;
Structure prediction by ZEFSAII (Michael W. Deem and Ramdas Pophale) SiO2 
 PCOD9461701
Probable space group: P N M A
;
_chemical_formula_sum "Si O2"
_cell_formula_units_Z 56
_cell_length_a 14.296736
_cell_length_b 7.651111
_cell_length_c 21.506740
_cell_angle_alpha 90.000000
_cell_angle_beta 90.000000
_cell_angle_gamma 90.000000
_cell_volume 2352.534414
_symmetry_space_group_name_H-M "P N M A"
_symmetry_group_IT_number 62
_symmetry_cell_setting 'orthorhombic'
loop_
_space_group_symop_operation_xyz
x,y,z
1/2-x,-y,1/2+z
1/2+x,1/2-y,1/2-z
-x,1/2+y,-z
-x,-y,-z
1/2+x,y,1/2-z
1/2-x,1/2+y,1/2+z
x,1/2-y,z
loop_
_atom_site_type_symbol
_atom_site_label
_atom_site_fract_x
_atom_site_fract_y
_atom_site_fract_z
Si Si1 0.305895 0.465127 0.068514
Si Si2 0.334399 0.554531 0.664929
Si Si3 0.489119 0.537859 0.898511
Si Si4 0.509943 0.457174 0.243173
Si Si5 0.216252 0.954500 0.434333
Si Si6 0.023051 0.553084 0.069221
Si Si7 0.351539 0.948022 0.335907
O O1 0.301861 0.250000 0.069302
O O2 0.256032 0.526610 0.132048
O O3 0.414228 0.516450 0.069877
O O4 0.259828 0.524111 0.003258
O O5 0.308012 0.750000 0.686411
O O6 0.401830 0.469664 0.716842
O O7 0.403828 0.564827 0.605598
O O8 0.485279 0.750000 0.900018
O O9 0.492123 0.478419 0.826760
O O10 0.394775 0.467550 0.928139
O O11 0.525795 0.250000 0.241436
O O12 0.410932 0.479526 0.278375
O O13 0.243989 0.750000 0.434469
O O14 0.263573 0.032182 0.371875
O O15 0.060327 0.750000 0.070865
O O16 0.928407 0.550828 0.109104
O O17 0.000000 0.500000 0.000000
O O18 0.326529 0.750000 0.317719
#
# Coordination Sequence:
#
# PCOD9461701 Si02
#       7
#     8   8   8   8   8   8   8
#     4   9  18  34  55  75 102 140 178 214 261 314
#     4   9  17  32  52  73 100 136 173 212 257 310
#     4  10  21  36  54  78 106 139 177 219 261 307
#     4   9  19  34  54  81 108 134 170 211 259 312
#     4  10  20  35  54  76 101 137 180 218 259 308
#     4  10  18  29  47  73 104 136 169 210 258 311
#     4   9  19  34  52  74 103 138 175 212 256 310
#
# _framework density 23.804114999999999
#
# number of rings (size 3 to 8) (size 9 to 14) (size 15 to 20)
#    0.000    2.571    0.000    1.714    0.000    5.143 
#    0.000    5.714    0.000    0.000    0.000    0.000 
#    0.000    0.000    0.000    0.000    0.000    0.000 
#
# Total GULP energy -312458.821875 kJ/mol
# GULP energy per Si atom -5579.621819 kJ/mol
# Density = 2.374994 g / cm^3
# Si number density = 23.804115 Si / 1000 Ang^3
#
#
#
# Elastic Constant Matrix: (Units=GPa)
#
#
# Indices 1 2 3 4 5 6 
#
# 1 88.1866 -4.9397 6.2431 0.0000 0.0000 0.0000
# 2 -4.9397 52.9734 -3.3761 0.0000 0.0000 0.0000
# 3 6.2431 -3.3761 115.5243 0.0000 0.0000 0.0000
# 4 0.0000 0.0000 0.0000 -38.3186 0.0000 0.0000
# 5 0.0000 0.0000 0.0000 0.0000 32.7824 0.0000
# 6 0.0000 0.0000 0.0000 0.0000 0.0000 22.4928
#
#
#
# Elastic Compliance Matrix: (Units=1/GPa)
#
#
# Indices 1 2 3 4 5 6 
#
# 1 0.011439 0.001029 -0.000588 0.000000 0.000000 0.000000
# 2 0.001029 0.019005 0.000500 0.000000 0.000000 0.000000
# 3 -0.000588 0.000500 0.008703 0.000000 0.000000 0.000000
# 4 0.000000 0.000000 0.000000 -0.026097 0.000000 0.000000
# 5 0.000000 0.000000 0.000000 0.000000 0.030504 0.000000
# 6 0.000000 0.000000 0.000000 0.000000 0.000000 0.044459
#
#
# Mechanical properties :
#
#
# Convention : Reuss Voigt Hill
#
# Bulk Modulus (GPa) = 24.37335 28.05987 26.21661
# Shear Modulus (GPa) = 50.09670 20.64178 35.36924
#
# Velocity S-wave (km/s) = 4.59250 2.94794 3.85885
# Velocity P-wave (km/s) = 6.19539 4.83741 5.55803
#
# Compressibility (1/GPa) = 0.04102842
#
# Stress axis : x y z
#
# Youngs Moduli (GPa) = 87.42118 52.61713 114.90850
#
# Poissons Ratio (x) = -0.05415 0.06758
# Poissons Ratio (y) = -0.08997 -0.05743
# Poissons Ratio (z) = 0.05141 -0.02630
#
# Static dielectric constant tensor:
#      x y z
#    x 1.936700 0.000000 0.000000 
#    y 0.000000 1.924190 0.000000 
#    z 0.000000 0.000000 1.909820 
# 
# From -- ./inp_files/27257.got.cif
#   From: 2010.05.17/outbox.cif.g08.bks.cpg/sg62_14_cif.got.tgz:27257.got - 2010.06.03 15:25:27.
