data_PCOD9461202
_publ_section_title
;
Structure prediction by ZEFSAII (Michael W. Deem and Ramdas Pophale) SiO2 
 PCOD9461202
Probable space group: P B C A
;
_chemical_formula_sum "Si O2"
_cell_formula_units_Z 40
_cell_length_a 15.099652
_cell_length_b 13.706665
_cell_length_c 7.083909
_cell_angle_alpha 90.000000
_cell_angle_beta 90.000000
_cell_angle_gamma 90.000000
_cell_volume 1466.127400
_symmetry_space_group_name_H-M "P B C A"
_symmetry_group_IT_number 61
_symmetry_cell_setting 'orthorhombic'
loop_
_space_group_symop_operation_xyz
x,y,z
1/2-x,-y,1/2+z
1/2+x,1/2-y,-z
-x,1/2+y,1/2-z
-x,-y,-z
1/2+x,y,1/2-z
1/2-x,1/2+y,z
x,1/2-y,1/2+z
loop_
_atom_site_type_symbol
_atom_site_label
_atom_site_fract_x
_atom_site_fract_y
_atom_site_fract_z
Si Si1 0.573432 0.787484 0.180391
Si Si2 0.896548 0.875918 0.179122
Si Si3 0.269956 0.130585 0.583468
Si Si4 0.038136 0.910848 0.691620
Si Si5 0.333874 0.581674 0.225112
O O1 0.483245 0.813542 0.288594
O O2 0.656356 0.803575 0.317583
O O3 0.562952 0.671293 0.154935
O O4 0.573724 0.862894 0.003670
O O5 0.821376 0.841787 0.318262
O O6 0.856604 0.866865 0.971348
O O7 0.798076 0.023161 0.843507
O O8 0.240128 0.124243 0.365129
O O9 0.077919 0.012393 0.765606
O O10 0.931441 0.924630 0.677231
#
# Coordination Sequence:
#
# PCOD9461202 Si02
#       5
#     8   8   8   8   8
#     4  12  28  52  80 124 171 220 281 348 422 506
#     4  12  26  52  82 117 166 222 271 349 421 499
#     4  12  26  48  78 122 157 211 283 338 409 508
#     4  12  27  52  82 118 169 224 282 347 427 500
#     4  12  25  47  85 115 161 215 275 342 418 493
#
# _framework density 27.282758999999999
#
# number of rings (size 3 to 8) (size 9 to 14) (size 15 to 20)
#    0.000    0.000    6.000    3.600    2.800    0.000 
#    7.200    0.000    0.000    0.000    0.000    0.000 
#    0.000    0.000    0.000    0.000    0.000    0.000 
#
# Total GULP energy -224458.063386 kJ/mol
# GULP energy per Si atom -5611.451585 kJ/mol
# Density = 2.722066 g / cm^3
# Si number density = 27.282759 Si / 1000 Ang^3
#
#
#
# Elastic Constant Matrix: (Units=GPa)
#
#
# Indices 1 2 3 4 5 6 
#
# 1 178.1824 51.3140 45.8241 0.0000 0.0000 0.0000
# 2 51.3140 147.2784 24.7121 0.0000 0.0000 0.0000
# 3 45.8241 24.7121 145.8095 0.0000 0.0000 0.0000
# 4 0.0000 0.0000 0.0000 17.7035 0.0000 0.0000
# 5 0.0000 0.0000 0.0000 0.0000 60.4407 0.0000
# 6 0.0000 0.0000 0.0000 0.0000 0.0000 25.2410
#
#
#
# Elastic Compliance Matrix: (Units=1/GPa)
#
#
# Indices 1 2 3 4 5 6 
#
# 1 0.006643 -0.002022 -0.001745 0.000000 0.000000 0.000000
# 2 -0.002022 0.007604 -0.000653 0.000000 0.000000 0.000000
# 3 -0.001745 -0.000653 0.007517 0.000000 0.000000 0.000000
# 4 0.000000 0.000000 0.000000 0.056486 0.000000 0.000000
# 5 0.000000 0.000000 0.000000 0.000000 0.016545 0.000000
# 6 0.000000 0.000000 0.000000 0.000000 0.000000 0.039618
#
#
# Mechanical properties :
#
#
# Convention : Reuss Voigt Hill
#
# Bulk Modulus (GPa) = 77.37494 79.44121 78.40807
# Shear Modulus (GPa) = 33.88394 43.97171 38.92783
#
# Velocity S-wave (km/s) = 3.52796 4.01896 3.78144
# Velocity P-wave (km/s) = 6.70949 7.12158 6.91861
#
# Compressibility (1/GPa) = 0.01292408
#
# Stress axis : x y z
#
# Youngs Moduli (GPa) = 150.52790 131.51131 133.02391
#
# Poissons Ratio (x) = 0.26589 0.23215
# Poissons Ratio (y) = 0.30434 0.08691
# Poissons Ratio (z) = 0.26269 0.08592
#
# Static dielectric constant tensor:
#      x y z
#    x 2.099430 0.000000 0.000000 
#    y 0.000000 2.120370 0.000000 
#    z 0.000000 0.000000 2.193470 
# 
# From -- ./inp_files/2149.got.cif
#   From: 2010.05.17/outbox.cif.g08.bks.cpg/sg61_2_cif.got.tgz:2149.got - 2010.06.03 15:17:17.
