data_PCOD9461401
_publ_section_title
;
Structure prediction by ZEFSAII (Michael W. Deem and Ramdas Pophale) SiO2 
 PCOD9461401
Probable space group: P N M A
;
_chemical_formula_sum "Si O2"
_cell_formula_units_Z 64
_cell_length_a 19.709317
_cell_length_b 7.434186
_cell_length_c 24.121878
_cell_angle_alpha 90.000000
_cell_angle_beta 90.000000
_cell_angle_gamma 90.000000
_cell_volume 3534.403381
_symmetry_space_group_name_H-M "P N M A"
_symmetry_group_IT_number 62
_symmetry_cell_setting 'orthorhombic'
loop_
_space_group_symop_operation_xyz
x,y,z
1/2-x,-y,1/2+z
1/2+x,1/2-y,1/2-z
-x,1/2+y,-z
-x,-y,-z
1/2+x,y,1/2-z
1/2-x,1/2+y,1/2+z
x,1/2-y,z
loop_
_atom_site_type_symbol
_atom_site_label
_atom_site_fract_x
_atom_site_fract_y
_atom_site_fract_z
Si Si1 0.350522 0.029745 0.555047
Si Si2 0.984546 0.029373 0.756509
Si Si3 0.364062 0.460291 0.431056
Si Si4 0.252644 0.469888 0.650316
Si Si5 0.699411 0.960121 0.681274
Si Si6 0.378327 0.955327 0.207575
Si Si7 0.666814 0.966735 0.239538
Si Si8 0.489268 0.467280 0.615022
O O1 0.351683 0.250000 0.554582
O O2 0.348868 0.965292 0.491862
O O3 0.287281 0.974966 0.593185
O O4 0.420265 0.973609 0.585160
O O5 0.986480 0.250000 0.756652
O O6 0.910654 0.973159 0.735167
O O7 0.992284 0.974053 0.820834
O O8 0.048158 0.964761 0.720349
O O9 0.345489 0.250000 0.433591
O O10 0.324786 0.535508 0.377564
O O11 0.443792 0.474491 0.417559
O O12 0.250888 0.250000 0.651197
O O13 0.177115 0.534672 0.665468
O O14 0.301619 0.524027 0.701262
O O15 0.680546 0.750000 0.683523
O O16 0.660432 0.047486 0.733051
O O17 0.779273 0.976375 0.693263
O O18 0.389846 0.750000 0.189540
O O19 0.666202 0.750000 0.239980
O O20 0.488766 0.250000 0.615558
#
# Coordination Sequence:
#
# PCOD9461401 Si02
#       8
#     8   8   8   8   8   8   8   8
#     4   9  16  27  42  60  83 114 148 176 205 242
#     4   9  15  25  44  69  87 104 134 174 216 255
#     4  10  20  30  40  57  86 119 147 175 203 240
#     4   8  13  23  41  62  79 102 137 173 206 242
#     4  10  19  29  39  58  86 114 143 174 207 245
#     4   9  16  27  46  66  84 106 136 174 217 258
#     4   9  16  28  46  63  81 106 138 176 216 253
#     4  10  17  27  44  63  85 113 145 175 204 245
#
# _framework density 18.107724999999999
#
# number of rings (size 3 to 8) (size 9 to 14) (size 15 to 20)
#    0.000    2.750    2.500    1.500    0.000    0.500 
#    0.000    1.250    0.000    3.000    0.000    0.875 
#    0.000    0.000    0.000    0.000    0.000    0.000 
#
# Total GULP energy -356940.865568 kJ/mol
# GULP energy per Si atom -5577.201024 kJ/mol
# Density = 1.806651 g / cm^3
# Si number density = 18.107725 Si / 1000 Ang^3
#
#
#
# Elastic Constant Matrix: (Units=GPa)
#
#
# Indices 1 2 3 4 5 6 
#
# 1 78.4337 -5.9598 13.9697 0.0000 0.0000 0.0000
# 2 -5.9598 55.9061 -2.7907 0.0000 0.0000 0.0000
# 3 13.9697 -2.7907 57.8068 0.0000 0.0000 0.0000
# 4 0.0000 0.0000 0.0000 3.4358 0.0000 0.0000
# 5 0.0000 0.0000 0.0000 0.0000 19.7689 0.0000
# 6 0.0000 0.0000 0.0000 0.0000 0.0000 -0.3773
#
#
#
# Elastic Compliance Matrix: (Units=1/GPa)
#
#
# Indices 1 2 3 4 5 6 
#
# 1 0.013413 0.001271 -0.003180 0.000000 0.000000 0.000000
# 2 0.001271 0.018051 0.000564 0.000000 0.000000 0.000000
# 3 -0.003180 0.000564 0.018095 0.000000 0.000000 0.000000
# 4 0.000000 0.000000 0.000000 0.291051 0.000000 0.000000
# 5 0.000000 0.000000 0.000000 0.000000 0.050585 0.000000
# 6 0.000000 0.000000 0.000000 0.000000 0.000000 -2.650403
#
#
# Mechanical properties :
#
#
# Convention : Reuss Voigt Hill
#
# Bulk Modulus (GPa) = 21.33613 22.50947 21.92280
# Shear Modulus (GPa) = -2.23125 17.02730 7.39803
#
# Velocity S-wave (km/s) = -1.11125 3.06981 2.02347
# Velocity P-wave (km/s) = 3.18778 5.00228 4.19433
#
# Compressibility (1/GPa) = 0.04686885
#
# Stress axis : x y z
#
# Youngs Moduli (GPa) = 74.55685 55.39918 55.26479
#
# Poissons Ratio (x) = -0.07042 0.17574
# Poissons Ratio (y) = -0.09477 -0.03118
# Poissons Ratio (z) = 0.23709 -0.03126
#
# Static dielectric constant tensor:
#      x y z
#    x 1.627240 0.000000 0.000000 
#    y 0.000000 1.672740 0.000000 
#    z 0.000000 0.000000 1.605460 
# 
# From -- ./inp_files/27907.got.cif
#   From: 2010.05.17/outbox.cif.g08.bks.cpg/sg62_14_cif.got.tgz:27907.got - 2010.06.03 15:25:27.
