data_PCOD9461694
_publ_section_title
;
Structure prediction by ZEFSAII (Michael W. Deem and Ramdas Pophale) SiO2 
 PCOD9461694
Probable space group: P N M A
;
_chemical_formula_sum "Si O2"
_cell_formula_units_Z 56
_cell_length_a 21.448222
_cell_length_b 8.918007
_cell_length_c 18.546452
_cell_angle_alpha 90.000000
_cell_angle_beta 90.000000
_cell_angle_gamma 90.000000
_cell_volume 3547.479912
_symmetry_space_group_name_H-M "P N M A"
_symmetry_group_IT_number 62
_symmetry_cell_setting 'orthorhombic'
loop_
_space_group_symop_operation_xyz
x,y,z
1/2-x,-y,1/2+z
1/2+x,1/2-y,1/2-z
-x,1/2+y,-z
-x,-y,-z
1/2+x,y,1/2-z
1/2-x,1/2+y,1/2+z
x,1/2-y,z
loop_
_atom_site_type_symbol
_atom_site_label
_atom_site_fract_x
_atom_site_fract_y
_atom_site_fract_z
Si Si1 0.752046 0.928037 0.425699
Si Si2 0.251924 0.571544 0.419507
Si Si3 0.685588 0.577838 0.796498
Si Si4 0.374450 0.429076 0.660226
Si Si5 0.315815 0.921977 0.792772
Si Si6 0.496928 0.569687 0.420521
Si Si7 0.624707 0.930971 0.651770
O O1 0.753400 0.750000 0.438052
O O2 0.684182 0.967394 0.391579
O O3 0.760766 0.014727 0.500059
O O4 0.802501 0.975694 0.365577
O O5 0.257866 0.750000 0.416715
O O6 0.198662 0.516300 0.364137
O O7 0.316513 0.496365 0.392344
O O8 0.674015 0.750000 0.818623
O O9 0.750505 0.576425 0.751615
O O10 0.635453 0.531265 0.736287
O O11 0.371484 0.250000 0.671635
O O12 0.364762 0.509513 0.736667
O O13 0.439051 0.465997 0.621465
O O14 0.330121 0.750000 0.810801
O O15 0.500000 0.500000 0.500000
O O16 0.491202 0.750000 0.424960
O O17 0.438131 0.499908 0.379351
O O18 0.625377 0.750000 0.645413
#
# Coordination Sequence:
#
# PCOD9461694 Si02
#       7
#     8   8   8   8   8   8   8
#     4  10  18  29  47  70  96 123 154 194 237 280
#     4  11  20  30  47  70  97 126 156 192 238 286
#     4   8  16  30  46  65  90 120 153 192 237 282
#     4   9  19  33  47  66  94 127 160 195 232 274
#     4   9  17  30  48  68  91 120 155 194 235 280
#     4  11  22  34  49  70  98 131 166 199 232 273
#     4  10  20  34  49  67  95 127 162 200 235 277
#
# _framework density 15.785852999999999
#
# number of rings (size 3 to 8) (size 9 to 14) (size 15 to 20)
#    0.000    2.286    0.000    4.714    0.000    6.857 
#    0.000    0.000    0.000    0.000    0.000    1.000 
#    0.000    0.000    0.000    0.000    0.000    0.000 
#
# Total GULP energy -312312.679961 kJ/mol
# GULP energy per Si atom -5577.012142 kJ/mol
# Density = 1.574992 g / cm^3
# Si number density = 15.785853 Si / 1000 Ang^3
#
#
#
# Elastic Constant Matrix: (Units=GPa)
#
#
# Indices 1 2 3 4 5 6 
#
# 1 76.7823 43.9283 64.0341 0.0000 0.0000 0.0000
# 2 43.9283 86.8964 72.6009 0.0000 0.0000 0.0000
# 3 64.0341 72.6009 130.2010 0.0000 0.0000 0.0000
# 4 0.0000 0.0000 0.0000 31.8936 0.0000 0.0000
# 5 0.0000 0.0000 0.0000 0.0000 24.3928 0.0000
# 6 0.0000 0.0000 0.0000 0.0000 0.0000 21.0737
#
#
#
# Elastic Compliance Matrix: (Units=1/GPa)
#
#
# Indices 1 2 3 4 5 6 
#
# 1 0.022814 -0.004042 -0.008966 0.000000 0.000000 0.000000
# 2 -0.004042 0.022261 -0.010425 0.000000 0.000000 0.000000
# 3 -0.008966 -0.010425 0.017903 0.000000 0.000000 0.000000
# 4 0.000000 0.000000 0.000000 0.031354 0.000000 0.000000
# 5 0.000000 0.000000 0.000000 0.000000 0.040996 0.000000
# 6 0.000000 0.000000 0.000000 0.000000 0.000000 0.047453
#
#
# Mechanical properties :
#
#
# Convention : Reuss Voigt Hill
#
# Bulk Modulus (GPa) = 62.06626 72.77849 67.42238
# Shear Modulus (GPa) = 21.27492 23.02645 22.15068
#
# Velocity S-wave (km/s) = 3.67511 3.82341 3.74999
# Velocity P-wave (km/s) = 7.57705 8.10524 7.84559
#
# Compressibility (1/GPa) = 0.01611181
#
# Stress axis : x y z
#
# Youngs Moduli (GPa) = 43.83310 44.92092 55.85524
#
# Poissons Ratio (x) = 0.18155 0.50082
# Poissons Ratio (y) = 0.17716 0.58231
# Poissons Ratio (z) = 0.39303 0.46832
#
# Static dielectric constant tensor:
#      x y z
#    x 1.511210 0.000000 0.000000 
#    y 0.000000 1.528330 0.000000 
#    z 0.000000 0.000000 1.522150 
# 
# From -- ./inp_files/20374.got.cif
#   From: 2010.05.17/outbox.cif.g08.bks.cpg/sg62_11_cif.got.tgz:20374.got - 2010.06.03 15:25:27.
