data_PCOD9461027
_publ_section_title
;
Structure prediction by ZEFSAII (Michael W. Deem and Ramdas Pophale) SiO2 
 PCOD9461027
Probable space group: P B C A
;
_chemical_formula_sum "Si O2"
_cell_formula_units_Z 56
_cell_length_a 18.435878
_cell_length_b 7.288185
_cell_length_c 15.738872
_cell_angle_alpha 90.000000
_cell_angle_beta 90.000000
_cell_angle_gamma 90.000000
_cell_volume 2114.739206
_symmetry_space_group_name_H-M "P B C A"
_symmetry_group_IT_number 61
_symmetry_cell_setting 'orthorhombic'
loop_
_space_group_symop_operation_xyz
x,y,z
1/2-x,-y,1/2+z
1/2+x,1/2-y,-z
-x,1/2+y,1/2-z
-x,-y,-z
1/2+x,y,1/2-z
1/2-x,1/2+y,z
x,1/2-y,1/2+z
loop_
_atom_site_type_symbol
_atom_site_label
_atom_site_fract_x
_atom_site_fract_y
_atom_site_fract_z
Si Si1 0.808296 0.008933 0.736831
Si Si2 0.808072 0.083818 0.484740
Si Si3 0.994673 0.568819 0.814468
Si Si4 0.357038 0.039935 0.477820
Si Si5 0.934817 0.550359 0.352941
Si Si6 0.661140 0.603717 0.293022
Si Si7 0.386946 0.672581 0.408929
O O1 0.856367 0.909285 0.809191
O O2 0.724674 0.022560 0.758221
O O3 0.837404 0.215297 0.736212
O O4 0.822641 0.897660 0.651902
O O5 0.840826 0.248404 0.541529
O O6 0.724268 0.036371 0.501317
O O7 0.814914 0.154886 0.388753
O O8 0.860690 0.909241 0.500561
O O9 0.983487 0.767467 0.856138
O O10 0.915573 0.487685 0.800867
O O11 0.043489 0.432446 0.871520
O O12 0.028005 0.575218 0.719325
O O13 0.413551 0.031304 0.556643
O O14 0.389497 0.891613 0.412334
#
# Coordination Sequence:
#
# PCOD9461027 Si02
#       7
#     8   8   8   8   8   8   8
#     4  11  25  45  75 112 139 194 258 315 372 443
#     4  12  24  45  77 111 147 199 248 316 366 455
#     4  11  26  48  73 105 155 193 244 314 373 457
#     4  12  25  46  77 110 148 196 257 308 377 457
#     4  11  23  47  71 105 143 195 247 299 374 447
#     4  12  23  45  78 107 145 199 252 309 373 451
#     4  11  28  50  71 113 157 191 250 318 390 436
#
# _framework density 26.480805
#
# number of rings (size 3 to 8) (size 9 to 14) (size 15 to 20)
#    0.000    0.571    4.286    3.429    2.000    2.286 
#   12.857    1.429    0.000    0.000    0.000    0.000 
#    0.000    0.000    0.000    0.000    0.000    0.000 
#
# Total GULP energy -313966.673402 kJ/mol
# GULP energy per Si atom -5606.547739 kJ/mol
# Density = 2.642053 g / cm^3
# Si number density = 26.480805 Si / 1000 Ang^3
#
#
#
# Elastic Constant Matrix: (Units=GPa)
#
#
# Indices 1 2 3 4 5 6 
#
# 1 149.4486 21.0709 12.2665 0.0000 0.0000 0.0000
# 2 21.0709 97.1716 -20.2168 0.0000 0.0000 0.0000
# 3 12.2665 -20.2168 72.9033 0.0000 0.0000 0.0000
# 4 0.0000 0.0000 0.0000 31.1913 0.0000 0.0000
# 5 0.0000 0.0000 0.0000 0.0000 36.5628 0.0000
# 6 0.0000 0.0000 0.0000 0.0000 0.0000 47.7822
#
#
#
# Elastic Compliance Matrix: (Units=1/GPa)
#
#
# Indices 1 2 3 4 5 6 
#
# 1 0.007100 -0.001898 -0.001721 0.000000 0.000000 0.000000
# 2 -0.001898 0.011428 0.003488 0.000000 0.000000 0.000000
# 3 -0.001721 0.003488 0.014974 0.000000 0.000000 0.000000
# 4 0.000000 0.000000 0.000000 0.032060 0.000000 0.000000
# 5 0.000000 0.000000 0.000000 0.000000 0.027350 0.000000
# 6 0.000000 0.000000 0.000000 0.000000 0.000000 0.020928
#
#
# Mechanical properties :
#
#
# Convention : Reuss Voigt Hill
#
# Bulk Modulus (GPa) = 30.08229 38.41828 34.25028
# Shear Modulus (GPa) = 39.94196 43.53411 41.73803
#
# Velocity S-wave (km/s) = 3.88794 4.05901 3.97440
# Velocity P-wave (km/s) = 5.61600 6.04209 5.83294
#
# Compressibility (1/GPa) = 0.03324215
#
# Stress axis : x y z
#
# Youngs Moduli (GPa) = 140.84393 87.50170 66.78356
#
# Poissons Ratio (x) = 0.16605 0.11493
# Poissons Ratio (y) = 0.26727 -0.23297
# Poissons Ratio (z) = 0.24237 -0.30525
#
# Static dielectric constant tensor:
#      x y z
#    x 2.061910 0.000000 0.000000 
#    y 0.000000 2.078250 0.000000 
#    z 0.000000 0.000000 2.121810 
# 
# From -- ./inp_files/8361.got.cif
#   From: 2010.05.17/outbox.cif.g08.bks.cpg/sg61_5_cif.got.tgz:8361.got - 2010.06.03 15:17:17.
