data_PCOD9461811
_publ_section_title
;
Structure prediction by ZEFSAII (Michael W. Deem and Ramdas Pophale) SiO2 
 PCOD9461811
Probable space group: P N M A
;
_chemical_formula_sum "Si O2"
_cell_formula_units_Z 44
_cell_length_a 14.279176
_cell_length_b 10.615673
_cell_length_c 12.371609
_cell_angle_alpha 90.000000
_cell_angle_beta 90.000000
_cell_angle_gamma 90.000000
_cell_volume 1875.326388
_symmetry_space_group_name_H-M "P N M A"
_symmetry_group_IT_number 62
_symmetry_cell_setting 'orthorhombic'
loop_
_space_group_symop_operation_xyz
x,y,z
1/2-x,-y,1/2+z
1/2+x,1/2-y,1/2-z
-x,1/2+y,-z
-x,-y,-z
1/2+x,y,1/2-z
1/2-x,1/2+y,1/2+z
x,1/2-y,z
loop_
_atom_site_type_symbol
_atom_site_label
_atom_site_fract_x
_atom_site_fract_y
_atom_site_fract_z
Si Si1 0.313145 0.250000 0.287738
Si Si2 0.959281 0.524006 0.732850
Si Si3 0.323403 0.750000 0.169462
Si Si4 0.103080 0.017664 0.047654
Si Si5 0.546879 0.750000 0.144206
Si Si6 0.167637 0.750000 0.026782
Si Si7 0.970776 0.250000 0.394034
Si Si8 0.173742 0.020928 0.817676
O O1 0.366934 0.250000 0.403770
O O2 0.380168 0.250000 0.184752
O O3 0.270609 0.390133 0.298744
O O4 0.905732 0.583253 0.836861
O O5 0.970621 0.625287 0.637501
O O6 0.923929 0.386793 0.692303
O O7 0.066130 0.503201 0.778286
O O8 0.434412 0.750000 0.160132
O O9 0.277771 0.750000 0.051027
O O10 0.292884 0.869490 0.240045
O O11 0.131277 0.876232 0.077415
O O12 0.167063 0.057263 0.945264
O O13 0.000000 0.000000 0.000000
O O14 0.562992 0.750000 0.016336
#
# Coordination Sequence:
#
# PCOD9461811 Si02
#       8
#     4   8   4   8   4   4   4   8
#     4   8  16  33  55  74  98 137 179 227 273 313
#     4   9  17  29  49  78 107 133 172 224 281 330
#     4  10  20  33  51  77 109 152 183 205 263 348
#     4   9  17  31  55  82 104 134 178 237 287 323
#     4  10  19  32  48  74 112 146 178 222 273 343
#     4  10  19  34  54  76 109 150 187 224 279 348
#     4  10  18  30  50  79 106 135 177 234 292 320
#     4   8  16  30  52  78 107 138 172 215 272 332
#
# _framework density 23.462582999999999
#
# number of rings (size 3 to 8) (size 9 to 14) (size 15 to 20)
#    0.000    2.909    0.000    2.182    0.000    2.909 
#    0.000    3.636    0.000   14.182    0.000    0.000 
#    0.000    0.000    0.000    0.000    0.000    0.000 
#
# Total GULP energy -245085.867275 kJ/mol
# GULP energy per Si atom -5570.133347 kJ/mol
# Density = 2.340918 g / cm^3
# Si number density = 23.462583 Si / 1000 Ang^3
#
#
#
# Elastic Constant Matrix: (Units=GPa)
#
#
# Indices 1 2 3 4 5 6 
#
# 1 44.5263 -2.3409 19.8881 0.0000 0.0000 0.0000
# 2 -2.3409 89.8451 34.1807 0.0000 0.0000 0.0000
# 3 19.8881 34.1807 173.3985 0.0000 0.0000 0.0000
# 4 0.0000 0.0000 0.0000 49.6554 0.0000 0.0000
# 5 0.0000 0.0000 0.0000 0.0000 25.0350 0.0000
# 6 0.0000 0.0000 0.0000 0.0000 0.0000 8.3665
#
#
#
# Elastic Compliance Matrix: (Units=1/GPa)
#
#
# Indices 1 2 3 4 5 6 
#
# 1 0.023939 0.001804 -0.003101 0.000000 0.000000 0.000000
# 2 0.001804 0.012169 -0.002606 0.000000 0.000000 0.000000
# 3 -0.003101 -0.002606 0.006636 0.000000 0.000000 0.000000
# 4 0.000000 0.000000 0.000000 0.020139 0.000000 0.000000
# 5 0.000000 0.000000 0.000000 0.000000 0.039944 0.000000
# 6 0.000000 0.000000 0.000000 0.000000 0.000000 0.119525
#
#
# Mechanical properties :
#
#
# Convention : Reuss Voigt Hill
#
# Bulk Modulus (GPa) = 28.62285 45.69175 37.15730
# Shear Modulus (GPa) = 20.67795 33.68083 27.17939
#
# Velocity S-wave (km/s) = 2.97192 3.79293 3.40724
# Velocity P-wave (km/s) = 4.89921 6.22080 5.59913
#
# Compressibility (1/GPa) = 0.03493712
#
# Stress axis : x y z
#
# Youngs Moduli (GPa) = 41.77346 82.17931 150.68492
#
# Poissons Ratio (x) = -0.14821 0.46730
# Poissons Ratio (y) = -0.07534 0.39262
# Poissons Ratio (z) = 0.12955 0.21412
#
# Static dielectric constant tensor:
#      x y z
#    x 1.710940 0.000000 0.000000 
#    y 0.000000 1.834750 0.000000 
#    z 0.000000 0.000000 1.860330 
# 
# From -- ./inp_files/14073.got.cif
#   From: 2010.05.17/outbox.cif.g08.bks.cpg/sg62_8_cif.got.tgz:14073.got - 2010.06.03 15:25:27.
