data_PCOD9461821
_publ_section_title
;
Structure prediction by ZEFSAII (Michael W. Deem and Ramdas Pophale) SiO2 
 PCOD9461821
Probable space group: P N M A
;
_chemical_formula_sum "Si O2"
_cell_formula_units_Z 64
_cell_length_a 19.104238
_cell_length_b 8.608875
_cell_length_c 22.414350
_cell_angle_alpha 90.000000
_cell_angle_beta 90.000000
_cell_angle_gamma 90.000000
_cell_volume 3686.398418
_symmetry_space_group_name_H-M "P N M A"
_symmetry_group_IT_number 62
_symmetry_cell_setting 'orthorhombic'
loop_
_space_group_symop_operation_xyz
x,y,z
1/2-x,-y,1/2+z
1/2+x,1/2-y,1/2-z
-x,1/2+y,-z
-x,-y,-z
1/2+x,y,1/2-z
1/2-x,1/2+y,1/2+z
x,1/2-y,z
loop_
_atom_site_type_symbol
_atom_site_label
_atom_site_fract_x
_atom_site_fract_y
_atom_site_fract_z
Si Si1 0.422064 0.438910 0.310138
Si Si2 0.570772 0.565387 0.357677
Si Si3 0.536187 0.566996 0.814612
Si Si4 0.021845 0.062922 0.435863
Si Si5 0.108397 0.934500 0.269728
Si Si6 0.576942 0.433990 0.485511
Si Si7 0.670261 0.565626 0.108861
Si Si8 0.180143 0.935659 0.914729
O O1 0.949890 0.250000 0.319421
O O2 0.493157 0.507988 0.338632
O O3 0.417036 0.491978 0.240853
O O4 0.358211 0.483017 0.352917
O O5 0.568235 0.750000 0.368241
O O6 0.619657 0.534683 0.299983
O O7 0.593348 0.481109 0.417664
O O8 0.571616 0.750000 0.689332
O O9 0.530297 0.506006 0.882344
O O10 0.458080 0.535745 0.789657
O O11 0.020776 0.250000 0.436105
O O12 0.099938 0.006971 0.418935
O O13 0.000000 0.000000 0.500000
O O14 0.089593 0.750000 0.274340
O O15 0.166649 0.964211 0.319500
O O16 0.500000 0.500000 0.500000
O O17 0.575033 0.250000 0.491792
O O18 0.632529 0.503186 0.531516
O O19 0.667615 0.750000 0.099621
O O20 0.741505 0.498732 0.083120
O O21 0.181254 0.750000 0.916705
#
# Coordination Sequence:
#
# PCOD9461821 Si02
#       8
#     8   8   8   8   8   8   8   8
#     4   9  17  30  49  73 102 134 171 215 265 311
#     4  10  18  30  51  77 104 135 175 220 263 308
#     4   8  15  28  48  75 101 128 163 212 261 308
#     4  10  19  33  56  83 109 139 180 226 276 326
#     4   8  16  30  50  75 100 129 165 211 260 308
#     4  12  23  35  51  76 109 146 188 228 268 317
#     4  10  20  36  56  79 108 140 179 223 271 329
#     4  11  22  35  53  77 107 143 181 224 273 327
#
# _framework density 17.361118999999999
#
# number of rings (size 3 to 8) (size 9 to 14) (size 15 to 20)
#    0.000    2.250    1.250    2.625    0.000    2.000 
#    0.000    0.000    2.750    0.000    0.000    0.000 
#    0.000    0.000    0.000    0.000    0.000    0.000 
#
# Total GULP energy -356570.289113 kJ/mol
# GULP energy per Si atom -5571.410767 kJ/mol
# Density = 1.732160 g / cm^3
# Si number density = 17.361119 Si / 1000 Ang^3
#
#
#
# Elastic Constant Matrix: (Units=GPa)
#
#
# Indices 1 2 3 4 5 6 
#
# 1 68.9653 23.5575 53.0658 0.0000 0.0000 0.0000
# 2 23.5575 46.6702 32.7933 0.0000 0.0000 0.0000
# 3 53.0658 32.7933 156.0675 0.0000 0.0000 0.0000
# 4 0.0000 0.0000 0.0000 25.3299 0.0000 0.0000
# 5 0.0000 0.0000 0.0000 0.0000 22.2381 0.0000
# 6 0.0000 0.0000 0.0000 0.0000 0.0000 20.7715
#
#
#
# Elastic Compliance Matrix: (Units=1/GPa)
#
#
# Indices 1 2 3 4 5 6 
#
# 1 0.021253 -0.006629 -0.005834 0.000000 0.000000 0.000000
# 2 -0.006629 0.027206 -0.003463 0.000000 0.000000 0.000000
# 3 -0.005834 -0.003463 0.009119 0.000000 0.000000 0.000000
# 4 0.000000 0.000000 0.000000 0.039479 0.000000 0.000000
# 5 0.000000 0.000000 0.000000 0.000000 0.044968 0.000000
# 6 0.000000 0.000000 0.000000 0.000000 0.000000 0.048143
#
#
# Mechanical properties :
#
#
# Convention : Reuss Voigt Hill
#
# Bulk Modulus (GPa) = 38.86879 54.50402 46.68640
# Shear Modulus (GPa) = 21.68321 24.48700 23.08510
#
# Velocity S-wave (km/s) = 3.53789 3.75967 3.65046
# Velocity P-wave (km/s) = 6.25507 7.09290 6.68712
#
# Compressibility (1/GPa) = 0.02572758
#
# Stress axis : x y z
#
# Youngs Moduli (GPa) = 47.05221 36.75658 109.66605
#
# Poissons Ratio (x) = 0.24365 0.63974
# Poissons Ratio (y) = 0.31190 0.37974
# Poissons Ratio (z) = 0.27448 0.12728
#
# Static dielectric constant tensor:
#      x y z
#    x 1.549720 0.000000 0.000000 
#    y 0.000000 1.585930 0.000000 
#    z 0.000000 0.000000 1.643230 
# 
# From -- ./inp_files/27702.got.cif
#   From: 2010.05.17/outbox.cif.g08.bks.cpg/sg62_14_cif.got.tgz:27702.got - 2010.06.03 15:25:27.
