data_PCOD9461967
_publ_section_title
;
Structure prediction by ZEFSAII (Michael W. Deem and Ramdas Pophale) SiO2 
 PCOD9461967
Probable space group: P N M A
;
_chemical_formula_sum "Si O2"
_cell_formula_units_Z 64
_cell_length_a 14.975922
_cell_length_b 8.820015
_cell_length_c 31.218722
_cell_angle_alpha 90.000000
_cell_angle_beta 90.000000
_cell_angle_gamma 90.000000
_cell_volume 4123.614077
_symmetry_space_group_name_H-M "P N M A"
_symmetry_group_IT_number 62
_symmetry_cell_setting 'orthorhombic'
loop_
_space_group_symop_operation_xyz
x,y,z
1/2-x,-y,1/2+z
1/2+x,1/2-y,1/2-z
-x,1/2+y,-z
-x,-y,-z
1/2+x,y,1/2-z
1/2-x,1/2+y,1/2+z
x,1/2-y,z
loop_
_atom_site_type_symbol
_atom_site_label
_atom_site_fract_x
_atom_site_fract_y
_atom_site_fract_z
Si Si1 0.601343 0.930977 0.450688
Si Si2 0.484316 0.074167 0.318811
Si Si3 0.786380 0.933442 0.290462
Si Si4 0.181494 0.433227 0.868510
Si Si5 0.173285 0.074372 0.133421
Si Si6 0.393039 0.567515 0.457246
Si Si7 0.987334 0.567711 0.273721
Si Si8 0.318383 0.434685 0.796813
O O1 0.606090 0.750000 0.449325
O O2 0.495957 0.973763 0.445234
O O3 0.661073 0.998979 0.412890
O O4 0.627692 0.991350 0.497495
O O5 0.464961 0.250000 0.309267
O O6 0.575358 0.066396 0.345262
O O7 0.404551 0.000998 0.345255
O O8 0.495418 0.981927 0.275318
O O9 0.784122 0.750000 0.290640
O O10 0.889833 0.984172 0.289292
O O11 0.734609 0.982144 0.246637
O O12 0.738177 0.993774 0.332791
O O13 0.176444 0.250000 0.866831
O O14 0.172268 0.476356 0.918331
O O15 0.265539 0.481040 0.839587
O O16 0.198568 0.250000 0.128896
O O17 0.390822 0.750000 0.462218
O O18 0.986600 0.750000 0.276241
O O19 0.078756 0.513763 0.295968
O O20 0.318300 0.250000 0.795930
#
# Coordination Sequence:
#
# PCOD9461967 Si02
#       8
#     8   8   8   8   8   8   8   8
#     4  10  19  31  49  70  95 126 160 196 237 288
#     4  11  21  29  43  68  97 128 160 199 237 274
#     4  10  19  31  50  70  92 126 165 199 235 280
#     4  10  18  32  50  70  95 130 166 193 231 282
#     4  11  22  33  46  68  99 130 163 199 240 284
#     4   9  18  30  47  70  98 127 156 194 237 286
#     4  10  19  33  49  67  94 127 163 202 235 274
#     4   9  17  29  49  72  93 122 163 200 229 274
#
# _framework density 15.520367
#
# number of rings (size 3 to 8) (size 9 to 14) (size 15 to 20)
#    0.000    2.000    3.750    1.125    0.000    2.500 
#    0.000    0.625    0.000    0.000    0.000    0.875 
#    0.000    0.000    0.000    0.000    0.000    0.000 
#
# Total GULP energy -356777.823721 kJ/mol
# GULP energy per Si atom -5574.653496 kJ/mol
# Density = 1.548504 g / cm^3
# Si number density = 15.520367 Si / 1000 Ang^3
#
#
#
# Elastic Constant Matrix: (Units=GPa)
#
#
# Indices 1 2 3 4 5 6 
#
# 1 7.8961 55.1162 114.4169 0.0000 0.0000 0.0000
# 2 55.1162 -10.9671 -16.5744 0.0000 0.0000 0.0000
# 3 114.4169 -16.5744 30.1249 0.0000 0.0000 0.0000
# 4 0.0000 0.0000 0.0000 22.6784 0.0000 0.0000
# 5 0.0000 0.0000 0.0000 0.0000 19.8138 0.0000
# 6 0.0000 0.0000 0.0000 0.0000 0.0000 10.3097
#
#
#
# Elastic Compliance Matrix: (Units=1/GPa)
#
#
# Indices 1 2 3 4 5 6 
#
# 1 0.003741 0.021988 -0.002110 0.000000 0.000000 0.000000
# 2 0.021988 0.079459 -0.039794 0.000000 0.000000 0.000000
# 3 -0.002110 -0.039794 0.019315 0.000000 0.000000 0.000000
# 4 0.000000 0.000000 0.000000 0.044095 0.000000 0.000000
# 5 0.000000 0.000000 0.000000 0.000000 0.050470 0.000000
# 6 0.000000 0.000000 0.000000 0.000000 0.000000 0.096996
#
#
# Mechanical properties :
#
#
# Convention : Reuss Voigt Hill
#
# Bulk Modulus (GPa) = 15.95355 36.99681 26.47518
# Shear Modulus (GPa) = 14.09241 2.16672 8.12956
#
# Velocity S-wave (km/s) = 3.01656 1.18283 2.29115
# Velocity P-wave (km/s) = 4.73649 5.07492 4.90862
#
# Compressibility (1/GPa) = 0.06268199
#
# Stress axis : x y z
#
# Youngs Moduli (GPa) = 267.33425 12.58518 51.77388
#
# Poissons Ratio (x) = -0.27672 0.10924
# Poissons Ratio (y) = -5.87804 2.06027
# Poissons Ratio (z) = 0.56405 0.50081
#
# Static dielectric constant tensor:
#      x y z
#    x 1.542110 0.000000 0.000000 
#    y 0.000000 1.521960 0.000000 
#    z 0.000000 0.000000 1.506890 
# 
# From -- ./inp_files/32685.got.cif
#   From: 2010.05.17/outbox.cif.g08.bks.cpg/sg62_17_cif.got.tgz:32685.got - 2010.06.03 15:25:27.
