data_PCOD9461191
_publ_section_title
;
Structure prediction by ZEFSAII (Michael W. Deem and Ramdas Pophale) SiO2 
 PCOD9461191
Probable space group: P B C A
;
_chemical_formula_sum "Si O2"
_cell_formula_units_Z 48
_cell_length_a 14.023155
_cell_length_b 17.047388
_cell_length_c 9.204332
_cell_angle_alpha 90.000000
_cell_angle_beta 90.000000
_cell_angle_gamma 90.000000
_cell_volume 2200.370711
_symmetry_space_group_name_H-M "P B C A"
_symmetry_group_IT_number 61
_symmetry_cell_setting 'orthorhombic'
loop_
_space_group_symop_operation_xyz
x,y,z
1/2-x,-y,1/2+z
1/2+x,1/2-y,-z
-x,1/2+y,1/2-z
-x,-y,-z
1/2+x,y,1/2-z
1/2-x,1/2+y,z
x,1/2-y,1/2+z
loop_
_atom_site_type_symbol
_atom_site_label
_atom_site_fract_x
_atom_site_fract_y
_atom_site_fract_z
Si Si1 0.098694 0.155873 0.929862
Si Si2 0.510466 0.916972 0.182058
Si Si3 0.502001 0.589608 0.181975
Si Si4 0.275755 0.076515 0.795720
Si Si5 0.290730 0.415572 0.945642
Si Si6 0.599483 0.332639 0.562942
O O1 0.197699 0.138975 0.848696
O O2 0.092977 0.243557 0.989169
O O3 0.016700 0.141144 0.811978
O O4 0.077655 0.093019 0.055854
O O5 0.619975 0.907450 0.139256
O O6 0.496077 0.004920 0.241466
O O7 0.438953 0.894984 0.054044
O O8 0.603914 0.605952 0.109479
O O9 0.467355 0.652853 0.298605
O O10 0.286896 0.074277 0.620811
O O11 0.239355 0.994347 0.860528
O O12 0.209077 0.353058 0.905381
#
# Coordination Sequence:
#
# PCOD9461191 Si02
#       6
#     8   8   8   8   8   8
#     4  12  26  47  70 106 151 188 240 310 371 426
#     4  12  24  48  74 105 142 193 251 297 358 448
#     4  12  25  46  78 105 144 197 248 300 365 446
#     4  12  26  44  77 104 141 190 247 304 360 444
#     4  12  25  46  73 107 139 190 251 301 366 441
#     4  12  28  44  73 109 151 188 245 311 369 430
#
# _framework density 21.814506000000002
#
# number of rings (size 3 to 8) (size 9 to 14) (size 15 to 20)
#    0.000    0.000    6.667    3.000    2.333    2.667 
#    0.000    0.000    0.000    0.000    0.000    0.000 
#    0.000    0.000    0.000    0.000    0.000    0.000 
#
# Total GULP energy -268644.001116 kJ/mol
# GULP energy per Si atom -5596.750023 kJ/mol
# Density = 2.176486 g / cm^3
# Si number density = 21.814506 Si / 1000 Ang^3
#
#
#
# Elastic Constant Matrix: (Units=GPa)
#
#
# Indices 1 2 3 4 5 6 
#
# 1 149.2341 39.4378 32.6204 0.0000 0.0000 0.0000
# 2 39.4378 88.9889 26.7666 0.0000 0.0000 0.0000
# 3 32.6204 26.7666 97.7664 0.0000 0.0000 0.0000
# 4 0.0000 0.0000 0.0000 27.3216 0.0000 0.0000
# 5 0.0000 0.0000 0.0000 0.0000 34.1261 0.0000
# 6 0.0000 0.0000 0.0000 0.0000 0.0000 16.6690
#
#
#
# Elastic Compliance Matrix: (Units=1/GPa)
#
#
# Indices 1 2 3 4 5 6 
#
# 1 0.007877 -0.002943 -0.001823 0.000000 0.000000 0.000000
# 2 -0.002943 0.013345 -0.002672 0.000000 0.000000 0.000000
# 3 -0.001823 -0.002672 0.011568 0.000000 0.000000 0.000000
# 4 0.000000 0.000000 0.000000 0.036601 0.000000 0.000000
# 5 0.000000 0.000000 0.000000 0.000000 0.029303 0.000000
# 6 0.000000 0.000000 0.000000 0.000000 0.000000 0.059992
#
#
# Mechanical properties :
#
#
# Convention : Reuss Voigt Hill
#
# Bulk Modulus (GPa) = 55.81580 59.29321 57.55451
# Shear Modulus (GPa) = 27.85017 31.43430 29.64224
#
# Velocity S-wave (km/s) = 3.57694 3.80014 3.69023
# Velocity P-wave (km/s) = 6.53464 6.81868 6.67817
#
# Compressibility (1/GPa) = 0.01791607
#
# Stress axis : x y z
#
# Youngs Moduli (GPa) = 126.95325 74.93379 86.44495
#
# Poissons Ratio (x) = 0.22051 0.15755
# Poissons Ratio (y) = 0.37358 0.23096
# Poissons Ratio (z) = 0.23138 0.20021
#
# Static dielectric constant tensor:
#      x y z
#    x 1.778640 0.000000 0.000000 
#    y 0.000000 1.765410 0.000000 
#    z 0.000000 0.000000 1.840220 
# 
# From -- ./inp_files/2874.got.cif
#   From: 2010.05.17/outbox.cif.g08.bks.cpg/sg61_2_cif.got.tgz:2874.got - 2010.06.03 15:17:17.
