data_PCOD9461457
_publ_section_title
;
Structure prediction by ZEFSAII (Michael W. Deem and Ramdas Pophale) SiO2 
 PCOD9461457
Probable space group: P N M A
;
_chemical_formula_sum "Si O2"
_cell_formula_units_Z 48
_cell_length_a 20.798840
_cell_length_b 26.176287
_cell_length_c 4.907286
_cell_angle_alpha 90.000000
_cell_angle_beta 90.000000
_cell_angle_gamma 90.000000
_cell_volume 2671.705149
_symmetry_space_group_name_H-M "P N M A"
_symmetry_group_IT_number 62
_symmetry_cell_setting 'orthorhombic'
loop_
_space_group_symop_operation_xyz
x,y,z
1/2-x,-y,1/2+z
1/2+x,1/2-y,1/2-z
-x,1/2+y,-z
-x,-y,-z
1/2+x,y,1/2-z
1/2-x,1/2+y,1/2+z
x,1/2-y,z
loop_
_atom_site_type_symbol
_atom_site_label
_atom_site_fract_x
_atom_site_fract_y
_atom_site_fract_z
Si Si1 0.639899 0.857899 0.935906
Si Si2 0.769240 0.137948 0.938464
Si Si3 0.234346 0.750000 0.185959
Si Si4 0.280379 0.527511 0.948406
Si Si5 0.919702 0.513025 0.814806
Si Si6 0.546705 0.948044 0.816382
Si Si7 0.854115 0.250000 0.318121
O O1 0.701721 0.858322 0.739329
O O2 0.589660 0.898293 0.826750
O O3 0.611072 0.801522 0.902651
O O4 0.669921 0.867454 0.232717
O O5 0.736856 0.193303 0.871455
O O6 0.730958 0.084706 0.937054
O O7 0.210545 0.750000 0.496022
O O8 0.170390 0.750000 0.992067
O O9 0.231988 0.510996 0.702157
O O10 0.350111 0.523880 0.807796
O O11 0.950206 0.469222 0.622610
O O12 0.973164 0.557210 0.783088
O O13 0.920765 0.489930 0.116350
#
# Coordination Sequence:
#
# PCOD9461457 Si02
#       7
#     8   8   4   8   8   8   4
#     4  10  17  30  48  70  92 121 154 192 240 275
#     4  10  19  30  48  70  96 124 155 195 238 284
#     4   8  16  30  44  65  92 123 156 188 231 280
#     4  12  22  32  48  72 101 126 156 200 245 292
#     4  10  21  33  46  69  92 125 161 189 233 285
#     4  10  19  33  50  64  93 126 157 193 230 289
#     4   8  16  26  44  69  92 111 150 198 231 274
#
# _framework density 17.966055000000001
#
# number of rings (size 3 to 8) (size 9 to 14) (size 15 to 20)
#    0.000    2.000    0.000    6.000    0.000    0.000 
#    0.000    0.000    0.000    1.000    0.000    0.000 
#    0.000   24.000    0.000    0.000    0.000    6.667 
#
# Total GULP energy -267306.720473 kJ/mol
# GULP energy per Si atom -5568.890010 kJ/mol
# Density = 1.792516 g / cm^3
# Si number density = 17.966055 Si / 1000 Ang^3
#
#
#
# Elastic Constant Matrix: (Units=GPa)
#
#
# Indices 1 2 3 4 5 6 
#
# 1 71.8033 29.6313 3.2336 0.0000 0.0000 0.0000
# 2 29.6313 109.5208 4.0470 0.0000 0.0000 0.0000
# 3 3.2336 4.0470 75.1466 0.0000 0.0000 0.0000
# 4 0.0000 0.0000 0.0000 23.3345 0.0000 0.0000
# 5 0.0000 0.0000 0.0000 0.0000 21.4229 0.0000
# 6 0.0000 0.0000 0.0000 0.0000 0.0000 16.7155
#
#
#
# Elastic Compliance Matrix: (Units=1/GPa)
#
#
# Indices 1 2 3 4 5 6 
#
# 1 0.015692 -0.004229 -0.000447 0.000000 0.000000 0.000000
# 2 -0.004229 0.010289 -0.000372 0.000000 0.000000 0.000000
# 3 -0.000447 -0.000372 0.013347 0.000000 0.000000 0.000000
# 4 0.000000 0.000000 0.000000 0.042855 0.000000 0.000000
# 5 0.000000 0.000000 0.000000 0.000000 0.046679 0.000000
# 6 0.000000 0.000000 0.000000 0.000000 0.000000 0.059825
#
#
# Mechanical properties :
#
#
# Convention : Reuss Voigt Hill
#
# Bulk Modulus (GPa) = 34.21119 36.69938 35.45528
# Shear Modulus (GPa) = 23.97770 26.93183 25.45476
#
# Velocity S-wave (km/s) = 3.65720 3.87594 3.76816
# Velocity P-wave (km/s) = 6.07593 6.36412 6.22169
#
# Compressibility (1/GPa) = 0.02923021
#
# Stress axis : x y z
#
# Youngs Moduli (GPa) = 63.72548 97.19468 74.92532
#
# Poissons Ratio (x) = 0.41104 0.03353
# Poissons Ratio (y) = 0.26950 0.02788
# Poissons Ratio (z) = 0.02852 0.03617
#
# Static dielectric constant tensor:
#      x y z
#    x 1.632280 0.000000 0.000000 
#    y 0.000000 1.710100 0.000000 
#    z 0.000000 0.000000 1.618590 
# 
# From -- ./inp_files/1769.got.cif
#   From: 2010.05.17/outbox.cif.g08.bks.cpg/sg62_1_cif.got.tgz:1769.got - 2010.06.03 15:25:27.
