data_PCOD9461978
_publ_section_title
;
Structure prediction by ZEFSAII (Michael W. Deem and Ramdas Pophale) SiO2 
 PCOD9461978
Probable space group: P N M A
;
_chemical_formula_sum "Si O2"
_cell_formula_units_Z 64
_cell_length_a 23.734378
_cell_length_b 8.444751
_cell_length_c 19.769299
_cell_angle_alpha 90.000000
_cell_angle_beta 90.000000
_cell_angle_gamma 90.000000
_cell_volume 3962.378635
_symmetry_space_group_name_H-M "P N M A"
_symmetry_group_IT_number 62
_symmetry_cell_setting 'orthorhombic'
loop_
_space_group_symop_operation_xyz
x,y,z
1/2-x,-y,1/2+z
1/2+x,1/2-y,1/2-z
-x,1/2+y,-z
-x,-y,-z
1/2+x,y,1/2-z
1/2-x,1/2+y,1/2+z
x,1/2-y,z
loop_
_atom_site_type_symbol
_atom_site_label
_atom_site_fract_x
_atom_site_fract_y
_atom_site_fract_z
Si Si1 0.940856 0.061648 0.861415
Si Si2 0.336135 0.441238 0.727603
Si Si3 0.269396 0.560535 0.849198
Si Si4 0.617984 0.436181 0.495041
Si Si5 0.745911 0.558391 0.501330
Si Si6 0.565212 0.934889 0.631381
Si Si7 0.341277 0.939268 0.272813
Si Si8 0.224659 0.442430 0.644789
O O1 0.949250 0.250000 0.855186
O O2 0.895002 0.010156 0.805451
O O3 0.913505 0.025260 0.934312
O O4 0.000500 0.976666 0.855526
O O5 0.335155 0.250000 0.731141
O O6 0.320197 0.509096 0.800605
O O7 0.284820 0.489183 0.677526
O O8 0.262418 0.750000 0.845503
O O9 0.212992 0.481102 0.818921
O O10 0.274299 0.513834 0.927656
O O11 0.616753 0.250000 0.480867
O O12 0.682229 0.494646 0.500197
O O13 0.587350 0.470850 0.565894
O O14 0.742653 0.750000 0.499419
O O15 0.776832 0.504741 0.432743
O O16 0.571737 0.750000 0.616355
O O17 0.604681 0.980583 0.694315
O O18 0.348865 0.750000 0.273038
O O19 0.323525 0.993156 0.197350
O O20 0.223639 0.250000 0.645121
#
# Coordination Sequence:
#
# PCOD9461978 Si02
#       8
#     8   8   8   8   8   8   8   8
#     4  11  22  38  55  71  96 135 175 212 250 297
#     4   9  18  33  52  70  96 133 167 204 249 298
#     4  10  19  29  49  75 103 132 163 206 251 296
#     4  12  23  34  49  73 102 136 172 209 243 292
#     4  10  18  32  51  74 102 136 168 202 249 297
#     4  12  24  37  51  71 100 135 171 212 252 296
#     4  10  19  33  51  72  97 131 171 208 248 297
#     4   8  15  30  51  72  96 128 164 202 246 296
#
# _framework density 16.151914999999999
#
# number of rings (size 3 to 8) (size 9 to 14) (size 15 to 20)
#    0.000    1.750    2.500    4.500    0.000    1.500 
#    0.000    0.625    0.000    0.000    0.000    0.875 
#    0.000    0.000    0.000    0.000    0.000    0.000 
#
# Total GULP energy -357203.609867 kJ/mol
# GULP energy per Si atom -5581.306404 kJ/mol
# Density = 1.611515 g / cm^3
# Si number density = 16.151915 Si / 1000 Ang^3
#
#
#
# Elastic Constant Matrix: (Units=GPa)
#
#
# Indices 1 2 3 4 5 6 
#
# 1 61.1762 -8.0228 41.1990 0.0000 0.0000 0.0000
# 2 -8.0228 14.2458 -3.4678 0.0000 0.0000 0.0000
# 3 41.1990 -3.4678 116.5582 0.0000 0.0000 0.0000
# 4 0.0000 0.0000 0.0000 21.3594 0.0000 0.0000
# 5 0.0000 0.0000 0.0000 0.0000 15.1520 0.0000
# 6 0.0000 0.0000 0.0000 0.0000 0.0000 21.4143
#
#
#
# Elastic Compliance Matrix: (Units=1/GPa)
#
#
# Indices 1 2 3 4 5 6 
#
# 1 0.023070 0.011088 -0.007824 0.000000 0.000000 0.000000
# 2 0.011088 0.076037 -0.001657 0.000000 0.000000 0.000000
# 3 -0.007824 -0.001657 0.011296 0.000000 0.000000 0.000000
# 4 0.000000 0.000000 0.000000 0.046818 0.000000 0.000000
# 5 0.000000 0.000000 0.000000 0.000000 0.065998 0.000000
# 6 0.000000 0.000000 0.000000 0.000000 0.000000 0.046698
#
#
# Mechanical properties :
#
#
# Convention : Reuss Voigt Hill
#
# Bulk Modulus (GPa) = 8.80165 27.93299 18.36732
# Shear Modulus (GPa) = 16.41634 22.40328 19.40981
#
# Velocity S-wave (km/s) = 3.19152 3.72833 3.47032
# Velocity P-wave (km/s) = 4.36373 5.98877 5.23964
#
# Compressibility (1/GPa) = 0.11361507
#
# Stress axis : x y z
#
# Youngs Moduli (GPa) = 43.34709 13.15148 88.52899
#
# Poissons Ratio (x) = -0.14582 0.69268
# Poissons Ratio (y) = -0.48061 0.14668
# Poissons Ratio (z) = 0.33916 0.02179
#
# Static dielectric constant tensor:
#      x y z
#    x 1.511920 0.000000 0.000000 
#    y 0.000000 1.549940 0.000000 
#    z 0.000000 0.000000 1.558220 
# 
# From -- ./inp_files/24917.got.cif
#   From: 2010.05.17/outbox.cif.g08.bks.cpg/sg62_13_cif.got.tgz:24917.got - 2010.06.03 15:25:27.
