data_PCOD9461644
_publ_section_title
;
Structure prediction by ZEFSAII (Michael W. Deem and Ramdas Pophale) SiO2 
 PCOD9461644
Probable space group: P N M A
;
_chemical_formula_sum "Si O2"
_cell_formula_units_Z 64
_cell_length_a 30.692036
_cell_length_b 7.645011
_cell_length_c 12.033378
_cell_angle_alpha 90.000000
_cell_angle_beta 90.000000
_cell_angle_gamma 90.000000
_cell_volume 2823.523280
_symmetry_space_group_name_H-M "P N M A"
_symmetry_group_IT_number 62
_symmetry_cell_setting 'orthorhombic'
loop_
_space_group_symop_operation_xyz
x,y,z
1/2-x,-y,1/2+z
1/2+x,1/2-y,1/2-z
-x,1/2+y,-z
-x,-y,-z
1/2+x,y,1/2-z
1/2-x,1/2+y,1/2+z
x,1/2-y,z
loop_
_atom_site_type_symbol
_atom_site_label
_atom_site_fract_x
_atom_site_fract_y
_atom_site_fract_z
Si Si1 0.154485 0.460998 0.864666
Si Si2 0.564632 0.049999 0.282651
Si Si3 0.660560 0.049252 0.286896
Si Si4 0.934515 0.044858 0.027436
Si Si5 0.973157 0.461495 0.262210
Si Si6 0.317741 0.453193 0.953124
Si Si7 0.884388 0.542954 0.367711
Si Si8 0.273615 0.537061 0.528354
O O1 0.152771 0.250000 0.862012
O O2 0.140610 0.525880 0.742936
O O3 0.116931 0.521788 0.949360
O O4 0.200983 0.511232 0.914878
O O5 0.569318 0.250000 0.242070
O O6 0.612402 0.965527 0.278653
O O7 0.522425 0.973610 0.221125
O O8 0.552995 0.048991 0.413907
O O9 0.653034 0.250000 0.325837
O O10 0.696155 0.972485 0.370870
O O11 0.678853 0.049374 0.163207
O O12 0.944310 0.250000 0.014695
O O13 0.956517 0.976870 0.140623
O O14 0.974639 0.250000 0.257200
O O15 0.935486 0.509039 0.348663
O O16 0.310073 0.250000 0.926662
O O17 0.361608 0.467754 0.024139
O O18 0.276340 0.519963 0.023684
O O19 0.878045 0.750000 0.372383
O O20 0.272866 0.750000 0.536384
#
# Coordination Sequence:
#
# PCOD9461644 Si02
#       8
#     8   8   8   8   8   8   8   8
#     4   9  17  34  57  80 109 149 189 226 277 339
#     4  10  19  34  57  80 112 157 196 236 288 345
#     4  10  21  40  62  84 113 150 195 237 281 343
#     4  10  18  28  47  81 121 150 181 231 285 339
#     4   9  19  34  54  83 116 152 194 239 290 343
#     4  11  24  40  60  84 116 152 190 240 293 341
#     4  10  21  37  60  85 114 153 196 239 283 343
#     4   9  19  37  60  84 112 148 186 230 286 342
#
# _framework density 22.666716000000001
#
# number of rings (size 3 to 8) (size 9 to 14) (size 15 to 20)
#    0.000    2.250    1.250    1.500    1.750    2.000 
#    0.000    2.500    0.000    0.000    0.000    0.000 
#    0.000    0.000    0.000    0.000    0.000    0.000 
#
# Total GULP energy -357338.400339 kJ/mol
# GULP energy per Si atom -5583.412505 kJ/mol
# Density = 2.261513 g / cm^3
# Si number density = 22.666716 Si / 1000 Ang^3
#
#
#
# Elastic Constant Matrix: (Units=GPa)
#
#
# Indices 1 2 3 4 5 6 
#
# 1 128.8281 3.9192 14.9700 0.0000 0.0000 0.0000
# 2 3.9192 53.2102 -0.5695 0.0000 0.0000 0.0000
# 3 14.9700 -0.5695 42.2803 0.0000 0.0000 0.0000
# 4 0.0000 0.0000 0.0000 12.9806 0.0000 0.0000
# 5 0.0000 0.0000 0.0000 0.0000 15.3275 0.0000
# 6 0.0000 0.0000 0.0000 0.0000 0.0000 10.0558
#
#
#
# Elastic Compliance Matrix: (Units=1/GPa)
#
#
# Indices 1 2 3 4 5 6 
#
# 1 0.008116 -0.000629 -0.002882 0.000000 0.000000 0.000000
# 2 -0.000629 0.018845 0.000476 0.000000 0.000000 0.000000
# 3 -0.002882 0.000476 0.024679 0.000000 0.000000 0.000000
# 4 0.000000 0.000000 0.000000 0.077038 0.000000 0.000000
# 5 0.000000 0.000000 0.000000 0.000000 0.065242 0.000000
# 6 0.000000 0.000000 0.000000 0.000000 0.000000 0.099445
#
#
# Mechanical properties :
#
#
# Convention : Reuss Voigt Hill
#
# Bulk Modulus (GPa) = 21.94384 28.99533 25.46958
# Shear Modulus (GPa) = 15.89197 21.40605 18.64901
#
# Velocity S-wave (km/s) = 2.65073 3.07641 2.87147
# Velocity P-wave (km/s) = 4.36699 5.04370 4.71749
#
# Compressibility (1/GPa) = 0.04557087
#
# Stress axis : x y z
#
# Youngs Moduli (GPa) = 123.20862 53.06508 40.52098
#
# Poissons Ratio (x) = 0.03336 0.11679
# Poissons Ratio (y) = 0.07746 -0.01931
# Poissons Ratio (z) = 0.35511 -0.02528
#
# Static dielectric constant tensor:
#      x y z
#    x 1.885520 0.000000 0.000000 
#    y 0.000000 1.863940 0.000000 
#    z 0.000000 0.000000 1.808390 
# 
# From -- ./inp_files/15775.got.cif
#   From: 2010.05.17/outbox.cif.g08.bks.cpg/sg62_8_cif.got.tgz:15775.got - 2010.06.03 15:25:27.
