data_PCOD9461597
_publ_section_title
;
Structure prediction by ZEFSAII (Michael W. Deem and Ramdas Pophale) SiO2 
 PCOD9461597
Probable space group: P N M A
;
_chemical_formula_sum "Si O2"
_cell_formula_units_Z 52
_cell_length_a 13.520162
_cell_length_b 8.275403
_cell_length_c 19.136247
_cell_angle_alpha 90.000000
_cell_angle_beta 90.000000
_cell_angle_gamma 90.000000
_cell_volume 2141.054961
_symmetry_space_group_name_H-M "P N M A"
_symmetry_group_IT_number 62
_symmetry_cell_setting 'orthorhombic'
loop_
_space_group_symop_operation_xyz
x,y,z
1/2-x,-y,1/2+z
1/2+x,1/2-y,1/2-z
-x,1/2+y,-z
-x,-y,-z
1/2+x,y,1/2-z
1/2-x,1/2+y,1/2+z
x,1/2-y,z
loop_
_atom_site_type_symbol
_atom_site_label
_atom_site_fract_x
_atom_site_fract_y
_atom_site_fract_z
Si Si1 0.276039 0.750000 0.743390
Si Si2 0.344238 0.557801 0.993514
Si Si3 0.836367 0.927748 0.088994
Si Si4 0.386757 0.750000 0.609660
Si Si5 0.064006 0.919259 0.093033
Si Si6 0.610370 0.750000 0.667839
Si Si7 0.406569 0.432905 0.761031
Si Si8 0.975049 0.442618 0.385774
O O1 0.297123 0.750000 0.662015
O O2 0.159440 0.750000 0.756505
O O3 0.331903 0.585841 0.769784
O O4 0.326868 0.750000 0.991982
O O5 0.250963 0.461316 0.964725
O O6 0.431882 0.522275 0.937567
O O7 0.381561 0.507297 0.070487
O O8 0.818923 0.750000 0.121867
O O9 0.951811 0.920412 0.067999
O O10 0.842007 0.089763 0.135039
O O11 0.386372 0.583275 0.570310
O O12 0.493470 0.750000 0.652095
O O13 0.110971 0.750000 0.070396
O O14 0.065980 0.926118 0.178349
O O15 0.370890 0.250000 0.777636
O O16 0.498200 0.473606 0.812149
O O17 0.970206 0.250000 0.378125
#
# Coordination Sequence:
#
# PCOD9461597 Si02
#       8
#     4   8   8   4   8   4   8   8
#     4  10  18  28  42  60  80 106 144 177 209 257
#     4  10  19  29  39  55  80 109 143 181 215 249
#     4  10  18  29  43  59  80 106 141 185 219 254
#     4   8  16  28  40  56  80 104 132 176 214 246
#     4   8  16  28  42  58  76 102 136 176 216 264
#     4  10  18  28  42  60  80 106 144 177 209 257
#     4  10  18  29  43  59  80 106 141 185 219 254
#     4  10  19  29  39  55  80 109 143 181 215 249
#
# _framework density 24.287092999999999
#
# number of rings (size 3 to 8) (size 9 to 14) (size 15 to 20)
#    0.000    2.462    1.538    1.846    0.000    3.692 
#    0.000    0.000    0.000    0.000    0.000    0.000 
#    0.000    0.000    0.000    0.000    0.000  153.846 
#
# Total GULP energy -290367.361389 kJ/mol
# GULP energy per Si atom -5583.987719 kJ/mol
# Density = 2.423181 g / cm^3
# Si number density = 24.287093 Si / 1000 Ang^3
#
#
#
# Elastic Constant Matrix: (Units=GPa)
#
#
# Indices 1 2 3 4 5 6 
#
# 1 78.3327 20.0392 31.6575 0.0000 0.0000 0.0000
# 2 20.0392 209.4304 9.0550 0.0000 0.0000 0.0000
# 3 31.6575 9.0550 73.5416 0.0000 0.0000 0.0000
# 4 0.0000 0.0000 0.0000 7.1182 0.0000 0.0000
# 5 0.0000 0.0000 0.0000 0.0000 35.5346 0.0000
# 6 0.0000 0.0000 0.0000 0.0000 0.0000 76.2128
#
#
#
# Elastic Compliance Matrix: (Units=1/GPa)
#
#
# Indices 1 2 3 4 5 6 
#
# 1 0.015759 -0.001221 -0.006634 0.000000 0.000000 0.000000
# 2 -0.001221 0.004895 -0.000077 0.000000 0.000000 0.000000
# 3 -0.006634 -0.000077 0.016463 0.000000 0.000000 0.000000
# 4 0.000000 0.000000 0.000000 0.140485 0.000000 0.000000
# 5 0.000000 0.000000 0.000000 0.000000 0.028142 0.000000
# 6 0.000000 0.000000 0.000000 0.000000 0.000000 0.013121
#
#
# Mechanical properties :
#
#
# Convention : Reuss Voigt Hill
#
# Bulk Modulus (GPa) = 47.05069 53.64533 50.34801
# Shear Modulus (GPa) = 20.67718 43.80999 32.24358
#
# Velocity S-wave (km/s) = 2.92098 4.25177 3.64758
# Velocity P-wave (km/s) = 5.54896 6.79995 6.20606
#
# Compressibility (1/GPa) = 0.02125367
#
# Stress axis : x y z
#
# Youngs Moduli (GPa) = 63.45441 204.28886 60.74305
#
# Poissons Ratio (x) = 0.24946 0.40294
# Poissons Ratio (y) = 0.07749 0.00468
# Poissons Ratio (z) = 0.42093 0.01574
#
# Static dielectric constant tensor:
#      x y z
#    x 1.894910 0.000000 0.000000 
#    y 0.000000 1.998970 0.000000 
#    z 0.000000 0.000000 1.949200 
# 
# From -- ./inp_files/30017.got.cif
#   From: 2010.05.17/outbox.cif.g08.bks.cpg/sg62_16_cif.got.tgz:30017.got - 2010.06.03 15:25:27.
