data_PCOD9461446
_publ_section_title
;
Structure prediction by ZEFSAII (Michael W. Deem and Ramdas Pophale) SiO2 
 PCOD9461446
Probable space group: P N M A
;
_chemical_formula_sum "Si O2"
_cell_formula_units_Z 64
_cell_length_a 20.628249
_cell_length_b 7.477669
_cell_length_c 20.997701
_cell_angle_alpha 90.000000
_cell_angle_beta 90.000000
_cell_angle_gamma 90.000000
_cell_volume 3238.920956
_symmetry_space_group_name_H-M "P N M A"
_symmetry_group_IT_number 62
_symmetry_cell_setting 'orthorhombic'
loop_
_space_group_symop_operation_xyz
x,y,z
1/2-x,-y,1/2+z
1/2+x,1/2-y,1/2-z
-x,1/2+y,-z
-x,-y,-z
1/2+x,y,1/2-z
1/2-x,1/2+y,1/2+z
x,1/2-y,z
loop_
_atom_site_type_symbol
_atom_site_label
_atom_site_fract_x
_atom_site_fract_y
_atom_site_fract_z
Si Si1 0.059643 0.468960 0.726389
Si Si2 0.412105 0.958846 0.638308
Si Si3 0.080959 0.546300 0.284523
Si Si4 0.712402 0.463139 0.437302
Si Si5 0.691369 0.031421 0.577201
Si Si6 0.554382 0.034740 0.625443
Si Si7 0.803023 0.535774 0.321781
Si Si8 0.223336 0.530377 0.301975
O O1 0.057809 0.250000 0.725539
O O2 0.065110 0.520294 0.800789
O O3 0.123754 0.528534 0.689668
O O4 0.989799 0.533193 0.701221
O O5 0.399883 0.750000 0.651174
O O6 0.353234 0.031448 0.596449
O O7 0.415531 0.049456 0.707355
O O8 0.482635 0.974436 0.606253
O O9 0.079795 0.750000 0.308465
O O10 0.149150 0.466786 0.306505
O O11 0.704159 0.250000 0.442605
O O12 0.718512 0.529650 0.509309
O O13 0.771380 0.495076 0.389450
O O14 0.691930 0.250000 0.578911
O O15 0.616524 0.975305 0.585617
O O16 0.733353 0.975367 0.638070
O O17 0.553519 0.250000 0.624392
O O18 0.805200 0.750000 0.315680
O O19 0.756674 0.471967 0.264166
O O20 0.221918 0.750000 0.300472
#
# Coordination Sequence:
#
# PCOD9461446 Si02
#       8
#     8   8   8   8   8   8   8   8
#     4   8  14  25  45  72  94 110 141 194 241 266
#     4  10  19  29  41  64  99 130 152 180 226 283
#     4   9  16  28  49  73  91 113 153 198 234 270
#     4  10  21  33  45  66  98 131 156 184 234 288
#     4   9  17  31  49  69  94 124 159 199 235 268
#     4   9  16  29  49  68  88 121 162 196 225 263
#     4  10  17  29  50  72  91 116 155 198 233 268
#     4   9  15  26  50  76  89 111 159 206 232 259
#
# _framework density 19.759668000000001
#
# number of rings (size 3 to 8) (size 9 to 14) (size 15 to 20)
#    0.000    2.750    2.500    1.125    0.000    1.000 
#    0.000    3.125    0.000    3.000    0.000    0.000 
#    0.000    0.000    0.000    0.000    0.000    0.000 
#
# Total GULP energy -356976.733357 kJ/mol
# GULP energy per Si atom -5577.761459 kJ/mol
# Density = 1.971469 g / cm^3
# Si number density = 19.759668 Si / 1000 Ang^3
#
#
#
# Elastic Constant Matrix: (Units=GPa)
#
#
# Indices 1 2 3 4 5 6 
#
# 1 113.4045 0.0937 15.9414 0.0000 0.0000 0.0000
# 2 0.0937 54.6699 -2.7381 0.0000 0.0000 0.0000
# 3 15.9414 -2.7381 41.9065 0.0000 0.0000 0.0000
# 4 0.0000 0.0000 0.0000 10.7125 0.0000 0.0000
# 5 0.0000 0.0000 0.0000 0.0000 20.3045 0.0000
# 6 0.0000 0.0000 0.0000 0.0000 0.0000 -1.4287
#
#
#
# Elastic Compliance Matrix: (Units=1/GPa)
#
#
# Indices 1 2 3 4 5 6 
#
# 1 0.009318 -0.000194 -0.003557 0.000000 0.000000 0.000000
# 2 -0.000194 0.018356 0.001273 0.000000 0.000000 0.000000
# 3 -0.003557 0.001273 0.025299 0.000000 0.000000 0.000000
# 4 0.000000 0.000000 0.000000 0.093349 0.000000 0.000000
# 5 0.000000 0.000000 0.000000 0.000000 0.049250 0.000000
# 6 0.000000 0.000000 0.000000 0.000000 0.000000 -0.699938
#
#
# Mechanical properties :
#
#
# Convention : Reuss Voigt Hill
#
# Bulk Modulus (GPa) = 20.82625 26.28609 23.55617
# Shear Modulus (GPa) = -10.34333 19.02993 4.34330
#
# Velocity S-wave (km/s) = -2.29040 3.10670 1.48419
# Velocity P-wave (km/s) = 1.88894 5.11865 3.85802
#
# Compressibility (1/GPa) = 0.04801633
#
# Stress axis : x y z
#
# Youngs Moduli (GPa) = 107.31668 54.47902 39.52712
#
# Poissons Ratio (x) = 0.01058 0.14061
# Poissons Ratio (y) = 0.02083 -0.05032
# Poissons Ratio (z) = 0.38176 -0.06936
#
# Static dielectric constant tensor:
#      x y z
#    x 1.723440 0.000000 0.000000 
#    y 0.000000 1.763840 0.000000 
#    z 0.000000 0.000000 1.658690 
# 
# From -- ./inp_files/27960.got.cif
#   From: 2010.05.17/outbox.cif.g08.bks.cpg/sg62_14_cif.got.tgz:27960.got - 2010.06.03 15:25:27.
