data_PCOD9461640
_publ_section_title
;
Structure prediction by ZEFSAII (Michael W. Deem and Ramdas Pophale) SiO2 
 PCOD9461640
Probable space group: P N M A
;
_chemical_formula_sum "Si O2"
_cell_formula_units_Z 64
_cell_length_a 28.740681
_cell_length_b 7.691939
_cell_length_c 15.077262
_cell_angle_alpha 90.000000
_cell_angle_beta 90.000000
_cell_angle_gamma 90.000000
_cell_volume 3333.153907
_symmetry_space_group_name_H-M "P N M A"
_symmetry_group_IT_number 62
_symmetry_cell_setting 'orthorhombic'
loop_
_space_group_symop_operation_xyz
x,y,z
1/2-x,-y,1/2+z
1/2+x,1/2-y,1/2-z
-x,1/2+y,-z
-x,-y,-z
1/2+x,y,1/2-z
1/2-x,1/2+y,1/2+z
x,1/2-y,z
loop_
_atom_site_type_symbol
_atom_site_label
_atom_site_fract_x
_atom_site_fract_y
_atom_site_fract_z
Si Si1 0.630221 0.955073 0.763050
Si Si2 0.677900 0.962516 0.590447
Si Si3 0.215673 0.460343 0.406365
Si Si4 0.949740 0.046376 0.387879
Si Si5 0.869198 0.049238 0.716623
Si Si6 0.321183 0.462828 0.611233
Si Si7 0.447220 0.547960 0.918485
Si Si8 0.784894 0.959915 0.389083
O O1 0.621341 0.750000 0.750921
O O2 0.643218 0.026672 0.666321
O O3 0.586764 0.030350 0.817978
O O4 0.676138 0.971657 0.823539
O O5 0.677573 0.750000 0.590666
O O6 0.731129 0.012837 0.612785
O O7 0.667919 0.016341 0.489452
O O8 0.212966 0.250000 0.400613
O O9 0.178106 0.536859 0.340288
O O10 0.205582 0.508835 0.508582
O O11 0.954491 0.250000 0.366255
O O12 0.002260 0.973479 0.391254
O O13 0.930974 0.033881 0.488660
O O14 0.882276 0.250000 0.727383
O O15 0.856319 0.975654 0.813136
O O16 0.909882 0.965953 0.659027
O O17 0.321292 0.250000 0.613027
O O18 0.267944 0.516071 0.632110
O O19 0.453998 0.750000 0.940055
O O20 0.785867 0.750000 0.385027
#
# Coordination Sequence:
#
# PCOD9461640 Si02
#       8
#     8   8   8   8   8   8   8   8
#     4  10  18  28  47  71  90 112 147 190 228 262
#     4   8  15  29  47  66  90 120 153 186 221 265
#     4   9  17  29  45  66  93 124 153 180 218 270
#     4   9  19  34  50  71  95 116 145 185 227 272
#     4  11  20  29  46  69  91 118 154 192 223 257
#     4   8  16  30  45  63  90 123 155 184 215 257
#     4  10  20  34  50  67  92 123 148 178 226 278
#     4   9  17  29  44  64  93 125 151 176 214 266
#
# _framework density 19.201034
#
# number of rings (size 3 to 8) (size 9 to 14) (size 15 to 20)
#    0.000    2.750    0.000    3.750    0.000    3.500 
#    0.000    0.625    0.000    4.500    0.000    0.000 
#    0.000    0.000    0.000    0.000    0.000    0.500 
#
# Total GULP energy -357030.725081 kJ/mol
# GULP energy per Si atom -5578.605079 kJ/mol
# Density = 1.915733 g / cm^3
# Si number density = 19.201034 Si / 1000 Ang^3
#
#
#
# Elastic Constant Matrix: (Units=GPa)
#
#
# Indices 1 2 3 4 5 6 
#
# 1 85.3089 0.4348 77.5011 0.0000 0.0000 0.0000
# 2 0.4348 30.6010 -3.6196 0.0000 0.0000 0.0000
# 3 77.5011 -3.6196 109.3991 0.0000 0.0000 0.0000
# 4 0.0000 0.0000 0.0000 9.1221 0.0000 0.0000
# 5 0.0000 0.0000 0.0000 0.0000 34.3588 0.0000
# 6 0.0000 0.0000 0.0000 0.0000 0.0000 6.5191
#
#
#
# Elastic Compliance Matrix: (Units=1/GPa)
#
#
# Indices 1 2 3 4 5 6 
#
# 1 0.033211 -0.003268 -0.023636 0.000000 0.000000 0.000000
# 2 -0.003268 0.033129 0.003411 0.000000 0.000000 0.000000
# 3 -0.023636 0.003411 0.025998 0.000000 0.000000 0.000000
# 4 0.000000 0.000000 0.000000 0.109624 0.000000 0.000000
# 5 0.000000 0.000000 0.000000 0.000000 0.029105 0.000000
# 6 0.000000 0.000000 0.000000 0.000000 0.000000 0.153394
#
#
# Mechanical properties :
#
#
# Convention : Reuss Voigt Hill
#
# Bulk Modulus (GPa) = 22.04935 41.54907 31.79921
# Shear Modulus (GPa) = 11.19661 20.06619 15.63140
#
# Velocity S-wave (km/s) = 2.41742 3.23624 2.85632
# Velocity P-wave (km/s) = 4.39320 5.97079 5.24169
#
# Compressibility (1/GPa) = 0.04535281
#
# Stress axis : x y z
#
# Youngs Moduli (GPa) = 30.11011 30.18540 38.46448
#
# Poissons Ratio (x) = 0.09864 0.90914
# Poissons Ratio (y) = 0.09839 -0.13120
# Poissons Ratio (z) = 0.71168 -0.10296
#
# Static dielectric constant tensor:
#      x y z
#    x 1.664940 0.000000 0.000000 
#    y 0.000000 1.720180 0.000000 
#    z 0.000000 0.000000 1.681380 
# 
# From -- ./inp_files/21241.got.cif
#   From: 2010.05.17/outbox.cif.g08.bks.cpg/sg62_11_cif.got.tgz:21241.got - 2010.06.03 15:25:27.
