data_PCOD9461482
_publ_section_title
;
Structure prediction by ZEFSAII (Michael W. Deem and Ramdas Pophale) SiO2 
 PCOD9461482
Probable space group: P N M A
;
_chemical_formula_sum "Si O2"
_cell_formula_units_Z 64
_cell_length_a 15.858333
_cell_length_b 7.509523
_cell_length_c 24.587733
_cell_angle_alpha 90.000000
_cell_angle_beta 90.000000
_cell_angle_gamma 90.000000
_cell_volume 2928.116645
_symmetry_space_group_name_H-M "P N M A"
_symmetry_group_IT_number 62
_symmetry_cell_setting 'orthorhombic'
loop_
_space_group_symop_operation_xyz
x,y,z
1/2-x,-y,1/2+z
1/2+x,1/2-y,1/2-z
-x,1/2+y,-z
-x,-y,-z
1/2+x,y,1/2-z
1/2-x,1/2+y,1/2+z
x,1/2-y,z
loop_
_atom_site_type_symbol
_atom_site_label
_atom_site_fract_x
_atom_site_fract_y
_atom_site_fract_z
Si Si1 0.397365 0.542050 0.123125
Si Si2 0.854371 0.966874 0.496983
Si Si3 0.085299 0.531763 0.895083
Si Si4 0.401728 0.958380 0.627759
Si Si5 0.752849 0.958904 0.797537
Si Si6 0.415461 0.964705 0.888035
Si Si7 0.747105 0.968109 0.674652
Si Si8 0.340676 0.035233 0.507275
O O1 0.377587 0.750000 0.119997
O O2 0.383441 0.467627 0.062113
O O3 0.331788 0.469432 0.166774
O O4 0.495260 0.518500 0.136757
O O5 0.859094 0.750000 0.496802
O O6 0.906597 0.028401 0.549417
O O7 0.756236 0.014891 0.504371
O O8 0.083888 0.750000 0.895452
O O9 0.165238 0.476435 0.859357
O O10 0.996145 0.466882 0.872209
O O11 0.101010 0.475686 0.957408
O O12 0.410025 0.750000 0.641450
O O13 0.330881 0.035761 0.667745
O O14 0.368356 0.969775 0.566088
O O15 0.770586 0.750000 0.790268
O O16 0.743433 0.031161 0.736822
O O17 0.413537 0.750000 0.888908
O O18 0.333658 0.023979 0.854506
O O19 0.746271 0.750000 0.673705
O O20 0.343040 0.250000 0.509143
#
# Coordination Sequence:
#
# PCOD9461482 Si02
#       8
#     8   8   8   8   8   8   8   8
#     4  11  22  36  54  79 111 145 177 215 266 322
#     4   9  17  31  54  80 106 138 176 214 261 320
#     4   9  17  31  54  80 106 135 171 216 266 314
#     4  10  20  32  49  79 111 134 166 219 266 305
#     4  10  21  36  54  78 106 139 181 223 263 306
#     4  10  19  35  59  84 107 136 178 225 268 315
#     4   9  18  34  57  80 103 136 179 223 263 308
#     4  10  17  31  55  78 103 141 176 205 256 327
#
# _framework density 21.857051999999999
#
# number of rings (size 3 to 8) (size 9 to 14) (size 15 to 20)
#    0.000    2.250    2.500    1.125    0.000    1.000 
#    0.000    5.625    0.000    3.750    0.000    0.000 
#    0.000    0.000    0.000    0.000    0.000    0.000 
#
# Total GULP energy -357570.365726 kJ/mol
# GULP energy per Si atom -5587.036964 kJ/mol
# Density = 2.180730 g / cm^3
# Si number density = 21.857052 Si / 1000 Ang^3
#
#
#
# Elastic Constant Matrix: (Units=GPa)
#
#
# Indices 1 2 3 4 5 6 
#
# 1 79.7103 -15.2435 15.4832 0.0000 0.0000 0.0000
# 2 -15.2435 54.6062 -7.3214 0.0000 0.0000 0.0000
# 3 15.4832 -7.3214 114.6205 0.0000 0.0000 0.0000
# 4 0.0000 0.0000 0.0000 12.5197 0.0000 0.0000
# 5 0.0000 0.0000 0.0000 0.0000 4.6910 0.0000
# 6 0.0000 0.0000 0.0000 0.0000 0.0000 -14.4754
#
#
#
# Elastic Compliance Matrix: (Units=1/GPa)
#
#
# Indices 1 2 3 4 5 6 
#
# 1 0.013538 0.003565 -0.001601 0.000000 0.000000 0.000000
# 2 0.003565 0.019410 0.000758 0.000000 0.000000 0.000000
# 3 -0.001601 0.000758 0.008989 0.000000 0.000000 0.000000
# 4 0.000000 0.000000 0.000000 0.079874 0.000000 0.000000
# 5 0.000000 0.000000 0.000000 0.000000 0.213176 0.000000
# 6 0.000000 0.000000 0.000000 0.000000 0.000000 -0.069083
#
#
# Mechanical properties :
#
#
# Convention : Reuss Voigt Hill
#
# Bulk Modulus (GPa) = 21.10577 26.08596 23.59586
# Shear Modulus (GPa) = 18.09933 17.61499 17.85716
#
# Velocity S-wave (km/s) = 2.88076 2.84195 2.86142
# Velocity P-wave (km/s) = 4.55437 4.76756 4.66218
#
# Compressibility (1/GPa) = 0.04738041
#
# Stress axis : x y z
#
# Youngs Moduli (GPa) = 73.86566 51.52077 111.24515
#
# Poissons Ratio (x) = -0.18365 0.17811
# Poissons Ratio (y) = -0.26330 -0.08436
# Poissons Ratio (z) = 0.11826 -0.03907
#
# Static dielectric constant tensor:
#      x y z
#    x 1.775070 0.000000 0.000000 
#    y 0.000000 1.833250 0.000000 
#    z 0.000000 0.000000 1.772280 
# 
# From -- ./inp_files/29721.got.cif
#   From: 2010.05.17/outbox.cif.g08.bks.cpg/sg62_15_cif.got.tgz:29721.got - 2010.06.03 15:25:27.
