data_PCOD9461650
_publ_section_title
;
Structure prediction by ZEFSAII (Michael W. Deem and Ramdas Pophale) SiO2 
 PCOD9461650
Probable space group: P N M A
;
_chemical_formula_sum "Si O2"
_cell_formula_units_Z 64
_cell_length_a 22.656574
_cell_length_b 7.591738
_cell_length_c 15.234862
_cell_angle_alpha 90.000000
_cell_angle_beta 90.000000
_cell_angle_gamma 90.000000
_cell_volume 2620.438522
_symmetry_space_group_name_H-M "P N M A"
_symmetry_group_IT_number 62
_symmetry_cell_setting 'orthorhombic'
loop_
_space_group_symop_operation_xyz
x,y,z
1/2-x,-y,1/2+z
1/2+x,1/2-y,1/2-z
-x,1/2+y,-z
-x,-y,-z
1/2+x,y,1/2-z
1/2-x,1/2+y,1/2+z
x,1/2-y,z
loop_
_atom_site_type_symbol
_atom_site_label
_atom_site_fract_x
_atom_site_fract_y
_atom_site_fract_z
Si Si1 0.051159 0.037266 0.817180
Si Si2 0.288393 0.948923 0.171660
Si Si3 0.681694 0.465421 0.638025
Si Si4 0.624938 0.541325 0.984512
Si Si5 0.920983 0.463889 0.857048
Si Si6 0.613249 0.948187 0.167557
Si Si7 0.309115 0.954512 0.550707
Si Si8 0.016884 0.543443 0.623567
O O1 0.050400 0.250000 0.815324
O O2 0.112729 0.983251 0.859105
O O3 0.989291 0.979264 0.860183
O O4 0.049955 0.972916 0.716914
O O5 0.310237 0.750000 0.182041
O O6 0.291038 0.026287 0.269500
O O7 0.328970 0.024451 0.094329
O O8 0.223724 0.951914 0.130320
O O9 0.685457 0.250000 0.634275
O O10 0.707409 0.525666 0.545156
O O11 0.617343 0.750000 0.998003
O O12 0.562130 0.471970 0.948862
O O13 0.642650 0.469715 0.080605
O O14 0.920515 0.250000 0.855202
O O15 0.892660 0.528878 0.764264
O O16 0.878922 0.528784 0.933702
O O17 0.637353 0.750000 0.179702
O O18 0.544421 0.944495 0.137448
O O19 0.292147 0.750000 0.555991
O O20 0.004834 0.750000 0.608474
#
# Coordination Sequence:
#
# PCOD9461650 Si02
#       8
#     8   8   8   8   8   8   8   8
#     4   9  17  35  61  85 114 155 198 233 285 355
#     4  11  23  41  64  86 112 150 199 244 285 347
#     4   9  20  40  65  88 112 152 194 231 286 358
#     4  10  20  34  53  82 116 152 194 240 291 336
#     4   9  19  36  58  85 117 153 196 241 282 340
#     4   9  19  34  53  77 116 164 196 225 279 352
#     4  11  24  42  62  85 117 152 191 240 295 348
#     4  10  18  28  48  83 121 150 189 242 288 330
#
# _framework density 24.423393000000001
#
# number of rings (size 3 to 8) (size 9 to 14) (size 15 to 20)
#    0.000    2.250    1.250    2.250    0.000    4.500 
#    0.000    8.750    0.000    0.000    0.000    0.000 
#    0.000    0.000    0.000    0.000    0.000    0.000 
#
# Total GULP energy -357461.147277 kJ/mol
# GULP energy per Si atom -5585.330426 kJ/mol
# Density = 2.436780 g / cm^3
# Si number density = 24.423393 Si / 1000 Ang^3
#
#
#
# Elastic Constant Matrix: (Units=GPa)
#
#
# Indices 1 2 3 4 5 6 
#
# 1 64.2563 -2.1676 40.2192 0.0000 0.0000 0.0000
# 2 -2.1676 62.7976 4.2074 0.0000 0.0000 0.0000
# 3 40.2192 4.2074 134.7965 0.0000 0.0000 0.0000
# 4 0.0000 0.0000 0.0000 15.2524 0.0000 0.0000
# 5 0.0000 0.0000 0.0000 0.0000 25.1000 0.0000
# 6 0.0000 0.0000 0.0000 0.0000 0.0000 18.3824
#
#
#
# Elastic Compliance Matrix: (Units=1/GPa)
#
#
# Indices 1 2 3 4 5 6 
#
# 1 0.019205 0.001049 -0.005763 0.000000 0.000000 0.000000
# 2 0.001049 0.016015 -0.000813 0.000000 0.000000 0.000000
# 3 -0.005763 -0.000813 0.009163 0.000000 0.000000 0.000000
# 4 0.000000 0.000000 0.000000 0.065564 0.000000 0.000000
# 5 0.000000 0.000000 0.000000 0.000000 0.039841 0.000000
# 6 0.000000 0.000000 0.000000 0.000000 0.000000 0.054400
#
#
# Mechanical properties :
#
#
# Convention : Reuss Voigt Hill
#
# Bulk Modulus (GPa) = 30.00312 38.48538 34.24425
# Shear Modulus (GPa) = 22.08955 26.38638 24.23796
#
# Velocity S-wave (km/s) = 3.01066 3.29047 3.15367
# Velocity P-wave (km/s) = 4.93930 5.49800 5.22612
#
# Compressibility (1/GPa) = 0.03332986
#
# Stress axis : x y z
#
# Youngs Moduli (GPa) = 52.06914 62.44207 109.12894
#
# Poissons Ratio (x) = -0.06550 0.62891
# Poissons Ratio (y) = -0.05462 0.08871
# Poissons Ratio (z) = 0.30007 0.05076
#
# Static dielectric constant tensor:
#      x y z
#    x 1.979040 0.000000 0.000000 
#    y 0.000000 2.031920 0.000000 
#    z 0.000000 0.000000 1.978980 
# 
# From -- ./inp_files/20948.got.cif
#   From: 2010.05.17/outbox.cif.g08.bks.cpg/sg62_11_cif.got.tgz:20948.got - 2010.06.03 15:25:27.
