data_PCOD9461802
_publ_section_title
;
Structure prediction by ZEFSAII (Michael W. Deem and Ramdas Pophale) SiO2 
 PCOD9461802
Probable space group: P N M A
;
_chemical_formula_sum "Si O2"
_cell_formula_units_Z 64
_cell_length_a 19.571067
_cell_length_b 9.022199
_cell_length_c 23.634282
_cell_angle_alpha 90.000000
_cell_angle_beta 90.000000
_cell_angle_gamma 90.000000
_cell_volume 4173.201154
_symmetry_space_group_name_H-M "P N M A"
_symmetry_group_IT_number 62
_symmetry_cell_setting 'orthorhombic'
loop_
_space_group_symop_operation_xyz
x,y,z
1/2-x,-y,1/2+z
1/2+x,1/2-y,1/2-z
-x,1/2+y,-z
-x,-y,-z
1/2+x,y,1/2-z
1/2-x,1/2+y,1/2+z
x,1/2-y,z
loop_
_atom_site_type_symbol
_atom_site_label
_atom_site_fract_x
_atom_site_fract_y
_atom_site_fract_z
Si Si1 0.497243 0.073323 0.754094
Si Si2 0.143238 0.072069 0.935013
Si Si3 0.997354 0.072636 0.880672
Si Si4 0.273704 0.073589 0.339342
Si Si5 0.637073 0.072415 0.433205
Si Si6 0.641783 0.073326 0.229756
Si Si7 0.349606 0.927002 0.233971
Si Si8 0.782048 0.426645 0.835854
O O1 0.487104 0.250000 0.761198
O O2 0.498605 0.043232 0.686491
O O3 0.572047 0.032713 0.777346
O O4 0.433937 0.986445 0.780364
O O5 0.148935 0.250000 0.929992
O O6 0.069573 0.030281 0.908578
O O7 0.201702 0.997654 0.897522
O O8 0.145280 0.032527 0.000983
O O9 0.988284 0.250000 0.888047
O O10 0.934784 0.989088 0.909816
O O11 0.281245 0.250000 0.341574
O O12 0.196349 0.039361 0.319618
O O13 0.321468 0.009046 0.289401
O O14 0.638069 0.250000 0.428117
O O15 0.695242 0.001523 0.393862
O O16 0.641545 0.250000 0.238843
O O17 0.670698 0.993691 0.286054
O O18 0.348247 0.750000 0.245926
O O19 0.295647 0.955706 0.183970
O O20 0.792762 0.250000 0.838487
#
# Coordination Sequence:
#
# PCOD9461802 Si02
#       8
#     8   8   8   8   8   8   8   8
#     4  10  18  30  50  73  95 125 161 194 232 281
#     4  10  21  36  50  66  93 131 167 200 236 276
#     4  10  19  32  48  67  95 129 167 199 226 272
#     4  10  20  32  48  71  95 123 158 199 240 279
#     4  11  22  33  48  69  96 129 164 201 238 275
#     4  10  20  32  47  70  99 124 154 195 240 286
#     4   9  18  33  51  69  94 125 159 197 237 284
#     4  10  19  32  50  69  92 127 162 196 238 279
#
# _framework density 15.335948999999999
#
# number of rings (size 3 to 8) (size 9 to 14) (size 15 to 20)
#    0.000    2.000    2.500    1.875    0.000    4.000 
#    0.000    0.000    0.000    0.000    0.000    0.875 
#    0.000    0.000    0.000    0.000    0.000    0.000 
#
# Total GULP energy -357125.240643 kJ/mol
# GULP energy per Si atom -5580.081885 kJ/mol
# Density = 1.530104 g / cm^3
# Si number density = 15.335949 Si / 1000 Ang^3
#
#
#
# Elastic Constant Matrix: (Units=GPa)
#
#
# Indices 1 2 3 4 5 6 
#
# 1 133.7111 49.4996 56.1582 0.0000 0.0000 0.0000
# 2 49.4996 39.0239 38.9525 0.0000 0.0000 0.0000
# 3 56.1582 38.9525 77.1312 0.0000 0.0000 0.0000
# 4 0.0000 0.0000 0.0000 23.6334 0.0000 0.0000
# 5 0.0000 0.0000 0.0000 0.0000 20.0013 0.0000
# 6 0.0000 0.0000 0.0000 0.0000 0.0000 5.1411
#
#
#
# Elastic Compliance Matrix: (Units=1/GPa)
#
#
# Indices 1 2 3 4 5 6 
#
# 1 0.014340 -0.015664 -0.002530 0.000000 0.000000 0.000000
# 2 -0.015664 0.068784 -0.023332 0.000000 0.000000 0.000000
# 3 -0.002530 -0.023332 0.026590 0.000000 0.000000 0.000000
# 4 0.000000 0.000000 0.000000 0.042313 0.000000 0.000000
# 5 0.000000 0.000000 0.000000 0.000000 0.049997 0.000000
# 6 0.000000 0.000000 0.000000 0.000000 0.000000 0.194512
#
#
# Mechanical properties :
#
#
# Convention : Reuss Voigt Hill
#
# Bulk Modulus (GPa) = 37.50754 59.89854 48.70304
# Shear Modulus (GPa) = 10.23589 16.77220 13.50405
#
# Velocity S-wave (km/s) = 2.58630 3.31063 2.97062
# Velocity P-wave (km/s) = 5.78178 7.33185 6.60246
#
# Compressibility (1/GPa) = 0.02666131
#
# Stress axis : x y z
#
# Youngs Moduli (GPa) = 69.73280 14.53824 37.60765
#
# Poissons Ratio (x) = 0.22773 0.09516
# Poissons Ratio (y) = 1.09232 0.87747
# Poissons Ratio (z) = 0.17645 0.33921
#
# Static dielectric constant tensor:
#      x y z
#    x 1.518290 0.000000 0.000000 
#    y 0.000000 1.511790 0.000000 
#    z 0.000000 0.000000 1.485750 
# 
# From -- ./inp_files/30047.got.cif
#   From: 2010.05.17/outbox.cif.g08.bks.cpg/sg62_16_cif.got.tgz:30047.got - 2010.06.03 15:25:27.
