data_PCOD9461882
_publ_section_title
;
Structure prediction by ZEFSAII (Michael W. Deem and Ramdas Pophale) SiO2 
 PCOD9461882
Probable space group: P N M A
;
_chemical_formula_sum "Si O2"
_cell_formula_units_Z 44
_cell_length_a 21.132326
_cell_length_b 10.901873
_cell_length_c 7.003436
_cell_angle_alpha 90.000000
_cell_angle_beta 90.000000
_cell_angle_gamma 90.000000
_cell_volume 1613.465132
_symmetry_space_group_name_H-M "P N M A"
_symmetry_group_IT_number 62
_symmetry_cell_setting 'orthorhombic'
loop_
_space_group_symop_operation_xyz
x,y,z
1/2-x,-y,1/2+z
1/2+x,1/2-y,1/2-z
-x,1/2+y,-z
-x,-y,-z
1/2+x,y,1/2-z
1/2-x,1/2+y,1/2+z
x,1/2-y,z
loop_
_atom_site_type_symbol
_atom_site_label
_atom_site_fract_x
_atom_site_fract_y
_atom_site_fract_z
Si Si1 0.194236 0.250000 0.444819
Si Si2 0.761672 0.494374 0.734298
Si Si3 0.388119 0.392771 0.695967
Si Si4 0.363727 0.114495 0.152437
Si Si5 0.590364 0.250000 0.755496
Si Si6 0.486183 0.995738 0.227233
Si Si7 0.722610 0.250000 0.626037
O O1 0.211931 0.125305 0.337605
O O2 0.123144 0.250000 0.532295
O O3 0.231662 0.250000 0.644147
O O4 0.819860 0.444829 0.865568
O O5 0.688333 0.512776 0.795037
O O6 0.753060 0.380523 0.579710
O O7 0.397404 0.250000 0.640987
O O8 0.446839 0.485112 0.665231
O O9 0.381068 0.390699 0.928475
O O10 0.339419 0.250000 0.199597
O O11 0.430522 0.093734 0.260292
O O12 0.547765 0.367383 0.736848
O O13 0.647670 0.250000 0.603196
O O14 0.500000 0.000000 0.000000
#
# Coordination Sequence:
#
# PCOD9461882 Si02
#       7
#     4   8   8   8   4   8   4
#     4  10  22  34  52  84 110 148 195 229 286 340
#     4  12  19  36  53  77 117 149 190 235 279 342
#     4  10  20  32  52  82 110 141 185 227 286 350
#     4  10  20  34  50  77 111 145 182 226 283 342
#     4  10  18  35  50  75 116 143 176 225 285 342
#     4  10  18  31  51  74 111 146 171 229 293 345
#     4  10  22  35  54  79 114 153 189 236 285 338
#
# _framework density 27.270496999999999
#
# number of rings (size 3 to 8) (size 9 to 14) (size 15 to 20)
#    0.545    1.091    4.545    3.273    1.273    0.000 
#    1.636    0.000    0.000    0.000    0.000    5.091 
#    0.000    0.000    0.000    0.000    0.000    0.000 
#
# Total GULP energy -246017.548769 kJ/mol
# GULP energy per Si atom -5591.307927 kJ/mol
# Density = 2.720843 g / cm^3
# Si number density = 27.270497 Si / 1000 Ang^3
#
#
#
# Elastic Constant Matrix: (Units=GPa)
#
#
# Indices 1 2 3 4 5 6 
#
# 1 197.9883 60.2709 2.5182 0.0000 0.0000 0.0000
# 2 60.2709 159.0503 7.1213 0.0000 0.0000 0.0000
# 3 2.5182 7.1213 60.9080 0.0000 0.0000 0.0000
# 4 0.0000 0.0000 0.0000 34.6263 0.0000 0.0000
# 5 0.0000 0.0000 0.0000 0.0000 34.6354 0.0000
# 6 0.0000 0.0000 0.0000 0.0000 0.0000 59.0483
#
#
#
# Elastic Compliance Matrix: (Units=1/GPa)
#
#
# Indices 1 2 3 4 5 6 
#
# 1 0.005709 -0.002164 0.000017 0.000000 0.000000 0.000000
# 2 -0.002164 0.007141 -0.000745 0.000000 0.000000 0.000000
# 3 0.000017 -0.000745 0.016505 0.000000 0.000000 0.000000
# 4 0.000000 0.000000 0.000000 0.028880 0.000000 0.000000
# 5 0.000000 0.000000 0.000000 0.000000 0.028872 0.000000
# 6 0.000000 0.000000 0.000000 0.000000 0.000000 0.016935
#
#
# Mechanical properties :
#
#
# Convention : Reuss Voigt Hill
#
# Bulk Modulus (GPa) = 42.42776 61.97413 52.20095
# Shear Modulus (GPa) = 42.48663 48.86443 45.67553
#
# Velocity S-wave (km/s) = 3.95140 4.23761 4.09700
# Velocity P-wave (km/s) = 6.03406 6.83507 6.44702
#
# Compressibility (1/GPa) = 0.02356947
#
# Stress axis : x y z
#
# Youngs Moduli (GPa) = 175.14858 140.03950 60.58901
#
# Poissons Ratio (x) = 0.30309 -0.00103
# Poissons Ratio (y) = 0.37908 0.04516
# Poissons Ratio (z) = -0.00298 0.10439
#
# Static dielectric constant tensor:
#      x y z
#    x 2.120500 0.000000 0.000000 
#    y 0.000000 2.131550 0.000000 
#    z 0.000000 0.000000 2.317270 
# 
# From -- ./inp_files/14690.got.cif
#   From: 2010.05.17/outbox.cif.g08.bks.cpg/sg62_8_cif.got.tgz:14690.got - 2010.06.03 15:25:27.
