data_PCOD9461314
_publ_section_title
;
Structure prediction by ZEFSAII (Michael W. Deem and Ramdas Pophale) SiO2 
 PCOD9461314
Probable space group: P N M A
;
_chemical_formula_sum "Si O2"
_cell_formula_units_Z 48
_cell_length_a 5.136130
_cell_length_b 28.514829
_cell_length_c 15.316525
_cell_angle_alpha 90.000000
_cell_angle_beta 90.000000
_cell_angle_gamma 90.000000
_cell_volume 2243.194974
_symmetry_space_group_name_H-M "P N M A"
_symmetry_group_IT_number 62
_symmetry_cell_setting 'orthorhombic'
loop_
_space_group_symop_operation_xyz
x,y,z
1/2-x,-y,1/2+z
1/2+x,1/2-y,1/2-z
-x,1/2+y,-z
-x,-y,-z
1/2+x,y,1/2-z
1/2-x,1/2+y,1/2+z
x,1/2-y,z
loop_
_atom_site_type_symbol
_atom_site_label
_atom_site_fract_x
_atom_site_fract_y
_atom_site_fract_z
Si Si1 0.754967 0.250000 0.354645
Si Si2 0.745127 0.750000 0.524599
Si Si3 0.982314 0.155974 0.970215
Si Si4 0.249853 0.149312 0.148460
Si Si5 0.261445 0.094992 0.389640
Si Si6 0.710891 0.107117 0.693184
Si Si7 0.360552 0.500361 0.308518
O O1 0.467688 0.250000 0.396862
O O2 0.787002 0.300187 0.306951
O O3 0.979380 0.250000 0.428299
O O4 0.686821 0.796847 0.470005
O O5 0.119307 0.142101 0.881552
O O6 0.810985 0.113793 0.012301
O O7 0.197537 0.162528 0.046106
O O8 0.490066 0.114415 0.144571
O O9 0.984119 0.121517 0.167372
O O10 0.299151 0.040055 0.377558
O O11 0.504513 0.112516 0.772665
O O12 0.675554 0.053599 0.659828
O O13 0.648883 0.494635 0.269229
#
# Coordination Sequence:
#
# PCOD9461314 Si02
#       7
#     4   4   8   8   8   8   8
#     4  10  14  30  46  77 109 136 164 210 269 319
#     4  10  18  30  54  79 107 140 172 220 265 317
#     4   9  21  34  56  82 109 136 186 221 269 311
#     4   9  18  29  51  82 104 133 172 222 262 307
#     4  10  19  32  55  82 107 133 183 224 267 309
#     4  10  23  38  56  74 109 150 180 220 273 323
#     4  10  21  39  55  77 108 147 181 215 272 331
#
# _framework density 21.398052
#
# number of rings (size 3 to 8) (size 9 to 14) (size 15 to 20)
#    1.000    1.333    1.667    1.000    2.333    0.667 
#    0.000    1.667    0.000    0.000    0.000   19.833 
#    0.000    0.000    0.000    0.000    0.000    0.000 
#
# Total GULP energy -267807.290630 kJ/mol
# GULP energy per Si atom -5579.318555 kJ/mol
# Density = 2.134935 g / cm^3
# Si number density = 21.398052 Si / 1000 Ang^3
#
#
#
# Elastic Constant Matrix: (Units=GPa)
#
#
# Indices 1 2 3 4 5 6 
#
# 1 77.7583 10.2811 -10.5183 0.0000 0.0000 0.0000
# 2 10.2811 51.4745 12.9449 0.0000 0.0000 0.0000
# 3 -10.5183 12.9449 30.8115 0.0000 0.0000 0.0000
# 4 0.0000 0.0000 0.0000 64.1495 0.0000 0.0000
# 5 0.0000 0.0000 0.0000 0.0000 -22.5522 0.0000
# 6 0.0000 0.0000 0.0000 0.0000 0.0000 22.1219
#
#
#
# Elastic Compliance Matrix: (Units=1/GPa)
#
#
# Indices 1 2 3 4 5 6 
#
# 1 0.014394 -0.004596 0.006845 0.000000 0.000000 0.000000
# 2 -0.004596 0.023190 -0.011312 0.000000 0.000000 0.000000
# 3 0.006845 -0.011312 0.039545 0.000000 0.000000 0.000000
# 4 0.000000 0.000000 0.000000 0.015589 0.000000 0.000000
# 5 0.000000 0.000000 0.000000 0.000000 -0.044342 0.000000
# 6 0.000000 0.000000 0.000000 0.000000 0.000000 0.045204
#
#
# Mechanical properties :
#
#
# Convention : Reuss Voigt Hill
#
# Bulk Modulus (GPa) = 16.94867 20.60663 18.77765
# Shear Modulus (GPa) = 38.05945 22.56628 30.31287
#
# Velocity S-wave (km/s) = 4.22197 3.25098 3.76788
# Velocity P-wave (km/s) = 5.63068 4.87266 5.26533
#
# Compressibility (1/GPa) = 0.05900166
#
# Stress axis : x y z
#
# Youngs Moduli (GPa) = 69.47363 43.12233 25.28793
#
# Poissons Ratio (x) = 0.19820 -0.17309
# Poissons Ratio (y) = 0.31932 0.28605
# Poissons Ratio (z) = -0.47553 0.48779
#
# Static dielectric constant tensor:
#      x y z
#    x 1.767650 0.000000 0.000000 
#    y 0.000000 1.800420 0.000000 
#    z 0.000000 0.000000 1.799020 
# 
# From -- ./inp_files/25433.got.cif
#   From: 2010.05.17/outbox.cif.g08.bks.cpg/sg62_13_cif.got.tgz:25433.got - 2010.06.03 15:25:27.
