data_PCOD9461349
_publ_section_title
;
Structure prediction by ZEFSAII (Michael W. Deem and Ramdas Pophale) SiO2 
 PCOD9461349
Probable space group: P N M A
;
_chemical_formula_sum "Si O2"
_cell_formula_units_Z 64
_cell_length_a 19.764218
_cell_length_b 7.729520
_cell_length_c 24.256333
_cell_angle_alpha 90.000000
_cell_angle_beta 90.000000
_cell_angle_gamma 90.000000
_cell_volume 3705.589498
_symmetry_space_group_name_H-M "P N M A"
_symmetry_group_IT_number 62
_symmetry_cell_setting 'orthorhombic'
loop_
_space_group_symop_operation_xyz
x,y,z
1/2-x,-y,1/2+z
1/2+x,1/2-y,1/2-z
-x,1/2+y,-z
-x,-y,-z
1/2+x,y,1/2-z
1/2-x,1/2+y,1/2+z
x,1/2-y,z
loop_
_atom_site_type_symbol
_atom_site_label
_atom_site_fract_x
_atom_site_fract_y
_atom_site_fract_z
Si Si1 0.492536 0.041252 0.739845
Si Si2 0.141678 0.041057 0.937510
Si Si3 0.998665 0.038458 0.888131
Si Si4 0.275405 0.958641 0.333874
Si Si5 0.644018 0.957018 0.436148
Si Si6 0.658241 0.051924 0.241492
Si Si7 0.362569 0.961789 0.227412
Si Si8 0.757276 0.448777 0.844453
O O1 0.493559 0.250000 0.739400
O O2 0.497317 0.985174 0.675862
O O3 0.559770 0.981920 0.771670
O O4 0.420716 0.985871 0.763840
O O5 0.140796 0.250000 0.935214
O O6 0.196302 0.980292 0.892382
O O7 0.067101 0.980849 0.918299
O O8 0.156143 0.989793 0.999868
O O9 0.999453 0.250000 0.888653
O O10 0.930211 0.978415 0.917938
O O11 0.274767 0.750000 0.334581
O O12 0.327812 0.010945 0.285532
O O13 0.202191 0.017170 0.312970
O O14 0.642155 0.750000 0.427156
O O15 0.702078 0.027916 0.395530
O O16 0.667415 0.250000 0.257494
O O17 0.691587 0.947464 0.292089
O O18 0.361585 0.750000 0.225990
O O19 0.312506 0.025197 0.179317
O O20 0.741779 0.250000 0.859238
#
# Coordination Sequence:
#
# PCOD9461349 Si02
#       8
#     8   8   8   8   8   8   8   8
#     4  10  16  29  50  69  91 122 156 189 229 278
#     4  10  19  31  48  68  92 123 165 201 224 261
#     4   9  16  28  45  67  93 125 161 193 221 262
#     4   9  17  32  50  67  88 121 159 195 232 273
#     4  10  19  30  45  65  95 130 159 187 228 274
#     4  11  21  30  44  69  97 121 150 191 237 281
#     4   8  14  26  50  72  84 110 157 199 228 267
#     4   9  17  32  50  67  89 123 162 195 229 276
#
# _framework density 17.271205999999999
#
# number of rings (size 3 to 8) (size 9 to 14) (size 15 to 20)
#    0.000    2.500    2.500    2.250    0.000    1.000 
#    0.000    3.125    0.000    0.000    0.000    0.875 
#    0.000    0.000    0.000    0.000    0.000    0.000 
#
# Total GULP energy -356886.429822 kJ/mol
# GULP energy per Si atom -5576.350466 kJ/mol
# Density = 1.723190 g / cm^3
# Si number density = 17.271206 Si / 1000 Ang^3
#
#
#
# Elastic Constant Matrix: (Units=GPa)
#
#
# Indices 1 2 3 4 5 6 
#
# 1 138.9915 -2.4916 78.0546 0.0000 0.0000 0.0000
# 2 -2.4916 27.1763 -0.2529 0.0000 0.0000 0.0000
# 3 78.0546 -0.2529 114.0751 0.0000 0.0000 0.0000
# 4 0.0000 0.0000 0.0000 14.4049 0.0000 0.0000
# 5 0.0000 0.0000 0.0000 0.0000 23.1572 0.0000
# 6 0.0000 0.0000 0.0000 0.0000 0.0000 -33.4837
#
#
#
# Elastic Compliance Matrix: (Units=1/GPa)
#
#
# Indices 1 2 3 4 5 6 
#
# 1 0.011712 0.000999 -0.008011 0.000000 0.000000 0.000000
# 2 0.000999 0.036883 -0.000602 0.000000 0.000000 0.000000
# 3 -0.008011 -0.000602 0.014246 0.000000 0.000000 0.000000
# 4 0.000000 0.000000 0.000000 0.069421 0.000000 0.000000
# 5 0.000000 0.000000 0.000000 0.000000 0.043183 0.000000
# 6 0.000000 0.000000 0.000000 0.000000 0.000000 -0.029865
#
#
# Mechanical properties :
#
#
# Convention : Reuss Voigt Hill
#
# Bulk Modulus (GPa) = 21.00277 47.87369 34.43823
# Shear Modulus (GPa) = 28.30001 14.47788 21.38894
#
# Velocity S-wave (km/s) = 4.05231 2.89842 3.52293
# Velocity P-wave (km/s) = 5.83797 6.24341 6.04409
#
# Compressibility (1/GPa) = 0.04761277
#
# Stress axis : x y z
#
# Youngs Moduli (GPa) = 85.38569 27.11292 70.19290
#
# Poissons Ratio (x) = -0.02709 0.56234
# Poissons Ratio (y) = -0.08532 0.04225
# Poissons Ratio (z) = 0.68405 0.01632
#
# Static dielectric constant tensor:
#      x y z
#    x 1.599540 0.000000 0.000000 
#    y 0.000000 1.650050 0.000000 
#    z 0.000000 0.000000 1.565820 
# 
# From -- ./inp_files/30060.got.cif
#   From: 2010.05.17/outbox.cif.g08.bks.cpg/sg62_16_cif.got.tgz:30060.got - 2010.06.03 15:25:27.
