data_PCOD9461781
_publ_section_title
;
Structure prediction by ZEFSAII (Michael W. Deem and Ramdas Pophale) SiO2 
 PCOD9461781
Probable space group: P N M A
;
_chemical_formula_sum "Si O2"
_cell_formula_units_Z 64
_cell_length_a 11.458799
_cell_length_b 9.774467
_cell_length_c 24.849984
_cell_angle_alpha 90.000000
_cell_angle_beta 90.000000
_cell_angle_gamma 90.000000
_cell_volume 2783.288977
_symmetry_space_group_name_H-M "P N M A"
_symmetry_group_IT_number 62
_symmetry_cell_setting 'orthorhombic'
loop_
_space_group_symop_operation_xyz
x,y,z
1/2-x,-y,1/2+z
1/2+x,1/2-y,1/2-z
-x,1/2+y,-z
-x,-y,-z
1/2+x,y,1/2-z
1/2-x,1/2+y,1/2+z
x,1/2-y,z
loop_
_atom_site_type_symbol
_atom_site_label
_atom_site_fract_x
_atom_site_fract_y
_atom_site_fract_z
Si Si1 0.933869 0.413557 0.086531
Si Si2 0.567637 0.585973 0.953304
Si Si3 0.645628 0.092895 0.796636
Si Si4 0.554968 0.105010 0.233525
Si Si5 0.909341 0.394493 0.598543
Si Si6 0.763210 0.513105 0.181740
Si Si7 0.337905 0.591395 0.648526
Si Si8 0.291953 0.905944 0.493095
O O1 0.920209 0.250000 0.080754
O O2 0.857457 0.462818 0.138170
O O3 0.069236 0.442801 0.101163
O O4 0.884587 0.492196 0.033890
O O5 0.551499 0.750000 0.957056
O O6 0.497849 0.520986 0.903692
O O7 0.500000 0.500000 0.000000
O O8 0.706686 0.558255 0.956624
O O9 0.634840 0.250000 0.812927
O O10 0.692008 0.085610 0.735084
O O11 0.524468 0.014786 0.788713
O O12 0.733802 0.010557 0.835551
O O13 0.492567 0.250000 0.225489
O O14 0.583103 0.089730 0.296684
O O15 0.679721 0.105404 0.204349
O O16 0.972935 0.250000 0.591265
O O17 0.827590 0.394710 0.649790
O O18 0.811666 0.401816 0.551669
O O19 0.298431 0.750000 0.641568
O O20 0.337412 0.750000 0.499156
#
# Coordination Sequence:
#
# PCOD9461781 Si02
#       8
#     8   8   8   8   8   8   8   8
#     4  10  18  30  49  71  92 120 158 195 230 275
#     4   9  16  26  39  58  86 119 155 186 223 270
#     4  11  22  34  49  67  90 122 160 198 238 282
#     4  10  20  34  51  67  90 122 156 198 239 280
#     4   9  17  28  42  60  88 121 153 189 228 270
#     4  10  20  33  47  71  94 122 157 196 235 281
#     4   9  19  34  49  66  90 119 154 196 236 275
#     4   8  16  27  39  60  91 122 148 184 227 270
#
# _framework density 22.994378999999999
#
# number of rings (size 3 to 8) (size 9 to 14) (size 15 to 20)
#    0.000    2.500    1.250    2.250    0.000   10.000 
#    0.000    0.000    0.000    0.000    0.000    0.000 
#    0.000    1.000    0.000    2.625    0.000    3.750 
#
# Total GULP energy -357044.651879 kJ/mol
# GULP energy per Si atom -5578.822686 kJ/mol
# Density = 2.294204 g / cm^3
# Si number density = 22.994379 Si / 1000 Ang^3
#
#
#
# Elastic Constant Matrix: (Units=GPa)
#
#
# Indices 1 2 3 4 5 6 
#
# 1 119.0434 66.2559 24.4851 0.0000 0.0000 0.0000
# 2 66.2559 146.5069 11.6124 0.0000 0.0000 0.0000
# 3 24.4851 11.6124 65.6704 0.0000 0.0000 0.0000
# 4 0.0000 0.0000 0.0000 -10.8446 0.0000 0.0000
# 5 0.0000 0.0000 0.0000 0.0000 52.3985 0.0000
# 6 0.0000 0.0000 0.0000 0.0000 0.0000 4.2220
#
#
#
# Elastic Compliance Matrix: (Units=1/GPa)
#
#
# Indices 1 2 3 4 5 6 
#
# 1 0.011995 -0.005142 -0.003563 0.000000 0.000000 0.000000
# 2 -0.005142 0.009127 0.000303 0.000000 0.000000 0.000000
# 3 -0.003563 0.000303 0.016502 0.000000 0.000000 0.000000
# 4 0.000000 0.000000 0.000000 -0.092212 0.000000 0.000000
# 5 0.000000 0.000000 0.000000 0.000000 0.019085 0.000000
# 6 0.000000 0.000000 0.000000 0.000000 0.000000 0.236854
#
#
# Mechanical properties :
#
#
# Convention : Reuss Voigt Hill
#
# Bulk Modulus (GPa) = 48.02913 59.54750 53.78832
# Shear Modulus (GPa) = 22.21283 24.41301 23.31292
#
# Velocity S-wave (km/s) = 3.11144 3.26190 3.18756
# Velocity P-wave (km/s) = 5.81728 6.33557 6.08195
#
# Compressibility (1/GPa) = 0.02082070
#
# Stress axis : x y z
#
# Youngs Moduli (GPa) = 83.36682 109.56395 60.59725
#
# Poissons Ratio (x) = 0.56341 0.21591
# Poissons Ratio (y) = 0.42869 -0.01838
# Poissons Ratio (z) = 0.29704 -0.03324
#
# Static dielectric constant tensor:
#      x y z
#    x 1.866920 0.000000 0.000000 
#    y 0.000000 1.813610 0.000000 
#    z 0.000000 0.000000 2.016310 
# 
# From -- ./inp_files/32518.got.cif
#   From: 2010.05.17/outbox.cif.g08.bks.cpg/sg62_17_cif.got.tgz:32518.got - 2010.06.03 15:25:27.
