data_PCOD9461929
_publ_section_title
;
Structure prediction by ZEFSAII (Michael W. Deem and Ramdas Pophale) SiO2 
 PCOD9461929
Probable space group: P N M A
;
_chemical_formula_sum "Si O2"
_cell_formula_units_Z 56
_cell_length_a 15.309776
_cell_length_b 7.690125
_cell_length_c 21.901411
_cell_angle_alpha 90.000000
_cell_angle_beta 90.000000
_cell_angle_gamma 90.000000
_cell_volume 2578.542719
_symmetry_space_group_name_H-M "P N M A"
_symmetry_group_IT_number 62
_symmetry_cell_setting 'orthorhombic'
loop_
_space_group_symop_operation_xyz
x,y,z
1/2-x,-y,1/2+z
1/2+x,1/2-y,1/2-z
-x,1/2+y,-z
-x,-y,-z
1/2+x,y,1/2-z
1/2-x,1/2+y,1/2+z
x,1/2-y,z
loop_
_atom_site_type_symbol
_atom_site_label
_atom_site_fract_x
_atom_site_fract_y
_atom_site_fract_z
Si Si1 0.187886 0.536409 0.764652
Si Si2 0.512286 0.041323 0.269607
Si Si3 0.677272 0.035770 0.342549
Si Si4 0.953609 0.957735 0.632912
Si Si5 0.272877 0.944142 0.525323
Si Si6 0.582395 0.054531 0.959092
Si Si7 0.265809 0.544073 0.893878
O O1 0.188105 0.750000 0.763147
O O2 0.248625 0.483124 0.707220
O O3 0.225478 0.478923 0.830527
O O4 0.086968 0.477619 0.764366
O O5 0.505384 0.250000 0.278248
O O6 0.581655 0.979168 0.319384
O O7 0.557043 0.012778 0.204269
O O8 0.680022 0.250000 0.343222
O O9 0.693538 0.972881 0.411661
O O10 0.964425 0.750000 0.622827
O O11 0.865436 0.022364 0.600667
O O12 0.040911 0.043732 0.607861
O O13 0.308680 0.750000 0.523332
O O14 0.168249 0.942432 0.534988
O O15 0.284984 0.017167 0.457127
O O16 0.608455 0.250000 0.975522
O O17 0.500000 0.000000 0.000000
O O18 0.274699 0.750000 0.885220
#
# Coordination Sequence:
#
# PCOD9461929 Si02
#       7
#     8   8   8   8   8   8   8
#     4   9  16  29  51  78 106 140 182 228 273 317
#     4   9  16  29  53  82 109 136 180 235 274 311
#     4   9  17  31  51  80 110 137 178 229 276 318
#     4  10  18  31  53  79 106 138 173 221 274 320
#     4  11  22  35  53  77 109 145 181 223 272 325
#     4  12  23  34  50  75 108 140 175 215 265 328
#     4  10  19  32  52  77 108 141 177 220 269 324
#
# _framework density 21.717694000000002
#
# number of rings (size 3 to 8) (size 9 to 14) (size 15 to 20)
#    0.000    2.000    2.857    2.571    0.000    2.286 
#    0.000    0.714    0.000    6.000    0.000    0.000 
#    0.000    0.000    0.000    0.000    0.000    0.000 
#
# Total GULP energy -312400.144532 kJ/mol
# GULP energy per Si atom -5578.574009 kJ/mol
# Density = 2.166826 g / cm^3
# Si number density = 21.717694 Si / 1000 Ang^3
#
#
#
# Elastic Constant Matrix: (Units=GPa)
#
#
# Indices 1 2 3 4 5 6 
#
# 1 64.5085 -2.7630 22.5998 0.0000 0.0000 0.0000
# 2 -2.7630 38.5389 6.3385 0.0000 0.0000 0.0000
# 3 22.5998 6.3385 98.4924 0.0000 0.0000 0.0000
# 4 0.0000 0.0000 0.0000 15.3466 0.0000 0.0000
# 5 0.0000 0.0000 0.0000 0.0000 39.4885 0.0000
# 6 0.0000 0.0000 0.0000 0.0000 0.0000 2.0402
#
#
#
# Elastic Compliance Matrix: (Units=1/GPa)
#
#
# Indices 1 2 3 4 5 6 
#
# 1 0.016991 0.001879 -0.004020 0.000000 0.000000 0.000000
# 2 0.001879 0.026433 -0.002132 0.000000 0.000000 0.000000
# 3 -0.004020 -0.002132 0.011213 0.000000 0.000000 0.000000
# 4 0.000000 0.000000 0.000000 0.065161 0.000000 0.000000
# 5 0.000000 0.000000 0.000000 0.000000 0.025324 0.000000
# 6 0.000000 0.000000 0.000000 0.000000 0.000000 0.490153
#
#
# Mechanical properties :
#
#
# Convention : Reuss Voigt Hill
#
# Bulk Modulus (GPa) = 21.69617 28.21004 24.95310
# Shear Modulus (GPa) = 7.58514 23.06603 15.32558
#
# Velocity S-wave (km/s) = 1.87088 3.26250 2.65933
# Velocity P-wave (km/s) = 3.83128 5.21627 4.57647
#
# Compressibility (1/GPa) = 0.04609108
#
# Stress axis : x y z
#
# Youngs Moduli (GPa) = 58.85641 37.83113 89.18541
#
# Poissons Ratio (x) = -0.07109 0.35848
# Poissons Ratio (y) = -0.11060 0.19017
# Poissons Ratio (z) = 0.23657 0.08067
#
# Static dielectric constant tensor:
#      x y z
#    x 1.786720 0.000000 0.000000 
#    y 0.000000 1.846210 0.000000 
#    z 0.000000 0.000000 1.851130 
# 
# From -- ./inp_files/27226.got.cif
#   From: 2010.05.17/outbox.cif.g08.bks.cpg/sg62_14_cif.got.tgz:27226.got - 2010.06.03 15:25:27.
