data_PCOD9461865
_publ_section_title
;
Structure prediction by ZEFSAII (Michael W. Deem and Ramdas Pophale) SiO2 
 PCOD9461865
Probable space group: P N M A
;
_chemical_formula_sum "Si O2"
_cell_formula_units_Z 64
_cell_length_a 8.678899
_cell_length_b 13.845187
_cell_length_c 30.553330
_cell_angle_alpha 90.000000
_cell_angle_beta 90.000000
_cell_angle_gamma 90.000000
_cell_volume 3671.318063
_symmetry_space_group_name_H-M "P N M A"
_symmetry_group_IT_number 62
_symmetry_cell_setting 'orthorhombic'
loop_
_space_group_symop_operation_xyz
x,y,z
1/2-x,-y,1/2+z
1/2+x,1/2-y,1/2-z
-x,1/2+y,-z
-x,-y,-z
1/2+x,y,1/2-z
1/2-x,1/2+y,1/2+z
x,1/2-y,z
loop_
_atom_site_type_symbol
_atom_site_label
_atom_site_fract_x
_atom_site_fract_y
_atom_site_fract_z
Si Si1 0.043901 0.135105 0.469180
Si Si2 0.629939 0.633338 0.725945
Si Si3 0.040184 0.132970 0.311298
Si Si4 0.454276 0.633638 0.640117
Si Si5 0.131733 0.947644 0.940242
Si Si6 0.005591 0.639508 0.027232
Si Si7 0.628912 0.945120 0.892333
Si Si8 0.143249 0.139937 0.563880
O O1 0.068147 0.250000 0.464124
O O2 0.193812 0.080918 0.450570
O O3 0.039471 0.116713 0.521087
O O4 0.901328 0.101833 0.439975
O O5 0.636165 0.750000 0.727987
O O6 0.794383 0.602305 0.707368
O O7 0.583792 0.602208 0.774497
O O8 0.501241 0.609462 0.689792
O O9 0.038309 0.250000 0.314873
O O10 0.998319 0.090815 0.358169
O O11 0.451135 0.750000 0.636157
O O12 0.579524 0.590051 0.606829
O O13 0.291307 0.590276 0.626208
O O14 0.097653 0.060505 0.948228
O O15 0.026914 0.892937 0.976824
O O16 0.951684 0.750000 0.030072
O O17 0.179112 0.634659 0.047122
O O18 0.622298 0.059279 0.899812
O O19 0.113185 0.250000 0.577401
#
# Coordination Sequence:
#
# PCOD9461865 Si02
#       8
#     8   8   8   8   8   8   8   8
#     4  10  20  34  50  70 105 142 173 216 268 313
#     4   9  19  34  52  76 108 140 163 200 255 313
#     4  10  19  33  52  76 107 136 165 202 254 314
#     4  11  20  30  47  76 107 134 173 214 253 307
#     4  10  18  31  50  72  96 136 177 217 259 311
#     4   9  17  32  51  70  97 133 176 224 268 306
#     4  12  21  32  50  78 101 138 177 216 252 311
#     4   9  19  36  52  69  99 140 180 222 269 306
#
# _framework density 17.432431000000001
#
# number of rings (size 3 to 8) (size 9 to 14) (size 15 to 20)
#    0.000    2.000    1.250    4.875    0.000    3.000 
#    0.000    0.625    0.000    0.000    0.000    4.375 
#    0.000    0.000    0.000    0.000    0.000    0.000 
#
# Total GULP energy -357369.482351 kJ/mol
# GULP energy per Si atom -5583.898162 kJ/mol
# Density = 1.739275 g / cm^3
# Si number density = 17.432431 Si / 1000 Ang^3
#
#
#
# Elastic Constant Matrix: (Units=GPa)
#
#
# Indices 1 2 3 4 5 6 
#
# 1 36.2295 15.4889 -1.6673 0.0000 0.0000 0.0000
# 2 15.4889 94.5320 37.8551 0.0000 0.0000 0.0000
# 3 -1.6673 37.8551 46.2155 0.0000 0.0000 0.0000
# 4 0.0000 0.0000 0.0000 19.1516 0.0000 0.0000
# 5 0.0000 0.0000 0.0000 0.0000 26.1466 0.0000
# 6 0.0000 0.0000 0.0000 0.0000 0.0000 14.6194
#
#
#
# Elastic Compliance Matrix: (Units=1/GPa)
#
#
# Indices 1 2 3 4 5 6 
#
# 1 0.031548 -0.008370 0.007994 0.000000 0.000000 0.000000
# 2 -0.008370 0.017963 -0.015015 0.000000 0.000000 0.000000
# 3 0.007994 -0.015015 0.034225 0.000000 0.000000 0.000000
# 4 0.000000 0.000000 0.000000 0.052215 0.000000 0.000000
# 5 0.000000 0.000000 0.000000 0.000000 0.038246 0.000000
# 6 0.000000 0.000000 0.000000 0.000000 0.000000 0.068402
#
#
# Mechanical properties :
#
#
# Convention : Reuss Voigt Hill
#
# Bulk Modulus (GPa) = 18.88447 31.14782 25.01615
# Shear Modulus (GPa) = 17.18018 20.33688 18.75853
#
# Velocity S-wave (km/s) = 3.14272 3.41928 3.28391
# Velocity P-wave (km/s) = 4.90157 5.78750 5.36286
#
# Compressibility (1/GPa) = 0.05295355
#
# Stress axis : x y z
#
# Youngs Moduli (GPa) = 31.69747 55.67078 29.21826
#
# Poissons Ratio (x) = 0.46599 -0.23358
# Poissons Ratio (y) = 0.26532 0.43872
# Poissons Ratio (z) = -0.25340 0.83591
#
# Static dielectric constant tensor:
#      x y z
#    x 1.632510 0.000000 0.000000 
#    y 0.000000 1.576830 0.000000 
#    z 0.000000 0.000000 1.581920 
# 
# From -- ./inp_files/32313.got.cif
#   From: 2010.05.17/outbox.cif.g08.bks.cpg/sg62_17_cif.got.tgz:32313.got - 2010.06.03 15:25:27.
