data_PCOD9461021
_publ_section_title
;
Structure prediction by ZEFSAII (Michael W. Deem and Ramdas Pophale) SiO2 
 PCOD9461021
Probable space group: P B C A
;
_chemical_formula_sum "Si O2"
_cell_formula_units_Z 56
_cell_length_a 11.657653
_cell_length_b 15.393228
_cell_length_c 14.022379
_cell_angle_alpha 90.000000
_cell_angle_beta 90.000000
_cell_angle_gamma 90.000000
_cell_volume 2516.300635
_symmetry_space_group_name_H-M "P B C A"
_symmetry_group_IT_number 61
_symmetry_cell_setting 'orthorhombic'
loop_
_space_group_symop_operation_xyz
x,y,z
1/2-x,-y,1/2+z
1/2+x,1/2-y,-z
-x,1/2+y,1/2-z
-x,-y,-z
1/2+x,y,1/2-z
1/2-x,1/2+y,z
x,1/2-y,1/2+z
loop_
_atom_site_type_symbol
_atom_site_label
_atom_site_fract_x
_atom_site_fract_y
_atom_site_fract_z
Si Si1 0.746555 0.812945 0.490073
Si Si2 0.982416 0.086035 0.936169
Si Si3 0.381086 0.834530 0.592733
Si Si4 0.732895 0.964933 0.790383
Si Si5 0.097038 0.610553 0.764529
Si Si6 0.373487 0.202664 0.314085
Si Si7 0.062403 0.064684 0.569281
O O1 0.643683 0.874423 0.454275
O O2 0.782065 0.736512 0.418618
O O3 0.703607 0.780914 0.592208
O O4 0.861033 0.870282 0.492391
O O5 0.986941 0.080957 0.822228
O O6 0.074062 0.149462 0.985193
O O7 0.000000 0.000000 0.000000
O O8 0.326375 0.918050 0.642268
O O9 0.494105 0.809853 0.653165
O O10 0.672935 0.887430 0.731004
O O11 0.800394 0.040230 0.732963
O O12 0.643307 0.011887 0.858893
O O13 0.133723 0.710596 0.750559
O O14 0.029984 0.610986 0.863910
O O15 0.000000 0.000000 0.500000
#
# Coordination Sequence:
#
# PCOD9461021 Si02
#       7
#     8   8   8   8   8   8   8
#     4  11  24  47  70 108 150 198 255 314 392 453
#     4  11  23  46  74 106 149 195 252 322 383 461
#     4  11  24  46  72 106 150 197 248 316 383 456
#     4  12  26  46  74 111 150 197 258 314 388 460
#     4  12  25  48  77 111 147 203 260 313 387 471
#     4  11  27  46  78 109 151 198 257 319 385 459
#     4  12  27  46  72 108 153 194 257 321 382 460
#
# _framework density 22.254894
#
# number of rings (size 3 to 8) (size 9 to 14) (size 15 to 20)
#    0.000    0.571    4.286    2.571    4.000    3.429 
#    0.000    0.000    0.000    0.000    0.000    0.000 
#    0.000    0.000    0.000    0.000    0.000    0.000 
#
# Total GULP energy -313160.812112 kJ/mol
# GULP energy per Si atom -5592.157359 kJ/mol
# Density = 2.220424 g / cm^3
# Si number density = 22.254894 Si / 1000 Ang^3
#
#
#
# Elastic Constant Matrix: (Units=GPa)
#
#
# Indices 1 2 3 4 5 6 
#
# 1 95.4574 47.8303 33.5466 0.0000 0.0000 0.0000
# 2 47.8303 122.0235 17.7242 0.0000 0.0000 0.0000
# 3 33.5466 17.7242 69.0092 0.0000 0.0000 0.0000
# 4 0.0000 0.0000 0.0000 42.7360 0.0000 0.0000
# 5 0.0000 0.0000 0.0000 0.0000 37.5001 0.0000
# 6 0.0000 0.0000 0.0000 0.0000 0.0000 49.7209
#
#
#
# Elastic Compliance Matrix: (Units=1/GPa)
#
#
# Indices 1 2 3 4 5 6 
#
# 1 0.015138 -0.005053 -0.006061 0.000000 0.000000 0.000000
# 2 -0.005053 0.010200 -0.000163 0.000000 0.000000 0.000000
# 3 -0.006061 -0.000163 0.017479 0.000000 0.000000 0.000000
# 4 0.000000 0.000000 0.000000 0.023399 0.000000 0.000000
# 5 0.000000 0.000000 0.000000 0.000000 0.026667 0.000000
# 6 0.000000 0.000000 0.000000 0.000000 0.000000 0.020112
#
#
# Mechanical properties :
#
#
# Convention : Reuss Voigt Hill
#
# Bulk Modulus (GPa) = 49.35395 53.85469 51.60432
# Shear Modulus (GPa) = 35.13614 38.48401 36.81008
#
# Velocity S-wave (km/s) = 3.97773 4.16292 4.07138
# Velocity P-wave (km/s) = 6.58189 6.88172 6.73348
#
# Compressibility (1/GPa) = 0.02026180
#
# Stress axis : x y z
#
# Youngs Moduli (GPa) = 66.05931 98.04283 57.21134
#
# Poissons Ratio (x) = 0.49544 0.34675
# Poissons Ratio (y) = 0.33382 0.00933
# Poissons Ratio (z) = 0.40038 0.01599
#
# Static dielectric constant tensor:
#      x y z
#    x 1.807380 0.000000 0.000000 
#    y 0.000000 1.918330 0.000000 
#    z 0.000000 0.000000 1.818320 
# 
# From -- ./inp_files/7511.got.cif
#   From: 2010.05.17/outbox.cif.g08.bks.cpg/sg61_4_cif.got.tgz:7511.got - 2010.06.03 15:17:17.
