data_PCOD9461001
_publ_section_title
;
Structure prediction by ZEFSAII (Michael W. Deem and Ramdas Pophale) SiO2 
 PCOD9461001
Probable space group: P B C A
;
_chemical_formula_sum "Si O2"
_cell_formula_units_Z 64
_cell_length_a 28.860798
_cell_length_b 10.266633
_cell_length_c 8.690272
_cell_angle_alpha 90.000000
_cell_angle_beta 90.000000
_cell_angle_gamma 90.000000
_cell_volume 2574.955586
_symmetry_space_group_name_H-M "P B C A"
_symmetry_group_IT_number 61
_symmetry_cell_setting 'orthorhombic'
loop_
_space_group_symop_operation_xyz
x,y,z
1/2-x,-y,1/2+z
1/2+x,1/2-y,-z
-x,1/2+y,1/2-z
-x,-y,-z
1/2+x,y,1/2-z
1/2-x,1/2+y,z
x,1/2-y,1/2+z
loop_
_atom_site_type_symbol
_atom_site_label
_atom_site_fract_x
_atom_site_fract_y
_atom_site_fract_z
Si Si1 0.966081 0.924692 0.615283
Si Si2 0.844759 0.329431 0.805673
Si Si3 0.209014 0.385371 0.865169
Si Si4 0.249526 0.861915 0.537151
Si Si5 0.529642 0.594098 0.109446
Si Si6 0.377633 0.562790 0.841355
Si Si7 0.619443 0.294488 0.472549
Si Si8 0.407276 0.161463 0.905194
O O1 0.932551 0.825639 0.528470
O O2 0.996077 0.865819 0.751286
O O3 0.932981 0.041208 0.672257
O O4 0.000000 0.000000 0.500000
O O5 0.796819 0.300965 0.885934
O O6 0.840183 0.451244 0.689755
O O7 0.868641 0.216247 0.709706
O O8 0.881552 0.372247 0.936370
O O9 0.229805 0.247823 0.925952
O O10 0.233331 0.508151 0.948487
O O11 0.156315 0.376109 0.926222
O O12 0.217778 0.392836 0.683188
O O13 0.572611 0.505876 0.164968
O O14 0.555376 0.725177 0.053803
O O15 0.500000 0.500000 0.000000
O O16 0.374320 0.664644 0.702434
O O17 0.372584 0.642990 0.995912
#
# Coordination Sequence:
#
# PCOD9461001 Si02
#       8
#     8   8   8   8   8   8   8   8
#     4  12  24  42  70  98 140 197 237 298 366 429
#     4  11  23  49  71 101 141 189 241 301 367 444
#     4  12  27  48  78 115 155 197 255 315 389 456
#     4  12  26  48  79 113 151 200 254 316 379 472
#     4  11  26  40  64 107 138 183 250 296 356 439
#     4  11  25  46  69 102 142 191 240 301 361 440
#     4  12  26  48  72 101 149 191 236 304 373 434
#     4  11  23  44  68  96 143 187 239 299 368 428
#
# _framework density 24.854796
#
# number of rings (size 3 to 8) (size 9 to 14) (size 15 to 20)
#    0.000    0.500    3.750    3.750    7.000    1.000 
#    0.000    0.000    0.000    0.000    0.000    0.000 
#    0.000    0.000    0.000    0.000    0.000    0.000 
#
# Total GULP energy -358907.762736 kJ/mol
# GULP energy per Si atom -5607.933793 kJ/mol
# Density = 2.479823 g / cm^3
# Si number density = 24.854796 Si / 1000 Ang^3
#
#
#
# Elastic Constant Matrix: (Units=GPa)
#
#
# Indices 1 2 3 4 5 6 
#
# 1 109.7602 10.1831 27.8253 0.0000 0.0000 0.0000
# 2 10.1831 81.8082 15.7457 0.0000 0.0000 0.0000
# 3 27.8253 15.7457 63.3949 0.0000 0.0000 0.0000
# 4 0.0000 0.0000 0.0000 49.2951 0.0000 0.0000
# 5 0.0000 0.0000 0.0000 0.0000 34.4539 0.0000
# 6 0.0000 0.0000 0.0000 0.0000 0.0000 28.1568
#
#
#
# Elastic Compliance Matrix: (Units=1/GPa)
#
#
# Indices 1 2 3 4 5 6 
#
# 1 0.010266 -0.000431 -0.004399 0.000000 0.000000 0.000000
# 2 -0.000431 0.012856 -0.003004 0.000000 0.000000 0.000000
# 3 -0.004399 -0.003004 0.018451 0.000000 0.000000 0.000000
# 4 0.000000 0.000000 0.000000 0.020286 0.000000 0.000000
# 5 0.000000 0.000000 0.000000 0.000000 0.029024 0.000000
# 6 0.000000 0.000000 0.000000 0.000000 0.000000 0.035515
#
#
# Mechanical properties :
#
#
# Convention : Reuss Voigt Hill
#
# Bulk Modulus (GPa) = 38.60278 40.27459 39.43868
# Shear Modulus (GPa) = 33.17839 35.79510 34.48675
#
# Velocity S-wave (km/s) = 3.65758 3.79907 3.72900
# Velocity P-wave (km/s) = 5.77946 5.95677 5.86878
#
# Compressibility (1/GPa) = 0.02590487
#
# Stress axis : x y z
#
# Youngs Moduli (GPa) = 97.40969 77.78758 54.19790
#
# Poissons Ratio (x) = 0.03354 0.23841
# Poissons Ratio (y) = 0.04200 0.16280
# Poissons Ratio (z) = 0.42849 0.23365
#
# Static dielectric constant tensor:
#      x y z
#    x 1.969140 0.000000 0.000000 
#    y 0.000000 1.957770 0.000000 
#    z 0.000000 0.000000 1.957260 
# 
# From -- ./inp_files/4628.got.cif
#   From: 2010.05.17/outbox.cif.g08.bks.cpg/sg61_3_cif.got.tgz:4628.got - 2010.06.03 15:17:17.
