data_PCOD9461284
_publ_section_title
;
Structure prediction by ZEFSAII (Michael W. Deem and Ramdas Pophale) SiO2 
 PCOD9461284
Probable space group: P B C A
;
_chemical_formula_sum "Si O2"
_cell_formula_units_Z 56
_cell_length_a 21.000000
_cell_length_b 15.000000
_cell_length_c 9.000000
_cell_angle_alpha 90.000000
_cell_angle_beta 90.000000
_cell_angle_gamma 90.000000
_cell_volume 2835.000000
_symmetry_space_group_name_H-M "P B C A"
_symmetry_group_IT_number 61
_symmetry_cell_setting 'orthorhombic'
loop_
_space_group_symop_operation_xyz
x,y,z
1/2-x,-y,1/2+z
1/2+x,1/2-y,-z
-x,1/2+y,1/2-z
-x,-y,-z
1/2+x,y,1/2-z
1/2-x,1/2+y,z
x,1/2-y,1/2+z
loop_
_atom_site_type_symbol
_atom_site_label
_atom_site_fract_x
_atom_site_fract_y
_atom_site_fract_z
Si Si1 0.609812 0.471091 0.706546
Si Si2 0.022044 0.878637 0.645131
Si Si3 0.371390 0.136533 0.643183
Si Si4 0.273715 0.650835 0.233994
Si Si5 0.227981 0.152134 0.592480
Si Si6 0.343078 0.472336 0.607141
Si Si7 0.934954 0.252527 0.610604
O O1 0.544705 0.430389 0.641801
O O2 0.591797 0.545597 0.826039
O O3 0.659451 0.402497 0.780219
O O4 0.647291 0.521282 0.571897
O O5 0.087395 0.937154 0.661524
O O6 0.019725 0.811532 0.785463
O O7 0.031516 0.819540 0.496223
O O8 0.297064 0.117148 0.640316
O O9 0.394208 0.183785 0.494682
O O10 0.388168 0.203417 0.775866
O O11 0.279179 0.748976 0.161085
O O12 0.268485 0.659499 0.413140
O O13 0.213478 0.594514 0.164361
O O14 0.177712 0.075152 0.641691
#
# Coordination Sequence:
#
# PCOD9461284 Si02
#       7
#     8   8   8   8   8   8   8
#     4  11  25  42  68  95 136 171 220 276 333 396
#     4  11  23  44  67  99 132 173 222 271 334 397
#     4  11  20  42  64  98 126 175 219 270 328 400
#     4  11  25  44  64  99 130 177 224 277 335 395
#     4  11  24  40  68  95 135 171 226 279 334 392
#     4  11  23  41  67  97 130 176 221 274 337 395
#     4  10  23  39  70  94 131 175 222 268 330 406
#
# _framework density 19.753086
#
# number of rings (size 3 to 8) (size 9 to 14) (size 15 to 20)
#    0.000    1.143    2.857    3.857    2.000    2.857 
#    5.143    0.000    0.000    0.000    0.000    0.000 
#    0.000    0.000    0.000    0.000    0.000    0.000 
#
# Total GULP energy -312651.957337 kJ/mol
# GULP energy per Si atom -5583.070667 kJ/mol
# Density = 1.970813 g / cm^3
# Si number density = 19.753086 Si / 1000 Ang^3
#
#
#
# Elastic Constant Matrix: (Units=GPa)
#
#
# Indices 1 2 3 4 5 6 
#
# 1 83.1039 36.8050 35.6316 0.0000 0.0000 0.0000
# 2 36.8050 120.4756 51.4381 0.0000 0.0000 0.0000
# 3 35.6316 51.4381 96.4817 0.0000 0.0000 0.0000
# 4 0.0000 0.0000 0.0000 9.2117 0.0000 0.0000
# 5 0.0000 0.0000 0.0000 0.0000 19.0476 0.0000
# 6 0.0000 0.0000 0.0000 0.0000 0.0000 32.7694
#
#
#
# Elastic Compliance Matrix: (Units=1/GPa)
#
#
# Indices 1 2 3 4 5 6 
#
# 1 0.015029 -0.002876 -0.004017 0.000000 0.000000 0.000000
# 2 -0.002876 0.011297 -0.004961 0.000000 0.000000 0.000000
# 3 -0.004017 -0.004961 0.014493 0.000000 0.000000 0.000000
# 4 0.000000 0.000000 0.000000 0.108557 0.000000 0.000000
# 5 0.000000 0.000000 0.000000 0.000000 0.052500 0.000000
# 6 0.000000 0.000000 0.000000 0.000000 0.000000 0.030516
#
#
# Mechanical properties :
#
#
# Convention : Reuss Voigt Hill
#
# Bulk Modulus (GPa) = 58.44070 60.86784 59.65427
# Shear Modulus (GPa) = 19.09822 23.95153 21.52487
#
# Velocity S-wave (km/s) = 3.11279 3.48594 3.30464
# Velocity P-wave (km/s) = 6.52450 6.86175 6.69525
#
# Compressibility (1/GPa) = 0.01711136
#
# Stress axis : x y z
#
# Youngs Moduli (GPa) = 66.53662 88.51788 68.99933
#
# Poissons Ratio (x) = 0.25461 0.27717
# Poissons Ratio (y) = 0.19138 0.34228
# Poissons Ratio (z) = 0.26728 0.43911
#
# Static dielectric constant tensor:
#      x y z
#    x 1.685940 0.000000 0.000000 
#    y 0.000000 1.740040 0.000000 
#    z 0.000000 0.000000 1.703390 
# 
# From -- ./inp_files/3975.got.cif
#   From: 2010.05.17/outbox.ucp.g08.bks.cvg/sg61_2_cif.got.tgz:3975.got - 2010.06.11 16:28:26.
