data_PCOD9461028
_publ_section_title
;
Structure prediction by ZEFSAII (Michael W. Deem and Ramdas Pophale) SiO2 
 PCOD9461028
Probable space group: P B C A
;
_chemical_formula_sum "Si O2"
_cell_formula_units_Z 40
_cell_length_a 9.809373
_cell_length_b 10.645815
_cell_length_c 14.331505
_cell_angle_alpha 90.000000
_cell_angle_beta 90.000000
_cell_angle_gamma 90.000000
_cell_volume 1496.621443
_symmetry_space_group_name_H-M "P B C A"
_symmetry_group_IT_number 61
_symmetry_cell_setting 'orthorhombic'
loop_
_space_group_symop_operation_xyz
x,y,z
1/2-x,-y,1/2+z
1/2+x,1/2-y,-z
-x,1/2+y,1/2-z
-x,-y,-z
1/2+x,y,1/2-z
1/2-x,1/2+y,z
x,1/2-y,1/2+z
loop_
_atom_site_type_symbol
_atom_site_label
_atom_site_fract_x
_atom_site_fract_y
_atom_site_fract_z
Si Si1 0.628056 0.156146 0.740286
Si Si2 0.713407 0.892308 0.056214
Si Si3 0.220871 0.581234 0.592403
Si Si4 0.552536 0.082871 0.289776
Si Si5 0.508807 0.205259 0.479612
O O1 0.692470 0.171943 0.843041
O O2 0.568140 0.296571 0.723045
O O3 0.523224 0.040303 0.747920
O O4 0.740044 0.117596 0.663203
O O5 0.566339 0.835833 0.035805
O O6 0.721199 0.023894 0.002625
O O7 0.834334 0.809467 0.008011
O O8 0.193505 0.467559 0.665743
O O9 0.477359 0.131093 0.383531
O O10 0.424349 0.362537 0.062364
#
# Coordination Sequence:
#
# PCOD9461028 Si02
#       5
#     8   8   8   8   8
#     4  12  27  45  80 117 155 212 268 331 397 484
#     4  11  25  45  78 109 162 201 268 325 398 474
#     4  11  23  47  72 107 156 214 257 325 401 473
#     4  11  26  47  74 111 159 201 265 332 395 470
#     4  11  23  49  71 109 154 212 250 335 395 465
#
# _framework density 26.726866000000001
#
# number of rings (size 3 to 8) (size 9 to 14) (size 15 to 20)
#    0.000    0.800    4.000    3.600    8.400    0.000 
#    0.000    2.000    0.000    0.000    0.000    0.000 
#    0.000    0.000    0.000    0.000    0.000    0.000 
#
# Total GULP energy -223913.195897 kJ/mol
# GULP energy per Si atom -5597.829897 kJ/mol
# Density = 2.666603 g / cm^3
# Si number density = 26.726866 Si / 1000 Ang^3
#
#
#
# Elastic Constant Matrix: (Units=GPa)
#
#
# Indices 1 2 3 4 5 6 
#
# 1 93.0341 17.4829 19.7528 0.0000 0.0000 0.0000
# 2 17.4829 117.6100 26.0875 0.0000 0.0000 0.0000
# 3 19.7528 26.0875 145.9291 0.0000 0.0000 0.0000
# 4 0.0000 0.0000 0.0000 51.6041 0.0000 0.0000
# 5 0.0000 0.0000 0.0000 0.0000 35.4556 0.0000
# 6 0.0000 0.0000 0.0000 0.0000 0.0000 40.9465
#
#
#
# Elastic Compliance Matrix: (Units=1/GPa)
#
#
# Indices 1 2 3 4 5 6 
#
# 1 0.011282 -0.001394 -0.001278 0.000000 0.000000 0.000000
# 2 -0.001394 0.009026 -0.001425 0.000000 0.000000 0.000000
# 3 -0.001278 -0.001425 0.007280 0.000000 0.000000 0.000000
# 4 0.000000 0.000000 0.000000 0.019378 0.000000 0.000000
# 5 0.000000 0.000000 0.000000 0.000000 0.028204 0.000000
# 6 0.000000 0.000000 0.000000 0.000000 0.000000 0.024422
#
#
# Mechanical properties :
#
#
# Convention : Reuss Voigt Hill
#
# Bulk Modulus (GPa) = 51.55904 53.69105 52.62504
# Shear Modulus (GPa) = 43.76330 45.15125 44.45728
#
# Velocity S-wave (km/s) = 4.05090 4.11464 4.08290
# Velocity P-wave (km/s) = 6.41971 6.53499 6.47761
#
# Compressibility (1/GPa) = 0.01939524
#
# Stress axis : x y z
#
# Youngs Moduli (GPa) = 88.63702 110.79219 137.35585
#
# Poissons Ratio (x) = 0.15440 0.17554
# Poissons Ratio (y) = 0.12352 0.19572
# Poissons Ratio (z) = 0.11328 0.15787
#
# Static dielectric constant tensor:
#      x y z
#    x 2.124670 0.000000 0.000000 
#    y 0.000000 2.179750 0.000000 
#    z 0.000000 0.000000 2.110350 
# 
# From -- ./inp_files/4784.got.cif
#   From: 2010.05.17/outbox.cif.g08.bks.cpg/sg61_3_cif.got.tgz:4784.got - 2010.06.03 15:17:17.
