data_PCOD9461596
_publ_section_title
;
Structure prediction by ZEFSAII (Michael W. Deem and Ramdas Pophale) SiO2 
 PCOD9461596
Probable space group: P N M A
;
_chemical_formula_sum "Si O2"
_cell_formula_units_Z 64
_cell_length_a 27.422098
_cell_length_b 9.021414
_cell_length_c 18.513864
_cell_angle_alpha 90.000000
_cell_angle_beta 90.000000
_cell_angle_gamma 90.000000
_cell_volume 4580.072589
_symmetry_space_group_name_H-M "P N M A"
_symmetry_group_IT_number 62
_symmetry_cell_setting 'orthorhombic'
loop_
_space_group_symop_operation_xyz
x,y,z
1/2-x,-y,1/2+z
1/2+x,1/2-y,1/2-z
-x,1/2+y,-z
-x,-y,-z
1/2+x,y,1/2-z
1/2-x,1/2+y,1/2+z
x,1/2-y,z
loop_
_atom_site_type_symbol
_atom_site_label
_atom_site_fract_x
_atom_site_fract_y
_atom_site_fract_z
Si Si1 0.255137 0.574263 0.926653
Si Si2 0.298832 0.579967 0.303138
Si Si3 0.851465 0.572272 0.668388
Si Si4 0.948028 0.928356 0.583688
Si Si5 0.949606 0.572031 0.415501
Si Si6 0.149862 0.070663 0.662367
Si Si7 0.241810 0.926916 0.582046
Si Si8 0.299166 0.420389 0.704601
O O1 0.252836 0.750000 0.939553
O O2 0.213425 0.522475 0.870772
O O3 0.306863 0.541741 0.887032
O O4 0.252199 0.487125 0.001302
O O5 0.306993 0.750000 0.326508
O O6 0.340501 0.533628 0.246427
O O7 0.250113 0.579021 0.253391
O O8 0.852066 0.750000 0.679131
O O9 0.902158 0.525324 0.632056
O O10 0.839351 0.493208 0.743697
O O11 0.951198 0.750000 0.586926
O O12 0.939643 0.968667 0.499414
O O13 0.999497 0.997922 0.606028
O O14 0.954818 0.750000 0.412541
O O15 0.903276 0.530634 0.367084
O O16 0.156064 0.250000 0.655641
O O17 0.191564 0.993269 0.614708
O O18 0.240413 0.750000 0.584086
O O19 0.284747 0.988082 0.633772
O O20 0.310378 0.250000 0.687001
#
# Coordination Sequence:
#
# PCOD9461596 Si02
#       8
#     8   8   8   8   8   8   8   8
#     4  10  18  28  42  59  82 110 138 168 203 243
#     4   8  15  27  41  58  79 103 133 168 204 242
#     4   9  17  29  44  60  81 111 143 173 208 246
#     4   9  17  28  41  59  84 111 140 175 209 240
#     4   9  17  29  43  59  81 110 142 174 208 242
#     4   9  17  30  45  59  80 110 141 173 209 246
#     4  11  20  28  41  61  84 109 139 171 203 244
#     4   9  17  29  43  59  81 107 136 170 206 244
#
# _framework density 13.973578
#
# number of rings (size 3 to 8) (size 9 to 14) (size 15 to 20)
#    0.000    2.750    0.000    3.375    0.000    6.500 
#    0.000    2.500    0.000    0.000    0.000    0.000 
#    0.000    1.000    0.000    3.000    0.000    4.625 
#
# Total GULP energy -356557.766667 kJ/mol
# GULP energy per Si atom -5571.215104 kJ/mol
# Density = 1.394177 g / cm^3
# Si number density = 13.973578 Si / 1000 Ang^3
#
#
#
# Elastic Constant Matrix: (Units=GPa)
#
#
# Indices 1 2 3 4 5 6 
#
# 1 99.1713 36.4312 59.2715 0.0000 0.0000 0.0000
# 2 36.4312 55.9880 52.7029 0.0000 0.0000 0.0000
# 3 59.2715 52.7029 92.3797 0.0000 0.0000 0.0000
# 4 0.0000 0.0000 0.0000 23.6287 0.0000 0.0000
# 5 0.0000 0.0000 0.0000 0.0000 26.8950 0.0000
# 6 0.0000 0.0000 0.0000 0.0000 0.0000 20.1660
#
#
#
# Elastic Compliance Matrix: (Units=1/GPa)
#
#
# Indices 1 2 3 4 5 6 
#
# 1 0.016426 -0.001658 -0.009593 0.000000 0.000000 0.000000
# 2 -0.001658 0.038747 -0.021041 0.000000 0.000000 0.000000
# 3 -0.009593 -0.021041 0.028984 0.000000 0.000000 0.000000
# 4 0.000000 0.000000 0.000000 0.042321 0.000000 0.000000
# 5 0.000000 0.000000 0.000000 0.000000 0.037182 0.000000
# 6 0.000000 0.000000 0.000000 0.000000 0.000000 0.049588
#
#
# Mechanical properties :
#
#
# Convention : Reuss Voigt Hill
#
# Bulk Modulus (GPa) = 51.09407 60.48335 55.78871
# Shear Modulus (GPa) = 17.58352 20.74684 19.16518
#
# Velocity S-wave (km/s) = 3.55116 3.85739 3.70743
# Velocity P-wave (km/s) = 7.31153 7.95093 7.63792
#
# Compressibility (1/GPa) = 0.01957174
#
# Stress axis : x y z
#
# Youngs Moduli (GPa) = 60.87817 25.80876 34.50178
#
# Poissons Ratio (x) = 0.04280 0.33098
# Poissons Ratio (y) = 0.10095 0.72596
# Poissons Ratio (z) = 0.58402 0.54305
#
# Static dielectric constant tensor:
#      x y z
#    x 1.444830 0.000000 0.000000 
#    y 0.000000 1.468250 0.000000 
#    z 0.000000 0.000000 1.453960 
# 
# From -- ./inp_files/21206.got.cif
#   From: 2010.05.17/outbox.cif.g08.bks.cpg/sg62_11_cif.got.tgz:21206.got - 2010.06.03 15:25:27.
