data_PCOD9461025
_publ_section_title
;
Structure prediction by ZEFSAII (Michael W. Deem and Ramdas Pophale) SiO2 
 PCOD9461025
Probable space group: P B C A
;
_chemical_formula_sum "Si O2"
_cell_formula_units_Z 32
_cell_length_a 6.729517
_cell_length_b 13.354606
_cell_length_c 15.105023
_cell_angle_alpha 90.000000
_cell_angle_beta 90.000000
_cell_angle_gamma 90.000000
_cell_volume 1357.489144
_symmetry_space_group_name_H-M "P B C A"
_symmetry_group_IT_number 61
_symmetry_cell_setting 'orthorhombic'
loop_
_space_group_symop_operation_xyz
x,y,z
1/2-x,-y,1/2+z
1/2+x,1/2-y,-z
-x,1/2+y,1/2-z
-x,-y,-z
1/2+x,y,1/2-z
1/2-x,1/2+y,z
x,1/2-y,1/2+z
loop_
_atom_site_type_symbol
_atom_site_label
_atom_site_fract_x
_atom_site_fract_y
_atom_site_fract_z
Si Si1 0.651683 0.610909 0.170846
Si Si2 0.372180 0.713931 0.631084
Si Si3 0.962217 0.140705 0.447925
Si Si4 0.280093 0.003465 0.652585
O O1 0.519406 0.711389 0.182823
O O2 0.833323 0.635433 0.106753
O O3 0.725588 0.564251 0.262513
O O4 0.506495 0.524984 0.131583
O O5 0.496053 0.673214 0.547359
O O6 0.278504 0.616182 0.676005
O O7 0.189361 0.778294 0.593282
O O8 0.849792 0.036395 0.429310
#
# Coordination Sequence:
#
# PCOD9461025 Si02
#       4
#     8   8   8   8
#     4  11  24  46  68 105 143 176 242 290 346 432
#     4  11  25  45  76 102 140 192 231 298 354 411
#     4  11  23  47  70 104 139 181 243 286 346 428
#     4  11  25  44  69 105 140 184 234 295 359 419
#
# _framework density 23.572932999999999
#
# number of rings (size 3 to 8) (size 9 to 14) (size 15 to 20)
#    0.000    1.000    5.000    0.750    0.000    7.000 
#    0.000    0.000    0.000    0.000    0.000    0.000 
#    0.000    0.000    0.000    0.000    0.000    0.000 
#
# Total GULP energy -179107.434375 kJ/mol
# GULP energy per Si atom -5597.107324 kJ/mol
# Density = 2.351928 g / cm^3
# Si number density = 23.572933 Si / 1000 Ang^3
#
#
#
# Elastic Constant Matrix: (Units=GPa)
#
#
# Indices 1 2 3 4 5 6 
#
# 1 68.0979 -16.8666 -18.2037 0.0000 0.0000 0.0000
# 2 -16.8666 93.3500 -5.8830 0.0000 0.0000 0.0000
# 3 -18.2037 -5.8830 45.2379 0.0000 0.0000 0.0000
# 4 0.0000 0.0000 0.0000 25.3173 0.0000 0.0000
# 5 0.0000 0.0000 0.0000 0.0000 39.1423 0.0000
# 6 0.0000 0.0000 0.0000 0.0000 0.0000 20.8736
#
#
#
# Elastic Compliance Matrix: (Units=1/GPa)
#
#
# Indices 1 2 3 4 5 6 
#
# 1 0.017613 0.003659 0.007563 0.000000 0.000000 0.000000
# 2 0.003659 0.011561 0.002976 0.000000 0.000000 0.000000
# 3 0.007563 0.002976 0.025536 0.000000 0.000000 0.000000
# 4 0.000000 0.000000 0.000000 0.039499 0.000000 0.000000
# 5 0.000000 0.000000 0.000000 0.000000 0.025548 0.000000
# 6 0.000000 0.000000 0.000000 0.000000 0.000000 0.047907
#
#
# Mechanical properties :
#
#
# Convention : Reuss Voigt Hill
#
# Bulk Modulus (GPa) = 12.03290 13.86434 12.94862
# Shear Modulus (GPa) = 29.94563 33.57593 31.76078
#
# Velocity S-wave (km/s) = 3.56805 3.77814 3.67460
# Velocity P-wave (km/s) = 4.70003 4.99266 4.84855
#
# Compressibility (1/GPa) = 0.08310550
#
# Stress axis : x y z
#
# Youngs Moduli (GPa) = 56.77702 86.49761 39.16074
#
# Poissons Ratio (x) = -0.31649 -0.29618
# Poissons Ratio (y) = -0.20774 -0.11654
# Poissons Ratio (z) = -0.42942 -0.25740
#
# Static dielectric constant tensor:
#      x y z
#    x 1.906280 0.000000 0.000000 
#    y 0.000000 1.954970 0.000000 
#    z 0.000000 0.000000 1.888380 
# 
# From -- ./inp_files/359.got.cif
#   From: 2010.05.17/outbox.cif.g08.bks.cpg/sg61_1_cif.got.tgz:359.got - 2010.06.03 15:17:17.
