data_PCOD9461320
_publ_section_title
;
Structure prediction by ZEFSAII (Michael W. Deem and Ramdas Pophale) SiO2 
 PCOD9461320
Probable space group: P N M A
;
_chemical_formula_sum "Si O2"
_cell_formula_units_Z 64
_cell_length_a 17.121243
_cell_length_b 18.934389
_cell_length_c 11.988947
_cell_angle_alpha 90.000000
_cell_angle_beta 90.000000
_cell_angle_gamma 90.000000
_cell_volume 3886.580137
_symmetry_space_group_name_H-M "P N M A"
_symmetry_group_IT_number 62
_symmetry_cell_setting 'orthorhombic'
loop_
_space_group_symop_operation_xyz
x,y,z
1/2-x,-y,1/2+z
1/2+x,1/2-y,1/2-z
-x,1/2+y,-z
-x,-y,-z
1/2+x,y,1/2-z
1/2-x,1/2+y,1/2+z
x,1/2-y,z
loop_
_atom_site_type_symbol
_atom_site_label
_atom_site_fract_x
_atom_site_fract_y
_atom_site_fract_z
Si Si1 0.020846 0.941491 0.091812
Si Si2 0.295307 0.546036 0.167577
Si Si3 0.267556 0.168526 0.064678
Si Si4 0.822359 0.426404 0.016531
Si Si5 0.091799 0.557172 0.550012
Si Si6 0.152326 0.410063 0.902158
Si Si7 0.441430 0.521728 0.826165
Si Si8 0.220677 0.092901 0.275922
O O1 0.940654 0.897931 0.100133
O O2 0.041224 0.982052 0.208237
O O3 0.095623 0.903400 0.037120
O O4 0.000000 0.000000 0.000000
O O5 0.368136 0.512412 0.103221
O O6 0.319767 0.589333 0.274903
O O7 0.247431 0.478845 0.213686
O O8 0.241134 0.583678 0.079272
O O9 0.286743 0.250000 0.050227
O O10 0.345050 0.119640 0.056734
O O11 0.227560 0.153299 0.184174
O O12 0.204691 0.141867 0.974444
O O13 0.831344 0.510547 0.047529
O O14 0.784518 0.394135 0.127473
O O15 0.073536 0.537122 0.422178
O O16 0.015002 0.565928 0.626013
O O17 0.365829 0.572362 0.816719
#
# Coordination Sequence:
#
# PCOD9461320 Si02
#       8
#     8   8   8   8   8   8   8   8
#     4  10  19  27  46  83 116 135 155 210 283 327
#     4  10  15  28  50  82 109 133 167 220 273 316
#     4  11  23  40  55  70 104 153 192 213 253 334
#     4  10  17  28  51  81 111 134 161 222 280 317
#     4  10  20  32  54  86 112 139 174 224 280 321
#     4  10  18  31  50  76 105 133 177 216 263 316
#     4  11  18  31  55  89 117 131 167 231 292 321
#     4  10  18  31  51  76 109 142 177 216 262 319
#
# _framework density 16.466919000000001
#
# number of rings (size 3 to 8) (size 9 to 14) (size 15 to 20)
#    0.000    1.750    6.250    1.500    1.750    0.000 
#    0.000    0.625    0.000    1.500    0.000    0.000 
#    0.000    0.000    0.000    0.000    0.000    0.000 
#
# Total GULP energy -356385.351238 kJ/mol
# GULP energy per Si atom -5568.521113 kJ/mol
# Density = 1.642944 g / cm^3
# Si number density = 16.466919 Si / 1000 Ang^3
#
#
#
# Elastic Constant Matrix: (Units=GPa)
#
#
# Indices 1 2 3 4 5 6 
#
# 1 87.3069 26.4581 46.5781 0.0000 0.0000 0.0000
# 2 26.4581 39.5987 24.8484 0.0000 0.0000 0.0000
# 3 46.5781 24.8484 130.1273 0.0000 0.0000 0.0000
# 4 0.0000 0.0000 0.0000 5.4795 0.0000 0.0000
# 5 0.0000 0.0000 0.0000 0.0000 31.3278 0.0000
# 6 0.0000 0.0000 0.0000 0.0000 0.0000 7.9816
#
#
#
# Elastic Compliance Matrix: (Units=1/GPa)
#
#
# Indices 1 2 3 4 5 6 
#
# 1 0.016186 -0.008156 -0.004236 0.000000 0.000000 0.000000
# 2 -0.008156 0.032802 -0.003344 0.000000 0.000000 0.000000
# 3 -0.004236 -0.003344 0.009840 0.000000 0.000000 0.000000
# 4 0.000000 0.000000 0.000000 0.182499 0.000000 0.000000
# 5 0.000000 0.000000 0.000000 0.000000 0.031921 0.000000
# 6 0.000000 0.000000 0.000000 0.000000 0.000000 0.125288
#
#
# Mechanical properties :
#
#
# Convention : Reuss Voigt Hill
#
# Bulk Modulus (GPa) = 36.55806 50.31136 43.43471
# Shear Modulus (GPa) = 11.38627 19.56766 15.47696
#
# Velocity S-wave (km/s) = 2.63242 3.45091 3.06908
# Velocity P-wave (km/s) = 5.61147 6.81892 6.24445
#
# Compressibility (1/GPa) = 0.02735375
#
# Stress axis : x y z
#
# Youngs Moduli (GPa) = 61.78368 30.48640 101.63023
#
# Poissons Ratio (x) = 0.24866 0.43051
# Poissons Ratio (y) = 0.50393 0.33986
# Poissons Ratio (z) = 0.26172 0.10195
#
# Static dielectric constant tensor:
#      x y z
#    x 1.623220 0.000000 0.000000 
#    y 0.000000 1.516760 0.000000 
#    z 0.000000 0.000000 1.557740 
# 
# From -- ./inp_files/14467.got.cif
#   From: 2010.05.17/outbox.cif.g08.bks.cpg/sg62_8_cif.got.tgz:14467.got - 2010.06.03 15:25:27.
