data_PCOD9461810
_publ_section_title
;
Structure prediction by ZEFSAII (Michael W. Deem and Ramdas Pophale) SiO2 
 PCOD9461810
Probable space group: P N M A
;
_chemical_formula_sum "Si O2"
_cell_formula_units_Z 64
_cell_length_a 21.033617
_cell_length_b 7.872726
_cell_length_c 15.763406
_cell_angle_alpha 90.000000
_cell_angle_beta 90.000000
_cell_angle_gamma 90.000000
_cell_volume 2610.292404
_symmetry_space_group_name_H-M "P N M A"
_symmetry_group_IT_number 62
_symmetry_cell_setting 'orthorhombic'
loop_
_space_group_symop_operation_xyz
x,y,z
1/2-x,-y,1/2+z
1/2+x,1/2-y,1/2-z
-x,1/2+y,-z
-x,-y,-z
1/2+x,y,1/2-z
1/2-x,1/2+y,1/2+z
x,1/2-y,z
loop_
_atom_site_type_symbol
_atom_site_label
_atom_site_fract_x
_atom_site_fract_y
_atom_site_fract_z
Si Si1 0.422578 0.455337 0.352881
Si Si2 0.223165 0.945751 0.829044
Si Si3 0.425565 0.946491 0.894473
Si Si4 0.945534 0.955518 0.786281
Si Si5 0.692464 0.441086 0.835080
Si Si6 0.254802 0.436666 0.000244
Si Si7 0.070830 0.040801 0.581269
Si Si8 0.612955 0.546989 0.466411
O O1 0.422981 0.250000 0.345002
O O2 0.350405 0.509107 0.331925
O O3 0.481930 0.520711 0.298779
O O4 0.431464 0.496902 0.452845
O O5 0.222906 0.750000 0.854379
O O6 0.238157 0.962843 0.729975
O O7 0.265164 0.034296 0.900338
O O8 0.404524 0.750000 0.893886
O O9 0.413315 0.020358 0.800840
O O10 0.502530 0.960511 0.901604
O O11 0.406189 0.015630 0.986830
O O12 0.947583 0.750000 0.778625
O O13 0.911244 0.998633 0.873926
O O14 0.689393 0.250000 0.803324
O O15 0.621810 0.513390 0.848598
O O16 0.717039 0.437964 0.930982
O O17 0.275786 0.250000 0.025464
O O18 0.179338 0.456768 0.013465
O O19 0.066250 0.250000 0.581432
O O20 0.622907 0.750000 0.469170
#
# Coordination Sequence:
#
# PCOD9461810 Si02
#       8
#     8   8   8   8   8   8   8   8
#     4   8  16  30  51  78 108 143 183 229 278 331
#     4  10  20  38  62  88 115 147 188 238 292 343
#     4   9  18  33  53  79 113 149 184 229 278 333
#     4  10  18  30  50  78 110 146 189 228 273 338
#     4  11  22  38  60  86 115 150 194 241 288 344
#     4  11  23  41  61  83 112 150 193 241 295 345
#     4   9  19  35  55  80 111 146 183 230 283 332
#     4  10  20  35  52  74 110 148 185 234 288 337
#
# _framework density 24.518325999999998
#
# number of rings (size 3 to 8) (size 9 to 14) (size 15 to 20)
#    0.000    2.250    0.000    4.125    0.000    2.500 
#    2.250    3.125    0.000    0.000    0.000    0.000 
#    0.000    0.000    0.000    0.000    0.000    0.000 
#
# Total GULP energy -357373.705747 kJ/mol
# GULP energy per Si atom -5583.964152 kJ/mol
# Density = 2.446252 g / cm^3
# Si number density = 24.518326 Si / 1000 Ang^3
#
#
#
# Elastic Constant Matrix: (Units=GPa)
#
#
# Indices 1 2 3 4 5 6 
#
# 1 18.3814 -4.6047 0.8035 0.0000 0.0000 0.0000
# 2 -4.6047 55.0530 7.6776 0.0000 0.0000 0.0000
# 3 0.8035 7.6776 153.1641 0.0000 0.0000 0.0000
# 4 0.0000 0.0000 0.0000 22.3198 0.0000 0.0000
# 5 0.0000 0.0000 0.0000 0.0000 35.6052 0.0000
# 6 0.0000 0.0000 0.0000 0.0000 0.0000 15.8811
#
#
#
# Elastic Compliance Matrix: (Units=1/GPa)
#
#
# Indices 1 2 3 4 5 6 
#
# 1 0.055610 0.004725 -0.000529 0.000000 0.000000 0.000000
# 2 0.004725 0.018694 -0.000962 0.000000 0.000000 0.000000
# 3 -0.000529 -0.000962 0.006580 0.000000 0.000000 0.000000
# 4 0.000000 0.000000 0.000000 0.044803 0.000000 0.000000
# 5 0.000000 0.000000 0.000000 0.000000 0.028086 0.000000
# 6 0.000000 0.000000 0.000000 0.000000 0.000000 0.062968
#
#
# Mechanical properties :
#
#
# Convention : Reuss Voigt Hill
#
# Bulk Modulus (GPa) = 11.44792 26.03905 18.74349
# Shear Modulus (GPa) = 20.88655 29.60936 25.24796
#
# Velocity S-wave (km/s) = 2.92186 3.47888 3.21247
# Velocity P-wave (km/s) = 4.00777 5.17495 4.62830
#
# Compressibility (1/GPa) = 0.08735209
#
# Stress axis : x y z
#
# Youngs Moduli (GPa) = 17.98254 53.49410 151.97729
#
# Poissons Ratio (x) = -0.25276 0.08033
# Poissons Ratio (y) = -0.08497 0.14618
# Poissons Ratio (z) = 0.00951 0.05145
#
# Static dielectric constant tensor:
#      x y z
#    x 1.982700 0.000000 0.000000 
#    y 0.000000 1.889520 0.000000 
#    z 0.000000 0.000000 2.025550 
# 
# From -- ./inp_files/20829.got.cif
#   From: 2010.05.17/outbox.cif.g08.bks.cpg/sg62_11_cif.got.tgz:20829.got - 2010.06.03 15:25:27.
