data_PCOD9461692
_publ_section_title
;
Structure prediction by ZEFSAII (Michael W. Deem and Ramdas Pophale) SiO2 
 PCOD9461692
Probable space group: P N M A
;
_chemical_formula_sum "Si O2"
_cell_formula_units_Z 56
_cell_length_a 21.357347
_cell_length_b 8.683545
_cell_length_c 18.815194
_cell_angle_alpha 90.000000
_cell_angle_beta 90.000000
_cell_angle_gamma 90.000000
_cell_volume 3489.418536
_symmetry_space_group_name_H-M "P N M A"
_symmetry_group_IT_number 62
_symmetry_cell_setting 'orthorhombic'
loop_
_space_group_symop_operation_xyz
x,y,z
1/2-x,-y,1/2+z
1/2+x,1/2-y,1/2-z
-x,1/2+y,-z
-x,-y,-z
1/2+x,y,1/2-z
1/2-x,1/2+y,1/2+z
x,1/2-y,z
loop_
_atom_site_type_symbol
_atom_site_label
_atom_site_fract_x
_atom_site_fract_y
_atom_site_fract_z
Si Si1 0.503441 0.934819 0.920593
Si Si2 0.685197 0.933745 0.715286
Si Si3 0.310563 0.433250 0.712607
Si Si4 0.252863 0.933236 0.581925
Si Si5 0.124823 0.434956 0.340099
Si Si6 0.626618 0.066615 0.846701
Si Si7 0.248656 0.935383 0.925740
O O1 0.508426 0.750000 0.923169
O O2 0.439642 0.974279 0.878858
O O3 0.563442 0.003457 0.880933
O O4 0.500000 0.000000 0.000000
O O5 0.678584 0.750000 0.721174
O O6 0.634016 0.014742 0.764548
O O7 0.695316 0.973644 0.632662
O O8 0.750676 0.985021 0.750888
O O9 0.302949 0.250000 0.713836
O O10 0.306471 0.493559 0.632219
O O11 0.366737 0.484511 0.763823
O O12 0.253213 0.750000 0.589557
O O13 0.186269 0.997506 0.610866
O O14 0.259830 0.983075 0.500567
O O15 0.127860 0.250000 0.330035
O O16 0.184076 0.476938 0.390405
O O17 0.370459 0.750000 0.148173
O O18 0.248872 0.750000 0.935517
#
# Coordination Sequence:
#
# PCOD9461692 Si02
#       7
#     8   8   8   8   8   8   8
#     4  11  22  35  51  71  97 129 164 198 233 274
#     4   9  17  31  49  67  91 122 156 194 237 283
#     4  10  18  29  47  68  92 121 155 194 235 281
#     4  11  20  30  47  70  97 126 158 195 237 284
#     4   9  19  34  49  66  93 127 159 194 233 276
#     4  11  21  33  48  67  96 129 163 199 233 276
#     4   9  17  30  48  71  97 122 152 194 242 284
#
# _framework density 16.04852
#
# number of rings (size 3 to 8) (size 9 to 14) (size 15 to 20)
#    0.000    2.000    0.000    8.143    0.000    5.143 
#    0.000    0.000    0.000    0.000    0.000    1.000 
#    0.000    0.000    0.000    0.000    0.000    0.000 
#
# Total GULP energy -312329.643873 kJ/mol
# GULP energy per Si atom -5577.315069 kJ/mol
# Density = 1.601199 g / cm^3
# Si number density = 16.048520 Si / 1000 Ang^3
#
#
#
# Elastic Constant Matrix: (Units=GPa)
#
#
# Indices 1 2 3 4 5 6 
#
# 1 69.8923 30.0035 60.1638 0.0000 0.0000 0.0000
# 2 30.0035 43.4311 44.1059 0.0000 0.0000 0.0000
# 3 60.1638 44.1059 141.8414 0.0000 0.0000 0.0000
# 4 0.0000 0.0000 0.0000 31.7826 0.0000 0.0000
# 5 0.0000 0.0000 0.0000 0.0000 24.9839 0.0000
# 6 0.0000 0.0000 0.0000 0.0000 0.0000 7.8192
#
#
#
# Elastic Compliance Matrix: (Units=1/GPa)
#
#
# Indices 1 2 3 4 5 6 
#
# 1 0.024950 -0.009484 -0.007634 0.000000 0.000000 0.000000
# 2 -0.009484 0.037257 -0.007562 0.000000 0.000000 0.000000
# 3 -0.007634 -0.007562 0.012640 0.000000 0.000000 0.000000
# 4 0.000000 0.000000 0.000000 0.031464 0.000000 0.000000
# 5 0.000000 0.000000 0.000000 0.000000 0.040026 0.000000
# 6 0.000000 0.000000 0.000000 0.000000 0.000000 0.127890
#
#
# Mechanical properties :
#
#
# Convention : Reuss Voigt Hill
#
# Bulk Modulus (GPa) = 39.23677 58.19014 48.71345
# Shear Modulus (GPa) = 15.05655 20.97660 18.01657
#
# Velocity S-wave (km/s) = 3.06631 3.61927 3.35420
# Velocity P-wave (km/s) = 6.08591 7.33506 6.73949
#
# Compressibility (1/GPa) = 0.02548630
#
# Stress axis : x y z
#
# Youngs Moduli (GPa) = 40.07954 26.84094 79.11581
#
# Poissons Ratio (x) = 0.25456 0.60397
# Poissons Ratio (y) = 0.38011 0.59830
# Poissons Ratio (z) = 0.30597 0.20298
#
# Static dielectric constant tensor:
#      x y z
#    x 1.531310 0.000000 0.000000 
#    y 0.000000 1.534220 0.000000 
#    z 0.000000 0.000000 1.564630 
# 
# From -- ./inp_files/24570.got.cif
#   From: 2010.05.17/outbox.cif.g08.bks.cpg/sg62_13_cif.got.tgz:24570.got - 2010.06.03 15:25:27.
