data_PCOD9461589
_publ_section_title
;
Structure prediction by ZEFSAII (Michael W. Deem and Ramdas Pophale) SiO2 
 PCOD9461589
Probable space group: P N M A
;
_chemical_formula_sum "Si O2"
_cell_formula_units_Z 56
_cell_length_a 19.675879
_cell_length_b 8.225206
_cell_length_c 18.484966
_cell_angle_alpha 90.000000
_cell_angle_beta 90.000000
_cell_angle_gamma 90.000000
_cell_volume 2991.572848
_symmetry_space_group_name_H-M "P N M A"
_symmetry_group_IT_number 62
_symmetry_cell_setting 'orthorhombic'
loop_
_space_group_symop_operation_xyz
x,y,z
1/2-x,-y,1/2+z
1/2+x,1/2-y,1/2-z
-x,1/2+y,-z
-x,-y,-z
1/2+x,y,1/2-z
1/2-x,1/2+y,1/2+z
x,1/2-y,z
loop_
_atom_site_type_symbol
_atom_site_label
_atom_site_fract_x
_atom_site_fract_y
_atom_site_fract_z
Si Si1 0.916555 0.562762 0.079874
Si Si2 0.773884 0.065229 0.074857
Si Si3 0.435076 0.054614 0.580832
Si Si4 0.423365 0.943018 0.986202
Si Si5 0.206300 0.055480 0.575937
Si Si6 0.848419 0.064716 0.653905
Si Si7 0.687886 0.947880 0.311509
O O1 0.901868 0.750000 0.097125
O O2 0.851239 0.456842 0.097556
O O3 0.989934 0.517664 0.111745
O O4 0.926166 0.541418 0.993570
O O5 0.750691 0.250000 0.088785
O O6 0.725125 0.943825 0.116306
O O7 0.760872 0.036559 0.989511
O O8 0.433906 0.250000 0.564643
O O9 0.374681 0.019237 0.635153
O O10 0.422270 0.750000 0.993493
O O11 0.398040 0.985238 0.905164
O O12 0.365293 0.007899 0.042866
O O13 0.500000 0.000000 0.000000
O O14 0.197623 0.250000 0.585907
O O15 0.242973 0.992586 0.648754
O O16 0.871640 0.250000 0.663553
O O17 0.834212 0.990067 0.732751
O O18 0.694486 0.750000 0.305449
#
# Coordination Sequence:
#
# PCOD9461589 Si02
#       7
#     8   8   8   8   8   8   8
#     4  10  18  27  45  75 102 127 168 215 252 293
#     4  10  18  32  52  70  99 138 172 208 254 311
#     4   9  17  30  48  70 101 138 171 203 251 310
#     4  10  20  36  58  81 106 140 182 226 271 321
#     4   8  15  29  53  77  94 127 175 213 253 309
#     4  10  20  33  54  80 105 130 169 223 271 315
#     4   9  16  31  53  76 101 135 174 214 261 321
#
# _framework density 18.719249000000001
#
# number of rings (size 3 to 8) (size 9 to 14) (size 15 to 20)
#    0.000    2.571    1.429    2.571    0.000    0.571 
#    0.000    2.857    0.000    8.571    0.000    0.000 
#    0.000    0.000    0.000    0.000    0.000    0.000 
#
# Total GULP energy -311768.712210 kJ/mol
# GULP energy per Si atom -5567.298432 kJ/mol
# Density = 1.867664 g / cm^3
# Si number density = 18.719249 Si / 1000 Ang^3
#
#
#
# Elastic Constant Matrix: (Units=GPa)
#
#
# Indices 1 2 3 4 5 6 
#
# 1 133.5676 15.7775 50.1705 0.0000 0.0000 0.0000
# 2 15.7775 19.4813 7.3132 0.0000 0.0000 0.0000
# 3 50.1705 7.3132 92.3065 0.0000 0.0000 0.0000
# 4 0.0000 0.0000 0.0000 14.9969 0.0000 0.0000
# 5 0.0000 0.0000 0.0000 0.0000 11.2293 0.0000
# 6 0.0000 0.0000 0.0000 0.0000 0.0000 22.5797
#
#
#
# Elastic Compliance Matrix: (Units=1/GPa)
#
#
# Indices 1 2 3 4 5 6 
#
# 1 0.010108 -0.006312 -0.004994 0.000000 0.000000 0.000000
# 2 -0.006312 0.056846 -0.001073 0.000000 0.000000 0.000000
# 3 -0.004994 -0.001073 0.013633 0.000000 0.000000 0.000000
# 4 0.000000 0.000000 0.000000 0.066680 0.000000 0.000000
# 5 0.000000 0.000000 0.000000 0.000000 0.089053 0.000000
# 6 0.000000 0.000000 0.000000 0.000000 0.000000 0.044288
#
#
# Mechanical properties :
#
#
# Convention : Reuss Voigt Hill
#
# Bulk Modulus (GPa) = 17.91178 43.54196 30.72687
# Shear Modulus (GPa) = 15.43328 21.23412 18.33370
#
# Velocity S-wave (km/s) = 2.87446 3.37166 3.13294
# Velocity P-wave (km/s) = 4.53939 6.20230 5.43482
#
# Compressibility (1/GPa) = 0.05582918
#
# Stress axis : x y z
#
# Youngs Moduli (GPa) = 98.92919 17.59141 73.35232
#
# Poissons Ratio (x) = 0.11103 0.36632
# Poissons Ratio (y) = 0.62441 0.07872
# Poissons Ratio (z) = 0.49405 0.01888
#
# Static dielectric constant tensor:
#      x y z
#    x 1.672150 0.000000 0.000000 
#    y 0.000000 1.667740 0.000000 
#    z 0.000000 0.000000 1.653480 
# 
# From -- ./inp_files/24633.got.cif
#   From: 2010.05.17/outbox.cif.g08.bks.cpg/sg62_13_cif.got.tgz:24633.got - 2010.06.03 15:25:27.
