data_PCOD9461740
_publ_section_title
;
Structure prediction by ZEFSAII (Michael W. Deem and Ramdas Pophale) SiO2 
 PCOD9461740
Probable space group: P N M A
;
_chemical_formula_sum "Si O2"
_cell_formula_units_Z 64
_cell_length_a 5.481804
_cell_length_b 17.727242
_cell_length_c 29.744353
_cell_angle_alpha 90.000000
_cell_angle_beta 90.000000
_cell_angle_gamma 90.000000
_cell_volume 2890.474907
_symmetry_space_group_name_H-M "P N M A"
_symmetry_group_IT_number 62
_symmetry_cell_setting 'orthorhombic'
loop_
_space_group_symop_operation_xyz
x,y,z
1/2-x,-y,1/2+z
1/2+x,1/2-y,1/2-z
-x,1/2+y,-z
-x,-y,-z
1/2+x,y,1/2-z
1/2-x,1/2+y,1/2+z
x,1/2-y,z
loop_
_atom_site_type_symbol
_atom_site_label
_atom_site_fract_x
_atom_site_fract_y
_atom_site_fract_z
Si Si1 0.561677 0.834620 0.073370
Si Si2 0.713111 0.521309 0.430957
Si Si3 0.850093 0.576305 0.136843
Si Si4 0.964273 0.938573 0.641232
Si Si5 0.500657 0.114362 0.237762
Si Si6 0.253249 0.381931 0.018472
Si Si7 0.244584 0.662334 0.930890
Si Si8 0.565081 0.941831 0.272286
O O1 0.462149 0.750000 0.072092
O O2 0.361932 0.900823 0.067963
O O3 0.707609 0.851027 0.119442
O O4 0.740434 0.847482 0.031050
O O5 0.453901 0.539960 0.409247
O O6 0.734654 0.473047 0.476418
O O7 0.835069 0.465701 0.394168
O O8 0.053052 0.580822 0.175183
O O9 0.664219 0.515402 0.156987
O O10 0.056469 0.898379 0.685427
O O11 0.776589 0.886936 0.613890
O O12 0.264975 0.152003 0.259173
O O13 0.546197 0.032856 0.263060
O O14 0.513696 0.356497 0.039478
O O15 0.009948 0.354693 0.044170
O O16 0.252475 0.750000 0.919964
O O17 0.315842 0.913289 0.249248
#
# Coordination Sequence:
#
# PCOD9461740 Si02
#       8
#     8   8   8   8   8   8   8   8
#     4  11  26  42  60  90 131 171 207 260 332 394
#     4  10  22  39  64  92 123 165 213 271 316 369
#     4  11  21  37  62  91 123 158 208 263 316 372
#     4  10  20  35  57  91 124 157 206 265 310 367
#     4  10  18  29  53  85 119 151 199 252 306 357
#     4  11  24  44  67  91 122 168 225 264 311 373
#     4  11  23  40  64  91 127 169 214 264 320 379
#     4  10  19  32  58  89 118 149 200 257 306 361
#
# _framework density 22.141687999999998
#
# number of rings (size 3 to 8) (size 9 to 14) (size 15 to 20)
#    0.000    1.500    3.750    3.000    3.500    1.000 
#    0.000    0.000    0.000    1.500    0.000    0.000 
#    0.000    0.000    0.000    0.000    0.000    0.000 
#
# Total GULP energy -357326.895979 kJ/mol
# GULP energy per Si atom -5583.232750 kJ/mol
# Density = 2.209129 g / cm^3
# Si number density = 22.141688 Si / 1000 Ang^3
#
#
#
# Elastic Constant Matrix: (Units=GPa)
#
#
# Indices 1 2 3 4 5 6 
#
# 1 109.0980 20.3887 11.4141 0.0000 0.0000 0.0000
# 2 20.3887 97.3620 21.3649 0.0000 0.0000 0.0000
# 3 11.4141 21.3649 76.6418 0.0000 0.0000 0.0000
# 4 0.0000 0.0000 0.0000 7.2973 0.0000 0.0000
# 5 0.0000 0.0000 0.0000 0.0000 35.5436 0.0000
# 6 0.0000 0.0000 0.0000 0.0000 0.0000 13.0326
#
#
#
# Elastic Compliance Matrix: (Units=1/GPa)
#
#
# Indices 1 2 3 4 5 6 
#
# 1 0.009601 -0.001807 -0.000926 0.000000 0.000000 0.000000
# 2 -0.001807 0.011280 -0.002875 0.000000 0.000000 0.000000
# 3 -0.000926 -0.002875 0.013987 0.000000 0.000000 0.000000
# 4 0.000000 0.000000 0.000000 0.137036 0.000000 0.000000
# 5 0.000000 0.000000 0.000000 0.000000 0.028134 0.000000
# 6 0.000000 0.000000 0.000000 0.000000 0.000000 0.076730
#
#
# Mechanical properties :
#
#
# Convention : Reuss Voigt Hill
#
# Bulk Modulus (GPa) = 42.28172 43.27077 42.77625
# Shear Modulus (GPa) = 16.89930 26.50366 21.70148
#
# Velocity S-wave (km/s) = 2.76567 3.46353 3.13408
# Velocity P-wave (km/s) = 5.41627 5.96488 5.69718
#
# Compressibility (1/GPa) = 0.02365088
#
# Stress axis : x y z
#
# Youngs Moduli (GPa) = 104.15900 88.64944 71.49414
#
# Poissons Ratio (x) = 0.16022 0.06620
# Poissons Ratio (y) = 0.18825 0.20557
# Poissons Ratio (z) = 0.09645 0.25490
#
# Static dielectric constant tensor:
#      x y z
#    x 1.879870 0.000000 0.000000 
#    y 0.000000 1.802330 0.000000 
#    z 0.000000 0.000000 1.877860 
# 
# From -- ./inp_files/31693.got.cif
#   From: 2010.05.17/outbox.cif.g08.bks.cpg/sg62_16_cif.got.tgz:31693.got - 2010.06.03 15:25:27.
