data_PCOD9461660
_publ_section_title
;
Structure prediction by ZEFSAII (Michael W. Deem and Ramdas Pophale) SiO2 
 PCOD9461660
Probable space group: P N M A
;
_chemical_formula_sum "Si O2"
_cell_formula_units_Z 64
_cell_length_a 19.759337
_cell_length_b 7.589772
_cell_length_c 24.382672
_cell_angle_alpha 90.000000
_cell_angle_beta 90.000000
_cell_angle_gamma 90.000000
_cell_volume 3656.641589
_symmetry_space_group_name_H-M "P N M A"
_symmetry_group_IT_number 62
_symmetry_cell_setting 'orthorhombic'
loop_
_space_group_symop_operation_xyz
x,y,z
1/2-x,-y,1/2+z
1/2+x,1/2-y,1/2-z
-x,1/2+y,-z
-x,-y,-z
1/2+x,y,1/2-z
1/2-x,1/2+y,1/2+z
x,1/2-y,z
loop_
_atom_site_type_symbol
_atom_site_label
_atom_site_fract_x
_atom_site_fract_y
_atom_site_fract_z
Si Si1 0.498146 0.462647 0.117487
Si Si2 0.645977 0.962538 0.727789
Si Si3 0.731294 0.454722 0.157721
Si Si4 0.270377 0.539265 0.163253
Si Si5 0.149850 0.958581 0.235470
Si Si6 0.137965 0.466788 0.438508
Si Si7 0.499517 0.462291 0.243736
Si Si8 0.645435 0.459511 0.937421
O O1 0.499713 0.250000 0.119085
O O2 0.564844 0.521671 0.084953
O O3 0.499513 0.525593 0.180496
O O4 0.429262 0.514989 0.087507
O O5 0.645724 0.750000 0.723105
O O6 0.699558 0.031905 0.682989
O O7 0.568790 0.025505 0.726673
O O8 0.676786 0.004044 0.787579
O O9 0.745100 0.250000 0.145756
O O10 0.677044 0.461682 0.207480
O O11 0.695577 0.528751 0.103821
O O12 0.264936 0.750000 0.156977
O O13 0.198422 0.474444 0.186697
O O14 0.300920 0.467548 0.106758
O O15 0.161202 0.750000 0.240492
O O16 0.070635 0.990471 0.229109
O O17 0.137915 0.250000 0.437948
O O18 0.148484 0.527767 0.500635
O O19 0.496137 0.250000 0.241863
O O20 0.656976 0.250000 0.941187
#
# Coordination Sequence:
#
# PCOD9461660 Si02
#       8
#     8   8   8   8   8   8   8   8
#     4  10  18  29  42  61  90 117 144 177 204 240
#     4   9  17  28  46  65  83 110 142 174 216 259
#     4   9  16  30  47  63  84 111 142 179 216 251
#     4   9  18  30  42  61  87 111 141 179 211 248
#     4  10  19  29  43  63  86 112 142 176 215 255
#     4   9  17  29  44  61  84 115 147 176 208 244
#     4  10  18  29  44  65  89 114 142 175 213 256
#     4  10  19  30  44  61  84 117 149 175 206 247
#
# _framework density 17.502400000000002
#
# number of rings (size 3 to 8) (size 9 to 14) (size 15 to 20)
#    0.000    2.500    2.500    0.750    0.000    1.500 
#    0.000    0.625    0.000    0.000    0.000    0.875 
#    0.000    0.000    0.000    0.000    0.000    0.000 
#
# Total GULP energy -356899.185243 kJ/mol
# GULP energy per Si atom -5576.549769 kJ/mol
# Density = 1.746256 g / cm^3
# Si number density = 17.502400 Si / 1000 Ang^3
#
#
#
# Elastic Constant Matrix: (Units=GPa)
#
#
# Indices 1 2 3 4 5 6 
#
# 1 150.3235 -2.8026 85.9129 0.0000 0.0000 0.0000
# 2 -2.8026 37.7485 5.3550 0.0000 0.0000 0.0000
# 3 85.9129 5.3550 119.3852 0.0000 0.0000 0.0000
# 4 0.0000 0.0000 0.0000 0.3427 0.0000 0.0000
# 5 0.0000 0.0000 0.0000 0.0000 21.7596 0.0000
# 6 0.0000 0.0000 0.0000 0.0000 0.0000 17.3940
#
#
#
# Elastic Compliance Matrix: (Units=1/GPa)
#
#
# Indices 1 2 3 4 5 6 
#
# 1 0.011453 0.002032 -0.008333 0.000000 0.000000 0.000000
# 2 0.002032 0.027021 -0.002675 0.000000 0.000000 0.000000
# 3 -0.008333 -0.002675 0.014493 0.000000 0.000000 0.000000
# 4 0.000000 0.000000 0.000000 2.917991 0.000000 0.000000
# 5 0.000000 0.000000 0.000000 0.000000 0.045957 0.000000
# 6 0.000000 0.000000 0.000000 0.000000 0.000000 0.057491
#
#
# Mechanical properties :
#
#
# Convention : Reuss Voigt Hill
#
# Bulk Modulus (GPa) = 28.55776 53.82086 41.18931
# Shear Modulus (GPa) = 1.61081 22.49872 12.05477
#
# Velocity S-wave (km/s) = 0.96038 3.58923 2.62725
# Velocity P-wave (km/s) = 4.19305 6.92777 5.72607
#
# Compressibility (1/GPa) = 0.03501676
#
# Stress axis : x y z
#
# Youngs Moduli (GPa) = 87.31705 37.00764 69.00047
#
# Poissons Ratio (x) = -0.07521 0.57496
# Poissons Ratio (y) = -0.17746 0.18455
# Poissons Ratio (z) = 0.72759 0.09898
#
# Static dielectric constant tensor:
#      x y z
#    x 1.609110 0.000000 0.000000 
#    y 0.000000 1.644020 0.000000 
#    z 0.000000 0.000000 1.588700 
# 
# From -- ./inp_files/27894.got.cif
#   From: 2010.05.17/outbox.cif.g08.bks.cpg/sg62_14_cif.got.tgz:27894.got - 2010.06.03 15:25:27.
