data_PCOD9461098
_publ_section_title
;
Structure prediction by ZEFSAII (Michael W. Deem and Ramdas Pophale) SiO2 
 PCOD9461098
Probable space group: P B C A
;
_chemical_formula_sum "Si O2"
_cell_formula_units_Z 64
_cell_length_a 18.364173
_cell_length_b 11.166734
_cell_length_c 14.650245
_cell_angle_alpha 90.000000
_cell_angle_beta 90.000000
_cell_angle_gamma 90.000000
_cell_volume 3004.294025
_symmetry_space_group_name_H-M "P B C A"
_symmetry_group_IT_number 61
_symmetry_cell_setting 'orthorhombic'
loop_
_space_group_symop_operation_xyz
x,y,z
1/2-x,-y,1/2+z
1/2+x,1/2-y,-z
-x,1/2+y,1/2-z
-x,-y,-z
1/2+x,y,1/2-z
1/2-x,1/2+y,z
x,1/2-y,1/2+z
loop_
_atom_site_type_symbol
_atom_site_label
_atom_site_fract_x
_atom_site_fract_y
_atom_site_fract_z
Si Si1 0.837528 0.945736 0.656308
Si Si2 0.851974 0.401827 0.343568
Si Si3 0.374044 0.337741 0.578533
Si Si4 0.011607 0.741738 0.452667
Si Si5 0.116751 0.195811 0.904529
Si Si6 0.765091 0.966791 0.000191
Si Si7 0.496575 0.010681 0.865297
Si Si8 0.490275 0.500858 0.842996
O O1 0.850775 0.801962 0.658213
O O2 0.912728 0.988260 0.607631
O O3 0.832746 0.022589 0.750958
O O4 0.769823 0.971619 0.589865
O O5 0.855515 0.256946 0.340469
O O6 0.801462 0.444114 0.427045
O O7 0.934781 0.434915 0.368857
O O8 0.409143 0.262680 0.495912
O O9 0.301082 0.402937 0.551042
O O10 0.438931 0.433168 0.592764
O O11 0.948445 0.741946 0.529510
O O12 0.014836 0.615007 0.404237
O O13 0.992485 0.849022 0.383210
O O14 0.177796 0.133384 0.966601
O O15 0.077558 0.089631 0.849677
O O16 0.499201 0.968972 0.761508
#
# Coordination Sequence:
#
# PCOD9461098 Si02
#       8
#     8   8   8   8   8   8   8   8
#     4  11  25  45  70 101 142 185 234 296 350 422
#     4  11  25  45  70 101 142 185 234 296 350 422
#     4  12  24  44  72 101 138 186 234 286 355 421
#     4  12  22  42  70 100 138 182 232 286 342 422
#     4  12  24  44  72 101 138 186 234 286 355 421
#     4  12  26  44  68 106 142 190 228 292 364 418
#     4  11  25  41  72 104 134 181 234 291 345 415
#     4  11  25  41  72 104 134 181 234 291 345 415
#
# _framework density 21.302841000000001
#
# number of rings (size 3 to 8) (size 9 to 14) (size 15 to 20)
#    0.000    0.500    5.000    3.000    7.000    2.000 
#    0.000    0.000    0.000    0.000    0.000    0.000 
#    0.000    0.000    0.000    0.000    0.000    0.000 
#
# Total GULP energy -357416.412054 kJ/mol
# GULP energy per Si atom -5584.631438 kJ/mol
# Density = 2.125435 g / cm^3
# Si number density = 21.302841 Si / 1000 Ang^3
#
#
#
# Elastic Constant Matrix: (Units=GPa)
#
#
# Indices 1 2 3 4 5 6 
#
# 1 103.7244 4.8680 14.1646 0.0000 0.0000 0.0000
# 2 4.8680 75.2594 15.6269 0.0000 0.0000 0.0000
# 3 14.1646 15.6269 66.6481 0.0000 0.0000 0.0000
# 4 0.0000 0.0000 0.0000 30.0587 0.0000 0.0000
# 5 0.0000 0.0000 0.0000 0.0000 33.5361 0.0000
# 6 0.0000 0.0000 0.0000 0.0000 0.0000 124.8305
#
#
#
# Elastic Compliance Matrix: (Units=1/GPa)
#
#
# Indices 1 2 3 4 5 6 
#
# 1 0.009932 -0.000215 -0.002061 0.000000 0.000000 0.000000
# 2 -0.000215 0.013972 -0.003230 0.000000 0.000000 0.000000
# 3 -0.002061 -0.003230 0.016200 0.000000 0.000000 0.000000
# 4 0.000000 0.000000 0.000000 0.033268 0.000000 0.000000
# 5 0.000000 0.000000 0.000000 0.000000 0.029819 0.000000
# 6 0.000000 0.000000 0.000000 0.000000 0.000000 0.008011
#
#
# Mechanical properties :
#
#
# Convention : Reuss Voigt Hill
#
# Bulk Modulus (GPa) = 34.37279 34.99455 34.68367
# Shear Modulus (GPa) = 37.90451 51.74990 44.82721
#
# Velocity S-wave (km/s) = 4.22277 4.93409 4.59222
# Velocity P-wave (km/s) = 6.32029 6.99451 6.66593
#
# Compressibility (1/GPa) = 0.02909278
#
# Stress axis : x y z
#
# Youngs Moduli (GPa) = 100.68063 71.57166 61.73014
#
# Poissons Ratio (x) = 0.01536 0.12720
# Poissons Ratio (y) = 0.02161 0.19941
# Poissons Ratio (z) = 0.20746 0.23120
#
# Static dielectric constant tensor:
#      x y z
#    x 1.750490 0.000000 0.000000 
#    y 0.000000 1.826490 0.000000 
#    z 0.000000 0.000000 1.806270 
# 
# From -- ./inp_files/8213.got.cif
#   From: 2010.05.17/outbox.cif.g08.bks.cpg/sg61_5_cif.got.tgz:8213.got - 2010.06.03 15:17:17.
