data_PCOD9461405
_publ_section_title
;
Structure prediction by ZEFSAII (Michael W. Deem and Ramdas Pophale) SiO2 
 PCOD9461405
Probable space group: P N M A
;
_chemical_formula_sum "Si O2"
_cell_formula_units_Z 40
_cell_length_a 7.435218
_cell_length_b 20.102864
_cell_length_c 9.817136
_cell_angle_alpha 90.000000
_cell_angle_beta 90.000000
_cell_angle_gamma 90.000000
_cell_volume 1467.359231
_symmetry_space_group_name_H-M "P N M A"
_symmetry_group_IT_number 62
_symmetry_cell_setting 'orthorhombic'
loop_
_space_group_symop_operation_xyz
x,y,z
1/2-x,-y,1/2+z
1/2+x,1/2-y,1/2-z
-x,1/2+y,-z
-x,-y,-z
1/2+x,y,1/2-z
1/2-x,1/2+y,1/2+z
x,1/2-y,z
loop_
_atom_site_type_symbol
_atom_site_label
_atom_site_fract_x
_atom_site_fract_y
_atom_site_fract_z
Si Si1 0.810038 0.026143 0.060987
Si Si2 0.473487 0.433058 0.904590
Si Si3 0.116460 0.674836 0.926545
Si Si4 0.204552 0.821225 0.531030
Si Si5 0.187025 0.178053 0.716306
O O1 0.651927 0.027274 0.946530
O O2 0.824025 0.100799 0.120967
O O3 0.698983 0.972823 0.150666
O O4 0.000000 0.000000 0.000000
O O5 0.419764 0.385666 0.034446
O O6 0.549281 0.381756 0.795532
O O7 0.174406 0.750000 0.880095
O O8 0.179203 0.673191 0.086079
O O9 0.901522 0.672935 0.905585
O O10 0.123340 0.750000 0.571498
O O11 0.247862 0.819923 0.370042
O O12 0.096127 0.250000 0.695610
#
# Coordination Sequence:
#
# PCOD9461405 Si02
#       5
#     8   8   8   8   8
#     4  10  19  33  45  62  91 125 172 212 238 278
#     4  10  19  29  48  65  87 135 167 196 242 277
#     4   9  17  28  43  62  90 126 158 198 245 283
#     4  10  17  27  45  70  99 131 163 192 231 292
#     4   9  17  28  43  69 100 129 163 195 228 286
#
# _framework density 27.259853
#
# number of rings (size 3 to 8) (size 9 to 14) (size 15 to 20)
#    0.000    2.400    2.000    1.800    0.000    4.000 
#    0.000    0.000    0.000    0.000    0.000    0.000 
#    0.000    1.600    0.000    0.000    0.000    0.800 
#
# Total GULP energy -223049.814617 kJ/mol
# GULP energy per Si atom -5576.245365 kJ/mol
# Density = 2.719781 g / cm^3
# Si number density = 27.259853 Si / 1000 Ang^3
#
#
#
# Elastic Constant Matrix: (Units=GPa)
#
#
# Indices 1 2 3 4 5 6 
#
# 1 173.3604 79.7535 16.2707 0.0000 0.0000 0.0000
# 2 79.7535 217.0564 8.8023 0.0000 0.0000 0.0000
# 3 16.2707 8.8023 60.9008 0.0000 0.0000 0.0000
# 4 0.0000 0.0000 0.0000 6.1696 0.0000 0.0000
# 5 0.0000 0.0000 0.0000 0.0000 10.2837 0.0000
# 6 0.0000 0.0000 0.0000 0.0000 0.0000 64.6640
#
#
#
# Elastic Compliance Matrix: (Units=1/GPa)
#
#
# Indices 1 2 3 4 5 6 
#
# 1 0.007080 -0.002539 -0.001524 0.000000 0.000000 0.000000
# 2 -0.002539 0.005545 -0.000123 0.000000 0.000000 0.000000
# 3 -0.001524 -0.000123 0.016845 0.000000 0.000000 0.000000
# 4 0.000000 0.000000 0.000000 0.162085 0.000000 0.000000
# 5 0.000000 0.000000 0.000000 0.000000 0.097241 0.000000
# 6 0.000000 0.000000 0.000000 0.000000 0.000000 0.015465
#
#
# Mechanical properties :
#
#
# Convention : Reuss Voigt Hill
#
# Bulk Modulus (GPa) = 47.40180 73.44117 60.42149
# Shear Modulus (GPa) = 15.64130 39.32287 27.48209
#
# Velocity S-wave (km/s) = 2.39798 3.80217 3.17859
# Velocity P-wave (km/s) = 5.00936 6.80257 5.97364
#
# Compressibility (1/GPa) = 0.02109625
#
# Stress axis : x y z
#
# Youngs Moduli (GPa) = 141.24943 180.33709 59.36412
#
# Poissons Ratio (x) = 0.45796 0.09050
# Poissons Ratio (y) = 0.35870 0.00730
# Poissons Ratio (z) = 0.21532 0.02218
#
# Static dielectric constant tensor:
#      x y z
#    x 2.175190 0.000000 0.000000 
#    y 0.000000 2.473030 0.000000 
#    z 0.000000 0.000000 2.210940 
# 
# From -- ./inp_files/22303.got.cif
#   From: 2010.05.17/outbox.cif.g08.bks.cpg/sg62_12_cif.got.tgz:22303.got - 2010.06.03 15:25:27.
