data_PCOD9461474
_publ_section_title
;
Structure prediction by ZEFSAII (Michael W. Deem and Ramdas Pophale) SiO2 
 PCOD9461474
Probable space group: P N M A
;
_chemical_formula_sum "Si O2"
_cell_formula_units_Z 64
_cell_length_a 19.517849
_cell_length_b 13.945552
_cell_length_c 13.864445
_cell_angle_alpha 90.000000
_cell_angle_beta 90.000000
_cell_angle_gamma 90.000000
_cell_volume 3773.724161
_symmetry_space_group_name_H-M "P N M A"
_symmetry_group_IT_number 62
_symmetry_cell_setting 'orthorhombic'
loop_
_space_group_symop_operation_xyz
x,y,z
1/2-x,-y,1/2+z
1/2+x,1/2-y,1/2-z
-x,1/2+y,-z
-x,-y,-z
1/2+x,y,1/2-z
1/2-x,1/2+y,1/2+z
x,1/2-y,z
loop_
_atom_site_type_symbol
_atom_site_label
_atom_site_fract_x
_atom_site_fract_y
_atom_site_fract_z
Si Si1 0.106987 0.641581 0.480656
Si Si2 0.409786 0.134181 0.604288
Si Si3 0.188859 0.475567 0.790556
Si Si4 0.961990 0.634965 0.424038
Si Si5 0.304978 0.134528 0.442068
Si Si6 0.549776 0.134072 0.698445
Si Si7 0.180477 0.036392 0.559633
Si Si8 0.320976 0.141108 0.782315
O O1 0.112042 0.750000 0.519090
O O2 0.161567 0.570289 0.525841
O O3 0.123752 0.646032 0.367040
O O4 0.028663 0.605807 0.485462
O O5 0.410948 0.250000 0.614404
O O6 0.374682 0.113648 0.502376
O O7 0.486767 0.103550 0.629933
O O8 0.357768 0.099922 0.687827
O O9 0.120696 0.419292 0.823275
O O10 0.190952 0.470001 0.674468
O O11 0.257280 0.419172 0.819411
O O12 0.191014 0.579413 0.840379
O O13 0.960900 0.750000 0.428131
O O14 0.968332 0.610082 0.310176
O O15 0.889487 0.595395 0.458837
O O16 0.296661 0.250000 0.435162
O O17 0.242787 0.087628 0.504145
O O18 0.558486 0.250000 0.692630
O O19 0.297300 0.250000 0.760443
#
# Coordination Sequence:
#
# PCOD9461474 Si02
#       8
#     8   8   8   8   8   8   8   8
#     4  10  19  32  52  78 107 136 169 217 271 320
#     4   9  17  32  54  77 103 136 170 212 265 314
#     4  11  22  34  52  79 106 136 174 225 266 304
#     4   9  17  30  51  81 109 131 165 219 270 311
#     4  11  23  37  53  75 106 145 183 217 261 318
#     4   9  17  31  53  81 106 128 165 218 267 306
#     4  11  21  34  53  77 105 141 182 216 262 321
#     4  10  17  30  53  80 105 129 167 220 268 310
#
# _framework density 16.959375000000001
#
# number of rings (size 3 to 8) (size 9 to 14) (size 15 to 20)
#    0.000    2.000    3.750    1.125    0.000    2.000 
#    0.000    0.000    0.000    0.000    0.000    0.875 
#    0.000    0.000    0.000    0.000    0.000    0.000 
#
# Total GULP energy -356483.841858 kJ/mol
# GULP energy per Si atom -5570.060029 kJ/mol
# Density = 1.692077 g / cm^3
# Si number density = 16.959375 Si / 1000 Ang^3
#
#
#
# Elastic Constant Matrix: (Units=GPa)
#
#
# Indices 1 2 3 4 5 6 
#
# 1 93.5182 28.0135 13.4072 0.0000 0.0000 0.0000
# 2 28.0135 59.6386 9.3504 0.0000 0.0000 0.0000
# 3 13.4072 9.3504 12.2864 0.0000 0.0000 0.0000
# 4 0.0000 0.0000 0.0000 19.8357 0.0000 0.0000
# 5 0.0000 0.0000 0.0000 0.0000 18.1237 0.0000
# 6 0.0000 0.0000 0.0000 0.0000 0.0000 22.8869
#
#
#
# Elastic Compliance Matrix: (Units=1/GPa)
#
#
# Indices 1 2 3 4 5 6 
#
# 1 0.013727 -0.004655 -0.011437 0.000000 0.000000 0.000000
# 2 -0.004655 0.020618 -0.010611 0.000000 0.000000 0.000000
# 3 -0.011437 -0.010611 0.101946 0.000000 0.000000 0.000000
# 4 0.000000 0.000000 0.000000 0.050414 0.000000 0.000000
# 5 0.000000 0.000000 0.000000 0.000000 0.055176 0.000000
# 6 0.000000 0.000000 0.000000 0.000000 0.000000 0.043693
#
#
# Mechanical properties :
#
#
# Convention : Reuss Voigt Hill
#
# Bulk Modulus (GPa) = 12.06489 29.66506 20.86497
# Shear Modulus (GPa) = 13.63850 19.81408 16.72629
#
# Velocity S-wave (km/s) = 2.83889 3.42179 3.14388
# Velocity P-wave (km/s) = 4.22791 5.75685 5.05057
#
# Compressibility (1/GPa) = 0.08288511
#
# Stress axis : x y z
#
# Youngs Moduli (GPa) = 72.84856 48.50174 9.80908
#
# Poissons Ratio (x) = 0.22577 0.11219
# Poissons Ratio (y) = 0.33909 0.10409
# Poissons Ratio (z) = 0.83316 0.51467
#
# Static dielectric constant tensor:
#      x y z
#    x 1.588350 0.000000 0.000000 
#    y 0.000000 1.567660 0.000000 
#    z 0.000000 0.000000 1.588950 
# 
# From -- ./inp_files/19976.got.cif
#   From: 2010.05.17/outbox.cif.g08.bks.cpg/sg62_10_cif.got.tgz:19976.got - 2010.06.03 15:25:27.
