data_PCOD9461058
_publ_section_title
;
Structure prediction by ZEFSAII (Michael W. Deem and Ramdas Pophale) SiO2 
 PCOD9461058
Probable space group: P B C A
;
_chemical_formula_sum "Si O2"
_cell_formula_units_Z 40
_cell_length_a 13.202768
_cell_length_b 13.657264
_cell_length_c 8.799309
_cell_angle_alpha 90.000000
_cell_angle_beta 90.000000
_cell_angle_gamma 90.000000
_cell_volume 1586.635859
_symmetry_space_group_name_H-M "P B C A"
_symmetry_group_IT_number 61
_symmetry_cell_setting 'orthorhombic'
loop_
_space_group_symop_operation_xyz
x,y,z
1/2-x,-y,1/2+z
1/2+x,1/2-y,-z
-x,1/2+y,1/2-z
-x,-y,-z
1/2+x,y,1/2-z
1/2-x,1/2+y,z
x,1/2-y,1/2+z
loop_
_atom_site_type_symbol
_atom_site_label
_atom_site_fract_x
_atom_site_fract_y
_atom_site_fract_z
Si Si1 0.860692 0.785496 0.925820
Si Si2 0.007567 0.337326 0.300537
Si Si3 0.206390 0.940980 0.711651
Si Si4 0.331843 0.300337 0.964343
Si Si5 0.358632 0.075350 0.881939
O O1 0.946914 0.739028 0.820576
O O2 0.790915 0.859985 0.833926
O O3 0.907360 0.842736 0.069374
O O4 0.785031 0.699185 0.980902
O O5 0.910348 0.195634 0.898378
O O6 0.965247 0.430495 0.207419
O O7 0.145912 0.886576 0.845703
O O8 0.148629 0.962468 0.554731
O O9 0.269833 0.028854 0.782701
O O10 0.341354 0.191783 0.896823
#
# Coordination Sequence:
#
# PCOD9461058 Si02
#       5
#     8   8   8   8   8
#     4  11  25  43  71 108 142 189 241 290 361 427
#     4  12  24  43  75 105 141 192 241 289 364 428
#     4  11  25  48  73 108 144 189 242 298 355 429
#     4  11  24  47  76 101 147 192 238 301 359 424
#     4  11  24  43  73 104 138 192 235 293 358 419
#
# _framework density 25.210574000000001
#
# number of rings (size 3 to 8) (size 9 to 14) (size 15 to 20)
#    0.000    0.800    4.000    3.600    2.800    0.800 
#    0.000    4.000    0.000    0.000    0.000    0.000 
#    0.000    0.000    0.000    0.000    0.000    0.000 
#
# Total GULP energy -223899.160527 kJ/mol
# GULP energy per Si atom -5597.479013 kJ/mol
# Density = 2.515319 g / cm^3
# Si number density = 25.210574 Si / 1000 Ang^3
#
#
#
# Elastic Constant Matrix: (Units=GPa)
#
#
# Indices 1 2 3 4 5 6 
#
# 1 88.1461 1.0523 56.0647 0.0000 0.0000 0.0000
# 2 1.0523 39.0587 21.7901 0.0000 0.0000 0.0000
# 3 56.0647 21.7901 173.5172 0.0000 0.0000 0.0000
# 4 0.0000 0.0000 0.0000 11.2331 0.0000 0.0000
# 5 0.0000 0.0000 0.0000 0.0000 19.0862 0.0000
# 6 0.0000 0.0000 0.0000 0.0000 0.0000 42.7577
#
#
#
# Elastic Compliance Matrix: (Units=1/GPa)
#
#
# Indices 1 2 3 4 5 6 
#
# 1 0.014484 0.002388 -0.004980 0.000000 0.000000 0.000000
# 2 0.002388 0.027925 -0.004278 0.000000 0.000000 0.000000
# 3 -0.004980 -0.004278 0.007909 0.000000 0.000000 0.000000
# 4 0.000000 0.000000 0.000000 0.089023 0.000000 0.000000
# 5 0.000000 0.000000 0.000000 0.000000 0.052394 0.000000
# 6 0.000000 0.000000 0.000000 0.000000 0.000000 0.023388
#
#
# Mechanical properties :
#
#
# Convention : Reuss Voigt Hill
#
# Bulk Modulus (GPa) = 27.33910 50.94847 39.14378
# Shear Modulus (GPa) = 20.74215 29.40305 25.07260
#
# Velocity S-wave (km/s) = 2.87148 3.41882 3.15703
# Velocity P-wave (km/s) = 4.67565 5.98644 5.37118
#
# Compressibility (1/GPa) = 0.03657765
#
# Stress axis : x y z
#
# Youngs Moduli (GPa) = 69.04388 35.81026 126.43303
#
# Poissons Ratio (x) = -0.08551 0.62959
# Poissons Ratio (y) = -0.16486 0.54092
# Poissons Ratio (z) = 0.34381 0.15321
#
# Static dielectric constant tensor:
#      x y z
#    x 2.094570 0.000000 0.000000 
#    y 0.000000 1.958840 0.000000 
#    z 0.000000 0.000000 2.032180 
# 
# From -- ./inp_files/2734.got.cif
#   From: 2010.05.17/outbox.cif.g08.bks.cpg/sg61_2_cif.got.tgz:2734.got - 2010.06.03 15:17:17.
