data_PCOD9461549
_publ_section_title
;
Structure prediction by ZEFSAII (Michael W. Deem and Ramdas Pophale) SiO2 
 PCOD9461549
Probable space group: P N M A
;
_chemical_formula_sum "Si O2"
_cell_formula_units_Z 64
_cell_length_a 9.127764
_cell_length_b 20.993016
_cell_length_c 18.630769
_cell_angle_alpha 90.000000
_cell_angle_beta 90.000000
_cell_angle_gamma 90.000000
_cell_volume 3570.014834
_symmetry_space_group_name_H-M "P N M A"
_symmetry_group_IT_number 62
_symmetry_cell_setting 'orthorhombic'
loop_
_space_group_symop_operation_xyz
x,y,z
1/2-x,-y,1/2+z
1/2+x,1/2-y,1/2-z
-x,1/2+y,-z
-x,-y,-z
1/2+x,y,1/2-z
1/2-x,1/2+y,1/2+z
x,1/2-y,z
loop_
_atom_site_type_symbol
_atom_site_label
_atom_site_fract_x
_atom_site_fract_y
_atom_site_fract_z
Si Si1 0.896274 0.824451 0.828626
Si Si2 0.266860 0.586436 0.398222
Si Si3 0.475988 0.403192 0.713806
Si Si4 0.203318 0.675943 0.101225
Si Si5 0.061459 0.324281 0.002451
Si Si6 0.491984 0.175409 0.849777
Si Si7 0.372836 0.400679 0.232167
Si Si8 0.366458 0.983846 0.815719
O O1 0.885218 0.750000 0.810118
O O2 0.935608 0.829890 0.912375
O O3 0.742319 0.859022 0.812757
O O4 0.021927 0.857631 0.781451
O O5 0.394393 0.577716 0.339381
O O6 0.341281 0.619215 0.467379
O O7 0.153712 0.639970 0.372680
O O8 0.178321 0.519904 0.389513
O O9 0.359150 0.368138 0.663779
O O10 0.534860 0.353784 0.772927
O O11 0.406339 0.461506 0.757224
O O12 0.189692 0.750000 0.123691
O O13 0.375492 0.663096 0.094840
O O14 0.100149 0.668062 0.032154
O O15 0.107506 0.250000 0.984464
O O16 0.467875 0.250000 0.843778
O O17 0.486014 0.441430 0.183489
O O18 0.269434 0.444172 0.283237
#
# Coordination Sequence:
#
# PCOD9461549 Si02
#       8
#     8   8   8   8   8   8   8   8
#     4  10  21  41  67  90 106 131 172 229 297 349
#     4  10  19  31  50  76 112 155 195 220 266 322
#     4  10  18  28  47  71 105 156 196 226 267 307
#     4   9  18  30  46  73 110 150 192 234 270 314
#     4   9  19  37  57  78 112 151 186 225 278 339
#     4  10  18  26  41  72 108 147 200 246 266 288
#     4  10  21  37  62  86 112 132 176 232 283 332
#     4  10  19  34  52  82 115 151 183 224 270 317
#
# _framework density 17.927097
#
# number of rings (size 3 to 8) (size 9 to 14) (size 15 to 20)
#    0.000    2.250    1.250    2.625    1.750    2.500 
#    0.000    3.750    0.000    7.500    0.000    0.000 
#    0.000    0.000    0.000    0.000    0.000    0.000 
#
# Total GULP energy -356529.962052 kJ/mol
# GULP energy per Si atom -5570.780657 kJ/mol
# Density = 1.788629 g / cm^3
# Si number density = 17.927097 Si / 1000 Ang^3
#
#
#
# Elastic Constant Matrix: (Units=GPa)
#
#
# Indices 1 2 3 4 5 6 
#
# 1 58.3911 24.7763 -0.1743 0.0000 0.0000 0.0000
# 2 24.7763 73.5771 11.6727 0.0000 0.0000 0.0000
# 3 -0.1743 11.6727 32.8022 0.0000 0.0000 0.0000
# 4 0.0000 0.0000 0.0000 18.8645 0.0000 0.0000
# 5 0.0000 0.0000 0.0000 0.0000 5.2727 0.0000
# 6 0.0000 0.0000 0.0000 0.0000 0.0000 29.4916
#
#
#
# Elastic Compliance Matrix: (Units=1/GPa)
#
#
# Indices 1 2 3 4 5 6 
#
# 1 0.020201 -0.007227 0.002679 0.000000 0.000000 0.000000
# 2 -0.007227 0.016990 -0.006084 0.000000 0.000000 0.000000
# 3 0.002679 -0.006084 0.032665 0.000000 0.000000 0.000000
# 4 0.000000 0.000000 0.000000 0.053010 0.000000 0.000000
# 5 0.000000 0.000000 0.000000 0.000000 0.189656 0.000000
# 6 0.000000 0.000000 0.000000 0.000000 0.000000 0.033908
#
#
# Mechanical properties :
#
#
# Convention : Reuss Voigt Hill
#
# Bulk Modulus (GPa) = 20.58004 26.36887 23.47445
# Shear Modulus (GPa) = 13.02452 19.29214 16.15833
#
# Velocity S-wave (km/s) = 2.69834 3.28402 3.00548
# Velocity P-wave (km/s) = 4.60574 5.39635 5.01664
#
# Compressibility (1/GPa) = 0.04859078
#
# Stress axis : x y z
#
# Youngs Moduli (GPa) = 49.50351 58.85749 30.61370
#
# Poissons Ratio (x) = 0.42538 -0.08202
# Poissons Ratio (y) = 0.35778 0.18627
# Poissons Ratio (z) = -0.13263 0.35811
#
# Static dielectric constant tensor:
#      x y z
#    x 1.628740 0.000000 0.000000 
#    y 0.000000 1.635670 0.000000 
#    z 0.000000 0.000000 1.582330 
# 
# From -- ./inp_files/22585.got.cif
#   From: 2010.05.17/outbox.cif.g08.bks.cpg/sg62_12_cif.got.tgz:22585.got - 2010.06.03 15:25:27.
