data_PCOD9461572
_publ_section_title
;
Structure prediction by ZEFSAII (Michael W. Deem and Ramdas Pophale) SiO2 
 PCOD9461572
Probable space group: P N M A
;
_chemical_formula_sum "Si O2"
_cell_formula_units_Z 56
_cell_length_a 15.284927
_cell_length_b 7.346571
_cell_length_c 21.992024
_cell_angle_alpha 90.000000
_cell_angle_beta 90.000000
_cell_angle_gamma 90.000000
_cell_volume 2469.523992
_symmetry_space_group_name_H-M "P N M A"
_symmetry_group_IT_number 62
_symmetry_cell_setting 'orthorhombic'
loop_
_space_group_symop_operation_xyz
x,y,z
1/2-x,-y,1/2+z
1/2+x,1/2-y,1/2-z
-x,1/2+y,-z
-x,-y,-z
1/2+x,y,1/2-z
1/2-x,1/2+y,1/2+z
x,1/2-y,z
loop_
_atom_site_type_symbol
_atom_site_label
_atom_site_fract_x
_atom_site_fract_y
_atom_site_fract_z
Si Si1 0.191835 0.027312 0.741728
Si Si2 0.754346 0.466710 0.891935
Si Si3 0.490710 0.470494 0.766269
Si Si4 0.166304 0.972567 0.345101
Si Si5 0.730060 0.967607 0.024359
Si Si6 0.422985 0.533628 0.452255
Si Si7 0.440494 0.028784 0.636380
O O1 0.193248 0.250000 0.743493
O O2 0.221725 0.969211 0.673884
O O3 0.256815 0.971684 0.796995
O O4 0.090203 0.969332 0.744081
O O5 0.758723 0.250000 0.886026
O O6 0.854253 0.536515 0.898262
O O7 0.702401 0.498753 0.954497
O O8 0.495583 0.250000 0.769588
O O9 0.429546 0.530130 0.821616
O O10 0.435543 0.518134 0.706456
O O11 0.168051 0.750000 0.344032
O O12 0.181950 0.031957 0.414589
O O13 0.730818 0.750000 0.029172
O O14 0.829207 0.041543 0.030789
O O15 0.500000 0.500000 0.500000
O O16 0.410953 0.750000 0.446522
O O17 0.467686 0.465313 0.390673
O O18 0.441724 0.250000 0.632120
#
# Coordination Sequence:
#
# PCOD9461572 Si02
#       7
#     8   8   8   8   8   8   8
#     4   9  16  27  46  71  94 121 160 200 238 279
#     4  10  18  30  48  70  96 123 156 195 234 279
#     4   9  15  25  44  68  93 119 153 200 243 273
#     4   9  16  28  44  67  96 122 155 199 239 277
#     4  10  20  31  45  68  98 129 158 190 234 287
#     4  10  18  27  41  64  92 120 149 182 227 283
#     4   9  15  25  42  65  92 119 144 186 241 276
#
# _framework density 22.676435000000001
#
# number of rings (size 3 to 8) (size 9 to 14) (size 15 to 20)
#    0.000    2.571    2.857    0.857    0.000    3.429 
#    0.000    0.714    0.000    0.857    0.000    2.000 
#    0.000    0.000    0.000    0.000    0.000    0.000 
#
# Total GULP energy -312207.860486 kJ/mol
# GULP energy per Si atom -5575.140366 kJ/mol
# Density = 2.262482 g / cm^3
# Si number density = 22.676435 Si / 1000 Ang^3
#
#
#
# Elastic Constant Matrix: (Units=GPa)
#
#
# Indices 1 2 3 4 5 6 
#
# 1 56.4785 -0.3450 13.8981 0.0000 0.0000 0.0000
# 2 -0.3450 85.2874 -1.6768 0.0000 0.0000 0.0000
# 3 13.8981 -1.6768 121.2251 0.0000 0.0000 0.0000
# 4 0.0000 0.0000 0.0000 10.6067 0.0000 0.0000
# 5 0.0000 0.0000 0.0000 0.0000 34.0279 0.0000
# 6 0.0000 0.0000 0.0000 0.0000 0.0000 -0.1774
#
#
#
# Elastic Compliance Matrix: (Units=1/GPa)
#
#
# Indices 1 2 3 4 5 6 
#
# 1 0.018220 0.000033 -0.002088 0.000000 0.000000 0.000000
# 2 0.000033 0.011728 0.000158 0.000000 0.000000 0.000000
# 3 -0.002088 0.000158 0.008491 0.000000 0.000000 0.000000
# 4 0.000000 0.000000 0.000000 0.094280 0.000000 0.000000
# 5 0.000000 0.000000 0.000000 0.000000 0.029388 0.000000
# 6 0.000000 0.000000 0.000000 0.000000 0.000000 -5.636377
#
#
# Mechanical properties :
#
#
# Convention : Reuss Voigt Hill
#
# Bulk Modulus (GPa) = 28.86464 31.86039 30.36252
# Shear Modulus (GPa) = -0.91593 25.63241 12.35824
#
# Velocity S-wave (km/s) = -0.63623 3.36572 2.33702
# Velocity P-wave (km/s) = 3.49526 5.40228 4.54980
#
# Compressibility (1/GPa) = 0.03464446
#
# Stress axis : x y z
#
# Youngs Moduli (GPa) = 54.88481 85.26373 117.77535
#
# Poissons Ratio (x) = -0.00278 0.24596
# Poissons Ratio (y) = -0.00179 -0.01867
# Poissons Ratio (z) = 0.11462 -0.01351
#
# Static dielectric constant tensor:
#      x y z
#    x 1.833540 0.000000 0.000000 
#    y 0.000000 1.897560 0.000000 
#    z 0.000000 0.000000 1.899550 
# 
# From -- ./inp_files/24424.got.cif
#   From: 2010.05.17/outbox.cif.g08.bks.cpg/sg62_13_cif.got.tgz:24424.got - 2010.06.03 15:25:27.
