data_PCOD9461083
_publ_section_title
;
Structure prediction by ZEFSAII (Michael W. Deem and Ramdas Pophale) SiO2 
 PCOD9461083
Probable space group: P B C A
;
_chemical_formula_sum "Si O2"
_cell_formula_units_Z 44
_cell_length_a 7.399451
_cell_length_b 13.901960
_cell_length_c 17.722433
_cell_angle_alpha 90.000000
_cell_angle_beta 90.000000
_cell_angle_gamma 90.000000
_cell_volume 1823.051244
_symmetry_space_group_name_H-M "P B C A"
_symmetry_group_IT_number 61
_symmetry_cell_setting 'orthorhombic'
loop_
_space_group_symop_operation_xyz
x,y,z
1/2-x,-y,1/2+z
1/2+x,1/2-y,-z
-x,1/2+y,1/2-z
-x,-y,-z
1/2+x,y,1/2-z
1/2-x,1/2+y,z
x,1/2-y,1/2+z
loop_
_atom_site_type_symbol
_atom_site_label
_atom_site_fract_x
_atom_site_fract_y
_atom_site_fract_z
Si Si1 0.085601 0.621796 0.143687
Si Si2 0.000000 0.500000 0.000000
Si Si3 0.520117 0.395968 0.811991
Si Si4 0.840749 0.554571 0.589446
Si Si5 0.323704 0.313875 0.056777
Si Si6 0.925826 0.290643 0.097405
O O1 0.983139 0.611752 0.222339
O O2 0.280744 0.577446 0.161032
O O3 0.121360 0.731407 0.116897
O O4 0.993593 0.564891 0.076815
O O5 0.786301 0.466895 0.017771
O O6 0.782821 0.364645 0.129997
O O7 0.388545 0.470357 0.853247
O O8 0.475650 0.290851 0.844224
O O9 0.973372 0.395792 0.437625
O O10 0.112742 0.344035 0.070116
O O11 0.340745 0.262018 0.975639
#
# Coordination Sequence:
#
# PCOD9461083 Si02
#       6
#     8   4   8   8   8   8
#     4  11  26  52  75 110 159 209 258 340 395 480
#     4  12  26  48  78 110 154 204 266 328 394 476
#     4  11  28  50  77 113 165 205 264 337 412 459
#     4  12  27  45  79 115 155 208 267 326 398 487
#     4  11  24  48  74 112 149 205 265 318 404 465
#     4  11  24  47  76 111 155 203 259 333 391 483
#
# _framework density 24.135359000000001
#
# number of rings (size 3 to 8) (size 9 to 14) (size 15 to 20)
#    0.000    0.727    3.636    2.182   10.182    1.455 
#    6.545    0.000    0.000    0.000    0.000    0.000 
#    0.000    0.000    0.000    0.000    0.000    0.000 
#
# Total GULP energy -245854.761306 kJ/mol
# GULP energy per Si atom -5587.608211 kJ/mol
# Density = 2.408043 g / cm^3
# Si number density = 24.135359 Si / 1000 Ang^3
#
#
#
# Elastic Constant Matrix: (Units=GPa)
#
#
# Indices 1 2 3 4 5 6 
#
# 1 146.1160 44.3229 20.8628 0.0000 0.0000 0.0000
# 2 44.3229 51.6107 34.4714 0.0000 0.0000 0.0000
# 3 20.8628 34.4714 121.2588 0.0000 0.0000 0.0000
# 4 0.0000 0.0000 0.0000 23.6769 0.0000 0.0000
# 5 0.0000 0.0000 0.0000 0.0000 36.8622 0.0000
# 6 0.0000 0.0000 0.0000 0.0000 0.0000 54.3587
#
#
#
# Elastic Compliance Matrix: (Units=1/GPa)
#
#
# Indices 1 2 3 4 5 6 
#
# 1 0.009322 -0.008560 0.000829 0.000000 0.000000 0.000000
# 2 -0.008560 0.031777 -0.007561 0.000000 0.000000 0.000000
# 3 0.000829 -0.007561 0.010253 0.000000 0.000000 0.000000
# 4 0.000000 0.000000 0.000000 0.042235 0.000000 0.000000
# 5 0.000000 0.000000 0.000000 0.000000 0.027128 0.000000
# 6 0.000000 0.000000 0.000000 0.000000 0.000000 0.018396
#
#
# Mechanical properties :
#
#
# Convention : Reuss Voigt Hill
#
# Bulk Modulus (GPa) = 48.14574 57.58885 52.86730
# Shear Modulus (GPa) = 28.30987 37.60146 32.95567
#
# Velocity S-wave (km/s) = 3.42857 3.95136 3.69921
# Velocity P-wave (km/s) = 5.97202 6.68807 6.34016
#
# Compressibility (1/GPa) = 0.02077027
#
# Stress axis : x y z
#
# Youngs Moduli (GPa) = 107.27402 31.46966 97.52785
#
# Poissons Ratio (x) = 0.26937 -0.08090
# Poissons Ratio (y) = 0.91822 0.73738
# Poissons Ratio (z) = -0.08898 0.23793
#
# Static dielectric constant tensor:
#      x y z
#    x 1.816460 0.000000 0.000000 
#    y 0.000000 2.240270 0.000000 
#    z 0.000000 0.000000 2.144370 
# 
# From -- ./inp_files/8082.got.cif
#   From: 2010.05.17/outbox.cif.g08.bks.cpg/sg61_5_cif.got.tgz:8082.got - 2010.06.03 15:17:17.
