data_PCOD9461539
_publ_section_title
;
Structure prediction by ZEFSAII (Michael W. Deem and Ramdas Pophale) SiO2 
 PCOD9461539
Probable space group: P N M A
;
_chemical_formula_sum "Si O2"
_cell_formula_units_Z 56
_cell_length_a 14.176905
_cell_length_b 7.471720
_cell_length_c 30.669522
_cell_angle_alpha 90.000000
_cell_angle_beta 90.000000
_cell_angle_gamma 90.000000
_cell_volume 3248.695636
_symmetry_space_group_name_H-M "P N M A"
_symmetry_group_IT_number 62
_symmetry_cell_setting 'orthorhombic'
loop_
_space_group_symop_operation_xyz
x,y,z
1/2-x,-y,1/2+z
1/2+x,1/2-y,1/2-z
-x,1/2+y,-z
-x,-y,-z
1/2+x,y,1/2-z
1/2-x,1/2+y,1/2+z
x,1/2-y,z
loop_
_atom_site_type_symbol
_atom_site_label
_atom_site_fract_x
_atom_site_fract_y
_atom_site_fract_z
Si Si1 0.216203 0.531302 0.817536
Si Si2 0.090767 0.960375 0.094285
Si Si3 0.627701 0.541936 0.593595
Si Si4 0.383135 0.031655 0.228202
Si Si5 0.194703 0.465368 0.183421
Si Si6 0.094634 0.031710 0.271867
Si Si7 0.387934 0.463631 0.500937
O O1 0.214085 0.750000 0.818070
O O2 0.178092 0.464931 0.863787
O O3 0.149890 0.478694 0.776858
O O4 0.322439 0.477191 0.804852
O O5 0.074503 0.750000 0.087882
O O6 0.153683 0.984057 0.136853
O O7 0.138703 0.029234 0.049348
O O8 0.985752 0.038217 0.100175
O O9 0.655823 0.750000 0.591962
O O10 0.648707 0.463855 0.545442
O O11 0.383817 0.250000 0.227657
O O12 0.300457 0.973667 0.195325
O O13 0.488884 0.970979 0.218510
O O14 0.195553 0.250000 0.184872
O O15 0.127754 0.524134 0.223414
O O16 0.093897 0.250000 0.271961
O O17 0.500000 0.500000 0.500000
O O18 0.371804 0.250000 0.499578
#
# Coordination Sequence:
#
# PCOD9461539 Si02
#       7
#     8   8   8   8   8   8   8
#     4   8  13  20  35  59  78  94 119 150 184 219
#     4  10  18  26  36  53  78 103 125 151 185 219
#     4   9  15  25  41  58  76  98 125 153 183 223
#     4   8  13  21  34  55  80  98 115 147 186 218
#     4   9  16  25  39  57  74  97 127 151 178 219
#     4   8  13  22  37  58  80  96 117 154 190 216
#     4   8  15  25  36  52  74  98 122 150 183 220
#
# _framework density 17.237687999999999
#
# number of rings (size 3 to 8) (size 9 to 14) (size 15 to 20)
#    0.000    3.429    0.000    3.000    0.000    2.857 
#    0.000    0.000    0.000    7.714    0.000    1.000 
#    0.000    0.000    0.000    0.000    0.000    0.000 
#
# Total GULP energy -311755.559070 kJ/mol
# GULP energy per Si atom -5567.063555 kJ/mol
# Density = 1.719845 g / cm^3
# Si number density = 17.237688 Si / 1000 Ang^3
#
#
#
# Elastic Constant Matrix: (Units=GPa)
#
#
# Indices 1 2 3 4 5 6 
#
# 1 96.8835 -3.0511 64.2051 0.0000 0.0000 0.0000
# 2 -3.0511 47.7505 -1.1665 0.0000 0.0000 0.0000
# 3 64.2051 -1.1665 170.8547 0.0000 0.0000 0.0000
# 4 0.0000 0.0000 0.0000 3.8470 0.0000 0.0000
# 5 0.0000 0.0000 0.0000 0.0000 26.2510 0.0000
# 6 0.0000 0.0000 0.0000 0.0000 0.0000 -3.4892
#
#
#
# Elastic Compliance Matrix: (Units=1/GPa)
#
#
# Indices 1 2 3 4 5 6 
#
# 1 0.013772 0.000754 -0.005170 0.000000 0.000000 0.000000
# 2 0.000754 0.020987 -0.000140 0.000000 0.000000 0.000000
# 3 -0.005170 -0.000140 0.007795 0.000000 0.000000 0.000000
# 4 0.000000 0.000000 0.000000 0.259946 0.000000 0.000000
# 5 0.000000 0.000000 0.000000 0.000000 0.038094 0.000000
# 6 0.000000 0.000000 0.000000 0.000000 0.000000 -0.286596
#
#
# Mechanical properties :
#
#
# Convention : Reuss Voigt Hill
#
# Bulk Modulus (GPa) = 29.90367 48.38486 39.14426
# Shear Modulus (GPa) = 67.33428 22.35516 44.84472
#
# Velocity S-wave (km/s) = 6.25676 3.60512 5.10607
# Velocity P-wave (km/s) = 8.34156 6.74236 7.58423
#
# Compressibility (1/GPa) = 0.03344072
#
# Stress axis : x y z
#
# Youngs Moduli (GPa) = 72.61297 47.64873 128.29028
#
# Poissons Ratio (x) = -0.03591 0.66327
# Poissons Ratio (y) = -0.05473 0.01795
# Poissons Ratio (z) = 0.37541 0.00667
#
# Static dielectric constant tensor:
#      x y z
#    x 1.557800 0.000000 0.000000 
#    y 0.000000 1.735330 0.000000 
#    z 0.000000 0.000000 1.625300 
# 
# From -- ./inp_files/32641.got.cif
#   From: 2010.05.17/outbox.cif.g08.bks.cpg/sg62_17_cif.got.tgz:32641.got - 2010.06.03 15:25:27.
