data_PCOD9461910
_publ_section_title
;
Structure prediction by ZEFSAII (Michael W. Deem and Ramdas Pophale) SiO2 
 PCOD9461910
Probable space group: P N M A
;
_chemical_formula_sum "Si O2"
_cell_formula_units_Z 48
_cell_length_a 20.515076
_cell_length_b 7.645539
_cell_length_c 15.560025
_cell_angle_alpha 90.000000
_cell_angle_beta 90.000000
_cell_angle_gamma 90.000000
_cell_volume 2440.571462
_symmetry_space_group_name_H-M "P N M A"
_symmetry_group_IT_number 62
_symmetry_cell_setting 'orthorhombic'
loop_
_space_group_symop_operation_xyz
x,y,z
1/2-x,-y,1/2+z
1/2+x,1/2-y,1/2-z
-x,1/2+y,-z
-x,-y,-z
1/2+x,y,1/2-z
1/2-x,1/2+y,1/2+z
x,1/2-y,z
loop_
_atom_site_type_symbol
_atom_site_label
_atom_site_fract_x
_atom_site_fract_y
_atom_site_fract_z
Si Si1 0.458869 0.039628 0.916221
Si Si2 0.510606 0.544838 0.267813
Si Si3 0.304650 0.535638 0.511962
Si Si4 0.312374 0.039952 0.891291
Si Si5 0.839875 0.958554 0.800383
Si Si6 0.057987 0.460493 0.934148
O O1 0.455021 0.250000 0.907974
O O2 0.491474 0.970616 0.828369
O O3 0.384257 0.974745 0.918218
O O4 0.500000 0.000000 0.000000
O O5 0.494425 0.750000 0.261892
O O6 0.586337 0.531122 0.296282
O O7 0.464441 0.469069 0.341417
O O8 0.303851 0.750000 0.511232
O O9 0.244566 0.474700 0.453530
O O10 0.304935 0.481661 0.612082
O O11 0.372962 0.477316 0.470089
O O12 0.312771 0.250000 0.899148
O O13 0.305208 0.001417 0.789776
O O14 0.846530 0.750000 0.805264
O O15 0.062726 0.250000 0.928444
O O16 0.000000 0.500000 0.000000
#
# Coordination Sequence:
#
# PCOD9461910 Si02
#       6
#     8   8   8   8   8   8
#     4   9  18  33  52  72  96 130 169 209 249 295
#     4   9  18  32  51  74 102 133 165 200 248 308
#     4   9  18  33  53  74 102 136 168 204 252 303
#     4   9  19  37  54  71 100 139 172 202 251 309
#     4  10  18  31  53  77  99 129 169 209 249 293
#     4  10  18  31  52  78 104 133 166 204 249 301
#
# _framework density 19.667525000000001
#
# number of rings (size 3 to 8) (size 9 to 14) (size 15 to 20)
#    0.000    2.667    1.667    1.500    0.000    2.667 
#    3.000    2.500    0.000    0.000    0.000    0.000 
#    0.000    0.000    0.000    0.000    0.000    0.000 
#
# Total GULP energy -267679.903639 kJ/mol
# GULP energy per Si atom -5576.664659 kJ/mol
# Density = 1.962276 g / cm^3
# Si number density = 19.667525 Si / 1000 Ang^3
#
#
#
# Elastic Constant Matrix: (Units=GPa)
#
#
# Indices 1 2 3 4 5 6 
#
# 1 106.7025 1.3549 114.5892 0.0000 0.0000 0.0000
# 2 1.3549 35.4683 -0.1923 0.0000 0.0000 0.0000
# 3 114.5892 -0.1923 221.7792 0.0000 0.0000 0.0000
# 4 0.0000 0.0000 0.0000 20.0083 0.0000 0.0000
# 5 0.0000 0.0000 0.0000 0.0000 38.4038 0.0000
# 6 0.0000 0.0000 0.0000 0.0000 0.0000 14.4825
#
#
#
# Elastic Compliance Matrix: (Units=1/GPa)
#
#
# Indices 1 2 3 4 5 6 
#
# 1 0.021081 -0.000864 -0.010893 0.000000 0.000000 0.000000
# 2 -0.000864 0.028230 0.000471 0.000000 0.000000 0.000000
# 3 -0.010893 0.000471 0.010137 0.000000 0.000000 0.000000
# 4 0.000000 0.000000 0.000000 0.049979 0.000000 0.000000
# 5 0.000000 0.000000 0.000000 0.000000 0.026039 0.000000
# 6 0.000000 0.000000 0.000000 0.000000 0.000000 0.069049
#
#
# Mechanical properties :
#
#
# Convention : Reuss Voigt Hill
#
# Bulk Modulus (GPa) = 27.11800 66.16152 46.63976
# Shear Modulus (GPa) = 20.88736 31.12547 26.00642
#
# Velocity S-wave (km/s) = 3.26240 3.98248 3.64029
# Velocity P-wave (km/s) = 5.29237 7.40675 6.43697
#
# Compressibility (1/GPa) = 0.03687587
#
# Stress axis : x y z
#
# Youngs Moduli (GPa) = 47.43673 35.42359 98.64374
#
# Poissons Ratio (x) = 0.03062 1.07450
# Poissons Ratio (y) = 0.04100 -0.04647
# Poissons Ratio (z) = 0.51672 -0.01669
#
# Static dielectric constant tensor:
#      x y z
#    x 1.661430 0.000000 0.000000 
#    y 0.000000 1.739890 0.000000 
#    z 0.000000 0.000000 1.710310 
# 
# From -- ./inp_files/20028.got.cif
#   From: 2010.05.17/outbox.cif.g08.bks.cpg/sg62_11_cif.got.tgz:20028.got - 2010.06.03 15:25:27.
