data_PCOD9461346
_publ_section_title
;
Structure prediction by ZEFSAII (Michael W. Deem and Ramdas Pophale) SiO2 
 PCOD9461346
Probable space group: P N M A
;
_chemical_formula_sum "Si O2"
_cell_formula_units_Z 40
_cell_length_a 8.618069
_cell_length_b 13.525301
_cell_length_c 19.606085
_cell_angle_alpha 90.000000
_cell_angle_beta 90.000000
_cell_angle_gamma 90.000000
_cell_volume 2285.324034
_symmetry_space_group_name_H-M "P N M A"
_symmetry_group_IT_number 62
_symmetry_cell_setting 'orthorhombic'
loop_
_space_group_symop_operation_xyz
x,y,z
1/2-x,-y,1/2+z
1/2+x,1/2-y,1/2-z
-x,1/2+y,-z
-x,-y,-z
1/2+x,y,1/2-z
1/2-x,1/2+y,1/2+z
x,1/2-y,z
loop_
_atom_site_type_symbol
_atom_site_label
_atom_site_fract_x
_atom_site_fract_y
_atom_site_fract_z
Si Si1 0.762245 0.250000 0.727920
Si Si2 0.223719 0.458931 0.824163
Si Si3 0.860677 0.355103 0.344644
Si Si4 0.059722 0.078124 0.220383
Si Si5 0.000899 0.460578 0.576905
Si Si6 0.418799 0.750000 0.141222
O O1 0.685607 0.151836 0.697537
O O2 0.731914 0.250000 0.809295
O O3 0.936508 0.250000 0.695758
O O4 0.336214 0.501137 0.764268
O O5 0.327000 0.462174 0.891840
O O6 0.068934 0.523053 0.824334
O O7 0.893087 0.250000 0.380177
O O8 0.682116 0.361338 0.323069
O O9 0.964774 0.360238 0.276328
O O10 0.902747 0.455038 0.383636
O O11 0.000000 0.500000 0.500000
O O12 0.064985 0.350695 0.596373
#
# Coordination Sequence:
#
# PCOD9461346 Si02
#       6
#     4   8   8   8   8   4
#     4  10  16  28  52  84 102 130 172 228 286 306
#     4   9  17  30  51  79 110 135 172 225 273 323
#     4  10  19  32  54  78 105 140 170 224 264 317
#     4   9  17  31  50  79 106 130 171 219 278 312
#     4  10  22  36  52  77 108 150 184 215 261 332
#     4  10  20  34  58  82 110 136 178 232 278 322
#
# _framework density 17.502987999999998
#
# number of rings (size 3 to 8) (size 9 to 14) (size 15 to 20)
#    0.000    2.400    0.000    5.400    1.400    0.000 
#    0.000    2.000    0.000    0.000    0.000    0.000 
#    0.000    0.000    0.000    0.000    0.000    0.000 
#
# Total GULP energy -222761.603165 kJ/mol
# GULP energy per Si atom -5569.040079 kJ/mol
# Density = 1.746315 g / cm^3
# Si number density = 17.502988 Si / 1000 Ang^3
#
#
#
# Elastic Constant Matrix: (Units=GPa)
#
#
# Indices 1 2 3 4 5 6 
#
# 1 78.0640 41.5771 26.5836 0.0000 0.0000 0.0000
# 2 41.5771 164.9300 54.6560 0.0000 0.0000 0.0000
# 3 26.5836 54.6560 86.6935 0.0000 0.0000 0.0000
# 4 0.0000 0.0000 0.0000 17.2550 0.0000 0.0000
# 5 0.0000 0.0000 0.0000 0.0000 16.2140 0.0000
# 6 0.0000 0.0000 0.0000 0.0000 0.0000 4.9045
#
#
#
# Elastic Compliance Matrix: (Units=1/GPa)
#
#
# Indices 1 2 3 4 5 6 
#
# 1 0.015339 -0.002918 -0.002864 0.000000 0.000000 0.000000
# 2 -0.002918 0.008219 -0.004287 0.000000 0.000000 0.000000
# 3 -0.002864 -0.004287 0.015116 0.000000 0.000000 0.000000
# 4 0.000000 0.000000 0.000000 0.057954 0.000000 0.000000
# 5 0.000000 0.000000 0.000000 0.000000 0.061675 0.000000
# 6 0.000000 0.000000 0.000000 0.000000 0.000000 0.203896
#
#
# Mechanical properties :
#
#
# Convention : Reuss Voigt Hill
#
# Bulk Modulus (GPa) = 53.94745 63.92452 58.93598
# Shear Modulus (GPa) = 12.86945 21.46607 17.16776
#
# Velocity S-wave (km/s) = 2.71453 3.50583 3.13525
# Velocity P-wave (km/s) = 6.38073 7.27937 6.84481
#
# Compressibility (1/GPa) = 0.01853656
#
# Stress axis : x y z
#
# Youngs Moduli (GPa) = 65.19184 121.66241 66.15479
#
# Poissons Ratio (x) = 0.35498 0.18948
# Poissons Ratio (y) = 0.19021 0.28362
# Poissons Ratio (z) = 0.18672 0.52160
#
# Static dielectric constant tensor:
#      x y z
#    x 1.600890 0.000000 0.000000 
#    y 0.000000 1.507080 0.000000 
#    z 0.000000 0.000000 1.601390 
# 
# From -- ./inp_files/21929.got.cif
#   From: 2010.05.17/outbox.cif.g08.bks.cpg/sg62_11_cif.got.tgz:21929.got - 2010.06.03 15:25:27.
