data_PCOD9461957
_publ_section_title
;
Structure prediction by ZEFSAII (Michael W. Deem and Ramdas Pophale) SiO2 
 PCOD9461957
Probable space group: P N M A
;
_chemical_formula_sum "Si O2"
_cell_formula_units_Z 64
_cell_length_a 5.488690
_cell_length_b 31.965652
_cell_length_c 15.519573
_cell_angle_alpha 90.000000
_cell_angle_beta 90.000000
_cell_angle_gamma 90.000000
_cell_volume 2722.902169
_symmetry_space_group_name_H-M "P N M A"
_symmetry_group_IT_number 62
_symmetry_cell_setting 'orthorhombic'
loop_
_space_group_symop_operation_xyz
x,y,z
1/2-x,-y,1/2+z
1/2+x,1/2-y,1/2-z
-x,1/2+y,-z
-x,-y,-z
1/2+x,y,1/2-z
1/2-x,1/2+y,1/2+z
x,1/2-y,z
loop_
_atom_site_type_symbol
_atom_site_label
_atom_site_fract_x
_atom_site_fract_y
_atom_site_fract_z
Si Si1 0.836956 0.380024 0.073435
Si Si2 0.140281 0.841350 0.742960
Si Si3 0.157165 0.908754 0.592558
Si Si4 0.137803 0.083705 0.641933
Si Si5 0.724190 0.704090 0.140565
Si Si6 0.187462 0.505033 0.694511
Si Si7 0.360867 0.616037 0.332904
Si Si8 0.274813 0.203564 0.529929
O O1 0.855513 0.374744 0.177840
O O2 0.607396 0.408492 0.048799
O O3 0.091429 0.399621 0.045175
O O4 0.790630 0.333797 0.037442
O O5 0.390831 0.816801 0.747935
O O6 0.136940 0.868375 0.656148
O O7 0.186133 0.951227 0.644945
O O8 0.375650 0.111791 0.622085
O O9 0.116373 0.089149 0.746476
O O10 0.871955 0.099503 0.614542
O O11 0.185063 0.034778 0.630398
O O12 0.714906 0.750000 0.183592
O O13 0.782413 0.662905 0.195125
O O14 0.466715 0.698430 0.090441
O O15 0.963709 0.704085 0.078953
O O16 0.435744 0.503048 0.750656
O O17 0.246170 0.250000 0.490910
#
# Coordination Sequence:
#
# PCOD9461957 Si02
#       8
#     8   8   8   8   8   8   8   8
#     4  10  18  32  48  73 105 135 170 220 268 314
#     4   8  14  25  39  64  94 125 153 195 246 302
#     4  10  19  28  48  76 108 138 168 217 260 309
#     4  10  19  32  50  81 113 142 170 203 251 334
#     4  10  21  37  58  81 102 133 182 231 267 303
#     4  12  18  30  48  78 117 139 176 213 247 300
#     4  10  18  35  51  77 113 142 168 213 256 327
#     4  10  21  37  57  80 100 130 183 238 270 307
#
# _framework density 23.504332000000002
#
# number of rings (size 3 to 8) (size 9 to 14) (size 15 to 20)
#    0.000    2.000    2.500    4.500    0.000    0.000 
#    0.000    2.500    0.000    6.750    0.000   17.500 
#    0.000    0.000    0.000    0.000    0.000    0.000 
#
# Total GULP energy -357205.191651 kJ/mol
# GULP energy per Si atom -5581.331120 kJ/mol
# Density = 2.345084 g / cm^3
# Si number density = 23.504332 Si / 1000 Ang^3
#
#
#
# Elastic Constant Matrix: (Units=GPa)
#
#
# Indices 1 2 3 4 5 6 
#
# 1 268.6623 37.8830 24.9345 0.0000 0.0000 0.0000
# 2 37.8830 116.0063 -2.8915 0.0000 0.0000 0.0000
# 3 24.9345 -2.8915 31.5478 0.0000 0.0000 0.0000
# 4 0.0000 0.0000 0.0000 16.9457 0.0000 0.0000
# 5 0.0000 0.0000 0.0000 0.0000 35.2989 0.0000
# 6 0.0000 0.0000 0.0000 0.0000 0.0000 31.8877
#
#
#
# Elastic Compliance Matrix: (Units=1/GPa)
#
#
# Indices 1 2 3 4 5 6 
#
# 1 0.004255 -0.001477 -0.003498 0.000000 0.000000 0.000000
# 2 -0.001477 0.009152 0.002006 0.000000 0.000000 0.000000
# 3 -0.003498 0.002006 0.034647 0.000000 0.000000 0.000000
# 4 0.000000 0.000000 0.000000 0.059012 0.000000 0.000000
# 5 0.000000 0.000000 0.000000 0.000000 0.028330 0.000000
# 6 0.000000 0.000000 0.000000 0.000000 0.000000 0.031360
#
#
# Mechanical properties :
#
#
# Convention : Reuss Voigt Hill
#
# Bulk Modulus (GPa) = 23.74387 59.56317 41.65352
# Shear Modulus (GPa) = 26.77618 40.57914 33.67766
#
# Velocity S-wave (km/s) = 3.37887 4.15957 3.78938
# Velocity P-wave (km/s) = 5.03450 6.96173 6.07503
#
# Compressibility (1/GPa) = 0.04211614
#
# Stress axis : x y z
#
# Youngs Moduli (GPa) = 235.01422 109.26024 28.86261
#
# Poissons Ratio (x) = 0.16135 0.10097
# Poissons Ratio (y) = 0.34705 -0.05790
# Poissons Ratio (z) = 0.82218 -0.21918
#
# Static dielectric constant tensor:
#      x y z
#    x 2.008330 0.000000 0.000000 
#    y 0.000000 1.824930 0.000000 
#    z 0.000000 0.000000 1.931520 
# 
# From -- ./inp_files/25467.got.cif
#   From: 2010.05.17/outbox.cif.g08.bks.cpg/sg62_13_cif.got.tgz:25467.got - 2010.06.03 15:25:27.
