data_PCOD9461911
_publ_section_title
;
Structure prediction by ZEFSAII (Michael W. Deem and Ramdas Pophale) SiO2 
 PCOD9461911
Probable space group: P N M A
;
_chemical_formula_sum "Si O2"
_cell_formula_units_Z 48
_cell_length_a 9.332632
_cell_length_b 11.194230
_cell_length_c 17.416221
_cell_angle_alpha 90.000000
_cell_angle_beta 90.000000
_cell_angle_gamma 90.000000
_cell_volume 1819.500981
_symmetry_space_group_name_H-M "P N M A"
_symmetry_group_IT_number 62
_symmetry_cell_setting 'orthorhombic'
loop_
_space_group_symop_operation_xyz
x,y,z
1/2-x,-y,1/2+z
1/2+x,1/2-y,1/2-z
-x,1/2+y,-z
-x,-y,-z
1/2+x,y,1/2-z
1/2-x,1/2+y,1/2+z
x,1/2-y,z
loop_
_atom_site_type_symbol
_atom_site_label
_atom_site_fract_x
_atom_site_fract_y
_atom_site_fract_z
Si Si1 0.451861 0.003361 0.133759
Si Si2 0.707080 0.006650 0.491210
Si Si3 0.047301 0.394578 0.154973
Si Si4 0.223191 0.103743 0.307262
Si Si5 0.772226 0.750000 0.509984
Si Si6 0.439268 0.750000 0.143697
Si Si7 0.236077 0.750000 0.452348
Si Si8 0.931114 0.250000 0.392832
O O1 0.366631 0.997986 0.051795
O O2 0.621996 0.029049 0.133032
O O3 0.410139 0.135948 0.159854
O O4 0.425483 0.881382 0.179123
O O5 0.603946 0.035862 0.419465
O O6 0.689999 0.120637 0.547607
O O7 0.686645 0.872358 0.522879
O O8 0.053856 0.250000 0.144624
O O9 0.149947 0.427825 0.226412
O O10 0.886862 0.426994 0.179526
O O11 0.211090 0.250000 0.314055
O O12 0.923360 0.750000 0.556098
O O13 0.817528 0.750000 0.421244
O O14 0.595405 0.750000 0.101741
O O15 0.184573 0.750000 0.540999
#
# Coordination Sequence:
#
# PCOD9461911 Si02
#       8
#     8   8   8   8   4   4   4   4
#     4  10  18  31  52  78 106 136 172 211 253 298
#     4  10  18  31  52  78 106 136 172 211 253 298
#     4  10  20  34  54  78 103 130 167 213 259 306
#     4  10  20  34  54  78 103 130 167 213 259 306
#     4   9  18  30  48  77 110 139 170 211 252 295
#     4   9  18  30  48  77 110 139 170 211 252 295
#     4   9  16  28  50  77 104 137 176 213 248 291
#     4   9  16  28  50  77 104 137 176 213 248 291
#
# _framework density 26.380858
#
# number of rings (size 3 to 8) (size 9 to 14) (size 15 to 20)
#    0.000    2.333    1.667    2.000    0.000    5.333 
#    0.000    1.667    0.000    6.000    0.000    0.000 
#    0.000    0.000    0.000    0.000    0.000    0.000 
#
# Total GULP energy -268052.056036 kJ/mol
# GULP energy per Si atom -5584.417834 kJ/mol
# Density = 2.632081 g / cm^3
# Si number density = 26.380858 Si / 1000 Ang^3
#
#
#
# Elastic Constant Matrix: (Units=GPa)
#
#
# Indices 1 2 3 4 5 6 
#
# 1 154.4162 28.2710 36.7220 0.0000 0.0000 0.0000
# 2 28.2710 263.0047 31.6314 0.0000 0.0000 0.0000
# 3 36.7220 31.6314 64.1417 0.0000 0.0000 0.0000
# 4 0.0000 0.0000 0.0000 22.4238 0.0000 0.0000
# 5 0.0000 0.0000 0.0000 0.0000 35.5350 0.0000
# 6 0.0000 0.0000 0.0000 0.0000 0.0000 31.6133
#
#
#
# Elastic Compliance Matrix: (Units=1/GPa)
#
#
# Indices 1 2 3 4 5 6 
#
# 1 0.007520 -0.000309 -0.004153 0.000000 0.000000 0.000000
# 2 -0.000309 0.004055 -0.001823 0.000000 0.000000 0.000000
# 3 -0.004153 -0.001823 0.018867 0.000000 0.000000 0.000000
# 4 0.000000 0.000000 0.000000 0.044596 0.000000 0.000000
# 5 0.000000 0.000000 0.000000 0.000000 0.028141 0.000000
# 6 0.000000 0.000000 0.000000 0.000000 0.000000 0.031632
#
#
# Mechanical properties :
#
#
# Convention : Reuss Voigt Hill
#
# Bulk Modulus (GPa) = 55.95179 74.97907 65.46543
# Shear Modulus (GPa) = 32.60774 43.57696 38.09235
#
# Velocity S-wave (km/s) = 3.51955 4.06869 3.80404
# Velocity P-wave (km/s) = 6.14586 7.11026 6.64558
#
# Compressibility (1/GPa) = 0.01787253
#
# Stress axis : x y z
#
# Youngs Moduli (GPa) = 132.97502 246.63166 53.00249
#
# Poissons Ratio (x) = 0.07618 0.22012
# Poissons Ratio (y) = 0.04107 0.09661
# Poissons Ratio (z) = 0.55226 0.44954
#
# Static dielectric constant tensor:
#      x y z
#    x 2.176410 0.000000 0.000000 
#    y 0.000000 2.208230 0.000000 
#    z 0.000000 0.000000 2.098020 
# 
# From -- ./inp_files/28858.got.cif
#   From: 2010.05.17/outbox.cif.g08.bks.cpg/sg62_15_cif.got.tgz:28858.got - 2010.06.03 15:25:27.
