data_PCOD9461033
_publ_section_title
;
Structure prediction by ZEFSAII (Michael W. Deem and Ramdas Pophale) SiO2 
 PCOD9461033
Probable space group: P B C A
;
_chemical_formula_sum "Si O2"
_cell_formula_units_Z 40
_cell_length_a 14.311632
_cell_length_b 7.132428
_cell_length_c 14.032325
_cell_angle_alpha 90.000000
_cell_angle_beta 90.000000
_cell_angle_gamma 90.000000
_cell_volume 1432.373216
_symmetry_space_group_name_H-M "P B C A"
_symmetry_group_IT_number 61
_symmetry_cell_setting 'orthorhombic'
loop_
_space_group_symop_operation_xyz
x,y,z
1/2-x,-y,1/2+z
1/2+x,1/2-y,-z
-x,1/2+y,1/2-z
-x,-y,-z
1/2+x,y,1/2-z
1/2-x,1/2+y,z
x,1/2-y,1/2+z
loop_
_atom_site_type_symbol
_atom_site_label
_atom_site_fract_x
_atom_site_fract_y
_atom_site_fract_z
Si Si1 0.647258 0.242885 0.677382
Si Si2 0.486715 0.283028 0.394874
Si Si3 0.842958 0.977178 0.503542
Si Si4 0.284469 0.087174 0.190105
Si Si5 0.451929 0.379518 0.179868
O O1 0.694536 0.336502 0.584952
O O2 0.683779 0.364262 0.766413
O O3 0.540066 0.247814 0.647508
O O4 0.672035 0.041936 0.724880
O O5 0.391337 0.337378 0.450405
O O6 0.572475 0.377714 0.448090
O O7 0.272865 0.485473 0.582883
O O8 0.519377 0.070088 0.374951
O O9 0.972649 0.119588 0.707289
O O10 0.356487 0.259813 0.175638
#
# Coordination Sequence:
#
# PCOD9461033 Si02
#       5
#     8   8   8   8   8
#     4  12  29  50  80 119 167 219 274 345 412 491
#     4  11  23  47  89 123 155 218 276 334 415 500
#     4  11  26  50  81 123 163 216 282 334 421 493
#     4  12  30  51  81 120 166 221 275 348 413 491
#     4  12  24  53  86 116 171 214 268 346 419 485
#
# _framework density 27.925685000000001
#
# number of rings (size 3 to 8) (size 9 to 14) (size 15 to 20)
#    0.000    0.400    4.000    3.600    5.600    4.800 
#    0.000    0.000    0.000    0.000    0.000    0.000 
#    0.000    0.000    0.000    0.000    0.000    0.000 
#
# Total GULP energy -223756.725901 kJ/mol
# GULP energy per Si atom -5593.918148 kJ/mol
# Density = 2.786212 g / cm^3
# Si number density = 27.925685 Si / 1000 Ang^3
#
#
#
# Elastic Constant Matrix: (Units=GPa)
#
#
# Indices 1 2 3 4 5 6 
#
# 1 54.4002 36.4251 40.2424 0.0000 0.0000 0.0000
# 2 36.4251 188.0376 66.7304 0.0000 0.0000 0.0000
# 3 40.2424 66.7304 197.6827 0.0000 0.0000 0.0000
# 4 0.0000 0.0000 0.0000 48.9995 0.0000 0.0000
# 5 0.0000 0.0000 0.0000 0.0000 50.4344 0.0000
# 6 0.0000 0.0000 0.0000 0.0000 0.0000 31.4615
#
#
#
# Elastic Compliance Matrix: (Units=1/GPa)
#
#
# Indices 1 2 3 4 5 6 
#
# 1 0.023226 -0.003205 -0.003646 0.000000 0.000000 0.000000
# 2 -0.003205 0.006484 -0.001536 0.000000 0.000000 0.000000
# 3 -0.003646 -0.001536 0.006319 0.000000 0.000000 0.000000
# 4 0.000000 0.000000 0.000000 0.020408 0.000000 0.000000
# 5 0.000000 0.000000 0.000000 0.000000 0.019828 0.000000
# 6 0.000000 0.000000 0.000000 0.000000 0.000000 0.031785
#
#
# Mechanical properties :
#
#
# Convention : Reuss Voigt Hill
#
# Bulk Modulus (GPa) = 51.93719 80.76848 66.35284
# Shear Modulus (GPa) = 38.09714 45.96058 42.02886
#
# Velocity S-wave (km/s) = 3.69756 4.06127 3.88367
# Velocity P-wave (km/s) = 6.07190 7.13984 6.62742
#
# Compressibility (1/GPa) = 0.01925403
#
# Stress axis : x y z
#
# Youngs Moduli (GPa) = 43.05598 154.22168 158.24119
#
# Poissons Ratio (x) = 0.49430 0.57697
# Poissons Ratio (y) = 0.13800 0.24311
# Poissons Ratio (z) = 0.15699 0.23694
#
# Static dielectric constant tensor:
#      x y z
#    x 2.272740 0.000000 0.000000 
#    y 0.000000 2.389410 0.000000 
#    z 0.000000 0.000000 2.206170 
# 
# From -- ./inp_files/7723.got.cif
#   From: 2010.05.17/outbox.cif.g08.bks.cpg/sg61_4_cif.got.tgz:7723.got - 2010.06.03 15:17:17.
