data_PCOD9461495
_publ_section_title
;
Structure prediction by ZEFSAII (Michael W. Deem and Ramdas Pophale) SiO2 
 PCOD9461495
Probable space group: P N M A
;
_chemical_formula_sum "Si O2"
_cell_formula_units_Z 56
_cell_length_a 14.081715
_cell_length_b 14.190029
_cell_length_c 12.978292
_cell_angle_alpha 90.000000
_cell_angle_beta 90.000000
_cell_angle_gamma 90.000000
_cell_volume 2593.321584
_symmetry_space_group_name_H-M "P N M A"
_symmetry_group_IT_number 62
_symmetry_cell_setting 'orthorhombic'
loop_
_space_group_symop_operation_xyz
x,y,z
1/2-x,-y,1/2+z
1/2+x,1/2-y,1/2-z
-x,1/2+y,-z
-x,-y,-z
1/2+x,y,1/2-z
1/2-x,1/2+y,1/2+z
x,1/2-y,z
loop_
_atom_site_type_symbol
_atom_site_label
_atom_site_fract_x
_atom_site_fract_y
_atom_site_fract_z
Si Si1 0.278058 0.004796 0.745091
Si Si2 0.061784 0.955712 0.904940
Si Si3 0.947587 0.643370 0.744133
Si Si4 0.551293 0.150367 0.629385
Si Si5 0.331794 0.143524 0.562154
Si Si6 0.754356 0.356152 0.564822
Si Si7 0.858369 0.140417 0.350974
O O1 0.369215 0.937063 0.754116
O O2 0.360314 0.853214 0.451668
O O3 0.193410 0.931405 0.724848
O O4 0.285833 0.076744 0.648134
O O5 0.007414 0.871525 0.849398
O O6 0.061844 0.045323 0.826813
O O7 0.157344 0.915221 0.956173
O O8 0.000000 0.000000 0.000000
O O9 0.909663 0.750000 0.739052
O O10 0.028134 0.630378 0.656569
O O11 0.568969 0.250000 0.687508
O O12 0.442920 0.155943 0.593609
O O13 0.772469 0.071034 0.655565
O O14 0.292119 0.250000 0.553107
O O15 0.781776 0.250000 0.597838
O O16 0.811852 0.377650 0.462081
O O17 0.838206 0.250000 0.324475
#
# Coordination Sequence:
#
# PCOD9461495 Si02
#       7
#     8   8   8   8   8   8   8
#     4  12  22  37  65  89 119 158 208 249 303 363
#     4  10  17  32  52  86 118 153 189 242 312 361
#     4  11  23  39  60  88 121 157 202 253 305 364
#     4   9  17  31  53  81 113 148 193 242 293 347
#     4  10  20  32  52  86 121 149 191 252 304 354
#     4  10  22  39  61  87 122 165 204 246 297 363
#     4  10  24  43  62  90 126 160 202 250 301 368
#
# _framework density 21.593927999999998
#
# number of rings (size 3 to 8) (size 9 to 14) (size 15 to 20)
#    0.000    1.714    2.857    3.000    2.000    1.143 
#    0.000    0.000    0.000    2.571    0.000    0.000 
#    0.000    0.000    0.000    0.000    0.000    0.000 
#
# Total GULP energy -311996.518775 kJ/mol
# GULP energy per Si atom -5571.366407 kJ/mol
# Density = 2.154478 g / cm^3
# Si number density = 21.593928 Si / 1000 Ang^3
#
#
#
# Elastic Constant Matrix: (Units=GPa)
#
#
# Indices 1 2 3 4 5 6 
#
# 1 30.3792 21.6837 -0.6509 0.0000 0.0000 0.0000
# 2 21.6837 185.2011 47.8089 0.0000 0.0000 0.0000
# 3 -0.6509 47.8089 56.1648 0.0000 0.0000 0.0000
# 4 0.0000 0.0000 0.0000 27.3134 0.0000 0.0000
# 5 0.0000 0.0000 0.0000 0.0000 21.5637 0.0000
# 6 0.0000 0.0000 0.0000 0.0000 0.0000 52.1928
#
#
#
# Elastic Compliance Matrix: (Units=1/GPa)
#
#
# Indices 1 2 3 4 5 6 
#
# 1 0.037106 -0.005710 0.005291 0.000000 0.000000 0.000000
# 2 -0.005710 0.007799 -0.006705 0.000000 0.000000 0.000000
# 3 0.005291 -0.006705 0.023573 0.000000 0.000000 0.000000
# 4 0.000000 0.000000 0.000000 0.036612 0.000000 0.000000
# 5 0.000000 0.000000 0.000000 0.000000 0.046374 0.000000
# 6 0.000000 0.000000 0.000000 0.000000 0.000000 0.019160
#
#
# Mechanical properties :
#
#
# Convention : Reuss Voigt Hill
#
# Bulk Modulus (GPa) = 18.43994 45.49206 31.96600
# Shear Modulus (GPa) = 24.63661 33.74088 29.18874
#
# Velocity S-wave (km/s) = 3.38139 3.95716 3.68055
# Velocity P-wave (km/s) = 4.87883 6.48009 5.73562
#
# Compressibility (1/GPa) = 0.05423011
#
# Stress axis : x y z
#
# Youngs Moduli (GPa) = 26.94948 128.22267 42.42073
#
# Poissons Ratio (x) = 0.73219 -0.22444
# Poissons Ratio (y) = 0.15389 0.28442
# Poissons Ratio (z) = -0.14258 0.85971
#
# Static dielectric constant tensor:
#      x y z
#    x 1.837250 0.000000 0.000000 
#    y 0.000000 1.873010 0.000000 
#    z 0.000000 0.000000 1.835010 
# 
# From -- ./inp_files/24080.got.cif
#   From: 2010.05.17/outbox.cif.g08.bks.cpg/sg62_13_cif.got.tgz:24080.got - 2010.06.03 15:25:27.
