data_PCOD9461475
_publ_section_title
;
Structure prediction by ZEFSAII (Michael W. Deem and Ramdas Pophale) SiO2 
 PCOD9461475
Probable space group: P N M A
;
_chemical_formula_sum "Si O2"
_cell_formula_units_Z 64
_cell_length_a 20.740394
_cell_length_b 7.858133
_cell_length_c 17.020820
_cell_angle_alpha 90.000000
_cell_angle_beta 90.000000
_cell_angle_gamma 90.000000
_cell_volume 2774.066427
_symmetry_space_group_name_H-M "P N M A"
_symmetry_group_IT_number 62
_symmetry_cell_setting 'orthorhombic'
loop_
_space_group_symop_operation_xyz
x,y,z
1/2-x,-y,1/2+z
1/2+x,1/2-y,1/2-z
-x,1/2+y,-z
-x,-y,-z
1/2+x,y,1/2-z
1/2-x,1/2+y,1/2+z
x,1/2-y,z
loop_
_atom_site_type_symbol
_atom_site_label
_atom_site_fract_x
_atom_site_fract_y
_atom_site_fract_z
Si Si1 0.105149 0.045340 0.225250
Si Si2 0.642579 0.458018 0.111674
Si Si3 0.894783 0.947173 0.273413
Si Si4 0.514995 0.945271 0.634712
Si Si5 0.651543 0.458303 0.935736
Si Si6 0.703003 0.953227 0.394493
Si Si7 0.869952 0.940492 0.044350
Si Si8 0.280564 0.057225 0.324978
O O1 0.098457 0.250000 0.225215
O O2 0.097970 0.987870 0.315456
O O3 0.051089 0.975192 0.166373
O O4 0.175263 0.002357 0.190371
O O5 0.642472 0.250000 0.109416
O O6 0.714000 0.510859 0.140009
O O7 0.631039 0.515238 0.022689
O O8 0.914714 0.750000 0.271372
O O9 0.892475 0.012127 0.362491
O O10 0.939105 0.046423 0.212138
O O11 0.821449 0.958524 0.240312
O O12 0.504285 0.750000 0.611698
O O13 0.555671 0.032148 0.565879
O O14 0.651473 0.250000 0.934617
O O15 0.725269 0.511846 0.917470
O O16 0.702143 0.750000 0.401525
O O17 0.652638 0.031129 0.456472
O O18 0.852992 0.750000 0.069223
O O19 0.827982 0.061284 0.099638
O O20 0.270163 0.250000 0.296732
#
# Coordination Sequence:
#
# PCOD9461475 Si02
#       8
#     8   8   8   8   8   8   8   8
#     4  10  22  38  57  80 106 145 189 230 268 317
#     4   9  17  33  56  79 108 142 179 219 272 329
#     4  10  19  32  54  80 107 140 182 224 265 318
#     4  10  21  38  56  76 108 147 190 228 269 317
#     4   9  18  33  55  84 113 142 174 216 274 332
#     4  11  21  36  58  84 116 145 174 219 277 334
#     4  11  21  34  55  82 111 143 181 222 266 319
#     4  10  17  30  54  79 108 141 174 215 271 327
#
# _framework density 23.070823000000001
#
# number of rings (size 3 to 8) (size 9 to 14) (size 15 to 20)
#    0.000    2.000    1.250    4.875    0.000    1.500 
#    0.000    3.125    0.000    0.000    0.000    0.000 
#    0.000    0.000    0.000    0.000    0.000    0.000 
#
# Total GULP energy -357488.176675 kJ/mol
# GULP energy per Si atom -5585.752761 kJ/mol
# Density = 2.301831 g / cm^3
# Si number density = 23.070823 Si / 1000 Ang^3
#
#
#
# Elastic Constant Matrix: (Units=GPa)
#
#
# Indices 1 2 3 4 5 6 
#
# 1 30.0895 -4.2776 -16.4322 0.0000 0.0000 0.0000
# 2 -4.2776 51.3840 -4.9336 0.0000 0.0000 0.0000
# 3 -16.4322 -4.9336 81.7867 0.0000 0.0000 0.0000
# 4 0.0000 0.0000 0.0000 19.5201 0.0000 0.0000
# 5 0.0000 0.0000 0.0000 0.0000 30.0398 0.0000
# 6 0.0000 0.0000 0.0000 0.0000 0.0000 6.5594
#
#
#
# Elastic Compliance Matrix: (Units=1/GPa)
#
#
# Indices 1 2 3 4 5 6 
#
# 1 0.038103 0.003930 0.007893 0.000000 0.000000 0.000000
# 2 0.003930 0.019980 0.001995 0.000000 0.000000 0.000000
# 3 0.007893 0.001995 0.013933 0.000000 0.000000 0.000000
# 4 0.000000 0.000000 0.000000 0.051229 0.000000 0.000000
# 5 0.000000 0.000000 0.000000 0.000000 0.033289 0.000000
# 6 0.000000 0.000000 0.000000 0.000000 0.000000 0.152453
#
#
# Mechanical properties :
#
#
# Convention : Reuss Voigt Hill
#
# Bulk Modulus (GPa) = 10.03510 12.44149 11.23829
# Shear Modulus (GPa) = 15.89471 23.81742 19.85607
#
# Velocity S-wave (km/s) = 2.62764 3.21652 2.93688
# Velocity P-wave (km/s) = 3.68309 4.38168 4.04748
#
# Compressibility (1/GPa) = 0.09965028
#
# Stress axis : x y z
#
# Youngs Moduli (GPa) = 26.24461 50.05008 71.77208
#
# Poissons Ratio (x) = -0.19669 -0.56646
# Poissons Ratio (y) = -0.10314 -0.14317
# Poissons Ratio (z) = -0.20714 -0.09984
#
# Static dielectric constant tensor:
#      x y z
#    x 1.889250 0.000000 0.000000 
#    y 0.000000 1.793990 0.000000 
#    z 0.000000 0.000000 1.881670 
# 
# From -- ./inp_files/20988.got.cif
#   From: 2010.05.17/outbox.cif.g08.bks.cpg/sg62_11_cif.got.tgz:20988.got - 2010.06.03 15:25:27.
