data_PCOD9461424
_publ_section_title
;
Structure prediction by ZEFSAII (Michael W. Deem and Ramdas Pophale) SiO2 
 PCOD9461424
Probable space group: P N M A
;
_chemical_formula_sum "Si O2"
_cell_formula_units_Z 56
_cell_length_a 7.215003
_cell_length_b 13.734423
_cell_length_c 30.285847
_cell_angle_alpha 90.000000
_cell_angle_beta 90.000000
_cell_angle_gamma 90.000000
_cell_volume 3001.142789
_symmetry_space_group_name_H-M "P N M A"
_symmetry_group_IT_number 62
_symmetry_cell_setting 'orthorhombic'
loop_
_space_group_symop_operation_xyz
x,y,z
1/2-x,-y,1/2+z
1/2+x,1/2-y,1/2-z
-x,1/2+y,-z
-x,-y,-z
1/2+x,y,1/2-z
1/2-x,1/2+y,1/2+z
x,1/2-y,z
loop_
_atom_site_type_symbol
_atom_site_label
_atom_site_fract_x
_atom_site_fract_y
_atom_site_fract_z
Si Si1 0.419367 0.366106 0.947836
Si Si2 0.444595 0.861262 0.810159
Si Si3 0.849985 0.545160 0.602706
Si Si4 0.988186 0.360928 0.215049
Si Si5 0.058661 0.130781 0.121880
Si Si6 0.350125 0.867779 0.527536
Si Si7 0.275767 0.866384 0.987007
O O1 0.400765 0.250000 0.940993
O O2 0.370068 0.430748 0.905851
O O3 0.623339 0.387815 0.967074
O O4 0.284608 0.398146 0.988218
O O5 0.512606 0.750000 0.816385
O O6 0.467398 0.917542 0.855896
O O7 0.514890 0.905776 0.763889
O O8 0.222750 0.857101 0.801467
O O9 0.639924 0.581295 0.611834
O O10 0.887638 0.592633 0.554892
O O11 0.054173 0.250000 0.223189
O O12 0.103980 0.397526 0.172613
O O13 0.037738 0.250000 0.122035
O O14 0.179335 0.103992 0.078866
O O15 0.339255 0.750000 0.527440
O O16 0.561247 0.895217 0.515045
O O17 0.281180 0.750000 0.981668
#
# Coordination Sequence:
#
# PCOD9461424 Si02
#       7
#     8   8   8   8   8   8   8
#     4  10  20  31  44  66  91 120 159 194 220 258
#     4   9  16  28  46  67  91 119 147 176 222 276
#     4  10  17  28  45  63  89 123 150 183 222 268
#     4   8  14  25  41  62  89 115 140 173 215 269
#     4   8  14  26  44  64  88 119 148 175 220 274
#     4   8  15  29  46  63  88 122 153 182 219 262
#     4   9  17  30  46  64  90 120 149 183 222 265
#
# _framework density 18.659559999999999
#
# number of rings (size 3 to 8) (size 9 to 14) (size 15 to 20)
#    0.000    3.143    0.000    3.429    0.000    2.286 
#    2.571    0.000    3.143    0.000    0.000    4.000 
#    0.000    0.000    0.000    0.000    0.000    0.000 
#
# Total GULP energy -311969.750615 kJ/mol
# GULP energy per Si atom -5570.888404 kJ/mol
# Density = 1.861709 g / cm^3
# Si number density = 18.659560 Si / 1000 Ang^3
#
#
#
# Elastic Constant Matrix: (Units=GPa)
#
#
# Indices 1 2 3 4 5 6 
#
# 1 41.2881 7.9115 27.4367 0.0000 0.0000 0.0000
# 2 7.9115 60.1957 50.5695 0.0000 0.0000 0.0000
# 3 27.4367 50.5695 124.1266 0.0000 0.0000 0.0000
# 4 0.0000 0.0000 0.0000 23.4323 0.0000 0.0000
# 5 0.0000 0.0000 0.0000 0.0000 25.4267 0.0000
# 6 0.0000 0.0000 0.0000 0.0000 0.0000 10.4411
#
#
#
# Elastic Compliance Matrix: (Units=1/GPa)
#
#
# Indices 1 2 3 4 5 6 
#
# 1 0.028609 0.002360 -0.007285 0.000000 0.000000 0.000000
# 2 0.002360 0.025451 -0.010891 0.000000 0.000000 0.000000
# 3 -0.007285 -0.010891 0.014103 0.000000 0.000000 0.000000
# 4 0.000000 0.000000 0.000000 0.042676 0.000000 0.000000
# 5 0.000000 0.000000 0.000000 0.000000 0.039329 0.000000
# 6 0.000000 0.000000 0.000000 0.000000 0.000000 0.095775
#
#
# Mechanical properties :
#
#
# Convention : Reuss Voigt Hill
#
# Bulk Modulus (GPa) = 27.37300 44.16065 35.76683
# Shear Modulus (GPa) = 17.25611 21.17287 19.21449
#
# Velocity S-wave (km/s) = 3.04433 3.37217 3.21244
# Velocity P-wave (km/s) = 5.20181 6.23538 5.74190
#
# Compressibility (1/GPa) = 0.03653235
#
# Stress axis : x y z
#
# Youngs Moduli (GPa) = 34.95405 39.29073 70.90468
#
# Poissons Ratio (x) = -0.09273 0.51655
# Poissons Ratio (y) = -0.08249 0.77219
# Poissons Ratio (z) = 0.25465 0.42790
#
# Static dielectric constant tensor:
#      x y z
#    x 1.738810 0.000000 0.000000 
#    y 0.000000 1.637220 0.000000 
#    z 0.000000 0.000000 1.706560 
# 
# From -- ./inp_files/32299.got.cif
#   From: 2010.05.17/outbox.cif.g08.bks.cpg/sg62_17_cif.got.tgz:32299.got - 2010.06.03 15:25:27.
