data_PCOD9461221
_publ_section_title
;
Structure prediction by ZEFSAII (Michael W. Deem and Ramdas Pophale) SiO2 
 PCOD9461221
Probable space group: P B C A
;
_chemical_formula_sum "Si O2"
_cell_formula_units_Z 40
_cell_length_a 12.194134
_cell_length_b 7.479958
_cell_length_c 16.931906
_cell_angle_alpha 90.000000
_cell_angle_beta 90.000000
_cell_angle_gamma 90.000000
_cell_volume 1544.386409
_symmetry_space_group_name_H-M "P B C A"
_symmetry_group_IT_number 61
_symmetry_cell_setting 'orthorhombic'
loop_
_space_group_symop_operation_xyz
x,y,z
1/2-x,-y,1/2+z
1/2+x,1/2-y,-z
-x,1/2+y,1/2-z
-x,-y,-z
1/2+x,y,1/2-z
1/2-x,1/2+y,z
x,1/2-y,1/2+z
loop_
_atom_site_type_symbol
_atom_site_label
_atom_site_fract_x
_atom_site_fract_y
_atom_site_fract_z
Si Si1 0.617499 0.586281 0.622955
Si Si2 0.130574 0.001567 0.903520
Si Si3 0.329105 0.647486 0.070723
Si Si4 0.569050 0.623921 0.805491
Si Si5 0.899541 0.453248 0.899415
O O1 0.741366 0.522126 0.616006
O O2 0.583600 0.580391 0.714792
O O3 0.528094 0.462747 0.579150
O O4 0.604721 0.791577 0.597072
O O5 0.053359 0.094628 0.838799
O O6 0.113929 0.088291 0.989631
O O7 0.359020 0.506712 0.139054
O O8 0.363719 0.840728 0.101952
O O9 0.198723 0.638105 0.051572
O O10 0.604225 0.828079 0.821956
#
# Coordination Sequence:
#
# PCOD9461221 Si02
#       5
#     8   8   8   8   8
#     4  12  29  47  80 112 159 211 259 330 393 472
#     4  12  28  53  77 119 161 204 270 323 397 469
#     4  12  27  50  81 113 159 207 258 331 384 479
#     4  12  28  49  79 109 161 204 264 323 394 467
#     4  12  27  48  79 114 152 209 260 317 402 456
#
# _framework density 25.900254
#
# number of rings (size 3 to 8) (size 9 to 14) (size 15 to 20)
#    0.000    0.000    4.000    4.200    5.600    1.600 
#    0.000    0.000    0.000    0.000    0.000    0.000 
#    0.000    0.000    0.000    0.000    0.000    0.000 
#
# Total GULP energy -224289.792193 kJ/mol
# GULP energy per Si atom -5607.244805 kJ/mol
# Density = 2.584130 g / cm^3
# Si number density = 25.900254 Si / 1000 Ang^3
#
#
#
# Elastic Constant Matrix: (Units=GPa)
#
#
# Indices 1 2 3 4 5 6 
#
# 1 189.8655 33.1410 34.0411 0.0000 0.0000 0.0000
# 2 33.1410 148.1478 42.4077 0.0000 0.0000 0.0000
# 3 34.0411 42.4077 176.6177 0.0000 0.0000 0.0000
# 4 0.0000 0.0000 0.0000 37.2803 0.0000 0.0000
# 5 0.0000 0.0000 0.0000 0.0000 40.5589 0.0000
# 6 0.0000 0.0000 0.0000 0.0000 0.0000 49.5328
#
#
#
# Elastic Compliance Matrix: (Units=1/GPa)
#
#
# Indices 1 2 3 4 5 6 
#
# 1 0.005593 -0.001012 -0.000835 0.000000 0.000000 0.000000
# 2 -0.001012 0.007431 -0.001589 0.000000 0.000000 0.000000
# 3 -0.000835 -0.001589 0.006204 0.000000 0.000000 0.000000
# 4 0.000000 0.000000 0.000000 0.026824 0.000000 0.000000
# 5 0.000000 0.000000 0.000000 0.000000 0.024656 0.000000
# 6 0.000000 0.000000 0.000000 0.000000 0.000000 0.020189
#
#
# Mechanical properties :
#
#
# Convention : Reuss Voigt Hill
#
# Bulk Modulus (GPa) = 80.93102 81.53452 81.23277
# Shear Modulus (GPa) = 49.07312 52.47715 50.77514
#
# Velocity S-wave (km/s) = 4.35753 4.50613 4.43246
# Velocity P-wave (km/s) = 7.52546 7.65651 7.59127
#
# Compressibility (1/GPa) = 0.01235620
#
# Stress axis : x y z
#
# Youngs Moduli (GPa) = 178.78613 134.56459 161.17391
#
# Poissons Ratio (x) = 0.13621 0.13458
# Poissons Ratio (y) = 0.18097 0.25615
# Poissons Ratio (z) = 0.14929 0.21386
#
# Static dielectric constant tensor:
#      x y z
#    x 2.100750 0.000000 0.000000 
#    y 0.000000 1.986840 0.000000 
#    z 0.000000 0.000000 1.992020 
# 
# From -- ./inp_files/9097.got.cif
#   From: 2010.05.17/outbox.cif.g08.bks.cpg/sg61_5_cif.got.tgz:9097.got - 2010.06.03 15:17:17.
