data_PCOD9461300
_publ_section_title
;
Structure prediction by ZEFSAII (Michael W. Deem and Ramdas Pophale) SiO2 
 PCOD9461300
Probable space group: P B C A
;
_chemical_formula_sum "Si O2"
_cell_formula_units_Z 48
_cell_length_a 9.000000
_cell_length_b 15.000000
_cell_length_c 18.000000
_cell_angle_alpha 90.000000
_cell_angle_beta 90.000000
_cell_angle_gamma 90.000000
_cell_volume 2430.000000
_symmetry_space_group_name_H-M "P B C A"
_symmetry_group_IT_number 61
_symmetry_cell_setting 'orthorhombic'
loop_
_space_group_symop_operation_xyz
x,y,z
1/2-x,-y,1/2+z
1/2+x,1/2-y,-z
-x,1/2+y,1/2-z
-x,-y,-z
1/2+x,y,1/2-z
1/2-x,1/2+y,z
x,1/2-y,1/2+z
loop_
_atom_site_type_symbol
_atom_site_label
_atom_site_fract_x
_atom_site_fract_y
_atom_site_fract_z
Si Si1 0.798644 0.928892 0.170589
Si Si2 0.673965 0.634474 0.161361
Si Si3 0.080396 0.245991 0.086439
Si Si4 0.561873 0.433126 0.333690
Si Si5 0.665518 0.860894 0.838182
Si Si6 0.084691 0.248818 0.909544
O O1 0.618380 0.932843 0.171644
O O2 0.863849 0.914045 0.253388
O O3 0.853311 0.846836 0.118985
O O4 0.853465 0.028927 0.147920
O O5 0.544517 0.703210 0.139879
O O6 0.709253 0.641904 0.250176
O O7 0.798732 0.671739 0.106092
O O8 0.105357 0.349199 0.112818
O O9 0.210367 0.175197 0.105184
O O10 0.046970 0.244970 0.997666
O O11 0.613395 0.535880 0.353196
O O12 0.543500 0.784695 0.854793
#
# Coordination Sequence:
#
# PCOD9461300 Si02
#       6
#     8   8   8   8   8   8
#     4  11  25  43  72  99 133 176 232 278 324 398
#     4  11  23  45  68  97 132 177 231 275 328 393
#     4  12  27  42  69 101 140 177 218 276 344 400
#     4  11  25  45  69 101 132 178 231 275 331 392
#     4  11  25  43  72  97 132 181 226 280 328 396
#     4  12  25  44  66 102 138 176 219 276 341 398
#
# _framework density 19.753086
#
# number of rings (size 3 to 8) (size 9 to 14) (size 15 to 20)
#    0.000    0.667    3.333    4.000    9.333    2.667 
#    0.000    0.000    0.000    0.000    0.000    0.000 
#    0.000    0.000    0.000    0.000    0.000    0.000 
#
# Total GULP energy -267690.771733 kJ/mol
# GULP energy per Si atom -5576.891078 kJ/mol
# Density = 1.970813 g / cm^3
# Si number density = 19.753086 Si / 1000 Ang^3
#
#
#
# Elastic Constant Matrix: (Units=GPa)
#
#
# Indices 1 2 3 4 5 6 
#
# 1 21.2281 -3.4115 -8.6363 0.0000 0.0000 0.0000
# 2 -3.4115 145.4471 60.1287 0.0000 0.0000 0.0000
# 3 -8.6363 60.1287 105.2988 0.0000 0.0000 0.0000
# 4 0.0000 0.0000 0.0000 38.0915 0.0000 0.0000
# 5 0.0000 0.0000 0.0000 0.0000 26.6648 0.0000
# 6 0.0000 0.0000 0.0000 0.0000 0.0000 39.3210
#
#
#
# Elastic Compliance Matrix: (Units=1/GPa)
#
#
# Indices 1 2 3 4 5 6 
#
# 1 0.048783 -0.000667 0.004382 0.000000 0.000000 0.000000
# 2 -0.000667 0.009009 -0.005199 0.000000 0.000000 0.000000
# 3 0.004382 -0.005199 0.012825 0.000000 0.000000 0.000000
# 4 0.000000 0.000000 0.000000 0.026253 0.000000 0.000000
# 5 0.000000 0.000000 0.000000 0.000000 0.037503 0.000000
# 6 0.000000 0.000000 0.000000 0.000000 0.000000 0.025432
#
#
# Mechanical properties :
#
#
# Convention : Reuss Voigt Hill
#
# Bulk Modulus (GPa) = 14.78237 40.90396 27.84316
# Shear Modulus (GPa) = 26.98005 35.74167 31.36086
#
# Velocity S-wave (km/s) = 3.69977 4.25835 3.98885
# Velocity P-wave (km/s) = 5.07453 6.70303 5.94481
#
# Compressibility (1/GPa) = 0.06764815
#
# Stress axis : x y z
#
# Youngs Moduli (GPa) = 20.49900 110.99927 77.97227
#
# Poissons Ratio (x) = 0.07408 -0.34168
# Poissons Ratio (y) = 0.01368 0.40539
# Poissons Ratio (z) = -0.08983 0.57710
#
# Static dielectric constant tensor:
#      x y z
#    x 1.969360 0.000000 0.000000 
#    y 0.000000 1.669380 0.000000 
#    z 0.000000 0.000000 1.639730 
# 
# From -- ./inp_files/2837.got.cif
#   From: 2010.05.17/outbox.ucp.g08.bks.cvg/sg61_2_cif.got.tgz:2837.got - 2010.06.11 16:28:26.
