data_PCOD9461310
_publ_section_title
;
Structure prediction by ZEFSAII (Michael W. Deem and Ramdas Pophale) SiO2 
 PCOD9461310
Probable space group: P N M A
;
_chemical_formula_sum "Si O2"
_cell_formula_units_Z 56
_cell_length_a 7.983306
_cell_length_b 11.927102
_cell_length_c 27.566294
_cell_angle_alpha 90.000000
_cell_angle_beta 90.000000
_cell_angle_gamma 90.000000
_cell_volume 2624.799249
_symmetry_space_group_name_H-M "P N M A"
_symmetry_group_IT_number 62
_symmetry_cell_setting 'orthorhombic'
loop_
_space_group_symop_operation_xyz
x,y,z
1/2-x,-y,1/2+z
1/2+x,1/2-y,1/2-z
-x,1/2+y,-z
-x,-y,-z
1/2+x,y,1/2-z
1/2-x,1/2+y,1/2+z
x,1/2-y,z
loop_
_atom_site_type_symbol
_atom_site_label
_atom_site_fract_x
_atom_site_fract_y
_atom_site_fract_z
Si Si1 0.947286 0.875636 0.147154
Si Si2 0.586644 0.370984 0.461434
Si Si3 0.648769 0.885885 0.264577
Si Si4 0.018546 0.383264 0.674061
Si Si5 0.790445 0.114702 0.559781
Si Si6 0.230068 0.425579 0.585315
Si Si7 0.689252 0.374344 0.024835
O O1 0.896344 0.750000 0.161017
O O2 0.012527 0.931770 0.196638
O O3 0.801419 0.912512 0.110662
O O4 0.117456 0.868432 0.114658
O O5 0.633430 0.250000 0.442619
O O6 0.650451 0.379185 0.516814
O O7 0.686071 0.458497 0.429748
O O8 0.386518 0.379596 0.461466
O O9 0.628109 0.750000 0.262773
O O10 0.824808 0.904650 0.290112
O O11 0.630040 0.924477 0.209026
O O12 0.004785 0.250000 0.666500
O O13 0.073971 0.429230 0.622074
O O14 0.847563 0.250000 0.561728
O O15 0.879591 0.995347 0.543460
O O16 0.184163 0.372176 0.533760
O O17 0.623511 0.250000 0.041133
#
# Coordination Sequence:
#
# PCOD9461310 Si02
#       7
#     8   8   8   8   8   8   8
#     4   9  13  19  31  46  66  93 121 146 178 222
#     4   9  15  20  28  46  72  97 120 149 184 224
#     4   8  15  24  35  52  74  98 125 159 193 231
#     4   9  16  25  37  54  75  99 127 157 193 233
#     4   9  14  20  29  44  68  99 125 148 183 231
#     4  10  14  21  32  48  68 101 125 144 181 235
#     4  10  15  20  29  47  74 101 124 151 187 232
#
# _framework density 21.334966000000001
#
# number of rings (size 3 to 8) (size 9 to 14) (size 15 to 20)
#    0.000    2.857    2.857    3.000    0.000    0.000 
#    0.000    0.000    0.000    0.000    0.000    5.000 
#    0.000    4.571    0.000    4.286    0.000    2.429 
#
# Total GULP energy -311884.819904 kJ/mol
# GULP energy per Si atom -5569.371784 kJ/mol
# Density = 2.128641 g / cm^3
# Si number density = 21.334966 Si / 1000 Ang^3
#
#
#
# Elastic Constant Matrix: (Units=GPa)
#
#
# Indices 1 2 3 4 5 6 
#
# 1 67.4989 24.2900 20.4425 0.0000 0.0000 0.0000
# 2 24.2900 118.9522 36.5228 0.0000 0.0000 0.0000
# 3 20.4425 36.5228 129.0079 0.0000 0.0000 0.0000
# 4 0.0000 0.0000 0.0000 18.6599 0.0000 0.0000
# 5 0.0000 0.0000 0.0000 0.0000 40.8911 0.0000
# 6 0.0000 0.0000 0.0000 0.0000 0.0000 0.8308
#
#
#
# Elastic Compliance Matrix: (Units=1/GPa)
#
#
# Indices 1 2 3 4 5 6 
#
# 1 0.016365 -0.002788 -0.001804 0.000000 0.000000 0.000000
# 2 -0.002788 0.009682 -0.002299 0.000000 0.000000 0.000000
# 3 -0.001804 -0.002299 0.008688 0.000000 0.000000 0.000000
# 4 0.000000 0.000000 0.000000 0.053591 0.000000 0.000000
# 5 0.000000 0.000000 0.000000 0.000000 0.024455 0.000000
# 6 0.000000 0.000000 0.000000 0.000000 0.000000 1.203589
#
#
# Mechanical properties :
#
#
# Convention : Reuss Voigt Hill
#
# Bulk Modulus (GPa) = 47.72606 53.10775 50.41691
# Shear Modulus (GPa) = 3.73934 27.68995 15.71464
#
# Velocity S-wave (km/s) = 1.32532 3.60650 2.71692
# Velocity P-wave (km/s) = 4.97598 6.50299 5.79005
#
# Compressibility (1/GPa) = 0.02095291
#
# Stress axis : x y z
#
# Youngs Moduli (GPa) = 61.10763 103.28477 115.09816
#
# Poissons Ratio (x) = 0.28794 0.20762
# Poissons Ratio (y) = 0.17036 0.26464
# Poissons Ratio (z) = 0.11023 0.23748
#
# Static dielectric constant tensor:
#      x y z
#    x 1.927320 0.000000 0.000000 
#    y 0.000000 1.787570 0.000000 
#    z 0.000000 0.000000 1.827800 
# 
# From -- ./inp_files/31181.got.cif
#   From: 2010.05.17/outbox.cif.g08.bks.cpg/sg62_16_cif.got.tgz:31181.got - 2010.06.03 15:25:27.
