data_PCOD9461157
_publ_section_title
;
Structure prediction by ZEFSAII (Michael W. Deem and Ramdas Pophale) SiO2 
 PCOD9461157
Probable space group: P B C A
;
_chemical_formula_sum "Si O2"
_cell_formula_units_Z 40
_cell_length_a 11.376815
_cell_length_b 6.808009
_cell_length_c 19.372072
_cell_angle_alpha 90.000000
_cell_angle_beta 90.000000
_cell_angle_gamma 90.000000
_cell_volume 1500.433983
_symmetry_space_group_name_H-M "P B C A"
_symmetry_group_IT_number 61
_symmetry_cell_setting 'orthorhombic'
loop_
_space_group_symop_operation_xyz
x,y,z
1/2-x,-y,1/2+z
1/2+x,1/2-y,-z
-x,1/2+y,1/2-z
-x,-y,-z
1/2+x,y,1/2-z
1/2-x,1/2+y,z
x,1/2-y,1/2+z
loop_
_atom_site_type_symbol
_atom_site_label
_atom_site_fract_x
_atom_site_fract_y
_atom_site_fract_z
Si Si1 0.712133 0.543555 0.184671
Si Si2 0.018407 0.897039 0.126036
Si Si3 0.131604 0.055497 0.442883
Si Si4 0.755071 0.202661 0.790759
Si Si5 0.914556 0.713730 0.918855
O O1 0.571529 0.508589 0.178330
O O2 0.758612 0.542888 0.106401
O O3 0.741094 0.794481 0.201216
O O4 0.751380 0.547830 0.270423
O O5 0.120377 0.796882 0.169903
O O6 0.946432 0.735598 0.085149
O O7 0.074845 0.053567 0.074542
O O8 0.157749 0.100565 0.522211
O O9 0.044981 0.873259 0.429270
O O10 0.645436 0.191168 0.844384
#
# Coordination Sequence:
#
# PCOD9461157 Si02
#       5
#     8   8   8   8   8
#     4  12  26  46  74 105 144 191 243 305 361 431
#     4  12  27  48  78 104 149 192 246 296 379 428
#     4  11  27  49  74 108 149 193 246 303 362 439
#     4  12  26  46  74 105 144 191 243 305 361 431
#     4  11  27  49  74 108 149 193 246 303 362 439
#
# _framework density 26.658953
#
# number of rings (size 3 to 8) (size 9 to 14) (size 15 to 20)
#    0.000    0.400    4.000    3.000    8.400    3.200 
#    0.000    0.000    0.000    0.000    0.000    0.000 
#    0.000    0.000    0.000    0.000    0.000    0.000 
#
# Total GULP energy -223800.522929 kJ/mol
# GULP energy per Si atom -5595.013073 kJ/mol
# Density = 2.659828 g / cm^3
# Si number density = 26.658953 Si / 1000 Ang^3
#
#
#
# Elastic Constant Matrix: (Units=GPa)
#
#
# Indices 1 2 3 4 5 6 
#
# 1 85.9140 14.8640 13.3337 0.0000 0.0000 0.0000
# 2 14.8640 149.4496 12.1339 0.0000 0.0000 0.0000
# 3 13.3337 12.1339 85.4564 0.0000 0.0000 0.0000
# 4 0.0000 0.0000 0.0000 36.0621 0.0000 0.0000
# 5 0.0000 0.0000 0.0000 0.0000 23.7153 0.0000
# 6 0.0000 0.0000 0.0000 0.0000 0.0000 51.2728
#
#
#
# Elastic Compliance Matrix: (Units=1/GPa)
#
#
# Indices 1 2 3 4 5 6 
#
# 1 0.012093 -0.001062 -0.001736 0.000000 0.000000 0.000000
# 2 -0.001062 0.006862 -0.000809 0.000000 0.000000 0.000000
# 3 -0.001736 -0.000809 0.012088 0.000000 0.000000 0.000000
# 4 0.000000 0.000000 0.000000 0.027730 0.000000 0.000000
# 5 0.000000 0.000000 0.000000 0.000000 0.042167 0.000000
# 6 0.000000 0.000000 0.000000 0.000000 0.000000 0.019504
#
#
# Mechanical properties :
#
#
# Convention : Reuss Voigt Hill
#
# Bulk Modulus (GPa) = 41.96456 44.60925 43.28691
# Shear Modulus (GPa) = 36.87331 40.90925 38.89128
#
# Velocity S-wave (km/s) = 3.72311 3.92157 3.82363
# Velocity P-wave (km/s) = 5.85299 6.10529 5.98047
#
# Compressibility (1/GPa) = 0.02382963
#
# Stress axis : x y z
#
# Youngs Moduli (GPa) = 82.69466 145.71984 82.72957
#
# Poissons Ratio (x) = 0.15472 0.14362
# Poissons Ratio (y) = 0.08780 0.06691
# Poissons Ratio (z) = 0.14356 0.11785
#
# Static dielectric constant tensor:
#      x y z
#    x 1.955210 0.000000 0.000000 
#    y 0.000000 2.357120 0.000000 
#    z 0.000000 0.000000 2.013030 
# 
# From -- ./inp_files/3295.got.cif
#   From: 2010.05.17/outbox.cif.g08.bks.cpg/sg61_2_cif.got.tgz:3295.got - 2010.06.03 15:17:17.
