data_PCOD9461870
_publ_section_title
;
Structure prediction by ZEFSAII (Michael W. Deem and Ramdas Pophale) SiO2 
 PCOD9461870
Probable space group: P N M A
;
_chemical_formula_sum "Si O2"
_cell_formula_units_Z 56
_cell_length_a 19.218365
_cell_length_b 9.265220
_cell_length_c 18.111337
_cell_angle_alpha 90.000000
_cell_angle_beta 90.000000
_cell_angle_gamma 90.000000
_cell_volume 3224.947767
_symmetry_space_group_name_H-M "P N M A"
_symmetry_group_IT_number 62
_symmetry_cell_setting 'orthorhombic'
loop_
_space_group_symop_operation_xyz
x,y,z
1/2-x,-y,1/2+z
1/2+x,1/2-y,1/2-z
-x,1/2+y,-z
-x,-y,-z
1/2+x,y,1/2-z
1/2-x,1/2+y,1/2+z
x,1/2-y,z
loop_
_atom_site_type_symbol
_atom_site_label
_atom_site_fract_x
_atom_site_fract_y
_atom_site_fract_z
Si Si1 0.186609 0.582280 0.196715
Si Si2 0.927065 0.577948 0.514663
Si Si3 0.424061 0.087518 0.420568
Si Si4 0.448465 0.409412 0.596799
Si Si5 0.786865 0.578301 0.065251
Si Si6 0.666630 0.077691 0.153692
Si Si7 0.284713 0.923551 0.068888
O O1 0.191836 0.750000 0.221685
O O2 0.124401 0.574306 0.137458
O O3 0.163809 0.480278 0.263399
O O4 0.257622 0.546205 0.151840
O O5 0.937370 0.750000 0.509284
O O6 0.896876 0.546382 0.596946
O O7 0.863719 0.541355 0.457231
O O8 0.000000 0.500000 0.500000
O O9 0.406067 0.250000 0.397554
O O10 0.436167 0.088789 0.508991
O O11 0.495142 0.030522 0.385050
O O12 0.361893 0.976603 0.409375
O O13 0.476698 0.250000 0.615614
O O14 0.782921 0.750000 0.062631
O O15 0.731185 0.507937 0.119550
O O16 0.765720 0.509596 0.986446
O O17 0.677513 0.250000 0.151310
O O18 0.275625 0.750000 0.057121
#
# Coordination Sequence:
#
# PCOD9461870 Si02
#       7
#     8   8   8   8   8   8   8
#     4  10  19  35  56  79 109 144 182 223 273 332
#     4   9  19  36  59  82 108 141 182 230 277 328
#     4  10  18  31  50  74 106 140 174 218 264 309
#     4   9  18  31  49  75 106 141 177 216 259 312
#     4  11  20  32  53  79 104 136 181 225 266 321
#     4  10  22  38  55  78 110 144 179 226 285 332
#     4   9  18  35  56  80 109 142 176 221 278 326
#
# _framework density 17.364621
#
# number of rings (size 3 to 8) (size 9 to 14) (size 15 to 20)
#    0.000    2.286    1.429    3.000    0.000    4.571 
#    0.000    1.429    0.000    5.143    0.000    0.000 
#    0.000    0.000    0.000    0.000    0.000    0.000 
#
# Total GULP energy -311967.833956 kJ/mol
# GULP energy per Si atom -5570.854178 kJ/mol
# Density = 1.732510 g / cm^3
# Si number density = 17.364621 Si / 1000 Ang^3
#
#
#
# Elastic Constant Matrix: (Units=GPa)
#
#
# Indices 1 2 3 4 5 6 
#
# 1 99.6720 49.6139 33.0941 0.0000 0.0000 0.0000
# 2 49.6139 83.5034 36.8698 0.0000 0.0000 0.0000
# 3 33.0941 36.8698 64.0466 0.0000 0.0000 0.0000
# 4 0.0000 0.0000 0.0000 22.7886 0.0000 0.0000
# 5 0.0000 0.0000 0.0000 0.0000 12.6639 0.0000
# 6 0.0000 0.0000 0.0000 0.0000 0.0000 32.7665
#
#
#
# Elastic Compliance Matrix: (Units=1/GPa)
#
#
# Indices 1 2 3 4 5 6 
#
# 1 0.014799 -0.007262 -0.003466 0.000000 0.000000 0.000000
# 2 -0.007262 0.019621 -0.007543 0.000000 0.000000 0.000000
# 3 -0.003466 -0.007543 0.021747 0.000000 0.000000 0.000000
# 4 0.000000 0.000000 0.000000 0.043882 0.000000 0.000000
# 5 0.000000 0.000000 0.000000 0.000000 0.078965 0.000000
# 6 0.000000 0.000000 0.000000 0.000000 0.000000 0.030519
#
#
# Mechanical properties :
#
#
# Convention : Reuss Voigt Hill
#
# Bulk Modulus (GPa) = 50.95727 54.04195 52.49961
# Shear Modulus (GPa) = 19.79300 22.15343 20.97321
#
# Velocity S-wave (km/s) = 3.37982 3.57568 3.47913
# Velocity P-wave (km/s) = 6.68133 6.94527 6.81457
#
# Compressibility (1/GPa) = 0.01962428
#
# Stress axis : x y z
#
# Youngs Moduli (GPa) = 67.57333 50.96631 45.98412
#
# Poissons Ratio (x) = 0.37013 0.15938
# Poissons Ratio (y) = 0.49074 0.34684
# Poissons Ratio (z) = 0.23421 0.38442
#
# Static dielectric constant tensor:
#      x y z
#    x 1.596100 0.000000 0.000000 
#    y 0.000000 1.604670 0.000000 
#    z 0.000000 0.000000 1.618180 
# 
# From -- ./inp_files/24626.got.cif
#   From: 2010.05.17/outbox.cif.g08.bks.cpg/sg62_13_cif.got.tgz:24626.got - 2010.06.03 15:25:27.
