data_PCOD9461371
_publ_section_title
;
Structure prediction by ZEFSAII (Michael W. Deem and Ramdas Pophale) SiO2 
 PCOD9461371
Probable space group: P N M A
;
_chemical_formula_sum "Si O2"
_cell_formula_units_Z 56
_cell_length_a 12.825999
_cell_length_b 11.770725
_cell_length_c 14.168539
_cell_angle_alpha 90.000000
_cell_angle_beta 90.000000
_cell_angle_gamma 90.000000
_cell_volume 2139.042852
_symmetry_space_group_name_H-M "P N M A"
_symmetry_group_IT_number 62
_symmetry_cell_setting 'orthorhombic'
loop_
_space_group_symop_operation_xyz
x,y,z
1/2-x,-y,1/2+z
1/2+x,1/2-y,1/2-z
-x,1/2+y,-z
-x,-y,-z
1/2+x,y,1/2-z
1/2-x,1/2+y,1/2+z
x,1/2-y,z
loop_
_atom_site_type_symbol
_atom_site_label
_atom_site_fract_x
_atom_site_fract_y
_atom_site_fract_z
Si Si1 0.188664 0.372061 0.461497
Si Si2 0.470108 0.873907 0.118255
Si Si3 0.763556 0.871387 0.254422
Si Si4 0.660464 0.440982 0.550882
Si Si5 0.492288 0.871244 0.604171
Si Si6 0.479813 0.379333 0.187552
Si Si7 0.229392 0.120873 0.235299
O O1 0.232211 0.250000 0.494441
O O2 0.078153 0.377134 0.513685
O O3 0.250117 0.482251 0.494650
O O4 0.203130 0.372311 0.348342
O O5 0.526840 0.750000 0.126473
O O6 0.372582 0.866870 0.189754
O O7 0.512287 0.000005 0.140726
O O8 0.709419 0.750000 0.272160
O O9 0.706541 0.986200 0.286633
O O10 0.792271 0.881181 0.142873
O O11 0.602580 0.374526 0.468547
O O12 0.571210 0.527339 0.586383
O O13 0.547194 0.750000 0.593035
O O14 0.458575 0.877942 0.712720
O O15 0.494579 0.250000 0.147603
O O16 0.357296 0.384965 0.216302
O O17 0.210387 0.250000 0.196902
#
# Coordination Sequence:
#
# PCOD9461371 Si02
#       7
#     8   8   8   8   8   8   8
#     4   9  15  25  38  51  72 100 131 162 192 227
#     4   9  16  25  37  53  72  98 129 161 195 225
#     4   9  15  24  35  52  74  95 123 159 192 218
#     4  10  17  25  37  56  76 102 134 161 189 224
#     4  10  17  25  38  54  75 103 135 165 189 219
#     4   9  15  27  40  53  73 100 134 160 187 225
#     4   8  13  23  37  49  64  93 125 151 178 216
#
# _framework density 26.179935
#
# number of rings (size 3 to 8) (size 9 to 14) (size 15 to 20)
#    0.000    2.857    4.286    0.857    0.000    0.000 
#    0.000    4.286    0.000    0.000    0.000    0.000 
#    0.000    0.000    0.000   11.571    0.000  102.286 
#
# Total GULP energy -312366.462486 kJ/mol
# GULP energy per Si atom -5577.972544 kJ/mol
# Density = 2.612035 g / cm^3
# Si number density = 26.179935 Si / 1000 Ang^3
#
#
#
# Elastic Constant Matrix: (Units=GPa)
#
#
# Indices 1 2 3 4 5 6 
#
# 1 36.1295 42.2897 12.9101 0.0000 0.0000 0.0000
# 2 42.2897 287.4037 53.8142 0.0000 0.0000 0.0000
# 3 12.9101 53.8142 115.2599 0.0000 0.0000 0.0000
# 4 0.0000 0.0000 0.0000 57.8230 0.0000 0.0000
# 5 0.0000 0.0000 0.0000 0.0000 34.5541 0.0000
# 6 0.0000 0.0000 0.0000 0.0000 0.0000 49.6812
#
#
#
# Elastic Compliance Matrix: (Units=1/GPa)
#
#
# Indices 1 2 3 4 5 6 
#
# 1 0.033704 -0.004660 -0.001600 0.000000 0.000000 0.000000
# 2 -0.004660 0.004457 -0.001559 0.000000 0.000000 0.000000
# 3 -0.001600 -0.001559 0.009583 0.000000 0.000000 0.000000
# 4 0.000000 0.000000 0.000000 0.017294 0.000000 0.000000
# 5 0.000000 0.000000 0.000000 0.000000 0.028940 0.000000
# 6 0.000000 0.000000 0.000000 0.000000 0.000000 0.020128
#
#
# Mechanical properties :
#
#
# Convention : Reuss Voigt Hill
#
# Bulk Modulus (GPa) = 31.14535 72.98012 52.06273
# Shear Modulus (GPa) = 35.60084 50.39694 42.99889
#
# Velocity S-wave (km/s) = 3.69162 4.39227 4.05710
# Velocity P-wave (km/s) = 5.48573 7.32527 6.47120
#
# Compressibility (1/GPa) = 0.03210752
#
# Stress axis : x y z
#
# Youngs Moduli (GPa) = 29.66993 224.36574 104.35049
#
# Poissons Ratio (x) = 1.04551 0.16691
# Poissons Ratio (y) = 0.13826 0.16268
# Poissons Ratio (z) = 0.04746 0.34979
#
# Static dielectric constant tensor:
#      x y z
#    x 2.222590 0.000000 0.000000 
#    y 0.000000 2.044720 0.000000 
#    z 0.000000 0.000000 2.054490 
# 
# From -- ./inp_files/24447.got.cif
#   From: 2010.05.17/outbox.cif.g08.bks.cpg/sg62_13_cif.got.tgz:24447.got - 2010.06.03 15:25:27.
