data_PCOD9461813
_publ_section_title
;
Structure prediction by ZEFSAII (Michael W. Deem and Ramdas Pophale) SiO2 
 PCOD9461813
Probable space group: P N M A
;
_chemical_formula_sum "Si O2"
_cell_formula_units_Z 40
_cell_length_a 5.680161
_cell_length_b 16.071159
_cell_length_c 22.390906
_cell_angle_alpha 90.000000
_cell_angle_beta 90.000000
_cell_angle_gamma 90.000000
_cell_volume 2043.993499
_symmetry_space_group_name_H-M "P N M A"
_symmetry_group_IT_number 62
_symmetry_cell_setting 'orthorhombic'
loop_
_space_group_symop_operation_xyz
x,y,z
1/2-x,-y,1/2+z
1/2+x,1/2-y,1/2-z
-x,1/2+y,-z
-x,-y,-z
1/2+x,y,1/2-z
1/2-x,1/2+y,1/2+z
x,1/2-y,z
loop_
_atom_site_type_symbol
_atom_site_label
_atom_site_fract_x
_atom_site_fract_y
_atom_site_fract_z
Si Si1 0.087998 0.339947 0.402707
Si Si2 0.933301 0.938192 0.233556
Si Si3 0.603001 0.874101 0.778462
Si Si4 0.191245 0.929179 0.510140
Si Si5 0.424674 0.999093 0.401629
O O1 0.209363 0.250000 0.400624
O O2 0.254483 0.420334 0.396258
O O3 0.913394 0.346845 0.346601
O O4 0.943342 0.350279 0.463928
O O5 0.677566 0.896834 0.244888
O O6 0.909077 0.025685 0.270157
O O7 0.957814 0.962516 0.163946
O O8 0.353159 0.846412 0.749065
O O9 0.353403 0.963769 0.563410
O O10 0.327896 0.929026 0.447596
O O11 0.000000 0.000000 0.500000
#
# Coordination Sequence:
#
# PCOD9461813 Si02
#       5
#     8   8   8   8   8
#     4  11  22  33  49  73 105 144 185 227 272 324
#     4  10  18  30  51  74 105 136 177 222 267 316
#     4  10  19  33  47  69 105 144 186 220 260 310
#     4   9  20  35  53  72  95 139 190 227 273 312
#     4  10  19  35  53  71 102 143 183 233 269 318
#
# _framework density 19.569534000000001
#
# number of rings (size 3 to 8) (size 9 to 14) (size 15 to 20)
#    0.000    2.000    4.000    2.400    2.800    1.600 
#    0.000    0.000    0.000    0.000    0.000    0.000 
#    0.000    1.600    0.000    0.000    0.000    0.000 
#
# Total GULP energy -222784.351391 kJ/mol
# GULP energy per Si atom -5569.608785 kJ/mol
# Density = 1.952499 g / cm^3
# Si number density = 19.569534 Si / 1000 Ang^3
#
#
#
# Elastic Constant Matrix: (Units=GPa)
#
#
# Indices 1 2 3 4 5 6 
#
# 1 120.8265 6.4245 40.4844 0.0000 0.0000 0.0000
# 2 6.4245 17.8390 18.9334 0.0000 0.0000 0.0000
# 3 40.4844 18.9334 114.4632 0.0000 0.0000 0.0000
# 4 0.0000 0.0000 0.0000 5.0017 0.0000 0.0000
# 5 0.0000 0.0000 0.0000 0.0000 40.9956 0.0000
# 6 0.0000 0.0000 0.0000 0.0000 0.0000 -6.5451
#
#
#
# Elastic Compliance Matrix: (Units=1/GPa)
#
#
# Indices 1 2 3 4 5 6 
#
# 1 0.009389 0.000174 -0.003350 0.000000 0.000000 0.000000
# 2 0.000174 0.067997 -0.011309 0.000000 0.000000 0.000000
# 3 -0.003350 -0.011309 0.011792 0.000000 0.000000 0.000000
# 4 0.000000 0.000000 0.000000 0.199933 0.000000 0.000000
# 5 0.000000 0.000000 0.000000 0.000000 0.024393 0.000000
# 6 0.000000 0.000000 0.000000 0.000000 0.000000 -0.152786
#
#
# Mechanical properties :
#
#
# Convention : Reuss Voigt Hill
#
# Bulk Modulus (GPa) = 16.60896 42.75703 29.68300
# Shear Modulus (GPa) = 23.83705 20.37619 22.10662
#
# Velocity S-wave (km/s) = 3.49387 3.23029 3.36466
# Velocity P-wave (km/s) = 4.97813 5.98409 5.50414
#
# Compressibility (1/GPa) = 0.06020845
#
# Stress axis : x y z
#
# Youngs Moduli (GPa) = 106.50261 14.70656 84.80491
#
# Poissons Ratio (x) = -0.00255 0.28407
# Poissons Ratio (y) = -0.01850 0.95904
# Poissons Ratio (z) = 0.35675 0.16631
#
# Static dielectric constant tensor:
#      x y z
#    x 1.801900 0.000000 0.000000 
#    y 0.000000 1.653120 0.000000 
#    z 0.000000 0.000000 1.718670 
# 
# From -- ./inp_files/25246.got.cif
#   From: 2010.05.17/outbox.cif.g08.bks.cpg/sg62_13_cif.got.tgz:25246.got - 2010.06.03 15:25:27.
