data_PCOD9461238
_publ_section_title
;
Structure prediction by ZEFSAII (Michael W. Deem and Ramdas Pophale) SiO2 
 PCOD9461238
Probable space group: P B C A
;
_chemical_formula_sum "Si O2"
_cell_formula_units_Z 28
_cell_length_a 10.921390
_cell_length_b 20.469048
_cell_length_c 4.344034
_cell_angle_alpha 90.000000
_cell_angle_beta 90.000000
_cell_angle_gamma 90.000000
_cell_volume 971.110782
_symmetry_space_group_name_H-M "P B C A"
_symmetry_group_IT_number 61
_symmetry_cell_setting 'orthorhombic'
loop_
_space_group_symop_operation_xyz
x,y,z
1/2-x,-y,1/2+z
1/2+x,1/2-y,-z
-x,1/2+y,1/2-z
-x,-y,-z
1/2+x,y,1/2-z
1/2-x,1/2+y,z
x,1/2-y,1/2+z
loop_
_atom_site_type_symbol
_atom_site_label
_atom_site_fract_x
_atom_site_fract_y
_atom_site_fract_z
Si Si1 0.367295 0.919650 0.539714
Si Si2 0.000000 0.000000 0.500000
Si Si3 0.867292 0.419651 0.539714
Si Si4 0.000003 0.796844 0.021278
O O1 0.250001 0.919164 0.749998
O O2 0.387054 0.845333 0.421640
O O3 0.389294 0.965911 0.247280
O O4 0.389293 0.034088 0.752717
O O5 0.000001 0.929422 0.763905
O O6 0.887049 0.345334 0.421636
O O7 0.000004 0.774343 0.668288
#
# Coordination Sequence:
#
# PCOD9461238 Si02
#       4
#     8   4   8   8
#     4   8  17  35  57  81 119 156 200 247 300 354
#     4   6  16  32  54  78 116 148 194 252 288 360
#     4   8  17  35  57  81 119 156 200 247 300 354
#     4   9  20  37  60  89 122 161 200 248 298 359
#
# _framework density 28.832961000000001
#
# number of rings (size 3 to 8) (size 9 to 14) (size 15 to 20)
#    3.429    0.000    0.000    0.000    0.000    2.286 
#    0.000   12.857    0.000    0.000    0.000    0.000 
#    0.000    0.000    0.000    0.000    0.000    0.000 
#
# Total GULP energy -155983.634878 kJ/mol
# GULP energy per Si atom -5570.844103 kJ/mol
# Density = 2.876734 g / cm^3
# Si number density = 28.832961 Si / 1000 Ang^3
#
#
#
# Elastic Constant Matrix: (Units=GPa)
#
#
# Indices 1 2 3 4 5 6 
#
# 1 199.4749 82.4570 92.8406 0.0000 0.0000 0.0000
# 2 82.4570 213.5225 66.6072 0.0000 0.0000 0.0000
# 3 92.8406 66.6072 207.8332 0.0000 0.0000 0.0000
# 4 0.0000 0.0000 0.0000 79.3428 0.0000 0.0000
# 5 0.0000 0.0000 0.0000 0.0000 69.8341 0.0000
# 6 0.0000 0.0000 0.0000 0.0000 0.0000 20.9295
#
#
#
# Elastic Compliance Matrix: (Units=1/GPa)
#
#
# Indices 1 2 3 4 5 6 
#
# 1 0.006966 -0.001910 -0.002500 0.000000 0.000000 0.000000
# 2 -0.001910 0.005727 -0.000982 0.000000 0.000000 0.000000
# 3 -0.002500 -0.000982 0.006243 0.000000 0.000000 0.000000
# 4 0.000000 0.000000 0.000000 0.012604 0.000000 0.000000
# 5 0.000000 0.000000 0.000000 0.000000 0.014320 0.000000
# 6 0.000000 0.000000 0.000000 0.000000 0.000000 0.047779
#
#
# Mechanical properties :
#
#
# Convention : Reuss Voigt Hill
#
# Bulk Modulus (GPa) = 122.66588 122.73781 122.70185
# Shear Modulus (GPa) = 46.66741 59.28302 52.97521
#
# Velocity S-wave (km/s) = 4.02748 4.53933 4.29104
# Velocity P-wave (km/s) = 8.01645 8.37466 8.19751
#
# Compressibility (1/GPa) = 0.00815223
#
# Stress axis : x y z
#
# Youngs Moduli (GPa) = 143.54886 174.59639 160.18165
#
# Poissons Ratio (x) = 0.33356 0.40039
# Poissons Ratio (y) = 0.27424 0.15732
# Poissons Ratio (z) = 0.35882 0.17148
#
# Static dielectric constant tensor:
#      x y z
#    x 2.362690 0.000000 0.000000 
#    y 0.000000 2.351470 0.000000 
#    z 0.000000 0.000000 2.584670 
# 
# From -- ./inp_files/155.got.cif
#   From: 2010.05.17/outbox.cif.g08.bks.cpg/sg61_1_cif.got.tgz:155.got - 2010.06.03 15:17:17.
