data_PCOD9461139
_publ_section_title
;
Structure prediction by ZEFSAII (Michael W. Deem and Ramdas Pophale) SiO2 
 PCOD9461139
Probable space group: P B C A
;
_chemical_formula_sum "Si O2"
_cell_formula_units_Z 24
_cell_length_a 17.553339
_cell_length_b 10.424601
_cell_length_c 4.787692
_cell_angle_alpha 90.000000
_cell_angle_beta 90.000000
_cell_angle_gamma 90.000000
_cell_volume 876.083267
_symmetry_space_group_name_H-M "P B C A"
_symmetry_group_IT_number 61
_symmetry_cell_setting 'orthorhombic'
loop_
_space_group_symop_operation_xyz
x,y,z
1/2-x,-y,1/2+z
1/2+x,1/2-y,-z
-x,1/2+y,1/2-z
-x,-y,-z
1/2+x,y,1/2-z
1/2-x,1/2+y,z
x,1/2-y,1/2+z
loop_
_atom_site_type_symbol
_atom_site_label
_atom_site_fract_x
_atom_site_fract_y
_atom_site_fract_z
Si Si1 0.017379 0.835163 0.715971
Si Si2 0.125007 0.033155 0.024538
Si Si3 0.229619 0.836208 0.349674
O O1 0.028844 0.794477 0.397859
O O2 0.074420 0.942967 0.825645
O O3 0.933386 0.883651 0.792621
O O4 0.182976 0.118875 0.844688
O O5 0.177917 0.947901 0.226758
O O6 0.215479 0.789526 0.662772
#
# Coordination Sequence:
#
# PCOD9461139 Si02
#       3
#     8   8   8
#     4  11  26  47  72 104 142 190 242 296 358 430
#     4  11  26  46  74 105 146 190 242 299 362 430
#     4  12  26  44  70 106 144 186 236 294 358 426
#
# _framework density 27.394655
#
# number of rings (size 3 to 8) (size 9 to 14) (size 15 to 20)
#    0.000    0.667    0.000    6.000    0.000   16.000 
#    0.000    0.000    0.000    0.000    0.000    0.000 
#    0.000    0.000    0.000    0.000    0.000    0.000 
#
# Total GULP energy -135116.743730 kJ/mol
# GULP energy per Si atom -5629.864322 kJ/mol
# Density = 2.733230 g / cm^3
# Si number density = 27.394655 Si / 1000 Ang^3
#
#
#
# Elastic Constant Matrix: (Units=GPa)
#
#
# Indices 1 2 3 4 5 6 
#
# 1 110.6172 13.9174 46.2265 0.0000 0.0000 0.0000
# 2 13.9174 67.2977 33.0943 0.0000 0.0000 0.0000
# 3 46.2265 33.0943 92.8823 0.0000 0.0000 0.0000
# 4 0.0000 0.0000 0.0000 24.9074 0.0000 0.0000
# 5 0.0000 0.0000 0.0000 0.0000 37.3163 0.0000
# 6 0.0000 0.0000 0.0000 0.0000 0.0000 73.4923
#
#
#
# Elastic Compliance Matrix: (Units=1/GPa)
#
#
# Indices 1 2 3 4 5 6 
#
# 1 0.011429 0.000526 -0.005876 0.000000 0.000000 0.000000
# 2 0.000526 0.018040 -0.006689 0.000000 0.000000 0.000000
# 3 -0.005876 -0.006689 0.016074 0.000000 0.000000 0.000000
# 4 0.000000 0.000000 0.000000 0.040149 0.000000 0.000000
# 5 0.000000 0.000000 0.000000 0.000000 0.026798 0.000000
# 6 0.000000 0.000000 0.000000 0.000000 0.000000 0.013607
#
#
# Mechanical properties :
#
#
# Convention : Reuss Voigt Hill
#
# Bulk Modulus (GPa) = 46.58742 50.80817 48.69779
# Shear Modulus (GPa) = 31.78013 38.98046 35.38029
#
# Velocity S-wave (km/s) = 3.40970 3.77626 3.59765
# Velocity P-wave (km/s) = 5.70476 6.13192 5.92220
#
# Compressibility (1/GPa) = 0.02146502
#
# Stress axis : x y z
#
# Youngs Moduli (GPa) = 87.49330 55.43164 62.21213
#
# Poissons Ratio (x) = -0.02914 0.36554
# Poissons Ratio (y) = -0.04600 0.41617
# Poissons Ratio (z) = 0.51408 0.37081
#
# Static dielectric constant tensor:
#      x y z
#    x 2.104810 0.000000 0.000000 
#    y 0.000000 2.070690 0.000000 
#    z 0.000000 0.000000 2.029780 
# 
# From -- ./inp_files/278.got.cif
#   From: 2010.05.17/outbox.cif.g08.bks.cpg/sg61_1_cif.got.tgz:278.got - 2010.06.03 15:17:17.
