data_PCOD9461269
_publ_section_title
;
Structure prediction by ZEFSAII (Michael W. Deem and Ramdas Pophale) SiO2 
 PCOD9461269
Probable space group: P B C A
;
_chemical_formula_sum "Si O2"
_cell_formula_units_Z 60
_cell_length_a 18.000000
_cell_length_b 18.000000
_cell_length_c 9.000000
_cell_angle_alpha 90.000000
_cell_angle_beta 90.000000
_cell_angle_gamma 90.000000
_cell_volume 2916.000000
_symmetry_space_group_name_H-M "P B C A"
_symmetry_group_IT_number 61
_symmetry_cell_setting 'orthorhombic'
loop_
_space_group_symop_operation_xyz
x,y,z
1/2-x,-y,1/2+z
1/2+x,1/2-y,-z
-x,1/2+y,1/2-z
-x,-y,-z
1/2+x,y,1/2-z
1/2-x,1/2+y,z
x,1/2-y,1/2+z
loop_
_atom_site_type_symbol
_atom_site_label
_atom_site_fract_x
_atom_site_fract_y
_atom_site_fract_z
Si Si1 0.586808 0.412516 0.240066
Si Si2 0.773936 0.015187 0.270663
Si Si3 0.639465 0.269354 0.422985
Si Si4 0.160159 0.566052 0.915800
Si Si5 0.736752 0.319009 0.700529
Si Si6 0.887522 0.233726 0.663828
Si Si7 0.994500 0.305871 0.436209
Si Si8 0.500000 0.000000 0.000000
O O1 0.653053 0.471262 0.211223
O O2 0.622357 0.337195 0.310447
O O3 0.535363 0.383786 0.103384
O O4 0.536446 0.449410 0.366185
O O5 0.790081 0.040605 0.441334
O O6 0.756174 0.094182 0.194857
O O7 0.705292 0.960651 0.230260
O O8 0.697584 0.295180 0.547477
O O9 0.677962 0.203053 0.329695
O O10 0.562841 0.245330 0.504735
O O11 0.138715 0.654267 0.907628
O O12 0.083943 0.521974 0.939857
O O13 0.812699 0.272474 0.723976
O O14 0.928780 0.292505 0.555174
O O15 0.951172 0.217267 0.786016
#
# Coordination Sequence:
#
# PCOD9461269 Si02
#       8
#     8   8   8   8   8   8   8   4
#     4  11  23  44  70  99 142 185 235 293 362 432
#     4  11  26  42  69 100 142 189 238 286 363 433
#     4  12  23  45  72 102 137 184 239 294 354 427
#     4  11  23  46  70 101 141 189 237 293 361 430
#     4  12  25  43  69 104 137 184 239 297 355 430
#     4  12  25  44  75 103 146 183 241 304 359 425
#     4  12  23  44  71 104 136 185 239 296 360 428
#     4  10  20  42  70  96 134 188 226 284 358 416
#
# _framework density 20.576132000000001
#
# number of rings (size 3 to 8) (size 9 to 14) (size 15 to 20)
#    0.000    0.533    4.000    4.800    1.867    2.133 
#    0.000    2.000    0.000    0.000    0.000    0.000 
#    0.000    0.000    0.000    0.000    0.000    0.000 
#
# Total GULP energy -334148.346255 kJ/mol
# GULP energy per Si atom -5569.139104 kJ/mol
# Density = 2.052930 g / cm^3
# Si number density = 20.576132 Si / 1000 Ang^3
#
#
#
# Elastic Constant Matrix: (Units=GPa)
#
#
# Indices 1 2 3 4 5 6 
#
# 1 129.1566 35.6201 26.9718 0.0000 0.0000 0.0000
# 2 35.6201 74.2410 11.7541 0.0000 0.0000 0.0000
# 3 26.9718 11.7541 53.8279 0.0000 0.0000 0.0000
# 4 0.0000 0.0000 0.0000 18.7792 0.0000 0.0000
# 5 0.0000 0.0000 0.0000 0.0000 46.8514 0.0000
# 6 0.0000 0.0000 0.0000 0.0000 0.0000 35.1356
#
#
#
# Elastic Compliance Matrix: (Units=1/GPa)
#
#
# Indices 1 2 3 4 5 6 
#
# 1 0.009680 -0.004015 -0.003973 0.000000 0.000000 0.000000
# 2 -0.004015 0.015617 -0.001398 0.000000 0.000000 0.000000
# 3 -0.003973 -0.001398 0.020874 0.000000 0.000000 0.000000
# 4 0.000000 0.000000 0.000000 0.053250 0.000000 0.000000
# 5 0.000000 0.000000 0.000000 0.000000 0.021344 0.000000
# 6 0.000000 0.000000 0.000000 0.000000 0.000000 0.028461
#
#
# Mechanical properties :
#
#
# Convention : Reuss Voigt Hill
#
# Bulk Modulus (GPa) = 36.50007 45.10195 40.80101
# Shear Modulus (GPa) = 28.22735 32.34522 30.28628
#
# Velocity S-wave (km/s) = 3.70787 3.96912 3.84071
# Velocity P-wave (km/s) = 6.00904 6.55533 6.28812
#
# Compressibility (1/GPa) = 0.02739721
#
# Stress axis : x y z
#
# Youngs Moduli (GPa) = 103.30958 64.03092 47.90621
#
# Poissons Ratio (x) = 0.25709 0.19035
# Poissons Ratio (y) = 0.41480 0.06699
# Poissons Ratio (z) = 0.41050 0.08954
#
# Static dielectric constant tensor:
#      x y z
#    x 1.718080 0.000000 0.000000 
#    y 0.000000 1.727000 0.000000 
#    z 0.000000 0.000000 1.771250 
# 
# From -- ./inp_files/3608.got.cif
#   From: 2010.05.17/outbox.ucp.g08.bks.cvg/sg61_2_cif.got.tgz:3608.got - 2010.06.11 16:28:26.
