data_PCOD9461928
_publ_section_title
;
Structure prediction by ZEFSAII (Michael W. Deem and Ramdas Pophale) SiO2 
 PCOD9461928
Probable space group: P N M A
;
_chemical_formula_sum "Si O2"
_cell_formula_units_Z 64
_cell_length_a 19.763192
_cell_length_b 12.180774
_cell_length_c 15.516777
_cell_angle_alpha 90.000000
_cell_angle_beta 90.000000
_cell_angle_gamma 90.000000
_cell_volume 3735.368860
_symmetry_space_group_name_H-M "P N M A"
_symmetry_group_IT_number 62
_symmetry_cell_setting 'orthorhombic'
loop_
_space_group_symop_operation_xyz
x,y,z
1/2-x,-y,1/2+z
1/2+x,1/2-y,1/2-z
-x,1/2+y,-z
-x,-y,-z
1/2+x,y,1/2-z
1/2-x,1/2+y,1/2+z
x,1/2-y,z
loop_
_atom_site_type_symbol
_atom_site_label
_atom_site_fract_x
_atom_site_fract_y
_atom_site_fract_z
Si Si1 0.832672 0.524167 0.548364
Si Si2 0.876880 0.124654 0.386084
Si Si3 0.646886 0.490352 0.717324
Si Si4 0.121879 0.617388 0.133081
Si Si5 0.477962 0.957223 0.906298
Si Si6 0.997478 0.881720 0.249095
Si Si7 0.314994 0.119623 0.454433
Si Si8 0.786663 0.378867 0.708780
O O1 0.851996 0.454149 0.463491
O O2 0.901357 0.584933 0.580219
O O3 0.765268 0.595505 0.533864
O O4 0.813056 0.441229 0.624950
O O5 0.855760 0.250000 0.400248
O O6 0.849546 0.074561 0.297151
O O7 0.959128 0.119454 0.380516
O O8 0.576439 0.426448 0.726253
O O9 0.657106 0.556629 0.628890
O O10 0.708186 0.404765 0.721534
O O11 0.125621 0.750000 0.129590
O O12 0.174041 0.580543 0.206611
O O13 0.048377 0.590219 0.170867
O O14 0.144897 0.579230 0.039321
O O15 0.478260 0.055245 0.835608
O O16 0.500000 0.000000 0.000000
O O17 0.998183 0.750000 0.262200
O O18 0.324472 0.250000 0.444273
O O19 0.799251 0.250000 0.699104
#
# Coordination Sequence:
#
# PCOD9461928 Si02
#       8
#     8   8   8   8   8   8   8   8
#     4  10  19  33  53  79 105 133 177 221 271 326
#     4  10  20  34  51  73 105 141 175 211 265 331
#     4  10  21  34  51  76 106 142 180 219 269 323
#     4   9  18  32  53  76 100 138 179 217 270 317
#     4   9  19  32  49  79 109 138 171 210 271 333
#     4  10  19  34  55  79 108 139 179 229 272 318
#     4  10  21  36  53  75 105 142 184 227 271 322
#     4  10  18  31  53  79 106 134 171 223 274 322
#
# _framework density 17.133514999999999
#
# number of rings (size 3 to 8) (size 9 to 14) (size 15 to 20)
#    0.000    2.250    1.250    1.875    0.000    3.000 
#    0.000    6.250    0.000    0.000    0.000    4.375 
#    0.000    0.000    0.000    0.000    0.000    0.000 
#
# Total GULP energy -356629.044780 kJ/mol
# GULP energy per Si atom -5572.328825 kJ/mol
# Density = 1.709452 g / cm^3
# Si number density = 17.133515 Si / 1000 Ang^3
#
#
#
# Elastic Constant Matrix: (Units=GPa)
#
#
# Indices 1 2 3 4 5 6 
#
# 1 82.5716 -9.8410 27.8588 0.0000 0.0000 0.0000
# 2 -9.8410 30.2205 10.6976 0.0000 0.0000 0.0000
# 3 27.8588 10.6976 103.8137 0.0000 0.0000 0.0000
# 4 0.0000 0.0000 0.0000 14.9963 0.0000 0.0000
# 5 0.0000 0.0000 0.0000 0.0000 27.1895 0.0000
# 6 0.0000 0.0000 0.0000 0.0000 0.0000 12.1584
#
#
#
# Elastic Compliance Matrix: (Units=1/GPa)
#
#
# Indices 1 2 3 4 5 6 
#
# 1 0.014379 0.006277 -0.004505 0.000000 0.000000 0.000000
# 2 0.006277 0.037083 -0.005506 0.000000 0.000000 0.000000
# 3 -0.004505 -0.005506 0.011409 0.000000 0.000000 0.000000
# 4 0.000000 0.000000 0.000000 0.066683 0.000000 0.000000
# 5 0.000000 0.000000 0.000000 0.000000 0.036779 0.000000
# 6 0.000000 0.000000 0.000000 0.000000 0.000000 0.082247
#
#
# Mechanical properties :
#
#
# Convention : Reuss Voigt Hill
#
# Bulk Modulus (GPa) = 18.04953 30.44850 24.24902
# Shear Modulus (GPa) = 18.21383 23.39487 20.80435
#
# Velocity S-wave (km/s) = 3.26399 3.69920 3.48839
# Velocity P-wave (km/s) = 4.97617 6.00461 5.51442
#
# Compressibility (1/GPa) = 0.05540310
#
# Stress axis : x y z
#
# Youngs Moduli (GPa) = 69.54615 26.96640 87.64967
#
# Poissons Ratio (x) = -0.16927 0.39490
# Poissons Ratio (y) = -0.43656 0.48258
# Poissons Ratio (z) = 0.31334 0.14847
#
# Static dielectric constant tensor:
#      x y z
#    x 1.604200 0.000000 0.000000 
#    y 0.000000 1.559180 0.000000 
#    z 0.000000 0.000000 1.566530 
# 
# From -- ./inp_files/19906.got.cif
#   From: 2010.05.17/outbox.cif.g08.bks.cpg/sg62_10_cif.got.tgz:19906.got - 2010.06.03 15:25:27.
