data_PCOD9461456
_publ_section_title
;
Structure prediction by ZEFSAII (Michael W. Deem and Ramdas Pophale) SiO2 
 PCOD9461456
Probable space group: P N M A
;
_chemical_formula_sum "Si O2"
_cell_formula_units_Z 64
_cell_length_a 26.674494
_cell_length_b 22.066200
_cell_length_c 6.783990
_cell_angle_alpha 90.000000
_cell_angle_beta 90.000000
_cell_angle_gamma 90.000000
_cell_volume 3993.088531
_symmetry_space_group_name_H-M "P N M A"
_symmetry_group_IT_number 62
_symmetry_cell_setting 'orthorhombic'
loop_
_space_group_symop_operation_xyz
x,y,z
1/2-x,-y,1/2+z
1/2+x,1/2-y,1/2-z
-x,1/2+y,-z
-x,-y,-z
1/2+x,y,1/2-z
1/2-x,1/2+y,1/2+z
x,1/2-y,z
loop_
_atom_site_type_symbol
_atom_site_label
_atom_site_fract_x
_atom_site_fract_y
_atom_site_fract_z
Si Si1 0.183920 0.987972 0.161327
Si Si2 0.312422 0.678529 0.629237
Si Si3 0.070210 0.178781 0.037928
Si Si4 0.731485 0.079801 0.641006
Si Si5 0.570955 0.988423 0.441975
Si Si6 0.666254 0.095402 0.025829
Si Si7 0.553305 0.094440 0.121034
Si Si8 0.480648 0.921433 0.285992
O O1 0.129286 0.972984 0.074171
O O2 0.175775 0.037897 0.332453
O O3 0.215292 0.933685 0.257671
O O4 0.216094 0.021964 0.992773
O O5 0.303313 0.750000 0.619961
O O6 0.369756 0.666391 0.553838
O O7 0.275123 0.638351 0.497552
O O8 0.312453 0.652538 0.851321
O O9 0.063214 0.250000 0.014342
O O10 0.046901 0.153013 0.241482
O O11 0.045168 0.139147 0.867721
O O12 0.692058 0.086846 0.817887
O O13 0.558948 0.038869 0.273288
O O14 0.554608 0.022426 0.642548
O O15 0.533259 0.934036 0.394417
O O16 0.606632 0.101969 0.011858
O O17 0.514299 0.081841 0.948591
#
# Coordination Sequence:
#
# PCOD9461456 Si02
#       8
#     8   8   8   8   8   8   8   8
#     4  10  19  30  45  72  97 124 157 196 236 285
#     4   9  19  32  46  69  96 123 158 196 235 287
#     4   9  18  31  46  68  96 121 156 198 230 274
#     4  11  18  30  50  69  97 127 157 193 242 288
#     4   9  19  30  44  69 100 120 155 193 228 283
#     4   9  17  29  45  67  94 123 152 194 235 280
#     4   9  16  28  46  67  93 122 152 186 235 276
#     4  10  17  30  48  68  93 129 152 184 238 285
#
# _framework density 16.027692999999999
#
# number of rings (size 3 to 8) (size 9 to 14) (size 15 to 20)
#    0.000    2.500    1.250    4.125    0.000    1.000 
#    0.000    2.500    0.000    0.750    0.000    1.750 
#    0.000    0.000    0.000    0.000    0.000    0.000 
#
# Total GULP energy -356649.846519 kJ/mol
# GULP energy per Si atom -5572.653852 kJ/mol
# Density = 1.599121 g / cm^3
# Si number density = 16.027693 Si / 1000 Ang^3
#
#
#
# Elastic Constant Matrix: (Units=GPa)
#
#
# Indices 1 2 3 4 5 6 
#
# 1 46.9575 22.0962 4.7715 0.0000 0.0000 0.0000
# 2 22.0962 67.6724 12.4981 0.0000 0.0000 0.0000
# 3 4.7715 12.4981 51.5515 0.0000 0.0000 0.0000
# 4 0.0000 0.0000 0.0000 11.4378 0.0000 0.0000
# 5 0.0000 0.0000 0.0000 0.0000 21.2597 0.0000
# 6 0.0000 0.0000 0.0000 0.0000 0.0000 20.2147
#
#
#
# Elastic Compliance Matrix: (Units=1/GPa)
#
#
# Indices 1 2 3 4 5 6 
#
# 1 0.025168 -0.008153 -0.000353 0.000000 0.000000 0.000000
# 2 -0.008153 0.018111 -0.003636 0.000000 0.000000 0.000000
# 3 -0.000353 -0.003636 0.020312 0.000000 0.000000 0.000000
# 4 0.000000 0.000000 0.000000 0.087429 0.000000 0.000000
# 5 0.000000 0.000000 0.000000 0.000000 0.047037 0.000000
# 6 0.000000 0.000000 0.000000 0.000000 0.000000 0.049469
#
#
# Mechanical properties :
#
#
# Convention : Reuss Voigt Hill
#
# Bulk Modulus (GPa) = 25.44048 27.21256 26.32652
# Shear Modulus (GPa) = 17.54926 19.03681 18.29304
#
# Velocity S-wave (km/s) = 3.31257 3.45011 3.38204
# Velocity P-wave (km/s) = 5.52613 5.73466 5.63136
#
# Compressibility (1/GPa) = 0.03930744
#
# Stress axis : x y z
#
# Youngs Moduli (GPa) = 39.73304 55.21635 49.23124
#
# Poissons Ratio (x) = 0.45016 0.01738
# Poissons Ratio (y) = 0.32393 0.17901
# Poissons Ratio (z) = 0.01403 0.20077
#
# Static dielectric constant tensor:
#      x y z
#    x 1.551960 0.000000 0.000000 
#    y 0.000000 1.528130 0.000000 
#    z 0.000000 0.000000 1.555950 
# 
# From -- ./inp_files/3350.got.cif
#   From: 2010.05.17/outbox.cif.g08.bks.cpg/sg62_2_cif.got.tgz:3350.got - 2010.06.03 15:25:27.
