data_PCOD9461219
_publ_section_title
;
Structure prediction by ZEFSAII (Michael W. Deem and Ramdas Pophale) SiO2 
 PCOD9461219
Probable space group: P B C A
;
_chemical_formula_sum "Si O2"
_cell_formula_units_Z 32
_cell_length_a 10.457375
_cell_length_b 9.069867
_cell_length_c 13.376891
_cell_angle_alpha 90.000000
_cell_angle_beta 90.000000
_cell_angle_gamma 90.000000
_cell_volume 1268.757986
_symmetry_space_group_name_H-M "P B C A"
_symmetry_group_IT_number 61
_symmetry_cell_setting 'orthorhombic'
loop_
_space_group_symop_operation_xyz
x,y,z
1/2-x,-y,1/2+z
1/2+x,1/2-y,-z
-x,1/2+y,1/2-z
-x,-y,-z
1/2+x,y,1/2-z
1/2-x,1/2+y,z
x,1/2-y,1/2+z
loop_
_atom_site_type_symbol
_atom_site_label
_atom_site_fract_x
_atom_site_fract_y
_atom_site_fract_z
Si Si1 0.191826 0.959308 0.550866
Si Si2 0.129726 0.821434 0.763083
Si Si3 0.171454 0.272518 0.923867
Si Si4 0.548983 0.554935 0.852002
O O1 0.138297 0.903857 0.656291
O O2 0.125549 0.094323 0.494070
O O3 0.332832 0.022161 0.577115
O O4 0.218344 0.821567 0.479222
O O5 0.261567 0.834077 0.823957
O O6 0.018641 0.903287 0.822700
O O7 0.101374 0.650955 0.740872
O O8 0.058468 0.161000 0.898403
#
# Coordination Sequence:
#
# PCOD9461219 Si02
#       4
#     8   8   8   8
#     4  12  27  49  73 107 149 191 244 299 357 436
#     4  12  28  48  74 110 148 187 247 302 358 436
#     4  12  27  48  75 106 149 190 246 299 356 436
#     4  12  27  47  75 107 147 196 236 301 370 421
#
# _framework density 25.221516000000001
#
# number of rings (size 3 to 8) (size 9 to 14) (size 15 to 20)
#    0.000    0.000    5.000    3.750    7.000    1.000 
#    0.000    0.000    0.000    0.000    0.000    0.000 
#    0.000    0.000    0.000    0.000    0.000    0.000 
#
# Total GULP energy -179607.716401 kJ/mol
# GULP energy per Si atom -5612.741138 kJ/mol
# Density = 2.516411 g / cm^3
# Si number density = 25.221516 Si / 1000 Ang^3
#
#
#
# Elastic Constant Matrix: (Units=GPa)
#
#
# Indices 1 2 3 4 5 6 
#
# 1 45.8638 -2.1904 7.5816 0.0000 0.0000 0.0000
# 2 -2.1904 107.0860 22.1969 0.0000 0.0000 0.0000
# 3 7.5816 22.1969 70.9897 0.0000 0.0000 0.0000
# 4 0.0000 0.0000 0.0000 46.4098 0.0000 0.0000
# 5 0.0000 0.0000 0.0000 0.0000 24.5049 0.0000
# 6 0.0000 0.0000 0.0000 0.0000 0.0000 59.1632
#
#
#
# Elastic Compliance Matrix: (Units=1/GPa)
#
#
# Indices 1 2 3 4 5 6 
#
# 1 0.022298 0.001016 -0.002699 0.000000 0.000000 0.000000
# 2 0.001016 0.010032 -0.003245 0.000000 0.000000 0.000000
# 3 -0.002699 -0.003245 0.015389 0.000000 0.000000 0.000000
# 4 0.000000 0.000000 0.000000 0.021547 0.000000 0.000000
# 5 0.000000 0.000000 0.000000 0.000000 0.040808 0.000000
# 6 0.000000 0.000000 0.000000 0.000000 0.000000 0.016902
#
#
# Mechanical properties :
#
#
# Convention : Reuss Voigt Hill
#
# Bulk Modulus (GPa) = 26.41144 31.01285 28.71214
# Shear Modulus (GPa) = 33.45484 39.10567 36.28025
#
# Velocity S-wave (km/s) = 3.64598 3.94190 3.79682
# Velocity P-wave (km/s) = 5.31214 5.74813 5.53443
#
# Compressibility (1/GPa) = 0.03786239
#
# Stress axis : x y z
#
# Youngs Moduli (GPa) = 44.84639 99.68384 64.97941
#
# Poissons Ratio (x) = -0.10123 0.17538
# Poissons Ratio (y) = -0.04554 0.21087
# Poissons Ratio (z) = 0.12104 0.32349
#
# Static dielectric constant tensor:
#      x y z
#    x 1.964360 0.000000 0.000000 
#    y 0.000000 1.948580 0.000000 
#    z 0.000000 0.000000 2.020350 
# 
# From -- ./inp_files/1992.got.cif
#   From: 2010.05.17/outbox.cif.g08.bks.cpg/sg61_1_cif.got.tgz:1992.got - 2010.06.03 15:17:17.
