data_PCOD9461290
_publ_section_title
;
Structure prediction by ZEFSAII (Michael W. Deem and Ramdas Pophale) SiO2 
 PCOD9461290
Probable space group: P B C A
;
_chemical_formula_sum "Si O2"
_cell_formula_units_Z 60
_cell_length_a 9.000000
_cell_length_b 12.000000
_cell_length_c 27.000000
_cell_angle_alpha 90.000000
_cell_angle_beta 90.000000
_cell_angle_gamma 90.000000
_cell_volume 2916.000000
_symmetry_space_group_name_H-M "P B C A"
_symmetry_group_IT_number 61
_symmetry_cell_setting 'orthorhombic'
loop_
_space_group_symop_operation_xyz
x,y,z
1/2-x,-y,1/2+z
1/2+x,1/2-y,-z
-x,1/2+y,1/2-z
-x,-y,-z
1/2+x,y,1/2-z
1/2-x,1/2+y,z
x,1/2-y,1/2+z
loop_
_atom_site_type_symbol
_atom_site_label
_atom_site_fract_x
_atom_site_fract_y
_atom_site_fract_z
Si Si1 0.517479 0.447235 0.913558
Si Si2 0.775482 0.557615 0.239588
Si Si3 0.361221 0.416539 0.598200
Si Si4 0.489115 0.176245 0.310539
Si Si5 0.949873 0.938384 0.309120
Si Si6 0.268745 0.168788 0.481849
Si Si7 0.495886 0.210291 0.567995
Si Si8 0.000000 0.500000 0.000000
O O1 0.691190 0.414624 0.921243
O O2 0.481525 0.391544 0.861363
O O3 0.394843 0.395515 0.950322
O O4 0.505321 0.581177 0.916570
O O5 0.666933 0.649527 0.215886
O O6 0.665150 0.467162 0.264754
O O7 0.878153 0.619975 0.279498
O O8 0.892146 0.497201 0.203149
O O9 0.377359 0.500611 0.643683
O O10 0.428286 0.293304 0.609554
O O11 0.473094 0.457707 0.555978
O O12 0.522622 0.307178 0.316581
O O13 0.373189 0.225691 0.523707
O O14 0.161113 0.254228 0.451400
O O15 0.152033 0.081071 0.504284
#
# Coordination Sequence:
#
# PCOD9461290 Si02
#       8
#     8   8   8   8   8   8   8   4
#     4  12  26  44  70 105 139 184 244 294 357 426
#     4  10  24  47  69 108 136 184 234 288 364 430
#     4  11  25  44  69 105 140 190 230 293 359 423
#     4  11  25  44  73 103 138 183 228 292 358 427
#     4  11  24  47  74 102 146 181 235 297 355 432
#     4  11  25  44  70 100 140 192 240 291 356 413
#     4  11  26  45  68 100 145 188 238 298 346 429
#     4  10  24  44  68  98 140 186 238 282 350 420
#
# _framework density 20.576132000000001
#
# number of rings (size 3 to 8) (size 9 to 14) (size 15 to 20)
#    0.000    1.067    2.667    2.000    9.333    3.200 
#    9.600    0.000    0.000    0.000    0.000    0.000 
#    0.000    0.000    0.000    0.000    0.000    0.000 
#
# Total GULP energy -334185.946214 kJ/mol
# GULP energy per Si atom -5569.765770 kJ/mol
# Density = 2.052930 g / cm^3
# Si number density = 20.576132 Si / 1000 Ang^3
#
#
#
# Elastic Constant Matrix: (Units=GPa)
#
#
# Indices 1 2 3 4 5 6 
#
# 1 108.9671 45.2627 7.9459 0.0000 0.0000 0.0000
# 2 45.2627 153.2408 36.5762 0.0000 0.0000 0.0000
# 3 7.9459 36.5762 31.5182 0.0000 0.0000 0.0000
# 4 0.0000 0.0000 0.0000 29.3439 0.0000 0.0000
# 5 0.0000 0.0000 0.0000 0.0000 23.7688 0.0000
# 6 0.0000 0.0000 0.0000 0.0000 0.0000 36.1200
#
#
#
# Elastic Compliance Matrix: (Units=1/GPa)
#
#
# Indices 1 2 3 4 5 6 
#
# 1 0.010500 -0.003416 0.001317 0.000000 0.000000 0.000000
# 2 -0.003416 0.010137 -0.010902 0.000000 0.000000 0.000000
# 3 0.001317 -0.010902 0.044048 0.000000 0.000000 0.000000
# 4 0.000000 0.000000 0.000000 0.034079 0.000000 0.000000
# 5 0.000000 0.000000 0.000000 0.000000 0.042072 0.000000
# 6 0.000000 0.000000 0.000000 0.000000 0.000000 0.027685
#
#
# Mechanical properties :
#
#
# Convention : Reuss Voigt Hill
#
# Bulk Modulus (GPa) = 25.85203 52.58839 39.22021
# Shear Modulus (GPa) = 24.10602 31.44262 27.77432
#
# Velocity S-wave (km/s) = 3.42651 3.91335 3.67799
# Velocity P-wave (km/s) = 5.31469 6.78473 6.09420
#
# Compressibility (1/GPa) = 0.03868169
#
# Stress axis : x y z
#
# Youngs Moduli (GPa) = 95.23950 98.65067 22.70265
#
# Poissons Ratio (x) = 0.33695 -0.02989
# Poissons Ratio (y) = 0.32530 0.24751
# Poissons Ratio (z) = -0.12540 1.07553
#
# Static dielectric constant tensor:
#      x y z
#    x 1.733970 0.000000 0.000000 
#    y 0.000000 1.746970 0.000000 
#    z 0.000000 0.000000 1.777010 
# 
# From -- ./inp_files/2389.got.cif
#   From: 2010.05.17/outbox.ucp.g08.bks.cvg/sg61_2_cif.got.tgz:2389.got - 2010.06.11 16:28:26.
