data_PCOD9461161
_publ_section_title
;
Structure prediction by ZEFSAII (Michael W. Deem and Ramdas Pophale) SiO2 
 PCOD9461161
Probable space group: P B C A
;
_chemical_formula_sum "Si O2"
_cell_formula_units_Z 36
_cell_length_a 18.255041
_cell_length_b 8.243316
_cell_length_c 8.922755
_cell_angle_alpha 90.000000
_cell_angle_beta 90.000000
_cell_angle_gamma 90.000000
_cell_volume 1342.714656
_symmetry_space_group_name_H-M "P B C A"
_symmetry_group_IT_number 61
_symmetry_cell_setting 'orthorhombic'
loop_
_space_group_symop_operation_xyz
x,y,z
1/2-x,-y,1/2+z
1/2+x,1/2-y,-z
-x,1/2+y,1/2-z
-x,-y,-z
1/2+x,y,1/2-z
1/2-x,1/2+y,z
x,1/2-y,1/2+z
loop_
_atom_site_type_symbol
_atom_site_label
_atom_site_fract_x
_atom_site_fract_y
_atom_site_fract_z
Si Si1 0.000000 0.500000 0.000000
Si Si2 0.055601 0.397663 0.686912
Si Si3 0.763981 0.391303 0.645458
Si Si4 0.909300 0.309128 0.517486
Si Si5 0.678549 0.333540 0.345195
O O1 0.051647 0.445559 0.857920
O O2 0.059282 0.643856 0.046757
O O3 0.095932 0.544899 0.602017
O O4 0.094155 0.224175 0.651469
O O5 0.973984 0.375177 0.624217
O O6 0.832404 0.281106 0.596781
O O7 0.711076 0.394919 0.501451
O O8 0.804439 0.551541 0.704440
O O9 0.721457 0.326478 0.790217
#
# Coordination Sequence:
#
# PCOD9461161 Si02
#       5
#     4   8   8   8   8
#     4  12  28  46  84 112 154 216 272 352 420 514
#     4  11  28  52  75 118 160 215 276 345 433 497
#     4  12  29  51  81 117 166 218 286 336 438 501
#     4  11  28  49  78 115 161 212 277 344 415 514
#     4  12  29  53  82 121 168 227 277 362 422 526
#
# _framework density 26.811356
#
# number of rings (size 3 to 8) (size 9 to 14) (size 15 to 20)
#    0.000    0.444    0.000    5.333   21.778    0.000 
#    0.000    0.000    0.000    0.000    0.000    0.000 
#    0.000    0.000    0.000    0.000    0.000    0.000 
#
# Total GULP energy -201076.167780 kJ/mol
# GULP energy per Si atom -5585.449105 kJ/mol
# Density = 2.675033 g / cm^3
# Si number density = 26.811356 Si / 1000 Ang^3
#
#
#
# Elastic Constant Matrix: (Units=GPa)
#
#
# Indices 1 2 3 4 5 6 
#
# 1 109.3257 10.0819 59.6757 0.0000 0.0000 0.0000
# 2 10.0819 99.6557 58.8728 0.0000 0.0000 0.0000
# 3 59.6757 58.8728 170.2355 0.0000 0.0000 0.0000
# 4 0.0000 0.0000 0.0000 51.1726 0.0000 0.0000
# 5 0.0000 0.0000 0.0000 0.0000 39.9297 0.0000
# 6 0.0000 0.0000 0.0000 0.0000 0.0000 49.8564
#
#
#
# Elastic Compliance Matrix: (Units=1/GPa)
#
#
# Indices 1 2 3 4 5 6 
#
# 1 0.011494 0.001530 -0.004558 0.000000 0.000000 0.000000
# 2 0.001530 0.012815 -0.004968 0.000000 0.000000 0.000000
# 3 -0.004558 -0.004968 0.009190 0.000000 0.000000 0.000000
# 4 0.000000 0.000000 0.000000 0.019542 0.000000 0.000000
# 5 0.000000 0.000000 0.000000 0.000000 0.025044 0.000000
# 6 0.000000 0.000000 0.000000 0.000000 0.000000 0.020058
#
#
# Mechanical properties :
#
#
# Convention : Reuss Voigt Hill
#
# Bulk Modulus (GPa) = 57.12232 70.71974 63.92103
# Shear Modulus (GPa) = 41.67687 44.89750 43.28719
#
# Velocity S-wave (km/s) = 3.94693 4.09659 4.02245
# Velocity P-wave (km/s) = 6.49018 6.98642 6.74287
#
# Compressibility (1/GPa) = 0.01750629
#
# Stress axis : x y z
#
# Youngs Moduli (GPa) = 87.00126 78.03531 108.81072
#
# Poissons Ratio (x) = -0.11940 0.49600
# Poissons Ratio (y) = -0.13312 0.54058
# Poissons Ratio (z) = 0.39659 0.38769
#
# Static dielectric constant tensor:
#      x y z
#    x 1.922350 0.000000 0.000000 
#    y 0.000000 2.279750 0.000000 
#    z 0.000000 0.000000 2.596650 
# 
# From -- ./inp_files/3793.got.cif
#   From: 2010.05.17/outbox.cif.g08.bks.cpg/sg61_2_cif.got.tgz:3793.got - 2010.06.03 15:17:17.
