data_PCOD9461198
_publ_section_title
;
Structure prediction by ZEFSAII (Michael W. Deem and Ramdas Pophale) SiO2 
 PCOD9461198
Probable space group: P B C A
;
_chemical_formula_sum "Si O2"
_cell_formula_units_Z 32
_cell_length_a 18.540819
_cell_length_b 10.230695
_cell_length_c 5.971710
_cell_angle_alpha 90.000000
_cell_angle_beta 90.000000
_cell_angle_gamma 90.000000
_cell_volume 1132.746584
_symmetry_space_group_name_H-M "P B C A"
_symmetry_group_IT_number 61
_symmetry_cell_setting 'orthorhombic'
loop_
_space_group_symop_operation_xyz
x,y,z
1/2-x,-y,1/2+z
1/2+x,1/2-y,-z
-x,1/2+y,1/2-z
-x,-y,-z
1/2+x,y,1/2-z
1/2-x,1/2+y,z
x,1/2-y,1/2+z
loop_
_atom_site_type_symbol
_atom_site_label
_atom_site_fract_x
_atom_site_fract_y
_atom_site_fract_z
Si Si1 0.816758 0.590207 0.972584
Si Si2 0.174414 0.844313 0.810798
Si Si3 0.952883 0.689246 0.768181
Si Si4 0.904669 0.430337 0.301904
O O1 0.798150 0.445750 0.876902
O O2 0.868259 0.660788 0.796944
O O3 0.744955 0.667650 0.032802
O O4 0.865687 0.550681 0.184342
O O5 0.133430 0.708857 0.764658
O O6 0.113111 0.928247 0.938293
O O7 0.967524 0.742647 0.513920
O O8 0.013090 0.575186 0.769416
#
# Coordination Sequence:
#
# PCOD9461198 Si02
#       4
#     8   8   8   8
#     4  12  28  44  77 111 145 199 257 308 378 456
#     4  12  25  45  74 105 148 194 250 314 377 441
#     4  12  29  50  76 112 155 201 251 314 374 452
#     4  12  25  49  73 104 152 198 246 315 382 443
#
# _framework density 28.249918999999998
#
# number of rings (size 3 to 8) (size 9 to 14) (size 15 to 20)
#    0.000    0.000    7.500    0.750    7.000    1.000 
#    0.000    0.000    0.000    0.000    0.000    0.000 
#    0.000    0.000    0.000    0.000    0.000    0.000 
#
# Total GULP energy -178962.969261 kJ/mol
# GULP energy per Si atom -5592.592789 kJ/mol
# Density = 2.818562 g / cm^3
# Si number density = 28.249919 Si / 1000 Ang^3
#
#
#
# Elastic Constant Matrix: (Units=GPa)
#
#
# Indices 1 2 3 4 5 6 
#
# 1 190.1646 41.5360 26.2325 0.0000 0.0000 0.0000
# 2 41.5360 101.3815 38.0897 0.0000 0.0000 0.0000
# 3 26.2325 38.0897 109.0240 0.0000 0.0000 0.0000
# 4 0.0000 0.0000 0.0000 58.8409 0.0000 0.0000
# 5 0.0000 0.0000 0.0000 0.0000 45.1910 0.0000
# 6 0.0000 0.0000 0.0000 0.0000 0.0000 57.6198
#
#
#
# Elastic Compliance Matrix: (Units=1/GPa)
#
#
# Indices 1 2 3 4 5 6 
#
# 1 0.005815 -0.002137 -0.000653 0.000000 0.000000 0.000000
# 2 -0.002137 0.012140 -0.003727 0.000000 0.000000 0.000000
# 3 -0.000653 -0.003727 0.010631 0.000000 0.000000 0.000000
# 4 0.000000 0.000000 0.000000 0.016995 0.000000 0.000000
# 5 0.000000 0.000000 0.000000 0.000000 0.022128 0.000000
# 6 0.000000 0.000000 0.000000 0.000000 0.000000 0.017355
#
#
# Mechanical properties :
#
#
# Convention : Reuss Voigt Hill
#
# Bulk Modulus (GPa) = 64.29741 68.03182 66.16462
# Shear Modulus (GPa) = 48.41067 51.97779 50.19423
#
# Velocity S-wave (km/s) = 4.14412 4.29409 4.21977
# Velocity P-wave (km/s) = 6.76077 6.97997 6.87124
#
# Compressibility (1/GPa) = 0.01555273
#
# Stress axis : x y z
#
# Youngs Moduli (GPa) = 171.95487 82.37450 94.06124
#
# Poissons Ratio (x) = 0.17607 0.06138
# Poissons Ratio (y) = 0.36754 0.35056
# Poissons Ratio (z) = 0.11220 0.30700
#
# Static dielectric constant tensor:
#      x y z
#    x 2.097890 0.000000 0.000000 
#    y 0.000000 2.223220 0.000000 
#    z 0.000000 0.000000 2.496880 
# 
# From -- ./inp_files/891.got.cif
#   From: 2010.05.17/outbox.cif.g08.bks.cpg/sg61_1_cif.got.tgz:891.got - 2010.06.03 15:17:17.
