data_PCOD9461717
_publ_section_title
;
Structure prediction by ZEFSAII (Michael W. Deem and Ramdas Pophale) SiO2 
 PCOD9461717
Probable space group: P N M A
;
_chemical_formula_sum "Si O2"
_cell_formula_units_Z 64
_cell_length_a 28.660616
_cell_length_b 7.603042
_cell_length_c 15.030543
_cell_angle_alpha 90.000000
_cell_angle_beta 90.000000
_cell_angle_gamma 90.000000
_cell_volume 3275.273568
_symmetry_space_group_name_H-M "P N M A"
_symmetry_group_IT_number 62
_symmetry_cell_setting 'orthorhombic'
loop_
_space_group_symop_operation_xyz
x,y,z
1/2-x,-y,1/2+z
1/2+x,1/2-y,1/2-z
-x,1/2+y,-z
-x,-y,-z
1/2+x,y,1/2-z
1/2-x,1/2+y,1/2+z
x,1/2-y,z
loop_
_atom_site_type_symbol
_atom_site_label
_atom_site_fract_x
_atom_site_fract_y
_atom_site_fract_z
Si Si1 0.284485 0.963815 0.587664
Si Si2 0.630915 0.456339 0.291309
Si Si3 0.869116 0.452822 0.238198
Si Si4 0.560399 0.547180 0.595819
Si Si5 0.177227 0.538197 0.387923
Si Si6 0.178345 0.534259 0.589857
Si Si7 0.716751 0.462947 0.617730
Si Si8 0.543439 0.954388 0.401285
O O1 0.283938 0.750000 0.591501
O O2 0.324777 0.028592 0.653053
O O3 0.231773 0.021072 0.610070
O O4 0.294028 0.010845 0.484845
O O5 0.628102 0.250000 0.310332
O O6 0.641794 0.481390 0.187862
O O7 0.582888 0.533546 0.327288
O O8 0.883214 0.250000 0.254158
O O9 0.907520 0.534617 0.172372
O O10 0.856897 0.529825 0.334576
O O11 0.820705 0.458256 0.183986
O O12 0.576251 0.750000 0.587847
O O13 0.505881 0.541629 0.620786
O O14 0.562818 0.472067 0.495596
O O15 0.178118 0.750000 0.389374
O O16 0.167303 0.480189 0.488858
O O17 0.230024 0.480685 0.363879
O O18 0.178350 0.750000 0.591740
O O19 0.714516 0.250000 0.624225
O O20 0.532038 0.750000 0.417194
#
# Coordination Sequence:
#
# PCOD9461717 Si02
#       8
#     8   8   8   8   8   8   8   8
#     4   8  15  27  43  66  96 128 158 185 223 278
#     4  11  20  30  49  73  96 124 160 201 239 278
#     4  10  18  29  49  73  95 121 156 197 237 278
#     4   9  19  34  51  74 100 123 152 193 238 283
#     4   9  18  32  47  65  94 130 164 194 226 271
#     4   8  15  29  47  66  92 127 160 189 227 275
#     4   9  17  29  45  67  97 130 160 190 225 272
#     4  10  20  34  51  71  98 128 154 186 235 293
#
# _framework density 19.540351000000001
#
# number of rings (size 3 to 8) (size 9 to 14) (size 15 to 20)
#    0.000    2.750    0.000    3.750    0.000    2.500 
#    0.000    1.250    0.000    3.000    0.000    0.000 
#    0.000    0.000    0.000    0.000    0.000    0.000 
#
# Total GULP energy -357087.855335 kJ/mol
# GULP energy per Si atom -5579.497740 kJ/mol
# Density = 1.949588 g / cm^3
# Si number density = 19.540351 Si / 1000 Ang^3
#
#
#
# Elastic Constant Matrix: (Units=GPa)
#
#
# Indices 1 2 3 4 5 6 
#
# 1 78.3742 -5.8198 72.0760 0.0000 0.0000 0.0000
# 2 -5.8198 43.3278 -6.9759 0.0000 0.0000 0.0000
# 3 72.0760 -6.9759 102.2330 0.0000 0.0000 0.0000
# 4 0.0000 0.0000 0.0000 7.4942 0.0000 0.0000
# 5 0.0000 0.0000 0.0000 0.0000 37.3483 0.0000
# 6 0.0000 0.0000 0.0000 0.0000 0.0000 9.9995
#
#
#
# Elastic Compliance Matrix: (Units=1/GPa)
#
#
# Indices 1 2 3 4 5 6 
#
# 1 0.036310 0.000764 -0.025547 0.000000 0.000000 0.000000
# 2 0.000764 0.023352 0.001055 0.000000 0.000000 0.000000
# 3 -0.025547 0.001055 0.027865 0.000000 0.000000 0.000000
# 4 0.000000 0.000000 0.000000 0.133437 0.000000 0.000000
# 5 0.000000 0.000000 0.000000 0.000000 0.026775 0.000000
# 6 0.000000 0.000000 0.000000 0.000000 0.000000 0.100005
#
#
# Mechanical properties :
#
#
# Convention : Reuss Voigt Hill
#
# Bulk Modulus (GPa) = 24.95594 38.05505 31.50550
# Shear Modulus (GPa) = 12.23819 21.94538 17.09179
#
# Velocity S-wave (km/s) = 2.50532 3.35487 2.96073
# Velocity P-wave (km/s) = 4.60088 5.87574 5.27695
#
# Compressibility (1/GPa) = 0.04007062
#
# Stress axis : x y z
#
# Youngs Moduli (GPa) = 27.54046 42.82226 35.88765
#
# Poissons Ratio (x) = -0.03272 0.91683
# Poissons Ratio (y) = -0.02104 -0.03785
# Poissons Ratio (z) = 0.70358 -0.04517
#
# Static dielectric constant tensor:
#      x y z
#    x 1.663030 0.000000 0.000000 
#    y 0.000000 1.727800 0.000000 
#    z 0.000000 0.000000 1.699440 
# 
# From -- ./inp_files/20946.got.cif
#   From: 2010.05.17/outbox.cif.g08.bks.cpg/sg62_11_cif.got.tgz:20946.got - 2010.06.03 15:25:27.
