data_PCOD9461612
_publ_section_title
;
Structure prediction by ZEFSAII (Michael W. Deem and Ramdas Pophale) SiO2 
 PCOD9461612
Probable space group: P N M A
;
_chemical_formula_sum "Si O2"
_cell_formula_units_Z 56
_cell_length_a 20.017039
_cell_length_b 7.450478
_cell_length_c 19.504839
_cell_angle_alpha 90.000000
_cell_angle_beta 90.000000
_cell_angle_gamma 90.000000
_cell_volume 2908.883591
_symmetry_space_group_name_H-M "P N M A"
_symmetry_group_IT_number 62
_symmetry_cell_setting 'orthorhombic'
loop_
_space_group_symop_operation_xyz
x,y,z
1/2-x,-y,1/2+z
1/2+x,1/2-y,1/2-z
-x,1/2+y,-z
-x,-y,-z
1/2+x,y,1/2-z
1/2-x,1/2+y,1/2+z
x,1/2-y,z
loop_
_atom_site_type_symbol
_atom_site_label
_atom_site_fract_x
_atom_site_fract_y
_atom_site_fract_z
Si Si1 0.173761 0.533719 0.252993
Si Si2 0.446741 0.035831 0.559236
Si Si3 0.791987 0.458959 0.151030
Si Si4 0.803270 0.469723 0.995734
Si Si5 0.609907 0.455926 0.772809
Si Si6 0.225268 0.030679 0.633246
Si Si7 0.527601 0.529619 0.286725
O O1 0.173526 0.750000 0.252816
O O2 0.218021 0.475316 0.317377
O O3 0.215246 0.477505 0.185350
O O4 0.097353 0.474890 0.247924
O O5 0.439996 0.250000 0.566239
O O6 0.374106 0.970453 0.535525
O O7 0.469778 0.970274 0.633814
O O8 0.500000 0.000000 0.500000
O O9 0.810652 0.250000 0.149260
O O10 0.842880 0.544861 0.205316
O O11 0.796026 0.530231 0.073959
O O12 0.803050 0.250000 0.996756
O O13 0.745359 0.524825 0.942946
O O14 0.596887 0.250000 0.792637
O O15 0.656324 0.534611 0.832923
O O16 0.538793 0.534979 0.751641
O O17 0.223641 0.250000 0.634536
O O18 0.525343 0.750000 0.287195
#
# Coordination Sequence:
#
# PCOD9461612 Si02
#       7
#     8   8   8   8   8   8   8
#     4   9  16  30  50  66  85 116 155 193 227 262
#     4  10  18  28  43  64  94 123 147 175 219 274
#     4  10  19  29  43  65  92 118 150 187 223 268
#     4   9  16  27  43  62  86 121 153 177 213 269
#     4   9  17  29  48  70  90 114 149 189 227 265
#     4   8  13  25  45  64  81 112 155 185 209 256
#     4   9  16  28  48  71  90 114 151 193 227 263
#
# _framework density 19.251372
#
# number of rings (size 3 to 8) (size 9 to 14) (size 15 to 20)
#    0.000    2.857    1.429    2.143    0.000    0.000 
#    0.000    2.143    0.000    7.714    0.000    0.000 
#    0.000    0.000    0.000    0.000    0.000    0.143 
#
# Total GULP energy -312359.502062 kJ/mol
# GULP energy per Si atom -5577.848251 kJ/mol
# Density = 1.920756 g / cm^3
# Si number density = 19.251372 Si / 1000 Ang^3
#
#
#
# Elastic Constant Matrix: (Units=GPa)
#
#
# Indices 1 2 3 4 5 6 
#
# 1 106.7465 -5.7918 6.7896 0.0000 0.0000 0.0000
# 2 -5.7918 56.0335 -6.6598 0.0000 0.0000 0.0000
# 3 6.7896 -6.6598 26.8509 0.0000 0.0000 0.0000
# 4 0.0000 0.0000 0.0000 8.9993 0.0000 0.0000
# 5 0.0000 0.0000 0.0000 0.0000 26.4086 0.0000
# 6 0.0000 0.0000 0.0000 0.0000 0.0000 -6.6706
#
#
#
# Elastic Compliance Matrix: (Units=1/GPa)
#
#
# Indices 1 2 3 4 5 6 
#
# 1 0.009549 0.000721 -0.002236 0.000000 0.000000 0.000000
# 2 0.000721 0.018443 0.004392 0.000000 0.000000 0.000000
# 3 -0.002236 0.004392 0.038897 0.000000 0.000000 0.000000
# 4 0.000000 0.000000 0.000000 0.111120 0.000000 0.000000
# 5 0.000000 0.000000 0.000000 0.000000 0.037867 0.000000
# 6 0.000000 0.000000 0.000000 0.000000 0.000000 -0.149911
#
#
# Mechanical properties :
#
#
# Convention : Reuss Voigt Hill
#
# Bulk Modulus (GPa) = 13.76560 19.81189 16.78874
# Shear Modulus (GPa) = 59.22378 18.76696 38.99537
#
# Velocity S-wave (km/s) = 5.55249 3.12563 4.50554
# Velocity P-wave (km/s) = 6.94787 4.83110 5.98383
#
# Compressibility (1/GPa) = 0.07264486
#
# Stress axis : x y z
#
# Youngs Moduli (GPa) = 104.71939 54.22101 25.70868
#
# Poissons Ratio (x) = -0.03911 0.05748
# Poissons Ratio (y) = -0.07554 -0.11291
# Poissons Ratio (z) = 0.23413 -0.23814
#
# Static dielectric constant tensor:
#      x y z
#    x 1.667070 0.000000 0.000000 
#    y 0.000000 1.726360 0.000000 
#    z 0.000000 0.000000 1.657580 
# 
# From -- ./inp_files/24607.got.cif
#   From: 2010.05.17/outbox.cif.g08.bks.cpg/sg62_13_cif.got.tgz:24607.got - 2010.06.03 15:25:27.
