data_PCOD9461013
_publ_section_title
;
Structure prediction by ZEFSAII (Michael W. Deem and Ramdas Pophale) SiO2 
 PCOD9461013
Probable space group: P B C A
;
_chemical_formula_sum "Si O2"
_cell_formula_units_Z 40
_cell_length_a 9.570999
_cell_length_b 15.038338
_cell_length_c 12.157865
_cell_angle_alpha 90.000000
_cell_angle_beta 90.000000
_cell_angle_gamma 90.000000
_cell_volume 1749.904828
_symmetry_space_group_name_H-M "P B C A"
_symmetry_group_IT_number 61
_symmetry_cell_setting 'orthorhombic'
loop_
_space_group_symop_operation_xyz
x,y,z
1/2-x,-y,1/2+z
1/2+x,1/2-y,-z
-x,1/2+y,1/2-z
-x,-y,-z
1/2+x,y,1/2-z
1/2-x,1/2+y,z
x,1/2-y,1/2+z
loop_
_atom_site_type_symbol
_atom_site_label
_atom_site_fract_x
_atom_site_fract_y
_atom_site_fract_z
Si Si1 0.274904 0.740690 0.039811
Si Si2 0.620038 0.061610 0.548254
Si Si3 0.016658 0.310975 0.866864
Si Si4 0.445994 0.659929 0.721280
Si Si5 0.089209 0.500502 0.890587
O O1 0.110704 0.717420 0.051971
O O2 0.325205 0.807909 0.136826
O O3 0.343408 0.641839 0.036053
O O4 0.339183 0.785594 0.929866
O O5 0.593449 0.109790 0.665470
O O6 0.500000 0.000000 0.500000
O O7 0.751927 0.999469 0.573122
O O8 0.989585 0.252096 0.760626
O O9 0.033525 0.412708 0.831241
O O10 0.554172 0.592893 0.666850
O O11 0.000000 0.500000 0.000000
#
# Coordination Sequence:
#
# PCOD9461013 Si02
#       5
#     8   8   8   8   8
#     4  11  23  46  68 103 141 185 236 295 363 421
#     4  11  27  45  71 106 143 187 247 300 357 432
#     4  11  26  44  76 102 145 187 237 304 359 429
#     4  11  26  45  73 108 144 188 247 296 365 433
#     4  12  24  48  75 104 144 194 240 297 363 435
#
# _framework density 22.858387
#
# number of rings (size 3 to 8) (size 9 to 14) (size 15 to 20)
#    0.000    0.800    4.000    1.200    8.400    4.800 
#    0.000    0.000    0.000    0.000    0.000    0.000 
#    0.000    0.000    0.000    0.000    0.000    0.000 
#
# Total GULP energy -223312.192132 kJ/mol
# GULP energy per Si atom -5582.804803 kJ/mol
# Density = 2.280636 g / cm^3
# Si number density = 22.858387 Si / 1000 Ang^3
#
#
#
# Elastic Constant Matrix: (Units=GPa)
#
#
# Indices 1 2 3 4 5 6 
#
# 1 116.4502 48.0467 23.4512 0.0000 0.0000 0.0000
# 2 48.0467 164.2198 35.4924 0.0000 0.0000 0.0000
# 3 23.4512 35.4924 71.7205 0.0000 0.0000 0.0000
# 4 0.0000 0.0000 0.0000 50.1134 0.0000 0.0000
# 5 0.0000 0.0000 0.0000 0.0000 16.6859 0.0000
# 6 0.0000 0.0000 0.0000 0.0000 0.0000 34.1225
#
#
#
# Elastic Compliance Matrix: (Units=1/GPa)
#
#
# Indices 1 2 3 4 5 6 
#
# 1 0.010027 -0.002492 -0.002046 0.000000 0.000000 0.000000
# 2 -0.002492 0.007438 -0.002866 0.000000 0.000000 0.000000
# 3 -0.002046 -0.002866 0.016030 0.000000 0.000000 0.000000
# 4 0.000000 0.000000 0.000000 0.019955 0.000000 0.000000
# 5 0.000000 0.000000 0.000000 0.000000 0.059931 0.000000
# 6 0.000000 0.000000 0.000000 0.000000 0.000000 0.029306
#
#
# Mechanical properties :
#
#
# Convention : Reuss Voigt Hill
#
# Bulk Modulus (GPa) = 53.50842 62.93014 58.21928
# Shear Modulus (GPa) = 30.53926 36.54437 33.54182
#
# Velocity S-wave (km/s) = 3.65913 4.00275 3.83479
# Velocity P-wave (km/s) = 6.42742 6.99663 6.71806
#
# Compressibility (1/GPa) = 0.01868865
#
# Stress axis : x y z
#
# Youngs Moduli (GPa) = 99.72711 134.44794 62.38208
#
# Poissons Ratio (x) = 0.33499 0.12762
# Poissons Ratio (y) = 0.24848 0.17879
# Poissons Ratio (z) = 0.20401 0.38533
#
# Static dielectric constant tensor:
#      x y z
#    x 1.862520 0.000000 0.000000 
#    y 0.000000 1.668280 0.000000 
#    z 0.000000 0.000000 1.851150 
# 
# From -- ./inp_files/4796.got.cif
#   From: 2010.05.17/outbox.cif.g08.bks.cpg/sg61_3_cif.got.tgz:4796.got - 2010.06.03 15:17:17.
