data_PCOD9461766
_publ_section_title
;
Structure prediction by ZEFSAII (Michael W. Deem and Ramdas Pophale) SiO2 
 PCOD9461766
Probable space group: P N M A
;
_chemical_formula_sum "Si O2"
_cell_formula_units_Z 64
_cell_length_a 21.297595
_cell_length_b 8.126415
_cell_length_c 20.351810
_cell_angle_alpha 90.000000
_cell_angle_beta 90.000000
_cell_angle_gamma 90.000000
_cell_volume 3522.350755
_symmetry_space_group_name_H-M "P N M A"
_symmetry_group_IT_number 62
_symmetry_cell_setting 'orthorhombic'
loop_
_space_group_symop_operation_xyz
x,y,z
1/2-x,-y,1/2+z
1/2+x,1/2-y,1/2-z
-x,1/2+y,-z
-x,-y,-z
1/2+x,y,1/2-z
1/2-x,1/2+y,1/2+z
x,1/2-y,z
loop_
_atom_site_type_symbol
_atom_site_label
_atom_site_fract_x
_atom_site_fract_y
_atom_site_fract_z
Si Si1 0.786502 0.941744 0.818444
Si Si2 0.440391 0.054474 0.541439
Si Si3 0.347611 0.048447 0.158837
Si Si4 0.453222 0.553551 0.942056
Si Si5 0.423318 0.948506 0.691060
Si Si6 0.485422 0.451572 0.194525
Si Si7 0.172419 0.946011 0.507299
Si Si8 0.802639 0.054714 0.965786
O O1 0.785020 0.750000 0.799354
O O2 0.716691 0.010636 0.806436
O O3 0.852632 0.013084 0.793453
O O4 0.792924 0.957152 0.897581
O O5 0.441920 0.250000 0.545099
O O6 0.372358 0.008487 0.510334
O O7 0.500000 0.000000 0.500000
O O8 0.440158 0.989557 0.616059
O O9 0.346224 0.250000 0.159035
O O10 0.412872 0.995825 0.190939
O O11 0.345733 0.998169 0.081815
O O12 0.453243 0.750000 0.940193
O O13 0.479936 0.494756 0.872280
O O14 0.500000 0.500000 0.000000
O O15 0.383425 0.495469 0.959256
O O16 0.420322 0.750000 0.695779
O O17 0.475153 0.007241 0.742534
O O18 0.484994 0.250000 0.194877
O O19 0.176893 0.750000 0.508940
O O20 0.241322 0.016260 0.491594
O O21 0.802613 0.250000 0.951170
#
# Coordination Sequence:
#
# PCOD9461766 Si02
#       8
#     8   8   8   8   8   8   8   8
#     4   8  14  25  45  69  91 118 160 205 244 293
#     4  10  20  34  55  80 105 130 163 207 256 306
#     4   8  13  24  43  67  91 119 160 206 243 282
#     4  11  20  31  47  70 101 137 176 218 255 295
#     4   9  17  31  51  73  97 130 168 205 252 304
#     4   9  17  29  47  69  98 133 169 209 251 299
#     4  10  18  30  48  70  98 132 169 208 251 298
#     4   9  17  29  47  74 100 124 158 203 250 293
#
# _framework density 18.169684
#
# number of rings (size 3 to 8) (size 9 to 14) (size 15 to 20)
#    0.000    2.750    1.250    2.250    0.000    1.500 
#    0.000    1.250    2.750    0.000    0.000    0.000 
#    0.000    0.000    0.000    0.000    0.000    0.000 
#
# Total GULP energy -356399.860433 kJ/mol
# GULP energy per Si atom -5568.747819 kJ/mol
# Density = 1.812833 g / cm^3
# Si number density = 18.169684 Si / 1000 Ang^3
#
#
#
# Elastic Constant Matrix: (Units=GPa)
#
#
# Indices 1 2 3 4 5 6 
#
# 1 226.0661 16.8274 73.9584 0.0000 0.0000 0.0000
# 2 16.8274 22.0331 6.5556 0.0000 0.0000 0.0000
# 3 73.9584 6.5556 58.2009 0.0000 0.0000 0.0000
# 4 0.0000 0.0000 0.0000 13.2411 0.0000 0.0000
# 5 0.0000 0.0000 0.0000 0.0000 26.7318 0.0000
# 6 0.0000 0.0000 0.0000 0.0000 0.0000 20.8970
#
#
#
# Elastic Compliance Matrix: (Units=1/GPa)
#
#
# Indices 1 2 3 4 5 6 
#
# 1 0.007770 -0.003101 -0.009525 0.000000 0.000000 0.000000
# 2 -0.003101 0.048197 -0.001489 0.000000 0.000000 0.000000
# 3 -0.009525 -0.001489 0.029453 0.000000 0.000000 0.000000
# 4 0.000000 0.000000 0.000000 0.075522 0.000000 0.000000
# 5 0.000000 0.000000 0.000000 0.000000 0.037409 0.000000
# 6 0.000000 0.000000 0.000000 0.000000 0.000000 0.047854
#
#
# Mechanical properties :
#
#
# Convention : Reuss Voigt Hill
#
# Bulk Modulus (GPa) = 17.48486 55.66476 36.57481
# Shear Modulus (GPa) = 17.03586 26.10455 21.57021
#
# Velocity S-wave (km/s) = 3.06534 3.79451 3.44925
# Velocity P-wave (km/s) = 4.70876 7.06401 6.00303
#
# Compressibility (1/GPa) = 0.05719234
#
# Stress axis : x y z
#
# Youngs Moduli (GPa) = 128.69347 20.74808 33.95201
#
# Poissons Ratio (x) = 0.06433 0.32339
# Poissons Ratio (y) = 0.39902 0.05055
# Poissons Ratio (z) = 1.22580 0.03089
#
# Static dielectric constant tensor:
#      x y z
#    x 1.658980 0.000000 0.000000 
#    y 0.000000 1.646370 0.000000 
#    z 0.000000 0.000000 1.412150 
# 
# From -- ./inp_files/27922.got.cif
#   From: 2010.05.17/outbox.cif.g08.bks.cpg/sg62_14_cif.got.tgz:27922.got - 2010.06.03 15:25:27.
