data_PCOD9461678
_publ_section_title
;
Structure prediction by ZEFSAII (Michael W. Deem and Ramdas Pophale) SiO2 
 PCOD9461678
Probable space group: P N M A
;
_chemical_formula_sum "Si O2"
_cell_formula_units_Z 64
_cell_length_a 31.116917
_cell_length_b 7.962215
_cell_length_c 15.151286
_cell_angle_alpha 90.000000
_cell_angle_beta 90.000000
_cell_angle_gamma 90.000000
_cell_volume 3753.876306
_symmetry_space_group_name_H-M "P N M A"
_symmetry_group_IT_number 62
_symmetry_cell_setting 'orthorhombic'
loop_
_space_group_symop_operation_xyz
x,y,z
1/2-x,-y,1/2+z
1/2+x,1/2-y,1/2-z
-x,1/2+y,-z
-x,-y,-z
1/2+x,y,1/2-z
1/2-x,1/2+y,1/2+z
x,1/2-y,z
loop_
_atom_site_type_symbol
_atom_site_label
_atom_site_fract_x
_atom_site_fract_y
_atom_site_fract_z
Si Si1 0.952640 0.046834 0.102692
Si Si2 0.223863 0.950013 0.485274
Si Si3 0.795765 0.452550 0.321134
Si Si4 0.173829 0.050680 0.979948
Si Si5 0.137158 0.448187 0.166091
Si Si6 0.950258 0.450280 0.900046
Si Si7 0.130107 0.944843 0.803811
Si Si8 0.211784 0.947227 0.290765
O O1 0.949995 0.250000 0.100692
O O2 0.916527 0.982530 0.170502
O O3 0.943860 0.987237 0.001705
O O4 0.001209 0.997559 0.124970
O O5 0.213754 0.750000 0.485819
O O6 0.206998 0.018371 0.578624
O O7 0.275249 0.966924 0.486719
O O8 0.209574 0.019479 0.390186
O O9 0.799223 0.250000 0.324786
O O10 0.837361 0.519361 0.268344
O O11 0.751687 0.485078 0.267148
O O12 0.164187 0.250000 0.969250
O O13 0.155735 0.955541 0.895915
O O14 0.153274 0.988337 0.070701
O O15 0.145810 0.250000 0.169124
O O16 0.086358 0.479429 0.163985
O O17 0.166966 0.527621 0.240466
O O18 0.946341 0.250000 0.901178
O O19 0.123234 0.750000 0.779653
O O20 0.220826 0.750000 0.299524
#
# Coordination Sequence:
#
# PCOD9461678 Si02
#       8
#     8   8   8   8   8   8   8   8
#     4   9  18  31  45  69 101 128 158 195 238 287
#     4   9  18  33  47  65  95 129 162 198 236 281
#     4  10  19  33  50  69  95 128 164 198 239 283
#     4  10  18  29  46  66  95 131 162 192 235 282
#     4  11  21  33  49  69  96 131 164 198 241 287
#     4  10  19  31  48  70  97 127 161 198 238 288
#     4  10  19  30  48  72  97 127 163 202 234 276
#     4  11  21  32  48  69  95 127 164 201 235 278
#
# _framework density 17.049042
#
# number of rings (size 3 to 8) (size 9 to 14) (size 15 to 20)
#    0.000    2.000    3.750    1.125    0.000    1.500 
#    0.000    1.250    0.000    0.000    0.000    0.875 
#    0.000    0.000    0.000    0.000    0.000    0.000 
#
# Total GULP energy -356848.162739 kJ/mol
# GULP energy per Si atom -5575.752543 kJ/mol
# Density = 1.701024 g / cm^3
# Si number density = 17.049042 Si / 1000 Ang^3
#
#
#
# Elastic Constant Matrix: (Units=GPa)
#
#
# Indices 1 2 3 4 5 6 
#
# 1 87.4663 -2.3821 54.1256 0.0000 0.0000 0.0000
# 2 -2.3821 14.9172 -1.6628 0.0000 0.0000 0.0000
# 3 54.1256 -1.6628 110.5263 0.0000 0.0000 0.0000
# 4 0.0000 0.0000 0.0000 12.3596 0.0000 0.0000
# 5 0.0000 0.0000 0.0000 0.0000 20.7294 0.0000
# 6 0.0000 0.0000 0.0000 0.0000 0.0000 39.3155
#
#
#
# Elastic Compliance Matrix: (Units=1/GPa)
#
#
# Indices 1 2 3 4 5 6 
#
# 1 0.016449 0.001732 -0.008029 0.000000 0.000000 0.000000
# 2 0.001732 0.067331 0.000165 0.000000 0.000000 0.000000
# 3 -0.008029 0.000165 0.012982 0.000000 0.000000 0.000000
# 4 0.000000 0.000000 0.000000 0.080909 0.000000 0.000000
# 5 0.000000 0.000000 0.000000 0.000000 0.048241 0.000000
# 6 0.000000 0.000000 0.000000 0.000000 0.000000 0.025435
#
#
# Mechanical properties :
#
#
# Convention : Reuss Voigt Hill
#
# Bulk Modulus (GPa) = 11.83469 34.78568 23.31019
# Shear Modulus (GPa) = 17.13638 25.33618 21.23628
#
# Velocity S-wave (km/s) = 3.17381 3.85915 3.53313
# Velocity P-wave (km/s) = 4.51524 6.34862 5.50874
#
# Compressibility (1/GPa) = 0.08449734
#
# Stress axis : x y z
#
# Youngs Moduli (GPa) = 60.79551 14.85190 77.03007
#
# Poissons Ratio (x) = -0.02572 0.61847
# Poissons Ratio (y) = -0.10528 -0.01271
# Poissons Ratio (z) = 0.48812 -0.00245
#
# Static dielectric constant tensor:
#      x y z
#    x 1.582100 0.000000 0.000000 
#    y 0.000000 1.617860 0.000000 
#    z 0.000000 0.000000 1.593640 
# 
# From -- ./inp_files/21221.got.cif
#   From: 2010.05.17/outbox.cif.g08.bks.cpg/sg62_11_cif.got.tgz:21221.got - 2010.06.03 15:25:27.
