data_PCOD9461706
_publ_section_title
;
Structure prediction by ZEFSAII (Michael W. Deem and Ramdas Pophale) SiO2 
 PCOD9461706
Probable space group: P N M A
;
_chemical_formula_sum "Si O2"
_cell_formula_units_Z 48
_cell_length_a 9.008320
_cell_length_b 15.762604
_cell_length_c 18.093443
_cell_angle_alpha 90.000000
_cell_angle_beta 90.000000
_cell_angle_gamma 90.000000
_cell_volume 2569.170855
_symmetry_space_group_name_H-M "P N M A"
_symmetry_group_IT_number 62
_symmetry_cell_setting 'orthorhombic'
loop_
_space_group_symop_operation_xyz
x,y,z
1/2-x,-y,1/2+z
1/2+x,1/2-y,1/2-z
-x,1/2+y,-z
-x,-y,-z
1/2+x,y,1/2-z
1/2-x,1/2+y,1/2+z
x,1/2-y,z
loop_
_atom_site_type_symbol
_atom_site_label
_atom_site_fract_x
_atom_site_fract_y
_atom_site_fract_z
Si Si1 0.636323 0.907344 0.208550
Si Si2 0.836259 0.520546 0.079208
Si Si3 0.312034 0.155535 0.349999
Si Si4 0.172608 0.344720 0.653485
Si Si5 0.188746 0.497778 0.084008
Si Si6 0.890504 0.590079 0.775973
O O1 0.722875 0.862670 0.275359
O O2 0.496555 0.855646 0.179538
O O3 0.751326 0.928477 0.142741
O O4 0.576494 0.998044 0.239475
O O5 0.797821 0.421129 0.092125
O O6 0.014740 0.526399 0.087097
O O7 0.790882 0.543431 0.996065
O O8 0.310492 0.250000 0.381065
O O9 0.189138 0.143737 0.286725
O O10 0.466243 0.135799 0.308130
O O11 0.199250 0.250000 0.625407
O O12 0.211814 0.419729 0.596877
O O13 0.210354 0.434208 0.152892
#
# Coordination Sequence:
#
# PCOD9461706 Si02
#       6
#     8   8   8   8   8   8
#     4  10  19  34  53  74  99 134 174 208 250 307
#     4   9  19  34  54  74  99 135 171 204 246 305
#     4  10  18  29  48  73  98 122 156 203 247 287
#     4  11  21  33  53  78 104 131 167 218 264 301
#     4   9  18  35  54  74  99 132 172 206 247 304
#     4   9  17  31  50  70  93 127 164 197 238 294
#
# _framework density 18.683071000000002
#
# number of rings (size 3 to 8) (size 9 to 14) (size 15 to 20)
#    0.000    2.333    0.000    6.000    0.000    1.333 
#    0.000    0.833    0.000   14.000    0.000    0.000 
#    0.000    0.000    0.000    0.000    0.000    0.000 
#
# Total GULP energy -267764.614427 kJ/mol
# GULP energy per Si atom -5578.429467 kJ/mol
# Density = 1.864055 g / cm^3
# Si number density = 18.683071 Si / 1000 Ang^3
#
#
#
# Elastic Constant Matrix: (Units=GPa)
#
#
# Indices 1 2 3 4 5 6 
#
# 1 27.2600 -4.4485 -8.1890 0.0000 0.0000 0.0000
# 2 -4.4485 34.9902 -21.7054 0.0000 0.0000 0.0000
# 3 -8.1890 -21.7054 45.8456 0.0000 0.0000 0.0000
# 4 0.0000 0.0000 0.0000 5.1363 0.0000 0.0000
# 5 0.0000 0.0000 0.0000 0.0000 17.4483 0.0000
# 6 0.0000 0.0000 0.0000 0.0000 0.0000 -76.5355
#
#
#
# Elastic Compliance Matrix: (Units=1/GPa)
#
#
# Indices 1 2 3 4 5 6 
#
# 1 0.043492 0.014652 0.014705 0.000000 0.000000 0.000000
# 2 0.014652 0.045399 0.024111 0.000000 0.000000 0.000000
# 3 0.014705 0.024111 0.035854 0.000000 0.000000 0.000000
# 4 0.000000 0.000000 0.000000 0.194694 0.000000 0.000000
# 5 0.000000 0.000000 0.000000 0.000000 0.057312 0.000000
# 6 0.000000 0.000000 0.000000 0.000000 0.000000 -0.013066
#
#
# Mechanical properties :
#
#
# Convention : Reuss Voigt Hill
#
# Bulk Modulus (GPa) = 4.31627 4.37889 4.34758
# Shear Modulus (GPa) = 14.97109 -1.29427 6.83841
#
# Velocity S-wave (km/s) = 2.83383 -0.83322 1.91525
# Velocity P-wave (km/s) = 3.60870 1.19298 2.68756
#
# Compressibility (1/GPa) = 0.23168142
#
# Stress axis : x y z
#
# Youngs Moduli (GPa) = 22.99257 22.02699 27.89064
#
# Poissons Ratio (x) = -0.32273 -0.41014
# Poissons Ratio (y) = -0.33688 -0.67247
# Poissons Ratio (z) = -0.33812 -0.53109
#
# Static dielectric constant tensor:
#      x y z
#    x 1.649410 0.000000 0.000000 
#    y 0.000000 1.659470 0.000000 
#    z 0.000000 0.000000 1.641510 
# 
# From -- ./inp_files/25856.got.cif
#   From: 2010.05.17/outbox.cif.g08.bks.cpg/sg62_13_cif.got.tgz:25856.got - 2010.06.03 15:25:27.
