data_PCOD9461530
_publ_section_title
;
Structure prediction by ZEFSAII (Michael W. Deem and Ramdas Pophale) SiO2 
 PCOD9461530
Probable space group: P N M A
;
_chemical_formula_sum "Si O2"
_cell_formula_units_Z 48
_cell_length_a 9.517391
_cell_length_b 16.157673
_cell_length_c 17.443796
_cell_angle_alpha 90.000000
_cell_angle_beta 90.000000
_cell_angle_gamma 90.000000
_cell_volume 2682.487614
_symmetry_space_group_name_H-M "P N M A"
_symmetry_group_IT_number 62
_symmetry_cell_setting 'orthorhombic'
loop_
_space_group_symop_operation_xyz
x,y,z
1/2-x,-y,1/2+z
1/2+x,1/2-y,1/2-z
-x,1/2+y,-z
-x,-y,-z
1/2+x,y,1/2-z
1/2-x,1/2+y,1/2+z
x,1/2-y,z
loop_
_atom_site_type_symbol
_atom_site_label
_atom_site_fract_x
_atom_site_fract_y
_atom_site_fract_z
Si Si1 0.484507 0.996515 0.316596
Si Si2 0.099525 0.078283 0.517967
Si Si3 0.914543 0.421680 0.035803
Si Si4 0.343531 0.343178 0.044583
Si Si5 0.602972 0.343214 0.578946
Si Si6 0.687219 0.995194 0.837363
O O1 0.423389 0.913293 0.357286
O O2 0.449779 0.071766 0.375019
O O3 0.652456 0.989846 0.312851
O O4 0.412860 0.010787 0.235429
O O5 0.249020 0.071784 0.476542
O O6 0.002671 0.151228 0.486762
O O7 0.135738 0.069717 0.607466
O O8 0.000000 0.000000 0.500000
O O9 0.000000 0.500000 0.000000
O O10 0.977817 0.349107 0.984098
O O11 0.312231 0.250000 0.071386
O O12 0.318533 0.412356 0.109696
O O13 0.241497 0.360838 0.972165
O O14 0.611575 0.250000 0.609924
#
# Coordination Sequence:
#
# PCOD9461530 Si02
#       6
#     8   8   8   8   8   8
#     4  11  22  36  59  88 114 156 195 234 290 357
#     4  10  19  34  59  84 112 153 197 241 279 341
#     4  10  17  36  59  81 109 152 204 234 276 341
#     4  10  22  40  61  87 118 152 196 250 297 337
#     4  10  20  39  62  83 113 153 198 248 291 335
#     4  11  22  37  59  86 121 154 193 238 288 354
#
# _framework density 17.893840000000001
#
# number of rings (size 3 to 8) (size 9 to 14) (size 15 to 20)
#    0.000    1.667    5.000    3.000    7.000    0.667 
#    0.000    3.333    0.000    0.000    0.000    0.000 
#    0.000    0.000    0.000    0.000    0.000    0.000 
#
# Total GULP energy -267459.397298 kJ/mol
# GULP energy per Si atom -5572.070777 kJ/mol
# Density = 1.785311 g / cm^3
# Si number density = 17.893840 Si / 1000 Ang^3
#
#
#
# Elastic Constant Matrix: (Units=GPa)
#
#
# Indices 1 2 3 4 5 6 
#
# 1 150.8348 11.1536 37.6328 0.0000 0.0000 0.0000
# 2 11.1536 79.0467 13.6895 0.0000 0.0000 0.0000
# 3 37.6328 13.6895 86.1777 0.0000 0.0000 0.0000
# 4 0.0000 0.0000 0.0000 16.8309 0.0000 0.0000
# 5 0.0000 0.0000 0.0000 0.0000 38.0746 0.0000
# 6 0.0000 0.0000 0.0000 0.0000 0.0000 12.9483
#
#
#
# Elastic Compliance Matrix: (Units=1/GPa)
#
#
# Indices 1 2 3 4 5 6 
#
# 1 0.007460 -0.000502 -0.003178 0.000000 0.000000 0.000000
# 2 -0.000502 0.013042 -0.001852 0.000000 0.000000 0.000000
# 3 -0.003178 -0.001852 0.013286 0.000000 0.000000 0.000000
# 4 0.000000 0.000000 0.000000 0.059415 0.000000 0.000000
# 5 0.000000 0.000000 0.000000 0.000000 0.026264 0.000000
# 6 0.000000 0.000000 0.000000 0.000000 0.000000 0.077230
#
#
# Mechanical properties :
#
#
# Convention : Reuss Voigt Hill
#
# Bulk Modulus (GPa) = 44.00825 49.00123 46.50474
# Shear Modulus (GPa) = 23.21947 30.47632 26.84790
#
# Velocity S-wave (km/s) = 3.60616 4.13143 3.87770
# Velocity P-wave (km/s) = 6.47971 7.08535 6.78929
#
# Compressibility (1/GPa) = 0.02272301
#
# Stress axis : x y z
#
# Youngs Moduli (GPa) = 134.05254 76.67282 75.26773
#
# Poissons Ratio (x) = 0.03851 0.23919
# Poissons Ratio (y) = 0.06733 0.13943
# Poissons Ratio (z) = 0.42599 0.14204
#
# Static dielectric constant tensor:
#      x y z
#    x 1.633690 0.000000 0.000000 
#    y 0.000000 1.660640 0.000000 
#    z 0.000000 0.000000 1.612380 
# 
# From -- ./inp_files/22328.got.cif
#   From: 2010.05.17/outbox.cif.g08.bks.cpg/sg62_12_cif.got.tgz:22328.got - 2010.06.03 15:25:27.
