data_PCOD9461447
_publ_section_title
;
Structure prediction by ZEFSAII (Michael W. Deem and Ramdas Pophale) SiO2 
 PCOD9461447
Probable space group: P N M A
;
_chemical_formula_sum "Si O2"
_cell_formula_units_Z 40
_cell_length_a 18.983863
_cell_length_b 10.305622
_cell_length_c 8.490098
_cell_angle_alpha 90.000000
_cell_angle_beta 90.000000
_cell_angle_gamma 90.000000
_cell_volume 1661.007155
_symmetry_space_group_name_H-M "P N M A"
_symmetry_group_IT_number 62
_symmetry_cell_setting 'orthorhombic'
loop_
_space_group_symop_operation_xyz
x,y,z
1/2-x,-y,1/2+z
1/2+x,1/2-y,1/2-z
-x,1/2+y,-z
-x,-y,-z
1/2+x,y,1/2-z
1/2-x,1/2+y,1/2+z
x,1/2-y,z
loop_
_atom_site_type_symbol
_atom_site_label
_atom_site_fract_x
_atom_site_fract_y
_atom_site_fract_z
Si Si1 0.655130 0.250000 0.366706
Si Si2 0.064660 0.462121 0.712917
Si Si3 0.372422 0.750000 0.004741
Si Si4 0.433903 0.250000 0.241579
Si Si5 0.010385 0.250000 0.931752
Si Si6 0.771296 0.250000 0.783385
Si Si7 0.289147 0.538829 0.413696
Si Si8 0.699918 0.750000 0.590151
O O1 0.584541 0.250000 0.472044
O O2 0.695943 0.120932 0.427850
O O3 0.639881 0.250000 0.181930
O O4 0.084892 0.376675 0.562400
O O5 0.011280 0.377444 0.820475
O O6 0.043741 0.610205 0.676618
O O7 0.136429 0.467567 0.819457
O O8 0.304029 0.750000 0.122245
O O9 0.457353 0.250000 0.424022
O O10 0.349195 0.250000 0.257833
O O11 0.767695 0.123944 0.677719
O O12 0.831887 0.250000 0.911766
O O13 0.265007 0.391315 0.418311
#
# Coordination Sequence:
#
# PCOD9461447 Si02
#       8
#     4   8   4   4   4   4   8   4
#     4   9  17  32  52  72  98 133 168 199 244 304
#     4   8  16  30  49  71  96 126 165 207 246 291
#     4   9  17  32  50  68  92 131 171 203 245 301
#     4  10  17  29  50  76 102 131 166 209 253 294
#     4   9  16  29  50  74  99 133 168 202 248 307
#     4   9  18  33  50  68  95 126 158 198 245 292
#     4   8  17  33  50  71  98 124 157 201 243 290
#     4  10  19  31  52  78  98 124 165 207 241 286
#
# _framework density 24.081776000000001
#
# number of rings (size 3 to 8) (size 9 to 14) (size 15 to 20)
#    0.000    3.200    0.000    3.000    0.000    1.600 
#    0.000    3.000    0.000    2.400    0.000    0.000 
#    0.000    0.000    0.000    0.000    0.000    0.000 
#
# Total GULP energy -222994.005286 kJ/mol
# GULP energy per Si atom -5574.850132 kJ/mol
# Density = 2.402696 g / cm^3
# Si number density = 24.081776 Si / 1000 Ang^3
#
#
#
# Elastic Constant Matrix: (Units=GPa)
#
#
# Indices 1 2 3 4 5 6 
#
# 1 25.6446 18.4367 10.7712 0.0000 0.0000 0.0000
# 2 18.4367 260.0457 63.3437 0.0000 0.0000 0.0000
# 3 10.7712 63.3437 121.4405 0.0000 0.0000 0.0000
# 4 0.0000 0.0000 0.0000 -13.6847 0.0000 0.0000
# 5 0.0000 0.0000 0.0000 0.0000 36.4004 0.0000
# 6 0.0000 0.0000 0.0000 0.0000 0.0000 6.0992
#
#
#
# Elastic Compliance Matrix: (Units=1/GPa)
#
#
# Indices 1 2 3 4 5 6 
#
# 1 0.041727 -0.002356 -0.002472 0.000000 0.000000 0.000000
# 2 -0.002356 0.004538 -0.002158 0.000000 0.000000 0.000000
# 3 -0.002472 -0.002158 0.009579 0.000000 0.000000 0.000000
# 4 0.000000 0.000000 0.000000 -0.073074 0.000000 0.000000
# 5 0.000000 0.000000 0.000000 0.000000 0.027472 0.000000
# 6 0.000000 0.000000 0.000000 0.000000 0.000000 0.163955
#
#
# Mechanical properties :
#
#
# Convention : Reuss Voigt Hill
#
# Bulk Modulus (GPa) = 23.88247 65.80379 44.84313
# Shear Modulus (GPa) = 24.73690 26.73493 25.73592
#
# Velocity S-wave (km/s) = 3.20848 3.33554 3.27263
# Velocity P-wave (km/s) = 4.86462 6.49761 5.73949
#
# Compressibility (1/GPa) = 0.04187172
#
# Stress axis : x y z
#
# Youngs Moduli (GPa) = 23.96545 220.35032 104.39023
#
# Poissons Ratio (x) = 0.51919 0.25805
# Poissons Ratio (y) = 0.05647 0.22529
# Poissons Ratio (z) = 0.05924 0.47555
#
# Static dielectric constant tensor:
#      x y z
#    x 2.027430 0.000000 0.000000 
#    y 0.000000 1.918710 0.000000 
#    z 0.000000 0.000000 1.926680 
# 
# From -- ./inp_files/9751.got.cif
#   From: 2010.05.17/outbox.cif.g08.bks.cpg/sg62_5_cif.got.tgz:9751.got - 2010.06.03 15:25:27.
