data_PCOD9461168
_publ_section_title
;
Structure prediction by ZEFSAII (Michael W. Deem and Ramdas Pophale) SiO2 
 PCOD9461168
Probable space group: P B C A
;
_chemical_formula_sum "Si O2"
_cell_formula_units_Z 44
_cell_length_a 10.026787
_cell_length_b 10.178749
_cell_length_c 18.250933
_cell_angle_alpha 90.000000
_cell_angle_beta 90.000000
_cell_angle_gamma 90.000000
_cell_volume 1862.692926
_symmetry_space_group_name_H-M "P B C A"
_symmetry_group_IT_number 61
_symmetry_cell_setting 'orthorhombic'
loop_
_space_group_symop_operation_xyz
x,y,z
1/2-x,-y,1/2+z
1/2+x,1/2-y,-z
-x,1/2+y,1/2-z
-x,-y,-z
1/2+x,y,1/2-z
1/2-x,1/2+y,z
x,1/2-y,1/2+z
loop_
_atom_site_type_symbol
_atom_site_label
_atom_site_fract_x
_atom_site_fract_y
_atom_site_fract_z
Si Si1 0.361137 0.017349 0.906369
Si Si2 0.107542 0.346773 0.122386
Si Si3 0.741670 0.493529 0.251870
Si Si4 0.992951 0.908183 0.834078
Si Si5 0.720620 0.780456 0.514543
Si Si6 0.500000 0.500000 0.000000
O O1 0.521878 0.030267 0.908088
O O2 0.313017 0.042705 0.823771
O O3 0.297893 0.131545 0.957822
O O4 0.304652 0.875818 0.930858
O O5 0.195457 0.382327 0.191892
O O6 0.995142 0.242906 0.144192
O O7 0.194321 0.280497 0.059635
O O8 0.605242 0.558878 0.224603
O O9 0.848297 0.576084 0.297730
O O10 0.001070 0.992625 0.908366
O O11 0.586346 0.861628 0.498583
#
# Coordination Sequence:
#
# PCOD9461168 Si02
#       6
#     8   8   8   8   8   4
#     4  12  26  48  72 111 149 203 247 322 380 470
#     4  12  27  45  74 109 146 202 257 316 386 467
#     4  12  27  45  75 108 154 197 260 317 395 454
#     4  12  27  50  72 112 155 203 258 325 394 463
#     4  12  27  48  75 108 155 197 259 312 390 463
#     4  12  22  48  74 104 144 206 242 320 380 462
#
# _framework density 23.621714999999998
#
# number of rings (size 3 to 8) (size 9 to 14) (size 15 to 20)
#    0.000    0.000    7.273    1.636    5.091    0.000 
#    0.000    0.000    0.000    0.000    0.000    0.000 
#    0.000    0.000    0.000    0.000    0.000    0.000 
#
# Total GULP energy -245233.259012 kJ/mol
# GULP energy per Si atom -5573.483159 kJ/mol
# Density = 2.356795 g / cm^3
# Si number density = 23.621715 Si / 1000 Ang^3
#
#
#
# Elastic Constant Matrix: (Units=GPa)
#
#
# Indices 1 2 3 4 5 6 
#
# 1 51.8309 14.9168 31.2490 0.0000 0.0000 0.0000
# 2 14.9168 55.7964 16.5603 0.0000 0.0000 0.0000
# 3 31.2490 16.5603 153.9280 0.0000 0.0000 0.0000
# 4 0.0000 0.0000 0.0000 15.7857 0.0000 0.0000
# 5 0.0000 0.0000 0.0000 0.0000 46.4750 0.0000
# 6 0.0000 0.0000 0.0000 0.0000 0.0000 36.0708
#
#
#
# Elastic Compliance Matrix: (Units=1/GPa)
#
#
# Indices 1 2 3 4 5 6 
#
# 1 0.023248 -0.004973 -0.004184 0.000000 0.000000 0.000000
# 2 -0.004973 0.019577 -0.001097 0.000000 0.000000 0.000000
# 3 -0.004184 -0.001097 0.007464 0.000000 0.000000 0.000000
# 4 0.000000 0.000000 0.000000 0.063348 0.000000 0.000000
# 5 0.000000 0.000000 0.000000 0.000000 0.021517 0.000000
# 6 0.000000 0.000000 0.000000 0.000000 0.000000 0.027723
#
#
# Mechanical properties :
#
#
# Convention : Reuss Voigt Hill
#
# Bulk Modulus (GPa) = 33.57907 43.00083 38.28995
# Shear Modulus (GPa) = 25.86482 32.92160 29.39321
#
# Velocity S-wave (km/s) = 3.31261 3.73728 3.53133
# Velocity P-wave (km/s) = 5.37377 6.07178 5.73340
#
# Compressibility (1/GPa) = 0.02978046
#
# Stress axis : x y z
#
# Youngs Moduli (GPa) = 43.01519 51.07956 133.97609
#
# Poissons Ratio (x) = 0.25403 0.56062
# Poissons Ratio (y) = 0.21392 0.14692
# Poissons Ratio (z) = 0.18000 0.05602
#
# Static dielectric constant tensor:
#      x y z
#    x 1.999500 0.000000 0.000000 
#    y 0.000000 1.926520 0.000000 
#    z 0.000000 0.000000 1.792830 
# 
# From -- ./inp_files/9152.got.cif
#   From: 2010.05.17/outbox.cif.g08.bks.cpg/sg61_5_cif.got.tgz:9152.got - 2010.06.03 15:17:17.
