data_PCOD9461798
_publ_section_title
;
Structure prediction by ZEFSAII (Michael W. Deem and Ramdas Pophale) SiO2 
 PCOD9461798
Probable space group: P N M A
;
_chemical_formula_sum "Si O2"
_cell_formula_units_Z 56
_cell_length_a 23.586982
_cell_length_b 13.901302
_cell_length_c 7.244570
_cell_angle_alpha 90.000000
_cell_angle_beta 90.000000
_cell_angle_gamma 90.000000
_cell_volume 2375.420319
_symmetry_space_group_name_H-M "P N M A"
_symmetry_group_IT_number 62
_symmetry_cell_setting 'orthorhombic'
loop_
_space_group_symop_operation_xyz
x,y,z
1/2-x,-y,1/2+z
1/2+x,1/2-y,1/2-z
-x,1/2+y,-z
-x,-y,-z
1/2+x,y,1/2-z
1/2-x,1/2+y,1/2+z
x,1/2-y,z
loop_
_atom_site_type_symbol
_atom_site_label
_atom_site_fract_x
_atom_site_fract_y
_atom_site_fract_z
Si Si1 0.231091 0.506242 0.833879
Si Si2 0.577294 0.983266 0.161380
Si Si3 0.833404 0.640533 0.769380
Si Si4 0.357264 0.858624 0.294066
Si Si5 0.545318 0.996784 0.738046
Si Si6 0.673730 0.642724 0.058957
Si Si7 0.361325 0.140198 0.376803
O O1 0.274309 0.587294 0.764020
O O2 0.187735 0.437341 0.716232
O O3 0.274561 0.428924 0.914062
O O4 0.186698 0.568444 0.957313
O O5 0.615893 0.078308 0.181067
O O6 0.521709 0.993068 0.287119
O O7 0.620808 0.894730 0.180909
O O8 0.555037 0.970594 0.953035
O O9 0.831728 0.750000 0.702413
O O10 0.843760 0.643493 0.988378
O O11 0.352846 0.750000 0.222802
O O12 0.419615 0.904341 0.281290
O O13 0.578921 0.915452 0.622946
O O14 0.690786 0.750000 0.110164
O O15 0.655894 0.643046 0.842691
O O16 0.361883 0.250000 0.441796
#
# Coordination Sequence:
#
# PCOD9461798 Si02
#       7
#     8   8   8   8   8   8   8
#     4  10  18  30  50  72 100 134 174 216 256 308
#     4   9  19  35  55  80 108 139 179 223 264 311
#     4  10  21  36  55  80 110 144 179 218 269 324
#     4  10  21  36  55  80 110 144 179 218 269 324
#     4   9  19  35  55  80 108 139 179 223 264 311
#     4   9  17  30  49  71  96 130 170 210 254 305
#     4   9  17  30  49  71  96 130 170 210 254 305
#
# _framework density 23.574774000000001
#
# number of rings (size 3 to 8) (size 9 to 14) (size 15 to 20)
#    0.000    2.571    0.000    1.714    0.000    5.714 
#    0.000    2.857    0.000   40.286    0.000    0.000 
#    0.000    0.000    0.000    0.000    0.000    0.000 
#
# Total GULP energy -312895.802093 kJ/mol
# GULP energy per Si atom -5587.425037 kJ/mol
# Density = 2.352112 g / cm^3
# Si number density = 23.574774 Si / 1000 Ang^3
#
#
#
# Elastic Constant Matrix: (Units=GPa)
#
#
# Indices 1 2 3 4 5 6 
#
# 1 178.9879 77.0902 24.9924 0.0000 0.0000 0.0000
# 2 77.0902 200.4049 16.5622 0.0000 0.0000 0.0000
# 3 24.9924 16.5622 40.8723 0.0000 0.0000 0.0000
# 4 0.0000 0.0000 0.0000 24.5770 0.0000 0.0000
# 5 0.0000 0.0000 0.0000 0.0000 33.0963 0.0000
# 6 0.0000 0.0000 0.0000 0.0000 0.0000 11.7373
#
#
#
# Elastic Compliance Matrix: (Units=1/GPa)
#
#
# Indices 1 2 3 4 5 6 
#
# 1 0.007115 -0.002460 -0.003354 0.000000 0.000000 0.000000
# 2 -0.002460 0.006013 -0.000933 0.000000 0.000000 0.000000
# 3 -0.003354 -0.000933 0.026895 0.000000 0.000000 0.000000
# 4 0.000000 0.000000 0.000000 0.040688 0.000000 0.000000
# 5 0.000000 0.000000 0.000000 0.000000 0.030215 0.000000
# 6 0.000000 0.000000 0.000000 0.000000 0.000000 0.085198
#
#
# Mechanical properties :
#
#
# Convention : Reuss Voigt Hill
#
# Bulk Modulus (GPa) = 37.69192 73.06162 55.37677
# Shear Modulus (GPa) = 22.88745 33.99013 28.43879
#
# Velocity S-wave (km/s) = 3.11922 3.80122 3.47698
# Velocity P-wave (km/s) = 5.38476 7.09397 6.29762
#
# Compressibility (1/GPa) = 0.02653088
#
# Stress axis : x y z
#
# Youngs Moduli (GPa) = 140.55553 166.30283 37.18148
#
# Poissons Ratio (x) = 0.40904 0.12470
# Poissons Ratio (y) = 0.34572 0.03468
# Poissons Ratio (z) = 0.47139 0.15510
#
# Static dielectric constant tensor:
#      x y z
#    x 1.867810 0.000000 0.000000 
#    y 0.000000 1.862350 0.000000 
#    z 0.000000 0.000000 2.113070 
# 
# From -- ./inp_files/8724.got.cif
#   From: 2010.05.17/outbox.cif.g08.bks.cpg/sg62_5_cif.got.tgz:8724.got - 2010.06.03 15:25:27.
