data_PCOD9461372
_publ_section_title
;
Structure prediction by ZEFSAII (Michael W. Deem and Ramdas Pophale) SiO2 
 PCOD9461372
Probable space group: P N M A
;
_chemical_formula_sum "Si O2"
_cell_formula_units_Z 56
_cell_length_a 18.512308
_cell_length_b 8.768212
_cell_length_c 14.529267
_cell_angle_alpha 90.000000
_cell_angle_beta 90.000000
_cell_angle_gamma 90.000000
_cell_volume 2358.388312
_symmetry_space_group_name_H-M "P N M A"
_symmetry_group_IT_number 62
_symmetry_cell_setting 'orthorhombic'
loop_
_space_group_symop_operation_xyz
x,y,z
1/2-x,-y,1/2+z
1/2+x,1/2-y,1/2-z
-x,1/2+y,-z
-x,-y,-z
1/2+x,y,1/2-z
1/2-x,1/2+y,1/2+z
x,1/2-y,z
loop_
_atom_site_type_symbol
_atom_site_label
_atom_site_fract_x
_atom_site_fract_y
_atom_site_fract_z
Si Si1 0.946308 0.925506 0.090813
Si Si2 0.217994 0.933637 0.233810
Si Si3 0.635027 0.569513 0.431189
Si Si4 0.219446 0.426952 0.916061
Si Si5 0.069378 0.567044 0.446823
Si Si6 0.994869 0.928554 0.727347
Si Si7 0.849758 0.070921 0.376116
O O1 0.965836 0.750000 0.076278
O O2 0.862164 0.926312 0.126958
O O3 0.930488 0.005120 0.991897
O O4 0.992639 0.996829 0.172895
O O5 0.212044 0.750000 0.241056
O O6 0.152709 0.991653 0.170036
O O7 0.290107 0.975163 0.177317
O O8 0.228367 0.989572 0.337673
O O9 0.629392 0.750000 0.427435
O O10 0.704299 0.522689 0.493014
O O11 0.236227 0.250000 0.937926
O O12 0.065488 0.750000 0.443821
O O13 0.134895 0.529279 0.516707
O O14 0.000000 0.500000 0.500000
O O15 0.061341 0.505882 0.343324
O O16 0.978851 0.750000 0.737431
O O17 0.073101 0.942072 0.675992
O O18 0.829090 0.250000 0.372147
#
# Coordination Sequence:
#
# PCOD9461372 Si02
#       7
#     8   8   8   8   8   8   8
#     4   9  16  26  39  52  71  96 124 156 189 225
#     4  10  18  27  41  56  74 103 132 160 196 229
#     4   9  17  27  38  56  76  95 126 164 194 226
#     4   8  16  28  39  53  73  99 129 157 190 231
#     4   9  17  26  34  49  72  96 125 160 191 222
#     4  10  17  25  38  54  70  96 128 159 193 225
#     4   9  17  25  34  51  72  95 127 159 186 221
#
# _framework density 23.74503
#
# number of rings (size 3 to 8) (size 9 to 14) (size 15 to 20)
#    0.857    2.000    1.429    2.143    0.000    4.571 
#    0.000    0.000    0.000    0.000    0.000    0.000 
#    0.000    0.000    0.000    1.286    0.000   16.429 
#
# Total GULP energy -312643.978838 kJ/mol
# GULP energy per Si atom -5582.928194 kJ/mol
# Density = 2.369099 g / cm^3
# Si number density = 23.745030 Si / 1000 Ang^3
#
#
#
# Elastic Constant Matrix: (Units=GPa)
#
#
# Indices 1 2 3 4 5 6 
#
# 1 79.1871 -5.1362 24.6740 0.0000 0.0000 0.0000
# 2 -5.1362 38.9020 28.1867 0.0000 0.0000 0.0000
# 3 24.6740 28.1867 189.0333 0.0000 0.0000 0.0000
# 4 0.0000 0.0000 0.0000 8.7655 0.0000 0.0000
# 5 0.0000 0.0000 0.0000 0.0000 39.6639 0.0000
# 6 0.0000 0.0000 0.0000 0.0000 0.0000 3.4070
#
#
#
# Elastic Compliance Matrix: (Units=1/GPa)
#
#
# Indices 1 2 3 4 5 6 
#
# 1 0.013564 0.003446 -0.002284 0.000000 0.000000 0.000000
# 2 0.003446 0.029695 -0.004878 0.000000 0.000000 0.000000
# 3 -0.002284 -0.004878 0.006316 0.000000 0.000000 0.000000
# 4 0.000000 0.000000 0.000000 0.114083 0.000000 0.000000
# 5 0.000000 0.000000 0.000000 0.000000 0.025212 0.000000
# 6 0.000000 0.000000 0.000000 0.000000 0.000000 0.293514
#
#
# Mechanical properties :
#
#
# Convention : Reuss Voigt Hill
#
# Bulk Modulus (GPa) = 23.72937 44.73016 34.22976
# Shear Modulus (GPa) = 9.92337 27.66048 18.79192
#
# Velocity S-wave (km/s) = 2.04651 3.41676 2.81624
# Velocity P-wave (km/s) = 3.94960 5.86892 5.00218
#
# Compressibility (1/GPa) = 0.04214188
#
# Stress axis : x y z
#
# Youngs Moduli (GPa) = 73.72694 33.67612 158.34028
#
# Poissons Ratio (x) = -0.11604 0.36168
# Poissons Ratio (y) = -0.25405 0.77231
# Poissons Ratio (z) = 0.16841 0.16426
#
# Static dielectric constant tensor:
#      x y z
#    x 2.038400 0.000000 0.000000 
#    y 0.000000 1.803860 0.000000 
#    z 0.000000 0.000000 1.918130 
# 
# From -- ./inp_files/21169.got.cif
#   From: 2010.05.17/outbox.cif.g08.bks.cpg/sg62_11_cif.got.tgz:21169.got - 2010.06.03 15:25:27.
