data_PCOD9461921
_publ_section_title
;
Structure prediction by ZEFSAII (Michael W. Deem and Ramdas Pophale) SiO2 
 PCOD9461921
Probable space group: P N M A
;
_chemical_formula_sum "Si O2"
_cell_formula_units_Z 64
_cell_length_a 8.969845
_cell_length_b 18.875340
_cell_length_c 20.730173
_cell_angle_alpha 90.000000
_cell_angle_beta 90.000000
_cell_angle_gamma 90.000000
_cell_volume 3509.802251
_symmetry_space_group_name_H-M "P N M A"
_symmetry_group_IT_number 62
_symmetry_cell_setting 'orthorhombic'
loop_
_space_group_symop_operation_xyz
x,y,z
1/2-x,-y,1/2+z
1/2+x,1/2-y,1/2-z
-x,1/2+y,-z
-x,-y,-z
1/2+x,y,1/2-z
1/2-x,1/2+y,1/2+z
x,1/2-y,z
loop_
_atom_site_type_symbol
_atom_site_label
_atom_site_fract_x
_atom_site_fract_y
_atom_site_fract_z
Si Si1 0.995561 0.070297 0.427565
Si Si2 0.007530 0.525087 0.101169
Si Si3 0.062473 0.469229 0.687820
Si Si4 0.200992 0.621603 0.257250
Si Si5 0.559831 0.588650 0.710273
Si Si6 0.972282 0.674075 0.164470
Si Si7 0.746390 0.512188 0.003853
Si Si8 0.132173 0.334847 0.315950
O O1 0.852810 0.076115 0.474408
O O2 0.042264 0.130810 0.376667
O O3 0.955986 0.001857 0.382672
O O4 0.132974 0.048660 0.472973
O O5 0.005751 0.462771 0.154709
O O6 0.023205 0.603596 0.128489
O O7 0.848286 0.526905 0.065589
O O8 0.137840 0.510460 0.050888
O O9 0.187031 0.410864 0.703381
O O10 0.109695 0.533363 0.734637
O O11 0.902307 0.439464 0.711136
O O12 0.307371 0.657946 0.309213
O O13 0.084261 0.673928 0.224969
O O14 0.445394 0.639017 0.749069
O O15 0.701457 0.632166 0.684387
O O16 0.979059 0.750000 0.130757
O O17 0.134077 0.250000 0.319360
#
# Coordination Sequence:
#
# PCOD9461921 Si02
#       8
#     8   8   8   8   8   8   8   8
#     4  10  20  36  59  84 116 147 194 248 293 339
#     4  11  21  38  61  83 116 151 207 249 286 346
#     4  10  18  31  59  89 107 142 187 237 289 335
#     4  10  18  31  52  83 115 141 174 220 280 354
#     4  11  21  36  63  89 119 153 193 247 301 368
#     4  11  22  34  52  81 118 148 175 227 290 349
#     4  10  22  37  59  87 105 152 210 255 274 330
#     4  11  24  39  59  93 129 157 191 249 322 378
#
# _framework density 18.234646000000001
#
# number of rings (size 3 to 8) (size 9 to 14) (size 15 to 20)
#    0.000    1.500    3.750    3.750    3.500    0.000 
#    0.000    1.250    0.000    0.000    0.000    0.000 
#    0.000    0.000    0.000    0.000    0.000    0.000 
#
# Total GULP energy -356751.754396 kJ/mol
# GULP energy per Si atom -5574.246162 kJ/mol
# Density = 1.819314 g / cm^3
# Si number density = 18.234646 Si / 1000 Ang^3
#
#
#
# Elastic Constant Matrix: (Units=GPa)
#
#
# Indices 1 2 3 4 5 6 
#
# 1 70.8902 16.1165 12.8174 0.0000 0.0000 0.0000
# 2 16.1165 107.3408 28.0715 0.0000 0.0000 0.0000
# 3 12.8174 28.0715 70.0355 0.0000 0.0000 0.0000
# 4 0.0000 0.0000 0.0000 8.7645 0.0000 0.0000
# 5 0.0000 0.0000 0.0000 0.0000 26.8288 0.0000
# 6 0.0000 0.0000 0.0000 0.0000 0.0000 2.1403
#
#
#
# Elastic Compliance Matrix: (Units=1/GPa)
#
#
# Indices 1 2 3 4 5 6 
#
# 1 0.014861 -0.001698 -0.002039 0.000000 0.000000 0.000000
# 2 -0.001698 0.010601 -0.003938 0.000000 0.000000 0.000000
# 3 -0.002039 -0.003938 0.016230 0.000000 0.000000 0.000000
# 4 0.000000 0.000000 0.000000 0.114097 0.000000 0.000000
# 5 0.000000 0.000000 0.000000 0.000000 0.037273 0.000000
# 6 0.000000 0.000000 0.000000 0.000000 0.000000 0.467218
#
#
# Mechanical properties :
#
#
# Convention : Reuss Voigt Hill
#
# Bulk Modulus (GPa) = 37.96320 40.25301 39.10811
# Shear Modulus (GPa) = 7.30554 20.29746 13.80150
#
# Velocity S-wave (km/s) = 2.00377 3.33997 2.75414
# Velocity P-wave (km/s) = 5.12035 6.08250 5.62204
#
# Compressibility (1/GPa) = 0.02634130
#
# Stress axis : x y z
#
# Youngs Moduli (GPa) = 67.28996 94.33062 61.61343
#
# Poissons Ratio (x) = 0.16017 0.12564
# Poissons Ratio (y) = 0.11426 0.24265
# Poissons Ratio (z) = 0.13722 0.37150
#
# Static dielectric constant tensor:
#      x y z
#    x 1.665650 0.000000 0.000000 
#    y 0.000000 1.640980 0.000000 
#    z 0.000000 0.000000 1.655290 
# 
# From -- ./inp_files/26282.got.cif
#   From: 2010.05.17/outbox.cif.g08.bks.cpg/sg62_14_cif.got.tgz:26282.got - 2010.06.03 15:25:27.
