data_PCOD9461011
_publ_section_title
;
Structure prediction by ZEFSAII (Michael W. Deem and Ramdas Pophale) SiO2 
 PCOD9461011
Probable space group: P B C A
;
_chemical_formula_sum "Si O2"
_cell_formula_units_Z 48
_cell_length_a 12.020357
_cell_length_b 16.280073
_cell_length_c 11.450362
_cell_angle_alpha 90.000000
_cell_angle_beta 90.000000
_cell_angle_gamma 90.000000
_cell_volume 2240.747555
_symmetry_space_group_name_H-M "P B C A"
_symmetry_group_IT_number 61
_symmetry_cell_setting 'orthorhombic'
loop_
_space_group_symop_operation_xyz
x,y,z
1/2-x,-y,1/2+z
1/2+x,1/2-y,-z
-x,1/2+y,1/2-z
-x,-y,-z
1/2+x,y,1/2-z
1/2-x,1/2+y,z
x,1/2-y,1/2+z
loop_
_atom_site_type_symbol
_atom_site_label
_atom_site_fract_x
_atom_site_fract_y
_atom_site_fract_z
Si Si1 0.712912 0.106693 0.040762
Si Si2 0.344417 0.581031 0.204756
Si Si3 0.480440 0.431336 0.233736
Si Si4 0.622165 0.953225 0.906117
Si Si5 0.013557 0.176974 0.556042
Si Si6 0.526636 0.635507 0.018733
O O1 0.666011 0.122502 0.169862
O O2 0.845313 0.110758 0.038510
O O3 0.647221 0.168528 0.955335
O O4 0.672736 0.017445 0.998334
O O5 0.366297 0.483337 0.224149
O O6 0.226876 0.594530 0.144189
O O7 0.445625 0.608796 0.123466
O O8 0.562197 0.493680 0.304232
O O9 0.475445 0.350940 0.315111
O O10 0.512801 0.405648 0.102837
O O11 0.539443 0.892150 0.971516
O O12 0.977278 0.266205 0.516861
#
# Coordination Sequence:
#
# PCOD9461011 Si02
#       6
#     8   8   8   8   8   8
#     4  11  24  47  70 102 141 192 241 287 361 436
#     4  12  24  43  74 103 139 187 242 296 344 437
#     4  11  23  46  73 100 140 186 243 285 352 439
#     4  11  23  45  76  99 140 194 243 286 360 435
#     4  11  26  48  70 105 149 189 231 308 375 416
#     4  12  29  44  72 114 144 183 248 304 361 421
#
# _framework density 21.421423000000001
#
# number of rings (size 3 to 8) (size 9 to 14) (size 15 to 20)
#    0.000    0.667    5.000    2.500    7.000    0.000 
#    0.000    0.000    0.000    0.000    0.000    0.000 
#    0.000    0.000    0.000    0.000    0.000    0.000 
#
# Total GULP energy -268321.929237 kJ/mol
# GULP energy per Si atom -5590.040192 kJ/mol
# Density = 2.137267 g / cm^3
# Si number density = 21.421423 Si / 1000 Ang^3
#
#
#
# Elastic Constant Matrix: (Units=GPa)
#
#
# Indices 1 2 3 4 5 6 
#
# 1 111.5369 12.9935 50.6207 0.0000 0.0000 0.0000
# 2 12.9935 75.5523 30.8418 0.0000 0.0000 0.0000
# 3 50.6207 30.8418 129.9423 0.0000 0.0000 0.0000
# 4 0.0000 0.0000 0.0000 21.1502 0.0000 0.0000
# 5 0.0000 0.0000 0.0000 0.0000 30.0514 0.0000
# 6 0.0000 0.0000 0.0000 0.0000 0.0000 17.1572
#
#
#
# Elastic Compliance Matrix: (Units=1/GPa)
#
#
# Indices 1 2 3 4 5 6 
#
# 1 0.010893 -0.000156 -0.004206 0.000000 0.000000 0.000000
# 2 -0.000156 0.014658 -0.003418 0.000000 0.000000 0.000000
# 3 -0.004206 -0.003418 0.010146 0.000000 0.000000 0.000000
# 4 0.000000 0.000000 0.000000 0.047281 0.000000 0.000000
# 5 0.000000 0.000000 0.000000 0.000000 0.033276 0.000000
# 6 0.000000 0.000000 0.000000 0.000000 0.000000 0.058285
#
#
# Mechanical properties :
#
#
# Convention : Reuss Voigt Hill
#
# Bulk Modulus (GPa) = 49.66478 56.21592 52.94035
# Shear Modulus (GPa) = 25.40496 28.51012 26.95754
#
# Velocity S-wave (km/s) = 3.44751 3.65213 3.55130
# Velocity P-wave (km/s) = 6.25157 6.63957 6.44849
#
# Compressibility (1/GPa) = 0.02013499
#
# Stress axis : x y z
#
# Youngs Moduli (GPa) = 91.80294 68.22155 98.56407
#
# Poissons Ratio (x) = 0.01066 0.41460
# Poissons Ratio (y) = 0.01434 0.33691
# Poissons Ratio (z) = 0.38616 0.23320
#
# Static dielectric constant tensor:
#      x y z
#    x 1.774660 0.000000 0.000000 
#    y 0.000000 1.778670 0.000000 
#    z 0.000000 0.000000 1.810690 
# 
# From -- ./inp_files/5224.got.cif
#   From: 2010.05.17/outbox.cif.g08.bks.cpg/sg61_3_cif.got.tgz:5224.got - 2010.06.03 15:17:17.
