data_PCOD9461462
_publ_section_title
;
Structure prediction by ZEFSAII (Michael W. Deem and Ramdas Pophale) SiO2 
 PCOD9461462
Probable space group: P N M A
;
_chemical_formula_sum "Si O2"
_cell_formula_units_Z 56
_cell_length_a 9.310531
_cell_length_b 13.575285
_cell_length_c 28.230462
_cell_angle_alpha 90.000000
_cell_angle_beta 90.000000
_cell_angle_gamma 90.000000
_cell_volume 3568.135940
_symmetry_space_group_name_H-M "P N M A"
_symmetry_group_IT_number 62
_symmetry_cell_setting 'orthorhombic'
loop_
_space_group_symop_operation_xyz
x,y,z
1/2-x,-y,1/2+z
1/2+x,1/2-y,1/2-z
-x,1/2+y,-z
-x,-y,-z
1/2+x,y,1/2-z
1/2-x,1/2+y,1/2+z
x,1/2-y,z
loop_
_atom_site_type_symbol
_atom_site_label
_atom_site_fract_x
_atom_site_fract_y
_atom_site_fract_z
Si Si1 0.316258 0.361268 0.950906
Si Si2 0.405570 0.869103 0.808742
Si Si3 0.816153 0.564280 0.594207
Si Si4 0.918629 0.369270 0.219138
Si Si5 0.002902 0.133960 0.117538
Si Si6 0.358471 0.968212 0.529371
Si Si7 0.362202 0.862942 0.009916
O O1 0.287011 0.250000 0.934977
O O2 0.286441 0.448671 0.913912
O O3 0.223094 0.387289 0.997389
O O4 0.483488 0.369542 0.965334
O O5 0.412382 0.750000 0.813418
O O6 0.415861 0.914604 0.860874
O O7 0.246860 0.895347 0.789360
O O8 0.518394 0.902175 0.769177
O O9 0.664437 0.618556 0.603294
O O10 0.877913 0.605424 0.545016
O O11 0.924658 0.250000 0.219418
O O12 0.008965 0.399081 0.172490
O O13 0.037038 0.250000 0.114686
O O14 0.096096 0.073813 0.080041
O O15 0.500000 0.000000 0.500000
O O16 0.252044 0.061398 0.531648
O O17 0.312001 0.750000 0.012150
#
# Coordination Sequence:
#
# PCOD9461462 Si02
#       7
#     8   8   8   8   8   8   8
#     4  10  21  35  47  67 100 129 161 202 237 274
#     4   9  16  29  47  68  94 120 152 188 231 285
#     4  10  17  30  50  70  90 128 163 187 231 288
#     4   8  16  29  44  64  93 122 147 184 231 280
#     4  10  18  30  47  70 101 127 152 193 239 281
#     4  11  19  30  49  73  95 123 163 197 229 288
#     4  10  20  34  48  67  99 132 160 197 237 277
#
# _framework density 15.694470000000001
#
# number of rings (size 3 to 8) (size 9 to 14) (size 15 to 20)
#    0.000    2.286    2.857    4.286    0.000    0.571 
#    5.143    0.000    0.000    0.000    0.000    5.000 
#    0.000    0.000    0.000    0.000    0.000    0.000 
#
# Total GULP energy -312083.224583 kJ/mol
# GULP energy per Si atom -5572.914725 kJ/mol
# Density = 1.565875 g / cm^3
# Si number density = 15.694470 Si / 1000 Ang^3
#
#
#
# Elastic Constant Matrix: (Units=GPa)
#
#
# Indices 1 2 3 4 5 6 
#
# 1 21.8476 1.5031 -13.6419 0.0000 0.0000 0.0000
# 2 1.5031 58.2186 1.0532 0.0000 0.0000 0.0000
# 3 -13.6419 1.0532 34.1726 0.0000 0.0000 0.0000
# 4 0.0000 0.0000 0.0000 20.6406 0.0000 0.0000
# 5 0.0000 0.0000 0.0000 0.0000 21.8874 0.0000
# 6 0.0000 0.0000 0.0000 0.0000 0.0000 21.2323
#
#
#
# Elastic Compliance Matrix: (Units=1/GPa)
#
#
# Indices 1 2 3 4 5 6 
#
# 1 0.061207 -0.002023 0.024496 0.000000 0.000000 0.000000
# 2 -0.002023 0.017253 -0.001339 0.000000 0.000000 0.000000
# 3 0.024496 -0.001339 0.039084 0.000000 0.000000 0.000000
# 4 0.000000 0.000000 0.000000 0.048448 0.000000 0.000000
# 5 0.000000 0.000000 0.000000 0.000000 0.045688 0.000000
# 6 0.000000 0.000000 0.000000 0.000000 0.000000 0.047098
#
#
# Mechanical properties :
#
#
# Convention : Reuss Voigt Hill
#
# Bulk Modulus (GPa) = 6.25740 10.22971 8.24356
# Shear Modulus (GPa) = 18.53354 21.10702 19.82028
#
# Velocity S-wave (km/s) = 3.44015 3.67123 3.55756
# Velocity P-wave (km/s) = 4.44692 4.95002 4.70520
#
# Compressibility (1/GPa) = 0.15981085
#
# Stress axis : x y z
#
# Youngs Moduli (GPa) = 16.33807 57.96057 25.58613
#
# Poissons Ratio (x) = 0.11727 -0.62677
# Poissons Ratio (y) = 0.03306 0.03427
# Poissons Ratio (z) = -0.40022 0.07764
#
# Static dielectric constant tensor:
#      x y z
#    x 1.538650 0.000000 0.000000 
#    y 0.000000 1.522780 0.000000 
#    z 0.000000 0.000000 1.531180 
# 
# From -- ./inp_files/32300.got.cif
#   From: 2010.05.17/outbox.cif.g08.bks.cpg/sg62_17_cif.got.tgz:32300.got - 2010.06.03 15:25:27.
