data_PCOD9461771
_publ_section_title
;
Structure prediction by ZEFSAII (Michael W. Deem and Ramdas Pophale) SiO2 
 PCOD9461771
Probable space group: P N M A
;
_chemical_formula_sum "Si O2"
_cell_formula_units_Z 48
_cell_length_a 10.687072
_cell_length_b 7.414317
_cell_length_c 29.262015
_cell_angle_alpha 90.000000
_cell_angle_beta 90.000000
_cell_angle_gamma 90.000000
_cell_volume 2318.644220
_symmetry_space_group_name_H-M "P N M A"
_symmetry_group_IT_number 62
_symmetry_cell_setting 'orthorhombic'
loop_
_space_group_symop_operation_xyz
x,y,z
1/2-x,-y,1/2+z
1/2+x,1/2-y,1/2-z
-x,1/2+y,-z
-x,-y,-z
1/2+x,y,1/2-z
1/2-x,1/2+y,1/2+z
x,1/2-y,z
loop_
_atom_site_type_symbol
_atom_site_label
_atom_site_fract_x
_atom_site_fract_y
_atom_site_fract_z
Si Si1 0.233833 0.533590 0.146556
Si Si2 0.254799 0.471028 0.855551
Si Si3 0.510972 0.029848 0.701405
Si Si4 0.621432 0.036666 0.449152
Si Si5 0.989593 0.970432 0.306995
Si Si6 0.835915 0.956409 0.048930
O O1 0.234493 0.750000 0.150854
O O2 0.113358 0.468566 0.175002
O O3 0.211269 0.491797 0.093525
O O4 0.364195 0.468682 0.167363
O O5 0.252930 0.250000 0.856404
O O6 0.384400 0.526992 0.832700
O O7 0.234919 0.535223 0.907526
O O8 0.135846 0.526620 0.825176
O O9 0.510217 0.250000 0.701035
O O10 0.510890 0.973634 0.754120
O O11 0.600092 0.250000 0.454928
O O12 0.670687 0.964675 0.497872
O O13 0.484226 0.956809 0.439294
O O14 0.989542 0.750000 0.307073
O O15 0.792297 0.750000 0.045036
#
# Coordination Sequence:
#
# PCOD9461771 Si02
#       6
#     8   8   8   8   8   8
#     4  10  18  30  48  72  99 123 153 194 237 277
#     4   9  15  26  44  67  96 123 149 188 236 277
#     4   9  15  25  44  70  97 122 152 193 234 271
#     4  10  19  30  48  71  94 122 160 198 235 282
#     4   9  17  26  42  72 101 122 150 192 236 277
#     4   9  17  31  50  71  93 122 159 199 238 275
#
# _framework density 20.701753
#
# number of rings (size 3 to 8) (size 9 to 14) (size 15 to 20)
#    0.000    2.667    1.667    1.500    0.000    4.667 
#    0.000    0.833    0.000    2.000    0.000    0.000 
#    0.000    0.000    0.000    0.000    0.000    0.000 
#
# Total GULP energy -267992.430505 kJ/mol
# GULP energy per Si atom -5583.175636 kJ/mol
# Density = 2.065463 g / cm^3
# Si number density = 20.701753 Si / 1000 Ang^3
#
#
#
# Elastic Constant Matrix: (Units=GPa)
#
#
# Indices 1 2 3 4 5 6 
#
# 1 164.6675 4.2099 111.5087 0.0000 0.0000 0.0000
# 2 4.2099 69.3169 0.6744 0.0000 0.0000 0.0000
# 3 111.5087 0.6744 205.0641 0.0000 0.0000 0.0000
# 4 0.0000 0.0000 0.0000 8.0099 0.0000 0.0000
# 5 0.0000 0.0000 0.0000 0.0000 1.3466 0.0000
# 6 0.0000 0.0000 0.0000 0.0000 0.0000 -4.1114
#
#
#
# Elastic Compliance Matrix: (Units=1/GPa)
#
#
# Indices 1 2 3 4 5 6 
#
# 1 0.009632 -0.000534 -0.005236 0.000000 0.000000 0.000000
# 2 -0.000534 0.014457 0.000243 0.000000 0.000000 0.000000
# 3 -0.005236 0.000243 0.007723 0.000000 0.000000 0.000000
# 4 0.000000 0.000000 0.000000 0.124846 0.000000 0.000000
# 5 0.000000 0.000000 0.000000 0.000000 0.742622 0.000000
# 6 0.000000 0.000000 0.000000 0.000000 0.000000 -0.243224
#
#
# Mechanical properties :
#
#
# Convention : Reuss Voigt Hill
#
# Bulk Modulus (GPa) = 48.17579 74.64828 61.41203
# Shear Modulus (GPa) = 7.41807 22.55936 14.98872
#
# Velocity S-wave (km/s) = 1.89502 3.30469 2.69370
# Velocity P-wave (km/s) = 5.30189 7.12029 6.27728
#
# Compressibility (1/GPa) = 0.02075731
#
# Stress axis : x y z
#
# Youngs Moduli (GPa) = 103.81874 69.17271 129.48467
#
# Poissons Ratio (x) = 0.03694 0.67798
# Poissons Ratio (y) = 0.05545 -0.03145
# Poissons Ratio (z) = 0.54359 -0.01680
#
# Static dielectric constant tensor:
#      x y z
#    x 1.681770 0.000000 0.000000 
#    y 0.000000 1.811580 0.000000 
#    z 0.000000 0.000000 1.731520 
# 
# From -- ./inp_files/30995.got.cif
#   From: 2010.05.17/outbox.cif.g08.bks.cpg/sg62_16_cif.got.tgz:30995.got - 2010.06.03 15:25:27.
