data_PCOD9461715
_publ_section_title
;
Structure prediction by ZEFSAII (Michael W. Deem and Ramdas Pophale) SiO2 
 PCOD9461715
Probable space group: P N M A
;
_chemical_formula_sum "Si O2"
_cell_formula_units_Z 48
_cell_length_a 17.400572
_cell_length_b 16.677913
_cell_length_c 6.953767
_cell_angle_alpha 90.000000
_cell_angle_beta 90.000000
_cell_angle_gamma 90.000000
_cell_volume 2018.019524
_symmetry_space_group_name_H-M "P N M A"
_symmetry_group_IT_number 62
_symmetry_cell_setting 'orthorhombic'
loop_
_space_group_symop_operation_xyz
x,y,z
1/2-x,-y,1/2+z
1/2+x,1/2-y,1/2-z
-x,1/2+y,-z
-x,-y,-z
1/2+x,y,1/2-z
1/2-x,1/2+y,1/2+z
x,1/2-y,z
loop_
_atom_site_type_symbol
_atom_site_label
_atom_site_fract_x
_atom_site_fract_y
_atom_site_fract_z
Si Si1 0.625931 0.337789 0.570579
Si Si2 0.791819 0.384547 0.552411
Si Si3 0.448563 0.157559 0.080564
Si Si4 0.377830 0.840528 0.893017
Si Si5 0.076030 0.511211 0.877091
Si Si6 0.261104 0.443416 0.379641
O O1 0.591927 0.250000 0.617265
O O2 0.717512 0.333336 0.603348
O O3 0.613217 0.352025 0.339649
O O4 0.596954 0.418874 0.671234
O O5 0.878151 0.351940 0.569715
O O6 0.776002 0.469712 0.648663
O O7 0.780200 0.401950 0.323709
O O8 0.440465 0.250000 0.161408
O O9 0.537275 0.151765 0.019987
O O10 0.440452 0.079126 0.217451
O O11 0.351844 0.750000 0.919996
O O12 0.308639 0.894308 0.968524
O O13 0.155217 0.543730 0.972972
O O14 0.000000 0.500000 0.000000
#
# Coordination Sequence:
#
# PCOD9461715 Si02
#       6
#     8   8   8   8   8   8
#     4   9  16  29  48  72 104 139 176 223 272 317
#     4   9  18  32  51  77 106 140 183 224 268 324
#     4  10  19  31  51  80 109 138 182 230 269 318
#     4   9  17  30  49  74 104 138 176 223 269 317
#     4  10  18  29  48  76 105 136 174 225 271 311
#     4   9  19  32  50  75 106 140 181 222 267 321
#
# _framework density 23.785696999999999
#
# number of rings (size 3 to 8) (size 9 to 14) (size 15 to 20)
#    0.000    2.667    1.667    0.500    0.000    4.667 
#    0.000    0.000    0.000   10.000    0.000   28.000 
#    0.000    0.000    0.000    0.000    0.000    0.000 
#
# Total GULP energy -267439.843529 kJ/mol
# GULP energy per Si atom -5571.663407 kJ/mol
# Density = 2.373156 g / cm^3
# Si number density = 23.785697 Si / 1000 Ang^3
#
#
#
# Elastic Constant Matrix: (Units=GPa)
#
#
# Indices 1 2 3 4 5 6 
#
# 1 138.7357 95.9573 19.5187 0.0000 0.0000 0.0000
# 2 95.9573 187.1790 14.7155 0.0000 0.0000 0.0000
# 3 19.5187 14.7155 61.9538 0.0000 0.0000 0.0000
# 4 0.0000 0.0000 0.0000 1645.3471 0.0000 0.0000
# 5 0.0000 0.0000 0.0000 0.0000 15.7518 0.0000
# 6 0.0000 0.0000 0.0000 0.0000 0.0000 41.9145
#
#
#
# Elastic Compliance Matrix: (Units=1/GPa)
#
#
# Indices 1 2 3 4 5 6 
#
# 1 0.011470 -0.005702 -0.002259 0.000000 0.000000 0.000000
# 2 -0.005702 0.008279 -0.000170 0.000000 0.000000 0.000000
# 3 -0.002259 -0.000170 0.016893 0.000000 0.000000 0.000000
# 4 0.000000 0.000000 0.000000 0.000608 0.000000 0.000000
# 5 0.000000 0.000000 0.000000 0.000000 0.063485 0.000000
# 6 0.000000 0.000000 0.000000 0.000000 0.000000 0.023858
#
#
# Mechanical properties :
#
#
# Convention : Reuss Voigt Hill
#
# Bulk Modulus (GPa) = 49.06960 72.02795 60.54877
# Shear Modulus (GPa) = 33.86403 357.78113 195.82258
#
# Velocity S-wave (km/s) = 3.77731 12.27783 9.08331
# Velocity P-wave (km/s) = 6.30069 15.20991 11.64131
#
# Compressibility (1/GPa) = 0.02037922
#
# Stress axis : x y z
#
# Youngs Moduli (GPa) = 87.18454 120.78463 59.19544
#
# Poissons Ratio (x) = 0.68877 0.13373
# Poissons Ratio (y) = 0.49717 0.01006
# Poissons Ratio (z) = 0.19696 0.02053
#
# Static dielectric constant tensor:
#      x y z
#    x 1.895720 0.000000 0.000000 
#    y 0.000000 1.891380 0.000000 
#    z 0.000000 0.000000 2.041920 
# 
# From -- ./inp_files/14182.got.cif
#   From: 2010.05.17/outbox.cif.g08.bks.cpg/sg62_8_cif.got.tgz:14182.got - 2010.06.03 15:25:27.
