data_PCOD9461337
_publ_section_title
;
Structure prediction by ZEFSAII (Michael W. Deem and Ramdas Pophale) SiO2 
 PCOD9461337
Probable space group: P N M A
;
_chemical_formula_sum "Si O2"
_cell_formula_units_Z 48
_cell_length_a 7.316637
_cell_length_b 19.252961
_cell_length_c 14.229480
_cell_angle_alpha 90.000000
_cell_angle_beta 90.000000
_cell_angle_gamma 90.000000
_cell_volume 2004.463118
_symmetry_space_group_name_H-M "P N M A"
_symmetry_group_IT_number 62
_symmetry_cell_setting 'orthorhombic'
loop_
_space_group_symop_operation_xyz
x,y,z
1/2-x,-y,1/2+z
1/2+x,1/2-y,1/2-z
-x,1/2+y,-z
-x,-y,-z
1/2+x,y,1/2-z
1/2-x,1/2+y,1/2+z
x,1/2-y,z
loop_
_atom_site_type_symbol
_atom_site_label
_atom_site_fract_x
_atom_site_fract_y
_atom_site_fract_z
Si Si1 0.034739 0.750000 0.410108
Si Si2 0.183563 0.486663 0.680466
Si Si3 0.450984 0.330679 0.330665
Si Si4 0.611297 0.414174 0.173646
Si Si5 0.784824 0.669732 0.992311
Si Si6 0.893207 0.750000 0.224855
Si Si7 0.506352 0.397144 0.651836
O O1 0.074866 0.815912 0.477627
O O2 0.200306 0.750000 0.331745
O O3 0.870169 0.750000 0.338387
O O4 0.305660 0.540532 0.740185
O O5 0.317904 0.434958 0.626132
O O6 0.030486 0.532052 0.626656
O O7 0.092711 0.440534 0.762779
O O8 0.399430 0.250000 0.333109
O O9 0.496837 0.353666 0.224916
O O10 0.287922 0.378382 0.371391
O O11 0.634520 0.342864 0.390701
O O12 0.858563 0.750000 0.008995
O O13 0.865478 0.612537 0.061659
O O14 0.996577 0.680230 0.193468
#
# Coordination Sequence:
#
# PCOD9461337 Si02
#       7
#     4   8   8   8   8   4   8
#     4   8  16  28  44  72 108 120 164 194 256 284
#     4   9  19  31  49  72 106 141 168 205 232 307
#     4  10  18  34  60  77  94 123 166 226 269 295
#     4   9  19  35  50  76  98 127 177 209 251 308
#     4   8  17  30  47  80 106 124 160 214 260 298
#     4  10  16  26  50  78  98 142 168 210 224 296
#     4  10  16  30  50  76 106 136 173 198 251 284
#
# _framework density 23.946563000000001
#
# number of rings (size 3 to 8) (size 9 to 14) (size 15 to 20)
#    0.500    2.333    0.833    2.500    0.000    0.000 
#    0.000    8.333    0.000   18.000    0.000    0.000 
#    0.000    0.000    0.000    0.000    0.000    0.000 
#
# Total GULP energy -267211.067773 kJ/mol
# GULP energy per Si atom -5566.897245 kJ/mol
# Density = 2.389206 g / cm^3
# Si number density = 23.946563 Si / 1000 Ang^3
#
#
#
# Elastic Constant Matrix: (Units=GPa)
#
#
# Indices 1 2 3 4 5 6 
#
# 1 56.1181 14.6677 -1.2602 0.0000 0.0000 0.0000
# 2 14.6677 100.9446 2.0896 0.0000 0.0000 0.0000
# 3 -1.2602 2.0896 17.7057 0.0000 0.0000 0.0000
# 4 0.0000 0.0000 0.0000 12.2292 0.0000 0.0000
# 5 0.0000 0.0000 0.0000 0.0000 9.1234 0.0000
# 6 0.0000 0.0000 0.0000 0.0000 0.0000 21.1164
#
#
#
# Elastic Compliance Matrix: (Units=1/GPa)
#
#
# Indices 1 2 3 4 5 6 
#
# 1 0.018571 -0.002732 0.001644 0.000000 0.000000 0.000000
# 2 -0.002732 0.010333 -0.001414 0.000000 0.000000 0.000000
# 3 0.001644 -0.001414 0.056763 0.000000 0.000000 0.000000
# 4 0.000000 0.000000 0.000000 0.081771 0.000000 0.000000
# 5 0.000000 0.000000 0.000000 0.000000 0.109608 0.000000
# 6 0.000000 0.000000 0.000000 0.000000 0.000000 0.047357
#
#
# Mechanical properties :
#
#
# Convention : Reuss Voigt Hill
#
# Bulk Modulus (GPa) = 12.39742 22.86252 17.62997
# Shear Modulus (GPa) = 14.03337 19.11190 16.57264
#
# Velocity S-wave (km/s) = 2.42343 2.82814 2.63357
# Velocity P-wave (km/s) = 3.60819 4.49806 4.07747
#
# Compressibility (1/GPa) = 0.08066197
#
# Stress axis : x y z
#
# Youngs Moduli (GPa) = 53.84835 96.77991 17.61714
#
# Poissons Ratio (x) = 0.26444 -0.02897
# Poissons Ratio (y) = 0.14714 0.02491
# Poissons Ratio (z) = -0.08854 0.13684
#
# Static dielectric constant tensor:
#      x y z
#    x 2.067700 0.000000 0.000000 
#    y 0.000000 1.912860 0.000000 
#    z 0.000000 0.000000 2.008570 
# 
# From -- ./inp_files/22367.got.cif
#   From: 2010.05.17/outbox.cif.g08.bks.cpg/sg62_12_cif.got.tgz:22367.got - 2010.06.03 15:25:27.
