data_PCOD9461854
_publ_section_title
;
Structure prediction by ZEFSAII (Michael W. Deem and Ramdas Pophale) SiO2 
 PCOD9461854
Probable space group: P N M A
;
_chemical_formula_sum "Si O2"
_cell_formula_units_Z 56
_cell_length_a 5.268040
_cell_length_b 26.040882
_cell_length_c 19.604110
_cell_angle_alpha 90.000000
_cell_angle_beta 90.000000
_cell_angle_gamma 90.000000
_cell_volume 2689.378225
_symmetry_space_group_name_H-M "P N M A"
_symmetry_group_IT_number 62
_symmetry_cell_setting 'orthorhombic'
loop_
_space_group_symop_operation_xyz
x,y,z
1/2-x,-y,1/2+z
1/2+x,1/2-y,1/2-z
-x,1/2+y,-z
-x,-y,-z
1/2+x,y,1/2-z
1/2-x,1/2+y,1/2+z
x,1/2-y,z
loop_
_atom_site_type_symbol
_atom_site_label
_atom_site_fract_x
_atom_site_fract_y
_atom_site_fract_z
Si Si1 0.937620 0.503714 0.826939
Si Si2 0.935593 0.548464 0.676620
Si Si3 0.990245 0.164795 0.447805
Si Si4 0.059806 0.440678 0.511963
Si Si5 0.987717 0.831528 0.708122
Si Si6 0.060434 0.088087 0.908837
Si Si7 0.989983 0.307863 0.967490
O O1 0.906534 0.516729 0.747617
O O2 0.674546 0.522497 0.858985
O O3 0.164578 0.538429 0.857316
O O4 0.001365 0.445187 0.842330
O O5 0.985194 0.606234 0.700569
O O6 0.016135 0.102408 0.452589
O O7 0.223960 0.185260 0.492840
O O8 0.009770 0.184782 0.370634
O O9 0.721551 0.180372 0.480355
O O10 0.349244 0.433199 0.537434
O O11 0.000000 0.500000 0.500000
O O12 0.847452 0.422600 0.567201
O O13 0.237035 0.816473 0.750270
O O14 0.012704 0.148713 0.909681
O O15 0.012867 0.250000 0.942564
#
# Coordination Sequence:
#
# PCOD9461854 Si02
#       7
#     8   8   8   8   8   8   8
#     4  10  18  31  47  72 110 137 192 202 247 301
#     4  10  19  31  46  75 105 163 174 200 249 304
#     4  10  23  36  57  85 105 141 184 226 277 330
#     4  10  21  33  46  76 113 143 168 208 273 322
#     4  12  21  35  53  78 112 142 193 210 249 320
#     4  10  21  33  53  80 102 138 187 220 257 330
#     4  10  21  43  62  79 103 137 185 239 296 327
#
# _framework density 20.822658000000001
#
# number of rings (size 3 to 8) (size 9 to 14) (size 15 to 20)
#    0.000    1.714    2.857    2.571    4.000    0.000 
#    0.000    0.000    0.000    8.571    0.000    4.000 
#    0.000    0.000    0.000    0.000    0.000    0.000 
#
# Total GULP energy -312712.393573 kJ/mol
# GULP energy per Si atom -5584.149885 kJ/mol
# Density = 2.077526 g / cm^3
# Si number density = 20.822658 Si / 1000 Ang^3
#
#
#
# Elastic Constant Matrix: (Units=GPa)
#
#
# Indices 1 2 3 4 5 6 
#
# 1 125.7301 -11.7455 -0.3712 0.0000 0.0000 0.0000
# 2 -11.7455 120.8281 4.6961 0.0000 0.0000 0.0000
# 3 -0.3712 4.6961 30.8971 0.0000 0.0000 0.0000
# 4 0.0000 0.0000 0.0000 0.0306 0.0000 0.0000
# 5 0.0000 0.0000 0.0000 0.0000 19.7159 0.0000
# 6 0.0000 0.0000 0.0000 0.0000 0.0000 10.5881
#
#
#
# Elastic Compliance Matrix: (Units=1/GPa)
#
#
# Indices 1 2 3 4 5 6 
#
# 1 0.008026 0.000781 -0.000022 0.000000 0.000000 0.000000
# 2 0.000781 0.008401 -0.001268 0.000000 0.000000 0.000000
# 3 -0.000022 -0.001268 0.032558 0.000000 0.000000 0.000000
# 4 0.000000 0.000000 0.000000 32.661578 0.000000 0.000000
# 5 0.000000 0.000000 0.000000 0.000000 0.050721 0.000000
# 6 0.000000 0.000000 0.000000 0.000000 0.000000 0.094446
#
#
# Mechanical properties :
#
#
# Convention : Reuss Voigt Hill
#
# Bulk Modulus (GPa) = 20.84713 29.17935 25.01324
# Shear Modulus (GPa) = 0.15210 25.05864 12.60537
#
# Velocity S-wave (km/s) = 0.27056 3.47281 2.46309
# Velocity P-wave (km/s) = 3.18294 5.48856 4.48639
#
# Compressibility (1/GPa) = 0.04796824
#
# Stress axis : x y z
#
# Youngs Moduli (GPa) = 124.58806 119.02754 30.71452
#
# Poissons Ratio (x) = -0.09297 0.00068
# Poissons Ratio (y) = -0.09732 0.03893
# Poissons Ratio (z) = 0.00278 0.15088
#
# Static dielectric constant tensor:
#      x y z
#    x 1.826290 0.000000 0.000000 
#    y 0.000000 1.776090 0.000000 
#    z 0.000000 0.000000 1.829580 
# 
# From -- ./inp_files/25378.got.cif
#   From: 2010.05.17/outbox.cif.g08.bks.cpg/sg62_13_cif.got.tgz:25378.got - 2010.06.03 15:25:27.
