data_PCOD9461335
_publ_section_title
;
Structure prediction by ZEFSAII (Michael W. Deem and Ramdas Pophale) SiO2 
 PCOD9461335
Probable space group: P N M A
;
_chemical_formula_sum "Si O2"
_cell_formula_units_Z 56
_cell_length_a 18.464180
_cell_length_b 8.451041
_cell_length_c 22.741190
_cell_angle_alpha 90.000000
_cell_angle_beta 90.000000
_cell_angle_gamma 90.000000
_cell_volume 3548.570359
_symmetry_space_group_name_H-M "P N M A"
_symmetry_group_IT_number 62
_symmetry_cell_setting 'orthorhombic'
loop_
_space_group_symop_operation_xyz
x,y,z
1/2-x,-y,1/2+z
1/2+x,1/2-y,1/2-z
-x,1/2+y,-z
-x,-y,-z
1/2+x,y,1/2-z
1/2-x,1/2+y,1/2+z
x,1/2-y,z
loop_
_atom_site_type_symbol
_atom_site_label
_atom_site_fract_x
_atom_site_fract_y
_atom_site_fract_z
Si Si1 0.735653 0.563606 0.317747
Si Si2 0.507094 0.060418 0.066024
Si Si3 0.884453 0.062148 0.342182
Si Si4 0.583927 0.942764 0.280951
Si Si5 0.868079 0.439512 0.649345
Si Si6 0.725542 0.936003 0.690019
Si Si7 0.422565 0.561525 0.287025
O O1 0.738513 0.750000 0.330092
O O2 0.800145 0.478839 0.352275
O O3 0.652469 0.506523 0.320413
O O4 0.755313 0.533979 0.249109
O O5 0.511170 0.250000 0.066112
O O6 0.437195 0.013823 0.105159
O O7 0.577388 0.992736 0.098927
O O8 0.500000 0.000000 0.000000
O O9 0.891132 0.250000 0.332706
O O10 0.909197 0.977497 0.281967
O O11 0.584431 0.750000 0.280757
O O12 0.598943 0.990994 0.213065
O O13 0.504212 0.993491 0.300508
O O14 0.861907 0.250000 0.650064
O O15 0.788174 0.514619 0.645031
O O16 0.730546 0.750000 0.702946
O O17 0.642521 0.980070 0.677379
O O18 0.417936 0.750000 0.294947
#
# Coordination Sequence:
#
# PCOD9461335 Si02
#       7
#     8   8   8   8   8   8   8
#     4   9  16  27  42  61  83 115 151 180 216 265
#     4  11  23  35  48  66  88 116 154 194 231 269
#     4  10  19  30  42  61  86 113 146 186 227 264
#     4   8  15  25  41  64  87 113 148 181 212 258
#     4  10  18  32  48  62  83 115 151 187 227 267
#     4  10  18  27  39  61  88 115 146 181 219 263
#     4  10  16  26  43  63  87 119 151 179 214 260
#
# _framework density 15.781003
#
# number of rings (size 3 to 8) (size 9 to 14) (size 15 to 20)
#    0.000    2.286    1.429    6.000    0.000    1.714 
#    0.000    2.143    0.000    0.000    0.000    0.000 
#    0.000    1.143    0.000    3.429    0.000    5.286 
#
# Total GULP energy -311983.881080 kJ/mol
# GULP energy per Si atom -5571.140734 kJ/mol
# Density = 1.574508 g / cm^3
# Si number density = 15.781003 Si / 1000 Ang^3
#
#
#
# Elastic Constant Matrix: (Units=GPa)
#
#
# Indices 1 2 3 4 5 6 
#
# 1 158.6163 13.9696 34.9896 0.0000 0.0000 0.0000
# 2 13.9696 29.1255 8.1417 0.0000 0.0000 0.0000
# 3 34.9896 8.1417 40.5232 0.0000 0.0000 0.0000
# 4 0.0000 0.0000 0.0000 15.1405 0.0000 0.0000
# 5 0.0000 0.0000 0.0000 0.0000 13.5106 0.0000
# 6 0.0000 0.0000 0.0000 0.0000 0.0000 22.8087
#
#
#
# Elastic Compliance Matrix: (Units=1/GPa)
#
#
# Indices 1 2 3 4 5 6 
#
# 1 0.007896 -0.001993 -0.006417 0.000000 0.000000 0.000000
# 2 -0.001993 0.036880 -0.005689 0.000000 0.000000 0.000000
# 3 -0.006417 -0.005689 0.031361 0.000000 0.000000 0.000000
# 4 0.000000 0.000000 0.000000 0.066048 0.000000 0.000000
# 5 0.000000 0.000000 0.000000 0.000000 0.074016 0.000000
# 6 0.000000 0.000000 0.000000 0.000000 0.000000 0.043843
#
#
# Mechanical properties :
#
#
# Convention : Reuss Voigt Hill
#
# Bulk Modulus (GPa) = 20.85984 38.05190 29.45587
# Shear Modulus (GPa) = 16.43539 21.70290 19.06915
#
# Velocity S-wave (km/s) = 3.23068 3.71247 3.47992
# Velocity P-wave (km/s) = 5.21185 6.52237 5.90359
#
# Compressibility (1/GPa) = 0.04793900
#
# Stress axis : x y z
#
# Youngs Moduli (GPa) = 126.65275 27.11461 31.88687
#
# Poissons Ratio (x) = 0.05405 0.20462
# Poissons Ratio (y) = 0.25245 0.18140
# Poissons Ratio (z) = 0.81273 0.15425
#
# Static dielectric constant tensor:
#      x y z
#    x 1.602750 0.000000 0.000000 
#    y 0.000000 1.532000 0.000000 
#    z 0.000000 0.000000 1.481510 
# 
# From -- ./inp_files/27835.got.cif
#   From: 2010.05.17/outbox.cif.g08.bks.cpg/sg62_14_cif.got.tgz:27835.got - 2010.06.03 15:25:27.
