data_PCOD9461532
_publ_section_title
;
Structure prediction by ZEFSAII (Michael W. Deem and Ramdas Pophale) SiO2 
 PCOD9461532
Probable space group: P N M A
;
_chemical_formula_sum "Si O2"
_cell_formula_units_Z 48
_cell_length_a 17.532179
_cell_length_b 14.869116
_cell_length_c 9.863989
_cell_angle_alpha 90.000000
_cell_angle_beta 90.000000
_cell_angle_gamma 90.000000
_cell_volume 2571.423597
_symmetry_space_group_name_H-M "P N M A"
_symmetry_group_IT_number 62
_symmetry_cell_setting 'orthorhombic'
loop_
_space_group_symop_operation_xyz
x,y,z
1/2-x,-y,1/2+z
1/2+x,1/2-y,1/2-z
-x,1/2+y,-z
-x,-y,-z
1/2+x,y,1/2-z
1/2-x,1/2+y,1/2+z
x,1/2-y,z
loop_
_atom_site_type_symbol
_atom_site_label
_atom_site_fract_x
_atom_site_fract_y
_atom_site_fract_z
Si Si1 0.935069 0.564185 0.434036
Si Si2 0.464508 0.099977 0.483364
Si Si3 0.846312 0.993670 0.165182
Si Si4 0.124188 0.148410 0.067952
Si Si5 0.930807 0.151450 0.711597
Si Si6 0.832668 0.970753 0.675939
O O1 0.886799 0.521492 0.310137
O O2 0.873926 0.582024 0.552536
O O3 0.000000 0.500000 0.500000
O O4 0.989033 0.639841 0.367769
O O5 0.532689 0.151670 0.411714
O O6 0.448540 0.141665 0.628995
O O7 0.500000 0.000000 0.500000
O O8 0.388305 0.079610 0.401585
O O9 0.756760 0.011579 0.164315
O O10 0.860845 0.905146 0.072170
O O11 0.154448 0.250000 0.066982
O O12 0.154933 0.085410 0.187205
O O13 0.898130 0.250000 0.682337
O O14 0.875419 0.067577 0.680606
#
# Coordination Sequence:
#
# PCOD9461532 Si02
#       6
#     8   8   8   8   8   8
#     4  10  21  37  60  91 122 163 211 259 312 372
#     4  10  17  36  63  89 112 160 214 252 299 364
#     4  11  21  39  66  88 126 171 209 254 319 381
#     4  11  22  40  66  91 123 167 215 257 306 378
#     4  11  21  38  63  91 122 162 213 258 308 380
#     4  11  23  40  62  96 131 165 201 266 329 376
#
# _framework density 18.666702999999998
#
# number of rings (size 3 to 8) (size 9 to 14) (size 15 to 20)
#    0.000    1.333    6.667    2.500    0.000    1.333 
#    0.000    1.667    0.000    1.000    0.000    0.000 
#    0.000    0.000    0.000    0.000    0.000    0.000 
#
# Total GULP energy -267466.954721 kJ/mol
# GULP energy per Si atom -5572.228223 kJ/mol
# Density = 1.862422 g / cm^3
# Si number density = 18.666703 Si / 1000 Ang^3
#
#
#
# Elastic Constant Matrix: (Units=GPa)
#
#
# Indices 1 2 3 4 5 6 
#
# 1 145.3142 28.4030 35.5839 0.0000 0.0000 0.0000
# 2 28.4030 78.5774 21.4248 0.0000 0.0000 0.0000
# 3 35.5839 21.4248 96.5257 0.0000 0.0000 0.0000
# 4 0.0000 0.0000 0.0000 -4.8619 0.0000 0.0000
# 5 0.0000 0.0000 0.0000 0.0000 14.7477 0.0000
# 6 0.0000 0.0000 0.0000 0.0000 0.0000 -5.7084
#
#
#
# Elastic Compliance Matrix: (Units=1/GPa)
#
#
# Indices 1 2 3 4 5 6 
#
# 1 0.007905 -0.002196 -0.002427 0.000000 0.000000 0.000000
# 2 -0.002196 0.014156 -0.002333 0.000000 0.000000 0.000000
# 3 -0.002427 -0.002333 0.011772 0.000000 0.000000 0.000000
# 4 0.000000 0.000000 0.000000 -0.205679 0.000000 0.000000
# 5 0.000000 0.000000 0.000000 0.000000 0.067807 0.000000
# 6 0.000000 0.000000 0.000000 0.000000 0.000000 -0.175179
#
#
# Mechanical properties :
#
#
# Convention : Reuss Voigt Hill
#
# Bulk Modulus (GPa) = 50.19302 54.58230 52.38766
# Shear Modulus (GPa) = -19.32991 16.50251 -1.41370
#
# Velocity S-wave (km/s) = -3.22145 2.97654 -0.87120
# Velocity P-wave (km/s) = 3.62083 6.41225 5.20708
#
# Compressibility (1/GPa) = 0.01992309
#
# Stress axis : x y z
#
# Youngs Moduli (GPa) = 126.50088 70.64147 84.94499
#
# Poissons Ratio (x) = 0.15511 0.20615
# Poissons Ratio (y) = 0.27776 0.19814
# Poissons Ratio (z) = 0.30700 0.16478
#
# Static dielectric constant tensor:
#      x y z
#    x 1.660310 0.000000 0.000000 
#    y 0.000000 1.663500 0.000000 
#    z 0.000000 0.000000 1.671430 
# 
# From -- ./inp_files/7671.got.cif
#   From: 2010.05.17/outbox.cif.g08.bks.cpg/sg62_4_cif.got.tgz:7671.got - 2010.06.03 15:25:27.
