data_PCOD9461980
_publ_section_title
;
Structure prediction by ZEFSAII (Michael W. Deem and Ramdas Pophale) SiO2 
 PCOD9461980
Probable space group: P N M A
;
_chemical_formula_sum "Si O2"
_cell_formula_units_Z 40
_cell_length_a 10.640467
_cell_length_b 18.619574
_cell_length_c 11.371919
_cell_angle_alpha 90.000000
_cell_angle_beta 90.000000
_cell_angle_gamma 90.000000
_cell_volume 2253.015540
_symmetry_space_group_name_H-M "P N M A"
_symmetry_group_IT_number 62
_symmetry_cell_setting 'orthorhombic'
loop_
_space_group_symop_operation_xyz
x,y,z
1/2-x,-y,1/2+z
1/2+x,1/2-y,1/2-z
-x,1/2+y,-z
-x,-y,-z
1/2+x,y,1/2-z
1/2-x,1/2+y,1/2+z
x,1/2-y,z
loop_
_atom_site_type_symbol
_atom_site_label
_atom_site_fract_x
_atom_site_fract_y
_atom_site_fract_z
Si Si1 0.599975 0.078915 0.084991
Si Si2 0.203268 0.462798 0.976753
Si Si3 0.823675 0.331783 0.196544
Si Si4 0.503061 0.960922 0.673875
Si Si5 0.134302 0.833015 0.522210
O O1 0.694946 0.133526 0.150886
O O2 0.528986 0.036087 0.189176
O O3 0.499288 0.125964 0.014475
O O4 0.685530 0.021526 0.017792
O O5 0.109201 0.484415 0.871429
O O6 0.263258 0.384496 0.962958
O O7 0.120171 0.468277 0.094546
O O8 0.835826 0.250000 0.157426
O O9 0.935955 0.382444 0.152382
O O10 0.831699 0.333239 0.338196
O O11 0.130141 0.750000 0.484052
#
# Coordination Sequence:
#
# PCOD9461980 Si02
#       5
#     8   8   8   8   8
#     4  10  18  32  51  76 105 130 168 204 250 301
#     4  10  19  33  50  72 102 134 169 206 247 300
#     4   9  17  29  49  76 109 132 150 199 260 309
#     4   9  19  32  48  74 104 135 168 199 247 301
#     4  10  19  30  48  75 102 130 164 205 256 303
#
# _framework density 17.753983000000002
#
# number of rings (size 3 to 8) (size 9 to 14) (size 15 to 20)
#    0.000    2.400    2.000    1.200    0.000    1.600 
#    0.000    0.000    0.000    1.200    0.000    0.000 
#    0.000    0.000    0.000    0.000    0.000    0.000 
#
# Total GULP energy -223074.533710 kJ/mol
# GULP energy per Si atom -5576.863343 kJ/mol
# Density = 1.771357 g / cm^3
# Si number density = 17.753983 Si / 1000 Ang^3
#
#
#
# Elastic Constant Matrix: (Units=GPa)
#
#
# Indices 1 2 3 4 5 6 
#
# 1 109.3317 75.1348 26.3512 0.0000 0.0000 0.0000
# 2 75.1348 141.7469 35.4476 0.0000 0.0000 0.0000
# 3 26.3512 35.4476 22.4137 0.0000 0.0000 0.0000
# 4 0.0000 0.0000 0.0000 26.1149 0.0000 0.0000
# 5 0.0000 0.0000 0.0000 0.0000 25.0706 0.0000
# 6 0.0000 0.0000 0.0000 0.0000 0.0000 21.4118
#
#
#
# Elastic Compliance Matrix: (Units=1/GPa)
#
#
# Indices 1 2 3 4 5 6 
#
# 1 0.015317 -0.005981 -0.008549 0.000000 0.000000 0.000000
# 2 -0.005981 0.014006 -0.015119 0.000000 0.000000 0.000000
# 3 -0.008549 -0.015119 0.078577 0.000000 0.000000 0.000000
# 4 0.000000 0.000000 0.000000 0.038292 0.000000 0.000000
# 5 0.000000 0.000000 0.000000 0.000000 0.039887 0.000000
# 6 0.000000 0.000000 0.000000 0.000000 0.000000 0.046703
#
#
# Mechanical properties :
#
#
# Convention : Reuss Voigt Hill
#
# Bulk Modulus (GPa) = 20.57503 60.81772 40.69637
# Shear Modulus (GPa) = 16.21891 23.62337 19.92114
#
# Velocity S-wave (km/s) = 3.02576 3.65169 3.35336
# Velocity P-wave (km/s) = 4.88068 7.21872 6.16162
#
# Compressibility (1/GPa) = 0.04860261
#
# Stress axis : x y z
#
# Youngs Moduli (GPa) = 65.28525 71.39692 12.72639
#
# Poissons Ratio (x) = 0.42705 0.10879
# Poissons Ratio (y) = 0.39049 0.19241
# Poissons Ratio (z) = 0.55810 1.07944
#
# Static dielectric constant tensor:
#      x y z
#    x 1.637980 0.000000 0.000000 
#    y 0.000000 1.603950 0.000000 
#    z 0.000000 0.000000 1.603790 
# 
# From -- ./inp_files/12050.got.cif
#   From: 2010.05.17/outbox.cif.g08.bks.cpg/sg62_7_cif.got.tgz:12050.got - 2010.06.03 15:25:27.
