data_PCOD9461727
_publ_section_title
;
Structure prediction by ZEFSAII (Michael W. Deem and Ramdas Pophale) SiO2 
 PCOD9461727
Probable space group: P N M A
;
_chemical_formula_sum "Si O2"
_cell_formula_units_Z 56
_cell_length_a 19.616098
_cell_length_b 9.023604
_cell_length_c 18.325513
_cell_angle_alpha 90.000000
_cell_angle_beta 90.000000
_cell_angle_gamma 90.000000
_cell_volume 3243.760579
_symmetry_space_group_name_H-M "P N M A"
_symmetry_group_IT_number 62
_symmetry_cell_setting 'orthorhombic'
loop_
_space_group_symop_operation_xyz
x,y,z
1/2-x,-y,1/2+z
1/2+x,1/2-y,1/2-z
-x,1/2+y,-z
-x,-y,-z
1/2+x,y,1/2-z
1/2-x,1/2+y,1/2+z
x,1/2-y,z
loop_
_atom_site_type_symbol
_atom_site_label
_atom_site_fract_x
_atom_site_fract_y
_atom_site_fract_z
Si Si1 0.251834 0.573641 0.346570
Si Si2 0.960016 0.928125 0.836508
Si Si3 0.931406 0.926774 0.528063
Si Si4 0.359592 0.425975 0.548328
Si Si5 0.612002 0.572016 0.622523
Si Si6 0.382656 0.928237 0.809028
Si Si7 0.283916 0.571789 0.001627
O O1 0.252406 0.750000 0.342575
O O2 0.326807 0.506889 0.334490
O O3 0.190516 0.505749 0.299246
O O4 0.233141 0.516428 0.427954
O O5 0.959728 0.750000 0.841574
O O6 0.932825 0.968823 0.756522
O O7 0.037332 0.976480 0.851881
O O8 0.908198 0.990471 0.896375
O O9 0.940101 0.750000 0.526407
O O10 0.913791 0.968737 0.611896
O O11 0.862704 0.962026 0.481583
O O12 0.000000 0.000000 0.500000
O O13 0.367995 0.250000 0.558700
O O14 0.379641 0.459459 0.464149
O O15 0.278699 0.460961 0.555577
O O16 0.618835 0.750000 0.630914
O O17 0.372759 0.750000 0.809485
O O18 0.280159 0.750000 0.985897
#
# Coordination Sequence:
#
# PCOD9461727 Si02
#       7
#     8   8   8   8   8   8   8
#     4  10  18  29  50  75  93 118 161 207 242 283
#     4  10  20  33  51  73  99 133 169 201 239 293
#     4   9  17  31  52  73  94 122 160 204 249 293
#     4   9  17  30  49  72 101 133 163 201 248 288
#     4   9  18  33  51  72 100 134 166 198 241 293
#     4   9  19  36  52  68  96 133 166 200 248 302
#     4   8  16  32  50  69  97 131 158 189 241 298
#
# _framework density 17.263911
#
# number of rings (size 3 to 8) (size 9 to 14) (size 15 to 20)
#    0.000    2.857    0.000    3.429    0.000    5.714 
#    0.000    1.429    0.000    5.143    0.000    0.000 
#    0.000    0.000    0.000    0.000    0.000    0.000 
#
# Total GULP energy -311900.910713 kJ/mol
# GULP energy per Si atom -5569.659120 kJ/mol
# Density = 1.722462 g / cm^3
# Si number density = 17.263911 Si / 1000 Ang^3
#
#
#
# Elastic Constant Matrix: (Units=GPa)
#
#
# Indices 1 2 3 4 5 6 
#
# 1 209.3644 50.8254 63.6356 0.0000 0.0000 0.0000
# 2 50.8254 24.9711 21.9496 0.0000 0.0000 0.0000
# 3 63.6356 21.9496 45.2940 0.0000 0.0000 0.0000
# 4 0.0000 0.0000 0.0000 17.0720 0.0000 0.0000
# 5 0.0000 0.0000 0.0000 0.0000 17.5127 0.0000
# 6 0.0000 0.0000 0.0000 0.0000 0.0000 32.4174
#
#
#
# Elastic Compliance Matrix: (Units=1/GPa)
#
#
# Indices 1 2 3 4 5 6 
#
# 1 0.010859 -0.015142 -0.007919 0.000000 0.000000 0.000000
# 2 -0.015142 0.090876 -0.022766 0.000000 0.000000 0.000000
# 3 -0.007919 -0.022766 0.044236 0.000000 0.000000 0.000000
# 4 0.000000 0.000000 0.000000 0.058576 0.000000 0.000000
# 5 0.000000 0.000000 0.000000 0.000000 0.057102 0.000000
# 6 0.000000 0.000000 0.000000 0.000000 0.000000 0.030848
#
#
# Mechanical properties :
#
#
# Convention : Reuss Voigt Hill
#
# Bulk Modulus (GPa) = 18.40987 61.38341 39.89664
# Shear Modulus (GPa) = 12.42999 22.94833 17.68916
#
# Velocity S-wave (km/s) = 2.68619 3.64987 3.20446
# Velocity P-wave (km/s) = 4.50641 7.30720 6.07054
#
# Compressibility (1/GPa) = 0.05431868
#
# Stress axis : x y z
#
# Youngs Moduli (GPa) = 92.08980 11.00403 22.60622
#
# Poissons Ratio (x) = 0.16662 0.17901
# Poissons Ratio (y) = 1.39438 0.51465
# Poissons Ratio (z) = 0.72923 0.25051
#
# Static dielectric constant tensor:
#      x y z
#    x 1.618430 0.000000 0.000000 
#    y 0.000000 1.575380 0.000000 
#    z 0.000000 0.000000 1.575370 
# 
# From -- ./inp_files/27592.got.cif
#   From: 2010.05.17/outbox.cif.g08.bks.cpg/sg62_14_cif.got.tgz:27592.got - 2010.06.03 15:25:27.
