data_PCOD9461924
_publ_section_title
;
Structure prediction by ZEFSAII (Michael W. Deem and Ramdas Pophale) SiO2 
 PCOD9461924
Probable space group: P N M A
;
_chemical_formula_sum "Si O2"
_cell_formula_units_Z 56
_cell_length_a 13.933335
_cell_length_b 23.614184
_cell_length_c 7.628604
_cell_angle_alpha 90.000000
_cell_angle_beta 90.000000
_cell_angle_gamma 90.000000
_cell_volume 2509.996369
_symmetry_space_group_name_H-M "P N M A"
_symmetry_group_IT_number 62
_symmetry_cell_setting 'orthorhombic'
loop_
_space_group_symop_operation_xyz
x,y,z
1/2-x,-y,1/2+z
1/2+x,1/2-y,1/2-z
-x,1/2+y,-z
-x,-y,-z
1/2+x,y,1/2-z
1/2-x,1/2+y,1/2+z
x,1/2-y,z
loop_
_atom_site_type_symbol
_atom_site_label
_atom_site_fract_x
_atom_site_fract_y
_atom_site_fract_z
Si Si1 0.019281 0.097553 0.080589
Si Si2 0.616649 0.092448 0.794573
Si Si3 0.243903 0.812514 0.300276
Si Si4 0.875980 0.313360 0.155434
Si Si5 0.669738 0.186362 0.303922
Si Si6 0.071811 0.859092 0.476165
Si Si7 0.919578 0.025423 0.372684
O O1 0.930448 0.139719 0.044998
O O2 0.974377 0.047652 0.198160
O O3 0.095280 0.134874 0.193793
O O4 0.070791 0.083976 0.899180
O O5 0.701934 0.136992 0.794095
O O6 0.531676 0.120981 0.909662
O O7 0.647238 0.028923 0.846951
O O8 0.257822 0.750000 0.223493
O O9 0.289584 0.811552 0.496602
O O10 0.133337 0.827433 0.330680
O O11 0.893165 0.250000 0.092086
O O12 0.762684 0.322596 0.182588
O O13 0.921463 0.320711 0.350689
O O14 0.630578 0.250000 0.267674
O O15 0.122664 0.918198 0.538115
O O16 0.000000 0.000000 0.500000
#
# Coordination Sequence:
#
# PCOD9461924 Si02
#       7
#     8   8   8   8   8   8   8
#     4  10  18  31  53  76 102 135 171 222 274 311
#     4  10  20  35  54  80 108 136 175 224 273 315
#     4   9  18  33  54  80 109 141 176 217 272 328
#     4   9  17  31  51  75 103 138 177 211 258 326
#     4   8  15  29  49  73 102 134 170 213 263 322
#     4   9  18  35  55  75 104 144 180 217 262 321
#     4   9  19  36  54  73 101 138 178 216 259 321
#
# _framework density 22.310789
#
# number of rings (size 3 to 8) (size 9 to 14) (size 15 to 20)
#    0.000    2.857    0.000    2.143    0.000    1.714 
#    0.000   17.143    0.000    5.143    0.000    0.000 
#    0.000    0.000    0.000    0.000    0.000    0.000 
#
# Total GULP energy -312461.806048 kJ/mol
# GULP energy per Si atom -5579.675108 kJ/mol
# Density = 2.226001 g / cm^3
# Si number density = 22.310789 Si / 1000 Ang^3
#
#
#
# Elastic Constant Matrix: (Units=GPa)
#
#
# Indices 1 2 3 4 5 6 
#
# 1 25.9930 -5.1732 0.7522 0.0000 0.0000 0.0000
# 2 -5.1732 106.5723 7.3449 0.0000 0.0000 0.0000
# 3 0.7522 7.3449 51.8787 0.0000 0.0000 0.0000
# 4 0.0000 0.0000 0.0000 22.8519 0.0000 0.0000
# 5 0.0000 0.0000 0.0000 0.0000 23.1333 0.0000
# 6 0.0000 0.0000 0.0000 0.0000 0.0000 21.7024
#
#
#
# Elastic Compliance Matrix: (Units=1/GPa)
#
#
# Indices 1 2 3 4 5 6 
#
# 1 0.038883 0.001945 -0.000839 0.000000 0.000000 0.000000
# 2 0.001945 0.009573 -0.001384 0.000000 0.000000 0.000000
# 3 -0.000839 -0.001384 0.019484 0.000000 0.000000 0.000000
# 4 0.000000 0.000000 0.000000 0.043760 0.000000 0.000000
# 5 0.000000 0.000000 0.000000 0.000000 0.043228 0.000000
# 6 0.000000 0.000000 0.000000 0.000000 0.000000 0.046078
#
#
# Mechanical properties :
#
#
# Convention : Reuss Voigt Hill
#
# Bulk Modulus (GPa) = 14.84001 21.14351 17.99176
# Shear Modulus (GPa) = 22.31917 25.63883 23.97900
#
# Velocity S-wave (km/s) = 3.16630 3.39361 3.28193
# Velocity P-wave (km/s) = 4.47585 4.98527 4.73741
#
# Compressibility (1/GPa) = 0.06738541
#
# Stress axis : x y z
#
# Youngs Moduli (GPa) = 25.71796 104.45954 51.32471
#
# Poissons Ratio (x) = -0.20320 0.04307
# Poissons Ratio (y) = -0.05003 0.07101
# Poissons Ratio (z) = 0.02158 0.14452
#
# Static dielectric constant tensor:
#      x y z
#    x 1.810270 0.000000 0.000000 
#    y 0.000000 1.828870 0.000000 
#    z 0.000000 0.000000 1.880750 
# 
# From -- ./inp_files/6772.got.cif
#   From: 2010.05.17/outbox.cif.g08.bks.cpg/sg62_4_cif.got.tgz:6772.got - 2010.06.03 15:25:27.
