data_PCOD9461147
_publ_section_title
;
Structure prediction by ZEFSAII (Michael W. Deem and Ramdas Pophale) SiO2 
 PCOD9461147
Probable space group: P B C A
;
_chemical_formula_sum "Si O2"
_cell_formula_units_Z 24
_cell_length_a 9.668691
_cell_length_b 19.257509
_cell_length_c 4.798038
_cell_angle_alpha 90.000000
_cell_angle_beta 90.000000
_cell_angle_gamma 90.000000
_cell_volume 893.370225
_symmetry_space_group_name_H-M "P B C A"
_symmetry_group_IT_number 61
_symmetry_cell_setting 'orthorhombic'
loop_
_space_group_symop_operation_xyz
x,y,z
1/2-x,-y,1/2+z
1/2+x,1/2-y,-z
-x,1/2+y,1/2-z
-x,-y,-z
1/2+x,y,1/2-z
1/2-x,1/2+y,z
x,1/2-y,1/2+z
loop_
_atom_site_type_symbol
_atom_site_label
_atom_site_fract_x
_atom_site_fract_y
_atom_site_fract_z
Si Si1 0.024865 0.883383 0.340884
Si Si2 0.848928 0.489343 0.735428
Si Si3 0.745512 0.296072 0.477424
O O1 0.901712 0.831840 0.424208
O O2 0.090295 0.922044 0.609561
O O3 0.132548 0.842096 0.151556
O O4 0.956841 0.948758 0.179286
O O5 0.751177 0.478159 0.474232
O O6 0.754602 0.275435 0.799711
#
# Coordination Sequence:
#
# PCOD9461147 Si02
#       3
#     8   8   8
#     4  11  26  50  76 110 148 194 254 306 380 440
#     4  11  26  47  78 113 150 195 244 325 378 447
#     4  12  28  48  74 106 150 200 250 302 364 450
#
# _framework density 26.864559
#
# number of rings (size 3 to 8) (size 9 to 14) (size 15 to 20)
#    0.000    0.667    3.333    2.000    4.667   10.667 
#    0.000    0.000    0.000    0.000    0.000    0.000 
#    0.000    0.000    0.000    0.000    0.000    0.000 
#
# Total GULP energy -134895.821551 kJ/mol
# GULP energy per Si atom -5620.659231 kJ/mol
# Density = 2.680341 g / cm^3
# Si number density = 26.864559 Si / 1000 Ang^3
#
#
#
# Elastic Constant Matrix: (Units=GPa)
#
#
# Indices 1 2 3 4 5 6 
#
# 1 140.6149 49.0655 0.1829 0.0000 0.0000 0.0000
# 2 49.0655 127.6387 7.4320 0.0000 0.0000 0.0000
# 3 0.1829 7.4320 76.8761 0.0000 0.0000 0.0000
# 4 0.0000 0.0000 0.0000 63.4094 0.0000 0.0000
# 5 0.0000 0.0000 0.0000 0.0000 16.4896 0.0000
# 6 0.0000 0.0000 0.0000 0.0000 0.0000 72.7862
#
#
#
# Elastic Compliance Matrix: (Units=1/GPa)
#
#
# Indices 1 2 3 4 5 6 
#
# 1 0.008220 -0.003176 0.000288 0.000000 0.000000 0.000000
# 2 -0.003176 0.009106 -0.000873 0.000000 0.000000 0.000000
# 3 0.000288 -0.000873 0.013092 0.000000 0.000000 0.000000
# 4 0.000000 0.000000 0.000000 0.015771 0.000000 0.000000
# 5 0.000000 0.000000 0.000000 0.000000 0.060644 0.000000
# 6 0.000000 0.000000 0.000000 0.000000 0.000000 0.013739
#
#
# Mechanical properties :
#
#
# Convention : Reuss Voigt Hill
#
# Bulk Modulus (GPa) = 43.67898 50.94337 47.31118
# Shear Modulus (GPa) = 36.83888 49.76701 43.30294
#
# Velocity S-wave (km/s) = 3.70710 4.30876 4.01920
# Velocity P-wave (km/s) = 5.88368 6.61499 6.26002
#
# Compressibility (1/GPa) = 0.02289431
#
# Stress axis : x y z
#
# Youngs Moduli (GPa) = 121.66017 109.81179 76.38459
#
# Poissons Ratio (x) = 0.34881 -0.02196
# Poissons Ratio (y) = 0.38645 0.06667
# Poissons Ratio (z) = -0.03498 0.09585
#
# Static dielectric constant tensor:
#      x y z
#    x 2.119620 0.000000 0.000000 
#    y 0.000000 2.116770 0.000000 
#    z 0.000000 0.000000 2.063730 
# 
# From -- ./inp_files/51.got.cif
#   From: 2010.05.17/outbox.cif.g08.bks.cpg/sg61_1_cif.got.tgz:51.got - 2010.06.03 15:17:17.
