data_PCOD9461336
_publ_section_title
;
Structure prediction by ZEFSAII (Michael W. Deem and Ramdas Pophale) SiO2 
 PCOD9461336
Probable space group: P N M A
;
_chemical_formula_sum "Si O2"
_cell_formula_units_Z 56
_cell_length_a 9.374688
_cell_length_b 22.121437
_cell_length_c 17.869429
_cell_angle_alpha 90.000000
_cell_angle_beta 90.000000
_cell_angle_gamma 90.000000
_cell_volume 3705.790241
_symmetry_space_group_name_H-M "P N M A"
_symmetry_group_IT_number 62
_symmetry_cell_setting 'orthorhombic'
loop_
_space_group_symop_operation_xyz
x,y,z
1/2-x,-y,1/2+z
1/2+x,1/2-y,1/2-z
-x,1/2+y,-z
-x,-y,-z
1/2+x,y,1/2-z
1/2-x,1/2+y,1/2+z
x,1/2-y,z
loop_
_atom_site_type_symbol
_atom_site_label
_atom_site_fract_x
_atom_site_fract_y
_atom_site_fract_z
Si Si1 0.924877 0.934969 0.990314
Si Si2 0.299233 0.976964 0.657265
Si Si3 0.005528 0.502484 0.293849
Si Si4 0.570579 0.180287 0.884012
Si Si5 0.679533 0.591510 0.109685
Si Si6 0.641086 0.614338 0.403511
Si Si7 0.585083 0.129011 0.721186
O O1 0.864446 0.934207 0.906723
O O2 0.792932 0.926451 0.046981
O O3 0.046618 0.890533 0.021624
O O4 0.000000 0.000000 0.000000
O O5 0.393481 0.971819 0.732317
O O6 0.315971 0.046512 0.625707
O O7 0.132086 0.967698 0.674847
O O8 0.103643 0.531615 0.358209
O O9 0.939803 0.561245 0.252085
O O10 0.550217 0.250000 0.901875
O O11 0.443024 0.138074 0.913383
O O12 0.718727 0.153381 0.913303
O O13 0.579512 0.170908 0.793617
O O14 0.766611 0.624506 0.176774
O O15 0.539697 0.641084 0.338379
#
# Coordination Sequence:
#
# PCOD9461336 Si02
#       7
#     8   8   8   8   8   8   8
#     4   9  20  32  46  63  87 124 169 187 224 286
#     4  10  17  29  45  66  88 123 160 185 226 284
#     4  10  16  26  45  65  92 121 152 188 230 271
#     4  11  20  29  44  67  90 122 168 206 231 257
#     4  10  18  31  44  64  96 128 160 201 228 265
#     4   9  17  31  43  59  91 123 156 199 226 265
#     4   9  16  28  43  58  88 129 158 194 228 254
#
# _framework density 15.111485999999999
#
# number of rings (size 3 to 8) (size 9 to 14) (size 15 to 20)
#    0.000    2.286    4.286    2.571    0.000    2.857 
#    0.000    2.143    0.000    0.000    0.000    0.000 
#    0.000    0.000    0.000   12.857    0.000    0.000 
#
# Total GULP energy -311908.397125 kJ/mol
# GULP energy per Si atom -5569.792806 kJ/mol
# Density = 1.507709 g / cm^3
# Si number density = 15.111486 Si / 1000 Ang^3
#
#
#
# Elastic Constant Matrix: (Units=GPa)
#
#
# Indices 1 2 3 4 5 6 
#
# 1 120.3336 29.9532 40.8000 0.0000 0.0000 0.0000
# 2 29.9532 30.2904 30.7764 0.0000 0.0000 0.0000
# 3 40.8000 30.7764 50.6777 0.0000 0.0000 0.0000
# 4 0.0000 0.0000 0.0000 7.0777 0.0000 0.0000
# 5 0.0000 0.0000 0.0000 0.0000 12.9029 0.0000
# 6 0.0000 0.0000 0.0000 0.0000 0.0000 7.0086
#
#
#
# Elastic Compliance Matrix: (Units=1/GPa)
#
#
# Indices 1 2 3 4 5 6 
#
# 1 0.011740 -0.005238 -0.006271 0.000000 0.000000 0.000000
# 2 -0.005238 0.088544 -0.049556 0.000000 0.000000 0.000000
# 3 -0.006271 -0.049556 0.054876 0.000000 0.000000 0.000000
# 4 0.000000 0.000000 0.000000 0.141289 0.000000 0.000000
# 5 0.000000 0.000000 0.000000 0.000000 0.077502 0.000000
# 6 0.000000 0.000000 0.000000 0.000000 0.000000 0.142683
#
#
# Mechanical properties :
#
#
# Convention : Reuss Voigt Hill
#
# Bulk Modulus (GPa) = 30.27406 44.92899 37.60152
# Shear Modulus (GPa) = 7.69499 12.04930 9.87215
#
# Velocity S-wave (km/s) = 2.25903 2.82682 2.55872
# Velocity P-wave (km/s) = 5.18474 6.36009 5.80226
#
# Compressibility (1/GPa) = 0.03303158
#
# Stress axis : x y z
#
# Youngs Moduli (GPa) = 85.17692 11.29380 18.22287
#
# Poissons Ratio (x) = 0.05916 0.11427
# Poissons Ratio (y) = 0.44616 0.90304
# Poissons Ratio (z) = 0.53414 0.55967
#
# Static dielectric constant tensor:
#      x y z
#    x 1.537570 0.000000 0.000000 
#    y 0.000000 1.472330 0.000000 
#    z 0.000000 0.000000 1.520700 
# 
# From -- ./inp_files/22513.got.cif
#   From: 2010.05.17/outbox.cif.g08.bks.cpg/sg62_12_cif.got.tgz:22513.got - 2010.06.03 15:25:27.
