data_PCOD9461415
_publ_section_title
;
Structure prediction by ZEFSAII (Michael W. Deem and Ramdas Pophale) SiO2 
 PCOD9461415
Probable space group: P N M A
;
_chemical_formula_sum "Si O2"
_cell_formula_units_Z 56
_cell_length_a 14.393952
_cell_length_b 18.699519
_cell_length_c 13.541874
_cell_angle_alpha 90.000000
_cell_angle_beta 90.000000
_cell_angle_gamma 90.000000
_cell_volume 3644.930520
_symmetry_space_group_name_H-M "P N M A"
_symmetry_group_IT_number 62
_symmetry_cell_setting 'orthorhombic'
loop_
_space_group_symop_operation_xyz
x,y,z
1/2-x,-y,1/2+z
1/2+x,1/2-y,1/2-z
-x,1/2+y,-z
-x,-y,-z
1/2+x,y,1/2-z
1/2-x,1/2+y,1/2+z
x,1/2-y,z
loop_
_atom_site_type_symbol
_atom_site_label
_atom_site_fract_x
_atom_site_fract_y
_atom_site_fract_z
Si Si1 0.178371 0.668700 0.947193
Si Si2 0.030345 0.332676 0.966736
Si Si3 0.902622 0.969642 0.955046
Si Si4 0.767143 0.665933 0.344831
Si Si5 0.800203 0.021556 0.140835
Si Si6 0.865914 0.049143 0.750675
Si Si7 0.434079 0.910663 0.257359
O O1 0.188172 0.750000 0.910337
O O2 0.189670 0.606786 0.866708
O O3 0.248769 0.657228 0.038473
O O4 0.076545 0.662762 0.998021
O O5 0.058057 0.250000 0.967207
O O6 0.043748 0.366329 0.857928
O O7 0.087593 0.384415 0.039128
O O8 0.885459 0.002060 0.848471
O O9 0.823298 0.994640 0.030354
O O10 0.000000 0.000000 0.000000
O O11 0.758051 0.750000 0.322251
O O12 0.690475 0.619286 0.286430
O O13 0.865985 0.635440 0.310515
O O14 0.701142 0.994420 0.178368
O O15 0.877072 0.981406 0.208580
O O16 0.967054 0.069970 0.710784
#
# Coordination Sequence:
#
# PCOD9461415 Si02
#       7
#     8   8   8   8   8   8   8
#     4  10  17  30  48  69  96 126 164 206 244 288
#     4  10  17  27  50  74  96 124 159 208 258 288
#     4  11  16  33  51  71 104 127 167 210 245 292
#     4  10  19  28  46  72  99 127 160 201 250 297
#     4  10  19  31  50  73  97 129 164 203 249 288
#     4  11  19  31  52  72 100 131 165 202 252 297
#     4  10  18  30  46  72 103 124 158 203 251 305
#
# _framework density 15.363804999999999
#
# number of rings (size 3 to 8) (size 9 to 14) (size 15 to 20)
#    0.000    1.714    7.143    0.429    0.000    0.571 
#    0.000    1.429    0.000    0.857    0.000    0.000 
#    0.000    0.000    0.000    0.000    0.000    0.000 
#
# Total GULP energy -312108.264876 kJ/mol
# GULP energy per Si atom -5573.361873 kJ/mol
# Density = 1.532884 g / cm^3
# Si number density = 15.363805 Si / 1000 Ang^3
#
#
#
# Elastic Constant Matrix: (Units=GPa)
#
#
# Indices 1 2 3 4 5 6 
#
# 1 96.7742 49.4207 25.3909 0.0000 0.0000 0.0000
# 2 49.4207 148.1386 33.3167 0.0000 0.0000 0.0000
# 3 25.3909 33.3167 33.9018 0.0000 0.0000 0.0000
# 4 0.0000 0.0000 0.0000 20.4178 0.0000 0.0000
# 5 0.0000 0.0000 0.0000 0.0000 16.3697 0.0000
# 6 0.0000 0.0000 0.0000 0.0000 0.0000 21.5426
#
#
#
# Elastic Compliance Matrix: (Units=1/GPa)
#
#
# Indices 1 2 3 4 5 6 
#
# 1 0.013780 -0.002922 -0.007449 0.000000 0.000000 0.000000
# 2 -0.002922 0.009285 -0.006937 0.000000 0.000000 0.000000
# 3 -0.007449 -0.006937 0.041893 0.000000 0.000000 0.000000
# 4 0.000000 0.000000 0.000000 0.048977 0.000000 0.000000
# 5 0.000000 0.000000 0.000000 0.000000 0.061089 0.000000
# 6 0.000000 0.000000 0.000000 0.000000 0.000000 0.046420
#
#
# Mechanical properties :
#
#
# Convention : Reuss Voigt Hill
#
# Bulk Modulus (GPa) = 32.95667 55.00790 43.98229
# Shear Modulus (GPa) = 18.78477 23.04509 20.91493
#
# Velocity S-wave (km/s) = 3.50045 3.87713 3.69360
# Velocity P-wave (km/s) = 6.15102 7.47825 6.84687
#
# Compressibility (1/GPa) = 0.03034287
#
# Stress axis : x y z
#
# Youngs Moduli (GPa) = 72.56951 107.69750 23.87030
#
# Poissons Ratio (x) = 0.31467 0.17781
# Poissons Ratio (y) = 0.21203 0.16558
# Poissons Ratio (z) = 0.54058 0.74707
#
# Static dielectric constant tensor:
#      x y z
#    x 1.521290 0.000000 0.000000 
#    y 0.000000 1.547100 0.000000 
#    z 0.000000 0.000000 1.491870 
# 
# From -- ./inp_files/19198.got.cif
#   From: 2010.05.17/outbox.cif.g08.bks.cpg/sg62_10_cif.got.tgz:19198.got - 2010.06.03 15:25:27.
