data_PCOD9461145
_publ_section_title
;
Structure prediction by ZEFSAII (Michael W. Deem and Ramdas Pophale) SiO2 
 PCOD9461145
Probable space group: P B C A
;
_chemical_formula_sum "Si O2"
_cell_formula_units_Z 36
_cell_length_a 19.848035
_cell_length_b 7.814846
_cell_length_c 8.657033
_cell_angle_alpha 90.000000
_cell_angle_beta 90.000000
_cell_angle_gamma 90.000000
_cell_volume 1342.786648
_symmetry_space_group_name_H-M "P B C A"
_symmetry_group_IT_number 61
_symmetry_cell_setting 'orthorhombic'
loop_
_space_group_symop_operation_xyz
x,y,z
1/2-x,-y,1/2+z
1/2+x,1/2-y,-z
-x,1/2+y,1/2-z
-x,-y,-z
1/2+x,y,1/2-z
1/2-x,1/2+y,z
x,1/2-y,1/2+z
loop_
_atom_site_type_symbol
_atom_site_label
_atom_site_fract_x
_atom_site_fract_y
_atom_site_fract_z
Si Si1 0.000000 0.000000 0.000000
Si Si2 0.553511 0.133785 0.179446
Si Si3 0.792440 0.313276 0.392470
Si Si4 0.300741 0.888028 0.827637
Si Si5 0.929520 0.280676 0.010025
O O1 0.954837 0.900058 0.859787
O O2 0.993972 0.243526 0.891368
O O3 0.627704 0.195152 0.132431
O O4 0.431433 0.092264 0.418973
O O5 0.548508 0.946164 0.101557
O O6 0.818148 0.433439 0.254394
O O7 0.755199 0.399233 0.538594
O O8 0.733573 0.211079 0.311244
O O9 0.856541 0.198345 0.437998
#
# Coordination Sequence:
#
# PCOD9461145 Si02
#       5
#     4   8   8   8   8
#     4  12  24  42  78 104 140 190 238 306 362 440
#     4  11  26  47  72 110 145 194 244 305 370 442
#     4  12  27  50  76 107 153 200 250 311 374 446
#     4  12  27  49  75 109 149 201 252 309 376 448
#     4  11  26  49  72 108 150 190 244 307 372 440
#
# _framework density 26.809919000000001
#
# number of rings (size 3 to 8) (size 9 to 14) (size 15 to 20)
#    0.000    0.444    2.222    5.333    6.222    1.778 
#    0.000    0.000    0.000    0.000    0.000    0.000 
#    0.000    0.000    0.000    0.000    0.000    0.000 
#
# Total GULP energy -200599.123692 kJ/mol
# GULP energy per Si atom -5572.197880 kJ/mol
# Density = 2.674890 g / cm^3
# Si number density = 26.809919 Si / 1000 Ang^3
#
#
#
# Elastic Constant Matrix: (Units=GPa)
#
#
# Indices 1 2 3 4 5 6 
#
# 1 167.3457 12.9351 60.0602 0.0000 0.0000 0.0000
# 2 12.9351 40.0895 21.7478 0.0000 0.0000 0.0000
# 3 60.0602 21.7478 136.2482 0.0000 0.0000 0.0000
# 4 0.0000 0.0000 0.0000 56.5702 0.0000 0.0000
# 5 0.0000 0.0000 0.0000 0.0000 52.7950 0.0000
# 6 0.0000 0.0000 0.0000 0.0000 0.0000 39.7625
#
#
#
# Elastic Compliance Matrix: (Units=1/GPa)
#
#
# Indices 1 2 3 4 5 6 
#
# 1 0.007114 -0.000651 -0.003032 0.000000 0.000000 0.000000
# 2 -0.000651 0.027368 -0.004082 0.000000 0.000000 0.000000
# 3 -0.003032 -0.004082 0.009328 0.000000 0.000000 0.000000
# 4 0.000000 0.000000 0.000000 0.017677 0.000000 0.000000
# 5 0.000000 0.000000 0.000000 0.000000 0.018941 0.000000
# 6 0.000000 0.000000 0.000000 0.000000 0.000000 0.025149
#
#
# Mechanical properties :
#
#
# Convention : Reuss Voigt Hill
#
# Bulk Modulus (GPa) = 35.35906 59.24106 47.30006
# Shear Modulus (GPa) = 38.30422 46.42156 42.36289
#
# Velocity S-wave (km/s) = 3.78396 4.16565 3.97938
# Velocity P-wave (km/s) = 5.68406 6.72916 6.22857
#
# Compressibility (1/GPa) = 0.02828130
#
# Stress axis : x y z
#
# Youngs Moduli (GPa) = 140.56409 36.53858 107.20752
#
# Poissons Ratio (x) = 0.02377 0.32507
# Poissons Ratio (y) = 0.09144 0.43759
# Poissons Ratio (z) = 0.42622 0.14914
#
# Static dielectric constant tensor:
#      x y z
#    x 2.100060 0.000000 0.000000 
#    y 0.000000 0.615390 0.000000 
#    z 0.000000 0.000000 1.677980 
# 
# From -- ./inp_files/3794.got.cif
#   From: 2010.05.17/outbox.cif.g08.bks.cpg/sg61_2_cif.got.tgz:3794.got - 2010.06.03 15:17:17.
