data_PCOD9461137
_publ_section_title
;
Structure prediction by ZEFSAII (Michael W. Deem and Ramdas Pophale) SiO2 
 PCOD9461137
Probable space group: P B C A
;
_chemical_formula_sum "Si O2"
_cell_formula_units_Z 40
_cell_length_a 8.292041
_cell_length_b 10.413341
_cell_length_c 17.572494
_cell_angle_alpha 90.000000
_cell_angle_beta 90.000000
_cell_angle_gamma 90.000000
_cell_volume 1517.347085
_symmetry_space_group_name_H-M "P B C A"
_symmetry_group_IT_number 61
_symmetry_cell_setting 'orthorhombic'
loop_
_space_group_symop_operation_xyz
x,y,z
1/2-x,-y,1/2+z
1/2+x,1/2-y,-z
-x,1/2+y,1/2-z
-x,-y,-z
1/2+x,y,1/2-z
1/2-x,1/2+y,z
x,1/2-y,1/2+z
loop_
_atom_site_type_symbol
_atom_site_label
_atom_site_fract_x
_atom_site_fract_y
_atom_site_fract_z
Si Si1 0.983021 0.198879 0.607576
Si Si2 0.224085 0.372427 0.696472
Si Si3 0.242653 0.508088 0.842603
Si Si4 0.920631 0.369283 0.353414
Si Si5 0.228564 0.861267 0.993473
O O1 0.917293 0.092825 0.665016
O O2 0.829732 0.244633 0.558906
O O3 0.067455 0.311034 0.656086
O O4 0.114706 0.157434 0.545174
O O5 0.228565 0.386429 0.786998
O O6 0.363391 0.274178 0.669124
O O7 0.210499 0.522691 0.672749
O O8 0.404796 0.587100 0.825514
O O9 0.245258 0.468430 0.930705
O O10 0.912563 0.380533 0.444993
#
# Coordination Sequence:
#
# PCOD9461137 Si02
#       5
#     8   8   8   8   8
#     4  11  26  53  79 123 162 222 277 347 418 499
#     4  11  29  53  76 122 171 215 272 338 423 496
#     4  12  27  52  86 120 168 220 283 344 424 489
#     4  11  27  53  85 117 169 216 279 335 420 500
#     4  11  25  51  83 118 166 217 284 345 416 495
#
# _framework density 26.361799000000001
#
# number of rings (size 3 to 8) (size 9 to 14) (size 15 to 20)
#    0.000    0.800    2.000    2.400    8.400    4.800 
#   18.000    0.000    0.000    0.000    0.000    0.000 
#    0.000    0.000    0.000    0.000    0.000    0.000 
#
# Total GULP energy -224108.713732 kJ/mol
# GULP energy per Si atom -5602.717843 kJ/mol
# Density = 2.630180 g / cm^3
# Si number density = 26.361799 Si / 1000 Ang^3
#
#
#
# Elastic Constant Matrix: (Units=GPa)
#
#
# Indices 1 2 3 4 5 6 
#
# 1 122.1435 55.9951 44.3904 0.0000 0.0000 0.0000
# 2 55.9951 84.7871 54.0982 0.0000 0.0000 0.0000
# 3 44.3904 54.0982 147.7026 0.0000 0.0000 0.0000
# 4 0.0000 0.0000 0.0000 51.8457 0.0000 0.0000
# 5 0.0000 0.0000 0.0000 0.0000 28.6997 0.0000
# 6 0.0000 0.0000 0.0000 0.0000 0.0000 31.4789
#
#
#
# Elastic Compliance Matrix: (Units=1/GPa)
#
#
# Indices 1 2 3 4 5 6 
#
# 1 0.011834 -0.007238 -0.000906 0.000000 0.000000 0.000000
# 2 -0.007238 0.019818 -0.005083 0.000000 0.000000 0.000000
# 3 -0.000906 -0.005083 0.008904 0.000000 0.000000 0.000000
# 4 0.000000 0.000000 0.000000 0.019288 0.000000 0.000000
# 5 0.000000 0.000000 0.000000 0.000000 0.034844 0.000000
# 6 0.000000 0.000000 0.000000 0.000000 0.000000 0.031767
#
#
# Mechanical properties :
#
#
# Convention : Reuss Voigt Hill
#
# Bulk Modulus (GPa) = 70.90783 73.73341 72.32062
# Shear Modulus (GPa) = 31.72399 35.74815 33.73607
#
# Velocity S-wave (km/s) = 3.47278 3.68647 3.58122
# Velocity P-wave (km/s) = 6.56023 6.79342 6.67784
#
# Compressibility (1/GPa) = 0.01410282
#
# Stress axis : x y z
#
# Youngs Moduli (GPa) = 84.50013 50.46037 112.30408
#
# Poissons Ratio (x) = 0.36522 0.10172
# Poissons Ratio (y) = 0.61159 0.57087
# Poissons Ratio (z) = 0.07654 0.25650
#
# Static dielectric constant tensor:
#      x y z
#    x 2.068500 0.000000 0.000000 
#    y 0.000000 2.104360 0.000000 
#    z 0.000000 0.000000 2.067670 
# 
# From -- ./inp_files/8823.got.cif
#   From: 2010.05.17/outbox.cif.g08.bks.cpg/sg61_5_cif.got.tgz:8823.got - 2010.06.03 15:17:17.
