data_PCOD9461087
_publ_section_title
;
Structure prediction by ZEFSAII (Michael W. Deem and Ramdas Pophale) SiO2 
 PCOD9461087
Probable space group: P B C A
;
_chemical_formula_sum "Si O2"
_cell_formula_units_Z 36
_cell_length_a 10.045335
_cell_length_b 10.295792
_cell_length_c 12.628387
_cell_angle_alpha 90.000000
_cell_angle_beta 90.000000
_cell_angle_gamma 90.000000
_cell_volume 1306.086881
_symmetry_space_group_name_H-M "P B C A"
_symmetry_group_IT_number 61
_symmetry_cell_setting 'orthorhombic'
loop_
_space_group_symop_operation_xyz
x,y,z
1/2-x,-y,1/2+z
1/2+x,1/2-y,-z
-x,1/2+y,1/2-z
-x,-y,-z
1/2+x,y,1/2-z
1/2-x,1/2+y,z
x,1/2-y,1/2+z
loop_
_atom_site_type_symbol
_atom_site_label
_atom_site_fract_x
_atom_site_fract_y
_atom_site_fract_z
Si Si1 0.000000 0.500000 0.000000
Si Si2 0.997639 0.041117 0.270274
Si Si3 0.249308 0.916199 0.156938
Si Si4 0.557280 0.731610 0.091630
Si Si5 0.206786 0.164708 0.026931
O O1 0.001539 0.373486 0.075664
O O2 0.029516 0.415384 0.889789
O O3 0.862125 0.958450 0.261611
O O4 0.964265 0.169202 0.203538
O O5 0.114428 0.964118 0.210925
O O6 0.269439 0.021300 0.055342
O O7 0.257421 0.766358 0.122383
O O8 0.452086 0.650559 0.018545
O O9 0.709407 0.762571 0.063182
#
# Coordination Sequence:
#
# PCOD9461087 Si02
#       5
#     4   8   8   8   8
#     4  12  24  52  76 110 164 216 254 346 392 492
#     4  11  27  45  74 113 153 209 257 326 398 480
#     4  11  26  46  73 115 153 203 268 321 408 468
#     4  11  25  46  78 112 155 206 264 330 407 474
#     4  11  24  48  71 115 152 199 263 326 400 479
#
# _framework density 27.563251999999999
#
# number of rings (size 3 to 8) (size 9 to 14) (size 15 to 20)
#    0.000    0.889    4.444    0.000    6.222    3.556 
#    4.000    0.000    0.000    0.000    0.000    0.000 
#    0.000    0.000    0.000    0.000    0.000    0.000 
#
# Total GULP energy -200476.393591 kJ/mol
# GULP energy per Si atom -5568.788711 kJ/mol
# Density = 2.750052 g / cm^3
# Si number density = 27.563252 Si / 1000 Ang^3
#
#
#
# Elastic Constant Matrix: (Units=GPa)
#
#
# Indices 1 2 3 4 5 6 
#
# 1 89.9543 19.5520 42.3691 0.0000 0.0000 0.0000
# 2 19.5520 146.5524 38.6776 0.0000 0.0000 0.0000
# 3 42.3691 38.6776 139.2764 0.0000 0.0000 0.0000
# 4 0.0000 0.0000 0.0000 59.8223 0.0000 0.0000
# 5 0.0000 0.0000 0.0000 0.0000 22.8136 0.0000
# 6 0.0000 0.0000 0.0000 0.0000 0.0000 30.0161
#
#
#
# Elastic Compliance Matrix: (Units=1/GPa)
#
#
# Indices 1 2 3 4 5 6 
#
# 1 0.013052 -0.000748 -0.003763 0.000000 0.000000 0.000000
# 2 -0.000748 0.007406 -0.001829 0.000000 0.000000 0.000000
# 3 -0.003763 -0.001829 0.008833 0.000000 0.000000 0.000000
# 4 0.000000 0.000000 0.000000 0.016716 0.000000 0.000000
# 5 0.000000 0.000000 0.000000 0.000000 0.043834 0.000000
# 6 0.000000 0.000000 0.000000 0.000000 0.000000 0.033315
#
#
# Mechanical properties :
#
#
# Convention : Reuss Voigt Hill
#
# Bulk Modulus (GPa) = 60.20352 64.10896 62.15624
# Shear Modulus (GPa) = 35.36767 40.87602 38.12185
#
# Velocity S-wave (km/s) = 3.58599 3.85514 3.72300
# Velocity P-wave (km/s) = 6.24781 6.56700 6.40939
#
# Compressibility (1/GPa) = 0.01661032
#
# Stress axis : x y z
#
# Youngs Moduli (GPa) = 76.61883 135.02482 113.21780
#
# Poissons Ratio (x) = 0.10103 0.42600
# Poissons Ratio (y) = 0.05733 0.20708
# Poissons Ratio (z) = 0.28829 0.24697
#
# Static dielectric constant tensor:
#      x y z
#    x 2.065960 0.000000 0.000000 
#    y 0.000000 2.187980 0.000000 
#    z 0.000000 0.000000 4.484900 
# 
# From -- ./inp_files/5031.got.cif
#   From: 2010.05.17/outbox.cif.g08.bks.cpg/sg61_3_cif.got.tgz:5031.got - 2010.06.03 15:17:17.
