data_PCOD9461659
_publ_section_title
;
Structure prediction by ZEFSAII (Michael W. Deem and Ramdas Pophale) SiO2 
 PCOD9461659
Probable space group: P N M A
;
_chemical_formula_sum "Si O2"
_cell_formula_units_Z 52
_cell_length_a 6.754340
_cell_length_b 13.657012
_cell_length_c 19.430688
_cell_angle_alpha 90.000000
_cell_angle_beta 90.000000
_cell_angle_gamma 90.000000
_cell_volume 1792.366374
_symmetry_space_group_name_H-M "P N M A"
_symmetry_group_IT_number 62
_symmetry_cell_setting 'orthorhombic'
loop_
_space_group_symop_operation_xyz
x,y,z
1/2-x,-y,1/2+z
1/2+x,1/2-y,1/2-z
-x,1/2+y,-z
-x,-y,-z
1/2+x,y,1/2-z
1/2-x,1/2+y,1/2+z
x,1/2-y,z
loop_
_atom_site_type_symbol
_atom_site_label
_atom_site_fract_x
_atom_site_fract_y
_atom_site_fract_z
Si Si1 0.101310 0.250000 0.777950
Si Si2 0.868812 0.142802 0.333750
Si Si3 0.665007 0.856742 0.625338
Si Si4 0.764035 0.137830 0.488411
Si Si5 0.125740 0.429329 0.670463
Si Si6 0.159373 0.068605 0.870965
Si Si7 0.284521 0.637862 0.027887
O O1 0.156936 0.337008 0.720495
O O2 0.069411 0.162791 0.834637
O O3 0.827621 0.250000 0.301331
O O4 0.750054 0.137715 0.406241
O O5 0.101607 0.144398 0.353831
O O6 0.835731 0.037453 0.298876
O O7 0.588873 0.750000 0.647097
O O8 0.657617 0.861486 0.541808
O O9 0.590630 0.961170 0.651118
O O10 0.734686 0.250000 0.510772
O O11 0.653125 0.075634 0.546058
O O12 0.995361 0.113334 0.501039
O O13 0.240506 0.423200 0.597319
O O14 0.893354 0.422645 0.649685
O O15 0.289450 0.750000 0.051909
#
# Coordination Sequence:
#
# PCOD9461659 Si02
#       7
#     4   8   8   8   8   8   8
#     4  12  22  28  38  58  84 128 162 164 196 252
#     4   8  14  24  42  65  84 107 136 168 221 275
#     4   8  14  24  42  65  84 107 136 168 221 275
#     4   8  12  21  39  62  85 109 132 162 213 265
#     4  10  18  29  41  57  88 119 145 178 206 245
#     4  10  18  29  41  57  88 119 145 178 206 245
#     4   8  12  21  39  62  85 109 132 162 213 265
#
# _framework density 29.011925999999999
#
# number of rings (size 3 to 8) (size 9 to 14) (size 15 to 20)
#    0.000    3.077    1.538    3.231    0.000    3.692 
#    0.000    0.769    0.000    0.000    0.000    0.000 
#    0.000   19.692    0.000    0.000    0.000    0.000 
#
# Total GULP energy -290130.679102 kJ/mol
# GULP energy per Si atom -5579.436137 kJ/mol
# Density = 2.894589 g / cm^3
# Si number density = 29.011926 Si / 1000 Ang^3
#
#
#
# Elastic Constant Matrix: (Units=GPa)
#
#
# Indices 1 2 3 4 5 6 
#
# 1 118.8815 14.3153 23.7846 0.0000 0.0000 0.0000
# 2 14.3153 360.8746 63.0930 0.0000 0.0000 0.0000
# 3 23.7846 63.0930 164.0182 0.0000 0.0000 0.0000
# 4 0.0000 0.0000 0.0000 -2.3004 0.0000 0.0000
# 5 0.0000 0.0000 0.0000 0.0000 -37.9383 0.0000
# 6 0.0000 0.0000 0.0000 0.0000 0.0000 -8.7919
#
#
#
# Elastic Compliance Matrix: (Units=1/GPa)
#
#
# Indices 1 2 3 4 5 6 
#
# 1 0.008669 -0.000133 -0.001206 0.000000 0.000000 0.000000
# 2 -0.000133 0.002973 -0.001124 0.000000 0.000000 0.000000
# 3 -0.001206 -0.001124 0.006704 0.000000 0.000000 0.000000
# 4 0.000000 0.000000 0.000000 -0.434714 0.000000 0.000000
# 5 0.000000 0.000000 0.000000 0.000000 -0.026359 0.000000
# 6 0.000000 0.000000 0.000000 0.000000 0.000000 -0.113741
#
#
# Mechanical properties :
#
#
# Convention : Reuss Voigt Hill
#
# Bulk Modulus (GPa) = 74.51779 94.01780 84.26780
# Shear Modulus (GPa) = -9.13964 26.36597 8.61317
#
# Velocity S-wave (km/s) = -1.77684 3.01790 1.72490
# Velocity P-wave (km/s) = 4.64020 6.67986 5.75118
#
# Compressibility (1/GPa) = 0.01341961
#
# Stress axis : x y z
#
# Youngs Moduli (GPa) = 115.35317 336.37341 149.15936
#
# Poissons Ratio (x) = 0.04475 0.17988
# Poissons Ratio (y) = 0.01535 0.16770
# Poissons Ratio (z) = 0.13911 0.37818
#
# Static dielectric constant tensor:
#      x y z
#    x 2.389240 0.000000 0.000000 
#    y 0.000000 2.127070 0.000000 
#    z 0.000000 0.000000 2.127390 
# 
# From -- ./inp_files/26736.got.cif
#   From: 2010.05.17/outbox.cif.g08.bks.cpg/sg62_14_cif.got.tgz:26736.got - 2010.06.03 15:25:27.
