data_PCOD9461496
_publ_section_title
;
Structure prediction by ZEFSAII (Michael W. Deem and Ramdas Pophale) SiO2 
 PCOD9461496
Probable space group: P N M A
;
_chemical_formula_sum "Si O2"
_cell_formula_units_Z 40
_cell_length_a 5.156366
_cell_length_b 24.859816
_cell_length_c 17.744613
_cell_angle_alpha 90.000000
_cell_angle_beta 90.000000
_cell_angle_gamma 90.000000
_cell_volume 2274.616463
_symmetry_space_group_name_H-M "P N M A"
_symmetry_group_IT_number 62
_symmetry_cell_setting 'orthorhombic'
loop_
_space_group_symop_operation_xyz
x,y,z
1/2-x,-y,1/2+z
1/2+x,1/2-y,1/2-z
-x,1/2+y,-z
-x,-y,-z
1/2+x,y,1/2-z
1/2-x,1/2+y,1/2+z
x,1/2-y,z
loop_
_atom_site_type_symbol
_atom_site_label
_atom_site_fract_x
_atom_site_fract_y
_atom_site_fract_z
Si Si1 0.248938 0.526627 0.037873
Si Si2 0.806044 0.014609 0.294380
Si Si3 0.211525 0.250000 0.445770
Si Si4 0.210340 0.250000 0.155246
Si Si5 0.186486 0.864565 0.955408
Si Si6 0.185525 0.633727 0.649874
O O1 0.251067 0.512295 0.125510
O O2 0.500000 0.500000 0.000000
O O3 0.235685 0.588957 0.015208
O O4 0.000000 0.500000 0.000000
O O5 0.589282 0.999356 0.234119
O O6 0.787400 0.079476 0.303096
O O7 0.416276 0.250000 0.375359
O O8 0.273830 0.195047 0.487924
O O9 0.918409 0.250000 0.414266
O O10 0.269505 0.308536 0.190977
O O11 0.405024 0.868430 0.889862
O O12 0.907005 0.868789 0.915192
#
# Coordination Sequence:
#
# PCOD9461496 Si02
#       6
#     8   8   4   4   8   8
#     4  12  21  36  57  79 102 137 183 216 256 313
#     4  12  24  36  50  76 109 142 172 216 267 307
#     4   8  16  26  48  77 102 119 162 220 266 286
#     4   8  16  28  48  71  96 133 170 214 242 290
#     4  10  17  32  53  78  99 131 171 219 255 302
#     4  10  18  33  51  72 103 135 175 210 254 300
#
# _framework density 17.585383
#
# number of rings (size 3 to 8) (size 9 to 14) (size 15 to 20)
#    0.000    1.600    4.000    2.400    0.000    0.000 
#    0.000    1.000    0.000    0.000    0.000    1.400 
#    0.000    0.000    0.000    0.000    0.000    0.000 
#
# Total GULP energy -223332.177842 kJ/mol
# GULP energy per Si atom -5583.304446 kJ/mol
# Density = 1.754536 g / cm^3
# Si number density = 17.585383 Si / 1000 Ang^3
#
#
#
# Elastic Constant Matrix: (Units=GPa)
#
#
# Indices 1 2 3 4 5 6 
#
# 1 74.8551 18.3746 -0.0715 0.0000 0.0000 0.0000
# 2 18.3746 102.9201 26.4774 0.0000 0.0000 0.0000
# 3 -0.0715 26.4774 44.3267 0.0000 0.0000 0.0000
# 4 0.0000 0.0000 0.0000 16.0982 0.0000 0.0000
# 5 0.0000 0.0000 0.0000 0.0000 25.7274 0.0000
# 6 0.0000 0.0000 0.0000 0.0000 0.0000 20.6073
#
#
#
# Elastic Compliance Matrix: (Units=1/GPa)
#
#
# Indices 1 2 3 4 5 6 
#
# 1 0.014092 -0.002980 0.001803 0.000000 0.000000 0.000000
# 2 -0.002980 0.012110 -0.007239 0.000000 0.000000 0.000000
# 3 0.001803 -0.007239 0.026886 0.000000 0.000000 0.000000
# 4 0.000000 0.000000 0.000000 0.062119 0.000000 0.000000
# 5 0.000000 0.000000 0.000000 0.000000 0.038869 0.000000
# 6 0.000000 0.000000 0.000000 0.000000 0.000000 0.048526
#
#
# Mechanical properties :
#
#
# Convention : Reuss Voigt Hill
#
# Bulk Modulus (GPa) = 27.58035 34.62919 31.10477
# Shear Modulus (GPa) = 21.59632 24.30802 22.95217
#
# Velocity S-wave (km/s) = 3.50820 3.72194 3.61665
# Velocity P-wave (km/s) = 5.66813 6.18104 5.93013
#
# Compressibility (1/GPa) = 0.03625770
#
# Stress axis : x y z
#
# Youngs Moduli (GPa) = 70.96082 82.57313 37.19341
#
# Poissons Ratio (x) = 0.24604 -0.06704
# Poissons Ratio (y) = 0.21144 0.26923
# Poissons Ratio (z) = -0.12791 0.59772
#
# Static dielectric constant tensor:
#      x y z
#    x 1.616190 0.000000 0.000000 
#    y 0.000000 1.672100 0.000000 
#    z 0.000000 0.000000 1.550580 
# 
# From -- ./inp_files/16170.got.cif
#   From: 2010.05.17/outbox.cif.g08.bks.cpg/sg62_9_cif.got.tgz:16170.got - 2010.06.03 15:25:27.
