data_PCOD9461941
_publ_section_title
;
Structure prediction by ZEFSAII (Michael W. Deem and Ramdas Pophale) SiO2 
 PCOD9461941
Probable space group: P N M A
;
_chemical_formula_sum "Si O2"
_cell_formula_units_Z 64
_cell_length_a 5.334650
_cell_length_b 27.340795
_cell_length_c 20.769546
_cell_angle_alpha 90.000000
_cell_angle_beta 90.000000
_cell_angle_gamma 90.000000
_cell_volume 3029.312474
_symmetry_space_group_name_H-M "P N M A"
_symmetry_group_IT_number 62
_symmetry_cell_setting 'orthorhombic'
loop_
_space_group_symop_operation_xyz
x,y,z
1/2-x,-y,1/2+z
1/2+x,1/2-y,1/2-z
-x,1/2+y,-z
-x,-y,-z
1/2+x,y,1/2-z
1/2-x,1/2+y,1/2+z
x,1/2-y,z
loop_
_atom_site_type_symbol
_atom_site_label
_atom_site_fract_x
_atom_site_fract_y
_atom_site_fract_z
Si Si1 0.919904 0.482753 0.210680
Si Si2 0.911427 0.530174 0.934547
Si Si3 0.757780 0.806687 0.002020
Si Si4 0.882519 0.690020 0.715043
Si Si5 0.770616 0.692336 0.573457
Si Si6 0.078855 0.090054 0.737615
Si Si7 0.925832 0.902064 0.039110
Si Si8 0.071115 0.447459 0.593885
O O1 0.165490 0.466762 0.252282
O O2 0.945779 0.471344 0.134372
O O3 0.921274 0.542342 0.215828
O O4 0.647742 0.503709 0.918588
O O5 0.910446 0.584437 0.963163
O O6 0.000000 0.500000 0.000000
O O7 0.739548 0.750000 0.022460
O O8 0.487796 0.824704 0.975527
O O9 0.983794 0.809202 0.949573
O O10 0.855740 0.846205 0.052812
O O11 0.157330 0.674762 0.737934
O O12 0.880908 0.750000 0.715140
O O13 0.815902 0.671448 0.644067
O O14 0.830616 0.750000 0.578916
O O15 0.328935 0.119062 0.749886
O O16 0.078227 0.066294 0.667933
O O17 0.699783 0.933583 0.068501
O O18 0.200286 0.916635 0.062957
#
# Coordination Sequence:
#
# PCOD9461941 Si02
#       8
#     8   8   8   8   8   8   8   8
#     4  10  20  33  55  78 110 159 204 223 275 346
#     4  10  22  36  57  85 121 160 188 241 294 342
#     4  10  20  37  56  75 103 145 190 240 295 350
#     4   9  15  23  39  68  94 113 150 211 279 340
#     4   9  17  30  52  72  92 129 175 222 285 347
#     4  10  18  31  55  78 112 153 193 219 266 332
#     4  11  24  36  55  84 118 148 194 243 298 344
#     4  11  21  36  55  85 120 151 187 232 287 350
#
# _framework density 21.126905000000001
#
# number of rings (size 3 to 8) (size 9 to 14) (size 15 to 20)
#    0.000    2.000    2.500    2.625    5.250    5.000 
#    0.000    0.000    0.000    4.500    0.000    0.000 
#    0.000   10.000    0.000    0.000    0.000    0.000 
#
# Total GULP energy -356599.268332 kJ/mol
# GULP energy per Si atom -5571.863568 kJ/mol
# Density = 2.107882 g / cm^3
# Si number density = 21.126905 Si / 1000 Ang^3
#
#
#
# Elastic Constant Matrix: (Units=GPa)
#
#
# Indices 1 2 3 4 5 6 
#
# 1 106.2564 12.9890 43.3239 0.0000 0.0000 0.0000
# 2 12.9890 40.2283 14.3755 0.0000 0.0000 0.0000
# 3 43.3239 14.3755 85.8353 0.0000 0.0000 0.0000
# 4 0.0000 0.0000 0.0000 3.5899 0.0000 0.0000
# 5 0.0000 0.0000 0.0000 0.0000 17.8408 0.0000
# 6 0.0000 0.0000 0.0000 0.0000 0.0000 10.4516
#
#
#
# Elastic Compliance Matrix: (Units=1/GPa)
#
#
# Indices 1 2 3 4 5 6 
#
# 1 0.011973 -0.001815 -0.005739 0.000000 0.000000 0.000000
# 2 -0.001815 0.026716 -0.003558 0.000000 0.000000 0.000000
# 3 -0.005739 -0.003558 0.015143 0.000000 0.000000 0.000000
# 4 0.000000 0.000000 0.000000 0.278562 0.000000 0.000000
# 5 0.000000 0.000000 0.000000 0.000000 0.056051 0.000000
# 6 0.000000 0.000000 0.000000 0.000000 0.000000 0.095679
#
#
# Mechanical properties :
#
#
# Convention : Reuss Voigt Hill
#
# Bulk Modulus (GPa) = 31.63875 41.52189 36.58032
# Shear Modulus (GPa) = 9.67334 17.15189 13.41261
#
# Velocity S-wave (km/s) = 2.14211 2.85239 2.52238
# Velocity P-wave (km/s) = 4.59633 5.52670 5.08285
#
# Compressibility (1/GPa) = 0.03160682
#
# Stress axis : x y z
#
# Youngs Moduli (GPa) = 83.52026 37.43119 66.03738
#
# Poissons Ratio (x) = 0.06794 0.37901
# Poissons Ratio (y) = 0.15159 0.23497
# Poissons Ratio (z) = 0.47935 0.13319
#
# Static dielectric constant tensor:
#      x y z
#    x 1.867900 0.000000 0.000000 
#    y 0.000000 1.825130 0.000000 
#    z 0.000000 0.000000 1.798070 
# 
# From -- ./inp_files/21682.got.cif
#   From: 2010.05.17/outbox.cif.g08.bks.cpg/sg62_11_cif.got.tgz:21682.got - 2010.06.03 15:25:27.
