data_PCOD9461993
_publ_section_title
;
Structure prediction by ZEFSAII (Michael W. Deem and Ramdas Pophale) SiO2 
 PCOD9461993
Probable space group: P N M A
;
_chemical_formula_sum "Si O2"
_cell_formula_units_Z 56
_cell_length_a 5.214222
_cell_length_b 20.510161
_cell_length_c 19.344903
_cell_angle_alpha 90.000000
_cell_angle_beta 90.000000
_cell_angle_gamma 90.000000
_cell_volume 2068.831612
_symmetry_space_group_name_H-M "P N M A"
_symmetry_group_IT_number 62
_symmetry_cell_setting 'orthorhombic'
loop_
_space_group_symop_operation_xyz
x,y,z
1/2-x,-y,1/2+z
1/2+x,1/2-y,1/2-z
-x,1/2+y,-z
-x,-y,-z
1/2+x,y,1/2-z
1/2-x,1/2+y,1/2+z
x,1/2-y,z
loop_
_atom_site_type_symbol
_atom_site_label
_atom_site_fract_x
_atom_site_fract_y
_atom_site_fract_z
Si Si1 0.103051 0.608004 0.041846
Si Si2 0.588251 0.044280 0.703075
Si Si3 0.708140 0.526041 0.946453
Si Si4 0.738122 0.322590 0.701442
Si Si5 0.922323 0.633805 0.594017
Si Si6 0.700317 0.750000 0.453185
Si Si7 0.706329 0.750000 0.955865
Si Si8 0.086135 0.605962 0.793972
O O1 0.313903 0.622447 0.982395
O O2 0.879051 0.576912 0.991871
O O3 0.132057 0.678922 0.079698
O O4 0.171117 0.541187 0.081972
O O5 0.304998 0.049582 0.735772
O O6 0.687598 0.108889 0.660395
O O7 0.606728 0.969200 0.680149
O O8 0.569444 0.567262 0.888057
O O9 0.500000 0.500000 0.000000
O O10 0.511151 0.323839 0.758944
O O11 0.730679 0.250000 0.668076
O O12 0.130491 0.688970 0.589504
O O13 0.684759 0.648354 0.642402
O O14 0.994309 0.750000 0.480737
O O15 0.491523 0.750000 0.515549
O O16 0.311054 0.617331 0.738208
#
# Coordination Sequence:
#
# PCOD9461993 Si02
#       8
#     8   8   8   8   8   4   4   8
#     4   9  18  31  53  83 114 145 183 225 281 343
#     4   8  14  26  39  57  84 110 148 201 250 303
#     4   9  17  31  52  82 113 140 182 227 279 345
#     4   8  12  18  32  53  76  98 125 171 234 290
#     4  10  20  34  54  75 111 148 188 240 286 335
#     4  10  18  32  52  81 118 146 180 223 272 340
#     4  10  20  32  52  79 104 148 190 231 282 334
#     4  10  22  35  51  72 101 139 191 238 285 331
#
# _framework density 27.068418999999999
#
# number of rings (size 3 to 8) (size 9 to 14) (size 15 to 20)
#    0.000    2.857    1.429    0.000    2.000    0.000 
#    0.000    0.714    0.000    0.000    1.857    0.000 
#    0.000    0.000    0.000    0.000    0.000    0.000 
#
# Total GULP energy -312447.511146 kJ/mol
# GULP energy per Si atom -5579.419842 kJ/mol
# Density = 2.700681 g / cm^3
# Si number density = 27.068419 Si / 1000 Ang^3
#
#
#
# Elastic Constant Matrix: (Units=GPa)
#
#
# Indices 1 2 3 4 5 6 
#
# 1 125.4717 28.6854 16.4849 0.0000 0.0000 0.0000
# 2 28.6854 86.6274 -6.6308 0.0000 0.0000 0.0000
# 3 16.4849 -6.6308 23.7689 0.0000 0.0000 0.0000
# 4 0.0000 0.0000 0.0000 29.6732 0.0000 0.0000
# 5 0.0000 0.0000 0.0000 0.0000 39.5967 0.0000
# 6 0.0000 0.0000 0.0000 0.0000 0.0000 32.9742
#
#
#
# Elastic Compliance Matrix: (Units=1/GPa)
#
#
# Indices 1 2 3 4 5 6 
#
# 1 0.009904 -0.003888 -0.007953 0.000000 0.000000 0.000000
# 2 -0.003888 0.013322 0.006413 0.000000 0.000000 0.000000
# 3 -0.007953 0.006413 0.049377 0.000000 0.000000 0.000000
# 4 0.000000 0.000000 0.000000 0.033700 0.000000 0.000000
# 5 0.000000 0.000000 0.000000 0.000000 0.025255 0.000000
# 6 0.000000 0.000000 0.000000 0.000000 0.000000 0.030327
#
#
# Mechanical properties :
#
#
# Convention : Reuss Voigt Hill
#
# Bulk Modulus (GPa) = 16.19548 34.77190 25.48369
# Shear Modulus (GPa) = 25.86335 33.60405 29.73370
#
# Velocity S-wave (km/s) = 3.09444 3.52724 3.31790
# Velocity P-wave (km/s) = 4.33169 5.42793 4.91050
#
# Compressibility (1/GPa) = 0.06174561
#
# Stress axis : x y z
#
# Youngs Moduli (GPa) = 100.97104 75.06305 20.25239
#
# Poissons Ratio (x) = 0.29187 0.16108
# Poissons Ratio (y) = 0.39261 -0.12988
# Poissons Ratio (z) = 0.80307 -0.48139
#
# Static dielectric constant tensor:
#      x y z
#    x 2.114550 0.000000 0.000000 
#    y 0.000000 2.331610 0.000000 
#    z 0.000000 0.000000 2.143400 
# 
# From -- ./inp_files/30538.got.cif
#   From: 2010.05.17/outbox.cif.g08.bks.cpg/sg62_16_cif.got.tgz:30538.got - 2010.06.03 15:25:27.
