data_PCOD9461608
_publ_section_title
;
Structure prediction by ZEFSAII (Michael W. Deem and Ramdas Pophale) SiO2 
 PCOD9461608
Probable space group: P N M A
;
_chemical_formula_sum "Si O2"
_cell_formula_units_Z 56
_cell_length_a 20.074792
_cell_length_b 7.407571
_cell_length_c 19.968832
_cell_angle_alpha 90.000000
_cell_angle_beta 90.000000
_cell_angle_gamma 90.000000
_cell_volume 2969.474090
_symmetry_space_group_name_H-M "P N M A"
_symmetry_group_IT_number 62
_symmetry_cell_setting 'orthorhombic'
loop_
_space_group_symop_operation_xyz
x,y,z
1/2-x,-y,1/2+z
1/2+x,1/2-y,1/2-z
-x,1/2+y,-z
-x,-y,-z
1/2+x,y,1/2-z
1/2-x,1/2+y,1/2+z
x,1/2-y,z
loop_
_atom_site_type_symbol
_atom_site_label
_atom_site_fract_x
_atom_site_fract_y
_atom_site_fract_z
Si Si1 0.154698 0.530594 0.266742
Si Si2 0.443454 0.034268 0.554837
Si Si3 0.760610 0.534333 0.129604
Si Si4 0.795400 0.465477 0.977627
Si Si5 0.629431 0.470489 0.735477
Si Si6 0.234349 0.030611 0.657807
Si Si7 0.519203 0.528990 0.295682
O O1 0.152725 0.750000 0.268139
O O2 0.193686 0.468933 0.333141
O O3 0.202551 0.481826 0.204424
O O4 0.080000 0.470430 0.251710
O O5 0.437403 0.250000 0.560902
O O6 0.370965 0.964961 0.532107
O O7 0.464862 0.969565 0.628405
O O8 0.500000 0.000000 0.500000
O O9 0.760297 0.750000 0.136921
O O10 0.824286 0.471177 0.172969
O O11 0.768515 0.496844 0.051765
O O12 0.798927 0.250000 0.969421
O O13 0.748796 0.532772 0.917187
O O14 0.628688 0.250000 0.735154
O O15 0.668334 0.528016 0.802604
O O16 0.553778 0.530483 0.727189
O O17 0.231970 0.250000 0.657212
O O18 0.518615 0.750000 0.295936
#
# Coordination Sequence:
#
# PCOD9461608 Si02
#       7
#     8   8   8   8   8   8   8
#     4   8  13  24  42  60  80 108 144 179 210 244
#     4  10  19  28  41  63  92 119 139 165 208 262
#     4   9  17  28  43  64  87 110 138 178 216 247
#     4  10  18  28  43  62  86 117 143 167 207 258
#     4   8  14  23  40  63  84 105 137 180 214 239
#     4   8  13  24  39  57  79 108 144 174 202 244
#     4   9  14  23  40  63  85 107 138 178 215 245
#
# _framework density 18.858559
#
# number of rings (size 3 to 8) (size 9 to 14) (size 15 to 20)
#    0.000    3.143    1.429    2.571    0.000    1.714 
#    0.000    0.000    0.000    5.143    0.000    0.000 
#    0.000    0.000    0.000    0.000    0.000    0.000 
#
# Total GULP energy -312281.879625 kJ/mol
# GULP energy per Si atom -5576.462136 kJ/mol
# Density = 1.881564 g / cm^3
# Si number density = 18.858559 Si / 1000 Ang^3
#
#
#
# Elastic Constant Matrix: (Units=GPa)
#
#
# Indices 1 2 3 4 5 6 
#
# 1 165.2309 6.0607 129.5293 0.0000 0.0000 0.0000
# 2 6.0607 59.9535 1.8400 0.0000 0.0000 0.0000
# 3 129.5293 1.8400 182.7921 0.0000 0.0000 0.0000
# 4 0.0000 0.0000 0.0000 15.5737 0.0000 0.0000
# 5 0.0000 0.0000 0.0000 0.0000 24.9144 0.0000
# 6 0.0000 0.0000 0.0000 0.0000 0.0000 1.6332
#
#
#
# Elastic Compliance Matrix: (Units=1/GPa)
#
#
# Indices 1 2 3 4 5 6 
#
# 1 0.013686 -0.001086 -0.009687 0.000000 0.000000 0.000000
# 2 -0.001086 0.016771 0.000601 0.000000 0.000000 0.000000
# 3 -0.009687 0.000601 0.012329 0.000000 0.000000 0.000000
# 4 0.000000 0.000000 0.000000 0.064211 0.000000 0.000000
# 5 0.000000 0.000000 0.000000 0.000000 0.040137 0.000000
# 6 0.000000 0.000000 0.000000 0.000000 0.000000 0.612300
#
#
# Mechanical properties :
#
#
# Convention : Reuss Voigt Hill
#
# Bulk Modulus (GPa) = 44.56111 75.87073 60.21592
# Shear Modulus (GPa) = 6.35114 26.46070 16.40592
#
# Velocity S-wave (km/s) = 1.83714 3.74988 2.95268
# Velocity P-wave (km/s) = 5.30853 7.68554 6.60485
#
# Compressibility (1/GPa) = 0.02244109
#
# Stress axis : x y z
#
# Youngs Moduli (GPa) = 73.06684 59.62687 81.10839
#
# Poissons Ratio (x) = 0.06477 0.78572
# Poissons Ratio (y) = 0.07937 -0.04874
# Poissons Ratio (z) = 0.70782 -0.03583
#
# Static dielectric constant tensor:
#      x y z
#    x 1.647410 0.000000 0.000000 
#    y 0.000000 1.741960 0.000000 
#    z 0.000000 0.000000 1.646410 
# 
# From -- ./inp_files/24423.got.cif
#   From: 2010.05.17/outbox.cif.g08.bks.cpg/sg62_13_cif.got.tgz:24423.got - 2010.06.03 15:25:27.
