data_PCOD9461049
_publ_section_title
;
Structure prediction by ZEFSAII (Michael W. Deem and Ramdas Pophale) SiO2 
 PCOD9461049
Probable space group: P B C A
;
_chemical_formula_sum "Si O2"
_cell_formula_units_Z 32
_cell_length_a 10.219800
_cell_length_b 4.809988
_cell_length_c 23.407518
_cell_angle_alpha 90.000000
_cell_angle_beta 90.000000
_cell_angle_gamma 90.000000
_cell_volume 1150.646063
_symmetry_space_group_name_H-M "P B C A"
_symmetry_group_IT_number 61
_symmetry_cell_setting 'orthorhombic'
loop_
_space_group_symop_operation_xyz
x,y,z
1/2-x,-y,1/2+z
1/2+x,1/2-y,-z
-x,1/2+y,1/2-z
-x,-y,-z
1/2+x,y,1/2-z
1/2-x,1/2+y,z
x,1/2-y,1/2+z
loop_
_atom_site_type_symbol
_atom_site_label
_atom_site_fract_x
_atom_site_fract_y
_atom_site_fract_z
Si Si1 0.168283 0.431364 0.209059
Si Si2 0.330619 0.720179 0.535933
Si Si3 0.078139 0.427519 0.909443
Si Si4 0.911078 0.104373 0.166866
O O1 0.213243 0.733830 0.189351
O O2 0.158839 0.480258 0.277274
O O3 0.033787 0.284975 0.191546
O O4 0.200884 0.538976 0.547046
O O5 0.362128 0.668839 0.469476
O O6 0.447964 0.597483 0.572463
O O7 0.051612 0.159248 0.871314
O O8 0.157271 0.662322 0.873490
#
# Coordination Sequence:
#
# PCOD9461049 Si02
#       4
#     8   8   8   8
#     4  12  26  44  68  98 134 178 228 280 336 400
#     4  11  24  43  66  98 134 171 222 276 332 405
#     4  11  25  42  67  98 133 176 221 277 340 400
#     4  12  25  45  67  98 137 175 227 282 336 404
#
# _framework density 27.810464
#
# number of rings (size 3 to 8) (size 9 to 14) (size 15 to 20)
#    0.000    0.500    0.000    9.000    0.000   16.000 
#    0.000    0.000    0.000    0.000    0.000    0.000 
#    0.000    0.000    0.000    0.000    0.000    0.000 
#
# Total GULP energy -179706.674330 kJ/mol
# GULP energy per Si atom -5615.833573 kJ/mol
# Density = 2.774717 g / cm^3
# Si number density = 27.810464 Si / 1000 Ang^3
#
#
#
# Elastic Constant Matrix: (Units=GPa)
#
#
# Indices 1 2 3 4 5 6 
#
# 1 86.2589 17.7214 24.8399 0.0000 0.0000 0.0000
# 2 17.7214 183.9416 64.5717 0.0000 0.0000 0.0000
# 3 24.8399 64.5717 127.6029 0.0000 0.0000 0.0000
# 4 0.0000 0.0000 0.0000 61.5220 0.0000 0.0000
# 5 0.0000 0.0000 0.0000 0.0000 41.0516 0.0000
# 6 0.0000 0.0000 0.0000 0.0000 0.0000 42.7670
#
#
#
# Elastic Compliance Matrix: (Units=1/GPa)
#
#
# Indices 1 2 3 4 5 6 
#
# 1 0.012308 -0.000419 -0.002184 0.000000 0.000000 0.000000
# 2 -0.000419 0.006625 -0.003271 0.000000 0.000000 0.000000
# 3 -0.002184 -0.003271 0.009917 0.000000 0.000000 0.000000
# 4 0.000000 0.000000 0.000000 0.016254 0.000000 0.000000
# 5 0.000000 0.000000 0.000000 0.000000 0.024360 0.000000
# 6 0.000000 0.000000 0.000000 0.000000 0.000000 0.023383
#
#
# Mechanical properties :
#
#
# Convention : Reuss Voigt Hill
#
# Bulk Modulus (GPa) = 58.47140 68.00770 63.23955
# Shear Modulus (GPa) = 45.33278 48.44615 46.88947
#
# Velocity S-wave (km/s) = 4.04178 4.17827 4.11059
# Velocity P-wave (km/s) = 6.54614 6.91262 6.73187
#
# Compressibility (1/GPa) = 0.01710238
#
# Stress axis : x y z
#
# Youngs Moduli (GPa) = 81.24801 150.94008 100.83538
#
# Poissons Ratio (x) = 0.06327 0.22021
# Poissons Ratio (y) = 0.03406 0.32983
# Poissons Ratio (z) = 0.17743 0.49372
#
# Static dielectric constant tensor:
#      x y z
#    x 2.224710 0.000000 0.000000 
#    y 0.000000 2.031740 0.000000 
#    z 0.000000 0.000000 2.148670 
# 
# From -- ./inp_files/10241.got.cif
#   From: 2010.05.17/outbox.cif.g08.bks.cpg/sg61_6_cif.got.tgz:10241.got - 2010.06.03 15:17:17.
