data_PCOD9461243
_publ_section_title
;
Structure prediction by ZEFSAII (Michael W. Deem and Ramdas Pophale) SiO2 
 PCOD9461243
Probable space group: P B C A
;
_chemical_formula_sum "Si O2"
_cell_formula_units_Z 32
_cell_length_a 14.255179
_cell_length_b 7.584106
_cell_length_c 9.216177
_cell_angle_alpha 90.000000
_cell_angle_beta 90.000000
_cell_angle_gamma 90.000000
_cell_volume 996.386596
_symmetry_space_group_name_H-M "P B C A"
_symmetry_group_IT_number 61
_symmetry_cell_setting 'orthorhombic'
loop_
_space_group_symop_operation_xyz
x,y,z
1/2-x,-y,1/2+z
1/2+x,1/2-y,-z
-x,1/2+y,1/2-z
-x,-y,-z
1/2+x,y,1/2-z
1/2-x,1/2+y,z
x,1/2-y,1/2+z
loop_
_atom_site_type_symbol
_atom_site_label
_atom_site_fract_x
_atom_site_fract_y
_atom_site_fract_z
Si Si1 0.871610 0.329404 0.473504
Si Si2 0.673215 0.187801 0.439841
Si Si3 0.110072 0.006948 0.326317
Si Si4 0.436777 0.903460 0.306936
O O1 0.783889 0.211322 0.417637
O O2 0.841146 0.495442 0.334193
O O3 0.887791 0.190526 0.611997
O O4 0.981175 0.341667 0.417834
O O5 0.652308 0.346788 0.566216
O O6 0.614423 0.288570 0.311818
O O7 0.639987 0.023140 0.573497
O O8 0.999604 0.033690 0.289427
#
# Coordination Sequence:
#
# PCOD9461243 Si02
#       4
#     8   8   8   8
#     4   8  18  36  54  78 106 138 178 217 262 309
#     4   8  18  36  56  77 106 139 178 219 262 305
#     4   9  19  37  54  79 109 141 177 214 265 318
#     4   9  19  37  54  79 109 141 177 214 265 318
#
# _framework density 32.116045999999997
#
# number of rings (size 3 to 8) (size 9 to 14) (size 15 to 20)
#    3.000    0.000    0.000    3.000    0.000    2.000 
#    9.000    5.000    0.000    0.000    0.000    0.000 
#    0.000    0.000    0.000    0.000    0.000    0.000 
#
# Total GULP energy -178788.323064 kJ/mol
# GULP energy per Si atom -5587.135096 kJ/mol
# Density = 3.204295 g / cm^3
# Si number density = 32.116046 Si / 1000 Ang^3
#
#
#
# Elastic Constant Matrix: (Units=GPa)
#
#
# Indices 1 2 3 4 5 6 
#
# 1 169.9609 49.6191 40.8926 0.0000 0.0000 0.0000
# 2 49.6191 313.8336 121.6598 0.0000 0.0000 0.0000
# 3 40.8926 121.6598 229.0161 0.0000 0.0000 0.0000
# 4 0.0000 0.0000 0.0000 95.4828 0.0000 0.0000
# 5 0.0000 0.0000 0.0000 0.0000 52.0318 0.0000
# 6 0.0000 0.0000 0.0000 0.0000 0.0000 81.3665
#
#
#
# Elastic Compliance Matrix: (Units=1/GPa)
#
#
# Indices 1 2 3 4 5 6 
#
# 1 0.006268 -0.000702 -0.000746 0.000000 0.000000 0.000000
# 2 -0.000702 0.004091 -0.002048 0.000000 0.000000 0.000000
# 3 -0.000746 -0.002048 0.005588 0.000000 0.000000 0.000000
# 4 0.000000 0.000000 0.000000 0.010473 0.000000 0.000000
# 5 0.000000 0.000000 0.000000 0.000000 0.019219 0.000000
# 6 0.000000 0.000000 0.000000 0.000000 0.000000 0.012290
#
#
# Mechanical properties :
#
#
# Convention : Reuss Voigt Hill
#
# Bulk Modulus (GPa) = 111.67276 126.35040 119.01158
# Shear Modulus (GPa) = 73.63018 79.15216 76.39117
#
# Velocity S-wave (km/s) = 4.79334 4.96983 4.88238
# Velocity P-wave (km/s) = 8.09209 8.50644 8.30185
#
# Compressibility (1/GPa) = 0.00895474
#
# Stress axis : x y z
#
# Youngs Moduli (GPa) = 159.53654 244.42042 178.96055
#
# Poissons Ratio (x) = 0.17150 0.13359
# Poissons Ratio (y) = 0.11194 0.36654
# Poissons Ratio (z) = 0.11909 0.50061
#
# Static dielectric constant tensor:
#      x y z
#    x 2.329590 0.000000 0.000000 
#    y 0.000000 2.928840 0.000000 
#    z 0.000000 0.000000 2.612700 
# 
# From -- ./inp_files/2542.got.cif
#   From: 2010.05.17/outbox.cif.g08.bks.cpg/sg61_2_cif.got.tgz:2542.got - 2010.06.03 15:17:17.
