data_PCOD9461888
_publ_section_title
;
Structure prediction by ZEFSAII (Michael W. Deem and Ramdas Pophale) SiO2 
 PCOD9461888
Probable space group: P N M A
;
_chemical_formula_sum "Si O2"
_cell_formula_units_Z 64
_cell_length_a 9.942816
_cell_length_b 14.496089
_cell_length_c 21.797276
_cell_angle_alpha 90.000000
_cell_angle_beta 90.000000
_cell_angle_gamma 90.000000
_cell_volume 3141.683800
_symmetry_space_group_name_H-M "P N M A"
_symmetry_group_IT_number 62
_symmetry_cell_setting 'orthorhombic'
loop_
_space_group_symop_operation_xyz
x,y,z
1/2-x,-y,1/2+z
1/2+x,1/2-y,1/2-z
-x,1/2+y,-z
-x,-y,-z
1/2+x,y,1/2-z
1/2-x,1/2+y,1/2+z
x,1/2-y,z
loop_
_atom_site_type_symbol
_atom_site_label
_atom_site_fract_x
_atom_site_fract_y
_atom_site_fract_z
Si Si1 0.169866 0.645305 0.999126
Si Si2 0.543010 0.089789 0.960912
Si Si3 0.232710 0.650546 0.503381
Si Si4 0.460864 0.854188 0.400651
Si Si5 0.886516 0.856353 0.659811
Si Si6 0.888317 0.051743 0.122960
Si Si7 0.154222 0.548119 0.619694
Si Si8 0.372853 0.643389 0.694897
O O1 0.136533 0.750000 0.979374
O O2 0.110477 0.574729 0.949629
O O3 0.329967 0.635258 0.005857
O O4 0.103392 0.632489 0.065687
O O5 0.405285 0.145491 0.964445
O O6 0.593942 0.052707 0.894988
O O7 0.500000 0.000000 0.000000
O O8 0.239571 0.750000 0.534734
O O9 0.353887 0.643587 0.456378
O O10 0.232247 0.575929 0.557178
O O11 0.455309 0.750000 0.373707
O O12 0.425651 0.945713 0.362949
O O13 0.855049 0.750000 0.644382
O O14 0.762342 0.920828 0.641670
O O15 0.903349 0.863445 0.733059
O O16 0.023503 0.887510 0.627523
O O17 0.994431 0.116749 0.157200
O O18 0.255226 0.573267 0.674121
O O19 0.332531 0.750000 0.682795
#
# Coordination Sequence:
#
# PCOD9461888 Si02
#       8
#     8   8   8   8   8   8   8   8
#     4  11  21  34  54  83 116 147 179 217 266 328
#     4  10  20  32  48  76 108 141 179 216 253 315
#     4  10  18  31  51  76 106 138 172 211 260 319
#     4  10  22  37  55  82 113 142 179 225 268 321
#     4  11  23  37  54  80 110 140 180 228 271 317
#     4  12  21  36  58  79 108 147 183 218 271 325
#     4  11  20  34  53  73 106 147 178 212 263 316
#     4  11  23  37  54  79 108 140 182 227 269 317
#
# _framework density 20.371243
#
# number of rings (size 3 to 8) (size 9 to 14) (size 15 to 20)
#    0.000    1.250    0.000    9.000    0.000    3.000 
#    0.000    0.000    0.000    0.750    0.000    3.500 
#    0.000    0.000    0.000    0.000    0.000    0.000 
#
# Total GULP energy -357466.026713 kJ/mol
# GULP energy per Si atom -5585.406667 kJ/mol
# Density = 2.032488 g / cm^3
# Si number density = 20.371243 Si / 1000 Ang^3
#
#
#
# Elastic Constant Matrix: (Units=GPa)
#
#
# Indices 1 2 3 4 5 6 
#
# 1 83.2995 -4.9358 -2.2279 0.0000 0.0000 0.0000
# 2 -4.9358 78.3903 8.3624 0.0000 0.0000 0.0000
# 3 -2.2279 8.3624 37.6633 0.0000 0.0000 0.0000
# 4 0.0000 0.0000 0.0000 18.4694 0.0000 0.0000
# 5 0.0000 0.0000 0.0000 0.0000 19.6946 0.0000
# 6 0.0000 0.0000 0.0000 0.0000 0.0000 31.0580
#
#
#
# Elastic Compliance Matrix: (Units=1/GPa)
#
#
# Indices 1 2 3 4 5 6 
#
# 1 0.012061 0.000700 0.000558 0.000000 0.000000 0.000000
# 2 0.000700 0.013107 -0.002869 0.000000 0.000000 0.000000
# 3 0.000558 -0.002869 0.027221 0.000000 0.000000 0.000000
# 4 0.000000 0.000000 0.000000 0.054144 0.000000 0.000000
# 5 0.000000 0.000000 0.000000 0.000000 0.050775 0.000000
# 6 0.000000 0.000000 0.000000 0.000000 0.000000 0.032198
#
#
# Mechanical properties :
#
#
# Convention : Reuss Voigt Hill
#
# Bulk Modulus (GPa) = 20.33860 22.41671 21.37766
# Shear Modulus (GPa) = 23.91014 27.05471 25.48243
#
# Velocity S-wave (km/s) = 3.42968 3.64824 3.54065
# Velocity P-wave (km/s) = 5.06845 5.36416 5.21840
#
# Compressibility (1/GPa) = 0.04916758
#
# Stress axis : x y z
#
# Youngs Moduli (GPa) = 82.90998 76.29647 36.73636
#
# Poissons Ratio (x) = -0.05340 -0.02050
# Poissons Ratio (y) = -0.05803 0.10539
# Poissons Ratio (z) = -0.04627 0.21887
#
# Static dielectric constant tensor:
#      x y z
#    x 1.735460 0.000000 0.000000 
#    y 0.000000 1.785420 0.000000 
#    z 0.000000 0.000000 1.724290 
# 
# From -- ./inp_files/28970.got.cif
#   From: 2010.05.17/outbox.cif.g08.bks.cpg/sg62_15_cif.got.tgz:28970.got - 2010.06.03 15:25:27.
