data_PCOD9461613
_publ_section_title
;
Structure prediction by ZEFSAII (Michael W. Deem and Ramdas Pophale) SiO2 
 PCOD9461613
Probable space group: P N M A
;
_chemical_formula_sum "Si O2"
_cell_formula_units_Z 56
_cell_length_a 14.043785
_cell_length_b 7.373441
_cell_length_c 25.029753
_cell_angle_alpha 90.000000
_cell_angle_beta 90.000000
_cell_angle_gamma 90.000000
_cell_volume 2591.856456
_symmetry_space_group_name_H-M "P N M A"
_symmetry_group_IT_number 62
_symmetry_cell_setting 'orthorhombic'
loop_
_space_group_symop_operation_xyz
x,y,z
1/2-x,-y,1/2+z
1/2+x,1/2-y,1/2-z
-x,1/2+y,-z
-x,-y,-z
1/2+x,y,1/2-z
1/2-x,1/2+y,1/2+z
x,1/2-y,z
loop_
_atom_site_type_symbol
_atom_site_label
_atom_site_fract_x
_atom_site_fract_y
_atom_site_fract_z
Si Si1 0.582742 0.028751 0.336791
Si Si2 0.267714 0.029173 0.226253
Si Si3 0.730636 0.535077 0.558516
Si Si4 0.618553 0.971112 0.877240
Si Si5 0.866905 0.027960 0.166476
Si Si6 0.553964 0.033251 0.055617
Si Si7 0.804797 0.533066 0.939648
O O1 0.582626 0.250000 0.336360
O O2 0.664021 0.971673 0.294849
O O3 0.475872 0.969869 0.325444
O O4 0.618963 0.971081 0.395671
O O5 0.266565 0.250000 0.226389
O O6 0.344344 0.974472 0.181002
O O7 0.300301 0.970245 0.284520
O O8 0.738788 0.750000 0.566697
O O9 0.673125 0.465836 0.609454
O O10 0.838595 0.461181 0.555451
O O11 0.681067 0.511749 0.501234
O O12 0.617354 0.750000 0.877578
O O13 0.516101 0.033645 0.897583
O O14 0.700715 0.029183 0.919094
O O15 0.867619 0.250000 0.166578
O O16 0.560466 0.250000 0.061629
O O17 0.500000 0.000000 0.000000
O O18 0.803440 0.750000 0.936088
#
# Coordination Sequence:
#
# PCOD9461613 Si02
#       7
#     8   8   8   8   8   8   8
#     4   8  15  27  44  63  84 117 156 187 218 267
#     4   8  14  25  42  62  85 117 153 182 220 271
#     4  10  20  29  41  67  98 120 145 187 234 269
#     4   8  14  25  42  63  85 114 152 186 213 259
#     4   9  17  28  40  62  96 120 142 189 236 264
#     4  10  18  28  43  65  93 120 147 183 226 269
#     4   9  16  29  47  64  86 121 158 183 215 268
#
# _framework density 21.606135999999999
#
# number of rings (size 3 to 8) (size 9 to 14) (size 15 to 20)
#    0.000    3.143    1.429    1.714    0.000    1.714 
#    0.000    5.714    0.000    0.000    0.000    5.000 
#    0.000    0.000    0.000    0.000    0.000    0.000 
#
# Total GULP energy -312501.328435 kJ/mol
# GULP energy per Si atom -5580.380865 kJ/mol
# Density = 2.155696 g / cm^3
# Si number density = 21.606136 Si / 1000 Ang^3
#
#
#
# Elastic Constant Matrix: (Units=GPa)
#
#
# Indices 1 2 3 4 5 6 
#
# 1 141.1644 4.8479 89.4824 0.0000 0.0000 0.0000
# 2 4.8479 76.1269 -1.3710 0.0000 0.0000 0.0000
# 3 89.4824 -1.3710 177.1500 0.0000 0.0000 0.0000
# 4 0.0000 0.0000 0.0000 12.9405 0.0000 0.0000
# 5 0.0000 0.0000 0.0000 0.0000 24.0437 0.0000
# 6 0.0000 0.0000 0.0000 0.0000 0.0000 -5.2891
#
#
#
# Elastic Compliance Matrix: (Units=1/GPa)
#
#
# Indices 1 2 3 4 5 6 
#
# 1 0.010464 -0.000762 -0.005292 0.000000 0.000000 0.000000
# 2 -0.000762 0.013193 0.000487 0.000000 0.000000 0.000000
# 3 -0.005292 0.000487 0.008322 0.000000 0.000000 0.000000
# 4 0.000000 0.000000 0.000000 0.077277 0.000000 0.000000
# 5 0.000000 0.000000 0.000000 0.000000 0.041591 0.000000
# 6 0.000000 0.000000 0.000000 0.000000 0.000000 -0.189069
#
#
# Mechanical properties :
#
#
# Convention : Reuss Voigt Hill
#
# Bulk Modulus (GPa) = 47.97030 64.48443 56.22737
# Shear Modulus (GPa) = -248.26944 26.43781 -110.91581
#
# Velocity S-wave (km/s) = -10.73109 3.50183 -7.17264
# Velocity P-wave (km/s) = 11.45825 6.80152 6.52038
#
# Compressibility (1/GPa) = 0.02084623
#
# Stress axis : x y z
#
# Youngs Moduli (GPa) = 95.56155 75.79643 120.16819
#
# Poissons Ratio (x) = 0.05773 0.63590
# Poissons Ratio (y) = 0.07279 -0.05850
# Poissons Ratio (z) = 0.50569 -0.03690
#
# Static dielectric constant tensor:
#      x y z
#    x 1.771420 0.000000 0.000000 
#    y 0.000000 1.884790 0.000000 
#    z 0.000000 0.000000 1.758460 
# 
# From -- ./inp_files/31189.got.cif
#   From: 2010.05.17/outbox.cif.g08.bks.cpg/sg62_16_cif.got.tgz:31189.got - 2010.06.03 15:25:27.
