data_PCOD9461890
_publ_section_title
;
Structure prediction by ZEFSAII (Michael W. Deem and Ramdas Pophale) SiO2 
 PCOD9461890
Probable space group: P N M A
;
_chemical_formula_sum "Si O2"
_cell_formula_units_Z 64
_cell_length_a 28.547778
_cell_length_b 13.995236
_cell_length_c 10.284025
_cell_angle_alpha 90.000000
_cell_angle_beta 90.000000
_cell_angle_gamma 90.000000
_cell_volume 4108.806233
_symmetry_space_group_name_H-M "P N M A"
_symmetry_group_IT_number 62
_symmetry_cell_setting 'orthorhombic'
loop_
_space_group_symop_operation_xyz
x,y,z
1/2-x,-y,1/2+z
1/2+x,1/2-y,1/2-z
-x,1/2+y,-z
-x,-y,-z
1/2+x,y,1/2-z
1/2-x,1/2+y,1/2+z
x,1/2-y,z
loop_
_atom_site_type_symbol
_atom_site_label
_atom_site_fract_x
_atom_site_fract_y
_atom_site_fract_z
Si Si1 0.081271 0.365342 0.326786
Si Si2 0.082194 0.362178 0.617272
Si Si3 0.755726 0.363995 0.062810
Si Si4 0.936537 0.531689 0.121599
Si Si5 0.492661 0.863673 0.601769
Si Si6 0.307917 0.860957 0.181675
Si Si7 0.181823 0.365237 0.209991
Si Si8 0.826488 0.526893 0.060107
O O1 0.083935 0.250000 0.335396
O O2 0.070343 0.397929 0.472826
O O3 0.041413 0.388187 0.222771
O O4 0.132398 0.395587 0.275596
O O5 0.068846 0.250000 0.632219
O O6 0.062017 0.425116 0.733631
O O7 0.138680 0.366049 0.630320
O O8 0.762825 0.250000 0.060250
O O9 0.723721 0.385483 0.189185
O O10 0.726114 0.391564 0.934376
O O11 0.803419 0.422799 0.060844
O O12 0.961434 0.429034 0.112556
O O13 0.964522 0.602877 0.026120
O O14 0.882529 0.526677 0.077452
O O15 0.501160 0.750000 0.600652
O O16 0.298142 0.750000 0.210332
O O17 0.305531 0.919409 0.314166
O O18 0.180047 0.250000 0.190329
O O19 0.186016 0.417704 0.072394
#
# Coordination Sequence:
#
# PCOD9461890 Si02
#       8
#     8   8   8   8   8   8   8   8
#     4   9  16  29  51  73  94 122 156 201 249 281
#     4   9  16  29  50  74  98 121 152 197 244 287
#     4  10  20  33  48  69 100 133 163 194 234 288
#     4  10  21  32  49  75  98 128 163 198 248 294
#     4  10  20  35  51  71  99 126 161 208 247 285
#     4   9  17  30  47  70  97 122 152 197 242 278
#     4  10  18  31  51  76  99 124 162 206 245 282
#     4  11  20  31  49  74  99 127 162 198 240 290
#
# _framework density 15.5763
#
# number of rings (size 3 to 8) (size 9 to 14) (size 15 to 20)
#    0.000    2.250    2.500    1.500    0.000    2.000 
#    0.000    0.000    0.000    0.000    0.000    0.875 
#    0.000    0.000    0.000    0.000    0.000    0.000 
#
# Total GULP energy -356725.113593 kJ/mol
# GULP energy per Si atom -5573.829900 kJ/mol
# Density = 1.554085 g / cm^3
# Si number density = 15.576300 Si / 1000 Ang^3
#
#
#
# Elastic Constant Matrix: (Units=GPa)
#
#
# Indices 1 2 3 4 5 6 
#
# 1 25.2417 23.5300 17.8594 0.0000 0.0000 0.0000
# 2 23.5300 54.8086 34.7787 0.0000 0.0000 0.0000
# 3 17.8594 34.7787 119.2845 0.0000 0.0000 0.0000
# 4 0.0000 0.0000 0.0000 10.9311 0.0000 0.0000
# 5 0.0000 0.0000 0.0000 0.0000 15.5379 0.0000
# 6 0.0000 0.0000 0.0000 0.0000 0.0000 17.4328
#
#
#
# Elastic Compliance Matrix: (Units=1/GPa)
#
#
# Indices 1 2 3 4 5 6 
#
# 1 0.066437 -0.027252 -0.002001 0.000000 0.000000 0.000000
# 2 -0.027252 0.033566 -0.005706 0.000000 0.000000 0.000000
# 3 -0.002001 -0.005706 0.010347 0.000000 0.000000 0.000000
# 4 0.000000 0.000000 0.000000 0.091482 0.000000 0.000000
# 5 0.000000 0.000000 0.000000 0.000000 0.064359 0.000000
# 6 0.000000 0.000000 0.000000 0.000000 0.000000 0.057363
#
#
# Mechanical properties :
#
#
# Convention : Reuss Voigt Hill
#
# Bulk Modulus (GPa) = 24.73412 39.07454 31.90433
# Shear Modulus (GPa) = 12.28650 16.99147 14.63899
#
# Velocity S-wave (km/s) = 2.81160 3.30639 3.06898
# Velocity P-wave (km/s) = 5.14334 6.30211 5.75198
#
# Compressibility (1/GPa) = 0.04042998
#
# Stress axis : x y z
#
# Youngs Moduli (GPa) = 15.05179 29.79205 96.64930
#
# Poissons Ratio (x) = 0.81190 0.19343
# Poissons Ratio (y) = 0.41020 0.55151
# Poissons Ratio (z) = 0.03012 0.17000
#
# Static dielectric constant tensor:
#      x y z
#    x 1.499700 0.000000 0.000000 
#    y 0.000000 1.497800 0.000000 
#    z 0.000000 0.000000 1.526740 
# 
# From -- ./inp_files/10470.got.cif
#   From: 2010.05.17/outbox.cif.g08.bks.cpg/sg62_6_cif.got.tgz:10470.got - 2010.06.03 15:25:27.
