data_PCOD9461477
_publ_section_title
;
Structure prediction by ZEFSAII (Michael W. Deem and Ramdas Pophale) SiO2 
 PCOD9461477
Probable space group: P N M A
;
_chemical_formula_sum "Si O2"
_cell_formula_units_Z 64
_cell_length_a 24.074031
_cell_length_b 7.819445
_cell_length_c 19.842726
_cell_angle_alpha 90.000000
_cell_angle_beta 90.000000
_cell_angle_gamma 90.000000
_cell_volume 3735.305094
_symmetry_space_group_name_H-M "P N M A"
_symmetry_group_IT_number 62
_symmetry_cell_setting 'orthorhombic'
loop_
_space_group_symop_operation_xyz
x,y,z
1/2-x,-y,1/2+z
1/2+x,1/2-y,1/2-z
-x,1/2+y,-z
-x,-y,-z
1/2+x,y,1/2-z
1/2-x,1/2+y,1/2+z
x,1/2-y,z
loop_
_atom_site_type_symbol
_atom_site_label
_atom_site_fract_x
_atom_site_fract_y
_atom_site_fract_z
Si Si1 0.774190 0.956734 0.148244
Si Si2 0.123113 0.950858 0.495714
Si Si3 0.249791 0.040311 0.999368
Si Si4 0.439007 0.040116 0.862139
Si Si5 0.337395 0.047800 0.222971
Si Si6 0.935687 0.949958 0.367458
Si Si7 0.337098 0.045281 0.775080
Si Si8 0.726217 0.044083 0.353360
O O1 0.773389 0.750000 0.148990
O O2 0.777832 0.013237 0.070880
O O3 0.715220 0.017219 0.179901
O O4 0.821699 0.014249 0.199680
O O5 0.129876 0.750000 0.481361
O O6 0.185895 0.018927 0.498791
O O7 0.086242 0.017683 0.433972
O O8 0.092891 0.969393 0.566911
O O9 0.249794 0.250000 0.999963
O O10 0.222578 0.984433 0.069660
O O11 0.439986 0.250000 0.860897
O O12 0.502388 0.982153 0.854524
O O13 0.395246 0.983252 0.805230
O O14 0.340750 0.250000 0.211551
O O15 0.284426 0.981474 0.179591
O O16 0.394064 0.971417 0.194970
O O17 0.940650 0.750000 0.383198
O O18 0.337195 0.250000 0.781857
O O19 0.322313 0.004019 0.698174
O O20 0.729188 0.250000 0.353986
#
# Coordination Sequence:
#
# PCOD9461477 Si02
#       8
#     8   8   8   8   8   8   8   8
#     4   9  16  28  49  70  88 115 154 191 223 270
#     4  10  17  31  48  64  92 130 162 186 222 272
#     4   9  15  27  48  69  91 124 154 178 222 282
#     4   9  18  31  48  66  90 125 163 194 225 270
#     4  10  19  32  47  64  91 125 154 187 233 276
#     4  11  21  31  44  67  94 123 162 200 224 258
#     4   9  16  29  47  66  87 117 154 190 228 267
#     4   9  17  29  45  66  91 119 151 185 226 276
#
# _framework density 17.133807999999998
#
# number of rings (size 3 to 8) (size 9 to 14) (size 15 to 20)
#    0.000    2.500    2.500    1.125    0.000    0.500 
#    0.000    3.750    0.000    0.000    0.000    0.875 
#    0.000    0.000    0.000    0.000    0.000    0.000 
#
# Total GULP energy -356826.183585 kJ/mol
# GULP energy per Si atom -5575.409119 kJ/mol
# Density = 1.709481 g / cm^3
# Si number density = 17.133808 Si / 1000 Ang^3
#
#
#
# Elastic Constant Matrix: (Units=GPa)
#
#
# Indices 1 2 3 4 5 6 
#
# 1 87.1412 -6.8482 63.1531 0.0000 0.0000 0.0000
# 2 -6.8482 12.9622 -6.9320 0.0000 0.0000 0.0000
# 3 63.1531 -6.9320 140.8948 0.0000 0.0000 0.0000
# 4 0.0000 0.0000 0.0000 19.7865 0.0000 0.0000
# 5 0.0000 0.0000 0.0000 0.0000 18.0792 0.0000
# 6 0.0000 0.0000 0.0000 0.0000 0.0000 9.7973
#
#
#
# Elastic Compliance Matrix: (Units=1/GPa)
#
#
# Indices 1 2 3 4 5 6 
#
# 1 0.017323 0.005135 -0.007512 0.000000 0.000000 0.000000
# 2 0.005135 0.080754 0.001671 0.000000 0.000000 0.000000
# 3 -0.007512 0.001671 0.010547 0.000000 0.000000 0.000000
# 4 0.000000 0.000000 0.000000 0.050540 0.000000 0.000000
# 5 0.000000 0.000000 0.000000 0.000000 0.055312 0.000000
# 6 0.000000 0.000000 0.000000 0.000000 0.000000 0.102069
#
#
# Mechanical properties :
#
#
# Convention : Reuss Voigt Hill
#
# Bulk Modulus (GPa) = 9.32724 37.74934 23.53829
# Shear Modulus (GPa) = 14.13650 22.30762 18.22206
#
# Velocity S-wave (km/s) = 2.87551 3.61219 3.26470
# Velocity P-wave (km/s) = 4.05960 6.28308 5.28949
#
# Compressibility (1/GPa) = 0.10721291
#
# Stress axis : x y z
#
# Youngs Moduli (GPa) = 57.72522 12.38325 94.81429
#
# Poissons Ratio (x) = -0.06359 0.71227
# Poissons Ratio (y) = -0.29641 -0.15848
# Poissons Ratio (z) = 0.43365 -0.02070
#
# Static dielectric constant tensor:
#      x y z
#    x 1.570070 0.000000 0.000000 
#    y 0.000000 1.636410 0.000000 
#    z 0.000000 0.000000 1.585270 
# 
# From -- ./inp_files/24796.got.cif
#   From: 2010.05.17/outbox.cif.g08.bks.cpg/sg62_13_cif.got.tgz:24796.got - 2010.06.03 15:25:27.
