data_PCOD9461944
_publ_section_title
;
Structure prediction by ZEFSAII (Michael W. Deem and Ramdas Pophale) SiO2 
 PCOD9461944
Probable space group: P N M A
;
_chemical_formula_sum "Si O2"
_cell_formula_units_Z 40
_cell_length_a 9.532176
_cell_length_b 8.821846
_cell_length_c 29.008101
_cell_angle_alpha 90.000000
_cell_angle_beta 90.000000
_cell_angle_gamma 90.000000
_cell_volume 2439.331497
_symmetry_space_group_name_H-M "P N M A"
_symmetry_group_IT_number 62
_symmetry_cell_setting 'orthorhombic'
loop_
_space_group_symop_operation_xyz
x,y,z
1/2-x,-y,1/2+z
1/2+x,1/2-y,1/2-z
-x,1/2+y,-z
-x,-y,-z
1/2+x,y,1/2-z
1/2-x,1/2+y,1/2+z
x,1/2-y,z
loop_
_atom_site_type_symbol
_atom_site_label
_atom_site_fract_x
_atom_site_fract_y
_atom_site_fract_z
Si Si1 0.312556 0.572205 0.372161
Si Si2 0.175178 0.067581 0.714317
Si Si3 0.519472 0.929657 0.550095
Si Si4 0.366765 0.569340 0.794686
Si Si5 0.124239 0.572342 0.130604
O O1 0.278215 0.750000 0.374631
O O2 0.349333 0.504467 0.422389
O O3 0.198368 0.482301 0.343499
O O4 0.466852 0.558048 0.347820
O O5 0.173068 0.250000 0.719026
O O6 0.258661 0.029717 0.667125
O O7 0.262657 0.996355 0.756004
O O8 0.019195 0.003015 0.712341
O O9 0.534118 0.750000 0.547844
O O10 0.500000 0.000000 0.500000
O O11 0.390421 0.975680 0.584020
O O12 0.373924 0.750000 0.791596
O O13 0.140415 0.750000 0.118500
#
# Coordination Sequence:
#
# PCOD9461944 Si02
#       5
#     8   8   8   8   8
#     4   9  18  35  55  78 107 141 183 224 271 326
#     4  11  22  38  57  76 107 150 188 224 274 333
#     4  10  18  31  55  84 113 142 180 228 277 324
#     4  12  24  36  53  80 112 144 185 232 276 325
#     4   8  18  34  54  78 105 139 183 224 267 322
#
# _framework density 16.397936000000001
#
# number of rings (size 3 to 8) (size 9 to 14) (size 15 to 20)
#    1.200    0.800    0.000    5.400    0.000    3.200 
#    0.000    0.000    0.000    1.200    0.000    0.000 
#    0.000    0.000    0.000    0.000    0.000    0.000 
#
# Total GULP energy -222812.952544 kJ/mol
# GULP energy per Si atom -5570.323814 kJ/mol
# Density = 1.636061 g / cm^3
# Si number density = 16.397936 Si / 1000 Ang^3
#
#
#
# Elastic Constant Matrix: (Units=GPa)
#
#
# Indices 1 2 3 4 5 6 
#
# 1 59.6419 29.9629 17.4710 0.0000 0.0000 0.0000
# 2 29.9629 104.2005 42.4675 0.0000 0.0000 0.0000
# 3 17.4710 42.4675 74.8657 0.0000 0.0000 0.0000
# 4 0.0000 0.0000 0.0000 30.4688 0.0000 0.0000
# 5 0.0000 0.0000 0.0000 0.0000 23.1954 0.0000
# 6 0.0000 0.0000 0.0000 0.0000 0.0000 24.9446
#
#
#
# Elastic Compliance Matrix: (Units=1/GPa)
#
#
# Indices 1 2 3 4 5 6 
#
# 1 0.019784 -0.004952 -0.001808 0.000000 0.000000 0.000000
# 2 -0.004952 0.013722 -0.006628 0.000000 0.000000 0.000000
# 3 -0.001808 -0.006628 0.017539 0.000000 0.000000 0.000000
# 4 0.000000 0.000000 0.000000 0.032821 0.000000 0.000000
# 5 0.000000 0.000000 0.000000 0.000000 0.043112 0.000000
# 6 0.000000 0.000000 0.000000 0.000000 0.000000 0.040089
#
#
# Mechanical properties :
#
#
# Convention : Reuss Voigt Hill
#
# Bulk Modulus (GPa) = 41.20493 46.50121 43.85307
# Shear Modulus (GPa) = 24.76069 25.64220 25.20144
#
# Velocity S-wave (km/s) = 3.89007 3.95871 3.92454
# Velocity P-wave (km/s) = 6.73495 7.02244 6.88020
#
# Compressibility (1/GPa) = 0.02426894
#
# Stress axis : x y z
#
# Youngs Moduli (GPa) = 50.54546 72.87425 57.01578
#
# Poissons Ratio (x) = 0.36089 0.10307
# Poissons Ratio (y) = 0.25031 0.37792
# Poissons Ratio (z) = 0.09138 0.48303
#
# Static dielectric constant tensor:
#      x y z
#    x 1.541550 0.000000 0.000000 
#    y 0.000000 1.542120 0.000000 
#    z 0.000000 0.000000 1.547460 
# 
# From -- ./inp_files/28567.got.cif
#   From: 2010.05.17/outbox.cif.g08.bks.cpg/sg62_15_cif.got.tgz:28567.got - 2010.06.03 15:25:27.
