data_PCOD9461543
_publ_section_title
;
Structure prediction by ZEFSAII (Michael W. Deem and Ramdas Pophale) SiO2 
 PCOD9461543
Probable space group: P N M A
;
_chemical_formula_sum "Si O2"
_cell_formula_units_Z 64
_cell_length_a 27.142113
_cell_length_b 8.744678
_cell_length_c 19.036488
_cell_angle_alpha 90.000000
_cell_angle_beta 90.000000
_cell_angle_gamma 90.000000
_cell_volume 4518.292122
_symmetry_space_group_name_H-M "P N M A"
_symmetry_group_IT_number 62
_symmetry_cell_setting 'orthorhombic'
loop_
_space_group_symop_operation_xyz
x,y,z
1/2-x,-y,1/2+z
1/2+x,1/2-y,1/2-z
-x,1/2+y,-z
-x,-y,-z
1/2+x,y,1/2-z
1/2-x,1/2+y,1/2+z
x,1/2-y,z
loop_
_atom_site_type_symbol
_atom_site_label
_atom_site_fract_x
_atom_site_fract_y
_atom_site_fract_z
Si Si1 0.202119 0.574004 0.784394
Si Si2 0.195497 0.073986 0.195608
Si Si3 0.146167 0.064235 0.330491
Si Si4 0.054782 0.434008 0.424069
Si Si5 0.758737 0.066776 0.591559
Si Si6 0.058811 0.932589 0.577598
Si Si7 0.257408 0.064069 0.070976
Si Si8 0.650332 0.068215 0.844271
O O1 0.188034 0.750000 0.794918
O O2 0.253589 0.573658 0.740415
O O3 0.215822 0.494592 0.857486
O O4 0.163744 0.490350 0.733681
O O5 0.180879 0.250000 0.182609
O O6 0.156289 0.007561 0.250799
O O7 0.212536 0.007949 0.120927
O O8 0.150255 0.250000 0.329546
O O9 0.094033 0.023449 0.364526
O O10 0.190007 0.001163 0.379218
O O11 0.057098 0.250000 0.433888
O O12 0.068181 0.512256 0.497839
O O13 0.998188 0.473102 0.406703
O O14 0.760788 0.250000 0.596304
O O15 0.752044 0.022982 0.510306
O O16 0.064212 0.750000 0.581424
O O17 0.097800 0.010283 0.628776
O O18 0.259335 0.250000 0.076380
O O19 0.307899 0.000371 0.103771
O O20 0.653029 0.250000 0.846628
#
# Coordination Sequence:
#
# PCOD9461543 Si02
#       8
#     8   8   8   8   8   8   8   8
#     4   9  17  30  44  57  78 107 136 167 206 245
#     4   7  12  24  40  55  73 100 130 159 193 234
#     4   9  16  27  42  57  76 106 141 172 203 238
#     4   9  18  30  43  60  80 105 142 181 209 240
#     4  10  18  26  39  61  85 108 137 168 196 236
#     4  10  19  30  42  57  81 110 138 172 214 252
#     4   9  17  28  41  59  84 112 138 164 200 244
#     4  11  20  29  43  61  81 107 142 176 205 245
#
# _framework density 14.164643999999999
#
# number of rings (size 3 to 8) (size 9 to 14) (size 15 to 20)
#    0.000    2.750    0.000    4.500    0.000    4.000 
#    0.000    0.000    0.000    0.000    0.000    0.000 
#    0.000    1.000    0.000    1.750    0.000    2.500 
#
# Total GULP energy -356386.606557 kJ/mol
# GULP energy per Si atom -5568.540727 kJ/mol
# Density = 1.413240 g / cm^3
# Si number density = 14.164644 Si / 1000 Ang^3
#
#
#
# Elastic Constant Matrix: (Units=GPa)
#
#
# Indices 1 2 3 4 5 6 
#
# 1 73.2462 24.0914 53.5318 0.0000 0.0000 0.0000
# 2 24.0914 33.4853 30.1576 0.0000 0.0000 0.0000
# 3 53.5318 30.1576 113.2984 0.0000 0.0000 0.0000
# 4 0.0000 0.0000 0.0000 19.4602 0.0000 0.0000
# 5 0.0000 0.0000 0.0000 0.0000 27.6482 0.0000
# 6 0.0000 0.0000 0.0000 0.0000 0.0000 15.7019
#
#
#
# Elastic Compliance Matrix: (Units=1/GPa)
#
#
# Indices 1 2 3 4 5 6 
#
# 1 0.022651 -0.008757 -0.008371 0.000000 0.000000 0.000000
# 2 -0.008757 0.042666 -0.007219 0.000000 0.000000 0.000000
# 3 -0.008371 -0.007219 0.014703 0.000000 0.000000 0.000000
# 4 0.000000 0.000000 0.000000 0.051387 0.000000 0.000000
# 5 0.000000 0.000000 0.000000 0.000000 0.036169 0.000000
# 6 0.000000 0.000000 0.000000 0.000000 0.000000 0.063686
#
#
# Mechanical properties :
#
#
# Convention : Reuss Voigt Hill
#
# Bulk Modulus (GPa) = 31.92342 48.39905 40.16124
# Shear Modulus (GPa) = 17.21767 20.04534 18.63150
#
# Velocity S-wave (km/s) = 3.49024 3.76595 3.63071
# Velocity P-wave (km/s) = 6.23127 7.29061 6.78165
#
# Compressibility (1/GPa) = 0.03132497
#
# Stress axis : x y z
#
# Youngs Moduli (GPa) = 44.14805 23.43783 68.01272
#
# Poissons Ratio (x) = 0.20525 0.56935
# Poissons Ratio (y) = 0.38661 0.49099
# Poissons Ratio (z) = 0.36958 0.16920
#
# Static dielectric constant tensor:
#      x y z
#    x 1.457050 0.000000 0.000000 
#    y 0.000000 1.480800 0.000000 
#    z 0.000000 0.000000 1.479090 
# 
# From -- ./inp_files/28001.got.cif
#   From: 2010.05.17/outbox.cif.g08.bks.cpg/sg62_15_cif.got.tgz:28001.got - 2010.06.03 15:25:27.
