data_PCOD9461067
_publ_section_title
;
Structure prediction by ZEFSAII (Michael W. Deem and Ramdas Pophale) SiO2 
 PCOD9461067
Probable space group: P B C A
;
_chemical_formula_sum "Si O2"
_cell_formula_units_Z 64
_cell_length_a 26.478493
_cell_length_b 8.890957
_cell_length_c 11.726753
_cell_angle_alpha 90.000000
_cell_angle_beta 90.000000
_cell_angle_gamma 90.000000
_cell_volume 2760.702138
_symmetry_space_group_name_H-M "P B C A"
_symmetry_group_IT_number 61
_symmetry_cell_setting 'orthorhombic'
loop_
_space_group_symop_operation_xyz
x,y,z
1/2-x,-y,1/2+z
1/2+x,1/2-y,-z
-x,1/2+y,1/2-z
-x,-y,-z
1/2+x,y,1/2-z
1/2-x,1/2+y,z
x,1/2-y,1/2+z
loop_
_atom_site_type_symbol
_atom_site_label
_atom_site_fract_x
_atom_site_fract_y
_atom_site_fract_z
Si Si1 0.422539 0.037626 0.561683
Si Si2 0.756168 0.129451 0.633337
Si Si3 0.809430 0.621480 0.013793
Si Si4 0.662938 0.048644 0.774532
Si Si5 0.593507 0.268192 0.112463
Si Si6 0.149859 0.705341 0.717977
Si Si7 0.986980 0.952168 0.716069
Si Si8 0.552939 0.747712 0.641301
O O1 0.370739 0.099800 0.617085
O O2 0.444003 0.165883 0.477869
O O3 0.416036 0.887820 0.487467
O O4 0.459007 0.001146 0.666712
O O5 0.730783 0.270621 0.573319
O O6 0.708232 0.039099 0.683256
O O7 0.795414 0.162646 0.734701
O O8 0.788019 0.041632 0.539573
O O9 0.862711 0.654559 0.073303
O O10 0.817019 0.644493 0.880447
O O11 0.616633 0.134821 0.716239
O O12 0.649813 0.881140 0.813850
O O13 0.545851 0.172500 0.150970
O O14 0.108292 0.691958 0.819907
O O15 0.036181 0.867147 0.761335
O O16 0.985762 0.106979 0.644455
#
# Coordination Sequence:
#
# PCOD9461067 Si02
#       8
#     8   8   8   8   8   8   8   8
#     4  11  24  45  74  99 144 184 238 288 358 419
#     4  11  25  45  64 100 136 178 228 286 345 416
#     4  11  25  40  68  96 132 178 229 281 350 408
#     4  11  25  42  69  98 133 182 228 287 345 418
#     4  11  24  47  69 100 140 182 236 289 347 418
#     4  11  25  44  70 101 138 182 231 289 348 418
#     4  11  25  46  71 105 141 187 232 298 351 429
#     4  11  24  45  71 103 142 186 235 295 354 423
#
# _framework density 23.182510000000001
#
# number of rings (size 3 to 8) (size 9 to 14) (size 15 to 20)
#    0.000    1.000    2.500    3.375    5.250    4.000 
#    0.000    3.125    0.000    0.000    0.000    0.000 
#    0.000    0.000    0.000    0.000    0.000    0.000 
#
# Total GULP energy -358312.717378 kJ/mol
# GULP energy per Si atom -5598.636209 kJ/mol
# Density = 2.312975 g / cm^3
# Si number density = 23.182510 Si / 1000 Ang^3
#
#
#
# Elastic Constant Matrix: (Units=GPa)
#
#
# Indices 1 2 3 4 5 6 
#
# 1 55.2546 18.0784 7.5692 0.0000 0.0000 0.0000
# 2 18.0784 46.4087 16.5428 0.0000 0.0000 0.0000
# 3 7.5692 16.5428 70.0156 0.0000 0.0000 0.0000
# 4 0.0000 0.0000 0.0000 -106.9156 0.0000 0.0000
# 5 0.0000 0.0000 0.0000 0.0000 25.7233 0.0000
# 6 0.0000 0.0000 0.0000 0.0000 0.0000 24.7375
#
#
#
# Elastic Compliance Matrix: (Units=1/GPa)
#
#
# Indices 1 2 3 4 5 6 
#
# 1 0.020750 -0.007953 -0.000364 0.000000 0.000000 0.000000
# 2 -0.007953 0.026578 -0.005420 0.000000 0.000000 0.000000
# 3 -0.000364 -0.005420 0.015602 0.000000 0.000000 0.000000
# 4 0.000000 0.000000 0.000000 -0.009353 0.000000 0.000000
# 5 0.000000 0.000000 0.000000 0.000000 0.038875 0.000000
# 6 0.000000 0.000000 0.000000 0.000000 0.000000 0.040424
#
#
# Mechanical properties :
#
#
# Convention : Reuss Voigt Hill
#
# Bulk Modulus (GPa) = 28.20408 28.45110 28.32759
# Shear Modulus (GPa) = 29.04101 -2.65841 13.19130
#
# Velocity S-wave (km/s) = 3.54321 -1.07202 2.38800
# Velocity P-wave (km/s) = 5.37881 3.28131 4.45526
#
# Compressibility (1/GPa) = 0.03545587
#
# Stress axis : x y z
#
# Youngs Moduli (GPa) = 48.19249 37.62525 64.09245
#
# Poissons Ratio (x) = 0.29925 0.02333
# Poissons Ratio (y) = 0.38329 0.34737
# Poissons Ratio (z) = 0.01755 0.20392
#
# Static dielectric constant tensor:
#      x y z
#    x 1.860980 0.000000 0.000000 
#    y 0.000000 1.891710 0.000000 
#    z 0.000000 0.000000 1.858260 
# 
# From -- ./inp_files/6778.got.cif
#   From: 2010.05.17/outbox.cif.g08.bks.cpg/sg61_4_cif.got.tgz:6778.got - 2010.06.03 15:17:17.
