data_PCOD9461450
_publ_section_title
;
Structure prediction by ZEFSAII (Michael W. Deem and Ramdas Pophale) SiO2 
 PCOD9461450
Probable space group: P N M A
;
_chemical_formula_sum "Si O2"
_cell_formula_units_Z 64
_cell_length_a 21.832381
_cell_length_b 13.006157
_cell_length_c 12.403132
_cell_angle_alpha 90.000000
_cell_angle_beta 90.000000
_cell_angle_gamma 90.000000
_cell_volume 3521.935998
_symmetry_space_group_name_H-M "P N M A"
_symmetry_group_IT_number 62
_symmetry_cell_setting 'orthorhombic'
loop_
_space_group_symop_operation_xyz
x,y,z
1/2-x,-y,1/2+z
1/2+x,1/2-y,1/2-z
-x,1/2+y,-z
-x,-y,-z
1/2+x,y,1/2-z
1/2-x,1/2+y,1/2+z
x,1/2-y,z
loop_
_atom_site_type_symbol
_atom_site_label
_atom_site_fract_x
_atom_site_fract_y
_atom_site_fract_z
Si Si1 0.474555 0.632433 0.001974
Si Si2 0.597531 0.871696 0.627329
Si Si3 0.394679 0.370977 0.123914
Si Si4 0.164413 0.870664 0.254775
Si Si5 0.219684 0.873999 0.479872
Si Si6 0.458924 0.871202 0.633243
Si Si7 0.157413 0.013757 0.045809
Si Si8 0.047732 0.521693 0.336253
O O1 0.454858 0.750000 0.005715
O O2 0.489422 0.583686 0.117797
O O3 0.540268 0.626408 0.938768
O O4 0.432849 0.556598 0.932172
O O5 0.612380 0.750000 0.622682
O O6 0.600566 0.907745 0.752469
O O7 0.527214 0.881234 0.585113
O O8 0.640696 0.938498 0.552193
O O9 0.382343 0.250000 0.135710
O O10 0.338174 0.410897 0.052379
O O11 0.170582 0.750000 0.228333
O O12 0.209039 0.898582 0.353678
O O13 0.168847 0.943734 0.151600
O O14 0.097616 0.893887 0.305347
O O15 0.221418 0.750000 0.486052
O O16 0.282274 0.921486 0.521725
O O17 0.451521 0.750000 0.661827
O O18 0.460894 0.945605 0.736693
O O19 0.401425 0.912287 0.565570
#
# Coordination Sequence:
#
# PCOD9461450 Si02
#       8
#     8   8   8   8   8   8   8   8
#     4  10  17  29  50  82 116 146 185 233 277 326
#     4  10  20  36  58  83 112 144 182 230 276 333
#     4   9  17  32  56  80 108 147 184 220 269 326
#     4  10  21  38  56  79 112 147 186 230 278 337
#     4  10  21  38  58  80 108 146 189 230 273 333
#     4  10  20  36  55  82 115 145 185 235 283 334
#     4  11  23  35  59  86 108 145 187 233 286 331
#     4  10  18  28  53  83 106 148 187 224 276 330
#
# _framework density 18.171824000000001
#
# number of rings (size 3 to 8) (size 9 to 14) (size 15 to 20)
#    0.000    2.000    2.500    1.875    1.750    0.000 
#    0.000    0.000    0.000    4.500    0.000    0.000 
#    0.000    0.000    0.000    0.000    0.000    0.000 
#
# Total GULP energy -356594.617064 kJ/mol
# GULP energy per Si atom -5571.790892 kJ/mol
# Density = 1.813046 g / cm^3
# Si number density = 18.171824 Si / 1000 Ang^3
#
#
#
# Elastic Constant Matrix: (Units=GPa)
#
#
# Indices 1 2 3 4 5 6 
#
# 1 66.8458 10.4869 32.5160 0.0000 0.0000 0.0000
# 2 10.4869 45.3718 18.7309 0.0000 0.0000 0.0000
# 3 32.5160 18.7309 75.0062 0.0000 0.0000 0.0000
# 4 0.0000 0.0000 0.0000 23.5612 0.0000 0.0000
# 5 0.0000 0.0000 0.0000 0.0000 25.1602 0.0000
# 6 0.0000 0.0000 0.0000 0.0000 0.0000 29.8248
#
#
#
# Elastic Compliance Matrix: (Units=1/GPa)
#
#
# Indices 1 2 3 4 5 6 
#
# 1 0.019007 -0.001105 -0.007964 0.000000 0.000000 0.000000
# 2 -0.001105 0.024638 -0.005673 0.000000 0.000000 0.000000
# 3 -0.007964 -0.005673 0.018201 0.000000 0.000000 0.000000
# 4 0.000000 0.000000 0.000000 0.042443 0.000000 0.000000
# 5 0.000000 0.000000 0.000000 0.000000 0.039745 0.000000
# 6 0.000000 0.000000 0.000000 0.000000 0.000000 0.033529
#
#
# Mechanical properties :
#
#
# Convention : Reuss Voigt Hill
#
# Bulk Modulus (GPa) = 30.90136 34.52123 32.71130
# Shear Modulus (GPa) = 22.95310 24.07524 23.51417
#
# Velocity S-wave (km/s) = 3.55789 3.64382 3.60111
# Velocity P-wave (km/s) = 5.82410 6.06148 5.94398
#
# Compressibility (1/GPa) = 0.03236103
#
# Stress axis : x y z
#
# Youngs Moduli (GPa) = 52.61208 40.58807 54.94090
#
# Poissons Ratio (x) = 0.04487 0.43753
# Poissons Ratio (y) = 0.05816 0.31170
# Poissons Ratio (z) = 0.41899 0.23027
#
# Static dielectric constant tensor:
#      x y z
#    x 1.627610 0.000000 0.000000 
#    y 0.000000 1.624740 0.000000 
#    z 0.000000 0.000000 1.653130 
# 
# From -- ./inp_files/14357.got.cif
#   From: 2010.05.17/outbox.cif.g08.bks.cpg/sg62_8_cif.got.tgz:14357.got - 2010.06.03 15:25:27.
