data_PCOD9461179
_publ_section_title
;
Structure prediction by ZEFSAII (Michael W. Deem and Ramdas Pophale) SiO2 
 PCOD9461179
Probable space group: P B C A
;
_chemical_formula_sum "Si O2"
_cell_formula_units_Z 48
_cell_length_a 8.282549
_cell_length_b 17.562685
_cell_length_c 13.845035
_cell_angle_alpha 90.000000
_cell_angle_beta 90.000000
_cell_angle_gamma 90.000000
_cell_volume 2013.951390
_symmetry_space_group_name_H-M "P B C A"
_symmetry_group_IT_number 61
_symmetry_cell_setting 'orthorhombic'
loop_
_space_group_symop_operation_xyz
x,y,z
1/2-x,-y,1/2+z
1/2+x,1/2-y,-z
-x,1/2+y,1/2-z
-x,-y,-z
1/2+x,y,1/2-z
1/2-x,1/2+y,z
x,1/2-y,1/2+z
loop_
_atom_site_type_symbol
_atom_site_label
_atom_site_fract_x
_atom_site_fract_y
_atom_site_fract_z
Si Si1 0.651372 0.782636 0.208538
Si Si2 0.979881 0.825655 0.104652
Si Si3 0.552782 0.893225 0.694914
Si Si4 0.811888 0.065564 0.001256
Si Si5 0.478463 0.819531 0.024063
Si Si6 0.798156 0.417146 0.889271
O O1 0.618719 0.804198 0.318568
O O2 0.629371 0.691540 0.198612
O O3 0.818347 0.814154 0.166488
O O4 0.519258 0.817876 0.136365
O O5 0.029216 0.904874 0.055850
O O6 0.967948 0.764952 0.018479
O O7 0.643728 0.941795 0.613295
O O8 0.367262 0.889588 0.661247
O O9 0.575899 0.927410 0.801270
O O10 0.738031 0.993735 0.947634
O O11 0.682347 0.133612 0.996152
O O12 0.623455 0.858607 0.964145
#
# Coordination Sequence:
#
# PCOD9461179 Si02
#       6
#     8   8   8   8   8   8
#     4  12  25  42  75 103 139 183 249 298 361 420
#     4  12  24  43  70 104 137 187 240 301 351 430
#     4  12  24  46  71 101 142 193 237 301 366 433
#     4  12  27  47  71 109 149 189 242 300 368 433
#     4  12  24  45  73 103 140 187 241 299 356 427
#     4  12  28  45  74 104 149 191 243 295 372 438
#
# _framework density 23.833742999999998
#
# number of rings (size 3 to 8) (size 9 to 14) (size 15 to 20)
#    0.000    0.000    5.000    5.000    2.333    4.000 
#    0.000    0.000    0.000    0.000    0.000    0.000 
#    0.000    0.000    0.000    0.000    0.000    0.000 
#
# Total GULP energy -269153.102306 kJ/mol
# GULP energy per Si atom -5607.356298 kJ/mol
# Density = 2.377950 g / cm^3
# Si number density = 23.833743 Si / 1000 Ang^3
#
#
#
# Elastic Constant Matrix: (Units=GPa)
#
#
# Indices 1 2 3 4 5 6 
#
# 1 67.5679 -15.0153 4.5480 0.0000 0.0000 0.0000
# 2 -15.0153 27.7379 31.7761 0.0000 0.0000 0.0000
# 3 4.5480 31.7761 123.9296 0.0000 0.0000 0.0000
# 4 0.0000 0.0000 0.0000 27.9327 0.0000 0.0000
# 5 0.0000 0.0000 0.0000 0.0000 40.1263 0.0000
# 6 0.0000 0.0000 0.0000 0.0000 0.0000 -45.1799
#
#
#
# Elastic Compliance Matrix: (Units=1/GPa)
#
#
# Indices 1 2 3 4 5 6 
#
# 1 0.018506 0.015286 -0.004599 0.000000 0.000000 0.000000
# 2 0.015286 0.063671 -0.016887 0.000000 0.000000 0.000000
# 3 -0.004599 -0.016887 0.012568 0.000000 0.000000 0.000000
# 4 0.000000 0.000000 0.000000 0.035800 0.000000 0.000000
# 5 0.000000 0.000000 0.000000 0.000000 0.024921 0.000000
# 6 0.000000 0.000000 0.000000 0.000000 0.000000 -0.022134
#
#
# Mechanical properties :
#
#
# Convention : Reuss Voigt Hill
#
# Bulk Modulus (GPa) = 12.14371 29.09479 20.61925
# Shear Modulus (GPa) = 28.87157 17.77091 23.32124
#
# Velocity S-wave (km/s) = 3.48426 2.73357 3.13149
# Velocity P-wave (km/s) = 4.61443 4.71138 4.66315
#
# Compressibility (1/GPa) = 0.08234717
#
# Stress axis : x y z
#
# Youngs Moduli (GPa) = 54.03540 15.70564 79.56933
#
# Poissons Ratio (x) = -0.24008 0.36590
# Poissons Ratio (y) = -0.82599 1.34366
# Poissons Ratio (z) = 0.24848 0.26521
#
# Static dielectric constant tensor:
#      x y z
#    x 1.978360 0.000000 0.000000 
#    y 0.000000 1.854540 0.000000 
#    z 0.000000 0.000000 1.847810 
# 
# From -- ./inp_files/7060.got.cif
#   From: 2010.05.17/outbox.cif.g08.bks.cpg/sg61_4_cif.got.tgz:7060.got - 2010.06.03 15:17:17.
