data_PCOD9461056
_publ_section_title
;
Structure prediction by ZEFSAII (Michael W. Deem and Ramdas Pophale) SiO2 
 PCOD9461056
Probable space group: P B C A
;
_chemical_formula_sum "Si O2"
_cell_formula_units_Z 64
_cell_length_a 9.067438
_cell_length_b 20.814877
_cell_length_c 14.155000
_cell_angle_alpha 90.000000
_cell_angle_beta 90.000000
_cell_angle_gamma 90.000000
_cell_volume 2671.580822
_symmetry_space_group_name_H-M "P B C A"
_symmetry_group_IT_number 61
_symmetry_cell_setting 'orthorhombic'
loop_
_space_group_symop_operation_xyz
x,y,z
1/2-x,-y,1/2+z
1/2+x,1/2-y,-z
-x,1/2+y,1/2-z
-x,-y,-z
1/2+x,y,1/2-z
1/2-x,1/2+y,z
x,1/2-y,1/2+z
loop_
_atom_site_type_symbol
_atom_site_label
_atom_site_fract_x
_atom_site_fract_y
_atom_site_fract_z
Si Si1 0.961082 0.741831 0.381802
Si Si2 0.093463 0.119759 0.531811
Si Si3 0.791495 0.053507 0.506346
Si Si4 0.606966 0.045003 0.312771
Si Si5 0.248714 0.728499 0.780864
Si Si6 0.918500 0.837089 0.065939
Si Si7 0.673680 0.597798 0.819255
Si Si8 0.773307 0.425036 0.628272
O O1 0.962869 0.811378 0.432832
O O2 0.821904 0.741664 0.311797
O O3 0.947899 0.690830 0.463667
O O4 0.108392 0.735057 0.320846
O O5 0.174600 0.089208 0.623047
O O6 0.211761 0.126338 0.447168
O O7 0.960799 0.074455 0.498462
O O8 0.710781 0.047888 0.405253
O O9 0.712467 0.112535 0.557722
O O10 0.760830 0.990869 0.569621
O O11 0.444638 0.069292 0.341890
O O12 0.678005 0.080510 0.223636
O O13 0.610694 0.969407 0.283250
O O14 0.371416 0.718315 0.861209
O O15 0.197849 0.656035 0.752718
O O16 0.056734 0.874831 0.106430
#
# Coordination Sequence:
#
# PCOD9461056 Si02
#       8
#     8   8   8   8   8   8   8   8
#     4  11  27  47  77 108 141 190 243 301 368 437
#     4  11  25  43  71 101 144 186 239 298 357 427
#     4  12  24  47  70 106 144 186 242 292 367 434
#     4  12  26  42  71 106 143 192 236 295 370 433
#     4  11  24  46  72 111 134 184 249 299 360 429
#     4  12  25  47  72 105 149 188 241 307 369 437
#     4  11  24  43  72 103 143 188 240 298 356 435
#     4  12  25  44  69 105 146 188 239 301 362 435
#
# _framework density 23.955853000000001
#
# number of rings (size 3 to 8) (size 9 to 14) (size 15 to 20)
#    0.000    0.500    5.000    3.000    5.250    0.000 
#    2.250    0.000    0.000    0.000    0.000    0.000 
#    0.000    0.000    0.000    0.000    0.000    0.000 
#
# Total GULP energy -358734.345655 kJ/mol
# GULP energy per Si atom -5605.224151 kJ/mol
# Density = 2.390133 g / cm^3
# Si number density = 23.955853 Si / 1000 Ang^3
#
#
#
# Elastic Constant Matrix: (Units=GPa)
#
#
# Indices 1 2 3 4 5 6 
#
# 1 124.7075 12.7967 22.1532 0.0000 0.0000 0.0000
# 2 12.7967 36.1562 7.9554 0.0000 0.0000 0.0000
# 3 22.1532 7.9554 103.0541 0.0000 0.0000 0.0000
# 4 0.0000 0.0000 0.0000 -29.4498 0.0000 0.0000
# 5 0.0000 0.0000 0.0000 0.0000 46.0079 0.0000
# 6 0.0000 0.0000 0.0000 0.0000 0.0000 13.8471
#
#
#
# Elastic Compliance Matrix: (Units=1/GPa)
#
#
# Indices 1 2 3 4 5 6 
#
# 1 0.008585 -0.002678 -0.001639 0.000000 0.000000 0.000000
# 2 -0.002678 0.028971 -0.001661 0.000000 0.000000 0.000000
# 3 -0.001639 -0.001661 0.010184 0.000000 0.000000 0.000000
# 4 0.000000 0.000000 0.000000 -0.033956 0.000000 0.000000
# 5 0.000000 0.000000 0.000000 0.000000 0.021735 0.000000
# 6 0.000000 0.000000 0.000000 0.000000 0.000000 0.072217
#
#
# Mechanical properties :
#
#
# Convention : Reuss Voigt Hill
#
# Bulk Modulus (GPa) = 27.94458 38.85871 33.40165
# Shear Modulus (GPa) = 37.98832 20.81520 29.40176
#
# Velocity S-wave (km/s) = 3.98648 2.95091 3.50713
# Velocity P-wave (km/s) = 5.73409 5.27889 5.51119
#
# Compressibility (1/GPa) = 0.03578511
#
# Stress axis : x y z
#
# Youngs Moduli (GPa) = 116.48710 34.51732 98.19218
#
# Poissons Ratio (x) = 0.09243 0.16091
# Poissons Ratio (y) = 0.31193 0.16308
# Poissons Ratio (z) = 0.19089 0.05733
#
# Static dielectric constant tensor:
#      x y z
#    x 1.904620 0.000000 0.000000 
#    y 0.000000 1.937680 0.000000 
#    z 0.000000 0.000000 1.879290 
# 
# From -- ./inp_files/7245.got.cif
#   From: 2010.05.17/outbox.cif.g08.bks.cpg/sg61_4_cif.got.tgz:7245.got - 2010.06.03 15:17:17.
