data_PCOD9461940
_publ_section_title
;
Structure prediction by ZEFSAII (Michael W. Deem and Ramdas Pophale) SiO2 
 PCOD9461940
Probable space group: P N M A
;
_chemical_formula_sum "Si O2"
_cell_formula_units_Z 64
_cell_length_a 9.716325
_cell_length_b 20.078342
_cell_length_c 20.801653
_cell_angle_alpha 90.000000
_cell_angle_beta 90.000000
_cell_angle_gamma 90.000000
_cell_volume 4058.146564
_symmetry_space_group_name_H-M "P N M A"
_symmetry_group_IT_number 62
_symmetry_cell_setting 'orthorhombic'
loop_
_space_group_symop_operation_xyz
x,y,z
1/2-x,-y,1/2+z
1/2+x,1/2-y,1/2-z
-x,1/2+y,-z
-x,-y,-z
1/2+x,y,1/2-z
1/2-x,1/2+y,1/2+z
x,1/2-y,z
loop_
_atom_site_type_symbol
_atom_site_label
_atom_site_fract_x
_atom_site_fract_y
_atom_site_fract_z
Si Si1 0.652149 0.522415 0.672728
Si Si2 0.585000 0.048702 0.551008
Si Si3 0.450428 0.674485 0.523689
Si Si4 0.101929 0.061380 0.251202
Si Si5 0.838370 0.991758 0.487855
Si Si6 0.521281 0.326364 0.151997
Si Si7 0.237013 0.630696 0.933953
Si Si8 0.250744 0.408942 0.117664
O O1 0.575519 0.471099 0.625184
O O2 0.803709 0.513876 0.703872
O O3 0.548253 0.536474 0.730837
O O4 0.676787 0.583804 0.623353
O O5 0.549839 0.124537 0.536737
O O6 0.745844 0.036811 0.535343
O O7 0.500000 0.000000 0.500000
O O8 0.401954 0.750000 0.514252
O O9 0.608292 0.674474 0.546083
O O10 0.356208 0.633999 0.574765
O O11 0.081179 0.130662 0.289019
O O12 0.180876 0.074341 0.184923
O O13 0.795359 0.023306 0.419483
O O14 0.788917 0.917931 0.508479
O O15 0.000000 0.000000 0.500000
O O16 0.494349 0.250000 0.169080
O O17 0.634196 0.331288 0.095684
O O18 0.384974 0.364194 0.128859
#
# Coordination Sequence:
#
# PCOD9461940 Si02
#       8
#     8   8   8   8   8   8   8   8
#     4  10  19  34  52  71 101 129 175 219 253 297
#     4  10  18  34  54  76 102 133 171 220 271 300
#     4  11  21  33  54  80 103 133 174 216 264 317
#     4  11  21  34  46  71  98 136 180 212 244 304
#     4  10  18  31  55  74  97 129 171 220 268 302
#     4  11  23  35  45  65 105 146 175 206 251 309
#     4  10  19  35  51  73  98 137 172 213 260 306
#     4  11  21  35  51  74 103 138 174 218 258 308
#
# _framework density 15.770746000000001
#
# number of rings (size 3 to 8) (size 9 to 14) (size 15 to 20)
#    0.000    1.500    6.250    1.500    0.000    1.000 
#    0.000    0.000    0.000    0.000    0.000    0.875 
#    0.000    0.000    0.000    0.000    0.000    0.000 
#
# Total GULP energy -356290.504518 kJ/mol
# GULP energy per Si atom -5567.039133 kJ/mol
# Density = 1.573485 g / cm^3
# Si number density = 15.770746 Si / 1000 Ang^3
#
#
#
# Elastic Constant Matrix: (Units=GPa)
#
#
# Indices 1 2 3 4 5 6 
#
# 1 88.4946 13.7183 17.6997 0.0000 0.0000 0.0000
# 2 13.7183 55.4774 38.4413 0.0000 0.0000 0.0000
# 3 17.6997 38.4413 66.8855 0.0000 0.0000 0.0000
# 4 0.0000 0.0000 0.0000 13.5725 0.0000 0.0000
# 5 0.0000 0.0000 0.0000 0.0000 24.3864 0.0000
# 6 0.0000 0.0000 0.0000 0.0000 0.0000 15.2450
#
#
#
# Elastic Compliance Matrix: (Units=1/GPa)
#
#
# Indices 1 2 3 4 5 6 
#
# 1 0.011986 -0.001273 -0.002440 0.000000 0.000000 0.000000
# 2 -0.001273 0.030090 -0.016957 0.000000 0.000000 0.000000
# 3 -0.002440 -0.016957 0.025342 0.000000 0.000000 0.000000
# 4 0.000000 0.000000 0.000000 0.073678 0.000000 0.000000
# 5 0.000000 0.000000 0.000000 0.000000 0.041007 0.000000
# 6 0.000000 0.000000 0.000000 0.000000 0.000000 0.065595
#
#
# Mechanical properties :
#
#
# Convention : Reuss Voigt Hill
#
# Bulk Modulus (GPa) = 38.34657 38.95291 38.64974
# Shear Modulus (GPa) = 16.79376 20.04065 18.41720
#
# Velocity S-wave (km/s) = 3.26677 3.56862 3.42103
# Velocity P-wave (km/s) = 6.21264 6.46012 6.33759
#
# Compressibility (1/GPa) = 0.02607795
#
# Stress axis : x y z
#
# Youngs Moduli (GPa) = 83.43413 33.23396 39.45988
#
# Poissons Ratio (x) = 0.04231 0.09629
# Poissons Ratio (y) = 0.10621 0.66911
# Poissons Ratio (z) = 0.20359 0.56354
#
# Static dielectric constant tensor:
#      x y z
#    x 1.567310 0.000000 0.000000 
#    y 0.000000 1.541470 0.000000 
#    z 0.000000 0.000000 1.556570 
# 
# From -- ./inp_files/26285.got.cif
#   From: 2010.05.17/outbox.cif.g08.bks.cpg/sg62_14_cif.got.tgz:26285.got - 2010.06.03 15:25:27.
