data_PCOD9461115
_publ_section_title
;
Structure prediction by ZEFSAII (Michael W. Deem and Ramdas Pophale) SiO2 
 PCOD9461115
Probable space group: P B C A
;
_chemical_formula_sum "Si O2"
_cell_formula_units_Z 32
_cell_length_a 8.599611
_cell_length_b 17.440867
_cell_length_c 8.132102
_cell_angle_alpha 90.000000
_cell_angle_beta 90.000000
_cell_angle_gamma 90.000000
_cell_volume 1219.690649
_symmetry_space_group_name_H-M "P B C A"
_symmetry_group_IT_number 61
_symmetry_cell_setting 'orthorhombic'
loop_
_space_group_symop_operation_xyz
x,y,z
1/2-x,-y,1/2+z
1/2+x,1/2-y,-z
-x,1/2+y,1/2-z
-x,-y,-z
1/2+x,y,1/2-z
1/2-x,1/2+y,z
x,1/2-y,1/2+z
loop_
_atom_site_type_symbol
_atom_site_label
_atom_site_fract_x
_atom_site_fract_y
_atom_site_fract_z
Si Si1 0.726499 0.320236 0.814976
Si Si2 0.021210 0.222080 0.896010
Si Si3 0.561223 0.069316 0.781411
Si Si4 0.227065 0.467663 0.894677
O O1 0.669850 0.270584 0.661180
O O2 0.759887 0.403944 0.744170
O O3 0.876421 0.279660 0.893491
O O4 0.576214 0.315619 0.933981
O O5 0.002841 0.153355 0.765370
O O6 0.636831 0.029528 0.621926
O O7 0.424284 0.015651 0.843989
O O8 0.689368 0.069746 0.928845
#
# Coordination Sequence:
#
# PCOD9461115 Si02
#       4
#     8   8   8   8
#     4  12  26  45  71 105 144 189 237 292 354 423
#     4  12  26  45  70 103 144 187 237 292 354 423
#     4  11  25  46  72 104 139 180 231 290 353 420
#     4  11  25  46  73 104 139 180 231 289 353 421
#
# _framework density 26.236162
#
# number of rings (size 3 to 8) (size 9 to 14) (size 15 to 20)
#    0.000    0.500    0.000    7.500    0.000   14.000 
#    0.000    2.500    0.000    0.000    0.000    0.000 
#    0.000    0.000    0.000    0.000    0.000    0.000 
#
# Total GULP energy -179529.714241 kJ/mol
# GULP energy per Si atom -5610.303570 kJ/mol
# Density = 2.617645 g / cm^3
# Si number density = 26.236162 Si / 1000 Ang^3
#
#
#
# Elastic Constant Matrix: (Units=GPa)
#
#
# Indices 1 2 3 4 5 6 
#
# 1 58.5187 17.0397 -14.3250 0.0000 0.0000 0.0000
# 2 17.0397 145.2463 8.3721 0.0000 0.0000 0.0000
# 3 -14.3250 8.3721 55.4081 0.0000 0.0000 0.0000
# 4 0.0000 0.0000 0.0000 23.0424 0.0000 0.0000
# 5 0.0000 0.0000 0.0000 0.0000 49.0425 0.0000
# 6 0.0000 0.0000 0.0000 0.0000 0.0000 36.7051
#
#
#
# Elastic Compliance Matrix: (Units=1/GPa)
#
#
# Indices 1 2 3 4 5 6 
#
# 1 0.019137 -0.002553 0.005333 0.000000 0.000000 0.000000
# 2 -0.002553 0.007286 -0.001761 0.000000 0.000000 0.000000
# 3 0.005333 -0.001761 0.019693 0.000000 0.000000 0.000000
# 4 0.000000 0.000000 0.000000 0.043398 0.000000 0.000000
# 5 0.000000 0.000000 0.000000 0.000000 0.020390 0.000000
# 6 0.000000 0.000000 0.000000 0.000000 0.000000 0.027244
#
#
# Mechanical properties :
#
#
# Convention : Reuss Voigt Hill
#
# Bulk Modulus (GPa) = 20.76579 31.26075 26.01327
# Shear Modulus (GPa) = 33.07734 38.29710 35.68722
#
# Velocity S-wave (km/s) = 3.55456 3.82476 3.69213
# Velocity P-wave (km/s) = 4.97782 5.60767 5.30211
#
# Compressibility (1/GPa) = 0.04815612
#
# Stress axis : x y z
#
# Youngs Moduli (GPa) = 52.25376 137.25320 50.77989
#
# Poissons Ratio (x) = 0.35034 -0.27083
# Poissons Ratio (y) = 0.13338 0.08941
# Poissons Ratio (z) = -0.27869 0.24168
#
# Static dielectric constant tensor:
#      x y z
#    x 1.993330 0.000000 0.000000 
#    y 0.000000 2.051370 0.000000 
#    z 0.000000 0.000000 2.123630 
# 
# From -- ./inp_files/1667.got.cif
#   From: 2010.05.17/outbox.cif.g08.bks.cpg/sg61_1_cif.got.tgz:1667.got - 2010.06.03 15:17:17.
