data_PCOD9461104
_publ_section_title
;
Structure prediction by ZEFSAII (Michael W. Deem and Ramdas Pophale) SiO2 
 PCOD9461104
Probable space group: P B C A
;
_chemical_formula_sum "Si O2"
_cell_formula_units_Z 48
_cell_length_a 34.674863
_cell_length_b 6.571844
_cell_length_c 8.517278
_cell_angle_alpha 90.000000
_cell_angle_beta 90.000000
_cell_angle_gamma 90.000000
_cell_volume 1940.898490
_symmetry_space_group_name_H-M "P B C A"
_symmetry_group_IT_number 61
_symmetry_cell_setting 'orthorhombic'
loop_
_space_group_symop_operation_xyz
x,y,z
1/2-x,-y,1/2+z
1/2+x,1/2-y,-z
-x,1/2+y,1/2-z
-x,-y,-z
1/2+x,y,1/2-z
1/2-x,1/2+y,z
x,1/2-y,1/2+z
loop_
_atom_site_type_symbol
_atom_site_label
_atom_site_fract_x
_atom_site_fract_y
_atom_site_fract_z
Si Si1 0.045960 0.704159 0.394098
Si Si2 0.100213 0.091058 0.720770
Si Si3 0.794570 0.171998 0.738439
Si Si4 0.652541 0.123468 0.066763
Si Si5 0.216288 0.452014 0.434115
Si Si6 0.538388 0.059610 0.298684
O O1 0.081335 0.600945 0.304352
O O2 0.046009 0.610624 0.567855
O O3 0.046043 0.945920 0.366346
O O4 0.005590 0.628839 0.318114
O O5 0.125731 0.219571 0.841475
O O6 0.127530 0.039694 0.575632
O O7 0.065947 0.248583 0.676615
O O8 0.800225 0.410776 0.708741
O O9 0.831817 0.053518 0.677726
O O10 0.757762 0.115123 0.629815
O O11 0.784586 0.091946 0.910888
O O12 0.690109 0.258298 0.024023
#
# Coordination Sequence:
#
# PCOD9461104 Si02
#       6
#     8   8   8   8   8   8
#     4  11  25  44  72 104 141 185 239 284 350 423
#     4  12  26  48  68 107 145 185 227 299 352 413
#     4  12  27  46  75 105 141 188 237 288 350 426
#     4  12  28  48  70 103 151 180 233 292 358 410
#     4  12  27  46  75 106 140 189 238 287 352 426
#     4  11  25  44  72 105 138 189 236 286 348 424
#
# _framework density 24.730815
#
# number of rings (size 3 to 8) (size 9 to 14) (size 15 to 20)
#    0.000    0.333    6.667    1.000    7.000    3.333 
#    0.000    0.000    0.000    0.000    0.000    0.000 
#    0.000    0.000    0.000    0.000    0.000    0.000 
#
# Total GULP energy -269176.216720 kJ/mol
# GULP energy per Si atom -5607.837848 kJ/mol
# Density = 2.467453 g / cm^3
# Si number density = 24.730815 Si / 1000 Ang^3
#
#
#
# Elastic Constant Matrix: (Units=GPa)
#
#
# Indices 1 2 3 4 5 6 
#
# 1 102.9039 8.6811 21.1318 0.0000 0.0000 0.0000
# 2 8.6811 62.9595 1.0037 0.0000 0.0000 0.0000
# 3 21.1318 1.0037 63.7637 0.0000 0.0000 0.0000
# 4 0.0000 0.0000 0.0000 40.3600 0.0000 0.0000
# 5 0.0000 0.0000 0.0000 0.0000 34.6730 0.0000
# 6 0.0000 0.0000 0.0000 0.0000 0.0000 33.2897
#
#
#
# Elastic Compliance Matrix: (Units=1/GPa)
#
#
# Indices 1 2 3 4 5 6 
#
# 1 0.010549 -0.001399 -0.003474 0.000000 0.000000 0.000000
# 2 -0.001399 0.016073 0.000211 0.000000 0.000000 0.000000
# 3 -0.003474 0.000211 0.016831 0.000000 0.000000 0.000000
# 4 0.000000 0.000000 0.000000 0.024777 0.000000 0.000000
# 5 0.000000 0.000000 0.000000 0.000000 0.028841 0.000000
# 6 0.000000 0.000000 0.000000 0.000000 0.000000 0.030039
#
#
# Mechanical properties :
#
#
# Convention : Reuss Voigt Hill
#
# Bulk Modulus (GPa) = 29.30159 32.36226 30.83192
# Shear Modulus (GPa) = 33.82692 34.91858 34.37275
#
# Velocity S-wave (km/s) = 3.70240 3.76166 3.73215
# Velocity P-wave (km/s) = 5.49099 5.65518 5.57369
#
# Compressibility (1/GPa) = 0.03412784
#
# Stress axis : x y z
#
# Youngs Moduli (GPa) = 94.79332 62.21690 59.41445
#
# Poissons Ratio (x) = 0.08705 0.20641
# Poissons Ratio (y) = 0.13263 -0.01252
# Poissons Ratio (z) = 0.32932 -0.01311
#
# Static dielectric constant tensor:
#      x y z
#    x 1.918280 0.000000 0.000000 
#    y 0.000000 1.952770 0.000000 
#    z 0.000000 0.000000 1.969010 
# 
# From -- ./inp_files/4567.got.cif
#   From: 2010.05.17/outbox.cif.g08.bks.cpg/sg61_3_cif.got.tgz:4567.got - 2010.06.03 15:17:17.
