data_PCOD9461669
_publ_section_title
;
Structure prediction by ZEFSAII (Michael W. Deem and Ramdas Pophale) SiO2 
 PCOD9461669
Probable space group: P N M A
;
_chemical_formula_sum "Si O2"
_cell_formula_units_Z 36
_cell_length_a 5.034818
_cell_length_b 31.133328
_cell_length_c 15.640642
_cell_angle_alpha 90.000000
_cell_angle_beta 90.000000
_cell_angle_gamma 90.000000
_cell_volume 2451.680647
_symmetry_space_group_name_H-M "P N M A"
_symmetry_group_IT_number 62
_symmetry_cell_setting 'orthorhombic'
loop_
_space_group_symop_operation_xyz
x,y,z
1/2-x,-y,1/2+z
1/2+x,1/2-y,1/2-z
-x,1/2+y,-z
-x,-y,-z
1/2+x,y,1/2-z
1/2-x,1/2+y,1/2+z
x,1/2-y,z
loop_
_atom_site_type_symbol
_atom_site_label
_atom_site_fract_x
_atom_site_fract_y
_atom_site_fract_z
Si Si1 0.475590 0.656067 0.688660
Si Si2 0.131425 0.453805 0.520582
Si Si3 0.282386 0.008670 0.693489
Si Si4 0.544602 0.250000 0.312281
Si Si5 0.841922 0.926468 0.920826
O O1 0.760634 0.652924 0.734555
O O2 0.446623 0.703171 0.644841
O O3 0.421745 0.617589 0.624118
O O4 0.207207 0.457284 0.619960
O O5 0.401354 0.446105 0.468383
O O6 0.000000 0.500000 0.500000
O O7 0.903078 0.421938 0.486828
O O8 0.579424 0.012903 0.728292
O O9 0.256769 0.961315 0.651144
O O10 0.781344 0.250000 0.244397
#
# Coordination Sequence:
#
# PCOD9461669 Si02
#       5
#     8   8   8   4   8
#     4  10  18  29  44  65  87 115 148 177 204 244
#     4  10  20  32  42  58  84 111 138 177 222 248
#     4  11  19  29  43  59  78 108 144 176 203 242
#     4   8  16  28  42  60  88 114 138 172 212 242
#     4  11  19  30  44  61  84 112 144 177 208 247
#
# _framework density 14.683805
#
# number of rings (size 3 to 8) (size 9 to 14) (size 15 to 20)
#    0.000    1.778    0.000    9.333    0.000    0.000 
#    0.000    0.000    0.000    0.000    0.000    0.000 
#    0.000    0.000    0.000   20.000    0.000    0.000 
#
# Total GULP energy -200627.071522 kJ/mol
# GULP energy per Si atom -5572.974209 kJ/mol
# Density = 1.465038 g / cm^3
# Si number density = 14.683805 Si / 1000 Ang^3
#
#
#
# Elastic Constant Matrix: (Units=GPa)
#
#
# Indices 1 2 3 4 5 6 
#
# 1 66.7632 -5.8190 2.9299 0.0000 0.0000 0.0000
# 2 -5.8190 58.5647 27.2399 0.0000 0.0000 0.0000
# 3 2.9299 27.2399 45.6189 0.0000 0.0000 0.0000
# 4 0.0000 0.0000 0.0000 15.7212 0.0000 0.0000
# 5 0.0000 0.0000 0.0000 0.0000 33.8761 0.0000
# 6 0.0000 0.0000 0.0000 0.0000 0.0000 14.9089
#
#
#
# Elastic Compliance Matrix: (Units=1/GPa)
#
#
# Indices 1 2 3 4 5 6 
#
# 1 0.015333 0.002743 -0.002623 0.000000 0.000000 0.000000
# 2 0.002743 0.024132 -0.014586 0.000000 0.000000 0.000000
# 3 -0.002623 -0.014586 0.030799 0.000000 0.000000 0.000000
# 4 0.000000 0.000000 0.000000 0.063608 0.000000 0.000000
# 5 0.000000 0.000000 0.000000 0.000000 0.029519 0.000000
# 6 0.000000 0.000000 0.000000 0.000000 0.000000 0.067074
#
#
# Mechanical properties :
#
#
# Convention : Reuss Voigt Hill
#
# Bulk Modulus (GPa) = 24.19403 24.40539 24.29971
# Shear Modulus (GPa) = 18.30343 22.67432 20.48888
#
# Velocity S-wave (km/s) = 3.53442 3.93386 3.73948
# Velocity P-wave (km/s) = 5.75922 6.10658 5.93544
#
# Compressibility (1/GPa) = 0.04133251
#
# Stress axis : x y z
#
# Youngs Moduli (GPa) = 65.22082 41.43876 32.46890
#
# Poissons Ratio (x) = -0.11368 0.08516
# Poissons Ratio (y) = -0.17893 0.47359
# Poissons Ratio (z) = 0.17107 0.60442
#
# Static dielectric constant tensor:
#      x y z
#    x 1.509160 0.000000 0.000000 
#    y 0.000000 1.509600 0.000000 
#    z 0.000000 0.000000 1.483620 
# 
# From -- ./inp_files/10720.got.cif
#   From: 2010.05.17/outbox.cif.g08.bks.cpg/sg62_6_cif.got.tgz:10720.got - 2010.06.03 15:25:27.
