data_PCOD9461822
_publ_section_title
;
Structure prediction by ZEFSAII (Michael W. Deem and Ramdas Pophale) SiO2 
 PCOD9461822
Probable space group: P N M A
;
_chemical_formula_sum "Si O2"
_cell_formula_units_Z 64
_cell_length_a 10.085675
_cell_length_b 21.556277
_cell_length_c 18.558606
_cell_angle_alpha 90.000000
_cell_angle_beta 90.000000
_cell_angle_gamma 90.000000
_cell_volume 4034.819182
_symmetry_space_group_name_H-M "P N M A"
_symmetry_group_IT_number 62
_symmetry_cell_setting 'orthorhombic'
loop_
_space_group_symop_operation_xyz
x,y,z
1/2-x,-y,1/2+z
1/2+x,1/2-y,1/2-z
-x,1/2+y,-z
-x,-y,-z
1/2+x,y,1/2-z
1/2-x,1/2+y,1/2+z
x,1/2-y,z
loop_
_atom_site_type_symbol
_atom_site_label
_atom_site_fract_x
_atom_site_fract_y
_atom_site_fract_z
Si Si1 0.036367 0.823157 0.165086
Si Si2 0.649791 0.439390 0.044132
Si Si3 0.057583 0.876168 0.320285
Si Si4 0.714035 0.975557 0.829863
Si Si5 0.788970 0.613409 0.399715
Si Si6 0.905480 0.978468 0.696517
Si Si7 0.229439 0.321850 0.916014
Si Si8 0.833426 0.427247 0.479527
O O1 0.032591 0.750000 0.180641
O O2 0.016179 0.860086 0.239313
O O3 0.175812 0.843205 0.131557
O O4 0.919159 0.837023 0.109006
O O5 0.656584 0.439010 0.130457
O O6 0.493022 0.429957 0.028093
O O7 0.718605 0.394426 0.986161
O O8 0.695631 0.508278 0.020587
O O9 0.177890 0.833725 0.346457
O O10 0.934378 0.865748 0.373790
O O11 0.101962 0.948106 0.323206
O O12 0.823985 0.967314 0.769004
O O13 0.564115 0.967261 0.799497
O O14 0.725784 0.931564 0.899405
O O15 0.724167 0.045345 0.862469
O O16 0.237131 0.250000 0.937782
O O17 0.282369 0.368971 0.976081
#
# Coordination Sequence:
#
# PCOD9461822 Si02
#       8
#     8   8   8   8   8   8   8   8
#     4  11  24  35  45  71 109 140 172 212 250 292
#     4   9  16  32  54  72 100 134 165 211 253 296
#     4  11  19  32  53  70 101 139 175 204 235 297
#     4   9  19  31  52  76 102 129 162 206 259 300
#     4  10  19  34  51  71 100 139 174 206 250 293
#     4  10  18  30  51  78 105 130 161 206 258 303
#     4  11  22  35  51  72 100 137 175 210 247 292
#     4   9  16  34  52  73  99 132 168 205 250 303
#
# _framework density 15.861926
#
# number of rings (size 3 to 8) (size 9 to 14) (size 15 to 20)
#    0.000    2.000    3.750    2.625    1.750    2.000 
#    2.250    1.250    0.000    0.000    0.000    4.375 
#    0.000    0.000    0.000    0.000    0.000    0.000 
#
# Total GULP energy -356644.893624 kJ/mol
# GULP energy per Si atom -5572.576463 kJ/mol
# Density = 1.582582 g / cm^3
# Si number density = 15.861926 Si / 1000 Ang^3
#
#
#
# Elastic Constant Matrix: (Units=GPa)
#
#
# Indices 1 2 3 4 5 6 
#
# 1 47.7233 16.9837 37.0624 0.0000 0.0000 0.0000
# 2 16.9837 21.3999 17.8455 0.0000 0.0000 0.0000
# 3 37.0624 17.8455 77.3772 0.0000 0.0000 0.0000
# 4 0.0000 0.0000 0.0000 19.7270 0.0000 0.0000
# 5 0.0000 0.0000 0.0000 0.0000 29.4322 0.0000
# 6 0.0000 0.0000 0.0000 0.0000 0.0000 18.4917
#
#
#
# Elastic Compliance Matrix: (Units=1/GPa)
#
#
# Indices 1 2 3 4 5 6 
#
# 1 0.038679 -0.018879 -0.014173 0.000000 0.000000 0.000000
# 2 -0.018879 0.067071 -0.006426 0.000000 0.000000 0.000000
# 3 -0.014173 -0.006426 0.021194 0.000000 0.000000 0.000000
# 4 0.000000 0.000000 0.000000 0.050692 0.000000 0.000000
# 5 0.000000 0.000000 0.000000 0.000000 0.033976 0.000000
# 6 0.000000 0.000000 0.000000 0.000000 0.000000 0.054078
#
#
# Mechanical properties :
#
#
# Convention : Reuss Voigt Hill
#
# Bulk Modulus (GPa) = 20.83785 32.25372 26.54579
# Shear Modulus (GPa) = 13.86416 18.50410 16.18413
#
# Velocity S-wave (km/s) = 2.95965 3.41922 3.19770
# Velocity P-wave (km/s) = 4.98446 5.99719 5.51413
#
# Compressibility (1/GPa) = 0.04798960
#
# Stress axis : x y z
#
# Youngs Moduli (GPa) = 25.85364 14.90964 47.18262
#
# Poissons Ratio (x) = 0.28147 0.66871
# Poissons Ratio (y) = 0.48808 0.30320
# Poissons Ratio (z) = 0.36642 0.09581
#
# Static dielectric constant tensor:
#      x y z
#    x 1.526250 0.000000 0.000000 
#    y 0.000000 1.511100 0.000000 
#    z 0.000000 0.000000 1.544930 
# 
# From -- ./inp_files/26280.got.cif
#   From: 2010.05.17/outbox.cif.g08.bks.cpg/sg62_14_cif.got.tgz:26280.got - 2010.06.03 15:25:27.
