data_PCOD9461838
_publ_section_title
;
Structure prediction by ZEFSAII (Michael W. Deem and Ramdas Pophale) SiO2 
 PCOD9461838
Probable space group: P N M A
;
_chemical_formula_sum "Si O2"
_cell_formula_units_Z 56
_cell_length_a 18.019386
_cell_length_b 9.044274
_cell_length_c 19.520424
_cell_angle_alpha 90.000000
_cell_angle_beta 90.000000
_cell_angle_gamma 90.000000
_cell_volume 3181.287699
_symmetry_space_group_name_H-M "P N M A"
_symmetry_group_IT_number 62
_symmetry_cell_setting 'orthorhombic'
loop_
_space_group_symop_operation_xyz
x,y,z
1/2-x,-y,1/2+z
1/2+x,1/2-y,1/2-z
-x,1/2+y,-z
-x,-y,-z
1/2+x,y,1/2-z
1/2-x,1/2+y,1/2+z
x,1/2-y,z
loop_
_atom_site_type_symbol
_atom_site_label
_atom_site_fract_x
_atom_site_fract_y
_atom_site_fract_z
Si Si1 0.328993 0.926369 0.958083
Si Si2 0.306330 0.573373 0.383594
Si Si3 0.502854 0.927262 0.282805
Si Si4 0.345633 0.074277 0.248358
Si Si5 0.948811 0.075316 0.637873
Si Si6 0.376327 0.925738 0.112319
Si Si7 0.974449 0.925521 0.069533
O O1 0.320123 0.750000 0.953195
O O2 0.255031 0.007612 0.933499
O O3 0.394713 0.979984 0.908305
O O4 0.349624 0.963280 0.036351
O O5 0.300189 0.750000 0.377910
O O6 0.298058 0.500895 0.308472
O O7 0.388948 0.538357 0.411719
O O8 0.484421 0.750000 0.280284
O O9 0.558085 0.953678 0.219643
O O10 0.521554 0.962341 0.361551
O O11 0.429225 0.019323 0.265489
O O12 0.339778 0.250000 0.251176
O O13 0.333819 0.013191 0.171926
O O14 0.934587 0.250000 0.626252
O O15 0.035038 0.046392 0.618779
O O16 0.366422 0.750000 0.123888
O O17 0.979003 0.750000 0.060222
O O18 0.000000 0.000000 0.000000
#
# Coordination Sequence:
#
# PCOD9461838 Si02
#       7
#     8   8   8   8   8   8   8
#     4  11  22  34  51  78 109 139 175 219 261 305
#     4  10  21  38  55  72 102 142 176 209 262 324
#     4   8  16  32  51  73 102 135 168 201 249 311
#     4  10  18  30  53  79  98 123 167 217 256 298
#     4   9  17  32  53  74 102 142 179 211 256 313
#     4   9  19  35  53  75 106 142 176 211 257 312
#     4   9  18  33  55  79 101 129 168 214 260 309
#
# _framework density 17.602934999999999
#
# number of rings (size 3 to 8) (size 9 to 14) (size 15 to 20)
#    0.000    2.571    0.000    4.286    0.000    6.286 
#    0.000    1.429    0.000    5.143    0.000    0.000 
#    0.000    0.000    0.000    0.000    0.000    0.000 
#
# Total GULP energy -312129.050153 kJ/mol
# GULP energy per Si atom -5573.733038 kJ/mol
# Density = 1.756287 g / cm^3
# Si number density = 17.602935 Si / 1000 Ang^3
#
#
#
# Elastic Constant Matrix: (Units=GPa)
#
#
# Indices 1 2 3 4 5 6 
#
# 1 36.3286 34.2913 54.6880 0.0000 0.0000 0.0000
# 2 34.2913 60.8357 75.1125 0.0000 0.0000 0.0000
# 3 54.6880 75.1125 192.5044 0.0000 0.0000 0.0000
# 4 0.0000 0.0000 0.0000 34.8099 0.0000 0.0000
# 5 0.0000 0.0000 0.0000 0.0000 14.3626 0.0000
# 6 0.0000 0.0000 0.0000 0.0000 0.0000 25.9134
#
#
#
# Elastic Compliance Matrix: (Units=1/GPa)
#
#
# Indices 1 2 3 4 5 6 
#
# 1 0.064637 -0.026555 -0.008001 0.000000 0.000000 0.000000
# 2 -0.026555 0.042628 -0.009089 0.000000 0.000000 0.000000
# 3 -0.008001 -0.009089 0.011014 0.000000 0.000000 0.000000
# 4 0.000000 0.000000 0.000000 0.028727 0.000000 0.000000
# 5 0.000000 0.000000 0.000000 0.000000 0.069625 0.000000
# 6 0.000000 0.000000 0.000000 0.000000 0.000000 0.038590
#
#
# Mechanical properties :
#
#
# Convention : Reuss Voigt Hill
#
# Bulk Modulus (GPa) = 32.26983 68.65026 50.46004
# Shear Modulus (GPa) = 14.17068 23.38899 18.77984
#
# Velocity S-wave (km/s) = 2.84036 3.64909 3.26982
# Velocity P-wave (km/s) = 5.39711 7.53913 6.55619
#
# Compressibility (1/GPa) = 0.03098870
#
# Stress axis : x y z
#
# Youngs Moduli (GPa) = 15.47101 23.45886 90.79351
#
# Poissons Ratio (x) = 0.62296 0.72644
# Poissons Ratio (y) = 0.41084 0.82520
# Poissons Ratio (z) = 0.12378 0.21321
#
# Static dielectric constant tensor:
#      x y z
#    x 1.592350 0.000000 0.000000 
#    y 0.000000 1.583400 0.000000 
#    z 0.000000 0.000000 1.630570 
# 
# From -- ./inp_files/24562.got.cif
#   From: 2010.05.17/outbox.cif.g08.bks.cpg/sg62_13_cif.got.tgz:24562.got - 2010.06.03 15:25:27.
