data_PCOD9461536
_publ_section_title
;
Structure prediction by ZEFSAII (Michael W. Deem and Ramdas Pophale) SiO2 
 PCOD9461536
Probable space group: P N M A
;
_chemical_formula_sum "Si O2"
_cell_formula_units_Z 36
_cell_length_a 11.856513
_cell_length_b 13.506531
_cell_length_c 11.826279
_cell_angle_alpha 90.000000
_cell_angle_beta 90.000000
_cell_angle_gamma 90.000000
_cell_volume 1893.864581
_symmetry_space_group_name_H-M "P N M A"
_symmetry_group_IT_number 62
_symmetry_cell_setting 'orthorhombic'
loop_
_space_group_symop_operation_xyz
x,y,z
1/2-x,-y,1/2+z
1/2+x,1/2-y,1/2-z
-x,1/2+y,-z
-x,-y,-z
1/2+x,y,1/2-z
1/2-x,1/2+y,1/2+z
x,1/2-y,z
loop_
_atom_site_type_symbol
_atom_site_label
_atom_site_fract_x
_atom_site_fract_y
_atom_site_fract_z
Si Si1 0.690894 0.359922 0.330326
Si Si2 0.570437 0.750000 0.023625
Si Si3 0.946026 0.579790 0.615080
Si Si4 0.660450 0.250000 0.535367
Si Si5 0.381561 0.750000 0.209110
Si Si6 0.153347 0.456221 0.615302
O O1 0.746768 0.250000 0.312133
O O2 0.607071 0.375649 0.226930
O O3 0.633631 0.342585 0.453039
O O4 0.770121 0.454689 0.340623
O O5 0.528451 0.843364 0.949506
O O6 0.702835 0.750000 0.049028
O O7 0.497348 0.750000 0.137799
O O8 0.851450 0.553277 0.521362
O O9 0.024278 0.486682 0.644300
O O10 0.605313 0.250000 0.656709
O O11 0.319564 0.649415 0.169842
#
# Coordination Sequence:
#
# PCOD9461536 Si02
#       6
#     8   4   8   4   4   8
#     4  10  21  34  64  88 117 151 197 258 290 351
#     4  10  17  39  67  82 111 156 204 240 291 360
#     4  10  19  38  61  91 111 152 208 244 292 352
#     4  10  21  39  61  90 117 156 192 246 311 346
#     4  10  24  36  58  88 124 156 200 244 288 366
#     4  10  22  36  60  86 116 163 197 243 297 356
#
# _framework density 19.008752000000001
#
# number of rings (size 3 to 8) (size 9 to 14) (size 15 to 20)
#    0.667    1.333    3.333    0.000    3.111    0.000 
#    0.000    1.111    9.778    0.000    0.000    0.000 
#    0.000    0.000    0.000    0.000    0.000    0.000 
#
# Total GULP energy -200435.978157 kJ/mol
# GULP energy per Si atom -5567.666060 kJ/mol
# Density = 1.896549 g / cm^3
# Si number density = 19.008752 Si / 1000 Ang^3
#
#
#
# Elastic Constant Matrix: (Units=GPa)
#
#
# Indices 1 2 3 4 5 6 
#
# 1 24.3203 18.0816 44.5957 0.0000 0.0000 0.0000
# 2 18.0816 149.4228 44.9193 0.0000 0.0000 0.0000
# 3 44.5957 44.9193 151.4759 0.0000 0.0000 0.0000
# 4 0.0000 0.0000 0.0000 29.3768 0.0000 0.0000
# 5 0.0000 0.0000 0.0000 0.0000 22.0788 0.0000
# 6 0.0000 0.0000 0.0000 0.0000 0.0000 20.5757
#
#
#
# Elastic Compliance Matrix: (Units=1/GPa)
#
#
# Indices 1 2 3 4 5 6 
#
# 1 0.090764 -0.003239 -0.025761 0.000000 0.000000 0.000000
# 2 -0.003239 0.007463 -0.001260 0.000000 0.000000 0.000000
# 3 -0.025761 -0.001260 0.014559 0.000000 0.000000 0.000000
# 4 0.000000 0.000000 0.000000 0.034041 0.000000 0.000000
# 5 0.000000 0.000000 0.000000 0.000000 0.045292 0.000000
# 6 0.000000 0.000000 0.000000 0.000000 0.000000 0.048601
#
#
# Mechanical properties :
#
#
# Convention : Reuss Voigt Hill
#
# Bulk Modulus (GPa) = 19.13252 60.04579 39.58916
# Shear Modulus (GPa) = 15.69063 28.91440 22.30251
#
# Velocity S-wave (km/s) = 2.87617 3.90437 3.42903
# Velocity P-wave (km/s) = 4.59530 7.20989 6.04563
#
# Compressibility (1/GPa) = 0.05226702
#
# Stress axis : x y z
#
# Youngs Moduli (GPa) = 11.01762 133.99419 68.68384
#
# Poissons Ratio (x) = 0.43401 1.76937
# Poissons Ratio (y) = 0.03569 0.08651
# Poissons Ratio (z) = 0.28383 0.16877
#
# Static dielectric constant tensor:
#      x y z
#    x 1.650720 0.000000 0.000000 
#    y 0.000000 1.735560 0.000000 
#    z 0.000000 0.000000 1.671950 
# 
# From -- ./inp_files/12015.got.cif
#   From: 2010.05.17/outbox.cif.g08.bks.cpg/sg62_7_cif.got.tgz:12015.got - 2010.06.03 15:25:27.
