data_PCOD9461062
_publ_section_title
;
Structure prediction by ZEFSAII (Michael W. Deem and Ramdas Pophale) SiO2 
 PCOD9461062
Probable space group: P B C A
;
_chemical_formula_sum "Si O2"
_cell_formula_units_Z 60
_cell_length_a 21.279868
_cell_length_b 13.295770
_cell_length_c 9.311302
_cell_angle_alpha 90.000000
_cell_angle_beta 90.000000
_cell_angle_gamma 90.000000
_cell_volume 2634.467444
_symmetry_space_group_name_H-M "P B C A"
_symmetry_group_IT_number 61
_symmetry_cell_setting 'orthorhombic'
loop_
_space_group_symop_operation_xyz
x,y,z
1/2-x,-y,1/2+z
1/2+x,1/2-y,-z
-x,1/2+y,1/2-z
-x,-y,-z
1/2+x,y,1/2-z
1/2-x,1/2+y,z
x,1/2-y,1/2+z
loop_
_atom_site_type_symbol
_atom_site_label
_atom_site_fract_x
_atom_site_fract_y
_atom_site_fract_z
Si Si1 0.339077 0.807044 0.924128
Si Si2 0.406130 0.211828 0.411466
Si Si3 0.086337 0.492803 0.270356
Si Si4 0.460608 0.680665 0.977466
Si Si5 0.148894 0.638765 0.678664
Si Si6 0.909299 0.941648 0.761494
Si Si7 0.708585 0.129743 0.763354
Si Si8 0.000000 0.000000 0.500000
O O1 0.347245 0.899545 0.816289
O O2 0.299489 0.719849 0.849612
O O3 0.410050 0.763425 0.933000
O O4 0.314286 0.833488 0.080049
O O5 0.471215 0.229807 0.498684
O O6 0.386964 0.298149 0.301241
O O7 0.352518 0.201302 0.531742
O O8 0.416566 0.106272 0.329376
O O9 0.046017 0.411972 0.365484
O O10 0.158835 0.455920 0.280331
O O11 0.062620 0.487749 0.107043
O O12 0.437956 0.639209 0.130742
O O13 0.109231 0.539046 0.647845
O O14 0.218175 0.607664 0.725098
O O15 0.958483 0.974000 0.641958
#
# Coordination Sequence:
#
# PCOD9461062 Si02
#       8
#     8   8   8   8   8   8   8   4
#     4  11  24  44  75 105 135 187 244 291 353 428
#     4  12  27  47  70 107 141 189 231 302 360 420
#     4  11  24  46  73 101 142 187 236 299 359 428
#     4  11  24  46  74 105 142 182 231 299 374 422
#     4  12  30  45  68 101 148 192 236 290 357 429
#     4  12  25  46  72 107 142 184 231 301 362 427
#     4  11  25  47  68 103 138 194 241 286 348 434
#     4  12  24  40  74 108 134 168 246 290 354 424
#
# _framework density 22.775002000000001
#
# number of rings (size 3 to 8) (size 9 to 14) (size 15 to 20)
#    0.000    0.533    5.333    2.000    5.600    2.133 
#    0.000    0.000    0.000    0.000    0.000    0.000 
#    0.000    0.000    0.000    0.000    0.000    0.000 
#
# Total GULP energy -334990.574788 kJ/mol
# GULP energy per Si atom -5583.176246 kJ/mol
# Density = 2.272316 g / cm^3
# Si number density = 22.775002 Si / 1000 Ang^3
#
#
#
# Elastic Constant Matrix: (Units=GPa)
#
#
# Indices 1 2 3 4 5 6 
#
# 1 105.9213 20.0955 6.4334 0.0000 0.0000 0.0000
# 2 20.0955 41.3837 0.5238 0.0000 0.0000 0.0000
# 3 6.4334 0.5238 90.7259 0.0000 0.0000 0.0000
# 4 0.0000 0.0000 0.0000 24.4999 0.0000 0.0000
# 5 0.0000 0.0000 0.0000 0.0000 29.2133 0.0000
# 6 0.0000 0.0000 0.0000 0.0000 0.0000 12.3786
#
#
#
# Elastic Compliance Matrix: (Units=1/GPa)
#
#
# Indices 1 2 3 4 5 6 
#
# 1 0.010445 -0.005063 -0.000711 0.000000 0.000000 0.000000
# 2 -0.005063 0.026620 0.000205 0.000000 0.000000 0.000000
# 3 -0.000711 0.000205 0.011071 0.000000 0.000000 0.000000
# 4 0.000000 0.000000 0.000000 0.040817 0.000000 0.000000
# 5 0.000000 0.000000 0.000000 0.000000 0.034231 0.000000
# 6 0.000000 0.000000 0.000000 0.000000 0.000000 0.080784
#
#
# Mechanical properties :
#
#
# Convention : Reuss Voigt Hill
#
# Bulk Modulus (GPa) = 27.02830 32.45960 29.74395
# Shear Modulus (GPa) = 21.98394 27.28356 24.63375
#
# Velocity S-wave (km/s) = 3.11024 3.46491 3.29236
# Velocity P-wave (km/s) = 4.97910 5.50370 5.24796
#
# Compressibility (1/GPa) = 0.03699826
#
# Stress axis : x y z
#
# Youngs Moduli (GPa) = 95.74222 37.56580 90.32226
#
# Poissons Ratio (x) = 0.19019 0.06426
# Poissons Ratio (y) = 0.48473 -0.01854
# Poissons Ratio (z) = 0.06811 -0.00771
#
# Static dielectric constant tensor:
#      x y z
#    x 1.872550 0.000000 0.000000 
#    y 0.000000 1.854570 0.000000 
#    z 0.000000 0.000000 1.774610 
# 
# From -- ./inp_files/4296.got.cif
#   From: 2010.05.17/outbox.cif.g08.bks.cpg/sg61_3_cif.got.tgz:4296.got - 2010.06.03 15:17:17.
