data_PCOD9461833
_publ_section_title
;
Structure prediction by ZEFSAII (Michael W. Deem and Ramdas Pophale) SiO2 
 PCOD9461833
Probable space group: P N M A
;
_chemical_formula_sum "Si O2"
_cell_formula_units_Z 64
_cell_length_a 20.960607
_cell_length_b 7.903549
_cell_length_c 17.463397
_cell_angle_alpha 90.000000
_cell_angle_beta 90.000000
_cell_angle_gamma 90.000000
_cell_volume 2893.041959
_symmetry_space_group_name_H-M "P N M A"
_symmetry_group_IT_number 62
_symmetry_cell_setting 'orthorhombic'
loop_
_space_group_symop_operation_xyz
x,y,z
1/2-x,-y,1/2+z
1/2+x,1/2-y,1/2-z
-x,1/2+y,-z
-x,-y,-z
1/2+x,y,1/2-z
1/2-x,1/2+y,1/2+z
x,1/2-y,z
loop_
_atom_site_type_symbol
_atom_site_label
_atom_site_fract_x
_atom_site_fract_y
_atom_site_fract_z
Si Si1 0.336593 0.456630 0.058955
Si Si2 0.490225 0.551621 0.341304
Si Si3 0.657756 0.552658 0.110244
Si Si4 0.297039 0.443673 0.347850
Si Si5 0.396566 0.556465 0.466533
Si Si6 0.692226 0.458200 0.400969
Si Si7 0.612252 0.548180 0.783305
Si Si8 0.383899 0.554899 0.737780
O O1 0.337480 0.250000 0.062788
O O2 0.359137 0.510370 0.974624
O O3 0.262622 0.508163 0.071519
O O4 0.378834 0.515375 0.130590
O O5 0.503716 0.750000 0.352760
O O6 0.455753 0.482464 0.418221
O O7 0.440140 0.533753 0.271420
O O8 0.553405 0.460116 0.313783
O O9 0.672153 0.750000 0.101788
O O10 0.723006 0.467817 0.138319
O O11 0.608968 0.530862 0.179905
O O12 0.314882 0.250000 0.365850
O O13 0.338600 0.556082 0.405102
O O14 0.320844 0.474853 0.261771
O O15 0.413641 0.750000 0.484960
O O16 0.363257 0.479689 0.541180
O O17 0.690957 0.250000 0.402197
O O18 0.673005 0.513424 0.315763
O O19 0.598705 0.750000 0.784988
O O20 0.370684 0.750000 0.753933
#
# Coordination Sequence:
#
# PCOD9461833 Si02
#       8
#     8   8   8   8   8   8   8   8
#     4   9  17  32  57  84 108 138 178 222 270 328
#     4  10  21  37  56  80 111 145 186 230 273 325
#     4  11  21  35  56  79 110 146 181 223 278 333
#     4  10  18  30  52  82 113 141 175 220 270 325
#     4   9  17  33  57  81 109 147 183 219 268 325
#     4   9  17  33  57  84 112 145 181 218 271 332
#     4   9  18  34  57  81 105 141 187 227 266 320
#     4  11  23  38  57  79 108 147 189 231 272 324
#
# _framework density 22.122043999999999
#
# number of rings (size 3 to 8) (size 9 to 14) (size 15 to 20)
#    0.000    2.250    1.250    2.250    0.000    3.500 
#    0.000    3.125    0.000    0.000    0.000    0.000 
#    0.000    0.000    0.000    0.000    0.000    0.000 
#
# Total GULP energy -357237.849515 kJ/mol
# GULP energy per Si atom -5581.841399 kJ/mol
# Density = 2.207169 g / cm^3
# Si number density = 22.122044 Si / 1000 Ang^3
#
#
#
# Elastic Constant Matrix: (Units=GPa)
#
#
# Indices 1 2 3 4 5 6 
#
# 1 34.3713 -4.2030 11.1136 0.0000 0.0000 0.0000
# 2 -4.2030 33.7377 10.5227 0.0000 0.0000 0.0000
# 3 11.1136 10.5227 119.0239 0.0000 0.0000 0.0000
# 4 0.0000 0.0000 0.0000 13.9822 0.0000 0.0000
# 5 0.0000 0.0000 0.0000 0.0000 27.5107 0.0000
# 6 0.0000 0.0000 0.0000 0.0000 0.0000 35.3536
#
#
#
# Elastic Compliance Matrix: (Units=1/GPa)
#
#
# Indices 1 2 3 4 5 6 
#
# 1 0.030756 0.004861 -0.003302 0.000000 0.000000 0.000000
# 2 0.004861 0.031249 -0.003217 0.000000 0.000000 0.000000
# 3 -0.003302 -0.003217 0.008994 0.000000 0.000000 0.000000
# 4 0.000000 0.000000 0.000000 0.071520 0.000000 0.000000
# 5 0.000000 0.000000 0.000000 0.000000 0.036349 0.000000
# 6 0.000000 0.000000 0.000000 0.000000 0.000000 0.028286
#
#
# Mechanical properties :
#
#
# Convention : Reuss Voigt Hill
#
# Bulk Modulus (GPa) = 14.77414 24.66660 19.72037
# Shear Modulus (GPa) = 21.45646 26.68260 24.06953
#
# Velocity S-wave (km/s) = 3.11772 3.47674 3.30211
# Velocity P-wave (km/s) = 4.43319 5.22412 4.84482
#
# Compressibility (1/GPa) = 0.06768586
#
# Stress axis : x y z
#
# Youngs Moduli (GPa) = 32.51401 32.00072 111.18121
#
# Poissons Ratio (x) = -0.15556 0.36707
# Poissons Ratio (y) = -0.15806 0.35763
# Poissons Ratio (z) = 0.10735 0.10293
#
# Static dielectric constant tensor:
#      x y z
#    x 1.800140 0.000000 0.000000 
#    y 0.000000 1.802920 0.000000 
#    z 0.000000 0.000000 1.849600 
# 
# From -- ./inp_files/24750.got.cif
#   From: 2010.05.17/outbox.cif.g08.bks.cpg/sg62_13_cif.got.tgz:24750.got - 2010.06.03 15:25:27.
