data_PCOD9461374
_publ_section_title
;
Structure prediction by ZEFSAII (Michael W. Deem and Ramdas Pophale) SiO2 
 PCOD9461374
Probable space group: P N M A
;
_chemical_formula_sum "Si O2"
_cell_formula_units_Z 48
_cell_length_a 31.565106
_cell_length_b 8.777265
_cell_length_c 7.610658
_cell_angle_alpha 90.000000
_cell_angle_beta 90.000000
_cell_angle_gamma 90.000000
_cell_volume 2108.573136
_symmetry_space_group_name_H-M "P N M A"
_symmetry_group_IT_number 62
_symmetry_cell_setting 'orthorhombic'
loop_
_space_group_symop_operation_xyz
x,y,z
1/2-x,-y,1/2+z
1/2+x,1/2-y,1/2-z
-x,1/2+y,-z
-x,-y,-z
1/2+x,y,1/2-z
1/2-x,1/2+y,1/2+z
x,1/2-y,z
loop_
_atom_site_type_symbol
_atom_site_label
_atom_site_fract_x
_atom_site_fract_y
_atom_site_fract_z
Si Si1 0.940355 0.577343 0.137227
Si Si2 0.280479 0.568214 0.620273
Si Si3 0.689172 0.928746 0.017914
Si Si4 0.610321 0.432380 0.140265
Si Si5 0.021721 0.075530 0.262724
Si Si6 0.641036 0.929814 0.512048
O O1 0.928596 0.750000 0.180756
O O2 0.979556 0.522622 0.254267
O O3 0.958973 0.574880 0.936760
O O4 0.898030 0.477028 0.135695
O O5 0.285772 0.750000 0.647409
O O6 0.231137 0.536298 0.591632
O O7 0.294345 0.472281 0.788383
O O8 0.313858 0.515273 0.470307
O O9 0.679913 0.750000 0.002056
O O10 0.645495 0.020434 0.998780
O O11 0.611681 0.250000 0.167844
O O12 0.561195 0.475132 0.117112
O O13 0.624440 0.516790 0.319566
O O14 0.010892 0.250000 0.304734
O O15 0.647951 0.750000 0.519151
#
# Coordination Sequence:
#
# PCOD9461374 Si02
#       6
#     8   8   8   8   8   8
#     4   9  15  22  33  50  75 107 140 175 215 258
#     4  10  20  33  48  67  92 120 152 190 228 269
#     4  10  20  32  48  69  91 119 154 189 227 271
#     4   9  16  26  40  57  81 112 143 179 221 263
#     4   8  14  22  32  50  75 105 140 173 210 258
#     4  10  17  25  39  57  80 111 145 180 219 265
#
# _framework density 22.764208
#
# number of rings (size 3 to 8) (size 9 to 14) (size 15 to 20)
#    0.000    2.667    0.000    6.500    0.000    7.333 
#    0.000    0.000    0.000    0.000    0.000    0.000 
#    0.000    1.333    0.000    4.333    0.000   14.000 
#
# Total GULP energy -267872.647122 kJ/mol
# GULP energy per Si atom -5580.680148 kJ/mol
# Density = 2.271240 g / cm^3
# Si number density = 22.764208 Si / 1000 Ang^3
#
#
#
# Elastic Constant Matrix: (Units=GPa)
#
#
# Indices 1 2 3 4 5 6 
#
# 1 -0.7221 1.1624 92.1850 0.0000 0.0000 0.0000
# 2 1.1624 52.8818 20.6847 0.0000 0.0000 0.0000
# 3 92.1850 20.6847 11.0077 0.0000 0.0000 0.0000
# 4 0.0000 0.0000 0.0000 -2.4264 0.0000 0.0000
# 5 0.0000 0.0000 0.0000 0.0000 1.4027 0.0000
# 6 0.0000 0.0000 0.0000 0.0000 0.0000 44.2878
#
#
#
# Elastic Compliance Matrix: (Units=1/GPa)
#
#
# Indices 1 2 3 4 5 6 
#
# 1 -0.000347 -0.004255 0.010899 0.000000 0.000000 0.000000
# 2 -0.004255 0.019111 -0.000274 0.000000 0.000000 0.000000
# 3 0.010899 -0.000274 0.000089 0.000000 0.000000 0.000000
# 4 0.000000 0.000000 0.000000 -0.412139 0.000000 0.000000
# 5 0.000000 0.000000 0.000000 0.000000 0.712906 0.000000
# 6 0.000000 0.000000 0.000000 0.000000 0.000000 0.022580
#
#
# Mechanical properties :
#
#
# Convention : Reuss Voigt Hill
#
# Bulk Modulus (GPa) = 31.65440 32.35905 32.00672
# Shear Modulus (GPa) = 14.70621 5.26186 9.98403
#
# Velocity S-wave (km/s) = 2.54446 1.52200 2.09651
# Velocity P-wave (km/s) = 4.75057 4.16346 4.46667
#
# Compressibility (1/GPa) = 0.03159118
#
# Stress axis : x y z
#
# Youngs Moduli (GPa) = -2885.52053 52.32609 11257.33813
#
# Poissons Ratio (x) = 0.22267 -122.69028
# Poissons Ratio (y) = -12.27904 3.08790
# Poissons Ratio (z) = 31.44840 0.01435
#
# Static dielectric constant tensor:
#      x y z
#    x 1.895410 0.000000 0.000000 
#    y 0.000000 1.737940 0.000000 
#    z 0.000000 0.000000 1.994220 
# 
# From -- ./inp_files/15618.got.cif
#   From: 2010.05.17/outbox.cif.g08.bks.cpg/sg62_8_cif.got.tgz:15618.got - 2010.06.03 15:25:27.
