data_PCOD9461712
_publ_section_title
;
Structure prediction by ZEFSAII (Michael W. Deem and Ramdas Pophale) SiO2 
 PCOD9461712
Probable space group: P N M A
;
_chemical_formula_sum "Si O2"
_cell_formula_units_Z 48
_cell_length_a 17.219589
_cell_length_b 7.705163
_cell_length_c 18.647577
_cell_angle_alpha 90.000000
_cell_angle_beta 90.000000
_cell_angle_gamma 90.000000
_cell_volume 2474.155669
_symmetry_space_group_name_H-M "P N M A"
_symmetry_group_IT_number 62
_symmetry_cell_setting 'orthorhombic'
loop_
_space_group_symop_operation_xyz
x,y,z
1/2-x,-y,1/2+z
1/2+x,1/2-y,1/2-z
-x,1/2+y,-z
-x,-y,-z
1/2+x,y,1/2-z
1/2-x,1/2+y,1/2+z
x,1/2-y,z
loop_
_atom_site_type_symbol
_atom_site_label
_atom_site_fract_x
_atom_site_fract_y
_atom_site_fract_z
Si Si1 0.491314 0.540785 0.083565
Si Si2 0.822033 0.951757 0.396907
Si Si3 0.746576 0.454388 0.545320
Si Si4 0.335552 0.036819 0.669032
Si Si5 0.587253 0.543567 0.477499
Si Si6 0.142799 0.962140 0.330874
O O1 0.490036 0.750000 0.089990
O O2 0.407725 0.471416 0.108966
O O3 0.565397 0.478920 0.127999
O O4 0.500000 0.500000 0.000000
O O5 0.828230 0.750000 0.376493
O O6 0.751157 0.024886 0.350933
O O7 0.792697 0.960373 0.479154
O O8 0.762707 0.250000 0.539355
O O9 0.655191 0.480372 0.531098
O O10 0.783018 0.513867 0.620652
O O11 0.335861 0.250000 0.668515
O O12 0.390293 0.980894 0.602840
O O13 0.356534 0.979644 0.748709
O O14 0.500000 0.500000 0.500000
O O15 0.594425 0.750000 0.476457
O O16 0.142441 0.750000 0.329136
#
# Coordination Sequence:
#
# PCOD9461712 Si02
#       6
#     8   8   8   8   8   8
#     4  10  18  29  48  75 101 131 166 204 250 300
#     4   9  17  30  49  71  97 133 169 204 251 301
#     4  10  18  30  52  77 100 131 167 206 253 302
#     4   8  16  32  50  72 100 130 166 213 256 292
#     4  10  20  36  57  78 101 132 173 214 254 299
#     4   9  17  30  48  75 105 129 166 214 255 295
#
# _framework density 19.400559000000001
#
# number of rings (size 3 to 8) (size 9 to 14) (size 15 to 20)
#    0.000    2.667    1.667    2.000    0.000    0.000 
#    3.000    0.000    0.000   15.000    0.000    0.000 
#    0.000    0.000    0.000    0.000    0.000    0.000 
#
# Total GULP energy -267605.814828 kJ/mol
# GULP energy per Si atom -5575.121142 kJ/mol
# Density = 1.935640 g / cm^3
# Si number density = 19.400559 Si / 1000 Ang^3
#
#
#
# Elastic Constant Matrix: (Units=GPa)
#
#
# Indices 1 2 3 4 5 6 
#
# 1 176.6534 -1.9388 104.3162 0.0000 0.0000 0.0000
# 2 -1.9388 32.3960 0.8794 0.0000 0.0000 0.0000
# 3 104.3162 0.8794 155.9620 0.0000 0.0000 0.0000
# 4 0.0000 0.0000 0.0000 16.7941 0.0000 0.0000
# 5 0.0000 0.0000 0.0000 0.0000 25.0677 0.0000
# 6 0.0000 0.0000 0.0000 0.0000 0.0000 13.5840
#
#
#
# Elastic Compliance Matrix: (Units=1/GPa)
#
#
# Indices 1 2 3 4 5 6 
#
# 1 0.009374 0.000731 -0.006274 0.000000 0.000000 0.000000
# 2 0.000731 0.030930 -0.000664 0.000000 0.000000 0.000000
# 3 -0.006274 -0.000664 0.010612 0.000000 0.000000 0.000000
# 4 0.000000 0.000000 0.000000 0.059545 0.000000 0.000000
# 5 0.000000 0.000000 0.000000 0.000000 0.039892 0.000000
# 6 0.000000 0.000000 0.000000 0.000000 0.000000 0.073616
#
#
# Mechanical properties :
#
#
# Convention : Reuss Voigt Hill
#
# Bulk Modulus (GPa) = 25.97186 63.50278 44.73732
# Shear Modulus (GPa) = 20.06310 28.53947 24.30128
#
# Velocity S-wave (km/s) = 3.21931 3.83961 3.54306
# Velocity P-wave (km/s) = 5.21870 7.24295 6.31249
#
# Compressibility (1/GPa) = 0.03850321
#
# Stress axis : x y z
#
# Youngs Moduli (GPa) = 106.68365 32.33131 94.23528
#
# Poissons Ratio (x) = -0.02364 0.59120
# Poissons Ratio (y) = -0.07801 0.06253
# Poissons Ratio (z) = 0.66930 0.02145
#
# Static dielectric constant tensor:
#      x y z
#    x 1.732530 0.000000 0.000000 
#    y 0.000000 1.741240 0.000000 
#    z 0.000000 0.000000 1.656460 
# 
# From -- ./inp_files/23690.got.cif
#   From: 2010.05.17/outbox.cif.g08.bks.cpg/sg62_12_cif.got.tgz:23690.got - 2010.06.03 15:25:27.
