data_PCOD9461426
_publ_section_title
;
Structure prediction by ZEFSAII (Michael W. Deem and Ramdas Pophale) SiO2 
 PCOD9461426
Probable space group: P N M A
;
_chemical_formula_sum "Si O2"
_cell_formula_units_Z 64
_cell_length_a 22.529599
_cell_length_b 7.410151
_cell_length_c 17.495190
_cell_angle_alpha 90.000000
_cell_angle_beta 90.000000
_cell_angle_gamma 90.000000
_cell_volume 2920.782266
_symmetry_space_group_name_H-M "P N M A"
_symmetry_group_IT_number 62
_symmetry_cell_setting 'orthorhombic'
loop_
_space_group_symop_operation_xyz
x,y,z
1/2-x,-y,1/2+z
1/2+x,1/2-y,1/2-z
-x,1/2+y,-z
-x,-y,-z
1/2+x,y,1/2-z
1/2-x,1/2+y,1/2+z
x,1/2-y,z
loop_
_atom_site_type_symbol
_atom_site_label
_atom_site_fract_x
_atom_site_fract_y
_atom_site_fract_z
Si Si1 0.873412 0.034545 0.035949
Si Si2 0.839601 0.532271 0.712073
Si Si3 0.099993 0.465745 0.140266
Si Si4 0.948015 0.968164 0.598415
Si Si5 0.757054 0.971185 0.578463
Si Si6 0.637497 0.465437 0.969370
Si Si7 0.534979 0.971046 0.661782
Si Si8 0.068683 0.535137 0.671567
O O1 0.872156 0.250000 0.046132
O O2 0.809321 0.966324 0.062958
O O3 0.926832 0.967452 0.089243
O O4 0.883638 0.000607 0.946902
O O5 0.833514 0.750000 0.714907
O O6 0.852492 0.465957 0.797439
O O7 0.899260 0.494203 0.663604
O O8 0.785352 0.469369 0.659227
O O9 0.097806 0.250000 0.150410
O O10 0.033293 0.531612 0.157625
O O11 0.952504 0.750000 0.592741
O O12 0.918416 0.034851 0.519883
O O13 0.011461 0.038056 0.625379
O O14 0.756768 0.750000 0.578482
O O15 0.802647 0.028166 0.511224
O O16 0.637690 0.250000 0.977613
O O17 0.625922 0.503883 0.880915
O O18 0.533874 0.750000 0.660687
O O19 0.565346 0.028928 0.741340
O O20 0.061354 0.750000 0.676372
#
# Coordination Sequence:
#
# PCOD9461426 Si02
#       8
#     8   8   8   8   8   8   8   8
#     4  10  20  35  52  71  98 131 165 201 245 294
#     4   8  13  26  50  74  92 122 166 202 230 279
#     4  10  18  32  55  79  99 122 162 209 249 285
#     4   8  13  24  45  68  94 125 158 192 235 290
#     4   8  16  32  51  68  93 131 170 198 230 290
#     4   9  17  29  46  69  93 126 166 199 235 288
#     4   9  18  32  51  74 100 130 162 201 246 294
#     4  10  17  28  46  71 101 127 155 198 248 288
#
# _framework density 21.911939
#
# number of rings (size 3 to 8) (size 9 to 14) (size 15 to 20)
#    0.000    3.000    1.250    2.250    0.000    0.000 
#    2.250    1.875    0.000    3.750    0.000    0.000 
#    0.000    0.000    0.000    0.000    0.000    0.000 
#
# Total GULP energy -357123.104588 kJ/mol
# GULP energy per Si atom -5580.048509 kJ/mol
# Density = 2.186207 g / cm^3
# Si number density = 21.911939 Si / 1000 Ang^3
#
#
#
# Elastic Constant Matrix: (Units=GPa)
#
#
# Indices 1 2 3 4 5 6 
#
# 1 80.8162 3.6905 73.6372 0.0000 0.0000 0.0000
# 2 3.6905 70.3502 0.0369 0.0000 0.0000 0.0000
# 3 73.6372 0.0369 159.3068 0.0000 0.0000 0.0000
# 4 0.0000 0.0000 0.0000 96.9737 0.0000 0.0000
# 5 0.0000 0.0000 0.0000 0.0000 14.6105 0.0000
# 6 0.0000 0.0000 0.0000 0.0000 0.0000 -3.9536
#
#
#
# Elastic Compliance Matrix: (Units=1/GPa)
#
#
# Indices 1 2 3 4 5 6 
#
# 1 0.021465 -0.001121 -0.009922 0.000000 0.000000 0.000000
# 2 -0.001121 0.014273 0.000515 0.000000 0.000000 0.000000
# 3 -0.009922 0.000515 0.010863 0.000000 0.000000 0.000000
# 4 0.000000 0.000000 0.000000 0.010312 0.000000 0.000000
# 5 0.000000 0.000000 0.000000 0.000000 0.068444 0.000000
# 6 0.000000 0.000000 0.000000 0.000000 0.000000 -0.252931
#
#
# Mechanical properties :
#
#
# Convention : Reuss Voigt Hill
#
# Bulk Modulus (GPa) = 39.14495 51.68915 45.41705
# Shear Modulus (GPa) = -51.01902 37.06669 -6.97617
#
# Velocity S-wave (km/s) = -4.83055 4.11739 -1.78624
# Velocity P-wave (km/s) = 3.63440 6.80034 4.06422
#
# Compressibility (1/GPa) = 0.02554608
#
# Stress axis : x y z
#
# Youngs Moduli (GPa) = 46.58668 70.06167 92.05331
#
# Poissons Ratio (x) = 0.07853 0.91333
# Poissons Ratio (y) = 0.05222 -0.04739
# Poissons Ratio (z) = 0.46222 -0.03607
#
# Static dielectric constant tensor:
#      x y z
#    x 1.772480 0.000000 0.000000 
#    y 0.000000 1.853870 0.000000 
#    z 0.000000 0.000000 1.803750 
# 
# From -- ./inp_files/20813.got.cif
#   From: 2010.05.17/outbox.cif.g08.bks.cpg/sg62_11_cif.got.tgz:20813.got - 2010.06.03 15:25:27.
