data_PCOD9461578
_publ_section_title
;
Structure prediction by ZEFSAII (Michael W. Deem and Ramdas Pophale) SiO2 
 PCOD9461578
Probable space group: P N M A
;
_chemical_formula_sum "Si O2"
_cell_formula_units_Z 64
_cell_length_a 27.057192
_cell_length_b 8.739248
_cell_length_c 18.991316
_cell_angle_alpha 90.000000
_cell_angle_beta 90.000000
_cell_angle_gamma 90.000000
_cell_volume 4490.677296
_symmetry_space_group_name_H-M "P N M A"
_symmetry_group_IT_number 62
_symmetry_cell_setting 'orthorhombic'
loop_
_space_group_symop_operation_xyz
x,y,z
1/2-x,-y,1/2+z
1/2+x,1/2-y,1/2-z
-x,1/2+y,-z
-x,-y,-z
1/2+x,y,1/2-z
1/2-x,1/2+y,1/2+z
x,1/2-y,z
loop_
_atom_site_type_symbol
_atom_site_label
_atom_site_fract_x
_atom_site_fract_y
_atom_site_fract_z
Si Si1 0.245195 0.563999 0.427681
Si Si2 0.944938 0.433102 0.580787
Si Si3 0.552575 0.566932 0.915562
Si Si4 0.650854 0.067686 0.153579
Si Si5 0.798492 0.426187 0.783947
Si Si6 0.242751 0.566646 0.590674
Si Si7 0.645558 0.065052 0.835425
Si Si8 0.805631 0.925979 0.198536
O O1 0.242674 0.750000 0.421450
O O2 0.194275 0.498047 0.396657
O O3 0.251251 0.525465 0.509299
O O4 0.289795 0.507912 0.376913
O O5 0.945526 0.250000 0.588100
O O6 0.936563 0.469076 0.497876
O O7 0.900956 0.503528 0.626114
O O8 0.998337 0.501023 0.600081
O O9 0.552605 0.750000 0.908084
O O10 0.594705 0.493845 0.867476
O O11 0.651552 0.250000 0.150773
O O12 0.663798 0.011057 0.232323
O O13 0.812955 0.250000 0.794029
O O14 0.785356 0.505878 0.857405
O O15 0.746281 0.425901 0.741377
O O16 0.239494 0.750000 0.596309
O O17 0.191035 0.495750 0.617384
O O18 0.647253 0.250000 0.835324
O O19 0.655980 0.008412 0.755193
O O20 0.820593 0.750000 0.186155
#
# Coordination Sequence:
#
# PCOD9461578 Si02
#       8
#     8   8   8   8   8   8   8   8
#     4   9  17  29  43  60  86 117 145 175 212 251
#     4  10  20  33  46  60  82 112 143 175 215 258
#     4  10  20  32  45  62  84 109 141 182 218 248
#     4  11  20  29  44  64  85 111 146 181 212 251
#     4   9  17  30  44  58  82 113 142 174 214 256
#     4  10  18  27  42  64  87 112 145 181 213 248
#     4  10  18  28  43  60  82 115 148 175 210 256
#     4   7  13  26  41  56  76 107 142 170 200 243
#
# _framework density 14.251747
#
# number of rings (size 3 to 8) (size 9 to 14) (size 15 to 20)
#    0.000    2.500    0.000    5.250    0.000    5.500 
#    0.000    0.625    0.000    0.000    0.000    0.000 
#    0.000    1.000    0.000    2.750    0.000    4.000 
#
# Total GULP energy -356585.519733 kJ/mol
# GULP energy per Si atom -5571.648746 kJ/mol
# Density = 1.421931 g / cm^3
# Si number density = 14.251747 Si / 1000 Ang^3
#
#
#
# Elastic Constant Matrix: (Units=GPa)
#
#
# Indices 1 2 3 4 5 6 
#
# 1 93.4684 37.0530 68.8972 0.0000 0.0000 0.0000
# 2 37.0530 55.6184 44.2525 0.0000 0.0000 0.0000
# 3 68.8972 44.2525 126.7605 0.0000 0.0000 0.0000
# 4 0.0000 0.0000 0.0000 20.3347 0.0000 0.0000
# 5 0.0000 0.0000 0.0000 0.0000 27.7010 0.0000
# 6 0.0000 0.0000 0.0000 0.0000 0.0000 22.3254
#
#
#
# Elastic Compliance Matrix: (Units=1/GPa)
#
#
# Indices 1 2 3 4 5 6 
#
# 1 0.019300 -0.006246 -0.008309 0.000000 0.000000 0.000000
# 2 -0.006246 0.026916 -0.006001 0.000000 0.000000 0.000000
# 3 -0.008309 -0.006001 0.014500 0.000000 0.000000 0.000000
# 4 0.000000 0.000000 0.000000 0.049177 0.000000 0.000000
# 5 0.000000 0.000000 0.000000 0.000000 0.036100 0.000000
# 6 0.000000 0.000000 0.000000 0.000000 0.000000 0.044792
#
#
# Mechanical properties :
#
#
# Convention : Reuss Voigt Hill
#
# Bulk Modulus (GPa) = 51.01513 64.02810 57.52162
# Shear Modulus (GPa) = 20.97021 22.44853 21.70937
#
# Velocity S-wave (km/s) = 3.84006 3.97311 3.90715
# Velocity P-wave (km/s) = 7.45217 8.12844 7.79764
#
# Compressibility (1/GPa) = 0.01960203
#
# Stress axis : x y z
#
# Youngs Moduli (GPa) = 51.81346 37.15261 68.96387
#
# Poissons Ratio (x) = 0.23207 0.57305
# Poissons Ratio (y) = 0.32365 0.41388
# Poissons Ratio (z) = 0.43054 0.22297
#
# Static dielectric constant tensor:
#      x y z
#    x 1.443480 0.000000 0.000000 
#    y 0.000000 1.482830 0.000000 
#    z 0.000000 0.000000 1.487680 
# 
# From -- ./inp_files/24980.got.cif
#   From: 2010.05.17/outbox.cif.g08.bks.cpg/sg62_13_cif.got.tgz:24980.got - 2010.06.03 15:25:27.
