data_PCOD9461881
_publ_section_title
;
Structure prediction by ZEFSAII (Michael W. Deem and Ramdas Pophale) SiO2 
 PCOD9461881
Probable space group: P N M A
;
_chemical_formula_sum "Si O2"
_cell_formula_units_Z 48
_cell_length_a 16.908603
_cell_length_b 8.683811
_cell_length_c 18.873224
_cell_angle_alpha 90.000000
_cell_angle_beta 90.000000
_cell_angle_gamma 90.000000
_cell_volume 2771.176481
_symmetry_space_group_name_H-M "P N M A"
_symmetry_group_IT_number 62
_symmetry_cell_setting 'orthorhombic'
loop_
_space_group_symop_operation_xyz
x,y,z
1/2-x,-y,1/2+z
1/2+x,1/2-y,1/2-z
-x,1/2+y,-z
-x,-y,-z
1/2+x,y,1/2-z
1/2-x,1/2+y,1/2+z
x,1/2-y,z
loop_
_atom_site_type_symbol
_atom_site_label
_atom_site_fract_x
_atom_site_fract_y
_atom_site_fract_z
Si Si1 0.489562 0.436053 0.176358
Si Si2 0.492654 0.433168 0.667639
Si Si3 0.923033 0.065783 0.040803
Si Si4 0.076802 0.433973 0.460061
Si Si5 0.159354 0.434766 0.086708
Si Si6 0.835925 0.065245 0.415014
O O1 0.488415 0.250000 0.185033
O O2 0.499278 0.515170 0.251556
O O3 0.560957 0.474898 0.121838
O O4 0.407254 0.482121 0.137391
O O5 0.495239 0.250000 0.660060
O O6 0.562854 0.507220 0.620238
O O7 0.409559 0.494004 0.635231
O O8 0.922150 0.250000 0.038521
O O9 0.853088 0.996933 0.993335
O O10 0.000000 0.000000 0.000000
O O11 0.076647 0.250000 0.464623
O O12 0.148114 0.498807 0.506579
O O13 0.000000 0.500000 0.500000
O O14 0.150050 0.250000 0.086870
O O15 0.248080 0.475393 0.110403
O O16 0.840535 0.250000 0.420269
#
# Coordination Sequence:
#
# PCOD9461881 Si02
#       6
#     8   8   8   8   8   8
#     4   9  18  34  52  74 102 135 169 203 248 303
#     4  11  21  33  51  76 102 134 172 210 251 299
#     4  10  18  31  51  73  97 128 164 203 243 294
#     4   9  17  30  51  74  99 130 166 203 243 293
#     4  10  19  34  54  76 102 132 165 209 257 303
#     4   9  19  34  54  77 102 131 167 210 257 302
#
# _framework density 17.321164
#
# number of rings (size 3 to 8) (size 9 to 14) (size 15 to 20)
#    0.000    2.333    0.000    7.000    0.000    4.667 
#    0.000    1.667    0.000    2.000    0.000    0.000 
#    0.000    0.000    0.000    0.000    0.000    0.000 
#
# Total GULP energy -267427.694411 kJ/mol
# GULP energy per Si atom -5571.410300 kJ/mol
# Density = 1.728174 g / cm^3
# Si number density = 17.321164 Si / 1000 Ang^3
#
#
#
# Elastic Constant Matrix: (Units=GPa)
#
#
# Indices 1 2 3 4 5 6 
#
# 1 78.4633 27.7080 38.1144 0.0000 0.0000 0.0000
# 2 27.7080 70.0219 38.0524 0.0000 0.0000 0.0000
# 3 38.1144 38.0524 126.9205 0.0000 0.0000 0.0000
# 4 0.0000 0.0000 0.0000 32.1793 0.0000 0.0000
# 5 0.0000 0.0000 0.0000 0.0000 19.1096 0.0000
# 6 0.0000 0.0000 0.0000 0.0000 0.0000 20.1440
#
#
#
# Elastic Compliance Matrix: (Units=1/GPa)
#
#
# Indices 1 2 3 4 5 6 
#
# 1 0.016001 -0.004445 -0.003473 0.000000 0.000000 0.000000
# 2 -0.004445 0.018296 -0.004151 0.000000 0.000000 0.000000
# 3 -0.003473 -0.004151 0.010166 0.000000 0.000000 0.000000
# 4 0.000000 0.000000 0.000000 0.031076 0.000000 0.000000
# 5 0.000000 0.000000 0.000000 0.000000 0.052330 0.000000
# 6 0.000000 0.000000 0.000000 0.000000 0.000000 0.049643
#
#
# Mechanical properties :
#
#
# Convention : Reuss Voigt Hill
#
# Bulk Modulus (GPa) = 49.19465 53.68392 51.43928
# Shear Modulus (GPa) = 23.98972 25.72195 24.85583
#
# Velocity S-wave (km/s) = 3.72559 3.85775 3.79225
# Velocity P-wave (km/s) = 6.85345 7.13467 6.99548
#
# Compressibility (1/GPa) = 0.02032741
#
# Stress axis : x y z
#
# Youngs Moduli (GPa) = 62.49518 54.65812 98.36551
#
# Poissons Ratio (x) = 0.24293 0.34159
# Poissons Ratio (y) = 0.27777 0.40827
# Poissons Ratio (z) = 0.21702 0.22686
#
# Static dielectric constant tensor:
#      x y z
#    x 1.644390 0.000000 0.000000 
#    y 0.000000 1.579830 0.000000 
#    z 0.000000 0.000000 1.610870 
# 
# From -- ./inp_files/27482.got.cif
#   From: 2010.05.17/outbox.cif.g08.bks.cpg/sg62_14_cif.got.tgz:27482.got - 2010.06.03 15:25:27.
