data_PCOD9461291
_publ_section_title
;
Structure prediction by ZEFSAII (Michael W. Deem and Ramdas Pophale) SiO2 
 PCOD9461291
Probable space group: P B C A
;
_chemical_formula_sum "Si O2"
_cell_formula_units_Z 56
_cell_length_a 15.000000
_cell_length_b 21.000000
_cell_length_c 9.000000
_cell_angle_alpha 90.000000
_cell_angle_beta 90.000000
_cell_angle_gamma 90.000000
_cell_volume 2835.000000
_symmetry_space_group_name_H-M "P B C A"
_symmetry_group_IT_number 61
_symmetry_cell_setting 'orthorhombic'
loop_
_space_group_symop_operation_xyz
x,y,z
1/2-x,-y,1/2+z
1/2+x,1/2-y,-z
-x,1/2+y,1/2-z
-x,-y,-z
1/2+x,y,1/2-z
1/2-x,1/2+y,z
x,1/2-y,1/2+z
loop_
_atom_site_type_symbol
_atom_site_label
_atom_site_fract_x
_atom_site_fract_y
_atom_site_fract_z
Si Si1 0.414819 0.411490 0.087026
Si Si2 0.424143 0.101718 0.094395
Si Si3 0.182878 0.226896 0.837407
Si Si4 0.270847 0.408005 0.352494
Si Si5 0.380564 0.297183 0.855422
Si Si6 0.088699 0.486103 0.323198
Si Si7 0.047082 0.296251 0.063607
O O1 0.338111 0.408740 0.211739
O O2 0.512622 0.430674 0.155936
O O3 0.400543 0.345737 0.993850
O O4 0.404211 0.469305 0.969848
O O5 0.398434 0.158686 0.210273
O O6 0.440252 0.036915 0.192840
O O7 0.340164 0.083076 0.989611
O O8 0.505068 0.136125 0.998807
O O9 0.222783 0.159245 0.888573
O O10 0.277314 0.269620 0.839113
O O11 0.124770 0.206890 0.690452
O O12 0.105086 0.261326 0.933659
O O13 0.187918 0.455242 0.314621
O O14 0.457843 0.242604 0.878506
#
# Coordination Sequence:
#
# PCOD9461291 Si02
#       7
#     8   8   8   8   8   8   8
#     4  10  24  45  72  95 140 184 235 297 350 427
#     4  11  25  45  70 102 144 188 238 304 357 428
#     4  12  26  41  72 105 143 193 236 289 375 434
#     4  12  24  42  71 103 137 186 241 296 351 430
#     4  11  24  47  68 102 148 185 236 294 366 435
#     4  10  24  48  68 101 136 194 237 294 361 420
#     4  12  25  44  66 107 146 188 233 300 356 439
#
# _framework density 19.753086
#
# number of rings (size 3 to 8) (size 9 to 14) (size 15 to 20)
#    0.000    0.857    2.857    3.429    6.000    0.571 
#   10.286    0.000    0.000    0.000    0.000    0.000 
#    0.000    0.000    0.000    0.000    0.000    0.000 
#
# Total GULP energy -312078.795644 kJ/mol
# GULP energy per Si atom -5572.835637 kJ/mol
# Density = 1.970813 g / cm^3
# Si number density = 19.753086 Si / 1000 Ang^3
#
#
#
# Elastic Constant Matrix: (Units=GPa)
#
#
# Indices 1 2 3 4 5 6 
#
# 1 160.1851 33.2852 35.3076 0.0000 0.0000 0.0000
# 2 33.2852 79.0384 14.0865 0.0000 0.0000 0.0000
# 3 35.3076 14.0865 92.5489 0.0000 0.0000 0.0000
# 4 0.0000 0.0000 0.0000 31.0736 0.0000 0.0000
# 5 0.0000 0.0000 0.0000 0.0000 50.0679 0.0000
# 6 0.0000 0.0000 0.0000 0.0000 0.0000 54.1406
#
#
#
# Elastic Compliance Matrix: (Units=1/GPa)
#
#
# Indices 1 2 3 4 5 6 
#
# 1 0.007322 -0.002658 -0.002389 0.000000 0.000000 0.000000
# 2 -0.002658 0.013970 -0.001112 0.000000 0.000000 0.000000
# 3 -0.002389 -0.001112 0.011886 0.000000 0.000000 0.000000
# 4 0.000000 0.000000 0.000000 0.032182 0.000000 0.000000
# 5 0.000000 0.000000 0.000000 0.000000 0.019973 0.000000
# 6 0.000000 0.000000 0.000000 0.000000 0.000000 0.018470
#
#
# Mechanical properties :
#
#
# Convention : Reuss Voigt Hill
#
# Bulk Modulus (GPa) = 47.93986 55.23678 51.58832
# Shear Modulus (GPa) = 40.62661 43.66262 42.14461
#
# Velocity S-wave (km/s) = 4.54003 4.70661 4.62407
# Velocity P-wave (km/s) = 7.19755 7.58687 7.39477
#
# Compressibility (1/GPa) = 0.02085947
#
# Stress axis : x y z
#
# Youngs Moduli (GPa) = 136.58397 71.58452 84.13477
#
# Poissons Ratio (x) = 0.19024 0.20097
# Poissons Ratio (y) = 0.36298 0.09359
# Poissons Ratio (z) = 0.32625 0.07963
#
# Static dielectric constant tensor:
#      x y z
#    x 1.673000 0.000000 0.000000 
#    y 0.000000 1.713300 0.000000 
#    z 0.000000 0.000000 1.768610 
# 
# From -- ./inp_files/3069.got.cif
#   From: 2010.05.17/outbox.ucp.g08.bks.cvg/sg61_2_cif.got.tgz:3069.got - 2010.06.11 16:28:26.
