data_PCOD9461130
_publ_section_title
;
Structure prediction by ZEFSAII (Michael W. Deem and Ramdas Pophale) SiO2 
 PCOD9461130
Probable space group: P B C A
;
_chemical_formula_sum "Si O2"
_cell_formula_units_Z 40
_cell_length_a 8.616726
_cell_length_b 9.802440
_cell_length_c 20.128481
_cell_angle_alpha 90.000000
_cell_angle_beta 90.000000
_cell_angle_gamma 90.000000
_cell_volume 1700.150932
_symmetry_space_group_name_H-M "P B C A"
_symmetry_group_IT_number 61
_symmetry_cell_setting 'orthorhombic'
loop_
_space_group_symop_operation_xyz
x,y,z
1/2-x,-y,1/2+z
1/2+x,1/2-y,-z
-x,1/2+y,1/2-z
-x,-y,-z
1/2+x,y,1/2-z
1/2-x,1/2+y,z
x,1/2-y,1/2+z
loop_
_atom_site_type_symbol
_atom_site_label
_atom_site_fract_x
_atom_site_fract_y
_atom_site_fract_z
Si Si1 0.609070 0.851047 0.967800
Si Si2 0.678662 0.376832 0.395501
Si Si3 0.312339 0.792292 0.406060
Si Si4 0.459376 0.051182 0.684139
Si Si5 0.070139 0.765310 0.799729
O O1 0.723237 0.746556 0.927704
O O2 0.439738 0.794856 0.946567
O O3 0.619530 0.008312 0.946147
O O4 0.679156 0.835382 0.041934
O O5 0.797013 0.466528 0.351992
O O6 0.551262 0.308060 0.348968
O O7 0.412560 0.912447 0.371833
O O8 0.228009 0.724358 0.342578
O O9 0.427465 0.172874 0.734919
O O10 0.513548 0.914834 0.719397
#
# Coordination Sequence:
#
# PCOD9461130 Si02
#       5
#     8   8   8   8   8
#     4  11  26  47  78 112 149 196 240 312 377 454
#     4  11  25  48  72 107 152 195 245 304 381 440
#     4  11  28  47  81 114 151 193 254 306 384 444
#     4  11  28  47  75 108 148 199 254 310 366 445
#     4  12  27  48  75 108 149 196 255 309 369 446
#
# _framework density 23.527325000000001
#
# number of rings (size 3 to 8) (size 9 to 14) (size 15 to 20)
#    0.000    0.800    2.000    2.400   11.200    6.400 
#    0.000    0.000    0.000    0.000    0.000    0.000 
#    0.000    0.000    0.000    0.000    0.000    0.000 
#
# Total GULP energy -223807.083220 kJ/mol
# GULP energy per Si atom -5595.177080 kJ/mol
# Density = 2.347378 g / cm^3
# Si number density = 23.527325 Si / 1000 Ang^3
#
#
#
# Elastic Constant Matrix: (Units=GPa)
#
#
# Indices 1 2 3 4 5 6 
#
# 1 91.4238 21.9919 22.5091 0.0000 0.0000 0.0000
# 2 21.9919 140.1334 35.0177 0.0000 0.0000 0.0000
# 3 22.5091 35.0177 85.7032 0.0000 0.0000 0.0000
# 4 0.0000 0.0000 0.0000 39.9729 0.0000 0.0000
# 5 0.0000 0.0000 0.0000 0.0000 22.3168 0.0000
# 6 0.0000 0.0000 0.0000 0.0000 0.0000 9.5251
#
#
#
# Elastic Compliance Matrix: (Units=1/GPa)
#
#
# Indices 1 2 3 4 5 6 
#
# 1 0.011875 -0.001208 -0.002625 0.000000 0.000000 0.000000
# 2 -0.001208 0.008070 -0.002980 0.000000 0.000000 0.000000
# 3 -0.002625 -0.002980 0.013575 0.000000 0.000000 0.000000
# 4 0.000000 0.000000 0.000000 0.025017 0.000000 0.000000
# 5 0.000000 0.000000 0.000000 0.000000 0.044809 0.000000
# 6 0.000000 0.000000 0.000000 0.000000 0.000000 0.104986
#
#
# Mechanical properties :
#
#
# Convention : Reuss Voigt Hill
#
# Bulk Modulus (GPa) = 50.26613 52.92198 51.59405
# Shear Modulus (GPa) = 21.87314 30.21239 26.04276
#
# Velocity S-wave (km/s) = 3.05239 3.58738 3.33064
# Velocity P-wave (km/s) = 5.81671 6.30093 6.06366
#
# Compressibility (1/GPa) = 0.01989411
#
# Stress axis : x y z
#
# Youngs Moduli (GPa) = 84.21091 123.91095 73.66227
#
# Poissons Ratio (x) = 0.14963 0.19340
# Poissons Ratio (y) = 0.10169 0.21954
# Poissons Ratio (z) = 0.22109 0.36930
#
# Static dielectric constant tensor:
#      x y z
#    x 1.907840 0.000000 0.000000 
#    y 0.000000 1.830480 0.000000 
#    z 0.000000 0.000000 1.926070 
# 
# From -- ./inp_files/10810.got.cif
#   From: 2010.05.17/outbox.cif.g08.bks.cpg/sg61_6_cif.got.tgz:10810.got - 2010.06.03 15:17:17.
