data_PCOD9461215
_publ_section_title
;
Structure prediction by ZEFSAII (Michael W. Deem and Ramdas Pophale) SiO2 
 PCOD9461215
Probable space group: P B C A
;
_chemical_formula_sum "Si O2"
_cell_formula_units_Z 20
_cell_length_a 9.223233
_cell_length_b 5.053491
_cell_length_c 13.443119
_cell_angle_alpha 90.000000
_cell_angle_beta 90.000000
_cell_angle_gamma 90.000000
_cell_volume 626.577391
_symmetry_space_group_name_H-M "P B C A"
_symmetry_group_IT_number 61
_symmetry_cell_setting 'orthorhombic'
loop_
_space_group_symop_operation_xyz
x,y,z
1/2-x,-y,1/2+z
1/2+x,1/2-y,-z
-x,1/2+y,1/2-z
-x,-y,-z
1/2+x,y,1/2-z
1/2-x,1/2+y,z
x,1/2-y,1/2+z
loop_
_atom_site_type_symbol
_atom_site_label
_atom_site_fract_x
_atom_site_fract_y
_atom_site_fract_z
Si Si1 0.770019 0.002604 0.076372
Si Si2 0.087229 0.566864 0.224247
Si Si3 0.000000 0.000000 0.500000
O O1 0.868954 0.732657 0.050082
O O2 0.786205 0.032639 0.195398
O O3 0.632091 0.773354 0.047212
O O4 0.972220 0.361399 0.269406
O O5 0.102388 0.492624 0.109832
#
# Coordination Sequence:
#
# PCOD9461215 Si02
#       3
#     8   8   4
#     4  12  26  50  78 124 158 211 269 333 399 493
#     4  12  26  52  76 118 159 212 276 331 390 489
#     4  12  28  50  88 112 166 220 256 340 418 464
#
# _framework density 31.919440999999999
#
# number of rings (size 3 to 8) (size 9 to 14) (size 15 to 20)
#    0.000    0.000    8.000    0.000    0.000    9.600 
#    0.000    0.000    0.000    0.000    0.000    0.000 
#    0.000    0.000    0.000    0.000    0.000    0.000 
#
# Total GULP energy -111394.667305 kJ/mol
# GULP energy per Si atom -5569.733365 kJ/mol
# Density = 3.184679 g / cm^3
# Si number density = 31.919441 Si / 1000 Ang^3
#
#
#
# Elastic Constant Matrix: (Units=GPa)
#
#
# Indices 1 2 3 4 5 6 
#
# 1 242.3418 85.8890 103.7839 0.0000 0.0000 0.0000
# 2 85.8890 418.8540 31.7282 0.0000 0.0000 0.0000
# 3 103.7839 31.7282 366.2995 0.0000 0.0000 0.0000
# 4 0.0000 0.0000 0.0000 55.0686 0.0000 0.0000
# 5 0.0000 0.0000 0.0000 0.0000 80.8798 0.0000
# 6 0.0000 0.0000 0.0000 0.0000 0.0000 69.1917
#
#
#
# Elastic Compliance Matrix: (Units=1/GPa)
#
#
# Indices 1 2 3 4 5 6 
#
# 1 0.005032 -0.000930 -0.001345 0.000000 0.000000 0.000000
# 2 -0.000930 0.002575 0.000040 0.000000 0.000000 0.000000
# 3 -0.001345 0.000040 0.003108 0.000000 0.000000 0.000000
# 4 0.000000 0.000000 0.000000 0.018159 0.000000 0.000000
# 5 0.000000 0.000000 0.000000 0.000000 0.012364 0.000000
# 6 0.000000 0.000000 0.000000 0.000000 0.000000 0.014453
#
#
# Mechanical properties :
#
#
# Convention : Reuss Voigt Hill
#
# Bulk Modulus (GPa) = 160.11840 163.36640 161.74240
# Shear Modulus (GPa) = 80.33181 94.76762 87.54972
#
# Velocity S-wave (km/s) = 5.02212 5.45473 5.24289
# Velocity P-wave (km/s) = 9.15975 9.53751 9.35054
#
# Compressibility (1/GPa) = 0.00624538
#
# Stress axis : x y z
#
# Youngs Moduli (GPa) = 198.72501 388.33443 321.78781
#
# Poissons Ratio (x) = 0.36114 0.43287
# Poissons Ratio (y) = 0.18481 -0.01301
# Poissons Ratio (z) = 0.26732 -0.01570
#
# Static dielectric constant tensor:
#      x y z
#    x 2.734190 0.000000 0.000000 
#    y 0.000000 2.576390 0.000000 
#    z 0.000000 0.000000 2.254770 
# 
# From -- ./inp_files/111.got.cif
#   From: 2010.05.17/outbox.cif.g08.bks.cpg/sg61_1_cif.got.tgz:111.got - 2010.06.03 15:17:17.
