data_PCOD9461772
_publ_section_title
;
Structure prediction by ZEFSAII (Michael W. Deem and Ramdas Pophale) SiO2 
 PCOD9461772
Probable space group: P N M A
;
_chemical_formula_sum "Si O2"
_cell_formula_units_Z 56
_cell_length_a 24.775809
_cell_length_b 7.512133
_cell_length_c 14.062573
_cell_angle_alpha 90.000000
_cell_angle_beta 90.000000
_cell_angle_gamma 90.000000
_cell_volume 2617.314448
_symmetry_space_group_name_H-M "P N M A"
_symmetry_group_IT_number 62
_symmetry_cell_setting 'orthorhombic'
loop_
_space_group_symop_operation_xyz
x,y,z
1/2-x,-y,1/2+z
1/2+x,1/2-y,1/2-z
-x,1/2+y,-z
-x,-y,-z
1/2+x,y,1/2-z
1/2-x,1/2+y,1/2+z
x,1/2-y,z
loop_
_atom_site_type_symbol
_atom_site_label
_atom_site_fract_x
_atom_site_fract_y
_atom_site_fract_z
Si Si1 0.832206 0.467447 0.087424
Si Si2 0.730335 0.535305 0.772114
Si Si3 0.555822 0.963497 0.054538
Si Si4 0.626431 0.532861 0.885528
Si Si5 0.161349 0.539962 0.123835
Si Si6 0.942770 0.039040 0.769756
Si Si7 0.562875 0.963666 0.699166
O O1 0.830235 0.250000 0.089098
O O2 0.790054 0.526140 0.168495
O O3 0.891896 0.520824 0.123777
O O4 0.823357 0.531407 0.980430
O O5 0.729106 0.750000 0.771400
O O6 0.685226 0.475943 0.849107
O O7 0.789363 0.479974 0.803778
O O8 0.560620 0.750000 0.059851
O O9 0.555646 0.034263 0.161943
O O10 0.604389 0.028641 0.986928
O O11 0.500000 0.000000 0.000000
O O12 0.626668 0.750000 0.886422
O O13 0.584312 0.477299 0.802983
O O14 0.152216 0.750000 0.108875
O O15 0.106343 0.464822 0.168222
O O16 0.933113 0.250000 0.760756
O O17 0.001554 0.017924 0.815734
O O18 0.563955 0.750000 0.699974
#
# Coordination Sequence:
#
# PCOD9461772 Si02
#       7
#     8   8   8   8   8   8   8
#     4   8  17  35  57  75  99 136 171 207 255 309
#     4   9  18  35  57  77  96 130 181 220 244 294
#     4  10  18  30  48  73 103 134 165 203 254 307
#     4   8  15  29  50  72  96 128 167 210 250 290
#     4  10  21  37  52  74 109 140 164 206 268 312
#     4  10  21  32  46  73 109 137 161 207 264 306
#     4   9  16  31  54  74  93 131 178 206 239 303
#
# _framework density 21.395976999999998
#
# number of rings (size 3 to 8) (size 9 to 14) (size 15 to 20)
#    0.000    2.857    1.429    1.714    0.000    2.286 
#    0.000    6.429    0.000    0.000    0.000    0.000 
#    0.000    0.000    0.000    0.000    0.000    0.000 
#
# Total GULP energy -312479.860014 kJ/mol
# GULP energy per Si atom -5579.997500 kJ/mol
# Density = 2.134728 g / cm^3
# Si number density = 21.395977 Si / 1000 Ang^3
#
#
#
# Elastic Constant Matrix: (Units=GPa)
#
#
# Indices 1 2 3 4 5 6 
#
# 1 113.7101 -13.4885 55.0072 0.0000 0.0000 0.0000
# 2 -13.4885 52.2495 3.3907 0.0000 0.0000 0.0000
# 3 55.0072 3.3907 123.9447 0.0000 0.0000 0.0000
# 4 0.0000 0.0000 0.0000 6.5876 0.0000 0.0000
# 5 0.0000 0.0000 0.0000 0.0000 20.7798 0.0000
# 6 0.0000 0.0000 0.0000 0.0000 0.0000 14.5897
#
#
#
# Elastic Compliance Matrix: (Units=1/GPa)
#
#
# Indices 1 2 3 4 5 6 
#
# 1 0.011766 0.003382 -0.005315 0.000000 0.000000 0.000000
# 2 0.003382 0.020145 -0.002052 0.000000 0.000000 0.000000
# 3 -0.005315 -0.002052 0.010483 0.000000 0.000000 0.000000
# 4 0.000000 0.000000 0.000000 0.151801 0.000000 0.000000
# 5 0.000000 0.000000 0.000000 0.000000 0.048124 0.000000
# 6 0.000000 0.000000 0.000000 0.000000 0.000000 0.068541
#
#
# Mechanical properties :
#
#
# Convention : Reuss Voigt Hill
#
# Bulk Modulus (GPa) = 29.04787 42.19147 35.61967
# Shear Modulus (GPa) = 15.13757 24.72442 19.93100
#
# Velocity S-wave (km/s) = 2.66277 3.40305 3.05541
# Velocity P-wave (km/s) = 4.80204 5.93322 5.39735
#
# Compressibility (1/GPa) = 0.03442593
#
# Stress axis : x y z
#
# Youngs Moduli (GPa) = 84.98761 49.63938 95.39380
#
# Poissons Ratio (x) = -0.16790 0.50697
# Poissons Ratio (y) = -0.28747 0.19577
# Poissons Ratio (z) = 0.45167 0.10187
#
# Static dielectric constant tensor:
#      x y z
#    x 1.746190 0.000000 0.000000 
#    y 0.000000 1.813240 0.000000 
#    z 0.000000 0.000000 1.779190 
# 
# From -- ./inp_files/14830.got.cif
#   From: 2010.05.17/outbox.cif.g08.bks.cpg/sg62_8_cif.got.tgz:14830.got - 2010.06.03 15:25:27.
