data_PCOD9461974
_publ_section_title
;
Structure prediction by ZEFSAII (Michael W. Deem and Ramdas Pophale) SiO2 
 PCOD9461974
Probable space group: P N M A
;
_chemical_formula_sum "Si O2"
_cell_formula_units_Z 56
_cell_length_a 11.787051
_cell_length_b 12.789400
_cell_length_c 18.433421
_cell_angle_alpha 90.000000
_cell_angle_beta 90.000000
_cell_angle_gamma 90.000000
_cell_volume 2778.825498
_symmetry_space_group_name_H-M "P N M A"
_symmetry_group_IT_number 62
_symmetry_cell_setting 'orthorhombic'
loop_
_space_group_symop_operation_xyz
x,y,z
1/2-x,-y,1/2+z
1/2+x,1/2-y,1/2-z
-x,1/2+y,-z
-x,-y,-z
1/2+x,y,1/2-z
1/2-x,1/2+y,1/2+z
x,1/2-y,z
loop_
_atom_site_type_symbol
_atom_site_label
_atom_site_fract_x
_atom_site_fract_y
_atom_site_fract_z
Si Si1 0.055288 0.034357 0.121484
Si Si2 0.998698 0.750000 0.798195
Si Si3 0.269319 0.630147 0.517337
Si Si4 0.256638 0.490401 0.214198
Si Si5 0.198891 0.485557 0.883112
Si Si6 0.580954 0.003566 0.908681
Si Si7 0.745657 0.250000 0.260973
Si Si8 0.123418 0.373149 0.447587
O O1 0.129860 0.059607 0.050659
O O2 0.139499 0.975236 0.176924
O O3 0.022038 0.145422 0.156736
O O4 0.936350 0.979557 0.110521
O O5 0.132409 0.750000 0.779847
O O6 0.891192 0.750000 0.739850
O O7 0.291079 0.750000 0.533487
O O8 0.255095 0.608441 0.432319
O O9 0.156720 0.588804 0.555963
O O10 0.267716 0.511993 0.298940
O O11 0.361829 0.532234 0.167255
O O12 0.255512 0.363859 0.202537
O O13 0.251987 0.588651 0.922372
O O14 0.458822 0.950288 0.901820
O O15 0.593552 0.094070 0.969290
O O16 0.108173 0.250000 0.436932
#
# Coordination Sequence:
#
# PCOD9461974 Si02
#       8
#     8   4   8   8   8   8   4   8
#     4  10  20  36  53  78 114 148 182 229 290 343
#     4  10  18  32  50  78 116 148 184 228 294 362
#     4  10  20  38  61  79 109 154 193 228 276 344
#     4  10  22  35  54  80 115 151 185 231 292 346
#     4  11  23  35  55  89 116 142 188 241 283 339
#     4   9  21  40  58  83 115 152 190 230 280 343
#     4  10  20  30  50  80 112 152 182 230 300 356
#     4  10  22  37  59  87 115 148 190 237 284 333
#
# _framework density 20.152398000000002
#
# number of rings (size 3 to 8) (size 9 to 14) (size 15 to 20)
#    0.000    2.000    2.143    0.857    8.000    0.000 
#    0.000    0.714    0.000    0.857    0.000    0.000 
#    0.000    0.000    0.000    0.000    0.000    0.000 
#
# Total GULP energy -311958.236565 kJ/mol
# GULP energy per Si atom -5570.682796 kJ/mol
# Density = 2.010653 g / cm^3
# Si number density = 20.152398 Si / 1000 Ang^3
#
#
#
# Elastic Constant Matrix: (Units=GPa)
#
#
# Indices 1 2 3 4 5 6 
#
# 1 76.3746 4.4179 19.2473 0.0000 0.0000 0.0000
# 2 4.4179 18.0007 13.8151 0.0000 0.0000 0.0000
# 3 19.2473 13.8151 87.9132 0.0000 0.0000 0.0000
# 4 0.0000 0.0000 0.0000 8.4664 0.0000 0.0000
# 5 0.0000 0.0000 0.0000 0.0000 27.2059 0.0000
# 6 0.0000 0.0000 0.0000 0.0000 0.0000 12.4041
#
#
#
# Elastic Compliance Matrix: (Units=1/GPa)
#
#
# Indices 1 2 3 4 5 6 
#
# 1 0.013882 -0.001222 -0.002847 0.000000 0.000000 0.000000
# 2 -0.001222 0.063280 -0.009677 0.000000 0.000000 0.000000
# 3 -0.002847 -0.009677 0.013519 0.000000 0.000000 0.000000
# 4 0.000000 0.000000 0.000000 0.118114 0.000000 0.000000
# 5 0.000000 0.000000 0.000000 0.000000 0.036757 0.000000
# 6 0.000000 0.000000 0.000000 0.000000 0.000000 0.080619
#
#
# Mechanical properties :
#
#
# Convention : Reuss Voigt Hill
#
# Bulk Modulus (GPa) = 15.82551 28.58323 22.20437
# Shear Modulus (GPa) = 13.34317 19.26917 16.30617
#
# Velocity S-wave (km/s) = 2.57595 3.09556 2.84763
# Velocity P-wave (km/s) = 4.08868 5.19528 4.67484
#
# Compressibility (1/GPa) = 0.06318913
#
# Stress axis : x y z
#
# Youngs Moduli (GPa) = 72.03810 15.80280 73.97095
#
# Poissons Ratio (x) = 0.01931 0.21061
# Poissons Ratio (y) = 0.08802 0.71579
# Poissons Ratio (z) = 0.20510 0.15292
#
# Static dielectric constant tensor:
#      x y z
#    x 1.797520 0.000000 0.000000 
#    y 0.000000 1.662800 0.000000 
#    z 0.000000 0.000000 1.777520 
# 
# From -- ./inp_files/26641.got.cif
#   From: 2010.05.17/outbox.cif.g08.bks.cpg/sg62_14_cif.got.tgz:26641.got - 2010.06.03 15:25:27.
