data_PCOD9461384
_publ_section_title
;
Structure prediction by ZEFSAII (Michael W. Deem and Ramdas Pophale) SiO2 
 PCOD9461384
Probable space group: P N M A
;
_chemical_formula_sum "Si O2"
_cell_formula_units_Z 56
_cell_length_a 9.739811
_cell_length_b 11.722344
_cell_length_c 23.034229
_cell_angle_alpha 90.000000
_cell_angle_beta 90.000000
_cell_angle_gamma 90.000000
_cell_volume 2629.896588
_symmetry_space_group_name_H-M "P N M A"
_symmetry_group_IT_number 62
_symmetry_cell_setting 'orthorhombic'
loop_
_space_group_symop_operation_xyz
x,y,z
1/2-x,-y,1/2+z
1/2+x,1/2-y,1/2-z
-x,1/2+y,-z
-x,-y,-z
1/2+x,y,1/2-z
1/2-x,1/2+y,1/2+z
x,1/2-y,z
loop_
_atom_site_type_symbol
_atom_site_label
_atom_site_fract_x
_atom_site_fract_y
_atom_site_fract_z
Si Si1 0.171655 0.416360 0.629634
Si Si2 0.534514 0.623436 0.421273
Si Si3 0.024661 0.875719 0.944563
Si Si4 0.733390 0.890729 0.180056
Si Si5 0.596232 0.620314 0.062033
Si Si6 0.194617 0.623311 0.559461
Si Si7 0.019374 0.380744 0.749685
O O1 0.327292 0.380577 0.616932
O O2 0.167111 0.550739 0.616681
O O3 0.114173 0.381935 0.691829
O O4 0.061599 0.373351 0.582054
O O5 0.468136 0.750000 0.411727
O O6 0.578158 0.622618 0.489319
O O7 0.453873 0.502161 0.417369
O O8 0.065606 0.750000 0.919194
O O9 0.858326 0.872258 0.948943
O O10 0.727404 0.750000 0.181066
O O11 0.674985 0.928764 0.118013
O O12 0.884848 0.927018 0.199421
O O13 0.623940 0.932108 0.228697
O O14 0.647609 0.750000 0.056088
O O15 0.631182 0.569973 0.999339
O O16 0.138619 0.750000 0.566630
O O17 0.990700 0.250000 0.765457
#
# Coordination Sequence:
#
# PCOD9461384 Si02
#       7
#     8   8   8   8   8   8   8
#     4  10  17  26  42  62  87 113 142 181 223 259
#     4   9  15  24  38  56  78 108 143 173 210 255
#     4   8  15  26  37  52  80 112 140 174 209 248
#     4   8  15  27  42  60  87 115 142 173 216 267
#     4   9  16  27  42  61  87 117 141 171 217 267
#     4   9  17  28  41  60  86 116 150 179 213 264
#     4   9  16  28  43  64  89 113 140 177 219 270
#
# _framework density 21.293613000000001
#
# number of rings (size 3 to 8) (size 9 to 14) (size 15 to 20)
#    0.000    3.143    0.000    2.571    0.000    0.000 
#    2.571    0.000    0.000    0.000    0.000    4.000 
#    0.000    0.000    0.000    0.000    0.000    0.000 
#
# Total GULP energy -311781.104564 kJ/mol
# GULP energy per Si atom -5567.519724 kJ/mol
# Density = 2.124515 g / cm^3
# Si number density = 21.293613 Si / 1000 Ang^3
#
#
#
# Elastic Constant Matrix: (Units=GPa)
#
#
# Indices 1 2 3 4 5 6 
#
# 1 59.4682 11.8020 -0.7166 0.0000 0.0000 0.0000
# 2 11.8020 115.4563 30.0283 0.0000 0.0000 0.0000
# 3 -0.7166 30.0283 53.3760 0.0000 0.0000 0.0000
# 4 0.0000 0.0000 0.0000 9.6266 0.0000 0.0000
# 5 0.0000 0.0000 0.0000 0.0000 32.5051 0.0000
# 6 0.0000 0.0000 0.0000 0.0000 0.0000 9.3439
#
#
#
# Elastic Compliance Matrix: (Units=1/GPa)
#
#
# Indices 1 2 3 4 5 6 
#
# 1 0.017257 -0.002137 0.001434 0.000000 0.000000 0.000000
# 2 -0.002137 0.010410 -0.005885 0.000000 0.000000 0.000000
# 3 0.001434 -0.005885 0.022065 0.000000 0.000000 0.000000
# 4 0.000000 0.000000 0.000000 0.103878 0.000000 0.000000
# 5 0.000000 0.000000 0.000000 0.000000 0.030764 0.000000
# 6 0.000000 0.000000 0.000000 0.000000 0.000000 0.107021
#
#
# Mechanical properties :
#
#
# Convention : Reuss Voigt Hill
#
# Bulk Modulus (GPa) = 27.35540 34.50312 30.92926
# Shear Modulus (GPa) = 15.78487 22.77424 19.27955
#
# Velocity S-wave (km/s) = 2.72563 3.27392 3.01228
# Velocity P-wave (km/s) = 4.77285 5.52540 5.16285
#
# Compressibility (1/GPa) = 0.03655586
#
# Stress axis : x y z
#
# Youngs Moduli (GPa) = 57.94718 96.05754 45.32005
#
# Poissons Ratio (x) = 0.20527 -0.06498
# Poissons Ratio (y) = 0.12383 0.26673
# Poissons Ratio (z) = -0.08309 0.56534
#
# Static dielectric constant tensor:
#      x y z
#    x 1.795960 0.000000 0.000000 
#    y 0.000000 1.833970 0.000000 
#    z 0.000000 0.000000 1.798460 
# 
# From -- ./inp_files/31182.got.cif
#   From: 2010.05.17/outbox.cif.g08.bks.cpg/sg62_16_cif.got.tgz:31182.got - 2010.06.03 15:25:27.
