data_PCOD9461377
_publ_section_title
;
Structure prediction by ZEFSAII (Michael W. Deem and Ramdas Pophale) SiO2 
 PCOD9461377
Probable space group: P N M A
;
_chemical_formula_sum "Si O2"
_cell_formula_units_Z 64
_cell_length_a 24.322399
_cell_length_b 7.397414
_cell_length_c 19.851901
_cell_angle_alpha 90.000000
_cell_angle_beta 90.000000
_cell_angle_gamma 90.000000
_cell_volume 3571.810703
_symmetry_space_group_name_H-M "P N M A"
_symmetry_group_IT_number 62
_symmetry_cell_setting 'orthorhombic'
loop_
_space_group_symop_operation_xyz
x,y,z
1/2-x,-y,1/2+z
1/2+x,1/2-y,1/2-z
-x,1/2+y,-z
-x,-y,-z
1/2+x,y,1/2-z
1/2-x,1/2+y,1/2+z
x,1/2-y,z
loop_
_atom_site_type_symbol
_atom_site_label
_atom_site_fract_x
_atom_site_fract_y
_atom_site_fract_z
Si Si1 0.663472 0.530320 0.774999
Si Si2 0.662618 0.028741 0.227858
Si Si3 0.940287 0.538693 0.646803
Si Si4 0.244514 0.964370 0.499496
Si Si5 0.436069 0.028596 0.134620
Si Si6 0.771546 0.033647 0.148985
Si Si7 0.881321 0.031299 0.506163
Si Si8 0.226605 0.469678 0.143967
O O1 0.661771 0.750000 0.774321
O O2 0.606565 0.470316 0.807639
O O3 0.681361 0.469416 0.700448
O O4 0.714307 0.481432 0.823854
O O5 0.662000 0.250000 0.226486
O O6 0.604789 0.963711 0.198769
O O7 0.712553 0.971431 0.178488
O O8 0.680308 0.971676 0.302850
O O9 0.946112 0.750000 0.663627
O O10 0.913547 0.525845 0.572797
O O11 0.001866 0.463988 0.645571
O O12 0.238797 0.750000 0.509293
O O13 0.181869 0.034173 0.493167
O O14 0.273856 0.033378 0.567066
O O15 0.275497 0.990696 0.429318
O O16 0.436516 0.250000 0.133852
O O17 0.411925 0.973587 0.062031
O O18 0.770809 0.250000 0.154376
O O19 0.880427 0.250000 0.506366
O O20 0.224227 0.250000 0.144296
#
# Coordination Sequence:
#
# PCOD9461377 Si02
#       8
#     8   8   8   8   8   8   8   8
#     4   8  13  24  41  59  76 102 137 166 193 227
#     4   8  14  24  38  58  78  99 129 164 200 228
#     4  10  18  27  41  60  82 106 133 168 199 226
#     4  10  17  25  41  61  79 104 134 163 192 233
#     4   9  16  26  40  59  81 106 140 169 188 222
#     4   9  16  26  42  59  80 104 127 162 205 241
#     4  10  18  27  38  56  83 111 136 158 185 233
#     4   8  13  23  39  56  76 102 133 163 192 231
#
# _framework density 17.918081999999998
#
# number of rings (size 3 to 8) (size 9 to 14) (size 15 to 20)
#    0.000    3.000    2.500    1.875    0.000    0.000 
#    0.000    0.000    0.000    5.250    0.000    0.875 
#    0.000    0.000    0.000    0.000    0.000    0.000 
#
# Total GULP energy -356856.929428 kJ/mol
# GULP energy per Si atom -5575.889522 kJ/mol
# Density = 1.787730 g / cm^3
# Si number density = 17.918082 Si / 1000 Ang^3
#
#
#
# Elastic Constant Matrix: (Units=GPa)
#
#
# Indices 1 2 3 4 5 6 
#
# 1 117.9625 0.3243 89.4316 0.0000 0.0000 0.0000
# 2 0.3243 56.5268 -4.6422 0.0000 0.0000 0.0000
# 3 89.4316 -4.6422 173.1183 0.0000 0.0000 0.0000
# 4 0.0000 0.0000 0.0000 12.3420 0.0000 0.0000
# 5 0.0000 0.0000 0.0000 0.0000 21.6753 0.0000
# 6 0.0000 0.0000 0.0000 0.0000 0.0000 -0.3079
#
#
#
# Elastic Compliance Matrix: (Units=1/GPa)
#
#
# Indices 1 2 3 4 5 6 
#
# 1 0.013960 -0.000674 -0.007230 0.000000 0.000000 0.000000
# 2 -0.000674 0.017762 0.000824 0.000000 0.000000 0.000000
# 3 -0.007230 0.000824 0.009533 0.000000 0.000000 0.000000
# 4 0.000000 0.000000 0.000000 0.081024 0.000000 0.000000
# 5 0.000000 0.000000 0.000000 0.000000 0.046135 0.000000
# 6 0.000000 0.000000 0.000000 0.000000 0.000000 -3.248226
#
#
# Mechanical properties :
#
#
# Convention : Reuss Voigt Hill
#
# Bulk Modulus (GPa) = 36.90393 57.53725 47.22059
# Shear Modulus (GPa) = -1.63579 24.24149 11.30285
#
# Velocity S-wave (km/s) = -0.95651 3.68218 2.51431
# Velocity P-wave (km/s) = 4.40690 7.08935 5.90253
#
# Compressibility (1/GPa) = 0.02709739
#
# Stress axis : x y z
#
# Youngs Moduli (GPa) = 71.63146 56.29907 104.89437
#
# Poissons Ratio (x) = 0.03794 0.75837
# Poissons Ratio (y) = 0.04827 -0.08647
# Poissons Ratio (z) = 0.51789 -0.04641
#
# Static dielectric constant tensor:
#      x y z
#    x 1.597390 0.000000 0.000000 
#    y 0.000000 1.706460 0.000000 
#    z 0.000000 0.000000 1.623160 
# 
# From -- ./inp_files/24860.got.cif
#   From: 2010.05.17/outbox.cif.g08.bks.cpg/sg62_13_cif.got.tgz:24860.got - 2010.06.03 15:25:27.
