data_PCOD9461879
_publ_section_title
;
Structure prediction by ZEFSAII (Michael W. Deem and Ramdas Pophale) SiO2 
 PCOD9461879
Probable space group: P N M A
;
_chemical_formula_sum "Si O2"
_cell_formula_units_Z 64
_cell_length_a 20.342948
_cell_length_b 7.513588
_cell_length_c 21.177122
_cell_angle_alpha 90.000000
_cell_angle_beta 90.000000
_cell_angle_gamma 90.000000
_cell_volume 3236.891967
_symmetry_space_group_name_H-M "P N M A"
_symmetry_group_IT_number 62
_symmetry_cell_setting 'orthorhombic'
loop_
_space_group_symop_operation_xyz
x,y,z
1/2-x,-y,1/2+z
1/2+x,1/2-y,1/2-z
-x,1/2+y,-z
-x,-y,-z
1/2+x,y,1/2-z
1/2-x,1/2+y,1/2+z
x,1/2-y,z
loop_
_atom_site_type_symbol
_atom_site_label
_atom_site_fract_x
_atom_site_fract_y
_atom_site_fract_z
Si Si1 0.948516 0.037181 0.884568
Si Si2 0.589653 0.534582 0.765353
Si Si3 0.268021 0.046767 0.439274
Si Si4 0.688986 0.538847 0.430907
Si Si5 0.308007 0.531492 0.818129
Si Si6 0.593874 0.459421 0.616533
Si Si7 0.728578 0.535203 0.806275
Si Si8 0.554981 0.036140 0.235300
O O1 0.950921 0.250000 0.893019
O O2 0.884836 0.966097 0.920967
O O3 0.021374 0.969706 0.901860
O O4 0.937467 0.005491 0.809741
O O5 0.588967 0.750000 0.767127
O O6 0.598672 0.482650 0.692130
O O7 0.653005 0.473627 0.804232
O O8 0.517182 0.471022 0.784955
O O9 0.244433 0.250000 0.446481
O O10 0.272836 0.963570 0.508629
O O11 0.223729 0.967590 0.383473
O O12 0.343173 0.047707 0.414664
O O13 0.681223 0.750000 0.442475
O O14 0.729926 0.518739 0.366951
O O15 0.306494 0.750000 0.818718
O O16 0.264003 0.476284 0.758238
O O17 0.382270 0.472889 0.803803
O O18 0.597087 0.250000 0.601871
O O19 0.728432 0.750000 0.805359
O O20 0.554824 0.250000 0.230435
#
# Coordination Sequence:
#
# PCOD9461879 Si02
#       8
#     8   8   8   8   8   8   8   8
#     4   9  18  31  44  66  99 127 155 192 235 280
#     4   9  17  30  49  72  97 124 155 193 240 288
#     4  10  20  35  50  67  97 132 164 199 238 283
#     4  10  21  34  49  69  96 132 165 195 238 289
#     4   9  16  29  50  73  93 119 159 202 237 273
#     4  10  19  30  46  69  98 128 158 195 234 278
#     4  10  18  31  51  73  96 122 156 202 241 275
#     4   9  16  28  49  73  92 119 159 195 235 284
#
# _framework density 19.772053
#
# number of rings (size 3 to 8) (size 9 to 14) (size 15 to 20)
#    0.000    2.500    2.500    0.375    0.000    2.000 
#    0.000    0.625    0.000    0.750    0.000    0.000 
#    0.000    0.000    0.000    0.000    0.000    0.000 
#
# Total GULP energy -357063.112930 kJ/mol
# GULP energy per Si atom -5579.111140 kJ/mol
# Density = 1.972705 g / cm^3
# Si number density = 19.772053 Si / 1000 Ang^3
#
#
#
# Elastic Constant Matrix: (Units=GPa)
#
#
# Indices 1 2 3 4 5 6 
#
# 1 82.0557 -0.5912 2.0341 0.0000 0.0000 0.0000
# 2 -0.5912 54.5235 -8.7253 0.0000 0.0000 0.0000
# 3 2.0341 -8.7253 26.1912 0.0000 0.0000 0.0000
# 4 0.0000 0.0000 0.0000 12.9568 0.0000 0.0000
# 5 0.0000 0.0000 0.0000 0.0000 19.4871 0.0000
# 6 0.0000 0.0000 0.0000 0.0000 0.0000 4.5262
#
#
#
# Elastic Compliance Matrix: (Units=1/GPa)
#
#
# Indices 1 2 3 4 5 6 
#
# 1 0.012210 -0.000020 -0.000955 0.000000 0.000000 0.000000
# 2 -0.000020 0.019374 0.006456 0.000000 0.000000 0.000000
# 3 -0.000955 0.006456 0.040406 0.000000 0.000000 0.000000
# 4 0.000000 0.000000 0.000000 0.077180 0.000000 0.000000
# 5 0.000000 0.000000 0.000000 0.000000 0.051316 0.000000
# 6 0.000000 0.000000 0.000000 0.000000 0.000000 0.220934
#
#
# Mechanical properties :
#
#
# Convention : Reuss Voigt Hill
#
# Bulk Modulus (GPa) = 12.05549 16.46730 14.26139
# Shear Modulus (GPa) = 11.41268 18.73086 15.07177
#
# Velocity S-wave (km/s) = 2.40513 3.08123 2.76393
# Velocity P-wave (km/s) = 3.71798 4.58315 4.17305
#
# Compressibility (1/GPa) = 0.08294975
#
# Stress axis : x y z
#
# Youngs Moduli (GPa) = 81.89759 51.61667 24.74904
#
# Poissons Ratio (x) = 0.00106 0.02364
# Poissons Ratio (y) = 0.00168 -0.15977
# Poissons Ratio (z) = 0.07822 -0.33322
#
# Static dielectric constant tensor:
#      x y z
#    x 1.723270 0.000000 0.000000 
#    y 0.000000 1.758160 0.000000 
#    z 0.000000 0.000000 1.673270 
# 
# From -- ./inp_files/24726.got.cif
#   From: 2010.05.17/outbox.cif.g08.bks.cpg/sg62_13_cif.got.tgz:24726.got - 2010.06.03 15:25:27.
