data_PCOD9461313
_publ_section_title
;
Structure prediction by ZEFSAII (Michael W. Deem and Ramdas Pophale) SiO2 
 PCOD9461313
Probable space group: P N M A
;
_chemical_formula_sum "Si O2"
_cell_formula_units_Z 40
_cell_length_a 15.833812
_cell_length_b 14.758670
_cell_length_c 6.851738
_cell_angle_alpha 90.000000
_cell_angle_beta 90.000000
_cell_angle_gamma 90.000000
_cell_volume 1601.155288
_symmetry_space_group_name_H-M "P N M A"
_symmetry_group_IT_number 62
_symmetry_cell_setting 'orthorhombic'
loop_
_space_group_symop_operation_xyz
x,y,z
1/2-x,-y,1/2+z
1/2+x,1/2-y,1/2-z
-x,1/2+y,-z
-x,-y,-z
1/2+x,y,1/2-z
1/2-x,1/2+y,1/2+z
x,1/2-y,z
loop_
_atom_site_type_symbol
_atom_site_label
_atom_site_fract_x
_atom_site_fract_y
_atom_site_fract_z
Si Si1 0.839352 0.250000 0.987561
Si Si2 0.014727 0.250000 0.954276
Si Si3 0.647272 0.437494 0.794716
Si Si4 0.191242 0.250000 0.917984
Si Si5 0.676284 0.549693 0.437329
Si Si6 0.531923 0.906156 0.142290
Si Si7 0.628262 0.750000 0.010089
O O1 0.806107 0.349644 0.024061
O O2 0.851769 0.250000 0.749080
O O3 0.932172 0.250000 0.084306
O O4 0.106195 0.250000 0.047129
O O5 0.004563 0.162919 0.813197
O O6 0.680817 0.338170 0.722256
O O7 0.630259 0.490782 0.597103
O O8 0.730095 0.484294 0.887111
O O9 0.560123 0.445631 0.916985
O O10 0.274444 0.250000 0.051985
O O11 0.611647 0.550909 0.255733
O O12 0.573983 0.840185 0.982644
#
# Coordination Sequence:
#
# PCOD9461313 Si02
#       7
#     4   4   8   4   8   8   4
#     4   8  14  31  45  65  99 126 164 200 237 304
#     4   6  12  20  43  71  83 117 161 197 241 264
#     4  11  19  31  52  76 100 130 165 205 252 291
#     4  10  14  28  50  69  99 122 165 212 235 285
#     4  10  19  32  50  75  99 129 169 206 245 297
#     4   8  15  28  46  71  97 124 162 204 239 289
#     4   8  12  25  48  71  91 121 168 207 239 271
#
# _framework density 24.981960000000001
#
# number of rings (size 3 to 8) (size 9 to 14) (size 15 to 20)
#    0.000    3.600    4.000    1.200    0.000    0.000 
#    0.000    2.000    0.000    0.000    0.000    0.000 
#    0.000    0.000    0.000    0.000    0.000    0.000 
#
# Total GULP energy -222698.892995 kJ/mol
# GULP energy per Si atom -5567.472325 kJ/mol
# Density = 2.492510 g / cm^3
# Si number density = 24.981960 Si / 1000 Ang^3
#
#
#
# Elastic Constant Matrix: (Units=GPa)
#
#
# Indices 1 2 3 4 5 6 
#
# 1 216.7570 -11.6597 10.2942 0.0000 0.0000 0.0000
# 2 -11.6597 23.3904 14.6482 0.0000 0.0000 0.0000
# 3 10.2942 14.6482 49.9667 0.0000 0.0000 0.0000
# 4 0.0000 0.0000 0.0000 -129.4301 0.0000 0.0000
# 5 0.0000 0.0000 0.0000 0.0000 6.2888 0.0000
# 6 0.0000 0.0000 0.0000 0.0000 0.0000 34.7899
#
#
#
# Elastic Compliance Matrix: (Units=1/GPa)
#
#
# Indices 1 2 3 4 5 6 
#
# 1 0.004918 0.003780 -0.002121 0.000000 0.000000 0.000000
# 2 0.003780 0.055272 -0.016982 0.000000 0.000000 0.000000
# 3 -0.002121 -0.016982 0.025429 0.000000 0.000000 0.000000
# 4 0.000000 0.000000 0.000000 -0.007726 0.000000 0.000000
# 5 0.000000 0.000000 0.000000 0.000000 0.159013 0.000000
# 6 0.000000 0.000000 0.000000 0.000000 0.000000 0.028744
#
#
# Mechanical properties :
#
#
# Convention : Reuss Voigt Hill
#
# Bulk Modulus (GPa) = 18.19151 35.18663 26.68907
# Shear Modulus (GPa) = 15.89219 0.78515 8.33867
#
# Velocity S-wave (km/s) = 2.52493 0.56122 1.82897
# Velocity P-wave (km/s) = 3.97467 3.81253 3.89444
#
# Compressibility (1/GPa) = 0.05497071
#
# Stress axis : x y z
#
# Youngs Moduli (GPa) = 203.35489 18.09248 39.32548
#
# Poissons Ratio (x) = -0.06838 0.08342
# Poissons Ratio (y) = -0.76861 0.66783
# Poissons Ratio (z) = 0.43135 0.30725
#
# Static dielectric constant tensor:
#      x y z
#    x 2.150250 0.000000 0.000000 
#    y 0.000000 2.130910 0.000000 
#    z 0.000000 0.000000 2.027180 
# 
# From -- ./inp_files/6306.got.cif
#   From: 2010.05.17/outbox.cif.g08.bks.cpg/sg62_4_cif.got.tgz:6306.got - 2010.06.03 15:25:27.
