data_PCOD9461954
_publ_section_title
;
Structure prediction by ZEFSAII (Michael W. Deem and Ramdas Pophale) SiO2 
 PCOD9461954
Probable space group: P N M A
;
_chemical_formula_sum "Si O2"
_cell_formula_units_Z 48
_cell_length_a 21.362168
_cell_length_b 19.686444
_cell_length_c 5.370014
_cell_angle_alpha 90.000000
_cell_angle_beta 90.000000
_cell_angle_gamma 90.000000
_cell_volume 2258.333204
_symmetry_space_group_name_H-M "P N M A"
_symmetry_group_IT_number 62
_symmetry_cell_setting 'orthorhombic'
loop_
_space_group_symop_operation_xyz
x,y,z
1/2-x,-y,1/2+z
1/2+x,1/2-y,1/2-z
-x,1/2+y,-z
-x,-y,-z
1/2+x,y,1/2-z
1/2-x,1/2+y,1/2+z
x,1/2-y,z
loop_
_atom_site_type_symbol
_atom_site_label
_atom_site_fract_x
_atom_site_fract_y
_atom_site_fract_z
Si Si1 0.036247 0.428351 0.950400
Si Si2 0.361048 0.091345 0.109559
Si Si3 0.569439 0.826592 0.530652
Si Si4 0.569334 0.468498 0.048686
Si Si5 0.230611 0.961309 0.973408
Si Si6 0.707519 0.828193 0.277345
O O1 0.070894 0.420663 0.213507
O O2 0.982975 0.372809 0.907910
O O3 0.080734 0.431610 0.712950
O O4 0.000000 0.500000 0.000000
O O5 0.415952 0.140185 0.201067
O O6 0.337857 0.051098 0.354503
O O7 0.386006 0.033464 0.927902
O O8 0.306654 0.137040 0.990110
O O9 0.547791 0.750000 0.553788
O O10 0.636871 0.825758 0.393516
O O11 0.500000 0.500000 0.000000
O O12 0.263325 0.992784 0.723397
O O13 0.246672 0.884377 0.067067
O O14 0.729741 0.750000 0.268035
#
# Coordination Sequence:
#
# PCOD9461954 Si02
#       6
#     8   8   8   8   8   8
#     4  10  18  32  47  72 112 146 195 221 257 330
#     4  11  20  34  60  84 121 150 190 243 299 353
#     4  10  20  31  49  82 120 155 184 231 293 353
#     4  10  19  30  53  76 111 147 193 226 265 329
#     4  11  23  41  58  84 120 150 198 244 296 364
#     4  10  21  36  59  88 123 151 184 237 312 373
#
# _framework density 21.254614
#
# number of rings (size 3 to 8) (size 9 to 14) (size 15 to 20)
#    0.000    1.667    5.000    2.500    2.333    0.667 
#    0.000    0.000    0.000    0.000    0.000    7.000 
#    0.000    0.000    0.000    0.000    0.000    0.000 
#
# Total GULP energy -267328.752895 kJ/mol
# GULP energy per Si atom -5569.349019 kJ/mol
# Density = 2.120624 g / cm^3
# Si number density = 21.254614 Si / 1000 Ang^3
#
#
#
# Elastic Constant Matrix: (Units=GPa)
#
#
# Indices 1 2 3 4 5 6 
#
# 1 14.3622 40.8958 10.6591 0.0000 0.0000 0.0000
# 2 40.8958 149.8039 49.6319 0.0000 0.0000 0.0000
# 3 10.6591 49.6319 154.0727 0.0000 0.0000 0.0000
# 4 0.0000 0.0000 0.0000 22.4030 0.0000 0.0000
# 5 0.0000 0.0000 0.0000 0.0000 24.4022 0.0000
# 6 0.0000 0.0000 0.0000 0.0000 0.0000 31.2013
#
#
#
# Elastic Compliance Matrix: (Units=1/GPa)
#
#
# Indices 1 2 3 4 5 6 
#
# 1 0.318768 -0.089240 0.006694 0.000000 0.000000 0.000000
# 2 -0.089240 0.032456 -0.004281 0.000000 0.000000 0.000000
# 3 0.006694 -0.004281 0.007406 0.000000 0.000000 0.000000
# 4 0.000000 0.000000 0.000000 0.044637 0.000000 0.000000
# 5 0.000000 0.000000 0.000000 0.000000 0.040980 0.000000
# 6 0.000000 0.000000 0.000000 0.000000 0.000000 0.032050
#
#
# Mechanical properties :
#
#
# Convention : Reuss Voigt Hill
#
# Bulk Modulus (GPa) = 5.40611 57.84582 31.62596
# Shear Modulus (GPa) = 7.02632 30.07141 18.54886
#
# Velocity S-wave (km/s) = 1.82015 3.76549 2.95735
# Velocity P-wave (km/s) = 2.63938 6.79558 5.15491
#
# Compressibility (1/GPa) = 0.18497586
#
# Stress axis : x y z
#
# Youngs Moduli (GPa) = 3.13708 30.81094 135.01675
#
# Poissons Ratio (x) = 2.74957 -0.90382
# Poissons Ratio (y) = 0.27995 0.57805
# Poissons Ratio (z) = -0.02100 0.13191
#
# Static dielectric constant tensor:
#      x y z
#    x 1.816430 0.000000 0.000000 
#    y 0.000000 1.783630 0.000000 
#    z 0.000000 0.000000 1.432610 
# 
# From -- ./inp_files/3242.got.cif
#   From: 2010.05.17/outbox.cif.g08.bks.cpg/sg62_2_cif.got.tgz:3242.got - 2010.06.03 15:25:27.
