data_PCOD9461149
_publ_section_title
;
Structure prediction by ZEFSAII (Michael W. Deem and Ramdas Pophale) SiO2 
 PCOD9461149
Probable space group: P B C A
;
_chemical_formula_sum "Si O2"
_cell_formula_units_Z 48
_cell_length_a 8.552852
_cell_length_b 15.390835
_cell_length_c 14.105463
_cell_angle_alpha 90.000000
_cell_angle_beta 90.000000
_cell_angle_gamma 90.000000
_cell_volume 1856.780153
_symmetry_space_group_name_H-M "P B C A"
_symmetry_group_IT_number 61
_symmetry_cell_setting 'orthorhombic'
loop_
_space_group_symop_operation_xyz
x,y,z
1/2-x,-y,1/2+z
1/2+x,1/2-y,-z
-x,1/2+y,1/2-z
-x,-y,-z
1/2+x,y,1/2-z
1/2-x,1/2+y,z
x,1/2-y,1/2+z
loop_
_atom_site_type_symbol
_atom_site_label
_atom_site_fract_x
_atom_site_fract_y
_atom_site_fract_z
Si Si1 0.984374 0.630523 0.369058
Si Si2 0.974758 0.046590 0.647857
Si Si3 0.785167 0.808487 0.691009
Si Si4 0.811140 0.085269 0.450423
Si Si5 0.534237 0.737704 0.950350
Si Si6 0.293589 0.134987 0.698258
O O1 0.895639 0.657434 0.273987
O O2 0.867790 0.565618 0.423957
O O3 0.005790 0.709684 0.443075
O O4 0.163001 0.616697 0.338688
O O5 0.868131 0.062686 0.555530
O O6 0.867134 0.057997 0.739272
O O7 0.118793 0.113811 0.663992
O O8 0.069797 0.959828 0.622442
O O9 0.882974 0.777086 0.600689
O O10 0.706369 0.721502 0.735512
O O11 0.836227 0.187890 0.441731
O O12 0.596039 0.656564 0.890101
#
# Coordination Sequence:
#
# PCOD9461149 Si02
#       6
#     8   8   8   8   8   8
#     4  12  24  42  71 109 143 187 244 317 362 436
#     4  11  27  47  71 103 159 199 244 307 392 446
#     4  12  23  40  70 109 142 177 252 309 364 428
#     4  11  26  48  69 109 150 197 245 315 373 452
#     4  12  24  42  77 110 139 188 258 308 364 437
#     4  12  22  45  73 106 142 202 245 307 371 447
#
# _framework density 25.851202000000001
#
# number of rings (size 3 to 8) (size 9 to 14) (size 15 to 20)
#    0.000    0.333    5.000    4.000    2.333    2.667 
#    0.000    0.833    0.000    0.000    0.000    0.000 
#    0.000    0.000    0.000    0.000    0.000    0.000 
#
# Total GULP energy -269053.810224 kJ/mol
# GULP energy per Si atom -5605.287713 kJ/mol
# Density = 2.579236 g / cm^3
# Si number density = 25.851202 Si / 1000 Ang^3
#
#
#
# Elastic Constant Matrix: (Units=GPa)
#
#
# Indices 1 2 3 4 5 6 
#
# 1 134.3403 15.0121 55.5563 0.0000 0.0000 0.0000
# 2 15.0121 69.2545 33.5146 0.0000 0.0000 0.0000
# 3 55.5563 33.5146 128.4494 0.0000 0.0000 0.0000
# 4 0.0000 0.0000 0.0000 38.7393 0.0000 0.0000
# 5 0.0000 0.0000 0.0000 0.0000 58.5678 0.0000
# 6 0.0000 0.0000 0.0000 0.0000 0.0000 29.8081
#
#
#
# Elastic Compliance Matrix: (Units=1/GPa)
#
#
# Indices 1 2 3 4 5 6 
#
# 1 0.009066 -0.000077 -0.003901 0.000000 0.000000 0.000000
# 2 -0.000077 0.016527 -0.004279 0.000000 0.000000 0.000000
# 3 -0.003901 -0.004279 0.010589 0.000000 0.000000 0.000000
# 4 0.000000 0.000000 0.000000 0.025814 0.000000 0.000000
# 5 0.000000 0.000000 0.000000 0.000000 0.017074 0.000000
# 6 0.000000 0.000000 0.000000 0.000000 0.000000 0.033548
#
#
# Mechanical properties :
#
#
# Convention : Reuss Voigt Hill
#
# Bulk Modulus (GPa) = 50.84548 60.02337 55.43443
# Shear Modulus (GPa) = 36.84966 40.62046 38.73506
#
# Velocity S-wave (km/s) = 3.77961 3.96829 3.87510
# Velocity P-wave (km/s) = 6.22563 6.65324 6.44298
#
# Compressibility (1/GPa) = 0.01966743
#
# Stress axis : x y z
#
# Youngs Moduli (GPa) = 110.30696 60.50752 94.44023
#
# Poissons Ratio (x) = 0.00468 0.36839
# Poissons Ratio (y) = 0.00854 0.40408
# Poissons Ratio (z) = 0.43029 0.25889
#
# Static dielectric constant tensor:
#      x y z
#    x 2.037270 0.000000 0.000000 
#    y 0.000000 2.042380 0.000000 
#    z 0.000000 0.000000 1.968510 
# 
# From -- ./inp_files/7062.got.cif
#   From: 2010.05.17/outbox.cif.g08.bks.cpg/sg61_4_cif.got.tgz:7062.got - 2010.06.03 15:17:17.
