data_PCOD9461324
_publ_section_title
;
Structure prediction by ZEFSAII (Michael W. Deem and Ramdas Pophale) SiO2 
 PCOD9461324
Probable space group: P N M A
;
_chemical_formula_sum "Si O2"
_cell_formula_units_Z 40
_cell_length_a 6.964021
_cell_length_b 8.466813
_cell_length_c 27.730466
_cell_angle_alpha 90.000000
_cell_angle_beta 90.000000
_cell_angle_gamma 90.000000
_cell_volume 1635.073229
_symmetry_space_group_name_H-M "P N M A"
_symmetry_group_IT_number 62
_symmetry_cell_setting 'orthorhombic'
loop_
_space_group_symop_operation_xyz
x,y,z
1/2-x,-y,1/2+z
1/2+x,1/2-y,1/2-z
-x,1/2+y,-z
-x,-y,-z
1/2+x,y,1/2-z
1/2-x,1/2+y,1/2+z
x,1/2-y,z
loop_
_atom_site_type_symbol
_atom_site_label
_atom_site_fract_x
_atom_site_fract_y
_atom_site_fract_z
Si Si1 0.904218 0.930639 0.683380
Si Si2 0.040644 0.069461 0.212749
Si Si3 0.213677 0.562625 0.013556
Si Si4 0.694421 0.935331 0.084925
Si Si5 0.879650 0.559209 0.888780
O O1 0.975353 0.750000 0.677765
O O2 0.674982 0.923578 0.693185
O O3 0.971718 0.005308 0.734179
O O4 0.923465 0.014102 0.632181
O O5 0.107089 0.250000 0.222150
O O6 0.162584 0.009556 0.166848
O O7 0.210689 0.750000 0.018482
O O8 0.252006 0.489076 0.066147
O O9 0.337027 0.517492 0.966623
O O10 0.000000 0.500000 0.000000
O O11 0.676248 0.750000 0.077349
O O12 0.914989 0.980022 0.098700
O O13 0.900497 0.750000 0.888575
#
# Coordination Sequence:
#
# PCOD9461324 Si02
#       5
#     8   8   8   8   8
#     4   9  16  29  44  62  84 112 142 172 204 246
#     4   8  15  26  44  63  84 110 141 171 203 243
#     4  10  16  23  36  56  81 110 137 170 210 253
#     4  10  17  25  37  57  82 110 138 172 210 249
#     4   9  15  25  39  58  82 110 138 171 208 251
#
# _framework density 24.463736000000001
#
# number of rings (size 3 to 8) (size 9 to 14) (size 15 to 20)
#    0.000    2.800    0.000    7.800    0.000    0.000 
#    0.000    5.000    0.000    0.000    0.000    1.400 
#    0.000    0.000    0.000    0.000    0.000    0.000 
#
# Total GULP energy -223311.735549 kJ/mol
# GULP energy per Si atom -5582.793389 kJ/mol
# Density = 2.440806 g / cm^3
# Si number density = 24.463736 Si / 1000 Ang^3
#
#
#
# Elastic Constant Matrix: (Units=GPa)
#
#
# Indices 1 2 3 4 5 6 
#
# 1 68.4166 -6.9223 32.9347 0.0000 0.0000 0.0000
# 2 -6.9223 84.3717 32.1462 0.0000 0.0000 0.0000
# 3 32.9347 32.1462 248.8982 0.0000 0.0000 0.0000
# 4 0.0000 0.0000 0.0000 38.5410 0.0000 0.0000
# 5 0.0000 0.0000 0.0000 0.0000 56.7639 0.0000
# 6 0.0000 0.0000 0.0000 0.0000 0.0000 -9.9385
#
#
#
# Elastic Compliance Matrix: (Units=1/GPa)
#
#
# Indices 1 2 3 4 5 6 
#
# 1 0.016000 0.002229 -0.002405 0.000000 0.000000 0.000000
# 2 0.002229 0.012776 -0.001945 0.000000 0.000000 0.000000
# 3 -0.002405 -0.001945 0.004587 0.000000 0.000000 0.000000
# 4 0.000000 0.000000 0.000000 0.025946 0.000000 0.000000
# 5 0.000000 0.000000 0.000000 0.000000 0.017617 0.000000
# 6 0.000000 0.000000 0.000000 0.000000 0.000000 -0.100619
#
#
# Mechanical properties :
#
#
# Convention : Reuss Voigt Hill
#
# Bulk Modulus (GPa) = 34.33957 57.55600 45.94779
# Shear Modulus (GPa) = -513.14377 39.97514 -236.58431
#
# Velocity S-wave (km/s) = -14.49870 4.04673 -9.84470
# Velocity P-wave (km/s) = 16.31612 6.73891 10.50721
#
# Compressibility (1/GPa) = 0.02912093
#
# Stress axis : x y z
#
# Youngs Moduli (GPa) = 62.50166 78.27012 218.00026
#
# Poissons Ratio (x) = -0.17446 0.52429
# Poissons Ratio (y) = -0.13932 0.42402
# Poissons Ratio (z) = 0.15032 0.15224
#
# Static dielectric constant tensor:
#      x y z
#    x 2.111060 0.000000 0.000000 
#    y 0.000000 1.828580 0.000000 
#    z 0.000000 0.000000 2.043490 
# 
# From -- ./inp_files/30682.got.cif
#   From: 2010.05.17/outbox.cif.g08.bks.cpg/sg62_16_cif.got.tgz:30682.got - 2010.06.03 15:25:27.
