data_PCOD9461146
_publ_section_title
;
Structure prediction by ZEFSAII (Michael W. Deem and Ramdas Pophale) SiO2 
 PCOD9461146
Probable space group: P B C A
;
_chemical_formula_sum "Si O2"
_cell_formula_units_Z 40
_cell_length_a 12.811937
_cell_length_b 11.766686
_cell_length_c 11.560948
_cell_angle_alpha 90.000000
_cell_angle_beta 90.000000
_cell_angle_gamma 90.000000
_cell_volume 1742.859614
_symmetry_space_group_name_H-M "P B C A"
_symmetry_group_IT_number 61
_symmetry_cell_setting 'orthorhombic'
loop_
_space_group_symop_operation_xyz
x,y,z
1/2-x,-y,1/2+z
1/2+x,1/2-y,-z
-x,1/2+y,1/2-z
-x,-y,-z
1/2+x,y,1/2-z
1/2-x,1/2+y,z
x,1/2-y,1/2+z
loop_
_atom_site_type_symbol
_atom_site_label
_atom_site_fract_x
_atom_site_fract_y
_atom_site_fract_z
Si Si1 0.540466 0.680011 0.427182
Si Si2 0.247952 0.541687 0.070215
Si Si3 0.603438 0.354016 0.372465
Si Si4 0.932352 0.578212 0.611314
Si Si5 0.078782 0.100741 0.202114
O O1 0.659095 0.638160 0.415903
O O2 0.501350 0.638044 0.552053
O O3 0.507424 0.812548 0.414547
O O4 0.472999 0.620558 0.325486
O O5 0.189926 0.421449 0.055257
O O6 0.316289 0.528894 0.187803
O O7 0.329283 0.569132 0.967456
O O8 0.597865 0.406361 0.245836
O O9 0.615435 0.221293 0.348506
O O10 0.003573 0.539194 0.382101
#
# Coordination Sequence:
#
# PCOD9461146 Si02
#       5
#     8   8   8   8   8
#     4  11  26  50  72 111 156 196 257 320 375 460
#     4  12  26  46  78 108 149 208 246 317 391 442
#     4  11  26  47  72 112 148 202 255 314 377 457
#     4  11  26  49  76 111 154 199 260 316 373 464
#     4  11  26  48  72 112 153 196 259 310 376 460
#
# _framework density 22.950786999999998
#
# number of rings (size 3 to 8) (size 9 to 14) (size 15 to 20)
#    0.000    0.800    4.000    1.200    5.600    0.000 
#   10.800    0.000    0.000    0.000    0.000    0.000 
#    0.000    0.000    0.000    0.000    0.000    0.000 
#
# Total GULP energy -223350.982742 kJ/mol
# GULP energy per Si atom -5583.774569 kJ/mol
# Density = 2.289855 g / cm^3
# Si number density = 22.950787 Si / 1000 Ang^3
#
#
#
# Elastic Constant Matrix: (Units=GPa)
#
#
# Indices 1 2 3 4 5 6 
#
# 1 149.5231 44.5098 60.7676 0.0000 0.0000 0.0000
# 2 44.5098 126.0033 31.0091 0.0000 0.0000 0.0000
# 3 60.7676 31.0091 116.4817 0.0000 0.0000 0.0000
# 4 0.0000 0.0000 0.0000 38.0512 0.0000 0.0000
# 5 0.0000 0.0000 0.0000 0.0000 39.8282 0.0000
# 6 0.0000 0.0000 0.0000 0.0000 0.0000 28.5019
#
#
#
# Elastic Compliance Matrix: (Units=1/GPa)
#
#
# Indices 1 2 3 4 5 6 
#
# 1 0.009009 -0.002168 -0.004123 0.000000 0.000000 0.000000
# 2 -0.002168 0.009014 -0.001269 0.000000 0.000000 0.000000
# 3 -0.004123 -0.001269 0.011074 0.000000 0.000000 0.000000
# 4 0.000000 0.000000 0.000000 0.026280 0.000000 0.000000
# 5 0.000000 0.000000 0.000000 0.000000 0.025108 0.000000
# 6 0.000000 0.000000 0.000000 0.000000 0.000000 0.035085
#
#
# Mechanical properties :
#
#
# Convention : Reuss Voigt Hill
#
# Bulk Modulus (GPa) = 71.54050 73.84235 72.69143
# Shear Modulus (GPa) = 36.94178 38.32437 37.63308
#
# Velocity S-wave (km/s) = 4.01635 4.09081 4.05375
# Velocity P-wave (km/s) = 7.26271 7.38628 7.32475
#
# Compressibility (1/GPa) = 0.01397810
#
# Stress axis : x y z
#
# Youngs Moduli (GPa) = 111.00374 110.93507 90.30479
#
# Poissons Ratio (x) = 0.24047 0.37230
# Poissons Ratio (y) = 0.24062 0.11458
# Poissons Ratio (z) = 0.45764 0.14076
#
# Static dielectric constant tensor:
#      x y z
#    x 1.868560 0.000000 0.000000 
#    y 0.000000 1.937070 0.000000 
#    z 0.000000 0.000000 1.918180 
# 
# From -- ./inp_files/5561.got.cif
#   From: 2010.05.17/outbox.cif.g08.bks.cpg/sg61_3_cif.got.tgz:5561.got - 2010.06.03 15:17:17.
