data_PCOD9461808
_publ_section_title
;
Structure prediction by ZEFSAII (Michael W. Deem and Ramdas Pophale) SiO2 
 PCOD9461808
Probable space group: P N M A
;
_chemical_formula_sum "Si O2"
_cell_formula_units_Z 64
_cell_length_a 17.801668
_cell_length_b 7.860961
_cell_length_c 20.875869
_cell_angle_alpha 90.000000
_cell_angle_beta 90.000000
_cell_angle_gamma 90.000000
_cell_volume 2921.331905
_symmetry_space_group_name_H-M "P N M A"
_symmetry_group_IT_number 62
_symmetry_cell_setting 'orthorhombic'
loop_
_space_group_symop_operation_xyz
x,y,z
1/2-x,-y,1/2+z
1/2+x,1/2-y,1/2-z
-x,1/2+y,-z
-x,-y,-z
1/2+x,y,1/2-z
1/2-x,1/2+y,1/2+z
x,1/2-y,z
loop_
_atom_site_type_symbol
_atom_site_label
_atom_site_fract_x
_atom_site_fract_y
_atom_site_fract_z
Si Si1 0.420148 0.959203 0.742035
Si Si2 0.575370 0.555147 0.708339
Si Si3 0.113015 0.057149 0.655195
Si Si4 0.872325 0.052457 0.481768
Si Si5 0.797030 0.444561 0.978192
Si Si6 0.619438 0.044396 0.118933
Si Si7 0.293870 0.041837 0.381502
Si Si8 0.717970 0.053631 0.341857
O O1 0.421074 0.750000 0.740983
O O2 0.492352 0.021623 0.702650
O O3 0.421701 0.011416 0.816371
O O4 0.342544 0.010346 0.708812
O O5 0.570778 0.750000 0.685819
O O6 0.588257 0.552451 0.784504
O O7 0.647330 0.480842 0.671832
O O8 0.089392 0.250000 0.665524
O O9 0.088556 0.996512 0.584715
O O10 0.203945 0.045404 0.656504
O O11 0.852060 0.250000 0.476751
O O12 0.794060 0.949427 0.483974
O O13 0.909702 0.020283 0.550380
O O14 0.821320 0.250000 0.970398
O O15 0.815604 0.543371 0.913570
O O16 0.821953 0.509620 0.047668
O O17 0.617418 0.250000 0.116689
O O18 0.707118 0.988544 0.126527
O O19 0.290735 0.250000 0.380214
O O20 0.736008 0.250000 0.326517
#
# Coordination Sequence:
#
# PCOD9461808 Si02
#       8
#     8   8   8   8   8   8   8   8
#     4   9  19  33  53  76 102 135 173 209 250 298
#     4  10  19  35  54  74 100 136 175 211 246 296
#     4  11  21  34  52  77 103 132 165 206 255 303
#     4  10  18  30  50  77 100 125 161 207 252 298
#     4   9  16  29  48  74 102 131 163 204 252 297
#     4   9  16  31  51  74 100 130 163 203 250 299
#     4   8  15  28  51  74  98 130 166 202 245 295
#     4  10  18  32  53  78 102 131 169 210 248 296
#
# _framework density 21.907817000000001
#
# number of rings (size 3 to 8) (size 9 to 14) (size 15 to 20)
#    0.000    2.500    0.000    6.000    0.000    2.000 
#    0.000   10.000    0.000    0.000    0.000    0.000 
#    0.000    0.000    0.000    0.000    0.000    0.000 
#
# Total GULP energy -357056.520623 kJ/mol
# GULP energy per Si atom -5579.008135 kJ/mol
# Density = 2.185795 g / cm^3
# Si number density = 21.907817 Si / 1000 Ang^3
#
#
#
# Elastic Constant Matrix: (Units=GPa)
#
#
# Indices 1 2 3 4 5 6 
#
# 1 41.3615 -4.5257 6.5089 0.0000 0.0000 0.0000
# 2 -4.5257 48.0723 -12.9033 0.0000 0.0000 0.0000
# 3 6.5089 -12.9033 76.8963 0.0000 0.0000 0.0000
# 4 0.0000 0.0000 0.0000 22.1078 0.0000 0.0000
# 5 0.0000 0.0000 0.0000 0.0000 -11.3370 0.0000
# 6 0.0000 0.0000 0.0000 0.0000 0.0000 3.8771
#
#
#
# Elastic Compliance Matrix: (Units=1/GPa)
#
#
# Indices 1 2 3 4 5 6 
#
# 1 0.024659 0.001844 -0.001778 0.000000 0.000000 0.000000
# 2 0.001844 0.021921 0.003522 0.000000 0.000000 0.000000
# 3 -0.001778 0.003522 0.013746 0.000000 0.000000 0.000000
# 4 0.000000 0.000000 0.000000 0.045233 0.000000 0.000000
# 5 0.000000 0.000000 0.000000 0.000000 -0.088207 0.000000
# 6 0.000000 0.000000 0.000000 0.000000 0.000000 0.257926
#
#
# Mechanical properties :
#
#
# Convention : Reuss Voigt Hill
#
# Bulk Modulus (GPa) = 14.81408 16.05443 15.43425
# Shear Modulus (GPa) = 17.20570 14.74625 15.97598
#
# Velocity S-wave (km/s) = 2.80548 2.59724 2.70337
# Velocity P-wave (km/s) = 4.15584 4.04207 4.09935
#
# Compressibility (1/GPa) = 0.06750334
#
# Stress axis : x y z
#
# Youngs Moduli (GPa) = 40.55376 45.61823 72.74818
#
# Poissons Ratio (x) = -0.08413 0.12933
# Poissons Ratio (y) = -0.07479 -0.25624
# Poissons Ratio (z) = 0.07209 -0.16068
#
# Static dielectric constant tensor:
#      x y z
#    x 1.811110 0.000000 0.000000 
#    y 0.000000 -1.847060 0.000000 
#    z 0.000000 0.000000 1.831760 
# 
# From -- ./inp_files/27647.got.cif
#   From: 2010.05.17/outbox.cif.g08.bks.cpg/sg62_14_cif.got.tgz:27647.got - 2010.06.03 15:25:27.
