data_PCOD9461950
_publ_section_title
;
Structure prediction by ZEFSAII (Michael W. Deem and Ramdas Pophale) SiO2 
 PCOD9461950
Probable space group: P N M A
;
_chemical_formula_sum "Si O2"
_cell_formula_units_Z 40
_cell_length_a 5.356214
_cell_length_b 18.401904
_cell_length_c 19.273303
_cell_angle_alpha 90.000000
_cell_angle_beta 90.000000
_cell_angle_gamma 90.000000
_cell_volume 1899.664164
_symmetry_space_group_name_H-M "P N M A"
_symmetry_group_IT_number 62
_symmetry_cell_setting 'orthorhombic'
loop_
_space_group_symop_operation_xyz
x,y,z
1/2-x,-y,1/2+z
1/2+x,1/2-y,1/2-z
-x,1/2+y,-z
-x,-y,-z
1/2+x,y,1/2-z
1/2-x,1/2+y,1/2+z
x,1/2-y,z
loop_
_atom_site_type_symbol
_atom_site_label
_atom_site_fract_x
_atom_site_fract_y
_atom_site_fract_z
Si Si1 0.135274 0.515193 0.426652
Si Si2 0.099576 0.647330 0.781959
Si Si3 0.930508 0.516031 0.275696
Si Si4 0.363346 0.132014 0.437844
Si Si5 0.355623 0.332005 0.979036
O O1 0.356566 0.456080 0.429364
O O2 0.191436 0.600802 0.426912
O O3 0.000000 0.500000 0.500000
O O4 0.973871 0.500988 0.357224
O O5 0.323557 0.673886 0.734151
O O6 0.086130 0.560739 0.765513
O O7 0.173015 0.660776 0.860577
O O8 0.672415 0.554211 0.256767
O O9 0.626268 0.158464 0.467331
O O10 0.125714 0.155203 0.484425
O O11 0.349889 0.250000 0.951145
#
# Coordination Sequence:
#
# PCOD9461950 Si02
#       5
#     8   8   8   8   8
#     4  10  22  37  64  98 116 157 215 259 297 365
#     4  10  18  31  57  87 119 146 187 249 308 341
#     4  10  20  33  56  90 127 146 188 254 319 344
#     4  11  21  38  64  89 116 156 212 253 296 365
#     4  11  25  41  59  85 129 165 199 252 314 363
#
# _framework density 21.056353000000001
#
# number of rings (size 3 to 8) (size 9 to 14) (size 15 to 20)
#    0.000    1.600    4.000    2.400    8.400    3.200 
#    0.000    0.000    0.000   13.200    0.000    0.000 
#    0.000    0.000    0.000    0.000    0.000    0.000 
#
# Total GULP energy -223101.568426 kJ/mol
# GULP energy per Si atom -5577.539211 kJ/mol
# Density = 2.100843 g / cm^3
# Si number density = 21.056353 Si / 1000 Ang^3
#
#
#
# Elastic Constant Matrix: (Units=GPa)
#
#
# Indices 1 2 3 4 5 6 
#
# 1 123.4597 1.1914 0.2208 0.0000 0.0000 0.0000
# 2 1.1914 127.2007 -3.2695 0.0000 0.0000 0.0000
# 3 0.2208 -3.2695 66.9804 0.0000 0.0000 0.0000
# 4 0.0000 0.0000 0.0000 -31.5788 0.0000 0.0000
# 5 0.0000 0.0000 0.0000 0.0000 25.1492 0.0000
# 6 0.0000 0.0000 0.0000 0.0000 0.0000 13.9845
#
#
#
# Elastic Compliance Matrix: (Units=1/GPa)
#
#
# Indices 1 2 3 4 5 6 
#
# 1 0.008101 -0.000077 -0.000030 0.000000 0.000000 0.000000
# 2 -0.000077 0.007872 0.000385 0.000000 0.000000 0.000000
# 3 -0.000030 0.000385 0.014949 0.000000 0.000000 0.000000
# 4 0.000000 0.000000 0.000000 -0.031667 0.000000 0.000000
# 5 0.000000 0.000000 0.000000 0.000000 0.039763 0.000000
# 6 0.000000 0.000000 0.000000 0.000000 0.000000 0.071508
#
#
# Mechanical properties :
#
#
# Convention : Reuss Voigt Hill
#
# Bulk Modulus (GPa) = 31.77001 34.88070 33.32535
# Shear Modulus (GPa) = 41.50670 22.81084 32.15877
#
# Velocity S-wave (km/s) = 4.44466 3.29496 3.91227
# Velocity P-wave (km/s) = 6.43901 5.57468 6.02237
#
# Compressibility (1/GPa) = 0.03147622
#
# Stress axis : x y z
#
# Youngs Moduli (GPa) = 123.44755 127.02936 66.89589
#
# Poissons Ratio (x) = 0.00974 0.00204
# Poissons Ratio (y) = 0.00946 -0.02572
# Poissons Ratio (z) = 0.00376 -0.04884
#
# Static dielectric constant tensor:
#      x y z
#    x 1.866000 0.000000 0.000000 
#    y 0.000000 1.830910 0.000000 
#    z 0.000000 0.000000 1.739410 
# 
# From -- ./inp_files/21478.got.cif
#   From: 2010.05.17/outbox.cif.g08.bks.cpg/sg62_11_cif.got.tgz:21478.got - 2010.06.03 15:25:27.
