data_PCOD9461720
_publ_section_title
;
Structure prediction by ZEFSAII (Michael W. Deem and Ramdas Pophale) SiO2 
 PCOD9461720
Probable space group: P N M A
;
_chemical_formula_sum "Si O2"
_cell_formula_units_Z 64
_cell_length_a 21.842172
_cell_length_b 7.701524
_cell_length_c 17.560134
_cell_angle_alpha 90.000000
_cell_angle_beta 90.000000
_cell_angle_gamma 90.000000
_cell_volume 2953.930830
_symmetry_space_group_name_H-M "P N M A"
_symmetry_group_IT_number 62
_symmetry_cell_setting 'orthorhombic'
loop_
_space_group_symop_operation_xyz
x,y,z
1/2-x,-y,1/2+z
1/2+x,1/2-y,1/2-z
-x,1/2+y,-z
-x,-y,-z
1/2+x,y,1/2-z
1/2-x,1/2+y,1/2+z
x,1/2-y,z
loop_
_atom_site_type_symbol
_atom_site_label
_atom_site_fract_x
_atom_site_fract_y
_atom_site_fract_z
Si Si1 0.582049 0.948494 0.174162
Si Si2 0.034157 0.539236 0.167246
Si Si3 0.105795 0.545900 0.860764
Si Si4 0.246668 0.044239 0.585829
Si Si5 0.621768 0.536803 0.467372
Si Si6 0.846608 0.953120 0.293740
Si Si7 0.957051 0.050235 0.396948
Si Si8 0.363934 0.038948 0.975646
O O1 0.602199 0.750000 0.187063
O O2 0.569232 0.026286 0.257149
O O3 0.516047 0.949385 0.132055
O O4 0.627251 0.025046 0.110544
O O5 0.034362 0.750000 0.170810
O O6 0.068452 0.483804 0.090521
O O7 0.963921 0.483698 0.165417
O O8 0.117863 0.750000 0.863079
O O9 0.150182 0.470505 0.796457
O O10 0.112884 0.476252 0.946203
O O11 0.255313 0.250000 0.595716
O O12 0.313031 0.974833 0.564723
O O13 0.213381 0.979259 0.662503
O O14 0.197750 0.015397 0.518262
O O15 0.621191 0.750000 0.468608
O O16 0.853313 0.750000 0.313219
O O17 0.905167 0.044255 0.331564
O O18 0.975208 0.250000 0.409326
O O19 0.921455 0.982663 0.471563
O O20 0.365600 0.250000 0.975509
#
# Coordination Sequence:
#
# PCOD9461720 Si02
#       8
#     8   8   8   8   8   8   8   8
#     4  10  19  31  49  76 111 143 176 220 270 324
#     4  10  20  36  58  81 110 144 180 224 273 324
#     4  11  21  35  58  84 111 140 178 225 274 326
#     4   9  19  38  59  77 104 144 188 223 263 322
#     4   9  20  39  59  80 107 144 183 225 276 322
#     4  10  19  33  55  82 109 140 181 224 264 320
#     4  10  18  29  49  75 109 144 177 219 269 322
#     4   9  19  33  49  77 110 143 179 219 271 320
#
# _framework density 21.666045
#
# number of rings (size 3 to 8) (size 9 to 14) (size 15 to 20)
#    0.000    2.250    1.250    1.875    0.000    1.500 
#    2.250    2.500    0.000    0.000    0.000    0.000 
#    0.000    0.000    0.000    0.000    0.000    0.000 
#
# Total GULP energy -357338.701454 kJ/mol
# GULP energy per Si atom -5583.417210 kJ/mol
# Density = 2.161673 g / cm^3
# Si number density = 21.666045 Si / 1000 Ang^3
#
#
#
# Elastic Constant Matrix: (Units=GPa)
#
#
# Indices 1 2 3 4 5 6 
#
# 1 40.9666 -4.6402 37.6987 0.0000 0.0000 0.0000
# 2 -4.6402 41.3578 -1.7368 0.0000 0.0000 0.0000
# 3 37.6987 -1.7368 154.9027 0.0000 0.0000 0.0000
# 4 0.0000 0.0000 0.0000 9.2796 0.0000 0.0000
# 5 0.0000 0.0000 0.0000 0.0000 9.1857 0.0000
# 6 0.0000 0.0000 0.0000 0.0000 0.0000 -2.2095
#
#
#
# Elastic Compliance Matrix: (Units=1/GPa)
#
#
# Indices 1 2 3 4 5 6 
#
# 1 0.031886 0.003253 -0.007724 0.000000 0.000000 0.000000
# 2 0.003253 0.024523 -0.000517 0.000000 0.000000 0.000000
# 3 -0.007724 -0.000517 0.008330 0.000000 0.000000 0.000000
# 4 0.000000 0.000000 0.000000 0.107763 0.000000 0.000000
# 5 0.000000 0.000000 0.000000 0.000000 0.108865 0.000000
# 6 0.000000 0.000000 0.000000 0.000000 0.000000 -0.452590
#
#
# Mechanical properties :
#
#
# Convention : Reuss Voigt Hill
#
# Bulk Modulus (GPa) = 18.26024 33.31892 25.78958
# Shear Modulus (GPa) = -34.96633 16.97819 -8.99407
#
# Velocity S-wave (km/s) = -4.02167 2.80238 -2.03967
# Velocity P-wave (km/s) = 3.62198 5.08752 2.52628
#
# Compressibility (1/GPa) = 0.05476378
#
# Stress axis : x y z
#
# Youngs Moduli (GPa) = 31.36156 40.77882 120.05413
#
# Poissons Ratio (x) = -0.13266 0.92726
# Poissons Ratio (y) = -0.10202 0.06204
# Poissons Ratio (z) = 0.24223 0.02107
#
# Static dielectric constant tensor:
#      x y z
#    x 1.741730 0.000000 0.000000 
#    y 0.000000 1.803380 0.000000 
#    z 0.000000 0.000000 1.823360 
# 
# From -- ./inp_files/24844.got.cif
#   From: 2010.05.17/outbox.cif.g08.bks.cpg/sg62_13_cif.got.tgz:24844.got - 2010.06.03 15:25:27.
