data_PCOD9461906
_publ_section_title
;
Structure prediction by ZEFSAII (Michael W. Deem and Ramdas Pophale) SiO2 
 PCOD9461906
Probable space group: P N M A
;
_chemical_formula_sum "Si O2"
_cell_formula_units_Z 56
_cell_length_a 19.139061
_cell_length_b 9.494239
_cell_length_c 17.448816
_cell_angle_alpha 90.000000
_cell_angle_beta 90.000000
_cell_angle_gamma 90.000000
_cell_volume 3170.638652
_symmetry_space_group_name_H-M "P N M A"
_symmetry_group_IT_number 62
_symmetry_cell_setting 'orthorhombic'
loop_
_space_group_symop_operation_xyz
x,y,z
1/2-x,-y,1/2+z
1/2+x,1/2-y,1/2-z
-x,1/2+y,-z
-x,-y,-z
1/2+x,y,1/2-z
1/2-x,1/2+y,1/2+z
x,1/2-y,z
loop_
_atom_site_type_symbol
_atom_site_label
_atom_site_fract_x
_atom_site_fract_y
_atom_site_fract_z
Si Si1 0.804187 0.085490 0.425937
Si Si2 0.443768 0.091090 0.598899
Si Si3 0.822677 0.912228 0.830491
Si Si4 0.213063 0.086073 0.921564
Si Si5 0.072985 0.082482 0.493749
Si Si6 0.573149 0.590663 0.584501
Si Si7 0.831060 0.589873 0.651131
O O1 0.826705 0.250000 0.425092
O O2 0.758730 0.055634 0.349581
O O3 0.746423 0.070008 0.493617
O O4 0.868928 0.986862 0.449451
O O5 0.450334 0.250000 0.628394
O O6 0.442076 0.098409 0.506612
O O7 0.373086 0.018002 0.625932
O O8 0.509173 0.994133 0.621336
O O9 0.833517 0.750000 0.857255
O O10 0.843399 0.917064 0.741467
O O11 0.198525 0.250000 0.909305
O O12 0.144358 0.995045 0.909036
O O13 0.273160 0.025155 0.867760
O O14 0.065032 0.250000 0.508428
O O15 0.105006 0.066816 0.407611
O O16 0.000000 0.000000 0.500000
O O17 0.578715 0.750000 0.613818
O O18 0.805244 0.750000 0.634075
#
# Coordination Sequence:
#
# PCOD9461906 Si02
#       7
#     8   8   8   8   8   8   8
#     4   9  18  32  54  80 104 134 172 215 264 317
#     4  10  20  31  48  75 106 138 173 215 259 307
#     4  10  19  35  55  77 107 142 177 216 266 326
#     4  10  18  31  52  77 104 133 170 217 261 307
#     4  10  20  36  58  82 107 138 182 229 271 320
#     4  10  19  31  49  73 103 137 174 213 255 309
#     4   9  20  36  55  78 106 141 178 217 267 324
#
# _framework density 17.662057000000001
#
# number of rings (size 3 to 8) (size 9 to 14) (size 15 to 20)
#    0.000    2.286    1.429    1.714    0.000    3.429 
#    0.000    1.429    0.000    3.429    0.000    0.000 
#    0.000    0.000    0.000    0.000    0.000    0.000 
#
# Total GULP energy -312075.219702 kJ/mol
# GULP energy per Si atom -5572.771780 kJ/mol
# Density = 1.762186 g / cm^3
# Si number density = 17.662057 Si / 1000 Ang^3
#
#
#
# Elastic Constant Matrix: (Units=GPa)
#
#
# Indices 1 2 3 4 5 6 
#
# 1 124.3186 93.2499 16.4219 0.0000 0.0000 0.0000
# 2 93.2499 151.4116 25.5472 0.0000 0.0000 0.0000
# 3 16.4219 25.5472 37.4019 0.0000 0.0000 0.0000
# 4 0.0000 0.0000 0.0000 13.4058 0.0000 0.0000
# 5 0.0000 0.0000 0.0000 0.0000 9.1509 0.0000
# 6 0.0000 0.0000 0.0000 0.0000 0.0000 36.6686
#
#
#
# Elastic Compliance Matrix: (Units=1/GPa)
#
#
# Indices 1 2 3 4 5 6 
#
# 1 0.014953 -0.009157 -0.000311 0.000000 0.000000 0.000000
# 2 -0.009157 0.013072 -0.004908 0.000000 0.000000 0.000000
# 3 -0.000311 -0.004908 0.030226 0.000000 0.000000 0.000000
# 4 0.000000 0.000000 0.000000 0.074595 0.000000 0.000000
# 5 0.000000 0.000000 0.000000 0.000000 0.109279 0.000000
# 6 0.000000 0.000000 0.000000 0.000000 0.000000 0.027271
#
#
# Mechanical properties :
#
#
# Convention : Reuss Voigt Hill
#
# Bulk Modulus (GPa) = 33.89964 64.84114 49.37039
# Shear Modulus (GPa) = 16.23474 23.70592 19.97033
#
# Velocity S-wave (km/s) = 3.03510 3.66757 3.36622
# Velocity P-wave (km/s) = 5.61405 7.39774 6.56674
#
# Compressibility (1/GPa) = 0.02949884
#
# Stress axis : x y z
#
# Youngs Moduli (GPa) = 66.87439 76.49847 33.08435
#
# Poissons Ratio (x) = 0.70049 0.01029
# Poissons Ratio (y) = 0.61236 0.16239
# Poissons Ratio (z) = 0.02080 0.37548
#
# Static dielectric constant tensor:
#      x y z
#    x 1.589870 0.000000 0.000000 
#    y 0.000000 1.587160 0.000000 
#    z 0.000000 0.000000 1.622000 
# 
# From -- ./inp_files/27589.got.cif
#   From: 2010.05.17/outbox.cif.g08.bks.cpg/sg62_14_cif.got.tgz:27589.got - 2010.06.03 15:25:27.
