data_PCOD9461713
_publ_section_title
;
Structure prediction by ZEFSAII (Michael W. Deem and Ramdas Pophale) SiO2 
 PCOD9461713
Probable space group: P N M A
;
_chemical_formula_sum "Si O2"
_cell_formula_units_Z 56
_cell_length_a 14.525592
_cell_length_b 7.606907
_cell_length_c 21.784892
_cell_angle_alpha 90.000000
_cell_angle_beta 90.000000
_cell_angle_gamma 90.000000
_cell_volume 2407.117883
_symmetry_space_group_name_H-M "P N M A"
_symmetry_group_IT_number 62
_symmetry_cell_setting 'orthorhombic'
loop_
_space_group_symop_operation_xyz
x,y,z
1/2-x,-y,1/2+z
1/2+x,1/2-y,1/2-z
-x,1/2+y,-z
-x,-y,-z
1/2+x,y,1/2-z
1/2-x,1/2+y,1/2+z
x,1/2-y,z
loop_
_atom_site_type_symbol
_atom_site_label
_atom_site_fract_x
_atom_site_fract_y
_atom_site_fract_z
Si Si1 0.669600 0.965476 0.837303
Si Si2 0.036045 0.557657 0.564307
Si Si3 0.125394 0.540044 0.348981
Si Si4 0.782137 0.544622 0.061427
Si Si5 0.510800 0.538553 0.745053
Si Si6 0.515756 0.537041 0.604644
Si Si7 0.316155 0.965147 0.571838
O O1 0.668924 0.750000 0.832898
O O2 0.612203 0.036148 0.895938
O O3 0.604615 0.023120 0.780584
O O4 0.770732 0.013656 0.862068
O O5 0.075553 0.750000 0.554424
O O6 0.000000 0.500000 0.500000
O O7 0.948969 0.555120 0.608562
O O8 0.118153 0.750000 0.356439
O O9 0.222125 0.480674 0.379666
O O10 0.084079 0.505163 0.281324
O O11 0.759228 0.750000 0.057047
O O12 0.889382 0.525159 0.075748
O O13 0.768105 0.472984 0.991945
O O14 0.515042 0.750000 0.744846
O O15 0.511292 0.477320 0.675404
O O16 0.517062 0.750000 0.604019
O O17 0.422411 0.478833 0.571531
O O18 0.314159 0.750000 0.570364
#
# Coordination Sequence:
#
# PCOD9461713 Si02
#       7
#     8   8   8   8   8   8   8
#     4   8  15  29  49  71 100 135 169 209 262 321
#     4  10  18  29  48  75 107 142 178 221 272 327
#     4  10  20  34  53  77 105 142 183 222 268 324
#     4  10  21  36  54  76 105 141 181 223 272 324
#     4   9  19  35  54  81 110 137 173 220 273 327
#     4  10  21  35  55  80 105 138 181 224 268 317
#     4   9  17  32  53  76 102 137 179 221 266 320
#
# _framework density 23.264336
#
# number of rings (size 3 to 8) (size 9 to 14) (size 15 to 20)
#    0.000    2.571    0.000    3.000    0.000    5.143 
#    0.000    2.857    0.000    5.143    0.000    0.000 
#    0.000    0.000    0.000    0.000    0.000    0.000 
#
# Total GULP energy -311856.024569 kJ/mol
# GULP energy per Si atom -5568.857582 kJ/mol
# Density = 2.321139 g / cm^3
# Si number density = 23.264336 Si / 1000 Ang^3
#
#
#
# Elastic Constant Matrix: (Units=GPa)
#
#
# Indices 1 2 3 4 5 6 
#
# 1 90.7925 -12.7799 9.6312 0.0000 0.0000 0.0000
# 2 -12.7799 47.4145 0.2320 0.0000 0.0000 0.0000
# 3 9.6312 0.2320 110.4523 0.0000 0.0000 0.0000
# 4 0.0000 0.0000 0.0000 -15.0396 0.0000 0.0000
# 5 0.0000 0.0000 0.0000 0.0000 44.6153 0.0000
# 6 0.0000 0.0000 0.0000 0.0000 0.0000 14.8948
#
#
#
# Elastic Compliance Matrix: (Units=1/GPa)
#
#
# Indices 1 2 3 4 5 6 
#
# 1 0.011561 0.003121 -0.001015 0.000000 0.000000 0.000000
# 2 0.003121 0.021933 -0.000318 0.000000 0.000000 0.000000
# 3 -0.001015 -0.000318 0.009143 0.000000 0.000000 0.000000
# 4 0.000000 0.000000 0.000000 -0.066491 0.000000 0.000000
# 5 0.000000 0.000000 0.000000 0.000000 0.022414 0.000000
# 6 0.000000 0.000000 0.000000 0.000000 0.000000 0.067137
#
#
# Mechanical properties :
#
#
# Convention : Reuss Voigt Hill
#
# Bulk Modulus (GPa) = 21.63861 26.98067 24.30964
# Shear Modulus (GPa) = 64.49475 25.66583 45.08029
#
# Velocity S-wave (km/s) = 5.27094 3.32509 4.40676
# Velocity P-wave (km/s) = 6.80919 5.13461 6.03031
#
# Compressibility (1/GPa) = 0.04621368
#
# Stress axis : x y z
#
# Youngs Moduli (GPa) = 86.49705 45.59261 109.37540
#
# Poissons Ratio (x) = -0.14230 0.11098
# Poissons Ratio (y) = -0.26996 0.03481
# Poissons Ratio (z) = 0.08777 0.01451
#
# Static dielectric constant tensor:
#      x y z
#    x 1.919920 0.000000 0.000000 
#    y 0.000000 1.903930 0.000000 
#    z 0.000000 0.000000 1.923320 
# 
# From -- ./inp_files/27258.got.cif
#   From: 2010.05.17/outbox.cif.g08.bks.cpg/sg62_14_cif.got.tgz:27258.got - 2010.06.03 15:25:27.
