data_PCOD9461151
_publ_section_title
;
Structure prediction by ZEFSAII (Michael W. Deem and Ramdas Pophale) SiO2 
 PCOD9461151
Probable space group: P B C A
;
_chemical_formula_sum "Si O2"
_cell_formula_units_Z 44
_cell_length_a 8.088184
_cell_length_b 13.674378
_cell_length_c 15.541184
_cell_angle_alpha 90.000000
_cell_angle_beta 90.000000
_cell_angle_gamma 90.000000
_cell_volume 1718.868710
_symmetry_space_group_name_H-M "P B C A"
_symmetry_group_IT_number 61
_symmetry_cell_setting 'orthorhombic'
loop_
_space_group_symop_operation_xyz
x,y,z
1/2-x,-y,1/2+z
1/2+x,1/2-y,-z
-x,1/2+y,1/2-z
-x,-y,-z
1/2+x,y,1/2-z
1/2-x,1/2+y,z
x,1/2-y,1/2+z
loop_
_atom_site_type_symbol
_atom_site_label
_atom_site_fract_x
_atom_site_fract_y
_atom_site_fract_z
Si Si1 0.781248 0.271454 0.733624
Si Si2 0.721915 0.354216 0.925794
Si Si3 0.788086 0.642357 0.965365
Si Si4 0.496552 0.647638 0.831040
Si Si5 0.500000 0.500000 0.500000
Si Si6 0.388135 0.056015 0.383499
O O1 0.740154 0.315186 0.827797
O O2 0.625648 0.238883 0.677445
O O3 0.872911 0.355644 0.682753
O O4 0.884097 0.172723 0.751246
O O5 0.680720 0.256132 0.980068
O O6 0.882568 0.410371 0.957810
O O7 0.562972 0.424360 0.929954
O O8 0.621146 0.643896 0.911118
O O9 0.933218 0.579715 0.924315
O O10 0.764959 0.571449 0.049786
O O11 0.397745 0.547065 0.837064
#
# Coordination Sequence:
#
# PCOD9461151 Si02
#       6
#     8   8   8   8   4   8
#     4  11  27  48  75 111 164 206 267 351 415 510
#     4  11  26  49  75 117 156 216 276 342 423 507
#     4  11  27  47  76 115 154 209 274 340 418 502
#     4  11  26  49  73 112 157 211 271 335 426 506
#     4  12  26  48  82 110 164 212 276 352 420 520
#     4  12  26  47  76 110 159 206 270 333 420 512
#
# _framework density 25.598229
#
# number of rings (size 3 to 8) (size 9 to 14) (size 15 to 20)
#    0.000    0.727    3.636    1.636   10.182    1.455 
#    3.273    0.000    0.000    0.000    0.000    0.000 
#    0.000    0.000    0.000    0.000    0.000    0.000 
#
# Total GULP energy -245246.238940 kJ/mol
# GULP energy per Si atom -5573.778158 kJ/mol
# Density = 2.553997 g / cm^3
# Si number density = 25.598229 Si / 1000 Ang^3
#
#
#
# Elastic Constant Matrix: (Units=GPa)
#
#
# Indices 1 2 3 4 5 6 
#
# 1 60.9816 38.7436 8.3271 0.0000 0.0000 0.0000
# 2 38.7436 182.9137 32.8329 0.0000 0.0000 0.0000
# 3 8.3271 32.8329 83.8101 0.0000 0.0000 0.0000
# 4 0.0000 0.0000 0.0000 31.3302 0.0000 0.0000
# 5 0.0000 0.0000 0.0000 0.0000 38.7733 0.0000
# 6 0.0000 0.0000 0.0000 0.0000 0.0000 47.7376
#
#
#
# Elastic Compliance Matrix: (Units=1/GPa)
#
#
# Indices 1 2 3 4 5 6 
#
# 1 0.018957 -0.003955 -0.000334 0.000000 0.000000 0.000000
# 2 -0.003955 0.006706 -0.002234 0.000000 0.000000 0.000000
# 3 -0.000334 -0.002234 0.012840 0.000000 0.000000 0.000000
# 4 0.000000 0.000000 0.000000 0.031918 0.000000 0.000000
# 5 0.000000 0.000000 0.000000 0.000000 0.025791 0.000000
# 6 0.000000 0.000000 0.000000 0.000000 0.000000 0.020948
#
#
# Mechanical properties :
#
#
# Convention : Reuss Voigt Hill
#
# Bulk Modulus (GPa) = 39.28326 54.16808 46.72567
# Shear Modulus (GPa) = 36.05108 40.08834 38.06971
#
# Velocity S-wave (km/s) = 3.75686 3.96164 3.86061
# Velocity P-wave (km/s) = 5.84791 6.49099 6.17782
#
# Compressibility (1/GPa) = 0.02545614
#
# Stress axis : x y z
#
# Youngs Moduli (GPa) = 52.75097 149.12287 77.88088
#
# Poissons Ratio (x) = 0.58984 0.02601
# Poissons Ratio (y) = 0.20865 0.17399
# Poissons Ratio (z) = 0.01762 0.33315
#
# Static dielectric constant tensor:
#      x y z
#    x 0.829720 0.000000 0.000000 
#    y 0.000000 1.816660 0.000000 
#    z 0.000000 0.000000 2.197370 
# 
# From -- ./inp_files/8878.got.cif
#   From: 2010.05.17/outbox.cif.g08.bks.cpg/sg61_5_cif.got.tgz:8878.got - 2010.06.03 15:17:17.
