data_PCOD9461642
_publ_section_title
;
Structure prediction by ZEFSAII (Michael W. Deem and Ramdas Pophale) SiO2 
 PCOD9461642
Probable space group: P N M A
;
_chemical_formula_sum "Si O2"
_cell_formula_units_Z 56
_cell_length_a 15.706533
_cell_length_b 9.215780
_cell_length_c 21.955078
_cell_angle_alpha 90.000000
_cell_angle_beta 90.000000
_cell_angle_gamma 90.000000
_cell_volume 3177.952592
_symmetry_space_group_name_H-M "P N M A"
_symmetry_group_IT_number 62
_symmetry_cell_setting 'orthorhombic'
loop_
_space_group_symop_operation_xyz
x,y,z
1/2-x,-y,1/2+z
1/2+x,1/2-y,1/2-z
-x,1/2+y,-z
-x,-y,-z
1/2+x,y,1/2-z
1/2-x,1/2+y,1/2+z
x,1/2-y,z
loop_
_atom_site_type_symbol
_atom_site_label
_atom_site_fract_x
_atom_site_fract_y
_atom_site_fract_z
Si Si1 0.944103 0.923580 0.683524
Si Si2 0.264550 0.074550 0.807784
Si Si3 0.371994 0.083317 0.521967
Si Si4 0.004688 0.581537 0.904021
Si Si5 0.958950 0.083643 0.555986
Si Si6 0.757545 0.087114 0.550938
Si Si7 0.595829 0.576444 0.720342
O O1 0.929836 0.750000 0.677577
O O2 0.023488 0.946221 0.728832
O O3 0.856039 0.000378 0.705345
O O4 0.967509 0.995671 0.618851
O O5 0.270875 0.250000 0.802901
O O6 0.244849 0.038438 0.879119
O O7 0.184355 0.009289 0.771445
O O8 0.359663 0.250000 0.536867
O O9 0.431795 0.072534 0.461656
O O10 0.421204 0.004955 0.576362
O O11 0.285943 0.009996 0.499674
O O12 0.982661 0.750000 0.894672
O O13 0.052438 0.530060 0.843594
O O14 0.989946 0.250000 0.562103
O O15 0.858257 0.091050 0.543268
O O16 0.000000 0.000000 0.500000
O O17 0.721638 0.250000 0.545743
O O18 0.613973 0.750000 0.716799
#
# Coordination Sequence:
#
# PCOD9461642 Si02
#       7
#     8   8   8   8   8   8   8
#     4  10  21  37  59  84 112 145 185 230 276 333
#     4  10  20  34  55  81 109 143 184 231 279 328
#     4  10  18  28  47  75 104 137 175 215 257 306
#     4   9  18  31  47  71 107 141 172 213 257 309
#     4  10  21  38  59  83 108 138 178 225 278 327
#     4   9  18  32  51  76 105 137 175 218 266 320
#     4  10  20  36  57  81 108 146 188 225 273 329
#
# _framework density 17.621407999999999
#
# number of rings (size 3 to 8) (size 9 to 14) (size 15 to 20)
#    0.000    2.286    1.429    2.571    0.000    5.143 
#    0.000    1.429    0.000    3.429    0.000    0.000 
#    0.000    0.000    0.000    0.000    0.000    0.000 
#
# Total GULP energy -312192.902641 kJ/mol
# GULP energy per Si atom -5574.873261 kJ/mol
# Density = 1.758130 g / cm^3
# Si number density = 17.621408 Si / 1000 Ang^3
#
#
#
# Elastic Constant Matrix: (Units=GPa)
#
#
# Indices 1 2 3 4 5 6 
#
# 1 87.7810 55.0881 48.3115 0.0000 0.0000 0.0000
# 2 55.0881 81.9636 46.4272 0.0000 0.0000 0.0000
# 3 48.3115 46.4272 44.9619 0.0000 0.0000 0.0000
# 4 0.0000 0.0000 0.0000 21.8029 0.0000 0.0000
# 5 0.0000 0.0000 0.0000 0.0000 29.3490 0.0000
# 6 0.0000 0.0000 0.0000 0.0000 0.0000 31.7926
#
#
#
# Elastic Compliance Matrix: (Units=1/GPa)
#
#
# Indices 1 2 3 4 5 6 
#
# 1 0.028510 -0.004359 -0.026133 0.000000 0.000000 0.000000
# 2 -0.004359 0.030058 -0.026354 0.000000 0.000000 0.000000
# 3 -0.026133 -0.026354 0.077533 0.000000 0.000000 0.000000
# 4 0.000000 0.000000 0.000000 0.045865 0.000000 0.000000
# 5 0.000000 0.000000 0.000000 0.000000 0.034073 0.000000
# 6 0.000000 0.000000 0.000000 0.000000 0.000000 0.031454
#
#
# Mechanical properties :
#
#
# Convention : Reuss Voigt Hill
#
# Bulk Modulus (GPa) = 44.62289 57.15113 50.88701
# Shear Modulus (GPa) = 13.56279 20.91422 17.23850
#
# Velocity S-wave (km/s) = 2.77731 3.44883 3.13112
# Velocity P-wave (km/s) = 5.97183 6.95431 6.48171
#
# Compressibility (1/GPa) = 0.02241002
#
# Stress axis : x y z
#
# Youngs Moduli (GPa) = 35.07498 33.26899 12.89765
#
# Poissons Ratio (x) = 0.14503 0.33706
# Poissons Ratio (y) = 0.15290 0.33990
# Poissons Ratio (z) = 0.91662 0.87676
#
# Static dielectric constant tensor:
#      x y z
#    x 1.602710 0.000000 0.000000 
#    y 0.000000 1.611770 0.000000 
#    z 0.000000 0.000000 1.583890 
# 
# From -- ./inp_files/27266.got.cif
#   From: 2010.05.17/outbox.cif.g08.bks.cpg/sg62_14_cif.got.tgz:27266.got - 2010.06.03 15:25:27.
