data_PCOD9461508
_publ_section_title
;
Structure prediction by ZEFSAII (Michael W. Deem and Ramdas Pophale) SiO2 
 PCOD9461508
Probable space group: P N M A
;
_chemical_formula_sum "Si O2"
_cell_formula_units_Z 48
_cell_length_a 5.411257
_cell_length_b 15.569441
_cell_length_c 26.981270
_cell_angle_alpha 90.000000
_cell_angle_beta 90.000000
_cell_angle_gamma 90.000000
_cell_volume 2273.178651
_symmetry_space_group_name_H-M "P N M A"
_symmetry_group_IT_number 62
_symmetry_cell_setting 'orthorhombic'
loop_
_space_group_symop_operation_xyz
x,y,z
1/2-x,-y,1/2+z
1/2+x,1/2-y,1/2-z
-x,1/2+y,-z
-x,-y,-z
1/2+x,y,1/2-z
1/2-x,1/2+y,1/2+z
x,1/2-y,z
loop_
_atom_site_type_symbol
_atom_site_label
_atom_site_fract_x
_atom_site_fract_y
_atom_site_fract_z
Si Si1 0.750000 0.250000 0.563920
Si Si2 0.750000 0.845955 0.589882
Si Si3 0.250000 0.648685 0.281365
Si Si4 0.250000 0.529037 0.377152
Si Si5 0.750000 0.750000 0.430818
Si Si6 0.250000 0.379213 0.026914
Si Si7 0.750000 0.939133 0.439789
O O1 0.507179 0.250000 0.596643
O O2 0.750000 0.171958 0.524529
O O3 0.992821 0.250000 0.596643
O O4 0.750000 0.750000 0.610978
O O5 0.497458 0.855718 0.557579
O O6 0.002542 0.855718 0.557579
O O7 0.750000 0.925619 0.627699
O O8 0.500000 0.632879 0.250000
O O9 0.250000 0.750000 0.294213
O O10 0.250000 0.585804 0.328269
O O11 0.502965 0.549544 0.407091
O O12 0.997035 0.549544 0.407091
O O13 0.750000 0.840952 0.458869
O O14 0.250000 0.482659 0.021412
#
# Coordination Sequence:
#
# PCOD9461508 Si02
#       7
#     4   8   8   8   4   8   8
#     4  12  22  36  56  74 104 147 176 227 288 312
#     4  10  17  33  57  84 103 131 186 226 265 310
#     4  10  21  36  56  85 113 144 180 209 254 318
#     4  10  21  36  60  80 109 146 171 226 270 301
#     4  12  26  36  52  78 106 145 180 221 280 340
#     4  10  20  35  56  76 103 138 180 233 266 318
#     4  10  23  38  53  81 107 140 187 221 267 319
#
# _framework density 21.115807
#
# number of rings (size 3 to 8) (size 9 to 14) (size 15 to 20)
#    0.000    1.667    1.667    3.000    2.333    1.333 
#    0.000    0.000    0.000    1.000    0.000    0.000 
#    0.000    0.000    0.000    0.000    0.000    0.000 
#
# Total GULP energy -268095.402603 kJ/mol
# GULP energy per Si atom -5585.320888 kJ/mol
# Density = 2.106775 g / cm^3
# Si number density = 21.115807 Si / 1000 Ang^3
#
#
#
# Elastic Constant Matrix: (Units=GPa)
#
#
# Indices 1 2 3 4 5 6 
#
# 1 232.7627 31.4316 57.9530 0.0000 0.0000 0.0000
# 2 31.4316 238.4852 58.0648 0.0000 0.0000 0.0000
# 3 57.9530 58.0648 84.5939 0.0000 0.0000 0.0000
# 4 0.0000 0.0000 0.0000 20.0945 0.0000 0.0000
# 5 0.0000 0.0000 0.0000 0.0000 26.2997 0.0000
# 6 0.0000 0.0000 0.0000 0.0000 0.0000 22.1195
#
#
#
# Elastic Compliance Matrix: (Units=1/GPa)
#
#
# Indices 1 2 3 4 5 6 
#
# 1 0.005189 0.000218 -0.003705 0.000000 0.000000 0.000000
# 2 0.000218 0.005044 -0.003611 0.000000 0.000000 0.000000
# 3 -0.003705 -0.003611 0.016838 0.000000 0.000000 0.000000
# 4 0.000000 0.000000 0.000000 0.049765 0.000000 0.000000
# 5 0.000000 0.000000 0.000000 0.000000 0.038023 0.000000
# 6 0.000000 0.000000 0.000000 0.000000 0.000000 0.045209
#
#
# Mechanical properties :
#
#
# Convention : Reuss Voigt Hill
#
# Bulk Modulus (GPa) = 77.67025 94.52675 86.09850
# Shear Modulus (GPa) = 28.00252 40.92888 34.46570
#
# Velocity S-wave (km/s) = 3.64557 4.40740 4.04446
# Velocity P-wave (km/s) = 7.38804 8.41209 7.91664
#
# Compressibility (1/GPa) = 0.01287494
#
# Stress axis : x y z
#
# Youngs Moduli (GPa) = 192.70987 198.26894 59.38977
#
# Poissons Ratio (x) = -0.04324 0.22002
# Poissons Ratio (y) = -0.04202 0.21448
# Poissons Ratio (z) = 0.71392 0.71601
#
# Static dielectric constant tensor:
#      x y z
#    x 1.864170 0.000000 0.000000 
#    y 0.000000 1.845550 0.000000 
#    z 0.000000 0.000000 1.679260 
# 
# From -- ./inp_files/30437.got.cif
#   From: 2010.05.17/outbox.cif.g08.bks.cpg/sg62_16_cif.got.tgz:30437.got - 2010.06.03 15:25:27.
