data_PCOD9461489
_publ_section_title
;
Structure prediction by ZEFSAII (Michael W. Deem and Ramdas Pophale) SiO2 
 PCOD9461489
Probable space group: P N M A
;
_chemical_formula_sum "Si O2"
_cell_formula_units_Z 56
_cell_length_a 8.964403
_cell_length_b 24.018789
_cell_length_c 11.019112
_cell_angle_alpha 90.000000
_cell_angle_beta 90.000000
_cell_angle_gamma 90.000000
_cell_volume 2372.570229
_symmetry_space_group_name_H-M "P N M A"
_symmetry_group_IT_number 62
_symmetry_cell_setting 'orthorhombic'
loop_
_space_group_symop_operation_xyz
x,y,z
1/2-x,-y,1/2+z
1/2+x,1/2-y,1/2-z
-x,1/2+y,-z
-x,-y,-z
1/2+x,y,1/2-z
1/2-x,1/2+y,1/2+z
x,1/2-y,z
loop_
_atom_site_type_symbol
_atom_site_label
_atom_site_fract_x
_atom_site_fract_y
_atom_site_fract_z
Si Si1 0.979587 0.041622 0.887458
Si Si2 0.061289 0.164413 0.902042
Si Si3 0.738653 0.664299 0.544932
Si Si4 0.300010 0.955263 0.978553
Si Si5 0.700743 0.250000 0.425110
Si Si6 0.397980 0.250000 0.279338
Si Si7 0.086034 0.560650 0.376054
Si Si8 0.989605 0.313760 0.633764
O O1 0.064327 0.098517 0.916508
O O2 0.798764 0.048520 0.899672
O O3 0.994042 0.034968 0.743640
O O4 0.000000 0.000000 0.000000
O O5 0.892119 0.177484 0.947400
O O6 0.075997 0.182056 0.762964
O O7 0.168904 0.196685 0.992238
O O8 0.741918 0.599970 0.587225
O O9 0.687971 0.698438 0.660756
O O10 0.892089 0.679196 0.476406
O O11 0.469850 0.943453 0.013305
O O12 0.290632 0.014035 0.909721
O O13 0.567918 0.250000 0.323847
O O14 0.859750 0.250000 0.361304
O O15 0.106964 0.627702 0.359504
O O16 0.928013 0.250000 0.630639
#
# Coordination Sequence:
#
# PCOD9461489 Si02
#       8
#     8   8   8   8   4   4   8   8
#     4  10  21  34  58  83 110 144 188 229 278 340
#     4   9  19  36  54  82 110 147 179 230 289 332
#     4   9  18  34  57  78 108 150 189 219 284 344
#     4   9  19  37  57  79 114 148 182 233 280 335
#     4  10  20  37  60  76 120 149 195 232 281 336
#     4  10  20  35  58  82 108 157 195 236 271 348
#     4   9  20  35  55  83 113 145 186 229 282 336
#     4  10  17  31  58  85 107 135 183 233 282 341
#
# _framework density 23.603096000000001
#
# number of rings (size 3 to 8) (size 9 to 14) (size 15 to 20)
#    0.000    2.571    1.429    0.000    2.000    1.143 
#    2.571    1.429    9.429    0.000    0.000    0.000 
#    0.000    0.000    0.000    0.000    0.000    0.000 
#
# Total GULP energy -312134.130297 kJ/mol
# GULP energy per Si atom -5573.823755 kJ/mol
# Density = 2.354937 g / cm^3
# Si number density = 23.603096 Si / 1000 Ang^3
#
#
#
# Elastic Constant Matrix: (Units=GPa)
#
#
# Indices 1 2 3 4 5 6 
#
# 1 37.3531 28.8838 25.4475 0.0000 0.0000 0.0000
# 2 28.8838 159.4984 44.3378 0.0000 0.0000 0.0000
# 3 25.4475 44.3378 79.1897 0.0000 0.0000 0.0000
# 4 0.0000 0.0000 0.0000 25.3799 0.0000 0.0000
# 5 0.0000 0.0000 0.0000 0.0000 40.8902 0.0000
# 6 0.0000 0.0000 0.0000 0.0000 0.0000 34.5896
#
#
#
# Elastic Compliance Matrix: (Units=1/GPa)
#
#
# Indices 1 2 3 4 5 6 
#
# 1 0.036252 -0.003940 -0.009444 0.000000 0.000000 0.000000
# 2 -0.003940 0.007853 -0.003131 0.000000 0.000000 0.000000
# 3 -0.009444 -0.003131 0.017416 0.000000 0.000000 0.000000
# 4 0.000000 0.000000 0.000000 0.039401 0.000000 0.000000
# 5 0.000000 0.000000 0.000000 0.000000 0.024456 0.000000
# 6 0.000000 0.000000 0.000000 0.000000 0.000000 0.028910
#
#
# Mechanical properties :
#
#
# Convention : Reuss Voigt Hill
#
# Bulk Modulus (GPa) = 35.09760 52.59772 43.84766
# Shear Modulus (GPa) = 25.40466 31.99675 28.70070
#
# Velocity S-wave (km/s) = 3.28430 3.68586 3.49086
# Velocity P-wave (km/s) = 5.41150 6.35978 5.90471
#
# Compressibility (1/GPa) = 0.02849197
#
# Stress axis : x y z
#
# Youngs Moduli (GPa) = 27.58500 127.33181 57.41954
#
# Poissons Ratio (x) = 0.50165 0.54225
# Poissons Ratio (y) = 0.10868 0.17979
# Poissons Ratio (z) = 0.26050 0.39869
#
# Static dielectric constant tensor:
#      x y z
#    x 2.020740 0.000000 0.000000 
#    y 0.000000 1.938460 0.000000 
#    z 0.000000 0.000000 1.859590 
# 
# From -- ./inp_files/12527.got.cif
#   From: 2010.05.17/outbox.cif.g08.bks.cpg/sg62_7_cif.got.tgz:12527.got - 2010.06.03 15:25:27.
