data_PCOD9461015
_publ_section_title
;
Structure prediction by ZEFSAII (Michael W. Deem and Ramdas Pophale) SiO2 
 PCOD9461015
Probable space group: P B C A
;
_chemical_formula_sum "Si O2"
_cell_formula_units_Z 64
_cell_length_a 14.777623
_cell_length_b 18.008761
_cell_length_c 12.480117
_cell_angle_alpha 90.000000
_cell_angle_beta 90.000000
_cell_angle_gamma 90.000000
_cell_volume 3321.292113
_symmetry_space_group_name_H-M "P B C A"
_symmetry_group_IT_number 61
_symmetry_cell_setting 'orthorhombic'
loop_
_space_group_symop_operation_xyz
x,y,z
1/2-x,-y,1/2+z
1/2+x,1/2-y,-z
-x,1/2+y,1/2-z
-x,-y,-z
1/2+x,y,1/2-z
1/2-x,1/2+y,z
x,1/2-y,1/2+z
loop_
_atom_site_type_symbol
_atom_site_label
_atom_site_fract_x
_atom_site_fract_y
_atom_site_fract_z
Si Si1 0.445970 0.474128 0.393337
Si Si2 0.400855 0.935120 0.263868
Si Si3 0.978511 0.913125 0.010520
Si Si4 0.692441 0.144016 0.388322
Si Si5 0.823378 0.332276 0.091379
Si Si6 0.240199 0.050373 0.315418
Si Si7 0.282548 0.688285 0.684882
Si Si8 0.833887 0.334726 0.526017
O O1 0.500000 0.500000 0.500000
O O2 0.519438 0.478010 0.297859
O O3 0.405578 0.390577 0.403954
O O4 0.354751 0.519944 0.362957
O O5 0.441280 0.899689 0.370770
O O6 0.364920 0.869565 0.187780
O O7 0.317288 0.987331 0.300892
O O8 0.904509 0.883498 0.928120
O O9 0.071047 0.872116 0.992047
O O10 0.000000 0.000000 0.000000
O O11 0.757510 0.145489 0.492596
O O12 0.726309 0.085653 0.301071
O O13 0.690617 0.225819 0.334126
O O14 0.769445 0.327381 0.203602
O O15 0.850538 0.247969 0.067985
O O16 0.277262 0.114937 0.392182
O O17 0.218747 0.668934 0.585702
#
# Coordination Sequence:
#
# PCOD9461015 Si02
#       8
#     8   8   8   8   8   8   8   8
#     4  12  26  45  71 108 139 185 237 291 355 421
#     4  12  25  43  72  99 140 182 229 292 351 418
#     4  12  24  42  67 104 135 178 235 284 345 419
#     4  11  25  43  71  98 138 185 230 289 351 420
#     4  11  23  50  67  97 140 182 231 288 350 423
#     4  12  24  45  70 103 142 179 231 291 349 418
#     4  11  23  46  70  94 136 182 230 281 356 418
#     4  11  26  43  70  99 134 183 226 285 348 415
#
# _framework density 19.269608999999999
#
# number of rings (size 3 to 8) (size 9 to 14) (size 15 to 20)
#    0.000    0.500    5.000    3.000    3.500    0.000 
#    2.250    0.000    0.000    0.000    0.000    0.000 
#    0.000    0.000    0.000    0.000    0.000    0.000 
#
# Total GULP energy -357772.063775 kJ/mol
# GULP energy per Si atom -5590.188496 kJ/mol
# Density = 1.922575 g / cm^3
# Si number density = 19.269609 Si / 1000 Ang^3
#
#
#
# Elastic Constant Matrix: (Units=GPa)
#
#
# Indices 1 2 3 4 5 6 
#
# 1 127.1862 64.0053 43.0093 0.0000 0.0000 0.0000
# 2 64.0053 101.8251 47.9815 0.0000 0.0000 0.0000
# 3 43.0093 47.9815 109.5830 0.0000 0.0000 0.0000
# 4 0.0000 0.0000 0.0000 31.8336 0.0000 0.0000
# 5 0.0000 0.0000 0.0000 0.0000 29.7765 0.0000
# 6 0.0000 0.0000 0.0000 0.0000 0.0000 43.3679
#
#
#
# Elastic Compliance Matrix: (Units=1/GPa)
#
#
# Indices 1 2 3 4 5 6 
#
# 1 0.011757 -0.006572 -0.001737 0.000000 0.000000 0.000000
# 2 -0.006572 0.016047 -0.004447 0.000000 0.000000 0.000000
# 3 -0.001737 -0.004447 0.011754 0.000000 0.000000 0.000000
# 4 0.000000 0.000000 0.000000 0.031413 0.000000 0.000000
# 5 0.000000 0.000000 0.000000 0.000000 0.033584 0.000000
# 6 0.000000 0.000000 0.000000 0.000000 0.000000 0.023059
#
#
# Mechanical properties :
#
#
# Convention : Reuss Voigt Hill
#
# Bulk Modulus (GPa) = 71.18915 72.06517 71.62716
# Shear Modulus (GPa) = 31.68410 33.23547 32.45978
#
# Velocity S-wave (km/s) = 4.05934 4.15753 4.10873
# Velocity P-wave (km/s) = 7.68081 7.77986 7.73050
#
# Compressibility (1/GPa) = 0.01404709
#
# Stress axis : x y z
#
# Youngs Moduli (GPa) = 85.05550 62.31632 85.07471
#
# Poissons Ratio (x) = 0.40953 0.14777
# Poissons Ratio (y) = 0.55897 0.37833
# Poissons Ratio (z) = 0.14774 0.27712
#
# Static dielectric constant tensor:
#      x y z
#    x 1.664540 0.000000 0.000000 
#    y 0.000000 1.673330 0.000000 
#    z 0.000000 0.000000 1.605110 
# 
# From -- ./inp_files/5977.got.cif
#   From: 2010.05.17/outbox.cif.g08.bks.cpg/sg61_3_cif.got.tgz:5977.got - 2010.06.03 15:17:17.
