data_PCOD9461687
_publ_section_title
;
Structure prediction by ZEFSAII (Michael W. Deem and Ramdas Pophale) SiO2 
 PCOD9461687
Probable space group: P N M A
;
_chemical_formula_sum "Si O2"
_cell_formula_units_Z 56
_cell_length_a 18.898547
_cell_length_b 8.765908
_cell_length_c 21.190193
_cell_angle_alpha 90.000000
_cell_angle_beta 90.000000
_cell_angle_gamma 90.000000
_cell_volume 3510.429340
_symmetry_space_group_name_H-M "P N M A"
_symmetry_group_IT_number 62
_symmetry_cell_setting 'orthorhombic'
loop_
_space_group_symop_operation_xyz
x,y,z
1/2-x,-y,1/2+z
1/2+x,1/2-y,1/2-z
-x,1/2+y,-z
-x,-y,-z
1/2+x,y,1/2-z
1/2-x,1/2+y,1/2+z
x,1/2-y,z
loop_
_atom_site_type_symbol
_atom_site_label
_atom_site_fract_x
_atom_site_fract_y
_atom_site_fract_z
Si Si1 0.295985 0.425358 0.819172
Si Si2 0.653423 0.434868 0.624054
Si Si3 0.216573 0.073306 0.683218
Si Si4 0.350305 0.566952 0.624012
Si Si5 0.921010 0.067341 0.000525
Si Si6 0.586309 0.933921 0.751888
Si Si7 0.075228 0.067405 0.255484
O O1 0.311758 0.250000 0.834157
O O2 0.235851 0.482392 0.867182
O O3 0.255433 0.429760 0.751648
O O4 0.368969 0.511404 0.807476
O O5 0.650915 0.250000 0.625406
O O6 0.619687 0.499692 0.560836
O O7 0.610964 0.499029 0.684440
O O8 0.209102 0.250000 0.664773
O O9 0.269893 0.984727 0.637445
O O10 0.141296 0.995646 0.696201
O O11 0.354290 0.750000 0.617573
O O12 0.382026 0.486741 0.562923
O O13 0.395619 0.520604 0.686254
O O14 0.923653 0.250000 0.004120
O O15 0.000000 0.000000 0.000000
O O16 0.590009 0.750000 0.749156
O O17 0.505524 0.982335 0.764385
O O18 0.076016 0.250000 0.255764
#
# Coordination Sequence:
#
# PCOD9461687 Si02
#       7
#     8   8   8   8   8   8   8
#     4   8  16  29  46  66  90 119 153 191 234 278
#     4  10  20  34  49  68  94 126 162 200 237 281
#     4   9  17  30  46  67  93 124 160 197 237 284
#     4  10  19  33  50  69  95 128 162 199 238 280
#     4  12  24  36  50  70  96 129 164 198 233 277
#     4  10  18  29  46  71  99 127 158 196 240 285
#     4   9  18  29  45  69  96 123 154 191 235 281
#
# _framework density 15.952465
#
# number of rings (size 3 to 8) (size 9 to 14) (size 15 to 20)
#    0.000    2.286    0.000    4.714    0.000    6.857 
#    0.000    0.000    0.000    0.000    0.000    1.000 
#    0.000    0.000    0.000    0.000    0.000    0.000 
#
# Total GULP energy -312234.932680 kJ/mol
# GULP energy per Si atom -5575.623798 kJ/mol
# Density = 1.591616 g / cm^3
# Si number density = 15.952465 Si / 1000 Ang^3
#
#
#
# Elastic Constant Matrix: (Units=GPa)
#
#
# Indices 1 2 3 4 5 6 
#
# 1 165.5670 49.4427 59.8278 0.0000 0.0000 0.0000
# 2 49.4427 71.1144 26.6279 0.0000 0.0000 0.0000
# 3 59.8278 26.6279 65.0772 0.0000 0.0000 0.0000
# 4 0.0000 0.0000 0.0000 24.0714 0.0000 0.0000
# 5 0.0000 0.0000 0.0000 0.0000 25.1700 0.0000
# 6 0.0000 0.0000 0.0000 0.0000 0.0000 28.3588
#
#
#
# Elastic Compliance Matrix: (Units=1/GPa)
#
#
# Indices 1 2 3 4 5 6 
#
# 1 0.009978 -0.004136 -0.007481 0.000000 0.000000 0.000000
# 2 -0.004136 0.018321 -0.003694 0.000000 0.000000 0.000000
# 3 -0.007481 -0.003694 0.023755 0.000000 0.000000 0.000000
# 4 0.000000 0.000000 0.000000 0.041543 0.000000 0.000000
# 5 0.000000 0.000000 0.000000 0.000000 0.039730 0.000000
# 6 0.000000 0.000000 0.000000 0.000000 0.000000 0.035262
#
#
# Mechanical properties :
#
#
# Convention : Reuss Voigt Hill
#
# Bulk Modulus (GPa) = 46.65849 63.72838 55.19343
# Shear Modulus (GPa) = 24.23001 26.57738 25.40369
#
# Velocity S-wave (km/s) = 3.90152 4.08614 3.99490
# Velocity P-wave (km/s) = 7.04328 7.89289 7.48015
#
# Compressibility (1/GPa) = 0.02143232
#
# Stress axis : x y z
#
# Youngs Moduli (GPa) = 100.21735 54.58298 42.09604
#
# Poissons Ratio (x) = 0.22577 0.31492
# Poissons Ratio (y) = 0.41453 0.15549
# Poissons Ratio (z) = 0.74972 0.20161
#
# Static dielectric constant tensor:
#      x y z
#    x 1.545510 0.000000 0.000000 
#    y 0.000000 1.535250 0.000000 
#    z 0.000000 0.000000 1.511010 
# 
# From -- ./inp_files/27518.got.cif
#   From: 2010.05.17/outbox.cif.g08.bks.cpg/sg62_14_cif.got.tgz:27518.got - 2010.06.03 15:25:27.
