data_PCOD9461535
_publ_section_title
;
Structure prediction by ZEFSAII (Michael W. Deem and Ramdas Pophale) SiO2 
 PCOD9461535
Probable space group: P N M A
;
_chemical_formula_sum "Si O2"
_cell_formula_units_Z 64
_cell_length_a 22.985175
_cell_length_b 14.169815
_cell_length_c 7.872350
_cell_angle_alpha 90.000000
_cell_angle_beta 90.000000
_cell_angle_gamma 90.000000
_cell_volume 2563.990367
_symmetry_space_group_name_H-M "P N M A"
_symmetry_group_IT_number 62
_symmetry_cell_setting 'orthorhombic'
loop_
_space_group_symop_operation_xyz
x,y,z
1/2-x,-y,1/2+z
1/2+x,1/2-y,1/2-z
-x,1/2+y,-z
-x,-y,-z
1/2+x,y,1/2-z
1/2-x,1/2+y,1/2+z
x,1/2-y,z
loop_
_atom_site_type_symbol
_atom_site_label
_atom_site_fract_x
_atom_site_fract_y
_atom_site_fract_z
Si Si1 0.478619 0.393836 0.465137
Si Si2 0.784610 0.361014 0.914861
Si Si3 0.406924 0.108541 0.773761
Si Si4 0.583271 0.116939 0.248618
Si Si5 0.395761 0.996706 0.262528
Si Si6 0.320665 0.855062 0.506862
Si Si7 0.719946 0.954181 0.800736
Si Si8 0.019043 0.148795 0.598314
O O1 0.500000 0.500000 0.500000
O O2 0.452778 0.353311 0.634064
O O3 0.535253 0.351378 0.384928
O O4 0.423247 0.410758 0.346153
O O5 0.766422 0.250000 0.923738
O O6 0.844835 0.361855 0.803433
O O7 0.746605 0.439432 0.812883
O O8 0.784463 0.404432 0.111436
O O9 0.449222 0.135971 0.931827
O O10 0.409138 0.995848 0.762278
O O11 0.644612 0.151117 0.314813
O O12 0.554907 0.147718 0.075680
O O13 0.359350 0.928823 0.394426
O O14 0.449531 0.937374 0.193022
O O15 0.345995 0.030889 0.134595
O O16 0.317406 0.750000 0.430496
O O17 0.258548 0.893707 0.569331
O O18 0.033302 0.250000 0.676317
#
# Coordination Sequence:
#
# PCOD9461535 Si02
#       8
#     8   8   8   8   8   8   8   8
#     4  10  17  38  71  97 128 175 234 274 353 423
#     4  12  27  49  77 106 142 195 247 299 372 438
#     4  11  20  45  72  98 136 188 231 292 360 434
#     4  11  21  40  67  99 138 185 227 290 364 420
#     4  12  23  42  70  97 133 186 231 287 362 429
#     4  12  24  44  70  97 137 186 241 297 357 429
#     4  12  25  49  70 102 144 187 246 308 360 422
#     4  12  26  39  63 107 144 178 233 292 357 439
#
# _framework density 24.961093000000002
#
# number of rings (size 3 to 8) (size 9 to 14) (size 15 to 20)
#    0.000    0.500    8.750    1.875    1.750    1.000 
#    0.000    1.875    0.000    0.000    0.000    0.000 
#    0.000    0.000    0.000    0.000    0.000    0.000 
#
# Total GULP energy -356880.820174 kJ/mol
# GULP energy per Si atom -5576.262815 kJ/mol
# Density = 2.490428 g / cm^3
# Si number density = 24.961093 Si / 1000 Ang^3
#
#
#
# Elastic Constant Matrix: (Units=GPa)
#
#
# Indices 1 2 3 4 5 6 
#
# 1 109.3927 4.0269 -0.5661 0.0000 0.0000 0.0000
# 2 4.0269 153.7045 4.8035 0.0000 0.0000 0.0000
# 3 -0.5661 4.8035 56.0961 0.0000 0.0000 0.0000
# 4 0.0000 0.0000 0.0000 -41.1934 0.0000 0.0000
# 5 0.0000 0.0000 0.0000 0.0000 39.7367 0.0000
# 6 0.0000 0.0000 0.0000 0.0000 0.0000 -22.4288
#
#
#
# Elastic Compliance Matrix: (Units=1/GPa)
#
#
# Indices 1 2 3 4 5 6 
#
# 1 0.009151 -0.000243 0.000113 0.000000 0.000000 0.000000
# 2 -0.000243 0.006530 -0.000562 0.000000 0.000000 0.000000
# 3 0.000113 -0.000562 0.017876 0.000000 0.000000 0.000000
# 4 0.000000 0.000000 0.000000 -0.024276 0.000000 0.000000
# 5 0.000000 0.000000 0.000000 0.000000 0.025166 0.000000
# 6 0.000000 0.000000 0.000000 0.000000 0.000000 -0.044586
#
#
# Mechanical properties :
#
#
# Convention : Reuss Voigt Hill
#
# Bulk Modulus (GPa) = 31.08178 37.30243 34.19210
# Shear Modulus (GPa) = 2539.62081 15.95151 1277.78616
#
# Velocity S-wave (km/s) = 31.93181 2.53070 22.65000
# Velocity P-wave (km/s) = 37.04052 4.84932 26.41511
#
# Compressibility (1/GPa) = 0.03217319
#
# Stress axis : x y z
#
# Youngs Moduli (GPa) = 109.27865 153.14138 55.94161
#
# Poissons Ratio (x) = 0.03726 -0.00633
# Poissons Ratio (y) = 0.02659 0.03142
# Poissons Ratio (z) = -0.01237 0.08601
#
# Static dielectric constant tensor:
#      x y z
#    x 2.043350 0.000000 0.000000 
#    y 0.000000 2.095620 0.000000 
#    z 0.000000 0.000000 2.185670 
# 
# From -- ./inp_files/9513.got.cif
#   From: 2010.05.17/outbox.cif.g08.bks.cpg/sg62_5_cif.got.tgz:9513.got - 2010.06.03 15:25:27.
