data_PCOD9461931
_publ_section_title
;
Structure prediction by ZEFSAII (Michael W. Deem and Ramdas Pophale) SiO2 
 PCOD9461931
Probable space group: P N M A
;
_chemical_formula_sum "Si O2"
_cell_formula_units_Z 64
_cell_length_a 8.140779
_cell_length_b 17.170111
_cell_length_c 21.075213
_cell_angle_alpha 90.000000
_cell_angle_beta 90.000000
_cell_angle_gamma 90.000000
_cell_volume 2945.852789
_symmetry_space_group_name_H-M "P N M A"
_symmetry_group_IT_number 62
_symmetry_cell_setting 'orthorhombic'
loop_
_space_group_symop_operation_xyz
x,y,z
1/2-x,-y,1/2+z
1/2+x,1/2-y,1/2-z
-x,1/2+y,-z
-x,-y,-z
1/2+x,y,1/2-z
1/2-x,1/2+y,1/2+z
x,1/2-y,z
loop_
_atom_site_type_symbol
_atom_site_label
_atom_site_fract_x
_atom_site_fract_y
_atom_site_fract_z
Si Si1 0.439093 0.835788 0.985436
Si Si2 0.756554 0.336120 0.887954
Si Si3 0.591832 0.832667 0.188457
Si Si4 0.963066 0.504139 0.723567
Si Si5 0.712489 0.447444 0.103901
Si Si6 0.256679 0.871624 0.433858
Si Si7 0.034801 0.079833 0.037659
Si Si8 0.812734 0.505781 0.847757
O O1 0.423634 0.750000 0.956415
O O2 0.428383 0.904065 0.935138
O O3 0.605204 0.840946 0.025180
O O4 0.298958 0.845268 0.039070
O O5 0.832378 0.250000 0.879527
O O6 0.583401 0.334531 0.848542
O O7 0.844800 0.415868 0.868313
O O8 0.603453 0.750000 0.223480
O O9 0.593170 0.913160 0.225774
O O10 0.736093 0.835528 0.135694
O O11 0.837016 0.548092 0.677032
O O12 0.947776 0.530680 0.795766
O O13 0.138496 0.508933 0.688690
O O14 0.876168 0.403605 0.080560
O O15 0.727834 0.536627 0.080454
O O16 0.409125 0.862747 0.481572
O O17 0.174581 0.058158 0.089372
O O18 0.000000 0.000000 0.000000
#
# Coordination Sequence:
#
# PCOD9461931 Si02
#       8
#     8   8   8   8   8   8   8   8
#     4  10  18  31  53  80 107 139 175 214 263 324
#     4   8  15  27  46  71 103 139 174 212 257 304
#     4   8  15  29  47  72 105 142 179 214 252 307
#     4  10  21  33  53  75 104 144 184 223 269 320
#     4  10  19  33  50  74 104 137 175 216 262 314
#     4   9  16  29  51  77 104 137 174 217 262 305
#     4  10  20  32  52  77 106 136 173 227 275 313
#     4  11  20  34  51  76 105 138 183 229 268 323
#
# _framework density 21.725458
#
# number of rings (size 3 to 8) (size 9 to 14) (size 15 to 20)
#    0.000    2.500    0.000    5.250    0.000    0.500 
#    0.000    1.250    0.000   17.250    0.000    8.750 
#    0.000    0.000    0.000    0.000    0.000    0.000 
#
# Total GULP energy -357037.391418 kJ/mol
# GULP energy per Si atom -5578.709241 kJ/mol
# Density = 2.167601 g / cm^3
# Si number density = 21.725458 Si / 1000 Ang^3
#
#
#
# Elastic Constant Matrix: (Units=GPa)
#
#
# Indices 1 2 3 4 5 6 
#
# 1 68.2343 -8.5435 12.4690 0.0000 0.0000 0.0000
# 2 -8.5435 13.1063 -2.3204 0.0000 0.0000 0.0000
# 3 12.4690 -2.3204 74.8219 0.0000 0.0000 0.0000
# 4 0.0000 0.0000 0.0000 4.2102 0.0000 0.0000
# 5 0.0000 0.0000 0.0000 0.0000 28.1506 0.0000
# 6 0.0000 0.0000 0.0000 0.0000 0.0000 -7.4350
#
#
#
# Elastic Compliance Matrix: (Units=1/GPa)
#
#
# Indices 1 2 3 4 5 6 
#
# 1 0.016380 0.010250 -0.002412 0.000000 0.000000 0.000000
# 2 0.010250 0.083135 0.000870 0.000000 0.000000 0.000000
# 3 -0.002412 0.000870 0.013794 0.000000 0.000000 0.000000
# 4 0.000000 0.000000 0.000000 0.237518 0.000000 0.000000
# 5 0.000000 0.000000 0.000000 0.000000 0.035523 0.000000
# 6 0.000000 0.000000 0.000000 0.000000 0.000000 -0.134499
#
#
# Mechanical properties :
#
#
# Convention : Reuss Voigt Hill
#
# Bulk Modulus (GPa) = 7.64963 17.70808 12.67885
# Shear Modulus (GPa) = 17.98503 15.28898 16.63701
#
# Velocity S-wave (km/s) = 2.88033 2.65568 2.77028
# Velocity P-wave (km/s) = 3.81974 4.19190 4.01014
#
# Compressibility (1/GPa) = 0.13072535
#
# Stress axis : x y z
#
# Youngs Moduli (GPa) = 61.05189 12.02863 72.49541
#
# Poissons Ratio (x) = -0.12330 0.17484
# Poissons Ratio (y) = -0.62579 -0.06307
# Poissons Ratio (z) = 0.14724 -0.01047
#
# Static dielectric constant tensor:
#      x y z
#    x 1.944520 0.000000 0.000000 
#    y 0.000000 1.797550 0.000000 
#    z 0.000000 0.000000 1.793860 
# 
# From -- ./inp_files/26205.got.cif
#   From: 2010.05.17/outbox.cif.g08.bks.cpg/sg62_14_cif.got.tgz:26205.got - 2010.06.03 15:25:27.
