data_PCOD9461616
_publ_section_title
;
Structure prediction by ZEFSAII (Michael W. Deem and Ramdas Pophale) SiO2 
 PCOD9461616
Probable space group: P N M A
;
_chemical_formula_sum "Si O2"
_cell_formula_units_Z 56
_cell_length_a 13.302572
_cell_length_b 12.807201
_cell_length_c 22.597181
_cell_angle_alpha 90.000000
_cell_angle_beta 90.000000
_cell_angle_gamma 90.000000
_cell_volume 3849.852654
_symmetry_space_group_name_H-M "P N M A"
_symmetry_group_IT_number 62
_symmetry_cell_setting 'orthorhombic'
loop_
_space_group_symop_operation_xyz
x,y,z
1/2-x,-y,1/2+z
1/2+x,1/2-y,1/2-z
-x,1/2+y,-z
-x,-y,-z
1/2+x,y,1/2-z
1/2-x,1/2+y,1/2+z
x,1/2-y,z
loop_
_atom_site_type_symbol
_atom_site_label
_atom_site_fract_x
_atom_site_fract_y
_atom_site_fract_z
Si Si1 0.859876 0.532895 0.178477
Si Si2 0.745925 0.125504 0.853680
Si Si3 0.412571 0.875017 0.446771
Si Si4 0.847161 0.014496 0.742680
Si Si5 0.460909 0.626990 0.671080
Si Si6 0.620522 0.501642 0.438682
Si Si7 0.042104 0.371332 0.708071
O O1 0.864028 0.588637 0.115129
O O2 0.749882 0.503308 0.201674
O O3 0.909621 0.609495 0.227123
O O4 0.933073 0.432770 0.177498
O O5 0.753374 0.250000 0.860502
O O6 0.814179 0.090074 0.797443
O O7 0.631164 0.097786 0.836827
O O8 0.787205 0.064595 0.910420
O O9 0.408296 0.750000 0.453775
O O10 0.363256 0.939298 0.500752
O O11 0.528243 0.916381 0.445711
O O12 0.939944 0.063908 0.707197
O O13 0.889098 0.912014 0.775627
O O14 0.471723 0.750000 0.669960
O O15 0.414161 0.582408 0.610446
O O16 0.019964 0.250000 0.699773
#
# Coordination Sequence:
#
# PCOD9461616 Si02
#       7
#     8   8   8   8   8   8   8
#     4   9  18  29  42  65  91 112 140 177 216 255
#     4   9  16  27  44  64  88 116 142 173 216 258
#     4  10  18  28  44  64  87 115 145 179 221 264
#     4   9  17  28  43  66  91 111 139 179 217 255
#     4   9  17  29  44  61  85 117 148 176 210 256
#     4   9  18  29  42  63  89 114 146 182 216 256
#     4   9  16  26  43  66  89 113 140 171 212 261
#
# _framework density 14.546011
#
# number of rings (size 3 to 8) (size 9 to 14) (size 15 to 20)
#    0.000    2.857    0.000    2.571    0.000    2.286 
#    0.000    0.714    0.000    1.714    0.000    0.000 
#    0.000    0.000    0.000    0.000    0.000    0.000 
#
# Total GULP energy -311879.578655 kJ/mol
# GULP energy per Si atom -5569.278190 kJ/mol
# Density = 1.451290 g / cm^3
# Si number density = 14.546011 Si / 1000 Ang^3
#
#
#
# Elastic Constant Matrix: (Units=GPa)
#
#
# Indices 1 2 3 4 5 6 
#
# 1 69.1592 25.5686 37.3340 0.0000 0.0000 0.0000
# 2 25.5686 83.3319 33.2502 0.0000 0.0000 0.0000
# 3 37.3340 33.2502 83.2610 0.0000 0.0000 0.0000
# 4 0.0000 0.0000 0.0000 12.8996 0.0000 0.0000
# 5 0.0000 0.0000 0.0000 0.0000 22.3918 0.0000
# 6 0.0000 0.0000 0.0000 0.0000 0.0000 8.0383
#
#
#
# Elastic Compliance Matrix: (Units=1/GPa)
#
#
# Indices 1 2 3 4 5 6 
#
# 1 0.019686 -0.002995 -0.007631 0.000000 0.000000 0.000000
# 2 -0.002995 0.014731 -0.004539 0.000000 0.000000 0.000000
# 3 -0.007631 -0.004539 0.017245 0.000000 0.000000 0.000000
# 4 0.000000 0.000000 0.000000 0.077522 0.000000 0.000000
# 5 0.000000 0.000000 0.000000 0.000000 0.044659 0.000000
# 6 0.000000 0.000000 0.000000 0.000000 0.000000 0.124404
#
#
# Mechanical properties :
#
#
# Convention : Reuss Voigt Hill
#
# Bulk Modulus (GPa) = 46.88254 47.56195 47.22225
# Shear Modulus (GPa) = 14.89474 17.97258 16.43366
#
# Velocity S-wave (km/s) = 3.20343 3.51888 3.36485
# Velocity P-wave (km/s) = 6.78108 7.01987 6.90151
#
# Compressibility (1/GPa) = 0.02132990
#
# Stress axis : x y z
#
# Youngs Moduli (GPa) = 50.79689 67.88591 57.98787
#
# Poissons Ratio (x) = 0.20335 0.44251
# Poissons Ratio (y) = 0.15216 0.26324
# Poissons Ratio (z) = 0.38763 0.30817
#
# Static dielectric constant tensor:
#      x y z
#    x 1.479400 0.000000 0.000000 
#    y 0.000000 1.460390 0.000000 
#    z 0.000000 0.000000 1.478970 
# 
# From -- ./inp_files/26593.got.cif
#   From: 2010.05.17/outbox.cif.g08.bks.cpg/sg62_14_cif.got.tgz:26593.got - 2010.06.03 15:25:27.
