data_PCOD9461691
_publ_section_title
;
Structure prediction by ZEFSAII (Michael W. Deem and Ramdas Pophale) SiO2 
 PCOD9461691
Probable space group: P N M A
;
_chemical_formula_sum "Si O2"
_cell_formula_units_Z 64
_cell_length_a 31.753354
_cell_length_b 7.590897
_cell_length_c 15.108395
_cell_angle_alpha 90.000000
_cell_angle_beta 90.000000
_cell_angle_gamma 90.000000
_cell_volume 3641.673739
_symmetry_space_group_name_H-M "P N M A"
_symmetry_group_IT_number 62
_symmetry_cell_setting 'orthorhombic'
loop_
_space_group_symop_operation_xyz
x,y,z
1/2-x,-y,1/2+z
1/2+x,1/2-y,1/2-z
-x,1/2+y,-z
-x,-y,-z
1/2+x,y,1/2-z
1/2-x,1/2+y,1/2+z
x,1/2-y,z
loop_
_atom_site_type_symbol
_atom_site_label
_atom_site_fract_x
_atom_site_fract_y
_atom_site_fract_z
Si Si1 0.322412 0.464215 0.998892
Si Si2 0.549160 0.539775 0.899566
Si Si3 0.046557 0.537832 0.397291
Si Si4 0.709235 0.459809 0.300005
Si Si5 0.207284 0.539814 0.805785
Si Si6 0.131609 0.537698 0.321731
Si Si7 0.866857 0.035371 0.318127
Si Si8 0.773479 0.537598 0.996163
O O1 0.322217 0.250000 0.996577
O O2 0.344686 0.512349 0.089472
O O3 0.274647 0.524901 0.997205
O O4 0.346891 0.524520 0.912748
O O5 0.555040 0.750000 0.905687
O O6 0.501132 0.507124 0.872215
O O7 0.585039 0.474319 0.832235
O O8 0.554034 0.472762 0.001255
O O9 0.048986 0.750000 0.401339
O O10 0.083219 0.476949 0.330662
O O11 0.715488 0.250000 0.304640
O O12 0.749040 0.527820 0.240554
O O13 0.664089 0.488643 0.254878
O O14 0.709815 0.526756 0.401167
O O15 0.208054 0.750000 0.792169
O O16 0.165056 0.471829 0.757592
O O17 0.205748 0.509317 0.910606
O O18 0.130788 0.750000 0.321914
O O19 0.867927 0.250000 0.310848
O O20 0.773331 0.750000 0.992794
#
# Coordination Sequence:
#
# PCOD9461691 Si02
#       8
#     8   8   8   8   8   8   8   8
#     4   9  14  24  44  65  87 120 157 183 209 260
#     4   9  16  27  45  66  89 120 153 183 219 269
#     4   9  17  28  43  66  93 119 149 185 225 268
#     4  10  20  31  45  67  93 121 153 190 228 263
#     4  10  19  30  46  68  91 117 154 195 224 254
#     4  10  18  29  47  67  89 124 161 186 216 267
#     4   9  15  27  46  66  89 122 159 184 214 267
#     4  10  19  32  47  63  90 126 157 186 224 268
#
# _framework density 17.574337
#
# number of rings (size 3 to 8) (size 9 to 14) (size 15 to 20)
#    0.000    2.500    3.750    0.000    0.000    1.000 
#    0.000    0.625    0.000    1.500    0.000    0.875 
#    0.000    0.000    0.000    0.000    0.000    0.000 
#
# Total GULP energy -356601.182997 kJ/mol
# GULP energy per Si atom -5571.893484 kJ/mol
# Density = 1.753434 g / cm^3
# Si number density = 17.574337 Si / 1000 Ang^3
#
#
#
# Elastic Constant Matrix: (Units=GPa)
#
#
# Indices 1 2 3 4 5 6 
#
# 1 140.6179 2.5584 74.4555 0.0000 0.0000 0.0000
# 2 2.5584 35.5019 0.1562 0.0000 0.0000 0.0000
# 3 74.4555 0.1562 113.9090 0.0000 0.0000 0.0000
# 4 0.0000 0.0000 0.0000 12.4151 0.0000 0.0000
# 5 0.0000 0.0000 0.0000 0.0000 16.3895 0.0000
# 6 0.0000 0.0000 0.0000 0.0000 0.0000 14.9809
#
#
#
# Elastic Compliance Matrix: (Units=1/GPa)
#
#
# Indices 1 2 3 4 5 6 
#
# 1 0.010896 -0.000754 -0.007121 0.000000 0.000000 0.000000
# 2 -0.000754 0.028220 0.000454 0.000000 0.000000 0.000000
# 3 -0.007121 0.000454 0.013433 0.000000 0.000000 0.000000
# 4 0.000000 0.000000 0.000000 0.080547 0.000000 0.000000
# 5 0.000000 0.000000 0.000000 0.000000 0.061015 0.000000
# 6 0.000000 0.000000 0.000000 0.000000 0.000000 0.066752
#
#
# Mechanical properties :
#
#
# Convention : Reuss Voigt Hill
#
# Bulk Modulus (GPa) = 26.52028 49.37434 37.94731
# Shear Modulus (GPa) = 17.34477 22.94769 20.14623
#
# Velocity S-wave (km/s) = 3.14496 3.61744 3.38944
# Velocity P-wave (km/s) = 5.32079 6.75303 6.07923
#
# Compressibility (1/GPa) = 0.03770700
#
# Stress axis : x y z
#
# Youngs Moduli (GPa) = 91.78087 35.43611 74.44517
#
# Poissons Ratio (x) = 0.02671 0.53010
# Poissons Ratio (y) = 0.06919 -0.03380
# Poissons Ratio (z) = 0.65355 -0.01609
#
# Static dielectric constant tensor:
#      x y z
#    x 1.625330 0.000000 0.000000 
#    y 0.000000 1.676530 0.000000 
#    z 0.000000 0.000000 1.594720 
# 
# From -- ./inp_files/21243.got.cif
#   From: 2010.05.17/outbox.cif.g08.bks.cpg/sg62_11_cif.got.tgz:21243.got - 2010.06.03 15:25:27.
