data_PCOD9461601
_publ_section_title
;
Structure prediction by ZEFSAII (Michael W. Deem and Ramdas Pophale) SiO2 
 PCOD9461601
Probable space group: P N M A
;
_chemical_formula_sum "Si O2"
_cell_formula_units_Z 64
_cell_length_a 18.847768
_cell_length_b 8.921126
_cell_length_c 26.712815
_cell_angle_alpha 90.000000
_cell_angle_beta 90.000000
_cell_angle_gamma 90.000000
_cell_volume 4491.581218
_symmetry_space_group_name_H-M "P N M A"
_symmetry_group_IT_number 62
_symmetry_cell_setting 'orthorhombic'
loop_
_space_group_symop_operation_xyz
x,y,z
1/2-x,-y,1/2+z
1/2+x,1/2-y,1/2-z
-x,1/2+y,-z
-x,-y,-z
1/2+x,y,1/2-z
1/2-x,1/2+y,1/2+z
x,1/2-y,z
loop_
_atom_site_type_symbol
_atom_site_label
_atom_site_fract_x
_atom_site_fract_y
_atom_site_fract_z
Si Si1 0.803241 0.922292 0.301887
Si Si2 0.576460 0.929399 0.743706
Si Si3 0.086998 0.069271 0.239687
Si Si4 0.833923 0.430022 0.145099
Si Si5 0.291819 0.076285 0.799607
Si Si6 0.921695 0.571930 0.941631
Si Si7 0.333303 0.069021 0.644311
Si Si8 0.074785 0.428212 0.940231
O O1 0.821655 0.750000 0.312061
O O2 0.755266 0.926413 0.251397
O O3 0.748206 0.976684 0.344074
O O4 0.873885 0.010841 0.288165
O O5 0.577614 0.750000 0.745200
O O6 0.494835 0.977426 0.745733
O O7 0.613145 0.973598 0.690997
O O8 0.091220 0.250000 0.237236
O O9 0.136350 0.008096 0.284395
O O10 0.118392 0.000475 0.188469
O O11 0.831738 0.250000 0.142362
O O12 0.757029 0.494739 0.159623
O O13 0.866157 0.499847 0.095088
O O14 0.304498 0.250000 0.812228
O O15 0.921754 0.750000 0.932001
O O16 0.863721 0.491100 0.907554
O O17 0.999032 0.504737 0.928921
O O18 0.910366 0.547166 0.000857
O O19 0.336614 0.250000 0.647206
O O20 0.069776 0.250000 0.931692
#
# Coordination Sequence:
#
# PCOD9461601 Si02
#       8
#     8   8   8   8   8   8   8   8
#     4   8  16  28  41  58  80 106 137 171 206 246
#     4   9  18  28  40  60  84 110 140 172 206 247
#     4  10  18  28  42  62  87 113 143 177 211 251
#     4  10  18  29  45  63  84 113 146 177 213 253
#     4   9  17  29  42  59  83 111 143 176 211 250
#     4  10  20  32  45  62  84 112 145 179 215 252
#     4  10  19  30  44  62  83 111 145 178 214 253
#     4  10  20  32  45  62  85 112 143 180 216 250
#
# _framework density 14.24888
#
# number of rings (size 3 to 8) (size 9 to 14) (size 15 to 20)
#    0.000    2.500    0.000    3.750    0.000    7.500 
#    0.000    0.000    0.000    0.000    0.000    0.000 
#    0.000    1.000    0.000    3.250    0.000    4.750 
#
# Total GULP energy -356699.976122 kJ/mol
# GULP energy per Si atom -5573.437127 kJ/mol
# Density = 1.421645 g / cm^3
# Si number density = 14.248880 Si / 1000 Ang^3
#
#
#
# Elastic Constant Matrix: (Units=GPa)
#
#
# Indices 1 2 3 4 5 6 
#
# 1 92.6913 39.1271 32.4736 0.0000 0.0000 0.0000
# 2 39.1271 58.6156 30.5870 0.0000 0.0000 0.0000
# 3 32.4736 30.5870 48.4145 0.0000 0.0000 0.0000
# 4 0.0000 0.0000 0.0000 22.6557 0.0000 0.0000
# 5 0.0000 0.0000 0.0000 0.0000 28.5603 0.0000
# 6 0.0000 0.0000 0.0000 0.0000 0.0000 24.8866
#
#
#
# Elastic Compliance Matrix: (Units=1/GPa)
#
#
# Indices 1 2 3 4 5 6 
#
# 1 0.016104 -0.007628 -0.005983 0.000000 0.000000 0.000000
# 2 -0.007628 0.029064 -0.013245 0.000000 0.000000 0.000000
# 3 -0.005983 -0.013245 0.033036 0.000000 0.000000 0.000000
# 4 0.000000 0.000000 0.000000 0.044139 0.000000 0.000000
# 5 0.000000 0.000000 0.000000 0.000000 0.035014 0.000000
# 6 0.000000 0.000000 0.000000 0.000000 0.000000 0.040182
#
#
# Mechanical properties :
#
#
# Convention : Reuss Voigt Hill
#
# Bulk Modulus (GPa) = 40.82967 44.89962 42.86464
# Shear Modulus (GPa) = 19.27411 21.72279 20.49845
#
# Velocity S-wave (km/s) = 3.68186 3.90875 3.79700
# Velocity P-wave (km/s) = 6.84044 7.20767 7.02646
#
# Compressibility (1/GPa) = 0.02449199
#
# Stress axis : x y z
#
# Youngs Moduli (GPa) = 62.09445 34.40688 30.27019
#
# Poissons Ratio (x) = 0.26246 0.18110
# Poissons Ratio (y) = 0.47367 0.40094
# Poissons Ratio (z) = 0.37149 0.45573
#
# Static dielectric constant tensor:
#      x y z
#    x 1.466110 0.000000 0.000000 
#    y 0.000000 1.478430 0.000000 
#    z 0.000000 0.000000 1.459440 
# 
# From -- ./inp_files/30057.got.cif
#   From: 2010.05.17/outbox.cif.g08.bks.cpg/sg62_16_cif.got.tgz:30057.got - 2010.06.03 15:25:27.
