data_PCOD9461541
_publ_section_title
;
Structure prediction by ZEFSAII (Michael W. Deem and Ramdas Pophale) SiO2 
 PCOD9461541
Probable space group: P N M A
;
_chemical_formula_sum "Si O2"
_cell_formula_units_Z 56
_cell_length_a 18.849980
_cell_length_b 9.053783
_cell_length_c 21.571122
_cell_angle_alpha 90.000000
_cell_angle_beta 90.000000
_cell_angle_gamma 90.000000
_cell_volume 3681.405951
_symmetry_space_group_name_H-M "P N M A"
_symmetry_group_IT_number 62
_symmetry_cell_setting 'orthorhombic'
loop_
_space_group_symop_operation_xyz
x,y,z
1/2-x,-y,1/2+z
1/2+x,1/2-y,1/2-z
-x,1/2+y,-z
-x,-y,-z
1/2+x,y,1/2-z
1/2-x,1/2+y,1/2+z
x,1/2-y,z
loop_
_atom_site_type_symbol
_atom_site_label
_atom_site_fract_x
_atom_site_fract_y
_atom_site_fract_z
Si Si1 0.424807 0.070862 0.252508
Si Si2 0.205087 0.420798 0.185582
Si Si3 0.077461 0.929103 0.499489
Si Si4 0.345772 0.070456 0.126092
Si Si5 0.213947 0.580255 0.818489
Si Si6 0.922897 0.073335 0.753986
Si Si7 0.344089 0.426988 0.873574
O O1 0.429027 0.250000 0.253133
O O2 0.394208 0.025855 0.184791
O O3 0.365395 0.026770 0.303240
O O4 0.501008 0.000536 0.263066
O O5 0.186634 0.250000 0.171830
O O6 0.264492 0.477385 0.137576
O O7 0.247395 0.420647 0.251175
O O8 0.135093 0.515526 0.196879
O O9 0.071441 0.750000 0.499549
O O10 0.119939 0.974089 0.561336
O O11 0.119374 0.974047 0.437411
O O12 0.000000 0.000000 0.500000
O O13 0.343461 0.250000 0.127741
O O14 0.210521 0.750000 0.839226
O O15 0.265555 0.490130 0.862904
O O16 0.928099 0.250000 0.756105
O O17 0.892199 0.029863 0.685851
O O18 0.340008 0.250000 0.873398
#
# Coordination Sequence:
#
# PCOD9461541 Si02
#       7
#     8   8   8   8   8   8   8
#     4   9  16  27  43  63  83 106 138 175 208 241
#     4   8  14  27  44  59  76 104 140 175 206 239
#     4  10  19  30  43  62  87 115 144 171 197 234
#     4   8  15  28  45  61  80 109 145 176 201 233
#     4   8  15  27  43  60  78 103 139 175 206 241
#     4  10  18  26  38  61  89 113 134 163 206 252
#     4   9  18  29  40  58  87 116 140 165 199 244
#
# _framework density 15.21158
#
# number of rings (size 3 to 8) (size 9 to 14) (size 15 to 20)
#    0.000    3.143    0.000    3.000    0.000    1.714 
#    0.000    2.857    0.000    0.000    0.000    1.000 
#    0.000    0.000    0.000    0.000    0.000    0.000 
#
# Total GULP energy -311750.043959 kJ/mol
# GULP energy per Si atom -5566.965071 kJ/mol
# Density = 1.517696 g / cm^3
# Si number density = 15.211580 Si / 1000 Ang^3
#
#
#
# Elastic Constant Matrix: (Units=GPa)
#
#
# Indices 1 2 3 4 5 6 
#
# 1 164.0718 41.4021 67.2786 0.0000 0.0000 0.0000
# 2 41.4021 18.9106 21.0376 0.0000 0.0000 0.0000
# 3 67.2786 21.0376 75.1914 0.0000 0.0000 0.0000
# 4 0.0000 0.0000 0.0000 12.9996 0.0000 0.0000
# 5 0.0000 0.0000 0.0000 0.0000 25.2076 0.0000
# 6 0.0000 0.0000 0.0000 0.0000 0.0000 24.2518
#
#
#
# Elastic Compliance Matrix: (Units=1/GPa)
#
#
# Indices 1 2 3 4 5 6 
#
# 1 0.015448 -0.026780 -0.006330 0.000000 0.000000 0.000000
# 2 -0.026780 0.123201 -0.010509 0.000000 0.000000 0.000000
# 3 -0.006330 -0.010509 0.021903 0.000000 0.000000 0.000000
# 4 0.000000 0.000000 0.000000 0.076926 0.000000 0.000000
# 5 0.000000 0.000000 0.000000 0.000000 0.039671 0.000000
# 6 0.000000 0.000000 0.000000 0.000000 0.000000 0.041234
#
#
# Mechanical properties :
#
#
# Convention : Reuss Voigt Hill
#
# Bulk Modulus (GPa) = 13.63954 57.51227 35.57590
# Shear Modulus (GPa) = 11.62635 21.05551 16.34093
#
# Velocity S-wave (km/s) = 2.76761 3.72449 3.28112
# Velocity P-wave (km/s) = 4.38166 7.50906 6.14756
#
# Compressibility (1/GPa) = 0.07331627
#
# Stress axis : x y z
#
# Youngs Moduli (GPa) = 64.73313 8.11681 45.65534
#
# Poissons Ratio (x) = 0.21736 0.28899
# Poissons Ratio (y) = 1.73353 0.47978
# Poissons Ratio (z) = 0.40975 0.08530
#
# Static dielectric constant tensor:
#      x y z
#    x 1.503860 0.000000 0.000000 
#    y 0.000000 1.509270 0.000000 
#    z 0.000000 0.000000 1.501610 
# 
# From -- ./inp_files/27515.got.cif
#   From: 2010.05.17/outbox.cif.g08.bks.cpg/sg62_14_cif.got.tgz:27515.got - 2010.06.03 15:25:27.
