data_PCOD9461618
_publ_section_title
;
Structure prediction by ZEFSAII (Michael W. Deem and Ramdas Pophale) SiO2 
 PCOD9461618
Probable space group: P N M A
;
_chemical_formula_sum "Si O2"
_cell_formula_units_Z 56
_cell_length_a 18.784257
_cell_length_b 9.109860
_cell_length_c 21.480985
_cell_angle_alpha 90.000000
_cell_angle_beta 90.000000
_cell_angle_gamma 90.000000
_cell_volume 3675.868073
_symmetry_space_group_name_H-M "P N M A"
_symmetry_group_IT_number 62
_symmetry_cell_setting 'orthorhombic'
loop_
_space_group_symop_operation_xyz
x,y,z
1/2-x,-y,1/2+z
1/2+x,1/2-y,1/2-z
-x,1/2+y,-z
-x,-y,-z
1/2+x,y,1/2-z
1/2-x,1/2+y,1/2+z
x,1/2-y,z
loop_
_atom_site_type_symbol
_atom_site_label
_atom_site_fract_x
_atom_site_fract_y
_atom_site_fract_z
Si Si1 0.711928 0.419629 0.185570
Si Si2 0.922142 0.574394 0.254620
Si Si3 0.658377 0.073187 0.627185
Si Si4 0.913939 0.426850 0.750761
Si Si5 0.346128 0.572412 0.627803
Si Si6 0.297284 0.418293 0.182735
Si Si7 0.576951 0.073692 0.501418
O O1 0.698458 0.250000 0.169828
O O2 0.765684 0.496976 0.137936
O O3 0.639713 0.507132 0.199594
O O4 0.754399 0.421886 0.251592
O O5 0.919036 0.750000 0.258214
O O6 0.891770 0.533161 0.186168
O O7 0.868428 0.508797 0.305397
O O8 0.004194 0.530222 0.260883
O O9 0.667289 0.250000 0.628037
O O10 0.620328 0.030340 0.563174
O O11 0.908515 0.250000 0.752400
O O12 0.888996 0.492782 0.817090
O O13 0.349435 0.750000 0.637685
O O14 0.262808 0.530061 0.634199
O O15 0.379803 0.537938 0.561265
O O16 0.315838 0.250000 0.169038
O O17 0.568180 0.250000 0.503538
O O18 0.500000 0.000000 0.500000
#
# Coordination Sequence:
#
# PCOD9461618 Si02
#       7
#     8   8   8   8   8   8   8
#     4   9  17  29  44  63  86 113 145 181 220 264
#     4   9  17  27  41  63  88 111 140 177 217 259
#     4   9  17  30  45  62  87 120 152 181 215 258
#     4  10  18  28  44  66  90 115 143 179 221 265
#     4   9  18  31  44  62  89 120 151 182 215 256
#     4   8  15  27  42  59  81 110 143 175 213 258
#     4  10  20  32  46  65  92 123 155 187 218 256
#
# _framework density 15.234498
#
# number of rings (size 3 to 8) (size 9 to 14) (size 15 to 20)
#    0.000    2.857    0.000    2.571    0.000    6.857 
#    0.000    2.857    0.000    0.000    0.000    1.000 
#    0.000    0.000    0.000    0.000    0.000    0.000 
#
# Total GULP energy -311919.118687 kJ/mol
# GULP energy per Si atom -5569.984262 kJ/mol
# Density = 1.519982 g / cm^3
# Si number density = 15.234498 Si / 1000 Ang^3
#
#
#
# Elastic Constant Matrix: (Units=GPa)
#
#
# Indices 1 2 3 4 5 6 
#
# 1 165.5234 56.5131 70.3964 0.0000 0.0000 0.0000
# 2 56.5131 36.9825 29.7404 0.0000 0.0000 0.0000
# 3 70.3964 29.7404 77.9573 0.0000 0.0000 0.0000
# 4 0.0000 0.0000 0.0000 16.3890 0.0000 0.0000
# 5 0.0000 0.0000 0.0000 0.0000 25.1403 0.0000
# 6 0.0000 0.0000 0.0000 0.0000 0.0000 28.7913
#
#
#
# Elastic Compliance Matrix: (Units=1/GPa)
#
#
# Indices 1 2 3 4 5 6 
#
# 1 0.014783 -0.017101 -0.006825 0.000000 0.000000 0.000000
# 2 -0.017101 0.058790 -0.006986 0.000000 0.000000 0.000000
# 3 -0.006825 -0.006986 0.021656 0.000000 0.000000 0.000000
# 4 0.000000 0.000000 0.000000 0.061017 0.000000 0.000000
# 5 0.000000 0.000000 0.000000 0.000000 0.039777 0.000000
# 6 0.000000 0.000000 0.000000 0.000000 0.000000 0.034733
#
#
# Mechanical properties :
#
#
# Convention : Reuss Voigt Hill
#
# Bulk Modulus (GPa) = 29.93592 65.97367 47.95480
# Shear Modulus (GPa) = 16.46295 22.31832 19.39064
#
# Velocity S-wave (km/s) = 3.29087 3.83167 3.57152
# Velocity P-wave (km/s) = 5.84230 7.93568 6.96805
#
# Compressibility (1/GPa) = 0.03340468
#
# Stress axis : x y z
#
# Youngs Moduli (GPa) = 67.64638 17.00981 46.17747
#
# Poissons Ratio (x) = 0.29089 0.31516
# Poissons Ratio (y) = 1.15683 0.32257
# Poissons Ratio (z) = 0.46169 0.11882
#
# Static dielectric constant tensor:
#      x y z
#    x 1.505590 0.000000 0.000000 
#    y 0.000000 1.515240 0.000000 
#    z 0.000000 0.000000 1.493050 
# 
# From -- ./inp_files/27533.got.cif
#   From: 2010.05.17/outbox.cif.g08.bks.cpg/sg62_14_cif.got.tgz:27533.got - 2010.06.03 15:25:27.
