data_PCOD9461600
_publ_section_title
;
Structure prediction by ZEFSAII (Michael W. Deem and Ramdas Pophale) SiO2 
 PCOD9461600
Probable space group: P N M A
;
_chemical_formula_sum "Si O2"
_cell_formula_units_Z 64
_cell_length_a 18.829140
_cell_length_b 8.984149
_cell_length_c 27.024103
_cell_angle_alpha 90.000000
_cell_angle_beta 90.000000
_cell_angle_gamma 90.000000
_cell_volume 4571.499936
_symmetry_space_group_name_H-M "P N M A"
_symmetry_group_IT_number 62
_symmetry_cell_setting 'orthorhombic'
loop_
_space_group_symop_operation_xyz
x,y,z
1/2-x,-y,1/2+z
1/2+x,1/2-y,1/2-z
-x,1/2+y,-z
-x,-y,-z
1/2+x,y,1/2-z
1/2-x,1/2+y,1/2+z
x,1/2-y,z
loop_
_atom_site_type_symbol
_atom_site_label
_atom_site_fract_x
_atom_site_fract_y
_atom_site_fract_z
Si Si1 0.582796 0.427980 0.550577
Si Si2 0.584289 0.573008 0.445367
Si Si3 0.206106 0.421931 0.299803
Si Si4 0.083955 0.570732 0.242851
Si Si5 0.920465 0.928357 0.247117
Si Si6 0.201675 0.921032 0.698151
Si Si7 0.840765 0.570344 0.852572
Si Si8 0.833307 0.929382 0.149179
O O1 0.589463 0.250000 0.542216
O O2 0.600491 0.514346 0.500382
O O3 0.499889 0.456384 0.562972
O O4 0.631462 0.469900 0.597059
O O5 0.595398 0.750000 0.441713
O O6 0.629320 0.488244 0.404109
O O7 0.191001 0.250000 0.311259
O O8 0.135103 0.511021 0.286192
O O9 0.252165 0.425208 0.248908
O O10 0.257485 0.496632 0.339956
O O11 0.088145 0.750000 0.239799
O O12 0.112980 0.501125 0.191689
O O13 0.002229 0.525120 0.250486
O O14 0.918897 0.750000 0.248522
O O15 0.886156 0.973417 0.194225
O O16 0.869060 0.988929 0.289881
O O17 0.183018 0.750000 0.688073
O O18 0.258471 0.973656 0.657414
O O19 0.844512 0.750000 0.849089
O O20 0.826191 0.750000 0.150999
#
# Coordination Sequence:
#
# PCOD9461600 Si02
#       8
#     8   8   8   8   8   8   8   8
#     4   9  18  31  44  60  84 111 141 176 210 244
#     4  10  19  30  44  62  83 109 141 175 210 245
#     4   9  17  28  40  58  82 107 137 171 205 242
#     4  10  18  28  42  61  84 110 140 171 204 245
#     4   9  17  27  41  61  83 107 137 170 202 241
#     4   8  16  28  40  56  79 106 136 168 202 241
#     4  10  19  30  43  60  82 110 142 173 207 245
#     4   9  16  28  44  59  79 110 142 171 206 243
#
# _framework density 13.999782
#
# number of rings (size 3 to 8) (size 9 to 14) (size 15 to 20)
#    0.000    2.750    0.000    3.000    0.000    7.500 
#    0.000    2.500    0.000    0.000    0.000    0.000 
#    0.000    1.000    0.000    3.250    0.000    4.000 
#
# Total GULP energy -356519.531390 kJ/mol
# GULP energy per Si atom -5570.617678 kJ/mol
# Density = 1.396792 g / cm^3
# Si number density = 13.999782 Si / 1000 Ang^3
#
#
#
# Elastic Constant Matrix: (Units=GPa)
#
#
# Indices 1 2 3 4 5 6 
#
# 1 113.4654 46.2710 57.2623 0.0000 0.0000 0.0000
# 2 46.2710 45.7386 36.2265 0.0000 0.0000 0.0000
# 3 57.2623 36.2265 81.5721 0.0000 0.0000 0.0000
# 4 0.0000 0.0000 0.0000 21.5279 0.0000 0.0000
# 5 0.0000 0.0000 0.0000 0.0000 27.0477 0.0000
# 6 0.0000 0.0000 0.0000 0.0000 0.0000 20.1806
#
#
#
# Elastic Compliance Matrix: (Units=1/GPa)
#
#
# Indices 1 2 3 4 5 6 
#
# 1 0.017059 -0.011991 -0.006650 0.000000 0.000000 0.000000
# 2 -0.011991 0.042154 -0.010304 0.000000 0.000000 0.000000
# 3 -0.006650 -0.010304 0.021503 0.000000 0.000000 0.000000
# 4 0.000000 0.000000 0.000000 0.046451 0.000000 0.000000
# 5 0.000000 0.000000 0.000000 0.000000 0.036972 0.000000
# 6 0.000000 0.000000 0.000000 0.000000 0.000000 0.049553
#
#
# Mechanical properties :
#
#
# Convention : Reuss Voigt Hill
#
# Bulk Modulus (GPa) = 43.80605 57.81062 50.80833
# Shear Modulus (GPa) = 17.90891 20.48566 19.19728
#
# Velocity S-wave (km/s) = 3.58051 3.82944 3.70706
# Velocity P-wave (km/s) = 6.96074 7.80618 7.39555
#
# Compressibility (1/GPa) = 0.02282790
#
# Stress axis : x y z
#
# Youngs Moduli (GPa) = 58.61974 23.72232 46.50436
#
# Poissons Ratio (x) = 0.28444 0.30926
# Poissons Ratio (y) = 0.70288 0.47917
# Poissons Ratio (z) = 0.38983 0.24443
#
# Static dielectric constant tensor:
#      x y z
#    x 1.458560 0.000000 0.000000 
#    y 0.000000 1.470870 0.000000 
#    z 0.000000 0.000000 1.441110 
# 
# From -- ./inp_files/30049.got.cif
#   From: 2010.05.17/outbox.cif.g08.bks.cpg/sg62_16_cif.got.tgz:30049.got - 2010.06.03 15:25:27.
