data_PCOD9461995
_publ_section_title
;
Structure prediction by ZEFSAII (Michael W. Deem and Ramdas Pophale) SiO2 
 PCOD9461995
Probable space group: P N M A
;
_chemical_formula_sum "Si O2"
_cell_formula_units_Z 56
_cell_length_a 7.543059
_cell_length_b 16.644048
_cell_length_c 21.584020
_cell_angle_alpha 90.000000
_cell_angle_beta 90.000000
_cell_angle_gamma 90.000000
_cell_volume 2709.809737
_symmetry_space_group_name_H-M "P N M A"
_symmetry_group_IT_number 62
_symmetry_cell_setting 'orthorhombic'
loop_
_space_group_symop_operation_xyz
x,y,z
1/2-x,-y,1/2+z
1/2+x,1/2-y,1/2-z
-x,1/2+y,-z
-x,-y,-z
1/2+x,y,1/2-z
1/2-x,1/2+y,1/2+z
x,1/2-y,z
loop_
_atom_site_type_symbol
_atom_site_label
_atom_site_fract_x
_atom_site_fract_y
_atom_site_fract_z
Si Si1 0.211971 0.580301 0.953057
Si Si2 0.568827 0.043438 0.632223
Si Si3 0.430538 0.159731 0.723331
Si Si4 0.556650 0.837131 0.930604
Si Si5 0.382366 0.659496 0.478285
Si Si6 0.058555 0.161002 0.647716
Si Si7 0.179198 0.490451 0.579734
O O1 0.184767 0.532818 0.888709
O O2 0.352444 0.651672 0.948558
O O3 0.025625 0.612662 0.979327
O O4 0.289405 0.520358 0.005908
O O5 0.543820 0.084314 0.698519
O O6 0.626602 0.114976 0.586582
O O7 0.371164 0.019087 0.610447
O O8 0.507542 0.250000 0.712635
O O9 0.246231 0.159367 0.685557
O O10 0.416765 0.152477 0.797309
O O11 0.581601 0.750000 0.898872
O O12 0.694862 0.836959 0.987374
O O13 0.601987 0.923626 0.900662
O O14 0.447947 0.750000 0.468988
O O15 0.041727 0.250000 0.618729
O O16 0.065252 0.085888 0.602170
#
# Coordination Sequence:
#
# PCOD9461995 Si02
#       7
#     8   8   8   8   8   8   8
#     4  11  20  34  51  77 108 142 180 221 267 321
#     4  10  18  32  53  75 103 144 180 215 270 319
#     4   9  18  33  51  78 109 140 177 217 259 325
#     4  11  22  34  50  77 106 140 180 219 264 318
#     4  10  19  33  50  73 107 143 175 216 262 311
#     4   9  19  34  54  78 109 143 179 217 266 315
#     4  10  19  35  53  75 108 145 180 224 265 317
#
# _framework density 20.665658000000001
#
# number of rings (size 3 to 8) (size 9 to 14) (size 15 to 20)
#    0.000    2.000    2.857    2.143    0.000    5.143 
#    0.000    0.000    0.000    0.000    0.000   10.000 
#    0.000    0.000    0.000    0.000    0.000    0.000 
#
# Total GULP energy -312474.318057 kJ/mol
# GULP energy per Si atom -5579.898537 kJ/mol
# Density = 2.061862 g / cm^3
# Si number density = 20.665658 Si / 1000 Ang^3
#
#
#
# Elastic Constant Matrix: (Units=GPa)
#
#
# Indices 1 2 3 4 5 6 
#
# 1 73.1965 17.9171 5.0175 0.0000 0.0000 0.0000
# 2 17.9171 139.0181 19.9401 0.0000 0.0000 0.0000
# 3 5.0175 19.9401 29.3019 0.0000 0.0000 0.0000
# 4 0.0000 0.0000 0.0000 32.7391 0.0000 0.0000
# 5 0.0000 0.0000 0.0000 0.0000 15.4681 0.0000
# 6 0.0000 0.0000 0.0000 0.0000 0.0000 22.7114
#
#
#
# Elastic Compliance Matrix: (Units=1/GPa)
#
#
# Indices 1 2 3 4 5 6 
#
# 1 0.014152 -0.001636 -0.001310 0.000000 0.000000 0.000000
# 2 -0.001636 0.008161 -0.005273 0.000000 0.000000 0.000000
# 3 -0.001310 -0.005273 0.037940 0.000000 0.000000 0.000000
# 4 0.000000 0.000000 0.000000 0.030545 0.000000 0.000000
# 5 0.000000 0.000000 0.000000 0.000000 0.064649 0.000000
# 6 0.000000 0.000000 0.000000 0.000000 0.000000 0.044031
#
#
# Mechanical properties :
#
#
# Convention : Reuss Voigt Hill
#
# Bulk Modulus (GPa) = 22.82350 36.36288 29.59319
# Shear Modulus (GPa) = 21.69003 27.42650 24.55827
#
# Velocity S-wave (km/s) = 3.24322 3.64696 3.45100
# Velocity P-wave (km/s) = 5.00927 5.94708 5.49821
#
# Compressibility (1/GPa) = 0.04381449
#
# Stress axis : x y z
#
# Youngs Moduli (GPa) = 70.66069 122.54112 26.35725
#
# Poissons Ratio (x) = 0.20049 0.03453
# Poissons Ratio (y) = 0.11561 0.13899
# Poissons Ratio (z) = 0.09256 0.64618
#
# Static dielectric constant tensor:
#      x y z
#    x 1.836510 0.000000 0.000000 
#    y 0.000000 1.773550 0.000000 
#    z 0.000000 0.000000 1.730740 
# 
# From -- ./inp_files/26112.got.cif
#   From: 2010.05.17/outbox.cif.g08.bks.cpg/sg62_14_cif.got.tgz:26112.got - 2010.06.03 15:25:27.
