data_PCOD9461782
_publ_section_title
;
Structure prediction by ZEFSAII (Michael W. Deem and Ramdas Pophale) SiO2 
 PCOD9461782
Probable space group: P N M A
;
_chemical_formula_sum "Si O2"
_cell_formula_units_Z 56
_cell_length_a 18.210126
_cell_length_b 7.358830
_cell_length_c 19.104267
_cell_angle_alpha 90.000000
_cell_angle_beta 90.000000
_cell_angle_gamma 90.000000
_cell_volume 2560.071531
_symmetry_space_group_name_H-M "P N M A"
_symmetry_group_IT_number 62
_symmetry_cell_setting 'orthorhombic'
loop_
_space_group_symop_operation_xyz
x,y,z
1/2-x,-y,1/2+z
1/2+x,1/2-y,1/2-z
-x,1/2+y,-z
-x,-y,-z
1/2+x,y,1/2-z
1/2-x,1/2+y,1/2+z
x,1/2-y,z
loop_
_atom_site_type_symbol
_atom_site_label
_atom_site_fract_x
_atom_site_fract_y
_atom_site_fract_z
Si Si1 0.441792 0.528650 0.089934
Si Si2 0.473584 0.467442 0.579570
Si Si3 0.688147 0.538966 0.385646
Si Si4 0.620942 0.471631 0.646706
Si Si5 0.679584 0.027806 0.796813
Si Si6 0.256571 0.970422 0.462098
Si Si7 0.900148 0.042781 0.569304
O O1 0.442776 0.750000 0.085701
O O2 0.383806 0.474942 0.148421
O O3 0.525607 0.466295 0.103109
O O4 0.417463 0.459401 0.013907
O O5 0.500000 0.500000 0.500000
O O6 0.469819 0.250000 0.586163
O O7 0.392470 0.539582 0.597903
O O8 0.538319 0.532501 0.630663
O O9 0.676777 0.750000 0.367638
O O10 0.741741 0.463456 0.325835
O O11 0.733452 0.530816 0.458231
O O12 0.620114 0.250000 0.647395
O O13 0.655963 0.530346 0.719725
O O14 0.673340 0.526741 0.582867
O O15 0.681471 0.250000 0.796919
O O16 0.253811 0.750000 0.463303
O O17 0.181134 0.037377 0.426899
O O18 0.894368 0.250000 0.594764
#
# Coordination Sequence:
#
# PCOD9461782 Si02
#       7
#     8   8   8   8   8   8   8
#     4   9  16  28  46  66  90 122 155 191 236 282
#     4  10  19  32  52  76  98 124 163 206 246 291
#     4  10  19  31  51  76  97 124 165 205 241 288
#     4   9  18  32  48  69  99 130 158 197 249 293
#     4   9  17  31  48  68  98 131 160 197 247 295
#     4  10  18  30  49  71  96 126 159 199 242 288
#     4   9  17  27  43  70  93 115 155 197 232 279
#
# _framework density 21.874388
#
# number of rings (size 3 to 8) (size 9 to 14) (size 15 to 20)
#    0.000    2.571    2.857    0.000    0.000    0.000 
#    2.571    0.000    0.000    3.429    0.000    0.000 
#    0.000    0.000    0.000    0.000    0.000    0.000 
#
# Total GULP energy -312522.190002 kJ/mol
# GULP energy per Si atom -5580.753393 kJ/mol
# Density = 2.182460 g / cm^3
# Si number density = 21.874388 Si / 1000 Ang^3
#
#
#
# Elastic Constant Matrix: (Units=GPa)
#
#
# Indices 1 2 3 4 5 6 
#
# 1 188.2504 6.0838 44.2857 0.0000 0.0000 0.0000
# 2 6.0838 84.5938 -5.3062 0.0000 0.0000 0.0000
# 3 44.2857 -5.3062 89.3734 0.0000 0.0000 0.0000
# 4 0.0000 0.0000 0.0000 9.8631 0.0000 0.0000
# 5 0.0000 0.0000 0.0000 0.0000 33.4024 0.0000
# 6 0.0000 0.0000 0.0000 0.0000 0.0000 2.6776
#
#
#
# Elastic Compliance Matrix: (Units=1/GPa)
#
#
# Indices 1 2 3 4 5 6 
#
# 1 0.006046 -0.000625 -0.003033 0.000000 0.000000 0.000000
# 2 -0.000625 0.011930 0.001018 0.000000 0.000000 0.000000
# 3 -0.003033 0.001018 0.012752 0.000000 0.000000 0.000000
# 4 0.000000 0.000000 0.000000 0.101388 0.000000 0.000000
# 5 0.000000 0.000000 0.000000 0.000000 0.029938 0.000000
# 6 0.000000 0.000000 0.000000 0.000000 0.000000 0.373468
#
#
# Mechanical properties :
#
#
# Convention : Reuss Voigt Hill
#
# Bulk Modulus (GPa) = 39.29541 50.26048 44.77794
# Shear Modulus (GPa) = 9.10275 30.33226 19.71751
#
# Velocity S-wave (km/s) = 2.04216 3.72782 3.00558
# Velocity P-wave (km/s) = 4.85424 6.44637 5.70611
#
# Compressibility (1/GPa) = 0.02544827
#
# Stress axis : x y z
#
# Youngs Moduli (GPa) = 165.40545 83.82228 78.41739
#
# Poissons Ratio (x) = 0.05239 0.23783
# Poissons Ratio (y) = 0.10338 -0.07983
# Poissons Ratio (z) = 0.50165 -0.08533
#
# Static dielectric constant tensor:
#      x y z
#    x 1.837520 0.000000 0.000000 
#    y 0.000000 1.832290 0.000000 
#    z 0.000000 0.000000 1.724750 
# 
# From -- ./inp_files/27584.got.cif
#   From: 2010.05.17/outbox.cif.g08.bks.cpg/sg62_14_cif.got.tgz:27584.got - 2010.06.03 15:25:27.
