data_PCOD9461004
_publ_section_title
;
Structure prediction by ZEFSAII (Michael W. Deem and Ramdas Pophale) SiO2 
 PCOD9461004
Probable space group: P B C A
;
_chemical_formula_sum "Si O2"
_cell_formula_units_Z 64
_cell_length_a 27.306886
_cell_length_b 10.649916
_cell_length_c 8.824597
_cell_angle_alpha 90.000000
_cell_angle_beta 90.000000
_cell_angle_gamma 90.000000
_cell_volume 2566.334373
_symmetry_space_group_name_H-M "P B C A"
_symmetry_group_IT_number 61
_symmetry_cell_setting 'orthorhombic'
loop_
_space_group_symop_operation_xyz
x,y,z
1/2-x,-y,1/2+z
1/2+x,1/2-y,-z
-x,1/2+y,1/2-z
-x,-y,-z
1/2+x,y,1/2-z
1/2-x,1/2+y,z
x,1/2-y,1/2+z
loop_
_atom_site_type_symbol
_atom_site_label
_atom_site_fract_x
_atom_site_fract_y
_atom_site_fract_z
Si Si1 0.149005 0.180404 0.804713
Si Si2 0.374746 0.186942 0.530679
Si Si3 0.714769 0.916226 0.328854
Si Si4 0.463302 0.548715 0.624628
Si Si5 0.871264 0.078618 0.293571
Si Si6 0.244254 0.330765 0.490366
Si Si7 0.010979 0.866526 0.069403
Si Si8 0.084099 0.273667 0.558199
O O1 0.194804 0.218068 0.904252
O O2 0.119723 0.281073 0.702809
O O3 0.107688 0.144798 0.928063
O O4 0.158981 0.050931 0.717052
O O5 0.343114 0.096020 0.637528
O O6 0.360447 0.329487 0.569449
O O7 0.360849 0.152648 0.360481
O O8 0.432615 0.170083 0.559290
O O9 0.726895 0.890372 0.153206
O O10 0.736307 0.793501 0.421830
O O11 0.732480 0.051531 0.396189
O O12 0.500000 0.500000 0.500000
O O13 0.430078 0.443257 0.704076
O O14 0.491030 0.622462 0.758992
O O15 0.418962 0.623341 0.540711
O O16 0.973891 0.789446 0.963396
O O17 0.000000 0.000000 0.000000
#
# Coordination Sequence:
#
# PCOD9461004 Si02
#       8
#     8   8   8   8   8   8   8   8
#     4  11  24  48  75 106 152 192 259 315 384 464
#     4  12  26  46  76 104 152 199 250 312 384 461
#     4  12  28  52  84 118 161 204 272 327 415 473
#     4  11  25  44  64 101 147 193 253 305 365 457
#     4  11  24  46  67 105 142 193 246 313 366 458
#     4  12  27  53  81 121 156 208 261 344 398 487
#     4  12  25  44  70 105 150 198 244 309 375 455
#     4  11  23  44  70 102 145 198 246 308 377 457
#
# _framework density 24.938293000000002
#
# number of rings (size 3 to 8) (size 9 to 14) (size 15 to 20)
#    0.000    0.500    5.000    3.000    7.000    0.000 
#    0.000    0.000    0.000    0.000    0.000    0.000 
#    0.000    0.000    0.000    0.000    0.000    0.000 
#
# Total GULP energy -357121.831508 kJ/mol
# GULP energy per Si atom -5580.028617 kJ/mol
# Density = 2.488153 g / cm^3
# Si number density = 24.938293 Si / 1000 Ang^3
#
#
#
# Elastic Constant Matrix: (Units=GPa)
#
#
# Indices 1 2 3 4 5 6 
#
# 1 87.0519 4.3428 13.9546 0.0000 0.0000 0.0000
# 2 4.3428 84.6572 34.7335 0.0000 0.0000 0.0000
# 3 13.9546 34.7335 103.1400 0.0000 0.0000 0.0000
# 4 0.0000 0.0000 0.0000 55.3501 0.0000 0.0000
# 5 0.0000 0.0000 0.0000 0.0000 40.7029 0.0000
# 6 0.0000 0.0000 0.0000 0.0000 0.0000 23.8490
#
#
#
# Elastic Compliance Matrix: (Units=1/GPa)
#
#
# Indices 1 2 3 4 5 6 
#
# 1 0.011742 0.000057 -0.001608 0.000000 0.000000 0.000000
# 2 0.000057 0.013706 -0.004624 0.000000 0.000000 0.000000
# 3 -0.001608 -0.004624 0.011470 0.000000 0.000000 0.000000
# 4 0.000000 0.000000 0.000000 0.018067 0.000000 0.000000
# 5 0.000000 0.000000 0.000000 0.000000 0.024568 0.000000
# 6 0.000000 0.000000 0.000000 0.000000 0.000000 0.041931
#
#
# Mechanical properties :
#
#
# Convention : Reuss Voigt Hill
#
# Bulk Modulus (GPa) = 40.69928 42.32345 41.51136
# Shear Modulus (GPa) = 35.20558 38.76828 36.98693
#
# Velocity S-wave (km/s) = 3.76135 3.94708 3.85533
# Velocity P-wave (km/s) = 5.93456 6.14660 6.04151
#
# Compressibility (1/GPa) = 0.02457046
#
# Stress axis : x y z
#
# Youngs Moduli (GPa) = 85.16215 72.95877 87.18284
#
# Poissons Ratio (x) = -0.00419 0.14019
# Poissons Ratio (y) = -0.00489 0.40309
# Poissons Ratio (z) = 0.13694 0.33733
#
# Static dielectric constant tensor:
#      x y z
#    x 2.057580 0.000000 0.000000 
#    y 0.000000 2.036230 0.000000 
#    z 0.000000 0.000000 1.923500 
# 
# From -- ./inp_files/4644.got.cif
#   From: 2010.05.17/outbox.cif.g08.bks.cpg/sg61_3_cif.got.tgz:4644.got - 2010.06.03 15:17:17.
