data_PCOD9461762
_publ_section_title
;
Structure prediction by ZEFSAII (Michael W. Deem and Ramdas Pophale) SiO2 
 PCOD9461762
Probable space group: P N M A
;
_chemical_formula_sum "Si O2"
_cell_formula_units_Z 64
_cell_length_a 30.887667
_cell_length_b 8.721330
_cell_length_c 15.008289
_cell_angle_alpha 90.000000
_cell_angle_beta 90.000000
_cell_angle_gamma 90.000000
_cell_volume 4042.955956
_symmetry_space_group_name_H-M "P N M A"
_symmetry_group_IT_number 62
_symmetry_cell_setting 'orthorhombic'
loop_
_space_group_symop_operation_xyz
x,y,z
1/2-x,-y,1/2+z
1/2+x,1/2-y,1/2-z
-x,1/2+y,-z
-x,-y,-z
1/2+x,y,1/2-z
1/2-x,1/2+y,1/2+z
x,1/2-y,z
loop_
_atom_site_type_symbol
_atom_site_label
_atom_site_fract_x
_atom_site_fract_y
_atom_site_fract_z
Si Si1 0.368727 0.431007 0.311500
Si Si2 0.288407 0.563139 0.794087
Si Si3 0.131862 0.429562 0.171513
Si Si4 0.722671 0.430441 0.006046
Si Si5 0.950217 0.432490 0.905027
Si Si6 0.825961 0.073638 0.995878
Si Si7 0.049452 0.066641 0.897766
Si Si8 0.795588 0.565440 0.310190
O O1 0.369969 0.250000 0.292821
O O2 0.344497 0.452705 0.406215
O O3 0.416586 0.495283 0.329043
O O4 0.339298 0.515071 0.239081
O O5 0.285144 0.750000 0.793235
O O6 0.332468 0.518449 0.743330
O O7 0.246174 0.500561 0.742507
O O8 0.289449 0.507742 0.896572
O O9 0.124180 0.250000 0.184406
O O10 0.086027 0.514155 0.164325
O O11 0.154321 0.461044 0.076351
O O12 0.710950 0.250000 0.008358
O O13 0.774502 0.440561 0.998585
O O14 0.704653 0.492241 0.912686
O O15 0.948422 0.250000 0.915989
O O16 0.999367 0.474865 0.879172
O O17 0.941223 0.506274 0.002075
O O18 0.836869 0.250000 0.969992
O O19 0.053629 0.250000 0.897541
O O20 0.791685 0.750000 0.310469
#
# Coordination Sequence:
#
# PCOD9461762 Si02
#       8
#     8   8   8   8   8   8   8   8
#     4  11  21  33  50  71 100 137 164 199 252 298
#     4  10  20  35  50  69  98 132 169 208 250 290
#     4  11  21  30  48  74 100 131 169 210 243 291
#     4   9  18  34  50  65  94 133 168 203 244 289
#     4  10  20  33  49  70 102 135 160 199 252 298
#     4  10  18  30  48  67  96 135 168 196 241 294
#     4  10  20  33  50  73  98 128 169 206 238 292
#     4  11  21  32  50  73  96 129 171 209 242 291
#
# _framework density 15.830002
#
# number of rings (size 3 to 8) (size 9 to 14) (size 15 to 20)
#    0.000    1.750    3.750    1.875    0.000    2.500 
#    0.000    1.250    0.000    0.000    0.000    0.875 
#    0.000    0.000    0.000    0.000    0.000    0.000 
#
# Total GULP energy -356995.889541 kJ/mol
# GULP energy per Si atom -5578.060774 kJ/mol
# Density = 1.579397 g / cm^3
# Si number density = 15.830002 Si / 1000 Ang^3
#
#
#
# Elastic Constant Matrix: (Units=GPa)
#
#
# Indices 1 2 3 4 5 6 
#
# 1 95.1633 20.5674 58.6624 0.0000 0.0000 0.0000
# 2 20.5674 25.8476 28.4597 0.0000 0.0000 0.0000
# 3 58.6624 28.4597 93.1777 0.0000 0.0000 0.0000
# 4 0.0000 0.0000 0.0000 16.2159 0.0000 0.0000
# 5 0.0000 0.0000 0.0000 0.0000 24.0498 0.0000
# 6 0.0000 0.0000 0.0000 0.0000 0.0000 29.7717
#
#
#
# Elastic Compliance Matrix: (Units=1/GPa)
#
#
# Indices 1 2 3 4 5 6 
#
# 1 0.017295 -0.002671 -0.010072 0.000000 0.000000 0.000000
# 2 -0.002671 0.058704 -0.016249 0.000000 0.000000 0.000000
# 3 -0.010072 -0.016249 0.022036 0.000000 0.000000 0.000000
# 4 0.000000 0.000000 0.000000 0.061668 0.000000 0.000000
# 5 0.000000 0.000000 0.000000 0.000000 0.041580 0.000000
# 6 0.000000 0.000000 0.000000 0.000000 0.000000 0.033589
#
#
# Mechanical properties :
#
#
# Convention : Reuss Voigt Hill
#
# Bulk Modulus (GPa) = 24.96821 47.72971 36.34896
# Shear Modulus (GPa) = 16.32881 21.10742 18.71811
#
# Velocity S-wave (km/s) = 3.21520 3.65551 3.44240
# Velocity P-wave (km/s) = 5.43970 6.93065 6.22993
#
# Compressibility (1/GPa) = 0.04005093
#
# Stress axis : x y z
#
# Youngs Moduli (GPa) = 57.82156 17.03448 45.37959
#
# Poissons Ratio (x) = 0.04551 0.45708
# Poissons Ratio (y) = 0.15446 0.73735
# Poissons Ratio (z) = 0.58240 0.27679
#
# Static dielectric constant tensor:
#      x y z
#    x 1.535810 0.000000 0.000000 
#    y 0.000000 1.542540 0.000000 
#    z 0.000000 0.000000 1.523030 
# 
# From -- ./inp_files/21245.got.cif
#   From: 2010.05.17/outbox.cif.g08.bks.cpg/sg62_11_cif.got.tgz:21245.got - 2010.06.03 15:25:27.
