data_PCOD9461621
_publ_section_title
;
Structure prediction by ZEFSAII (Michael W. Deem and Ramdas Pophale) SiO2 
 PCOD9461621
Probable space group: P N M A
;
_chemical_formula_sum "Si O2"
_cell_formula_units_Z 64
_cell_length_a 28.044124
_cell_length_b 10.193532
_cell_length_c 13.746622
_cell_angle_alpha 90.000000
_cell_angle_beta 90.000000
_cell_angle_gamma 90.000000
_cell_volume 3929.728622
_symmetry_space_group_name_H-M "P N M A"
_symmetry_group_IT_number 62
_symmetry_cell_setting 'orthorhombic'
loop_
_space_group_symop_operation_xyz
x,y,z
1/2-x,-y,1/2+z
1/2+x,1/2-y,1/2-z
-x,1/2+y,-z
-x,-y,-z
1/2+x,y,1/2-z
1/2-x,1/2+y,1/2+z
x,1/2-y,z
loop_
_atom_site_type_symbol
_atom_site_label
_atom_site_fract_x
_atom_site_fract_y
_atom_site_fract_z
Si Si1 0.504918 0.905450 0.093553
Si Si2 0.737732 0.969066 0.934205
Si Si3 0.236052 0.391533 0.855466
Si Si4 0.653072 0.109284 0.015619
Si Si5 0.173152 0.902125 0.750954
Si Si6 0.905294 0.898974 0.317270
Si Si7 0.315433 0.100522 0.687138
Si Si8 0.388599 0.405398 0.835891
O O1 0.502854 0.750000 0.065132
O O2 0.460865 0.928653 0.166551
O O3 0.555595 0.928013 0.145668
O O4 0.500000 0.000000 0.000000
O O5 0.705029 0.906910 0.848923
O O6 0.705243 0.091016 0.969408
O O7 0.788126 0.010299 0.888968
O O8 0.746931 0.893203 0.033710
O O9 0.212299 0.250000 0.834363
O O10 0.203279 0.515454 0.829864
O O11 0.280392 0.399473 0.781272
O O12 0.649679 0.250000 0.066218
O O13 0.616624 0.106154 0.926062
O O14 0.639482 0.991692 0.085810
O O15 0.164907 0.750000 0.775067
O O16 0.125340 0.987686 0.734022
O O17 0.899763 0.750000 0.277018
O O18 0.317788 0.250000 0.650551
O O19 0.366658 0.061339 0.730331
O O20 0.379474 0.250000 0.850633
#
# Coordination Sequence:
#
# PCOD9461621 Si02
#       8
#     8   8   8   8   8   8   8   8
#     4  10  19  30  47  71  97 129 168 205 245 303
#     4  10  19  32  48  71  98 133 169 202 241 291
#     4  10  19  33  51  69  97 133 165 200 247 293
#     4  10  18  28  45  66  93 128 163 198 237 281
#     4  10  21  33  49  75 100 125 167 210 243 289
#     4   9  18  32  46  65  96 130 161 197 246 296
#     4   9  18  32  47  68  98 133 166 200 242 290
#     4  10  19  31  47  69  97 130 166 202 241 290
#
# _framework density 16.286110999999998
#
# number of rings (size 3 to 8) (size 9 to 14) (size 15 to 20)
#    0.000    2.250    2.500    1.125    0.000    6.500 
#    0.000    0.625    0.000    0.000    0.000    0.875 
#    0.000    0.000    0.000    0.000    0.000    0.000 
#
# Total GULP energy -356322.164469 kJ/mol
# GULP energy per Si atom -5567.533820 kJ/mol
# Density = 1.624904 g / cm^3
# Si number density = 16.286111 Si / 1000 Ang^3
#
#
#
# Elastic Constant Matrix: (Units=GPa)
#
#
# Indices 1 2 3 4 5 6 
#
# 1 85.7980 45.2990 12.3403 0.0000 0.0000 0.0000
# 2 45.2990 90.5746 16.8061 0.0000 0.0000 0.0000
# 3 12.3403 16.8061 36.2903 0.0000 0.0000 0.0000
# 4 0.0000 0.0000 0.0000 6.4221 0.0000 0.0000
# 5 0.0000 0.0000 0.0000 0.0000 24.0290 0.0000
# 6 0.0000 0.0000 0.0000 0.0000 0.0000 16.9534
#
#
#
# Elastic Compliance Matrix: (Units=1/GPa)
#
#
# Indices 1 2 3 4 5 6 
#
# 1 0.015955 -0.007628 -0.001893 0.000000 0.000000 0.000000
# 2 -0.007628 0.015726 -0.004689 0.000000 0.000000 0.000000
# 3 -0.001893 -0.004689 0.030371 0.000000 0.000000 0.000000
# 4 0.000000 0.000000 0.000000 0.155713 0.000000 0.000000
# 5 0.000000 0.000000 0.000000 0.000000 0.041616 0.000000
# 6 0.000000 0.000000 0.000000 0.000000 0.000000 0.058985
#
#
# Mechanical properties :
#
#
# Convention : Reuss Voigt Hill
#
# Bulk Modulus (GPa) = 29.73369 40.17263 34.95316
# Shear Modulus (GPa) = 13.96661 18.69538 16.33100
#
# Velocity S-wave (km/s) = 2.93162 3.39179 3.17007
# Velocity P-wave (km/s) = 5.45490 6.32925 5.90827
#
# Compressibility (1/GPa) = 0.03363188
#
# Stress axis : x y z
#
# Youngs Moduli (GPa) = 62.67581 63.58976 32.92666
#
# Poissons Ratio (x) = 0.48509 0.06232
# Poissons Ratio (y) = 0.47812 0.15438
# Poissons Ratio (z) = 0.11863 0.29815
#
# Static dielectric constant tensor:
#      x y z
#    x 1.572730 0.000000 0.000000 
#    y 0.000000 1.572370 0.000000 
#    z 0.000000 0.000000 1.532900 
# 
# From -- ./inp_files/21229.got.cif
#   From: 2010.05.17/outbox.cif.g08.bks.cpg/sg62_11_cif.got.tgz:21229.got - 2010.06.03 15:25:27.
