data_PCOD9461381
_publ_section_title
;
Structure prediction by ZEFSAII (Michael W. Deem and Ramdas Pophale) SiO2 
 PCOD9461381
Probable space group: P N M A
;
_chemical_formula_sum "Si O2"
_cell_formula_units_Z 48
_cell_length_a 8.659674
_cell_length_b 20.580690
_cell_length_c 15.783314
_cell_angle_alpha 90.000000
_cell_angle_beta 90.000000
_cell_angle_gamma 90.000000
_cell_volume 2812.934831
_symmetry_space_group_name_H-M "P N M A"
_symmetry_group_IT_number 62
_symmetry_cell_setting 'orthorhombic'
loop_
_space_group_symop_operation_xyz
x,y,z
1/2-x,-y,1/2+z
1/2+x,1/2-y,1/2-z
-x,1/2+y,-z
-x,-y,-z
1/2+x,y,1/2-z
1/2-x,1/2+y,1/2+z
x,1/2-y,z
loop_
_atom_site_type_symbol
_atom_site_label
_atom_site_fract_x
_atom_site_fract_y
_atom_site_fract_z
Si Si1 0.872773 0.491404 0.222816
Si Si2 0.999954 0.178882 0.869235
Si Si3 0.927751 0.546176 0.625765
Si Si4 0.072866 0.419393 0.554601
Si Si5 0.320181 0.863390 0.211974
Si Si6 0.432833 0.044595 0.572386
O O1 0.738941 0.455466 0.170472
O O2 0.811819 0.561137 0.257626
O O3 0.943228 0.451124 0.300953
O O4 0.011985 0.511820 0.159987
O O5 0.001452 0.250000 0.909003
O O6 0.838933 0.165160 0.821047
O O7 0.009430 0.116409 0.929719
O O8 0.122426 0.173989 0.793851
O O9 0.946793 0.593943 0.545336
O O10 0.953646 0.474842 0.583602
O O11 0.069459 0.365266 0.628538
O O12 0.249177 0.446884 0.561919
O O13 0.500000 0.000000 0.500000
#
# Coordination Sequence:
#
# PCOD9461381 Si02
#       6
#     8   8   8   8   8   8
#     4  10  17  27  43  63  90 129 158 198 238 291
#     4  10  19  30  47  68  96 131 162 188 231 288
#     4  10  17  26  41  61  92 121 160 191 246 285
#     4   9  17  28  42  63  88 126 160 199 235 289
#     4   9  17  29  44  63  93 127 163 188 228 279
#     4  10  18  31  46  66  94 129 163 203 244 282
#
# _framework density 17.064028
#
# number of rings (size 3 to 8) (size 9 to 14) (size 15 to 20)
#    0.000    2.333    1.667    5.500    0.000    0.000 
#    0.000    0.000    0.000    0.000    0.000    0.000 
#    0.000    6.667    0.000    0.000    0.000    1.833 
#
# Total GULP energy -267219.278415 kJ/mol
# GULP energy per Si atom -5567.068300 kJ/mol
# Density = 1.702519 g / cm^3
# Si number density = 17.064028 Si / 1000 Ang^3
#
#
#
# Elastic Constant Matrix: (Units=GPa)
#
#
# Indices 1 2 3 4 5 6 
#
# 1 36.7088 3.8685 18.2035 0.0000 0.0000 0.0000
# 2 3.8685 56.7425 24.5833 0.0000 0.0000 0.0000
# 3 18.2035 24.5833 94.4572 0.0000 0.0000 0.0000
# 4 0.0000 0.0000 0.0000 12.4899 0.0000 0.0000
# 5 0.0000 0.0000 0.0000 0.0000 27.6324 0.0000
# 6 0.0000 0.0000 0.0000 0.0000 0.0000 3.1034
#
#
#
# Elastic Compliance Matrix: (Units=1/GPa)
#
#
# Indices 1 2 3 4 5 6 
#
# 1 0.030133 0.000520 -0.005943 0.000000 0.000000 0.000000
# 2 0.000520 0.019872 -0.005272 0.000000 0.000000 0.000000
# 3 -0.005943 -0.005272 0.013104 0.000000 0.000000 0.000000
# 4 0.000000 0.000000 0.000000 0.080064 0.000000 0.000000
# 5 0.000000 0.000000 0.000000 0.000000 0.036189 0.000000
# 6 0.000000 0.000000 0.000000 0.000000 0.000000 0.322223
#
#
# Mechanical properties :
#
#
# Convention : Reuss Voigt Hill
#
# Bulk Modulus (GPa) = 23.96894 31.24657 27.60775
# Shear Modulus (GPa) = 9.31303 18.06204 13.68753
#
# Velocity S-wave (km/s) = 2.33871 3.25697 2.83526
# Velocity P-wave (km/s) = 4.62274 5.70043 5.18963
#
# Compressibility (1/GPa) = 0.04172066
#
# Stress axis : x y z
#
# Youngs Moduli (GPa) = 33.18568 50.32172 76.31160
#
# Poissons Ratio (x) = -0.02618 0.45349
# Poissons Ratio (y) = -0.01726 0.40233
# Poissons Ratio (z) = 0.19721 0.26530
#
# Static dielectric constant tensor:
#      x y z
#    x 1.624290 0.000000 0.000000 
#    y 0.000000 1.678050 0.000000 
#    z 0.000000 0.000000 1.645620 
# 
# From -- ./inp_files/17276.got.cif
#   From: 2010.05.17/outbox.cif.g08.bks.cpg/sg62_9_cif.got.tgz:17276.got - 2010.06.03 15:25:27.
