data_PCOD9461094
_publ_section_title
;
Structure prediction by ZEFSAII (Michael W. Deem and Ramdas Pophale) SiO2 
 PCOD9461094
Probable space group: P B C A
;
_chemical_formula_sum "Si O2"
_cell_formula_units_Z 40
_cell_length_a 18.424536
_cell_length_b 8.614782
_cell_length_c 10.431488
_cell_angle_alpha 90.000000
_cell_angle_beta 90.000000
_cell_angle_gamma 90.000000
_cell_volume 1655.720837
_symmetry_space_group_name_H-M "P B C A"
_symmetry_group_IT_number 61
_symmetry_cell_setting 'orthorhombic'
loop_
_space_group_symop_operation_xyz
x,y,z
1/2-x,-y,1/2+z
1/2+x,1/2-y,-z
-x,1/2+y,1/2-z
-x,-y,-z
1/2+x,y,1/2-z
1/2-x,1/2+y,z
x,1/2-y,1/2+z
loop_
_atom_site_type_symbol
_atom_site_label
_atom_site_fract_x
_atom_site_fract_y
_atom_site_fract_z
Si Si1 0.927833 0.672135 0.472197
Si Si2 0.692514 0.959905 0.348905
Si Si3 0.386836 0.517509 0.387121
Si Si4 0.029929 0.402468 0.251280
Si Si5 0.345358 0.105011 0.133314
O O1 0.866571 0.545736 0.438187
O O2 0.892116 0.823023 0.537513
O O3 0.958220 0.749614 0.339706
O O4 0.976896 0.620457 0.595109
O O5 0.677011 0.778187 0.332123
O O6 0.680223 0.028011 0.207397
O O7 0.773806 0.001008 0.386579
O O8 0.457968 0.477440 0.306362
O O9 0.382218 0.386017 0.494315
O O10 0.098269 0.516608 0.225419
#
# Coordination Sequence:
#
# PCOD9461094 Si02
#       5
#     8   8   8   8   8
#     4  11  24  49  74 107 149 196 240 305 364 433
#     4  12  28  45  77 105 145 202 246 310 374 442
#     4  11  27  47  75 110 149 192 255 301 373 438
#     4  11  26  48  79 110 158 188 253 302 370 446
#     4  11  27  47  71 108 149 193 250 309 374 442
#
# _framework density 24.158664999999999
#
# number of rings (size 3 to 8) (size 9 to 14) (size 15 to 20)
#    0.000    0.800    2.000    4.800   11.200    0.800 
#    0.000    0.000    0.000    0.000    0.000    0.000 
#    0.000    0.000    0.000    0.000    0.000    0.000 
#
# Total GULP energy -223770.574673 kJ/mol
# GULP energy per Si atom -5594.264367 kJ/mol
# Density = 2.410368 g / cm^3
# Si number density = 24.158665 Si / 1000 Ang^3
#
#
#
# Elastic Constant Matrix: (Units=GPa)
#
#
# Indices 1 2 3 4 5 6 
#
# 1 94.8822 52.0129 25.4868 0.0000 0.0000 0.0000
# 2 52.0129 82.4678 39.1145 0.0000 0.0000 0.0000
# 3 25.4868 39.1145 141.6192 0.0000 0.0000 0.0000
# 4 0.0000 0.0000 0.0000 -5.0422 0.0000 0.0000
# 5 0.0000 0.0000 0.0000 0.0000 30.2230 0.0000
# 6 0.0000 0.0000 0.0000 0.0000 0.0000 16.2918
#
#
#
# Elastic Compliance Matrix: (Units=1/GPa)
#
#
# Indices 1 2 3 4 5 6 
#
# 1 0.016110 -0.010110 -0.000107 0.000000 0.000000 0.000000
# 2 -0.010110 0.020299 -0.003787 0.000000 0.000000 0.000000
# 3 -0.000107 -0.003787 0.008126 0.000000 0.000000 0.000000
# 4 0.000000 0.000000 0.000000 -0.198325 0.000000 0.000000
# 5 0.000000 0.000000 0.000000 0.000000 0.033087 0.000000
# 6 0.000000 0.000000 0.000000 0.000000 0.000000 0.061381
#
#
# Mechanical properties :
#
#
# Convention : Reuss Voigt Hill
#
# Bulk Modulus (GPa) = 60.50587 61.35526 60.93056
# Shear Modulus (GPa) = -193.76611 21.78483 -85.99064
#
# Velocity S-wave (km/s) = -8.96548 3.00616 -5.97255
# Velocity P-wave (km/s) = 9.05944 6.12382 4.72082
#
# Compressibility (1/GPa) = 0.01652732
#
# Stress axis : x y z
#
# Youngs Moduli (GPa) = 62.07188 49.26446 123.05642
#
# Poissons Ratio (x) = 0.49807 0.01316
# Poissons Ratio (y) = 0.62756 0.46600
# Poissons Ratio (z) = 0.00664 0.18656
#
# Static dielectric constant tensor:
#      x y z
#    x 1.929440 0.000000 0.000000 
#    y 0.000000 1.992290 0.000000 
#    z 0.000000 0.000000 1.998060 
# 
# From -- ./inp_files/6082.got.cif
#   From: 2010.05.17/outbox.cif.g08.bks.cpg/sg61_4_cif.got.tgz:6082.got - 2010.06.03 15:17:17.
