data_PCOD9461232
_publ_section_title
;
Structure prediction by ZEFSAII (Michael W. Deem and Ramdas Pophale) SiO2 
 PCOD9461232
Probable space group: P B C A
;
_chemical_formula_sum "Si O2"
_cell_formula_units_Z 28
_cell_length_a 8.084065
_cell_length_b 9.707757
_cell_length_c 13.478603
_cell_angle_alpha 90.000000
_cell_angle_beta 90.000000
_cell_angle_gamma 90.000000
_cell_volume 1057.775674
_symmetry_space_group_name_H-M "P B C A"
_symmetry_group_IT_number 61
_symmetry_cell_setting 'orthorhombic'
loop_
_space_group_symop_operation_xyz
x,y,z
1/2-x,-y,1/2+z
1/2+x,1/2-y,-z
-x,1/2+y,1/2-z
-x,-y,-z
1/2+x,y,1/2-z
1/2-x,1/2+y,z
x,1/2-y,1/2+z
loop_
_atom_site_type_symbol
_atom_site_label
_atom_site_fract_x
_atom_site_fract_y
_atom_site_fract_z
Si Si1 0.500000 0.500000 0.500000
Si Si2 0.237992 0.053372 0.161710
Si Si3 0.869865 0.011557 0.122664
Si Si4 0.779102 0.757763 0.505113
O O1 0.618188 0.480834 0.401005
O O2 0.438015 0.653265 0.462859
O O3 0.220766 0.200581 0.106575
O O4 0.282549 0.055828 0.276257
O O5 0.059461 0.982349 0.147408
O O6 0.771058 0.886591 0.069023
O O7 0.860994 0.138566 0.046190
#
# Coordination Sequence:
#
# PCOD9461232 Si02
#       4
#     4   8   8   8
#     4  12  28  50  82 118 170 222 288 352 432 504
#     4  12  29  53  82 123 173 224 292 358 436 524
#     4  12  30  50  86 124 171 228 294 353 448 520
#     4  12  28  54  84 125 168 232 283 371 428 522
#
# _framework density 26.47064
#
# number of rings (size 3 to 8) (size 9 to 14) (size 15 to 20)
#    0.000    0.000    2.857    4.286    8.000    2.286 
#    0.000    0.000    0.000    0.000    0.000    0.000 
#    0.000    0.000    0.000    0.000    0.000    0.000 
#
# Total GULP energy -155997.509860 kJ/mol
# GULP energy per Si atom -5571.339638 kJ/mol
# Density = 2.641039 g / cm^3
# Si number density = 26.470640 Si / 1000 Ang^3
#
#
#
# Elastic Constant Matrix: (Units=GPa)
#
#
# Indices 1 2 3 4 5 6 
#
# 1 54.8535 8.6073 46.9882 0.0000 0.0000 0.0000
# 2 8.6073 150.2704 49.8815 0.0000 0.0000 0.0000
# 3 46.9882 49.8815 207.0320 0.0000 0.0000 0.0000
# 4 0.0000 0.0000 0.0000 26.8438 0.0000 0.0000
# 5 0.0000 0.0000 0.0000 0.0000 52.2277 0.0000
# 6 0.0000 0.0000 0.0000 0.0000 0.0000 56.5758
#
#
#
# Elastic Compliance Matrix: (Units=1/GPa)
#
#
# Indices 1 2 3 4 5 6 
#
# 1 0.022657 0.000445 -0.005249 0.000000 0.000000 0.000000
# 2 0.000445 0.007242 -0.001846 0.000000 0.000000 0.000000
# 3 -0.005249 -0.001846 0.006466 0.000000 0.000000 0.000000
# 4 0.000000 0.000000 0.000000 0.037253 0.000000 0.000000
# 5 0.000000 0.000000 0.000000 0.000000 0.019147 0.000000
# 6 0.000000 0.000000 0.000000 0.000000 0.000000 0.017675
#
#
# Mechanical properties :
#
#
# Convention : Reuss Voigt Hill
#
# Bulk Modulus (GPa) = 43.35658 69.23443 56.29551
# Shear Modulus (GPa) = 38.04316 47.57472 42.80894
#
# Velocity S-wave (km/s) = 3.79513 4.24401 4.02583
# Velocity P-wave (km/s) = 5.96814 7.08714 6.55157
#
# Compressibility (1/GPa) = 0.02306455
#
# Stress axis : x y z
#
# Youngs Moduli (GPa) = 44.13574 138.08543 154.64752
#
# Poissons Ratio (x) = -0.06141 0.81182
# Poissons Ratio (y) = -0.01963 0.28544
# Poissons Ratio (z) = 0.23169 0.25488
#
# Static dielectric constant tensor:
#      x y z
#    x -119.486590 0.000000 0.000000 
#    y 0.000000 4.307110 0.000000 
#    z 0.000000 0.000000 1.928810 
# 
# From -- ./inp_files/1636.got.cif
#   From: 2010.05.17/outbox.cif.g08.bks.cpg/sg61_1_cif.got.tgz:1636.got - 2010.06.03 15:17:17.
