data_PCOD9461783
_publ_section_title
;
Structure prediction by ZEFSAII (Michael W. Deem and Ramdas Pophale) SiO2 
 PCOD9461783
Probable space group: P N M A
;
_chemical_formula_sum "Si O2"
_cell_formula_units_Z 48
_cell_length_a 15.573661
_cell_length_b 12.835755
_cell_length_c 11.534272
_cell_angle_alpha 90.000000
_cell_angle_beta 90.000000
_cell_angle_gamma 90.000000
_cell_volume 2305.697478
_symmetry_space_group_name_H-M "P N M A"
_symmetry_group_IT_number 62
_symmetry_cell_setting 'orthorhombic'
loop_
_space_group_symop_operation_xyz
x,y,z
1/2-x,-y,1/2+z
1/2+x,1/2-y,1/2-z
-x,1/2+y,-z
-x,-y,-z
1/2+x,y,1/2-z
1/2-x,1/2+y,1/2+z
x,1/2-y,z
loop_
_atom_site_type_symbol
_atom_site_label
_atom_site_fract_x
_atom_site_fract_y
_atom_site_fract_z
Si Si1 0.198591 0.370617 0.796854
Si Si2 0.333686 0.466698 0.117668
Si Si3 0.834994 0.866862 0.927874
Si Si4 0.839215 0.864600 0.545497
Si Si5 0.968958 0.367249 0.556591
Si Si6 0.876909 0.484055 0.746473
O O1 0.182319 0.250000 0.757461
O O2 0.148743 0.463995 0.730725
O O3 0.297266 0.403719 0.768915
O O4 0.178723 0.373551 0.933472
O O5 0.260212 0.380655 0.128587
O O6 0.412588 0.419265 0.045769
O O7 0.289812 0.552579 0.032132
O O8 0.868582 0.750000 0.902825
O O9 0.887894 0.963146 0.871672
O O10 0.802471 0.750000 0.548319
O O11 0.933218 0.861961 0.484975
O O12 0.852367 0.915192 0.669294
O O13 0.937310 0.250000 0.573144
O O14 0.953121 0.429528 0.675319
#
# Coordination Sequence:
#
# PCOD9461783 Si02
#       6
#     8   8   8   8   8   8
#     4  10  19  31  48  70 101 137 165 196 246 301
#     4  10  18  30  49  71  99 128 168 205 244 296
#     4  10  19  31  48  70 101 137 165 196 246 301
#     4  10  19  31  50  77 101 126 167 215 252 287
#     4  10  19  33  54  73  99 134 167 209 256 293
#     4  10  18  30  49  71  99 128 168 205 244 296
#
# _framework density 20.817996000000001
#
# number of rings (size 3 to 8) (size 9 to 14) (size 15 to 20)
#    0.000    2.000    3.333    4.000    0.000    0.000 
#    0.000    0.000    0.000    4.000    0.000    4.667 
#    0.000    0.000    0.000    0.000    0.000    0.000 
#
# Total GULP energy -267373.850018 kJ/mol
# GULP energy per Si atom -5570.288542 kJ/mol
# Density = 2.077061 g / cm^3
# Si number density = 20.817996 Si / 1000 Ang^3
#
#
#
# Elastic Constant Matrix: (Units=GPa)
#
#
# Indices 1 2 3 4 5 6 
#
# 1 36.3293 -0.9924 1.6227 0.0000 0.0000 0.0000
# 2 -0.9924 128.3620 32.6328 0.0000 0.0000 0.0000
# 3 1.6227 32.6328 74.0273 0.0000 0.0000 0.0000
# 4 0.0000 0.0000 0.0000 23.9703 0.0000 0.0000
# 5 0.0000 0.0000 0.0000 0.0000 17.6272 0.0000
# 6 0.0000 0.0000 0.0000 0.0000 0.0000 23.8465
#
#
#
# Elastic Compliance Matrix: (Units=1/GPa)
#
#
# Indices 1 2 3 4 5 6 
#
# 1 0.027572 0.000413 -0.000787 0.000000 0.000000 0.000000
# 2 0.000413 0.008780 -0.003879 0.000000 0.000000 0.000000
# 3 -0.000787 -0.003879 0.015236 0.000000 0.000000 0.000000
# 4 0.000000 0.000000 0.000000 0.041718 0.000000 0.000000
# 5 0.000000 0.000000 0.000000 0.000000 0.056731 0.000000
# 6 0.000000 0.000000 0.000000 0.000000 0.000000 0.041935
#
#
# Mechanical properties :
#
#
# Convention : Reuss Voigt Hill
#
# Bulk Modulus (GPa) = 23.21123 33.91610 28.56367
# Shear Modulus (GPa) = 23.27329 26.78582 25.02955
#
# Velocity S-wave (km/s) = 3.34719 3.59090 3.47119
# Velocity P-wave (km/s) = 5.10999 5.78964 5.46040
#
# Compressibility (1/GPa) = 0.04308259
#
# Stress axis : x y z
#
# Youngs Moduli (GPa) = 36.26811 113.89637 65.63439
#
# Poissons Ratio (x) = -0.04705 0.05162
# Poissons Ratio (y) = -0.01498 0.25462
# Poissons Ratio (z) = 0.02853 0.44185
#
# Static dielectric constant tensor:
#      x y z
#    x 1.774930 0.000000 0.000000 
#    y 0.000000 1.803600 0.000000 
#    z 0.000000 0.000000 1.830370 
# 
# From -- ./inp_files/14190.got.cif
#   From: 2010.05.17/outbox.cif.g08.bks.cpg/sg62_8_cif.got.tgz:14190.got - 2010.06.03 15:25:27.
