data_PCOD9461364
_publ_section_title
;
Structure prediction by ZEFSAII (Michael W. Deem and Ramdas Pophale) SiO2 
 PCOD9461364
Probable space group: P N M A
;
_chemical_formula_sum "Si O2"
_cell_formula_units_Z 44
_cell_length_a 12.183321
_cell_length_b 12.183683
_cell_length_c 12.861680
_cell_angle_alpha 90.000000
_cell_angle_beta 90.000000
_cell_angle_gamma 90.000000
_cell_volume 1909.158467
_symmetry_space_group_name_H-M "P N M A"
_symmetry_group_IT_number 62
_symmetry_cell_setting 'orthorhombic'
loop_
_space_group_symop_operation_xyz
x,y,z
1/2-x,-y,1/2+z
1/2+x,1/2-y,1/2-z
-x,1/2+y,-z
-x,-y,-z
1/2+x,y,1/2-z
1/2-x,1/2+y,1/2+z
x,1/2-y,z
loop_
_atom_site_type_symbol
_atom_site_label
_atom_site_fract_x
_atom_site_fract_y
_atom_site_fract_z
Si Si1 0.401495 0.987027 0.848693
Si Si2 0.650736 0.508572 0.597667
Si Si3 0.573149 0.250000 0.194261
Si Si4 0.217724 0.750000 0.681387
Si Si5 0.892692 0.619260 0.312633
Si Si6 0.196328 0.477091 0.120171
Si Si7 0.429502 0.250000 0.352245
O O1 0.283517 0.003802 0.900240
O O2 0.441789 0.863635 0.866973
O O3 0.497408 0.073676 0.867191
O O4 0.374058 0.988652 0.724852
O O5 0.612254 0.439529 0.698086
O O6 0.622177 0.472919 0.481573
O O7 0.612840 0.635092 0.607009
O O8 0.710806 0.250000 0.211681
O O9 0.557718 0.250000 0.324645
O O10 0.236356 0.635936 0.625947
O O11 0.093508 0.750000 0.726162
O O12 0.892922 0.750000 0.302704
O O13 0.784951 0.575433 0.372734
#
# Coordination Sequence:
#
# PCOD9461364 Si02
#       7
#     8   8   4   4   8   8   4
#     4  10  20  41  62  85 121 160 200 244 308 353
#     4  11  23  39  65  91 121 157 204 253 300 353
#     4  10  16  34  64  86 109 147 199 253 285 357
#     4  10  18  40  60  87 114 159 197 247 302 353
#     4  11  24  42  59  88 128 165 198 246 305 363
#     4  10  23  40  63  92 121 155 206 250 298 359
#     4  12  18  38  64  89 111 158 200 250 305 342
#
# _framework density 23.046804000000002
#
# number of rings (size 3 to 8) (size 9 to 14) (size 15 to 20)
#    0.000    1.455    7.273    0.000    2.545    4.364 
#    0.000    0.000    0.000    0.000    0.000    0.000 
#    0.000    0.000    0.000    0.000    0.000    0.000 
#
# Total GULP energy -245588.365617 kJ/mol
# GULP energy per Si atom -5581.553764 kJ/mol
# Density = 2.299435 g / cm^3
# Si number density = 23.046804 Si / 1000 Ang^3
#
#
#
# Elastic Constant Matrix: (Units=GPa)
#
#
# Indices 1 2 3 4 5 6 
#
# 1 55.6157 29.1771 -5.5630 0.0000 0.0000 0.0000
# 2 29.1771 165.8095 2.0042 0.0000 0.0000 0.0000
# 3 -5.5630 2.0042 65.3235 0.0000 0.0000 0.0000
# 4 0.0000 0.0000 0.0000 22.2936 0.0000 0.0000
# 5 0.0000 0.0000 0.0000 0.0000 -2.3031 0.0000
# 6 0.0000 0.0000 0.0000 0.0000 0.0000 29.1016
#
#
#
# Elastic Compliance Matrix: (Units=1/GPa)
#
#
# Indices 1 2 3 4 5 6 
#
# 1 0.020022 -0.003545 0.001814 0.000000 0.000000 0.000000
# 2 -0.003545 0.006661 -0.000506 0.000000 0.000000 0.000000
# 3 0.001814 -0.000506 0.015478 0.000000 0.000000 0.000000
# 4 0.000000 0.000000 0.000000 0.044856 0.000000 0.000000
# 5 0.000000 0.000000 0.000000 0.000000 -0.434206 0.000000
# 6 0.000000 0.000000 0.000000 0.000000 0.000000 0.034362
#
#
# Mechanical properties :
#
#
# Convention : Reuss Voigt Hill
#
# Bulk Modulus (GPa) = 26.53499 37.55392 32.04446
# Shear Modulus (GPa) = -16.90390 27.22712 5.16161
#
# Velocity S-wave (km/s) = -2.71118 3.44086 1.49816
# Velocity P-wave (km/s) = 1.31827 5.66710 4.11423
#
# Compressibility (1/GPa) = 0.03768609
#
# Stress axis : x y z
#
# Youngs Moduli (GPa) = 49.94556 150.12844 64.60604
#
# Poissons Ratio (x) = 0.53222 -0.11718
# Poissons Ratio (y) = 0.17706 0.03271
# Poissons Ratio (z) = -0.09059 0.07600
#
# Static dielectric constant tensor:
#      x y z
#    x 1.991490 0.000000 0.000000 
#    y 0.000000 1.813860 0.000000 
#    z 0.000000 0.000000 1.908670 
# 
# From -- ./inp_files/18840.got.cif
#   From: 2010.05.17/outbox.cif.g08.bks.cpg/sg62_10_cif.got.tgz:18840.got - 2010.06.03 15:25:27.
