data_PCOD9461591
_publ_section_title
;
Structure prediction by ZEFSAII (Michael W. Deem and Ramdas Pophale) SiO2 
 PCOD9461591
Probable space group: P N M A
;
_chemical_formula_sum "Si O2"
_cell_formula_units_Z 40
_cell_length_a 6.998806
_cell_length_b 13.254575
_cell_length_c 21.100202
_cell_angle_alpha 90.000000
_cell_angle_beta 90.000000
_cell_angle_gamma 90.000000
_cell_volume 1957.385538
_symmetry_space_group_name_H-M "P N M A"
_symmetry_group_IT_number 62
_symmetry_cell_setting 'orthorhombic'
loop_
_space_group_symop_operation_xyz
x,y,z
1/2-x,-y,1/2+z
1/2+x,1/2-y,1/2-z
-x,1/2+y,-z
-x,-y,-z
1/2+x,y,1/2-z
1/2-x,1/2+y,1/2+z
x,1/2-y,z
loop_
_atom_site_type_symbol
_atom_site_label
_atom_site_fract_x
_atom_site_fract_y
_atom_site_fract_z
Si Si1 0.661460 0.923910 0.393277
Si Si2 0.857442 0.250000 0.658606
Si Si3 0.809127 0.639021 0.929977
Si Si4 0.414768 0.250000 0.695303
Si Si5 0.710625 0.576135 0.069771
Si Si6 0.260008 0.638956 0.966782
O O1 0.684139 0.849200 0.334273
O O2 0.433915 0.925589 0.409554
O O3 0.754322 0.880761 0.457820
O O4 0.722776 0.040359 0.387133
O O5 0.628408 0.250000 0.668146
O O6 0.933184 0.250000 0.729550
O O7 0.896410 0.350263 0.617852
O O8 0.761441 0.750000 0.904705
O O9 0.036669 0.639512 0.945986
O O10 0.711386 0.620966 0.998658
O O11 0.649605 0.459474 0.065645
O O12 0.337739 0.750000 0.952696
#
# Coordination Sequence:
#
# PCOD9461591 Si02
#       6
#     8   4   8   4   8   8
#     4   8  13  20  32  53  79 100 121 153 196 233
#     4  10  18  28  40  56  80 108 133 158 184 222
#     4   8  11  17  32  54  79  99 115 152 205 241
#     4  10  18  28  40  56  80 108 133 158 184 222
#     4   8  13  20  32  53  79 100 121 153 196 233
#     4   8  11  17  32  54  79  99 115 152 205 241
#
# _framework density 20.435424000000001
#
# number of rings (size 3 to 8) (size 9 to 14) (size 15 to 20)
#    0.000    3.600    2.000    2.400    0.000    0.000 
#    0.000    0.000    0.000    1.200    0.000    5.600 
#    0.000    0.000    0.000    0.000    0.000    0.000 
#
# Total GULP energy -223234.689148 kJ/mol
# GULP energy per Si atom -5580.867229 kJ/mol
# Density = 2.038891 g / cm^3
# Si number density = 20.435424 Si / 1000 Ang^3
#
#
#
# Elastic Constant Matrix: (Units=GPa)
#
#
# Indices 1 2 3 4 5 6 
#
# 1 77.3776 14.3353 14.9767 0.0000 0.0000 0.0000
# 2 14.3353 243.3951 79.8954 0.0000 0.0000 0.0000
# 3 14.9767 79.8954 83.4716 0.0000 0.0000 0.0000
# 4 0.0000 0.0000 0.0000 23.6726 0.0000 0.0000
# 5 0.0000 0.0000 0.0000 0.0000 17.5794 0.0000
# 6 0.0000 0.0000 0.0000 0.0000 0.0000 -5.0086
#
#
#
# Elastic Compliance Matrix: (Units=1/GPa)
#
#
# Indices 1 2 3 4 5 6 
#
# 1 0.013389 0.000000 -0.002402 0.000000 0.000000 0.000000
# 2 0.000000 0.005991 -0.005734 0.000000 0.000000 0.000000
# 3 -0.002402 -0.005734 0.017900 0.000000 0.000000 0.000000
# 4 0.000000 0.000000 0.000000 0.042243 0.000000 0.000000
# 5 0.000000 0.000000 0.000000 0.000000 0.056885 0.000000
# 6 0.000000 0.000000 0.000000 0.000000 0.000000 -0.199655
#
#
# Mechanical properties :
#
#
# Convention : Reuss Voigt Hill
#
# Bulk Modulus (GPa) = 47.60481 69.18435 58.39458
# Shear Modulus (GPa) = -125.08349 26.91781 -49.08284
#
# Velocity S-wave (km/s) = -7.83212 3.63328 -4.90619
# Velocity P-wave (km/s) = 7.64484 7.17841 1.85930
#
# Compressibility (1/GPa) = 0.02100628
#
# Stress axis : x y z
#
# Youngs Moduli (GPa) = 74.69047 166.92278 55.86723
#
# Poissons Ratio (x) = 0.00000 0.13420
# Poissons Ratio (y) = 0.00000 0.32035
# Poissons Ratio (z) = 0.17942 0.95716
#
# Static dielectric constant tensor:
#      x y z
#    x 1.847180 0.000000 0.000000 
#    y 0.000000 1.767030 0.000000 
#    z 0.000000 0.000000 1.658240 
# 
# From -- ./inp_files/12089.got.cif
#   From: 2010.05.17/outbox.cif.g08.bks.cpg/sg62_7_cif.got.tgz:12089.got - 2010.06.03 15:25:27.
