data_PCOD9461299
_publ_section_title
;
Structure prediction by ZEFSAII (Michael W. Deem and Ramdas Pophale) SiO2 
 PCOD9461299
Probable space group: P B C A
;
_chemical_formula_sum "Si O2"
_cell_formula_units_Z 64
_cell_length_a 21.000000
_cell_length_b 18.000000
_cell_length_c 9.000000
_cell_angle_alpha 90.000000
_cell_angle_beta 90.000000
_cell_angle_gamma 90.000000
_cell_volume 3402.000000
_symmetry_space_group_name_H-M "P B C A"
_symmetry_group_IT_number 61
_symmetry_cell_setting 'orthorhombic'
loop_
_space_group_symop_operation_xyz
x,y,z
1/2-x,-y,1/2+z
1/2+x,1/2-y,-z
-x,1/2+y,1/2-z
-x,-y,-z
1/2+x,y,1/2-z
1/2-x,1/2+y,z
x,1/2-y,1/2+z
loop_
_atom_site_type_symbol
_atom_site_label
_atom_site_fract_x
_atom_site_fract_y
_atom_site_fract_z
Si Si1 0.586725 0.866468 0.618420
Si Si2 0.816311 0.922412 0.803055
Si Si3 0.329519 0.591457 0.541795
Si Si4 0.832783 0.084934 0.394565
Si Si5 0.816944 0.097429 0.864741
Si Si6 0.060152 0.156425 0.050918
Si Si7 0.600086 0.812823 0.139615
Si Si8 0.948474 0.820278 0.305758
O O1 0.614821 0.901263 0.767496
O O2 0.636245 0.904320 0.505329
O O3 0.510613 0.877795 0.589872
O O4 0.597262 0.776444 0.619294
O O5 0.826480 0.893764 0.634942
O O6 0.743235 0.901906 0.856024
O O7 0.876391 0.890236 0.899705
O O8 0.818633 0.013085 0.800053
O O9 0.335351 0.502119 0.561816
O O10 0.258538 0.613234 0.605622
O O11 0.391718 0.631088 0.615949
O O12 0.861104 0.142825 0.513543
O O13 0.854605 0.161711 0.775209
O O14 0.061889 0.235571 0.137595
O O15 0.059462 0.170931 0.872720
O O16 0.524514 0.836849 0.157205
#
# Coordination Sequence:
#
# PCOD9461299 Si02
#       8
#     8   8   8   8   8   8   8   8
#     4  11  24  43  67  95 131 172 220 272 323 391
#     4  11  25  44  67  97 136 174 218 270 329 391
#     4  11  25  44  67  96 137 174 217 273 327 392
#     4  11  25  43  69  98 131 174 222 270 331 384
#     4  11  23  45  67  95 133 169 221 271 326 386
#     4  11  26  44  67  96 135 174 217 274 330 391
#     4  11  24  43  67  98 131 171 220 274 324 394
#     4  11  26  44  67  97 134 174 218 271 332 387
#
# _framework density 18.812463000000001
#
# number of rings (size 3 to 8) (size 9 to 14) (size 15 to 20)
#    0.000    1.000    3.750    1.500   10.500    4.000 
#    0.000    0.000    0.000    0.000    0.000    0.000 
#    0.000    0.000    0.000    0.000    0.000    0.000 
#
# Total GULP energy -356607.561438 kJ/mol
# GULP energy per Si atom -5571.993147 kJ/mol
# Density = 1.876965 g / cm^3
# Si number density = 18.812463 Si / 1000 Ang^3
#
#
#
# Elastic Constant Matrix: (Units=GPa)
#
#
# Indices 1 2 3 4 5 6 
#
# 1 197.1061 49.0430 42.7358 0.0000 0.0000 0.0000
# 2 49.0430 53.9960 9.3098 0.0000 0.0000 0.0000
# 3 42.7358 9.3098 85.8861 0.0000 0.0000 0.0000
# 4 0.0000 0.0000 0.0000 34.7704 0.0000 0.0000
# 5 0.0000 0.0000 0.0000 0.0000 42.9800 0.0000
# 6 0.0000 0.0000 0.0000 0.0000 0.0000 29.7078
#
#
#
# Elastic Compliance Matrix: (Units=1/GPa)
#
#
# Indices 1 2 3 4 5 6 
#
# 1 0.007214 -0.006046 -0.002934 0.000000 0.000000 0.000000
# 2 -0.006046 0.023940 0.000414 0.000000 0.000000 0.000000
# 3 -0.002934 0.000414 0.013059 0.000000 0.000000 0.000000
# 4 0.000000 0.000000 0.000000 0.028760 0.000000 0.000000
# 5 0.000000 0.000000 0.000000 0.000000 0.023267 0.000000
# 6 0.000000 0.000000 0.000000 0.000000 0.000000 0.033661
#
#
# Mechanical properties :
#
#
# Convention : Reuss Voigt Hill
#
# Bulk Modulus (GPa) = 36.92928 59.90727 48.41827
# Shear Modulus (GPa) = 32.03872 37.21827 34.62850
#
# Velocity S-wave (km/s) = 4.13129 4.45273 4.29502
# Velocity P-wave (km/s) = 6.51380 7.63867 7.09855
#
# Compressibility (1/GPa) = 0.02707878
#
# Stress axis : x y z
#
# Youngs Moduli (GPa) = 138.61896 41.77053 76.57834
#
# Poissons Ratio (x) = 0.25256 0.22470
# Poissons Ratio (y) = 0.83814 -0.03167
# Poissons Ratio (z) = 0.40673 -0.01727
#
# Static dielectric constant tensor:
#      x y z
#    x 1.621100 0.000000 0.000000 
#    y 0.000000 1.630080 0.000000 
#    z 0.000000 0.000000 2.067520 
# 
# From -- ./inp_files/4082.got.cif
#   From: 2010.05.17/outbox.ucp.g08.bks.cvg/sg61_3_cif.got.tgz:4082.got - 2010.06.11 16:28:26.
