data_PCOD9461493
_publ_section_title
;
Structure prediction by ZEFSAII (Michael W. Deem and Ramdas Pophale) SiO2 
 PCOD9461493
Probable space group: P N M A
;
_chemical_formula_sum "Si O2"
_cell_formula_units_Z 40
_cell_length_a 8.012306
_cell_length_b 20.510590
_cell_length_c 9.637698
_cell_angle_alpha 90.000000
_cell_angle_beta 90.000000
_cell_angle_gamma 90.000000
_cell_volume 1583.831565
_symmetry_space_group_name_H-M "P N M A"
_symmetry_group_IT_number 62
_symmetry_cell_setting 'orthorhombic'
loop_
_space_group_symop_operation_xyz
x,y,z
1/2-x,-y,1/2+z
1/2+x,1/2-y,1/2-z
-x,1/2+y,-z
-x,-y,-z
1/2+x,y,1/2-z
1/2-x,1/2+y,1/2+z
x,1/2-y,z
loop_
_atom_site_type_symbol
_atom_site_label
_atom_site_fract_x
_atom_site_fract_y
_atom_site_fract_z
Si Si1 0.351908 0.173574 0.937340
Si Si2 0.235163 0.324386 0.552567
Si Si3 0.187779 0.864423 0.754579
Si Si4 0.420791 0.543410 0.684617
Si Si5 0.554035 0.413750 0.623547
O O1 0.341222 0.250000 0.906318
O O2 0.545175 0.152832 0.914897
O O3 0.309817 0.164654 0.101016
O O4 0.213016 0.132844 0.853816
O O5 0.255184 0.250000 0.601141
O O6 0.249726 0.324114 0.384491
O O7 0.390826 0.369409 0.595586
O O8 0.995613 0.884439 0.782258
O O9 0.249691 0.940595 0.763308
O O10 0.491746 0.472841 0.720345
O O11 0.393390 0.548854 0.519593
#
# Coordination Sequence:
#
# PCOD9461493 Si02
#       5
#     8   8   8   8   8
#     4  10  19  31  50  76 102 133 167 205 253 302
#     4  10  19  31  50  76 102 133 167 205 253 302
#     4  10  17  32  48  74 107 130 162 210 254 302
#     4   9  18  32  48  69 102 138 169 200 248 304
#     4   9  19  34  46  70 105 139 167 201 246 303
#
# _framework density 25.255209000000001
#
# number of rings (size 3 to 8) (size 9 to 14) (size 15 to 20)
#    0.000    2.400    2.000    1.200    0.000    0.000 
#    3.600    4.000    0.000    0.000    0.000    5.600 
#    0.000    0.000    0.000    0.000    0.000    0.000 
#
# Total GULP energy -222967.351727 kJ/mol
# GULP energy per Si atom -5574.183793 kJ/mol
# Density = 2.519773 g / cm^3
# Si number density = 25.255209 Si / 1000 Ang^3
#
#
#
# Elastic Constant Matrix: (Units=GPa)
#
#
# Indices 1 2 3 4 5 6 
#
# 1 130.4646 84.0500 31.5147 0.0000 0.0000 0.0000
# 2 84.0500 121.7294 10.9827 0.0000 0.0000 0.0000
# 3 31.5147 10.9827 94.5862 0.0000 0.0000 0.0000
# 4 0.0000 0.0000 0.0000 13.5303 0.0000 0.0000
# 5 0.0000 0.0000 0.0000 0.0000 18.7770 0.0000
# 6 0.0000 0.0000 0.0000 0.0000 0.0000 34.8565
#
#
#
# Elastic Compliance Matrix: (Units=1/GPa)
#
#
# Indices 1 2 3 4 5 6 
#
# 1 0.015080 -0.010065 -0.003856 0.000000 0.000000 0.000000
# 2 -0.010065 0.015019 0.001609 0.000000 0.000000 0.000000
# 3 -0.003856 0.001609 0.011670 0.000000 0.000000 0.000000
# 4 0.000000 0.000000 0.000000 0.073908 0.000000 0.000000
# 5 0.000000 0.000000 0.000000 0.000000 0.053257 0.000000
# 6 0.000000 0.000000 0.000000 0.000000 0.000000 0.028689
#
#
# Mechanical properties :
#
#
# Convention : Reuss Voigt Hill
#
# Bulk Modulus (GPa) = 58.31755 66.65277 62.48516
# Shear Modulus (GPa) = 21.93357 28.11496 25.02427
#
# Velocity S-wave (km/s) = 2.95019 3.34014 3.15120
# Velocity P-wave (km/s) = 5.89460 6.42840 6.16728
#
# Compressibility (1/GPa) = 0.01714750
#
# Stress axis : x y z
#
# Youngs Moduli (GPa) = 66.31193 66.58267 85.68821
#
# Poissons Ratio (x) = 0.67012 0.33040
# Poissons Ratio (y) = 0.66740 -0.13791
# Poissons Ratio (z) = 0.25569 -0.10716
#
# Static dielectric constant tensor:
#      x y z
#    x 2.179720 0.000000 0.000000 
#    y 0.000000 1.980830 0.000000 
#    z 0.000000 0.000000 2.086750 
# 
# From -- ./inp_files/16780.got.cif
#   From: 2010.05.17/outbox.cif.g08.bks.cpg/sg62_9_cif.got.tgz:16780.got - 2010.06.03 15:25:27.
