data_PCOD9461751
_publ_section_title
;
Structure prediction by ZEFSAII (Michael W. Deem and Ramdas Pophale) SiO2 
 PCOD9461751
Probable space group: P N M A
;
_chemical_formula_sum "Si O2"
_cell_formula_units_Z 64
_cell_length_a 19.877191
_cell_length_b 7.774365
_cell_length_c 24.004543
_cell_angle_alpha 90.000000
_cell_angle_beta 90.000000
_cell_angle_gamma 90.000000
_cell_volume 3709.482954
_symmetry_space_group_name_H-M "P N M A"
_symmetry_group_IT_number 62
_symmetry_cell_setting 'orthorhombic'
loop_
_space_group_symop_operation_xyz
x,y,z
1/2-x,-y,1/2+z
1/2+x,1/2-y,1/2-z
-x,1/2+y,-z
-x,-y,-z
1/2+x,y,1/2-z
1/2-x,1/2+y,1/2+z
x,1/2-y,z
loop_
_atom_site_type_symbol
_atom_site_label
_atom_site_fract_x
_atom_site_fract_y
_atom_site_fract_z
Si Si1 0.363865 0.453957 0.069851
Si Si2 0.632666 0.552402 0.717082
Si Si3 0.352394 0.542421 0.942826
Si Si4 0.738391 0.460570 0.156959
Si Si5 0.712864 0.445155 0.821968
Si Si6 0.008091 0.038909 0.257729
Si Si7 0.344356 0.542717 0.733345
Si Si8 0.508160 0.040007 0.112396
O O1 0.364782 0.250000 0.078190
O O2 0.313669 0.526651 0.116153
O O3 0.439606 0.518372 0.082769
O O4 0.344523 0.491809 0.006659
O O5 0.622061 0.750000 0.699742
O O6 0.687504 0.476795 0.674479
O O7 0.670250 0.553660 0.777151
O O8 0.559127 0.475594 0.727131
O O9 0.353273 0.750000 0.940196
O O10 0.293586 0.483099 0.901136
O O11 0.424381 0.481429 0.918706
O O12 0.740432 0.250000 0.157170
O O13 0.687962 0.509394 0.207184
O O14 0.699835 0.250000 0.805304
O O15 0.791448 0.482895 0.812861
O O16 0.006384 0.250000 0.257638
O O17 0.078717 0.984145 0.230968
O O18 0.007283 0.988339 0.322817
O O19 0.344732 0.750000 0.732471
O O20 0.509219 0.250000 0.111570
#
# Coordination Sequence:
#
# PCOD9461751 Si02
#       8
#     8   8   8   8   8   8   8   8
#     4  11  21  33  47  64  90 126 167 202 232 270
#     4   9  16  29  50  72  94 122 158 193 229 279
#     4  10  18  30  46  66  94 126 161 194 230 273
#     4   8  14  25  44  67  90 120 154 186 223 273
#     4  11  21  32  45  66  94 124 156 196 240 276
#     4   9  14  25  49  75  94 120 156 191 226 273
#     4   9  16  29  50  70  90 121 156 189 230 279
#     4   9  16  27  45  68  94 123 158 194 223 264
#
# _framework density 17.253079
#
# number of rings (size 3 to 8) (size 9 to 14) (size 15 to 20)
#    0.000    2.500    2.500    2.625    0.000    0.000 
#    0.000    3.750    0.000    0.000    0.000    0.875 
#    0.000    0.000    0.000    0.000    0.000    0.000 
#
# Total GULP energy -356886.114258 kJ/mol
# GULP energy per Si atom -5576.345535 kJ/mol
# Density = 1.721381 g / cm^3
# Si number density = 17.253079 Si / 1000 Ang^3
#
#
#
# Elastic Constant Matrix: (Units=GPa)
#
#
# Indices 1 2 3 4 5 6 
#
# 1 123.5606 -0.3908 54.2271 0.0000 0.0000 0.0000
# 2 -0.3908 27.8541 -2.5680 0.0000 0.0000 0.0000
# 3 54.2271 -2.5680 83.5852 0.0000 0.0000 0.0000
# 4 0.0000 0.0000 0.0000 13.6326 0.0000 0.0000
# 5 0.0000 0.0000 0.0000 0.0000 21.6719 0.0000
# 6 0.0000 0.0000 0.0000 0.0000 0.0000 -4.1347
#
#
#
# Elastic Compliance Matrix: (Units=1/GPa)
#
#
# Indices 1 2 3 4 5 6 
#
# 1 0.011322 -0.000520 -0.007361 0.000000 0.000000 0.000000
# 2 -0.000520 0.036027 0.001444 0.000000 0.000000 0.000000
# 3 -0.007361 0.001444 0.016784 0.000000 0.000000 0.000000
# 4 0.000000 0.000000 0.000000 0.073353 0.000000 0.000000
# 5 0.000000 0.000000 0.000000 0.000000 0.046143 0.000000
# 6 0.000000 0.000000 0.000000 0.000000 0.000000 -0.241858
#
#
# Mechanical properties :
#
#
# Convention : Reuss Voigt Hill
#
# Bulk Modulus (GPa) = 19.50868 37.50405 28.50636
# Shear Modulus (GPa) = -176.88005 18.48275 -79.19865
#
# Velocity S-wave (km/s) = -10.13624 3.27658 -6.78260
# Velocity P-wave (km/s) = 11.20979 6.00828 6.69178
#
# Compressibility (1/GPa) = 0.05125924
#
# Stress axis : x y z
#
# Youngs Moduli (GPa) = 88.32146 27.75678 59.58031
#
# Poissons Ratio (x) = 0.01443 0.43860
# Poissons Ratio (y) = 0.04591 -0.08604
# Poissons Ratio (z) = 0.65018 -0.04008
#
# Static dielectric constant tensor:
#      x y z
#    x 1.608670 0.000000 0.000000 
#    y 0.000000 1.637100 0.000000 
#    z 0.000000 0.000000 1.552360 
# 
# From -- ./inp_files/27941.got.cif
#   From: 2010.05.17/outbox.cif.g08.bks.cpg/sg62_14_cif.got.tgz:27941.got - 2010.06.03 15:25:27.
