data_PCOD9461497
_publ_section_title
;
Structure prediction by ZEFSAII (Michael W. Deem and Ramdas Pophale) SiO2 
 PCOD9461497
Probable space group: P N M A
;
_chemical_formula_sum "Si O2"
_cell_formula_units_Z 40
_cell_length_a 9.488166
_cell_length_b 21.676288
_cell_length_c 7.928560
_cell_angle_alpha 90.000000
_cell_angle_beta 90.000000
_cell_angle_gamma 90.000000
_cell_volume 1630.652813
_symmetry_space_group_name_H-M "P N M A"
_symmetry_group_IT_number 62
_symmetry_cell_setting 'orthorhombic'
loop_
_space_group_symop_operation_xyz
x,y,z
1/2-x,-y,1/2+z
1/2+x,1/2-y,1/2-z
-x,1/2+y,-z
-x,-y,-z
1/2+x,y,1/2-z
1/2-x,1/2+y,1/2+z
x,1/2-y,z
loop_
_atom_site_type_symbol
_atom_site_label
_atom_site_fract_x
_atom_site_fract_y
_atom_site_fract_z
Si Si1 0.381576 0.569909 0.375465
Si Si2 0.686348 0.818698 0.692642
Si Si3 0.361341 0.505888 0.722369
Si Si4 0.961023 0.882422 0.596849
Si Si5 0.207978 0.819362 0.421632
O O1 0.345109 0.553628 0.569086
O O2 0.286587 0.521887 0.272606
O O3 0.539915 0.549394 0.341526
O O4 0.325901 0.638117 0.338198
O O5 0.649924 0.750000 0.631665
O O6 0.808822 0.850167 0.586211
O O7 0.548631 0.858753 0.736971
O O8 0.749699 0.812158 0.881517
O O9 0.429707 0.545970 0.872930
O O10 0.063527 0.859209 0.447158
O O11 0.186953 0.750000 0.353780
#
# Coordination Sequence:
#
# PCOD9461497 Si02
#       5
#     8   8   8   8   8
#     4  11  23  42  60  91 118 163 199 251 301 355
#     4   9  16  28  50  81 116 149 185 239 296 341
#     4  11  23  38  64  88 126 155 201 246 304 362
#     4  10  17  32  53  86 113 152 190 244 291 340
#     4   9  19  34  57  83 116 156 197 241 293 351
#
# _framework density 24.530052999999999
#
# number of rings (size 3 to 8) (size 9 to 14) (size 15 to 20)
#    1.200    0.800    2.000    3.600    0.000    3.200 
#    0.000    1.000    0.000    0.000    0.000    1.400 
#    0.000    0.000    0.000    0.000    0.000    0.000 
#
# Total GULP energy -223295.213379 kJ/mol
# GULP energy per Si atom -5582.380334 kJ/mol
# Density = 2.447422 g / cm^3
# Si number density = 24.530053 Si / 1000 Ang^3
#
#
#
# Elastic Constant Matrix: (Units=GPa)
#
#
# Indices 1 2 3 4 5 6 
#
# 1 13.8976 -104.5851 31.6306 0.0000 0.0000 0.0000
# 2 -104.5851 -93.5429 60.0090 0.0000 0.0000 0.0000
# 3 31.6306 60.0090 41.4323 0.0000 0.0000 0.0000
# 4 0.0000 0.0000 0.0000 4.9682 0.0000 0.0000
# 5 0.0000 0.0000 0.0000 0.0000 23.6538 0.0000
# 6 0.0000 0.0000 0.0000 0.0000 0.0000 -32.9836
#
#
#
# Elastic Compliance Matrix: (Units=1/GPa)
#
#
# Indices 1 2 3 4 5 6 
#
# 1 0.008688 -0.007241 0.003855 0.000000 0.000000 0.000000
# 2 -0.007241 0.000494 0.004813 0.000000 0.000000 0.000000
# 3 0.003855 0.004813 0.014221 0.000000 0.000000 0.000000
# 4 0.000000 0.000000 0.000000 0.201278 0.000000 0.000000
# 5 0.000000 0.000000 0.000000 0.000000 0.042277 0.000000
# 6 0.000000 0.000000 0.000000 0.000000 0.000000 -0.030318
#
#
# Mechanical properties :
#
#
# Convention : Reuss Voigt Hill
#
# Bulk Modulus (GPa) = 38.08459 -7.12265 15.48097
# Shear Modulus (GPa) = 20.61526 -2.55683 9.02922
#
# Velocity S-wave (km/s) = 2.90213 -1.02205 1.92064
# Velocity P-wave (km/s) = 5.17583 2.07430 3.35309
#
# Compressibility (1/GPa) = 0.02625734
#
# Stress axis : x y z
#
# Youngs Moduli (GPa) = 115.09490 2026.28494 70.31664
#
# Poissons Ratio (x) = 14.67271 -0.27106
# Poissons Ratio (y) = 0.83342 -0.33846
# Poissons Ratio (z) = -0.44367 -9.75321
#
# Static dielectric constant tensor:
#      x y z
#    x 1.884540 0.000000 0.000000 
#    y 0.000000 1.963090 0.000000 
#    z 0.000000 0.000000 1.977730 
# 
# From -- ./inp_files/11214.got.cif
#   From: 2010.05.17/outbox.cif.g08.bks.cpg/sg62_6_cif.got.tgz:11214.got - 2010.06.03 15:25:27.
