data_PCOD9461253
_publ_section_title
;
Structure prediction by ZEFSAII (Michael W. Deem and Ramdas Pophale) SiO2 
 PCOD9461253
Probable space group: P B C A
;
_chemical_formula_sum "Si O2"
_cell_formula_units_Z 56
_cell_length_a 9.000000
_cell_length_b 21.000000
_cell_length_c 15.000000
_cell_angle_alpha 90.000000
_cell_angle_beta 90.000000
_cell_angle_gamma 90.000000
_cell_volume 2835.000000
_symmetry_space_group_name_H-M "P B C A"
_symmetry_group_IT_number 61
_symmetry_cell_setting 'orthorhombic'
loop_
_space_group_symop_operation_xyz
x,y,z
1/2-x,-y,1/2+z
1/2+x,1/2-y,-z
-x,1/2+y,1/2-z
-x,-y,-z
1/2+x,y,1/2-z
1/2-x,1/2+y,z
x,1/2-y,1/2+z
loop_
_atom_site_type_symbol
_atom_site_label
_atom_site_fract_x
_atom_site_fract_y
_atom_site_fract_z
Si Si1 0.162292 0.371057 0.522837
Si Si2 0.360048 0.183958 0.164533
Si Si3 0.771638 0.813570 0.291068
Si Si4 0.209741 0.474473 0.366300
Si Si5 0.858468 0.374567 0.634140
Si Si6 0.168818 0.251103 0.894478
Si Si7 0.528176 0.593671 0.740813
O O1 0.302904 0.363937 0.589016
O O2 0.181243 0.431407 0.455545
O O3 0.150695 0.303087 0.470042
O O4 0.017738 0.378633 0.585552
O O5 0.247155 0.244878 0.163788
O O6 0.366582 0.149043 0.261449
O O7 0.515652 0.216912 0.139431
O O8 0.769620 0.791754 0.187395
O O9 0.633387 0.861641 0.302864
O O10 0.919263 0.855103 0.307749
O O11 0.207535 0.552416 0.373351
O O12 0.362516 0.447172 0.322249
O O13 0.077754 0.452070 0.298923
O O14 0.770792 0.314094 0.588980
#
# Coordination Sequence:
#
# PCOD9461253 Si02
#       7
#     8   8   8   8   8   8   8
#     4  12  24  44  70 100 137 181 236 289 346 413
#     4  11  24  39  69 101 139 179 230 282 350 406
#     4  10  18  38  64 101 133 174 224 278 340 411
#     4  11  25  44  70 102 137 185 233 284 349 417
#     4  11  26  44  69  98 145 181 228 290 349 419
#     4  11  22  41  64 100 133 175 232 283 342 401
#     4  10  20  38  69  96 142 175 232 272 352 412
#
# _framework density 19.753086
#
# number of rings (size 3 to 8) (size 9 to 14) (size 15 to 20)
#    0.000    1.143    4.286    3.000    6.000    1.143 
#    0.000    2.143    0.000    0.000    0.000    0.000 
#    0.000    0.000    0.000    0.000    0.000    0.000 
#
# Total GULP energy -312571.432511 kJ/mol
# GULP energy per Si atom -5581.632723 kJ/mol
# Density = 1.970813 g / cm^3
# Si number density = 19.753086 Si / 1000 Ang^3
#
#
#
# Elastic Constant Matrix: (Units=GPa)
#
#
# Indices 1 2 3 4 5 6 
#
# 1 80.6881 29.1234 11.5365 0.0000 0.0000 0.0000
# 2 29.1234 147.7984 34.9309 0.0000 0.0000 0.0000
# 3 11.5365 34.9309 74.4168 0.0000 0.0000 0.0000
# 4 0.0000 0.0000 0.0000 30.1358 0.0000 0.0000
# 5 0.0000 0.0000 0.0000 0.0000 33.0684 0.0000
# 6 0.0000 0.0000 0.0000 0.0000 0.0000 39.2125
#
#
#
# Elastic Compliance Matrix: (Units=1/GPa)
#
#
# Indices 1 2 3 4 5 6 
#
# 1 0.013401 -0.002418 -0.000943 0.000000 0.000000 0.000000
# 2 -0.002418 0.008046 -0.003402 0.000000 0.000000 0.000000
# 3 -0.000943 -0.003402 0.015181 0.000000 0.000000 0.000000
# 4 0.000000 0.000000 0.000000 0.033183 0.000000 0.000000
# 5 0.000000 0.000000 0.000000 0.000000 0.030240 0.000000
# 6 0.000000 0.000000 0.000000 0.000000 0.000000 0.025502
#
#
# Mechanical properties :
#
#
# Convention : Reuss Voigt Hill
#
# Bulk Modulus (GPa) = 43.28419 50.45390 46.86905
# Shear Modulus (GPa) = 34.06461 35.63751 34.85106
#
# Velocity S-wave (km/s) = 4.15724 4.25214 4.20496
# Velocity P-wave (km/s) = 6.70848 7.05020 6.88146
#
# Compressibility (1/GPa) = 0.02310312
#
# Stress axis : x y z
#
# Youngs Moduli (GPa) = 74.62209 124.27794 65.87229
#
# Poissons Ratio (x) = 0.30049 0.06209
# Poissons Ratio (y) = 0.18043 0.22411
# Poissons Ratio (z) = 0.07033 0.42281
#
# Static dielectric constant tensor:
#      x y z
#    x 1.730070 0.000000 0.000000 
#    y 0.000000 1.679110 0.000000 
#    z 0.000000 0.000000 1.715480 
# 
# From -- ./inp_files/7173.got.cif
#   From: 2010.05.17/outbox.ucp.g08.bks.cvg/sg61_4_cif.got.tgz:7173.got - 2010.06.11 16:28:26.
