data_PCOD9461723
_publ_section_title
;
Structure prediction by ZEFSAII (Michael W. Deem and Ramdas Pophale) SiO2 
 PCOD9461723
Probable space group: P N M A
;
_chemical_formula_sum "Si O2"
_cell_formula_units_Z 64
_cell_length_a 21.189919
_cell_length_b 7.771180
_cell_length_c 20.144959
_cell_angle_alpha 90.000000
_cell_angle_beta 90.000000
_cell_angle_gamma 90.000000
_cell_volume 3317.283991
_symmetry_space_group_name_H-M "P N M A"
_symmetry_group_IT_number 62
_symmetry_cell_setting 'orthorhombic'
loop_
_space_group_symop_operation_xyz
x,y,z
1/2-x,-y,1/2+z
1/2+x,1/2-y,1/2-z
-x,1/2+y,-z
-x,-y,-z
1/2+x,y,1/2-z
1/2-x,1/2+y,1/2+z
x,1/2-y,z
loop_
_atom_site_type_symbol
_atom_site_label
_atom_site_fract_x
_atom_site_fract_y
_atom_site_fract_z
Si Si1 0.137654 0.457523 0.325315
Si Si2 0.188091 0.461363 0.464112
Si Si3 0.485180 0.047557 0.320617
Si Si4 0.631113 0.545502 0.323909
Si Si5 0.063472 0.453450 0.539092
Si Si6 0.937819 0.042480 0.041723
Si Si7 0.507048 0.543308 0.824361
Si Si8 0.185346 0.960492 0.038180
O O1 0.136850 0.250000 0.326701
O O2 0.180204 0.515167 0.387182
O O3 0.155382 0.508461 0.250390
O O4 0.065038 0.517404 0.336994
O O5 0.188608 0.250000 0.464070
O O6 0.125921 0.522701 0.503524
O O7 0.250823 0.517858 0.502271
O O8 0.469853 0.250000 0.318476
O O9 0.449011 0.973821 0.383924
O O10 0.472030 0.974791 0.247470
O O11 0.560759 0.031824 0.330496
O O12 0.623222 0.750000 0.330219
O O13 0.674290 0.486282 0.385311
O O14 0.069307 0.250000 0.535950
O O15 0.000000 0.500000 0.500000
O O16 0.052494 0.503097 0.615110
O O17 0.933465 0.250000 0.044995
O O18 0.875469 0.981901 0.004025
O O19 0.000000 0.000000 0.000000
O O20 0.502743 0.750000 0.819695
O O21 0.186298 0.750000 0.037949
#
# Coordination Sequence:
#
# PCOD9461723 Si02
#       8
#     8   8   8   8   8   8   8   8
#     4   9  17  32  52  72  97 132 169 204 247 304
#     4   9  18  34  52  71  99 136 172 203 245 304
#     4   9  18  31  49  72 103 136 164 202 253 303
#     4  10  18  29  49  77 102 126 164 212 251 292
#     4  11  20  32  52  75  98 128 167 209 254 299
#     4  10  18  31  52  77 101 130 168 209 250 294
#     4   9  17  31  48  73 103 129 163 206 254 299
#     4   9  18  32  51  75 102 133 171 207 244 298
#
# _framework density 19.292891000000001
#
# number of rings (size 3 to 8) (size 9 to 14) (size 15 to 20)
#    0.000    2.500    2.500    1.500    0.000    2.000 
#    0.000    1.250    0.000    8.250    0.000    0.000 
#    0.000    0.000    0.000    0.000    0.000    0.000 
#
# Total GULP energy -356877.425792 kJ/mol
# GULP energy per Si atom -5576.209778 kJ/mol
# Density = 1.924898 g / cm^3
# Si number density = 19.292891 Si / 1000 Ang^3
#
#
#
# Elastic Constant Matrix: (Units=GPa)
#
#
# Indices 1 2 3 4 5 6 
#
# 1 117.2056 -3.0312 93.3957 0.0000 0.0000 0.0000
# 2 -3.0312 20.8302 3.2978 0.0000 0.0000 0.0000
# 3 93.3957 3.2978 207.2461 0.0000 0.0000 0.0000
# 4 0.0000 0.0000 0.0000 18.4291 0.0000 0.0000
# 5 0.0000 0.0000 0.0000 0.0000 30.1769 0.0000
# 6 0.0000 0.0000 0.0000 0.0000 0.0000 12.8097
#
#
#
# Elastic Compliance Matrix: (Units=1/GPa)
#
#
# Indices 1 2 3 4 5 6 
#
# 1 0.013489 0.002933 -0.006125 0.000000 0.000000 0.000000
# 2 0.002933 0.048766 -0.002098 0.000000 0.000000 0.000000
# 3 -0.006125 -0.002098 0.007619 0.000000 0.000000 0.000000
# 4 0.000000 0.000000 0.000000 0.054262 0.000000 0.000000
# 5 0.000000 0.000000 0.000000 0.000000 0.033138 0.000000
# 6 0.000000 0.000000 0.000000 0.000000 0.000000 0.078066
#
#
# Mechanical properties :
#
#
# Convention : Reuss Voigt Hill
#
# Bulk Modulus (GPa) = 16.86532 59.17849 38.02191
# Shear Modulus (GPa) = 18.81929 29.05779 23.93854
#
# Velocity S-wave (km/s) = 3.12661 3.88511 3.52631
# Velocity P-wave (km/s) = 4.66851 7.13202 6.02747
#
# Compressibility (1/GPa) = 0.05929326
#
# Stress axis : x y z
#
# Youngs Moduli (GPa) = 74.13455 20.50606 131.25047
#
# Poissons Ratio (x) = -0.06014 0.80397
# Poissons Ratio (y) = -0.21741 0.27531
# Poissons Ratio (z) = 0.45411 0.04301
#
# Static dielectric constant tensor:
#      x y z
#    x 1.639060 0.000000 0.000000 
#    y 0.000000 1.713460 0.000000 
#    z 0.000000 0.000000 1.707670 
# 
# From -- ./inp_files/27937.got.cif
#   From: 2010.05.17/outbox.cif.g08.bks.cpg/sg62_14_cif.got.tgz:27937.got - 2010.06.03 15:25:27.
