data_PCOD9461581
_publ_section_title
;
Structure prediction by ZEFSAII (Michael W. Deem and Ramdas Pophale) SiO2 
 PCOD9461581
Probable space group: P N M A
;
_chemical_formula_sum "Si O2"
_cell_formula_units_Z 56
_cell_length_a 19.091205
_cell_length_b 8.789674
_cell_length_c 21.385116
_cell_angle_alpha 90.000000
_cell_angle_beta 90.000000
_cell_angle_gamma 90.000000
_cell_volume 3588.539403
_symmetry_space_group_name_H-M "P N M A"
_symmetry_group_IT_number 62
_symmetry_cell_setting 'orthorhombic'
loop_
_space_group_symop_operation_xyz
x,y,z
1/2-x,-y,1/2+z
1/2+x,1/2-y,1/2-z
-x,1/2+y,-z
-x,-y,-z
1/2+x,y,1/2-z
1/2-x,1/2+y,1/2+z
x,1/2-y,z
loop_
_atom_site_type_symbol
_atom_site_label
_atom_site_fract_x
_atom_site_fract_y
_atom_site_fract_z
Si Si1 0.077571 0.931798 0.000992
Si Si2 0.215745 0.566744 0.691089
Si Si3 0.423513 0.434094 0.248288
Si Si4 0.348725 0.931780 0.621284
Si Si5 0.213010 0.930371 0.314696
Si Si6 0.082371 0.433462 0.256218
Si Si7 0.157459 0.566306 0.874977
O O1 0.072392 0.750000 0.999745
O O2 0.117734 0.984748 0.062942
O O3 0.119970 0.979856 0.938926
O O4 0.000000 0.000000 0.000000
O O5 0.221712 0.750000 0.701402
O O6 0.133753 0.527487 0.694983
O O7 0.266606 0.531687 0.633331
O O8 0.250012 0.483964 0.750300
O O9 0.427772 0.250000 0.250575
O O10 0.502408 0.488284 0.238405
O O11 0.390247 0.481024 0.315149
O O12 0.355453 0.750000 0.612178
O O13 0.389068 0.969038 0.686220
O O14 0.211140 0.750000 0.319308
O O15 0.135084 0.996443 0.306949
O O16 0.264929 0.999007 0.366579
O O17 0.085078 0.250000 0.261939
O O18 0.162374 0.750000 0.872839
#
# Coordination Sequence:
#
# PCOD9461581 Si02
#       7
#     8   8   8   8   8   8   8
#     4  11  22  33  47  66  90 120 154 188 221 260
#     4   8  15  29  46  63  86 118 150 179 215 264
#     4   8  13  25  47  67  82 108 149 183 209 253
#     4   9  17  29  44  63  91 123 152 181 217 260
#     4  10  18  27  42  65  89 113 144 184 224 261
#     4   9  16  28  46  66  90 120 147 176 217 266
#     4   9  18  33  47  60  84 120 155 183 215 262
#
# _framework density 15.605235
#
# number of rings (size 3 to 8) (size 9 to 14) (size 15 to 20)
#    0.000    2.857    0.000    4.286    0.000    5.714 
#    0.000    2.857    0.000    0.000    0.000    1.000 
#    0.000    0.000    0.000    0.000    0.000    0.000 
#
# Total GULP energy -311758.000760 kJ/mol
# GULP energy per Si atom -5567.107156 kJ/mol
# Density = 1.556972 g / cm^3
# Si number density = 15.605235 Si / 1000 Ang^3
#
#
#
# Elastic Constant Matrix: (Units=GPa)
#
#
# Indices 1 2 3 4 5 6 
#
# 1 168.6479 38.1113 65.2316 0.0000 0.0000 0.0000
# 2 38.1113 24.1453 28.4387 0.0000 0.0000 0.0000
# 3 65.2316 28.4387 72.1099 0.0000 0.0000 0.0000
# 4 0.0000 0.0000 0.0000 20.3851 0.0000 0.0000
# 5 0.0000 0.0000 0.0000 0.0000 24.2930 0.0000
# 6 0.0000 0.0000 0.0000 0.0000 0.0000 14.8372
#
#
#
# Elastic Compliance Matrix: (Units=1/GPa)
#
#
# Indices 1 2 3 4 5 6 
#
# 1 0.010228 -0.009797 -0.005388 0.000000 0.000000 0.000000
# 2 -0.009797 0.086726 -0.025341 0.000000 0.000000 0.000000
# 3 -0.005388 -0.025341 0.028736 0.000000 0.000000 0.000000
# 4 0.000000 0.000000 0.000000 0.049055 0.000000 0.000000
# 5 0.000000 0.000000 0.000000 0.000000 0.041164 0.000000
# 6 0.000000 0.000000 0.000000 0.000000 0.000000 0.067398
#
#
# Mechanical properties :
#
#
# Convention : Reuss Voigt Hill
#
# Bulk Modulus (GPa) = 22.40252 58.71848 40.56050
# Shear Modulus (GPa) = 13.18433 20.77782 16.98108
#
# Velocity S-wave (km/s) = 2.90981 3.65288 3.30231
# Velocity P-wave (km/s) = 5.06718 7.44987 6.37090
#
# Compressibility (1/GPa) = 0.04463783
#
# Stress axis : x y z
#
# Youngs Moduli (GPa) = 97.77470 11.53058 34.79969
#
# Poissons Ratio (x) = 0.11296 0.18751
# Poissons Ratio (y) = 0.95789 0.88184
# Poissons Ratio (z) = 0.52684 0.29219
#
# Static dielectric constant tensor:
#      x y z
#    x 1.558910 0.000000 0.000000 
#    y 0.000000 1.522150 0.000000 
#    z 0.000000 0.000000 1.504540 
# 
# From -- ./inp_files/27532.got.cif
#   From: 2010.05.17/outbox.cif.g08.bks.cpg/sg62_14_cif.got.tgz:27532.got - 2010.06.03 15:25:27.
