data_PCOD9461938
_publ_section_title
;
Structure prediction by ZEFSAII (Michael W. Deem and Ramdas Pophale) SiO2 
 PCOD9461938
Probable space group: P N M A
;
_chemical_formula_sum "Si O2"
_cell_formula_units_Z 32
_cell_length_a 14.765494
_cell_length_b 8.622022
_cell_length_c 12.779013
_cell_angle_alpha 90.000000
_cell_angle_beta 90.000000
_cell_angle_gamma 90.000000
_cell_volume 1626.875879
_symmetry_space_group_name_H-M "P N M A"
_symmetry_group_IT_number 62
_symmetry_cell_setting 'orthorhombic'
loop_
_space_group_symop_operation_xyz
x,y,z
1/2-x,-y,1/2+z
1/2+x,1/2-y,1/2-z
-x,1/2+y,-z
-x,-y,-z
1/2+x,y,1/2-z
1/2-x,1/2+y,1/2+z
x,1/2-y,z
loop_
_atom_site_type_symbol
_atom_site_label
_atom_site_fract_x
_atom_site_fract_y
_atom_site_fract_z
Si Si1 0.563546 0.564545 0.593527
Si Si2 0.912281 0.064155 0.774988
Si Si3 0.213482 0.063576 0.040801
Si Si4 0.903967 0.436387 0.535721
O O1 0.500000 0.500000 0.500000
O O2 0.565423 0.750000 0.591755
O O3 0.511007 0.504484 0.695288
O O4 0.660725 0.496609 0.562664
O O5 0.916256 0.250000 0.784906
O O6 0.888034 0.020810 0.656896
O O7 0.839500 0.001349 0.858577
O O8 0.207859 0.250000 0.042797
O O9 0.317740 0.013525 0.032847
O O10 0.907303 0.250000 0.530911
O O11 0.000000 0.500000 0.500000
#
# Coordination Sequence:
#
# PCOD9461938 Si02
#       4
#     8   8   8   8
#     4  10  18  31  54  84 111 142 182 228 274 325
#     4  10  20  37  58  83 113 149 185 228 281 332
#     4  10  20  37  58  84 113 146 188 234 276 330
#     4  10  24  41  58  81 114 149 187 230 278 331
#
# _framework density 19.669599999999999
#
# number of rings (size 3 to 8) (size 9 to 14) (size 15 to 20)
#    0.000    2.000    0.000    6.750    0.000    6.000 
#    0.000    7.500    0.000    0.000    0.000    0.000 
#    0.000    0.000    0.000    0.000    0.000    0.000 
#
# Total GULP energy -178618.637093 kJ/mol
# GULP energy per Si atom -5581.832409 kJ/mol
# Density = 1.962483 g / cm^3
# Si number density = 19.669600 Si / 1000 Ang^3
#
#
#
# Elastic Constant Matrix: (Units=GPa)
#
#
# Indices 1 2 3 4 5 6 
#
# 1 158.3891 31.5074 53.6491 0.0000 0.0000 0.0000
# 2 31.5074 79.1339 30.1652 0.0000 0.0000 0.0000
# 3 53.6491 30.1652 82.4314 0.0000 0.0000 0.0000
# 4 0.0000 0.0000 0.0000 24.1737 0.0000 0.0000
# 5 0.0000 0.0000 0.0000 0.0000 25.6110 0.0000
# 6 0.0000 0.0000 0.0000 0.0000 0.0000 30.6158
#
#
#
# Elastic Compliance Matrix: (Units=1/GPa)
#
#
# Indices 1 2 3 4 5 6 
#
# 1 0.008237 -0.001436 -0.004835 0.000000 0.000000 0.000000
# 2 -0.001436 0.014936 -0.004531 0.000000 0.000000 0.000000
# 3 -0.004835 -0.004531 0.016936 0.000000 0.000000 0.000000
# 4 0.000000 0.000000 0.000000 0.041367 0.000000 0.000000
# 5 0.000000 0.000000 0.000000 0.000000 0.039046 0.000000
# 6 0.000000 0.000000 0.000000 0.000000 0.000000 0.032663
#
#
# Mechanical properties :
#
#
# Convention : Reuss Voigt Hill
#
# Bulk Modulus (GPa) = 54.04198 61.17754 57.60976
# Shear Modulus (GPa) = 27.63067 29.72228 28.67648
#
# Velocity S-wave (km/s) = 3.75205 3.89147 3.82240
# Velocity P-wave (km/s) = 6.80478 7.16670 6.98808
#
# Compressibility (1/GPa) = 0.01850413
#
# Stress axis : x y z
#
# Youngs Moduli (GPa) = 121.40163 66.95311 59.04469
#
# Poissons Ratio (x) = 0.09617 0.28550
# Poissons Ratio (y) = 0.17439 0.26752
# Poissons Ratio (z) = 0.58702 0.30335
#
# Static dielectric constant tensor:
#      x y z
#    x 1.621240 0.000000 0.000000 
#    y 0.000000 1.662030 0.000000 
#    z 0.000000 0.000000 1.933900 
# 
# From -- ./inp_files/12830.got.cif
#   From: 2010.05.17/outbox.cif.g08.bks.cpg/sg62_7_cif.got.tgz:12830.got - 2010.06.03 15:25:27.
