data_PCOD9461791
_publ_section_title
;
Structure prediction by ZEFSAII (Michael W. Deem and Ramdas Pophale) SiO2 
 PCOD9461791
Probable space group: P N M A
;
_chemical_formula_sum "Si O2"
_cell_formula_units_Z 64
_cell_length_a 17.662761
_cell_length_b 7.761899
_cell_length_c 20.631660
_cell_angle_alpha 90.000000
_cell_angle_beta 90.000000
_cell_angle_gamma 90.000000
_cell_volume 2828.529756
_symmetry_space_group_name_H-M "P N M A"
_symmetry_group_IT_number 62
_symmetry_cell_setting 'orthorhombic'
loop_
_space_group_symop_operation_xyz
x,y,z
1/2-x,-y,1/2+z
1/2+x,1/2-y,1/2-z
-x,1/2+y,-z
-x,-y,-z
1/2+x,y,1/2-z
1/2-x,1/2+y,1/2+z
x,1/2-y,z
loop_
_atom_site_type_symbol
_atom_site_label
_atom_site_fract_x
_atom_site_fract_y
_atom_site_fract_z
Si Si1 0.060144 0.961625 0.252211
Si Si2 0.691598 0.951304 0.336322
Si Si3 0.215509 0.945553 0.892994
Si Si4 0.196083 0.043721 0.028098
Si Si5 0.855177 0.950688 0.358672
Si Si6 0.904289 0.552663 0.208862
Si Si7 0.152996 0.552588 0.469520
Si Si8 0.013133 0.961863 0.397309
O O1 0.059062 0.750000 0.250934
O O2 0.137541 0.021759 0.219097
O O3 0.046202 0.011236 0.326564
O O4 0.989212 0.020493 0.207935
O O5 0.704052 0.750000 0.320194
O O6 0.773436 0.035743 0.347934
O O7 0.657822 0.965586 0.408792
O O8 0.240517 0.750000 0.896851
O O9 0.163802 0.970956 0.830983
O O10 0.292821 0.051484 0.904603
O O11 0.166379 0.989861 0.957476
O O12 0.195505 0.250000 0.032196
O O13 0.285115 0.981501 0.020577
O O14 0.845998 0.750000 0.377409
O O15 0.886459 0.947490 0.285038
O O16 0.925906 0.021958 0.400036
O O17 0.906756 0.750000 0.185908
O O18 0.140489 0.750000 0.486909
O O19 0.072849 0.473144 0.450597
O O20 0.012298 0.750000 0.399263
#
# Coordination Sequence:
#
# PCOD9461791 Si02
#       8
#     8   8   8   8   8   8   8   8
#     4   8  16  27  47  75 102 126 157 196 235 283
#     4  10  18  30  49  73  99 130 162 198 241 283
#     4  10  19  31  50  73  96 122 158 205 247 282
#     4   9  19  34  49  69  94 128 167 205 240 287
#     4   8  16  27  48  77 103 127 158 197 237 282
#     4   9  16  31  50  74 101 127 159 195 235 286
#     4   8  16  29  51  72  93 125 162 199 240 284
#     4   8  13  27  48  75 101 124 159 201 235 280
#
# _framework density 22.626595999999999
#
# number of rings (size 3 to 8) (size 9 to 14) (size 15 to 20)
#    0.750    2.500    0.000    2.625    1.750    0.000 
#    0.000    2.500    0.000    3.750    0.000    0.000 
#    0.000    0.000    0.000    0.000    0.000    0.000 
#
# Total GULP energy -356296.945405 kJ/mol
# GULP energy per Si atom -5567.139772 kJ/mol
# Density = 2.257510 g / cm^3
# Si number density = 22.626596 Si / 1000 Ang^3
#
#
#
# Elastic Constant Matrix: (Units=GPa)
#
#
# Indices 1 2 3 4 5 6 
#
# 1 80.4672 11.0962 26.3787 0.0000 0.0000 0.0000
# 2 11.0962 53.4001 11.6185 0.0000 0.0000 0.0000
# 3 26.3787 11.6185 52.8986 0.0000 0.0000 0.0000
# 4 0.0000 0.0000 0.0000 12.0478 0.0000 0.0000
# 5 0.0000 0.0000 0.0000 0.0000 17.4551 0.0000
# 6 0.0000 0.0000 0.0000 0.0000 0.0000 -1.2520
#
#
#
# Elastic Compliance Matrix: (Units=1/GPa)
#
#
# Indices 1 2 3 4 5 6 
#
# 1 0.014979 -0.001562 -0.007126 0.000000 0.000000 0.000000
# 2 -0.001562 0.019829 -0.003576 0.000000 0.000000 0.000000
# 3 -0.007126 -0.003576 0.023243 0.000000 0.000000 0.000000
# 4 0.000000 0.000000 0.000000 0.083003 0.000000 0.000000
# 5 0.000000 0.000000 0.000000 0.000000 0.057290 0.000000
# 6 0.000000 0.000000 0.000000 0.000000 0.000000 -0.798708
#
#
# Mechanical properties :
#
#
# Convention : Reuss Voigt Hill
#
# Bulk Modulus (GPa) = 29.83114 31.66141 30.74627
# Shear Modulus (GPa) = -8.85489 14.82834 2.98673
#
# Velocity S-wave (km/s) = -1.98040 2.56276 1.15016
# Velocity P-wave (km/s) = 2.82549 4.77288 3.92197
#
# Compressibility (1/GPa) = 0.03352202
#
# Stress axis : x y z
#
# Youngs Moduli (GPa) = 66.76015 50.43050 43.02317
#
# Poissons Ratio (x) = 0.07877 0.30660
# Poissons Ratio (y) = 0.10428 0.15386
# Poissons Ratio (z) = 0.47576 0.18036
#
# Static dielectric constant tensor:
#      x y z
#    x 1.916890 0.000000 0.000000 
#    y 0.000000 1.813780 0.000000 
#    z 0.000000 0.000000 1.899870 
# 
# From -- ./inp_files/30055.got.cif
#   From: 2010.05.17/outbox.cif.g08.bks.cpg/sg62_16_cif.got.tgz:30055.got - 2010.06.03 15:25:27.
