data_PCOD9461592
_publ_section_title
;
Structure prediction by ZEFSAII (Michael W. Deem and Ramdas Pophale) SiO2 
 PCOD9461592
Probable space group: P N M A
;
_chemical_formula_sum "Si O2"
_cell_formula_units_Z 40
_cell_length_a 15.246982
_cell_length_b 9.054014
_cell_length_c 12.183778
_cell_angle_alpha 90.000000
_cell_angle_beta 90.000000
_cell_angle_gamma 90.000000
_cell_volume 1681.926551
_symmetry_space_group_name_H-M "P N M A"
_symmetry_group_IT_number 62
_symmetry_cell_setting 'orthorhombic'
loop_
_space_group_symop_operation_xyz
x,y,z
1/2-x,-y,1/2+z
1/2+x,1/2-y,1/2-z
-x,1/2+y,-z
-x,-y,-z
1/2+x,y,1/2-z
1/2-x,1/2+y,1/2+z
x,1/2-y,z
loop_
_atom_site_type_symbol
_atom_site_label
_atom_site_fract_x
_atom_site_fract_y
_atom_site_fract_z
Si Si1 0.221292 0.081969 0.213016
Si Si2 0.587595 0.928470 0.145573
Si Si3 0.262071 0.581411 0.971297
Si Si4 0.086732 0.077903 0.957273
Si Si5 0.396622 0.576146 0.193952
O O1 0.208468 0.250000 0.174139
O O2 0.256117 0.098042 0.339052
O O3 0.134058 0.987882 0.242237
O O4 0.303169 0.994129 0.160026
O O5 0.592795 0.750000 0.143290
O O6 0.487517 0.981796 0.143795
O O7 0.644745 0.998075 0.047259
O O8 0.262874 0.750000 0.011740
O O9 0.176665 0.488607 0.007918
O O10 0.081598 0.250000 0.982992
O O11 0.090840 0.064830 0.825334
O O12 0.000000 0.000000 0.000000
O O13 0.394215 0.750000 0.170449
#
# Coordination Sequence:
#
# PCOD9461592 Si02
#       5
#     8   8   8   8   8
#     4   8  15  24  36  54  77 103 130 165 205 242
#     4   9  15  25  40  57  78 106 138 172 209 249
#     4   8  15  26  38  55  76 104 134 167 206 242
#     4  10  18  28  41  58  83 115 145 174 206 249
#     4   9  17  27  41  58  80 112 143 170 207 251
#
# _framework density 23.782250999999999
#
# number of rings (size 3 to 8) (size 9 to 14) (size 15 to 20)
#    1.200    2.000    0.000    1.800    0.000    2.400 
#    0.000    0.000    0.000    0.000    0.000    0.000 
#    0.000    1.600    0.000    4.800    0.000    6.400 
#
# Total GULP energy -223040.011250 kJ/mol
# GULP energy per Si atom -5576.000281 kJ/mol
# Density = 2.372812 g / cm^3
# Si number density = 23.782251 Si / 1000 Ang^3
#
#
#
# Elastic Constant Matrix: (Units=GPa)
#
#
# Indices 1 2 3 4 5 6 
#
# 1 263.1202 99.4237 51.5011 0.0000 0.0000 0.0000
# 2 99.4237 134.4262 6.1575 0.0000 0.0000 0.0000
# 3 51.5011 6.1575 41.8520 0.0000 0.0000 0.0000
# 4 0.0000 0.0000 0.0000 0.0633 0.0000 0.0000
# 5 0.0000 0.0000 0.0000 0.0000 34.0139 0.0000
# 6 0.0000 0.0000 0.0000 0.0000 0.0000 32.8538
#
#
#
# Elastic Compliance Matrix: (Units=1/GPa)
#
#
# Indices 1 2 3 4 5 6 
#
# 1 0.007322 -0.005037 -0.008270 0.000000 0.000000 0.000000
# 2 -0.005037 0.010954 0.004587 0.000000 0.000000 0.000000
# 3 -0.008270 0.004587 0.033395 0.000000 0.000000 0.000000
# 4 0.000000 0.000000 0.000000 15.793530 0.000000 0.000000
# 5 0.000000 0.000000 0.000000 0.000000 0.029400 0.000000
# 6 0.000000 0.000000 0.000000 0.000000 0.000000 0.030438
#
#
# Mechanical properties :
#
#
# Convention : Reuss Voigt Hill
#
# Bulk Modulus (GPa) = 29.21246 83.72923 56.47084
# Shear Modulus (GPa) = 0.31380 32.20727 16.26054
#
# Velocity S-wave (km/s) = 0.36364 3.68402 2.61765
# Velocity P-wave (km/s) = 3.53359 7.30609 5.73870
#
# Compressibility (1/GPa) = 0.03423196
#
# Stress axis : x y z
#
# Youngs Moduli (GPa) = 136.56563 91.28759 29.94453
#
# Poissons Ratio (x) = 0.45982 0.24763
# Poissons Ratio (y) = 0.68788 -0.13735
# Poissons Ratio (z) = 1.12935 -0.41870
#
# Static dielectric constant tensor:
#      x y z
#    x 1.870630 0.000000 0.000000 
#    y 0.000000 1.867040 0.000000 
#    z 0.000000 0.000000 2.155800 
# 
# From -- ./inp_files/24163.got.cif
#   From: 2010.05.17/outbox.cif.g08.bks.cpg/sg62_13_cif.got.tgz:24163.got - 2010.06.03 15:25:27.
