data_PCOD9461628
_publ_section_title
;
Structure prediction by ZEFSAII (Michael W. Deem and Ramdas Pophale) SiO2 
 PCOD9461628
Probable space group: P N M A
;
_chemical_formula_sum "Si O2"
_cell_formula_units_Z 40
_cell_length_a 7.729506
_cell_length_b 11.413049
_cell_length_c 18.118978
_cell_angle_alpha 90.000000
_cell_angle_beta 90.000000
_cell_angle_gamma 90.000000
_cell_volume 1598.406063
_symmetry_space_group_name_H-M "P N M A"
_symmetry_group_IT_number 62
_symmetry_cell_setting 'orthorhombic'
loop_
_space_group_symop_operation_xyz
x,y,z
1/2-x,-y,1/2+z
1/2+x,1/2-y,1/2-z
-x,1/2+y,-z
-x,-y,-z
1/2+x,y,1/2-z
1/2-x,1/2+y,1/2+z
x,1/2-y,z
loop_
_atom_site_type_symbol
_atom_site_label
_atom_site_fract_x
_atom_site_fract_y
_atom_site_fract_z
Si Si1 0.471257 0.250000 0.722108
Si Si2 0.730188 0.477203 0.964756
Si Si3 0.879455 0.750000 0.372481
Si Si4 0.930807 0.884550 0.599181
Si Si5 0.828668 0.114676 0.269521
Si Si6 0.010645 0.991450 0.154680
O O1 0.469486 0.250000 0.811198
O O2 0.551998 0.131052 0.689077
O O3 0.283365 0.250000 0.683660
O O4 0.639728 0.364432 0.923881
O O5 0.613798 0.588383 0.942808
O O6 0.919063 0.482716 0.928223
O O7 0.704808 0.459730 0.051866
O O8 0.882507 0.750000 0.591924
O O9 0.995043 0.904730 0.682641
O O10 0.777231 0.250000 0.279628
O O11 0.878359 0.087925 0.185341
O O12 0.691007 0.027741 0.304795
#
# Coordination Sequence:
#
# PCOD9461628 Si02
#       6
#     4   8   4   8   8   8
#     4  10  18  28  46  70 102 134 162 206 250 304
#     4   9  17  28  46  69 101 129 160 209 247 293
#     4  10  18  30  46  72 102 132 166 200 254 300
#     4   9  16  28  46  70  97 127 165 205 249 287
#     4  10  20  33  52  75 102 134 170 212 253 302
#     4  10  19  32  49  75 104 134 168 208 258 300
#
# _framework density 25.024930000000001
#
# number of rings (size 3 to 8) (size 9 to 14) (size 15 to 20)
#    0.000    2.400    1.000    4.200    0.000    0.800 
#    0.000    0.000    0.000    1.200    0.000    8.400 
#    0.000    0.000    0.000    0.000    0.000    0.000 
#
# Total GULP energy -223429.192976 kJ/mol
# GULP energy per Si atom -5585.729824 kJ/mol
# Density = 2.496797 g / cm^3
# Si number density = 25.024930 Si / 1000 Ang^3
#
#
#
# Elastic Constant Matrix: (Units=GPa)
#
#
# Indices 1 2 3 4 5 6 
#
# 1 41.6221 10.9068 2.2675 0.0000 0.0000 0.0000
# 2 10.9068 87.9927 10.1699 0.0000 0.0000 0.0000
# 3 2.2675 10.1699 165.9170 0.0000 0.0000 0.0000
# 4 0.0000 0.0000 0.0000 23.2908 0.0000 0.0000
# 5 0.0000 0.0000 0.0000 0.0000 57.0039 0.0000
# 6 0.0000 0.0000 0.0000 0.0000 0.0000 21.6094
#
#
#
# Elastic Compliance Matrix: (Units=1/GPa)
#
#
# Indices 1 2 3 4 5 6 
#
# 1 0.024836 -0.003061 -0.000152 0.000000 0.000000 0.000000
# 2 -0.003061 0.011823 -0.000683 0.000000 0.000000 0.000000
# 3 -0.000152 -0.000683 0.006071 0.000000 0.000000 0.000000
# 4 0.000000 0.000000 0.000000 0.042935 0.000000 0.000000
# 5 0.000000 0.000000 0.000000 0.000000 0.017543 0.000000
# 6 0.000000 0.000000 0.000000 0.000000 0.000000 0.046276
#
#
# Mechanical properties :
#
#
# Convention : Reuss Voigt Hill
#
# Bulk Modulus (GPa) = 28.62144 38.02446 33.32295
# Shear Modulus (GPa) = 29.59950 38.52666 34.06308
#
# Velocity S-wave (km/s) = 3.44292 3.92794 3.69340
# Velocity P-wave (km/s) = 5.22177 5.98325 5.61543
#
# Compressibility (1/GPa) = 0.03493884
#
# Stress axis : x y z
#
# Youngs Moduli (GPa) = 40.26407 84.58154 164.71644
#
# Poissons Ratio (x) = 0.25890 0.02500
# Poissons Ratio (y) = 0.12325 0.11248
# Poissons Ratio (z) = 0.00611 0.05776
#
# Static dielectric constant tensor:
#      x y z
#    x 2.048510 0.000000 0.000000 
#    y 0.000000 1.877140 0.000000 
#    z 0.000000 0.000000 2.060490 
# 
# From -- ./inp_files/21940.got.cif
#   From: 2010.05.17/outbox.cif.g08.bks.cpg/sg62_11_cif.got.tgz:21940.got - 2010.06.03 15:25:27.
