data_PCOD9461849
_publ_section_title
;
Structure prediction by ZEFSAII (Michael W. Deem and Ramdas Pophale) SiO2 
 PCOD9461849
Probable space group: P N M A
;
_chemical_formula_sum "Si O2"
_cell_formula_units_Z 56
_cell_length_a 10.625353
_cell_length_b 13.142483
_cell_length_c 18.034089
_cell_angle_alpha 90.000000
_cell_angle_beta 90.000000
_cell_angle_gamma 90.000000
_cell_volume 2518.343689
_symmetry_space_group_name_H-M "P N M A"
_symmetry_group_IT_number 62
_symmetry_cell_setting 'orthorhombic'
loop_
_space_group_symop_operation_xyz
x,y,z
1/2-x,-y,1/2+z
1/2+x,1/2-y,1/2-z
-x,1/2+y,-z
-x,-y,-z
1/2+x,y,1/2-z
1/2-x,1/2+y,1/2+z
x,1/2-y,z
loop_
_atom_site_type_symbol
_atom_site_label
_atom_site_fract_x
_atom_site_fract_y
_atom_site_fract_z
Si Si1 0.757205 0.971891 0.401373
Si Si2 0.029894 0.636905 0.560694
Si Si3 0.370818 0.137141 0.896954
Si Si4 0.090962 0.134423 0.719113
Si Si5 0.248209 0.930889 0.931890
Si Si6 0.615268 0.921223 0.709552
Si Si7 0.647029 0.362653 0.308690
O O1 0.721961 0.927297 0.480932
O O2 0.651927 0.045973 0.367856
O O3 0.801183 0.888090 0.342435
O O4 0.877211 0.049178 0.410751
O O5 0.069849 0.750000 0.584019
O O6 0.041957 0.632744 0.470941
O O7 0.885264 0.619004 0.580679
O O8 0.984007 0.626619 0.765485
O O9 0.315120 0.250000 0.894558
O O10 0.458841 0.123636 0.825391
O O11 0.272544 0.048235 0.909247
O O12 0.100571 0.250000 0.746734
O O13 0.103391 0.042165 0.776160
O O14 0.144745 0.891837 0.875168
O O15 0.733735 0.882190 0.756297
O O16 0.654295 0.250000 0.341298
#
# Coordination Sequence:
#
# PCOD9461849 Si02
#       7
#     8   8   8   8   8   8   8
#     4  10  20  38  64  90 127 163 209 261 320 375
#     4  10  18  30  57  96 125 158 201 257 314 373
#     4   9  16  30  56  87 121 159 205 251 300 367
#     4  10  19  37  60  86 123 167 212 258 309 375
#     4  11  20  36  59  93 130 159 205 260 320 381
#     4  11  26  42  64  92 128 167 214 265 320 383
#     4  11  25  46  66  91 125 170 216 264 321 380
#
# _framework density 22.236837000000001
#
# number of rings (size 3 to 8) (size 9 to 14) (size 15 to 20)
#    0.000    1.714    2.857    2.571    2.000    2.857 
#    0.000    4.286    0.000    0.000    0.000    0.000 
#    0.000    0.000    0.000    0.000    0.000    0.000 
#
# Total GULP energy -313048.904219 kJ/mol
# GULP energy per Si atom -5590.159004 kJ/mol
# Density = 2.218623 g / cm^3
# Si number density = 22.236837 Si / 1000 Ang^3
#
#
#
# Elastic Constant Matrix: (Units=GPa)
#
#
# Indices 1 2 3 4 5 6 
#
# 1 82.8275 -2.2526 23.0361 0.0000 0.0000 0.0000
# 2 -2.2526 63.1922 -2.4878 0.0000 0.0000 0.0000
# 3 23.0361 -2.4878 60.7583 0.0000 0.0000 0.0000
# 4 0.0000 0.0000 0.0000 15.8810 0.0000 0.0000
# 5 0.0000 0.0000 0.0000 0.0000 32.0388 0.0000
# 6 0.0000 0.0000 0.0000 0.0000 0.0000 3.6768
#
#
#
# Elastic Compliance Matrix: (Units=1/GPa)
#
#
# Indices 1 2 3 4 5 6 
#
# 1 0.013501 0.000280 -0.005108 0.000000 0.000000 0.000000
# 2 0.000280 0.015856 0.000543 0.000000 0.000000 0.000000
# 3 -0.005108 0.000543 0.018417 0.000000 0.000000 0.000000
# 4 0.000000 0.000000 0.000000 0.062968 0.000000 0.000000
# 5 0.000000 0.000000 0.000000 0.000000 0.031212 0.000000
# 6 0.000000 0.000000 0.000000 0.000000 0.000000 0.271973
#
#
# Mechanical properties :
#
#
# Convention : Reuss Voigt Hill
#
# Bulk Modulus (GPa) = 25.50611 27.04105 26.27358
# Shear Modulus (GPa) = 11.47932 22.88480 17.18206
#
# Velocity S-wave (km/s) = 2.27453 3.21150 2.78274
# Velocity P-wave (km/s) = 4.28872 5.09299 4.70806
#
# Compressibility (1/GPa) = 0.03920630
#
# Stress axis : x y z
#
# Youngs Moduli (GPa) = 74.06630 63.06715 54.29652
#
# Poissons Ratio (x) = -0.01767 0.27732
# Poissons Ratio (y) = -0.02075 -0.02948
# Poissons Ratio (z) = 0.37829 -0.03425
#
# Static dielectric constant tensor:
#      x y z
#    x 1.828510 0.000000 0.000000 
#    y 0.000000 1.837310 0.000000 
#    z 0.000000 0.000000 1.845430 
# 
# From -- ./inp_files/19130.got.cif
#   From: 2010.05.17/outbox.cif.g08.bks.cpg/sg62_10_cif.got.tgz:19130.got - 2010.06.03 15:25:27.
