data_PCOD9461112
_publ_section_title
;
Structure prediction by ZEFSAII (Michael W. Deem and Ramdas Pophale) SiO2 
 PCOD9461112
Probable space group: P B C A
;
_chemical_formula_sum "Si O2"
_cell_formula_units_Z 52
_cell_length_a 20.520692
_cell_length_b 12.622917
_cell_length_c 9.101404
_cell_angle_alpha 90.000000
_cell_angle_beta 90.000000
_cell_angle_gamma 90.000000
_cell_volume 2357.545706
_symmetry_space_group_name_H-M "P B C A"
_symmetry_group_IT_number 61
_symmetry_cell_setting 'orthorhombic'
loop_
_space_group_symop_operation_xyz
x,y,z
1/2-x,-y,1/2+z
1/2+x,1/2-y,-z
-x,1/2+y,1/2-z
-x,-y,-z
1/2+x,y,1/2-z
1/2-x,1/2+y,z
x,1/2-y,1/2+z
loop_
_atom_site_type_symbol
_atom_site_label
_atom_site_fract_x
_atom_site_fract_y
_atom_site_fract_z
Si Si1 0.256343 0.592190 0.634588
Si Si2 0.500000 0.500000 0.000000
Si Si3 0.328364 0.210109 0.084572
Si Si4 0.625476 0.199687 0.981513
Si Si5 0.915682 0.170961 0.153586
Si Si6 0.708506 0.089738 0.540060
Si Si7 0.536102 0.209153 0.701734
O O1 0.218186 0.701879 0.658407
O O2 0.313665 0.619584 0.517803
O O3 0.204766 0.510528 0.566958
O O4 0.288351 0.560677 0.788928
O O5 0.446283 0.436249 0.905141
O O6 0.483429 0.612861 0.904939
O O7 0.367395 0.152025 0.211216
O O8 0.377063 0.267953 0.973696
O O9 0.280022 0.134574 0.997826
O O10 0.588823 0.184184 0.827901
O O11 0.657320 0.317632 0.000700
O O12 0.570981 0.197675 0.106988
O O13 0.972945 0.245428 0.216740
#
# Coordination Sequence:
#
# PCOD9461112 Si02
#       7
#     8   4   8   8   8   8   8
#     4  11  26  43  71 106 141 189 241 298 374 449
#     4  12  28  44  78 104 140 202 240 294 376 426
#     4  11  25  46  70  99 149 184 237 309 365 429
#     4  11  25  46  70 100 148 185 236 309 366 427
#     4  12  25  49  73 105 144 192 246 308 363 432
#     4  11  26  43  70 106 137 190 237 299 369 446
#     4  12  25  49  72 105 144 193 245 310 361 432
#
# _framework density 22.056837999999999
#
# number of rings (size 3 to 8) (size 9 to 14) (size 15 to 20)
#    0.000    0.615    6.154    0.000    8.615    0.000 
#    2.769    1.538    0.000    0.000    0.000    0.000 
#    0.000    0.000    0.000    0.000    0.000    0.000 
#
# Total GULP energy -289754.376824 kJ/mol
# GULP energy per Si atom -5572.199554 kJ/mol
# Density = 2.200664 g / cm^3
# Si number density = 22.056838 Si / 1000 Ang^3
#
#
#
# Elastic Constant Matrix: (Units=GPa)
#
#
# Indices 1 2 3 4 5 6 
#
# 1 86.6985 14.4559 27.8642 0.0000 0.0000 0.0000
# 2 14.4559 54.4699 -3.2499 0.0000 0.0000 0.0000
# 3 27.8642 -3.2499 79.5421 0.0000 0.0000 0.0000
# 4 0.0000 0.0000 0.0000 12.3998 0.0000 0.0000
# 5 0.0000 0.0000 0.0000 0.0000 48.1562 0.0000
# 6 0.0000 0.0000 0.0000 0.0000 0.0000 22.7592
#
#
#
# Elastic Compliance Matrix: (Units=1/GPa)
#
#
# Indices 1 2 3 4 5 6 
#
# 1 0.013800 -0.003961 -0.004996 0.000000 0.000000 0.000000
# 2 -0.003961 0.019540 0.002186 0.000000 0.000000 0.000000
# 3 -0.004996 0.002186 0.014411 0.000000 0.000000 0.000000
# 4 0.000000 0.000000 0.000000 0.080646 0.000000 0.000000
# 5 0.000000 0.000000 0.000000 0.000000 0.020766 0.000000
# 6 0.000000 0.000000 0.000000 0.000000 0.000000 0.043938
#
#
# Mechanical properties :
#
#
# Convention : Reuss Voigt Hill
#
# Bulk Modulus (GPa) = 29.23112 33.20567 31.21839
# Shear Modulus (GPa) = 22.93074 28.77239 25.85157
#
# Velocity S-wave (km/s) = 3.22781 3.61566 3.42723
# Velocity P-wave (km/s) = 5.21278 5.70245 5.46310
#
# Compressibility (1/GPa) = 0.03421012
#
# Stress axis : x y z
#
# Youngs Moduli (GPa) = 72.46195 51.17632 69.38916
#
# Poissons Ratio (x) = 0.20269 0.34668
# Poissons Ratio (y) = 0.28699 -0.15167
# Poissons Ratio (z) = 0.36203 -0.11186
#
# Static dielectric constant tensor:
#      x y z
#    x 1.810480 0.000000 0.000000 
#    y 0.000000 1.805970 0.000000 
#    z 0.000000 0.000000 1.793660 
# 
# From -- ./inp_files/3916.got.cif
#   From: 2010.05.17/outbox.cif.g08.bks.cpg/sg61_2_cif.got.tgz:3916.got - 2010.06.03 15:17:17.
