data_PCOD9461032
_publ_section_title
;
Structure prediction by ZEFSAII (Michael W. Deem and Ramdas Pophale) SiO2 
 PCOD9461032
Probable space group: P B C A
;
_chemical_formula_sum "Si O2"
_cell_formula_units_Z 40
_cell_length_a 13.545714
_cell_length_b 13.261840
_cell_length_c 8.218551
_cell_angle_alpha 90.000000
_cell_angle_beta 90.000000
_cell_angle_gamma 90.000000
_cell_volume 1476.389474
_symmetry_space_group_name_H-M "P B C A"
_symmetry_group_IT_number 61
_symmetry_cell_setting 'orthorhombic'
loop_
_space_group_symop_operation_xyz
x,y,z
1/2-x,-y,1/2+z
1/2+x,1/2-y,-z
-x,1/2+y,1/2-z
-x,-y,-z
1/2+x,y,1/2-z
1/2-x,1/2+y,z
x,1/2-y,1/2+z
loop_
_atom_site_type_symbol
_atom_site_label
_atom_site_fract_x
_atom_site_fract_y
_atom_site_fract_z
Si Si1 0.046502 0.860662 0.649917
Si Si2 0.648429 0.809267 0.544980
Si Si3 0.549858 0.075389 0.832409
Si Si4 0.336596 0.489318 0.186662
Si Si5 0.800209 0.860731 0.083636
O O1 0.108892 0.767925 0.586687
O O2 0.054946 0.835647 0.839874
O O3 0.964481 0.873191 0.508046
O O4 0.102804 0.968251 0.637411
O O5 0.679255 0.910964 0.459835
O O6 0.742428 0.744680 0.605011
O O7 0.447074 0.033082 0.755494
O O8 0.602513 0.140900 0.696570
O O9 0.267431 0.445374 0.327440
O O10 0.323860 0.598000 0.098894
#
# Coordination Sequence:
#
# PCOD9461032 Si02
#       5
#     8   8   8   8   8
#     4  11  23  47  79 107 154 201 252 325 381 453
#     4  12  24  50  74 111 163 195 250 340 371 454
#     4  11  25  50  80 107 151 214 258 315 396 463
#     4  12  27  49  77 112 159 199 262 326 377 466
#     4  12  26  46  79 111 148 208 254 313 402 457
#
# _framework density 27.093119999999999
#
# number of rings (size 3 to 8) (size 9 to 14) (size 15 to 20)
#    0.000    0.400    6.000    1.800    2.800    0.000 
#    7.200    2.000    0.000    0.000    0.000    0.000 
#    0.000    0.000    0.000    0.000    0.000    0.000 
#
# Total GULP energy -223469.461751 kJ/mol
# GULP energy per Si atom -5586.736544 kJ/mol
# Density = 2.703146 g / cm^3
# Si number density = 27.093120 Si / 1000 Ang^3
#
#
#
# Elastic Constant Matrix: (Units=GPa)
#
#
# Indices 1 2 3 4 5 6 
#
# 1 84.6761 14.2600 37.7097 0.0000 0.0000 0.0000
# 2 14.2600 107.9058 39.8600 0.0000 0.0000 0.0000
# 3 37.7097 39.8600 121.1498 0.0000 0.0000 0.0000
# 4 0.0000 0.0000 0.0000 53.6802 0.0000 0.0000
# 5 0.0000 0.0000 0.0000 0.0000 32.5053 0.0000
# 6 0.0000 0.0000 0.0000 0.0000 0.0000 -267.5009
#
#
#
# Elastic Compliance Matrix: (Units=1/GPa)
#
#
# Indices 1 2 3 4 5 6 
#
# 1 0.013717 -0.000268 -0.004181 0.000000 0.000000 0.000000
# 2 -0.000268 0.010555 -0.003389 0.000000 0.000000 0.000000
# 3 -0.004181 -0.003389 0.010671 0.000000 0.000000 0.000000
# 4 0.000000 0.000000 0.000000 0.018629 0.000000 0.000000
# 5 0.000000 0.000000 0.000000 0.000000 0.030764 0.000000
# 6 0.000000 0.000000 0.000000 0.000000 0.000000 -0.003738
#
#
# Mechanical properties :
#
#
# Convention : Reuss Voigt Hill
#
# Bulk Modulus (GPa) = 51.90726 55.26569 53.58648
# Shear Modulus (GPa) = 48.68709 -21.46964 13.60873
#
# Velocity S-wave (km/s) = 4.24374 -2.81808 2.24362
# Velocity P-wave (km/s) = 6.57365 3.13909 5.15105
#
# Compressibility (1/GPa) = 0.01926513
#
# Stress axis : x y z
#
# Youngs Moduli (GPa) = 72.90212 94.74424 93.71308
#
# Poissons Ratio (x) = 0.02540 0.39185
# Poissons Ratio (y) = 0.01955 0.31761
# Poissons Ratio (z) = 0.30483 0.32111
#
# Static dielectric constant tensor:
#      x y z
#    x 1.975560 0.000000 0.000000 
#    y 0.000000 2.874410 0.000000 
#    z 0.000000 0.000000 2.111610 
# 
# From -- ./inp_files/2631.got.cif
#   From: 2010.05.17/outbox.cif.g08.bks.cpg/sg61_2_cif.got.tgz:2631.got - 2010.06.03 15:17:17.
