data_PCOD9461761
_publ_section_title
;
Structure prediction by ZEFSAII (Michael W. Deem and Ramdas Pophale) SiO2 
 PCOD9461761
Probable space group: P N M A
;
_chemical_formula_sum "Si O2"
_cell_formula_units_Z 56
_cell_length_a 5.205428
_cell_length_b 28.757870
_cell_length_c 21.652466
_cell_angle_alpha 90.000000
_cell_angle_beta 90.000000
_cell_angle_gamma 90.000000
_cell_volume 3241.309673
_symmetry_space_group_name_H-M "P N M A"
_symmetry_group_IT_number 62
_symmetry_cell_setting 'orthorhombic'
loop_
_space_group_symop_operation_xyz
x,y,z
1/2-x,-y,1/2+z
1/2+x,1/2-y,1/2-z
-x,1/2+y,-z
-x,-y,-z
1/2+x,y,1/2-z
1/2-x,1/2+y,1/2+z
x,1/2-y,z
loop_
_atom_site_type_symbol
_atom_site_label
_atom_site_fract_x
_atom_site_fract_y
_atom_site_fract_z
Si Si1 0.741157 0.461515 0.433338
Si Si2 0.894772 0.804128 0.517643
Si Si3 0.503404 0.802415 0.126080
Si Si4 0.111846 0.113057 0.891608
Si Si5 0.766488 0.483711 0.580483
Si Si6 0.593564 0.138466 0.465889
Si Si7 0.742125 0.865681 0.291053
O O1 0.770317 0.471765 0.507017
O O2 0.504344 0.491510 0.408886
O O3 0.673030 0.407161 0.427628
O O4 0.003914 0.481030 0.405275
O O5 0.874149 0.750000 0.534304
O O6 0.879637 0.806498 0.442358
O O7 0.670409 0.834913 0.547674
O O8 0.170810 0.825579 0.533856
O O9 0.602811 0.750000 0.132066
O O10 0.725779 0.841592 0.128936
O O11 0.299562 0.814679 0.179552
O O12 0.057970 0.120312 0.963766
O O13 0.849917 0.108217 0.853092
O O14 0.272768 0.065725 0.885533
O O15 0.001631 0.874663 0.253698
#
# Coordination Sequence:
#
# PCOD9461761 Si02
#       7
#     8   8   8   8   8   8   8
#     4   9  17  28  43  71  88 110 127 166 208 266
#     4  10  19  30  46  64  84 117 151 179 213 264
#     4  10  22  37  50  63  80 105 143 186 237 284
#     4  10  21  35  53  64  84 111 136 178 233 279
#     4   9  18  28  47  66  90 104 134 158 214 279
#     4  10  18  30  48  64  92 111 141 176 221 260
#     4  12  24  38  49  63  80 104 143 184 235 285
#
# _framework density 17.276966999999999
#
# number of rings (size 3 to 8) (size 9 to 14) (size 15 to 20)
#    0.000    2.000    2.857    1.286    2.000    5.143 
#    0.000    0.000    0.000    0.000    0.000    0.000 
#    0.000    0.000    0.000    0.000    0.000    0.000 
#
# Total GULP energy -311941.752497 kJ/mol
# GULP energy per Si atom -5570.388437 kJ/mol
# Density = 1.723764 g / cm^3
# Si number density = 17.276967 Si / 1000 Ang^3
#
#
#
# Elastic Constant Matrix: (Units=GPa)
#
#
# Indices 1 2 3 4 5 6 
#
# 1 90.2237 25.7245 12.7505 0.0000 0.0000 0.0000
# 2 25.7245 79.1390 12.2797 0.0000 0.0000 0.0000
# 3 12.7505 12.2797 9.1077 0.0000 0.0000 0.0000
# 4 0.0000 0.0000 0.0000 11.1762 0.0000 0.0000
# 5 0.0000 0.0000 0.0000 0.0000 12.8337 0.0000
# 6 0.0000 0.0000 0.0000 0.0000 0.0000 24.8953
#
#
#
# Elastic Compliance Matrix: (Units=1/GPa)
#
#
# Indices 1 2 3 4 5 6 
#
# 1 0.014043 -0.001915 -0.017078 0.000000 0.000000 0.000000
# 2 -0.001915 0.016240 -0.019215 0.000000 0.000000 0.000000
# 3 -0.017078 -0.019215 0.159613 0.000000 0.000000 0.000000
# 4 0.000000 0.000000 0.000000 0.089476 0.000000 0.000000
# 5 0.000000 0.000000 0.000000 0.000000 0.077920 0.000000
# 6 0.000000 0.000000 0.000000 0.000000 0.000000 0.040168
#
#
# Mechanical properties :
#
#
# Convention : Reuss Voigt Hill
#
# Bulk Modulus (GPa) = 8.81215 31.10885 19.96050
# Shear Modulus (GPa) = 9.77131 18.29544 14.03338
#
# Velocity S-wave (km/s) = 2.38075 3.25768 2.85311
# Velocity P-wave (km/s) = 3.55934 5.67407 4.73624
#
# Compressibility (1/GPa) = 0.11347972
#
# Stress axis : x y z
#
# Youngs Moduli (GPa) = 71.20987 61.57662 6.26516
#
# Poissons Ratio (x) = 0.11791 0.10700
# Poissons Ratio (y) = 0.13635 0.12039
# Poissons Ratio (z) = 1.21613 1.18320
#
# Static dielectric constant tensor:
#      x y z
#    x 1.640900 0.000000 0.000000 
#    y 0.000000 1.610280 0.000000 
#    z 0.000000 0.000000 1.599890 
# 
# From -- ./inp_files/30568.got.cif
#   From: 2010.05.17/outbox.cif.g08.bks.cpg/sg62_16_cif.got.tgz:30568.got - 2010.06.03 15:25:27.
