data_PCOD9461309
_publ_section_title
;
Structure prediction by ZEFSAII (Michael W. Deem and Ramdas Pophale) SiO2 
 PCOD9461309
Probable space group: P N M A
;
_chemical_formula_sum "Si O2"
_cell_formula_units_Z 32
_cell_length_a 6.929389
_cell_length_b 7.951012
_cell_length_c 25.206251
_cell_angle_alpha 90.000000
_cell_angle_beta 90.000000
_cell_angle_gamma 90.000000
_cell_volume 1388.754911
_symmetry_space_group_name_H-M "P N M A"
_symmetry_group_IT_number 62
_symmetry_cell_setting 'orthorhombic'
loop_
_space_group_symop_operation_xyz
x,y,z
1/2-x,-y,1/2+z
1/2+x,1/2-y,1/2-z
-x,1/2+y,-z
-x,-y,-z
1/2+x,y,1/2-z
1/2-x,1/2+y,1/2+z
x,1/2-y,z
loop_
_atom_site_type_symbol
_atom_site_label
_atom_site_fract_x
_atom_site_fract_y
_atom_site_fract_z
Si Si1 0.770813 0.444216 0.590851
Si Si2 0.436964 0.250000 0.700516
Si Si3 0.283039 0.052610 0.518858
Si Si4 0.362126 0.563402 0.631405
Si Si5 0.390406 0.250000 0.823628
O O1 0.710857 0.250000 0.577435
O O2 0.836006 0.515809 0.534717
O O3 0.588853 0.545683 0.613530
O O4 0.922092 0.411648 0.638526
O O5 0.339400 0.414422 0.674432
O O6 0.456344 0.250000 0.763856
O O7 0.657911 0.250000 0.682365
O O8 0.272516 0.250000 0.530018
O O9 0.500000 0.000000 0.500000
O O10 0.255568 0.962452 0.575048
O O11 0.324817 0.750000 0.652365
#
# Coordination Sequence:
#
# PCOD9461309 Si02
#       5
#     8   4   8   8   4
#     4   8  14  25  38  64  88 122 144 182 230 277
#     4  10  18  36  44  72  90 128 159 188 228 270
#     4  10  14  20  35  63  96 119 142 183 237 288
#     4  10  16  25  42  64  94 121 149 189 233 278
#     4   8  18  30  52  60 100 124 157 190 224 272
#
# _framework density 23.042224000000001
#
# number of rings (size 3 to 8) (size 9 to 14) (size 15 to 20)
#    0.750    2.000    2.500    6.000    0.000    0.000 
#    0.000    6.250    0.000    0.000    0.000    1.750 
#    0.000    0.000    0.000    0.000    0.000    0.000 
#
# Total GULP energy -178324.202387 kJ/mol
# GULP energy per Si atom -5572.631325 kJ/mol
# Density = 2.298978 g / cm^3
# Si number density = 23.042224 Si / 1000 Ang^3
#
#
#
# Elastic Constant Matrix: (Units=GPa)
#
#
# Indices 1 2 3 4 5 6 
#
# 1 60.9147 -9.5255 27.7690 0.0000 0.0000 0.0000
# 2 -9.5255 157.3923 42.1255 0.0000 0.0000 0.0000
# 3 27.7690 42.1255 181.5146 0.0000 0.0000 0.0000
# 4 0.0000 0.0000 0.0000 34.0100 0.0000 0.0000
# 5 0.0000 0.0000 0.0000 0.0000 44.5414 0.0000
# 6 0.0000 0.0000 0.0000 0.0000 0.0000 -16.2056
#
#
#
# Elastic Compliance Matrix: (Units=1/GPa)
#
#
# Indices 1 2 3 4 5 6 
#
# 1 0.018202 0.001969 -0.003242 0.000000 0.000000 0.000000
# 2 0.001969 0.006987 -0.001923 0.000000 0.000000 0.000000
# 3 -0.003242 -0.001923 0.006451 0.000000 0.000000 0.000000
# 4 0.000000 0.000000 0.000000 0.029403 0.000000 0.000000
# 5 0.000000 0.000000 0.000000 0.000000 0.022451 0.000000
# 6 0.000000 0.000000 0.000000 0.000000 0.000000 -0.061707
#
#
# Mechanical properties :
#
#
# Convention : Reuss Voigt Hill
#
# Bulk Modulus (GPa) = 39.60359 57.83994 48.72177
# Shear Modulus (GPa) = 136.62892 35.09932 85.86412
#
# Velocity S-wave (km/s) = 7.70868 3.90713 6.11103
# Velocity P-wave (km/s) = 9.82122 6.74614 8.42517
#
# Compressibility (1/GPa) = 0.02525024
#
# Stress axis : x y z
#
# Youngs Moduli (GPa) = 54.93869 143.11519 155.00557
#
# Poissons Ratio (x) = -0.28183 0.50248
# Poissons Ratio (y) = -0.10819 0.29806
# Poissons Ratio (z) = 0.17809 0.27519
#
# Static dielectric constant tensor:
#      x y z
#    x 2.032620 0.000000 0.000000 
#    y 0.000000 1.847930 0.000000 
#    z 0.000000 0.000000 1.976280 
# 
# From -- ./inp_files/26386.got.cif
#   From: 2010.05.17/outbox.cif.g08.bks.cpg/sg62_14_cif.got.tgz:26386.got - 2010.06.03 15:25:27.
