data_PCOD9461904
_publ_section_title
;
Structure prediction by ZEFSAII (Michael W. Deem and Ramdas Pophale) SiO2 
 PCOD9461904
Probable space group: P N M A
;
_chemical_formula_sum "Si O2"
_cell_formula_units_Z 48
_cell_length_a 7.984338
_cell_length_b 7.667621
_cell_length_c 29.276822
_cell_angle_alpha 90.000000
_cell_angle_beta 90.000000
_cell_angle_gamma 90.000000
_cell_volume 1792.352740
_symmetry_space_group_name_H-M "P N M A"
_symmetry_group_IT_number 62
_symmetry_cell_setting 'orthorhombic'
loop_
_space_group_symop_operation_xyz
x,y,z
1/2-x,-y,1/2+z
1/2+x,1/2-y,1/2-z
-x,1/2+y,-z
-x,-y,-z
1/2+x,y,1/2-z
1/2-x,1/2+y,1/2+z
x,1/2-y,z
loop_
_atom_site_type_symbol
_atom_site_label
_atom_site_fract_x
_atom_site_fract_y
_atom_site_fract_z
Si Si1 0.482690 0.048767 0.907183
Si Si2 0.242886 0.455161 0.488536
Si Si3 0.464297 0.454261 0.735954
Si Si4 0.845350 0.039335 0.151747
Si Si5 0.847023 0.534245 0.321044
Si Si6 0.441979 0.958118 0.570284
O O1 0.525749 0.250000 0.913088
O O2 0.619333 0.968824 0.872248
O O3 0.417295 0.990183 0.956753
O O4 0.316224 0.030003 0.875079
O O5 0.259875 0.250000 0.488476
O O6 0.403172 0.530408 0.460761
O O7 0.274811 0.506647 0.541080
O O8 0.428906 0.250000 0.741346
O O9 0.625058 0.473054 0.702719
O O10 0.506672 0.522331 0.785964
O O11 0.316124 0.531248 0.705574
O O12 0.836688 0.250000 0.152065
O O13 0.005613 0.979165 0.120548
O O14 0.844890 0.750000 0.322592
O O15 0.455580 0.750000 0.572049
#
# Coordination Sequence:
#
# PCOD9461904 Si02
#       6
#     8   8   8   8   8   8
#     4  10  18  31  52  76 103 137 172 207 250 297
#     4   9  16  26  43  71 103 131 165 209 252 294
#     4  10  19  35  56  76  99 129 167 208 250 298
#     4  10  20  33  49  75 106 134 168 209 253 299
#     4   9  19  34  55  79 100 128 169 210 247 298
#     4   8  15  27  43  65  97 133 167 204 246 294
#
# _framework density 26.780445
#
# number of rings (size 3 to 8) (size 9 to 14) (size 15 to 20)
#    0.000    2.667    0.000    3.500    0.000    7.333 
#    0.000    5.833    0.000    1.000    0.000    0.000 
#    0.000    0.000    0.000    0.000    0.000    0.000 
#
# Total GULP energy -268243.711733 kJ/mol
# GULP energy per Si atom -5588.410661 kJ/mol
# Density = 2.671949 g / cm^3
# Si number density = 26.780445 Si / 1000 Ang^3
#
#
#
# Elastic Constant Matrix: (Units=GPa)
#
#
# Indices 1 2 3 4 5 6 
#
# 1 89.6615 -22.2661 19.6112 0.0000 0.0000 0.0000
# 2 -22.2661 68.3319 2.2960 0.0000 0.0000 0.0000
# 3 19.6112 2.2960 225.5308 0.0000 0.0000 0.0000
# 4 0.0000 0.0000 0.0000 14.8141 0.0000 0.0000
# 5 0.0000 0.0000 0.0000 0.0000 49.0413 0.0000
# 6 0.0000 0.0000 0.0000 0.0000 0.0000 -0.7433
#
#
#
# Elastic Compliance Matrix: (Units=1/GPa)
#
#
# Indices 1 2 3 4 5 6 
#
# 1 0.012412 0.004082 -0.001121 0.000000 0.000000 0.000000
# 2 0.004082 0.015982 -0.000518 0.000000 0.000000 0.000000
# 3 -0.001121 -0.000518 0.004537 0.000000 0.000000 0.000000
# 4 0.000000 0.000000 0.000000 0.067503 0.000000 0.000000
# 5 0.000000 0.000000 0.000000 0.000000 0.020391 0.000000
# 6 0.000000 0.000000 0.000000 0.000000 0.000000 -1.345393
#
#
# Mechanical properties :
#
#
# Convention : Reuss Voigt Hill
#
# Bulk Modulus (GPa) = 26.44253 42.53407 34.48830
# Shear Modulus (GPa) = -4.10897 38.21462 17.05282
#
# Velocity S-wave (km/s) = -1.24002 3.78161 2.52616
# Velocity P-wave (km/s) = 2.80090 5.91476 4.62761
#
# Compressibility (1/GPa) = 0.03781786
#
# Stress axis : x y z
#
# Youngs Moduli (GPa) = 80.56756 62.57037 220.42369
#
# Poissons Ratio (x) = -0.25542 0.24706
# Poissons Ratio (y) = -0.32889 0.11411
# Poissons Ratio (z) = 0.09030 0.03239
#
# Static dielectric constant tensor:
#      x y z
#    x 2.275660 0.000000 0.000000 
#    y 0.000000 1.946860 0.000000 
#    z 0.000000 0.000000 2.095680 
# 
# From -- ./inp_files/31955.got.cif
#   From: 2010.05.17/outbox.cif.g08.bks.cpg/sg62_16_cif.got.tgz:31955.got - 2010.06.03 15:25:27.
