data_PCOD9461768
_publ_section_title
;
Structure prediction by ZEFSAII (Michael W. Deem and Ramdas Pophale) SiO2 
 PCOD9461768
Probable space group: P N M A
;
_chemical_formula_sum "Si O2"
_cell_formula_units_Z 64
_cell_length_a 10.258456
_cell_length_b 14.612412
_cell_length_c 26.891136
_cell_angle_alpha 90.000000
_cell_angle_beta 90.000000
_cell_angle_gamma 90.000000
_cell_volume 4031.002411
_symmetry_space_group_name_H-M "P N M A"
_symmetry_group_IT_number 62
_symmetry_cell_setting 'orthorhombic'
loop_
_space_group_symop_operation_xyz
x,y,z
1/2-x,-y,1/2+z
1/2+x,1/2-y,1/2-z
-x,1/2+y,-z
-x,-y,-z
1/2+x,y,1/2-z
1/2-x,1/2+y,1/2+z
x,1/2-y,z
loop_
_atom_site_type_symbol
_atom_site_label
_atom_site_fract_x
_atom_site_fract_y
_atom_site_fract_z
Si Si1 0.310503 0.642175 0.199238
Si Si2 0.607920 0.142475 0.518315
Si Si3 0.363143 0.357500 0.046882
Si Si4 0.022208 0.026761 0.887508
Si Si5 0.140021 0.358138 0.503959
Si Si6 0.789488 0.526857 0.398545
Si Si7 0.615480 0.642794 0.564421
Si Si8 0.994715 0.357771 0.790040
O O1 0.319796 0.750000 0.185372
O O2 0.332223 0.579127 0.151199
O O3 0.416422 0.624403 0.241988
O O4 0.160823 0.627374 0.217511
O O5 0.604148 0.250000 0.531536
O O6 0.743462 0.123264 0.490609
O O7 0.584520 0.082965 0.566911
O O8 0.493418 0.126375 0.478274
O O9 0.357222 0.250000 0.060358
O O10 0.497639 0.374954 0.018315
O O11 0.346054 0.425667 0.092952
O O12 0.867210 0.021927 0.896889
O O13 0.039539 0.079883 0.835987
O O14 0.082530 0.925765 0.891182
O O15 0.152141 0.250000 0.515936
O O16 0.168430 0.415694 0.553051
O O17 0.247290 0.377873 0.461757
O O18 0.610715 0.750000 0.577874
O O19 0.010424 0.250000 0.802915
#
# Coordination Sequence:
#
# PCOD9461768 Si02
#       8
#     8   8   8   8   8   8   8   8
#     4   9  19  36  55  74  97 124 158 202 248 292
#     4  10  18  30  48  72 101 130 161 197 236 282
#     4  10  21  34  46  69 106 136 162 200 239 281
#     4  11  19  30  52  76  97 126 167 204 238 286
#     4  10  20  33  47  70 104 135 164 199 239 285
#     4  11  19  31  53  74  95 132 170 196 237 295
#     4  10  19  31  49  71 100 133 162 196 236 282
#     4   9  19  36  54  73  98 125 156 200 249 291
#
# _framework density 15.876943000000001
#
# number of rings (size 3 to 8) (size 9 to 14) (size 15 to 20)
#    0.000    2.000    2.500    2.250    0.000    1.000 
#    4.500    0.000    0.000    0.750    0.000    0.000 
#    0.000    0.000    0.000    0.000    0.000    0.000 
#
# Total GULP energy -357101.787143 kJ/mol
# GULP energy per Si atom -5579.715424 kJ/mol
# Density = 1.584081 g / cm^3
# Si number density = 15.876943 Si / 1000 Ang^3
#
#
#
# Elastic Constant Matrix: (Units=GPa)
#
#
# Indices 1 2 3 4 5 6 
#
# 1 76.0146 32.7615 35.0277 0.0000 0.0000 0.0000
# 2 32.7615 83.7435 68.1452 0.0000 0.0000 0.0000
# 3 35.0277 68.1452 85.0994 0.0000 0.0000 0.0000
# 4 0.0000 0.0000 0.0000 29.5536 0.0000 0.0000
# 5 0.0000 0.0000 0.0000 0.0000 21.7158 0.0000
# 6 0.0000 0.0000 0.0000 0.0000 0.0000 16.7466
#
#
#
# Elastic Compliance Matrix: (Units=1/GPa)
#
#
# Indices 1 2 3 4 5 6 
#
# 1 0.016438 -0.002655 -0.004640 0.000000 0.000000 0.000000
# 2 -0.002655 0.034705 -0.026698 0.000000 0.000000 0.000000
# 3 -0.004640 -0.026698 0.035040 0.000000 0.000000 0.000000
# 4 0.000000 0.000000 0.000000 0.033837 0.000000 0.000000
# 5 0.000000 0.000000 0.000000 0.000000 0.046049 0.000000
# 6 0.000000 0.000000 0.000000 0.000000 0.000000 0.059714
#
#
# Mechanical properties :
#
#
# Convention : Reuss Voigt Hill
#
# Bulk Modulus (GPa) = 54.95473 57.41404 56.18439
# Shear Modulus (GPa) = 16.67591 20.86474 18.77033
#
# Velocity S-wave (km/s) = 3.24438 3.62906 3.44210
# Velocity P-wave (km/s) = 6.98017 7.33488 7.15972
#
# Compressibility (1/GPa) = 0.01819680
#
# Stress axis : x y z
#
# Youngs Moduli (GPa) = 60.83577 28.81425 28.53899
#
# Poissons Ratio (x) = 0.07650 0.13242
# Poissons Ratio (y) = 0.16152 0.76193
# Poissons Ratio (z) = 0.28227 0.76928
#
# Static dielectric constant tensor:
#      x y z
#    x 1.532310 0.000000 0.000000 
#    y 0.000000 1.564200 0.000000 
#    z 0.000000 0.000000 1.486230 
# 
# From -- ./inp_files/29015.got.cif
#   From: 2010.05.17/outbox.cif.g08.bks.cpg/sg62_15_cif.got.tgz:29015.got - 2010.06.03 15:25:27.
