data_PCOD9461445
_publ_section_title
;
Structure prediction by ZEFSAII (Michael W. Deem and Ramdas Pophale) SiO2 
 PCOD9461445
Probable space group: P N M A
;
_chemical_formula_sum "Si O2"
_cell_formula_units_Z 64
_cell_length_a 14.893692
_cell_length_b 8.708196
_cell_length_c 31.208544
_cell_angle_alpha 90.000000
_cell_angle_beta 90.000000
_cell_angle_gamma 90.000000
_cell_volume 4047.660433
_symmetry_space_group_name_H-M "P N M A"
_symmetry_group_IT_number 62
_symmetry_cell_setting 'orthorhombic'
loop_
_space_group_symop_operation_xyz
x,y,z
1/2-x,-y,1/2+z
1/2+x,1/2-y,1/2-z
-x,1/2+y,-z
-x,-y,-z
1/2+x,y,1/2-z
1/2-x,1/2+y,1/2+z
x,1/2-y,z
loop_
_atom_site_type_symbol
_atom_site_label
_atom_site_fract_x
_atom_site_fract_y
_atom_site_fract_z
Si Si1 0.304937 0.064891 0.370205
Si Si2 0.324505 0.936856 0.796251
Si Si3 0.333242 0.069812 0.633628
Si Si4 0.217268 0.433653 0.713927
Si Si5 0.891756 0.435498 0.044439
Si Si6 0.477088 0.071289 0.224643
Si Si7 0.994940 0.426883 0.173198
Si Si8 0.100341 0.432912 0.048514
O O1 0.295002 0.250000 0.372849
O O2 0.224939 0.009892 0.339702
O O3 0.324027 0.009531 0.418434
O O4 0.397307 0.035474 0.344874
O O5 0.322445 0.750000 0.794503
O O6 0.428619 0.984566 0.794805
O O7 0.269899 0.994617 0.754575
O O8 0.319379 0.250000 0.626955
O O9 0.262305 0.013695 0.669198
O O10 0.429523 0.037125 0.655206
O O11 0.339043 0.989047 0.587706
O O12 0.226914 0.250000 0.716638
O O13 0.113133 0.479940 0.714685
O O14 0.889455 0.250000 0.043417
O O15 0.995235 0.479262 0.055801
O O16 0.872599 0.498514 0.997330
O O17 0.463460 0.250000 0.212455
O O18 0.491576 0.067495 0.275783
O O19 0.016120 0.250000 0.159913
O O20 0.102179 0.250000 0.046187
#
# Coordination Sequence:
#
# PCOD9461445 Si02
#       8
#     8   8   8   8   8   8   8   8
#     4   9  16  29  48  71  97 127 162 195 236 289
#     4  10  19  33  53  74  96 128 171 209 241 286
#     4  11  22  33  46  69  99 133 168 202 244 292
#     4  11  23  34  47  70 101 134 167 204 248 295
#     4   9  17  30  47  69  99 129 155 192 244 296
#     4  10  20  33  51  71  96 131 170 210 244 280
#     4  10  17  29  49  71  96 129 166 203 240 282
#     4  10  19  31  48  70  95 127 165 201 240 290
#
# _framework density 15.811604000000001
#
# number of rings (size 3 to 8) (size 9 to 14) (size 15 to 20)
#    0.000    2.000    3.750    1.125    0.000    3.000 
#    0.000    0.625    0.000    0.000    0.000    0.875 
#    0.000    0.000    0.000    0.000    0.000    0.000 
#
# Total GULP energy -356833.564024 kJ/mol
# GULP energy per Si atom -5575.524438 kJ/mol
# Density = 1.577562 g / cm^3
# Si number density = 15.811604 Si / 1000 Ang^3
#
#
#
# Elastic Constant Matrix: (Units=GPa)
#
#
# Indices 1 2 3 4 5 6 
#
# 1 64.6540 10.8684 39.6993 0.0000 0.0000 0.0000
# 2 10.8684 13.1234 18.6159 0.0000 0.0000 0.0000
# 3 39.6993 18.6159 103.9246 0.0000 0.0000 0.0000
# 4 0.0000 0.0000 0.0000 19.7279 0.0000 0.0000
# 5 0.0000 0.0000 0.0000 0.0000 24.4388 0.0000
# 6 0.0000 0.0000 0.0000 0.0000 0.0000 10.8993
#
#
#
# Elastic Compliance Matrix: (Units=1/GPa)
#
#
# Indices 1 2 3 4 5 6 
#
# 1 0.020813 -0.007988 -0.006520 0.000000 0.000000 0.000000
# 2 -0.007988 0.105224 -0.015797 0.000000 0.000000 0.000000
# 3 -0.006520 -0.015797 0.014943 0.000000 0.000000 0.000000
# 4 0.000000 0.000000 0.000000 0.050690 0.000000 0.000000
# 5 0.000000 0.000000 0.000000 0.000000 0.040919 0.000000
# 6 0.000000 0.000000 0.000000 0.000000 0.000000 0.091749
#
#
# Mechanical properties :
#
#
# Convention : Reuss Voigt Hill
#
# Bulk Modulus (GPa) = 12.44254 35.56322 24.00288
# Shear Modulus (GPa) = 12.14367 18.51442 15.32904
#
# Velocity S-wave (km/s) = 2.77433 3.42561 3.11703
# Velocity P-wave (km/s) = 4.26015 6.17957 5.30735
#
# Compressibility (1/GPa) = 0.08036944
#
# Stress axis : x y z
#
# Youngs Moduli (GPa) = 48.04682 9.50353 66.92284
#
# Poissons Ratio (x) = 0.07592 0.43631
# Poissons Ratio (y) = 0.38382 1.05718
# Poissons Ratio (z) = 0.31325 0.15013
#
# Static dielectric constant tensor:
#      x y z
#    x 1.518290 0.000000 0.000000 
#    y 0.000000 1.543270 0.000000 
#    z 0.000000 0.000000 1.539430 
# 
# From -- ./inp_files/32707.got.cif
#   From: 2010.05.17/outbox.cif.g08.bks.cpg/sg62_17_cif.got.tgz:32707.got - 2010.06.03 15:25:27.
