data_PCOD9461690
_publ_section_title
;
Structure prediction by ZEFSAII (Michael W. Deem and Ramdas Pophale) SiO2 
 PCOD9461690
Probable space group: P N M A
;
_chemical_formula_sum "Si O2"
_cell_formula_units_Z 56
_cell_length_a 18.421091
_cell_length_b 7.403840
_cell_length_c 19.834747
_cell_angle_alpha 90.000000
_cell_angle_beta 90.000000
_cell_angle_gamma 90.000000
_cell_volume 2705.197878
_symmetry_space_group_name_H-M "P N M A"
_symmetry_group_IT_number 62
_symmetry_cell_setting 'orthorhombic'
loop_
_space_group_symop_operation_xyz
x,y,z
1/2-x,-y,1/2+z
1/2+x,1/2-y,1/2-z
-x,1/2+y,-z
-x,-y,-z
1/2+x,y,1/2-z
1/2-x,1/2+y,1/2+z
x,1/2-y,z
loop_
_atom_site_type_symbol
_atom_site_label
_atom_site_fract_x
_atom_site_fract_y
_atom_site_fract_z
Si Si1 0.194548 0.038100 0.957819
Si Si2 0.286363 0.468668 0.614866
Si Si3 0.125399 0.462204 0.606135
Si Si4 0.571240 0.529270 0.310809
Si Si5 0.472803 0.028677 0.838767
Si Si6 0.462864 0.533538 0.427766
Si Si7 0.856126 0.031466 0.550557
O O1 0.195795 0.250000 0.940603
O O2 0.119633 0.962125 0.928628
O O3 0.273645 0.964750 0.937580
O O4 0.191408 0.021313 0.038951
O O5 0.284471 0.250000 0.615757
O O6 0.204437 0.535825 0.626829
O O7 0.348466 0.527988 0.666131
O O8 0.127042 0.250000 0.622459
O O9 0.121059 0.480049 0.525178
O O10 0.052942 0.535124 0.640320
O O11 0.571120 0.750000 0.311478
O O12 0.549458 0.472810 0.236101
O O13 0.513756 0.468128 0.367297
O O14 0.473267 0.250000 0.840031
O O15 0.413705 0.970988 0.894076
O O16 0.500000 0.500000 0.500000
O O17 0.458524 0.750000 0.420634
O O18 0.854115 0.250000 0.551891
#
# Coordination Sequence:
#
# PCOD9461690 Si02
#       7
#     8   8   8   8   8   8   8
#     4   9  17  28  44  69  91 111 146 186 224 265
#     4   9  16  28  46  67  88 115 149 183 222 266
#     4   9  17  29  48  71  90 114 153 192 224 263
#     4   9  17  29  44  64  92 122 147 181 228 269
#     4   9  17  30  45  66  95 121 149 187 229 269
#     4  10  18  29  47  67  89 117 150 186 222 263
#     4   9  17  30  48  68  91 119 149 186 229 270
#
# _framework density 20.700890000000001
#
# number of rings (size 3 to 8) (size 9 to 14) (size 15 to 20)
#    0.000    2.857    1.429    0.429    0.000    0.000 
#    2.571    0.000    0.000    3.429    0.000    0.000 
#    0.000    0.000    0.000    0.000    0.000    0.000 
#
# Total GULP energy -312496.406989 kJ/mol
# GULP energy per Si atom -5580.292982 kJ/mol
# Density = 2.065377 g / cm^3
# Si number density = 20.700890 Si / 1000 Ang^3
#
#
#
# Elastic Constant Matrix: (Units=GPa)
#
#
# Indices 1 2 3 4 5 6 
#
# 1 227.5479 1.8755 118.5513 0.0000 0.0000 0.0000
# 2 1.8755 68.6035 -10.8673 0.0000 0.0000 0.0000
# 3 118.5513 -10.8673 111.8619 0.0000 0.0000 0.0000
# 4 0.0000 0.0000 0.0000 15.2697 0.0000 0.0000
# 5 0.0000 0.0000 0.0000 0.0000 19.3174 0.0000
# 6 0.0000 0.0000 0.0000 0.0000 0.0000 0.7995
#
#
#
# Elastic Compliance Matrix: (Units=1/GPa)
#
#
# Indices 1 2 3 4 5 6 
#
# 1 0.010075 -0.001998 -0.010872 0.000000 0.000000 0.000000
# 2 -0.001998 0.015200 0.003594 0.000000 0.000000 0.000000
# 3 -0.010872 0.003594 0.020811 0.000000 0.000000 0.000000
# 4 0.000000 0.000000 0.000000 0.065489 0.000000 0.000000
# 5 0.000000 0.000000 0.000000 0.000000 0.051767 0.000000
# 6 0.000000 0.000000 0.000000 0.000000 0.000000 1.250740
#
#
# Mechanical properties :
#
#
# Convention : Reuss Voigt Hill
#
# Bulk Modulus (GPa) = 36.31733 69.68136 52.99935
# Shear Modulus (GPa) = 3.46786 26.97424 15.22105
#
# Velocity S-wave (km/s) = 1.29571 3.61369 2.71456
# Velocity P-wave (km/s) = 4.45201 7.15163 5.95677
#
# Compressibility (1/GPa) = 0.02753506
#
# Stress axis : x y z
#
# Youngs Moduli (GPa) = 99.25187 65.78768 48.05188
#
# Poissons Ratio (x) = 0.13142 0.52242
# Poissons Ratio (y) = 0.19827 -0.17269
# Poissons Ratio (z) = 1.07906 -0.23643
#
# Static dielectric constant tensor:
#      x y z
#    x 1.762320 0.000000 0.000000 
#    y 0.000000 1.809980 0.000000 
#    z 0.000000 0.000000 1.667100 
# 
# From -- ./inp_files/24440.got.cif
#   From: 2010.05.17/outbox.cif.g08.bks.cpg/sg62_13_cif.got.tgz:24440.got - 2010.06.03 15:25:27.
