data_PCOD9461230
_publ_section_title
;
Structure prediction by ZEFSAII (Michael W. Deem and Ramdas Pophale) SiO2 
 PCOD9461230
Probable space group: P B C A
;
_chemical_formula_sum "Si O2"
_cell_formula_units_Z 24
_cell_length_a 20.891118
_cell_length_b 4.562701
_cell_length_c 8.245346
_cell_angle_alpha 90.000000
_cell_angle_beta 90.000000
_cell_angle_gamma 90.000000
_cell_volume 785.945762
_symmetry_space_group_name_H-M "P B C A"
_symmetry_group_IT_number 61
_symmetry_cell_setting 'orthorhombic'
loop_
_space_group_symop_operation_xyz
x,y,z
1/2-x,-y,1/2+z
1/2+x,1/2-y,-z
-x,1/2+y,1/2-z
-x,-y,-z
1/2+x,y,1/2-z
1/2-x,1/2+y,z
x,1/2-y,1/2+z
loop_
_atom_site_type_symbol
_atom_site_label
_atom_site_fract_x
_atom_site_fract_y
_atom_site_fract_z
Si Si1 0.542564 0.810752 0.199467
Si Si2 0.872107 0.564585 0.925333
Si Si3 0.296276 0.456649 0.254879
O O1 0.487509 0.563058 0.185674
O O2 0.602371 0.620348 0.269232
O O3 0.567027 0.986626 0.042702
O O4 0.847657 0.879925 0.860960
O O5 0.818798 0.492182 0.061421
O O6 0.270787 0.130605 0.231767
#
# Coordination Sequence:
#
# PCOD9461230 Si02
#       3
#     8   8   8
#     4  12  28  50  82 124 166 218 278 340 410 494
#     4  12  28  52  82 118 164 216 272 342 412 486
#     4  12  28  50  78 114 154 206 270 334 402 480
#
# _framework density 30.536460000000002
#
# number of rings (size 3 to 8) (size 9 to 14) (size 15 to 20)
#    0.000    0.000    0.000    8.000    0.000   18.667 
#    0.000    0.000    0.000    0.000    0.000    0.000 
#    0.000    0.000    0.000    0.000    0.000    0.000 
#
# Total GULP energy -134357.945636 kJ/mol
# GULP energy per Si atom -5598.247735 kJ/mol
# Density = 3.046696 g / cm^3
# Si number density = 30.536460 Si / 1000 Ang^3
#
#
#
# Elastic Constant Matrix: (Units=GPa)
#
#
# Indices 1 2 3 4 5 6 
#
# 1 189.5586 25.9532 40.0113 0.0000 0.0000 0.0000
# 2 25.9532 109.6391 4.6633 0.0000 0.0000 0.0000
# 3 40.0113 4.6633 145.0288 0.0000 0.0000 0.0000
# 4 0.0000 0.0000 0.0000 76.9352 0.0000 0.0000
# 5 0.0000 0.0000 0.0000 0.0000 53.7429 0.0000
# 6 0.0000 0.0000 0.0000 0.0000 0.0000 68.8171
#
#
#
# Elastic Compliance Matrix: (Units=1/GPa)
#
#
# Indices 1 2 3 4 5 6 
#
# 1 0.005782 -0.001303 -0.001553 0.000000 0.000000 0.000000
# 2 -0.001303 0.009427 0.000056 0.000000 0.000000 0.000000
# 3 -0.001553 0.000056 0.007322 0.000000 0.000000 0.000000
# 4 0.000000 0.000000 0.000000 0.012998 0.000000 0.000000
# 5 0.000000 0.000000 0.000000 0.000000 0.018607 0.000000
# 6 0.000000 0.000000 0.000000 0.000000 0.000000 0.014531
#
#
# Mechanical properties :
#
#
# Convention : Reuss Voigt Hill
#
# Bulk Modulus (GPa) = 59.06220 65.05356 62.05788
# Shear Modulus (GPa) = 62.57099 64.80563 63.68831
#
# Velocity S-wave (km/s) = 4.53156 4.61177 4.57184
# Velocity P-wave (km/s) = 6.83839 7.05037 6.94519
#
# Compressibility (1/GPa) = 0.01693130
#
# Stress axis : x y z
#
# Youngs Moduli (GPa) = 172.96305 106.08086 136.57715
#
# Poissons Ratio (x) = 0.13817 0.21213
# Poissons Ratio (y) = 0.22529 -0.00768
# Poissons Ratio (z) = 0.26864 -0.00597
#
# Static dielectric constant tensor:
#      x y z
#    x 2.837960 0.000000 0.000000 
#    y 0.000000 2.412700 0.000000 
#    z 0.000000 0.000000 2.379420 
# 
# From -- ./inp_files/4138.got.cif
#   From: 2010.05.17/outbox.cif.g08.bks.cpg/sg61_3_cif.got.tgz:4138.got - 2010.06.03 15:17:17.
