data_PCOD9461820
_publ_section_title
;
Structure prediction by ZEFSAII (Michael W. Deem and Ramdas Pophale) SiO2 
 PCOD9461820
Probable space group: P N M A
;
_chemical_formula_sum "Si O2"
_cell_formula_units_Z 56
_cell_length_a 17.370688
_cell_length_b 8.843039
_cell_length_c 21.052631
_cell_angle_alpha 90.000000
_cell_angle_beta 90.000000
_cell_angle_gamma 90.000000
_cell_volume 3233.887731
_symmetry_space_group_name_H-M "P N M A"
_symmetry_group_IT_number 62
_symmetry_cell_setting 'orthorhombic'
loop_
_space_group_symop_operation_xyz
x,y,z
1/2-x,-y,1/2+z
1/2+x,1/2-y,1/2-z
-x,1/2+y,-z
-x,-y,-z
1/2+x,y,1/2-z
1/2-x,1/2+y,1/2+z
x,1/2-y,z
loop_
_atom_site_type_symbol
_atom_site_label
_atom_site_fract_x
_atom_site_fract_y
_atom_site_fract_z
Si Si1 0.581496 0.431555 0.475841
Si Si2 0.132471 0.931820 0.900733
Si Si3 0.800822 0.571270 0.629557
Si Si4 0.561880 0.567897 0.207879
Si Si5 0.471963 0.067930 0.646986
Si Si6 0.119875 0.578927 0.485365
Si Si7 0.960374 0.922968 0.404599
O O1 0.500000 0.500000 0.500000
O O2 0.580295 0.250000 0.477038
O O3 0.638783 0.498062 0.528422
O O4 0.585748 0.494286 0.404471
O O5 0.123242 0.750000 0.905341
O O6 0.210979 0.966613 0.863520
O O7 0.057053 0.003758 0.868533
O O8 0.810181 0.750000 0.636158
O O9 0.858922 0.491649 0.678059
O O10 0.826613 0.523170 0.558670
O O11 0.562287 0.750000 0.202327
O O12 0.550325 0.528617 0.281094
O O13 0.491337 0.515089 0.162557
O O14 0.472468 0.250000 0.639498
O O15 0.850759 0.250000 0.512577
O O16 0.100986 0.516776 0.555112
O O17 0.038162 0.581221 0.447535
O O18 0.933601 0.750000 0.397235
#
# Coordination Sequence:
#
# PCOD9461820 Si02
#       7
#     8   8   8   8   8   8   8
#     4  10  18  30  51  77 100 126 160 203 250 295
#     4  10  20  34  52  76 103 131 168 212 258 304
#     4  10  20  32  50  74 101 134 170 210 257 304
#     4   9  19  33  51  75 102 135 174 208 246 304
#     4  10  19  33  54  78 103 133 170 210 253 302
#     4   9  16  26  43  67  94 124 161 203 245 288
#     4   8  14  26  43  65  93 123 160 202 239 284
#
# _framework density 17.316617999999998
#
# number of rings (size 3 to 8) (size 9 to 14) (size 15 to 20)
#    0.000    2.571    0.000    5.571    0.000    6.857 
#    0.000    0.000    3.143    0.000    0.000    0.000 
#    0.000    0.000    0.000    0.000    0.000    0.000 
#
# Total GULP energy -311959.017035 kJ/mol
# GULP energy per Si atom -5570.696733 kJ/mol
# Density = 1.727720 g / cm^3
# Si number density = 17.316618 Si / 1000 Ang^3
#
#
#
# Elastic Constant Matrix: (Units=GPa)
#
#
# Indices 1 2 3 4 5 6 
#
# 1 53.1297 18.4392 37.5460 0.0000 0.0000 0.0000
# 2 18.4392 55.1377 41.2524 0.0000 0.0000 0.0000
# 3 37.5460 41.2524 138.8781 0.0000 0.0000 0.0000
# 4 0.0000 0.0000 0.0000 25.4429 0.0000 0.0000
# 5 0.0000 0.0000 0.0000 0.0000 15.6360 0.0000
# 6 0.0000 0.0000 0.0000 0.0000 0.0000 20.1582
#
#
#
# Elastic Compliance Matrix: (Units=1/GPa)
#
#
# Indices 1 2 3 4 5 6 
#
# 1 0.023957 -0.004071 -0.005268 0.000000 0.000000 0.000000
# 2 -0.004071 0.024010 -0.006032 0.000000 0.000000 0.000000
# 3 -0.005268 -0.006032 0.010416 0.000000 0.000000 0.000000
# 4 0.000000 0.000000 0.000000 0.039304 0.000000 0.000000
# 5 0.000000 0.000000 0.000000 0.000000 0.063955 0.000000
# 6 0.000000 0.000000 0.000000 0.000000 0.000000 0.049608
#
#
# Mechanical properties :
#
#
# Convention : Reuss Voigt Hill
#
# Bulk Modulus (GPa) = 36.17411 49.06895 42.62153
# Shear Modulus (GPa) = 19.90410 22.24130 21.07270
#
# Velocity S-wave (km/s) = 3.39399 3.58773 3.49220
# Velocity P-wave (km/s) = 6.02446 6.74983 6.39743
#
# Compressibility (1/GPa) = 0.02764408
#
# Stress axis : x y z
#
# Youngs Moduli (GPa) = 41.74102 41.64876 96.00327
#
# Poissons Ratio (x) = 0.16954 0.50572
# Poissons Ratio (y) = 0.16991 0.57905
# Poissons Ratio (z) = 0.21988 0.25121
#
# Static dielectric constant tensor:
#      x y z
#    x 1.599820 0.000000 0.000000 
#    y 0.000000 1.606470 0.000000 
#    z 0.000000 0.000000 1.618500 
# 
# From -- ./inp_files/30009.got.cif
#   From: 2010.05.17/outbox.cif.g08.bks.cpg/sg62_16_cif.got.tgz:30009.got - 2010.06.03 15:25:27.
