data_PCOD9461483
_publ_section_title
;
Structure prediction by ZEFSAII (Michael W. Deem and Ramdas Pophale) SiO2 
 PCOD9461483
Probable space group: P N M A
;
_chemical_formula_sum "Si O2"
_cell_formula_units_Z 48
_cell_length_a 15.011491
_cell_length_b 7.468148
_cell_length_c 20.820428
_cell_angle_alpha 90.000000
_cell_angle_beta 90.000000
_cell_angle_gamma 90.000000
_cell_volume 2334.137302
_symmetry_space_group_name_H-M "P N M A"
_symmetry_group_IT_number 62
_symmetry_cell_setting 'orthorhombic'
loop_
_space_group_symop_operation_xyz
x,y,z
1/2-x,-y,1/2+z
1/2+x,1/2-y,1/2-z
-x,1/2+y,-z
-x,-y,-z
1/2+x,y,1/2-z
1/2-x,1/2+y,1/2+z
x,1/2-y,z
loop_
_atom_site_type_symbol
_atom_site_label
_atom_site_fract_x
_atom_site_fract_y
_atom_site_fract_z
Si Si1 0.166041 0.969278 0.326765
Si Si2 0.820636 0.542005 0.920824
Si Si3 0.514120 0.466104 0.626958
Si Si4 0.979763 0.531324 0.275889
Si Si5 0.217606 0.457249 0.706791
Si Si6 0.299488 0.530900 0.436184
O O1 0.165273 0.750000 0.326358
O O2 0.223090 0.031803 0.264900
O O3 0.218229 0.024192 0.390647
O O4 0.064487 0.028571 0.317148
O O5 0.796545 0.750000 0.919983
O O6 0.926643 0.525778 0.910875
O O7 0.771251 0.462126 0.859364
O O8 0.794652 0.468513 0.990466
O O9 0.513880 0.250000 0.626488
O O10 0.508090 0.521612 0.701383
O O11 0.606795 0.525471 0.595558
O O12 0.981717 0.750000 0.277613
O O13 0.882280 0.468647 0.297957
O O14 0.204778 0.250000 0.725004
O O15 0.300991 0.750000 0.437040
#
# Coordination Sequence:
#
# PCOD9461483 Si02
#       6
#     8   8   8   8   8   8
#     4   9  15  28  52  77  98 124 167 215 249 283
#     4  11  22  33  46  73 110 142 164 194 255 317
#     4  10  17  31  55  79 100 127 168 216 254 291
#     4   9  16  27  52  84  98 114 164 223 255 275
#     4  10  18  32  55  77  97 126 170 216 247 284
#     4   9  18  31  49  74 106 137 166 205 253 303
#
# _framework density 20.564343999999998
#
# number of rings (size 3 to 8) (size 9 to 14) (size 15 to 20)
#    0.000    2.333    3.333    1.000    0.000    0.000 
#    0.000    2.500    0.000    2.000    0.000    0.000 
#    0.000    0.000    0.000    0.000    0.000    0.000 
#
# Total GULP energy -268014.867622 kJ/mol
# GULP energy per Si atom -5583.643075 kJ/mol
# Density = 2.051754 g / cm^3
# Si number density = 20.564344 Si / 1000 Ang^3
#
#
#
# Elastic Constant Matrix: (Units=GPa)
#
#
# Indices 1 2 3 4 5 6 
#
# 1 80.7451 -1.9652 -12.8487 0.0000 0.0000 0.0000
# 2 -1.9652 54.1091 -8.2435 0.0000 0.0000 0.0000
# 3 -12.8487 -8.2435 42.3107 0.0000 0.0000 0.0000
# 4 0.0000 0.0000 0.0000 5.1406 0.0000 0.0000
# 5 0.0000 0.0000 0.0000 0.0000 27.3400 0.0000
# 6 0.0000 0.0000 0.0000 0.0000 0.0000 2.1011
#
#
#
# Elastic Compliance Matrix: (Units=1/GPa)
#
#
# Indices 1 2 3 4 5 6 
#
# 1 0.013078 0.001113 0.004188 0.000000 0.000000 0.000000
# 2 0.001113 0.019141 0.004067 0.000000 0.000000 0.000000
# 3 0.004188 0.004067 0.025699 0.000000 0.000000 0.000000
# 4 0.000000 0.000000 0.000000 0.194530 0.000000 0.000000
# 5 0.000000 0.000000 0.000000 0.000000 0.036576 0.000000
# 6 0.000000 0.000000 0.000000 0.000000 0.000000 0.475946
#
#
# Mechanical properties :
#
#
# Convention : Reuss Voigt Hill
#
# Bulk Modulus (GPa) = 13.04525 14.56112 13.80319
# Shear Modulus (GPa) = 6.47848 20.26449 13.37148
#
# Velocity S-wave (km/s) = 1.77685 3.14254 2.55272
# Velocity P-wave (km/s) = 3.25069 4.50151 3.92623
#
# Compressibility (1/GPa) = 0.07665626
#
# Stress axis : x y z
#
# Youngs Moduli (GPa) = 76.46296 52.24316 38.91194
#
# Poissons Ratio (x) = -0.05815 -0.16298
# Poissons Ratio (y) = -0.08511 -0.15827
# Poissons Ratio (z) = -0.32026 -0.21249
#
# Static dielectric constant tensor:
#      x y z
#    x 1.712880 0.000000 0.000000 
#    y 0.000000 1.798020 0.000000 
#    z 0.000000 0.000000 1.697780 
# 
# From -- ./inp_files/23682.got.cif
#   From: 2010.05.17/outbox.cif.g08.bks.cpg/sg62_12_cif.got.tgz:23682.got - 2010.06.03 15:25:27.
