data_PCOD9461030
_publ_section_title
;
Structure prediction by ZEFSAII (Michael W. Deem and Ramdas Pophale) SiO2 
 PCOD9461030
Probable space group: P B C A
;
_chemical_formula_sum "Si O2"
_cell_formula_units_Z 48
_cell_length_a 8.875118
_cell_length_b 16.978109
_cell_length_c 13.924705
_cell_angle_alpha 90.000000
_cell_angle_beta 90.000000
_cell_angle_gamma 90.000000
_cell_volume 2098.212436
_symmetry_space_group_name_H-M "P B C A"
_symmetry_group_IT_number 61
_symmetry_cell_setting 'orthorhombic'
loop_
_space_group_symop_operation_xyz
x,y,z
1/2-x,-y,1/2+z
1/2+x,1/2-y,-z
-x,1/2+y,1/2-z
-x,-y,-z
1/2+x,y,1/2-z
1/2-x,1/2+y,z
x,1/2-y,1/2+z
loop_
_atom_site_type_symbol
_atom_site_label
_atom_site_fract_x
_atom_site_fract_y
_atom_site_fract_z
Si Si1 0.286101 0.539365 0.464135
Si Si2 0.984714 0.937876 0.854892
Si Si3 0.773133 0.134920 0.478636
Si Si4 0.823469 0.401746 0.339064
Si Si5 0.141101 0.184949 0.827176
Si Si6 0.017518 0.149672 0.330846
O O1 0.337619 0.451472 0.491423
O O2 0.265619 0.590642 0.560686
O O3 0.383703 0.585829 0.387546
O O4 0.120263 0.528685 0.418127
O O5 0.880456 0.883069 0.921141
O O6 0.046968 0.891266 0.763804
O O7 0.878675 0.009023 0.819084
O O8 0.738281 0.180663 0.575683
O O9 0.888424 0.174596 0.405578
O O10 0.722347 0.364714 0.255846
O O11 0.977567 0.352790 0.346852
O O12 0.114864 0.275361 0.800461
#
# Coordination Sequence:
#
# PCOD9461030 Si02
#       6
#     8   8   8   8   8   8
#     4  11  23  48  73 106 137 190 242 297 350 432
#     4  11  23  47  75 102 141 187 240 295 352 427
#     4  11  24  48  72 103 140 186 239 291 361 426
#     4  11  26  47  71 101 142 188 240 292 359 428
#     4  12  28  45  70 105 147 190 233 301 364 432
#     4  12  29  40  76 106 145 183 238 301 364 435
#
# _framework density 22.876615000000001
#
# number of rings (size 3 to 8) (size 9 to 14) (size 15 to 20)
#    0.000    0.667    3.333    3.500   14.000    0.000 
#    0.000    0.000    0.000    0.000    0.000    0.000 
#    0.000    0.000    0.000    0.000    0.000    0.000 
#
# Total GULP energy -268953.444441 kJ/mol
# GULP energy per Si atom -5603.196759 kJ/mol
# Density = 2.282455 g / cm^3
# Si number density = 22.876615 Si / 1000 Ang^3
#
#
#
# Elastic Constant Matrix: (Units=GPa)
#
#
# Indices 1 2 3 4 5 6 
#
# 1 43.1700 9.3544 13.0764 0.0000 0.0000 0.0000
# 2 9.3544 41.8074 43.3440 0.0000 0.0000 0.0000
# 3 13.0764 43.3440 122.2147 0.0000 0.0000 0.0000
# 4 0.0000 0.0000 0.0000 13.7749 0.0000 0.0000
# 5 0.0000 0.0000 0.0000 0.0000 28.4524 0.0000
# 6 0.0000 0.0000 0.0000 0.0000 0.0000 26.4395
#
#
#
# Elastic Compliance Matrix: (Units=1/GPa)
#
#
# Indices 1 2 3 4 5 6 
#
# 1 0.024432 -0.004359 -0.001068 0.000000 0.000000 0.000000
# 2 -0.004359 0.038606 -0.013225 0.000000 0.000000 0.000000
# 3 -0.001068 -0.013225 0.012987 0.000000 0.000000 0.000000
# 4 0.000000 0.000000 0.000000 0.072596 0.000000 0.000000
# 5 0.000000 0.000000 0.000000 0.000000 0.035146 0.000000
# 6 0.000000 0.000000 0.000000 0.000000 0.000000 0.037822
#
#
# Mechanical properties :
#
#
# Convention : Reuss Voigt Hill
#
# Bulk Modulus (GPa) = 25.82658 37.63796 31.73227
# Shear Modulus (GPa) = 18.39573 23.16120 20.77847
#
# Velocity S-wave (km/s) = 2.83879 3.18534 3.01704
# Velocity P-wave (km/s) = 4.69670 5.47876 5.10274
#
# Compressibility (1/GPa) = 0.03871980
#
# Stress axis : x y z
#
# Youngs Moduli (GPa) = 40.92931 25.90264 76.99983
#
# Poissons Ratio (x) = 0.11292 0.08224
# Poissons Ratio (y) = 0.17843 1.01835
# Poissons Ratio (z) = 0.04372 0.34257
#
# Static dielectric constant tensor:
#      x y z
#    x 1.850000 0.000000 0.000000 
#    y 0.000000 1.827210 0.000000 
#    z 0.000000 0.000000 1.813350 
# 
# From -- ./inp_files/7032.got.cif
#   From: 2010.05.17/outbox.cif.g08.bks.cpg/sg61_4_cif.got.tgz:7032.got - 2010.06.03 15:17:17.
