data_PCOD9461177
_publ_section_title
;
Structure prediction by ZEFSAII (Michael W. Deem and Ramdas Pophale) SiO2 
 PCOD9461177
Probable space group: P B C A
;
_chemical_formula_sum "Si O2"
_cell_formula_units_Z 40
_cell_length_a 14.442520
_cell_length_b 23.865679
_cell_length_c 4.974465
_cell_angle_alpha 90.000000
_cell_angle_beta 90.000000
_cell_angle_gamma 90.000000
_cell_volume 1714.601314
_symmetry_space_group_name_H-M "P B C A"
_symmetry_group_IT_number 61
_symmetry_cell_setting 'orthorhombic'
loop_
_space_group_symop_operation_xyz
x,y,z
1/2-x,-y,1/2+z
1/2+x,1/2-y,-z
-x,1/2+y,1/2-z
-x,-y,-z
1/2+x,y,1/2-z
1/2-x,1/2+y,z
x,1/2-y,1/2+z
loop_
_atom_site_type_symbol
_atom_site_label
_atom_site_fract_x
_atom_site_fract_y
_atom_site_fract_z
Si Si1 0.231131 0.463650 0.338554
Si Si2 0.521267 0.039604 0.748874
Si Si3 0.114608 0.214818 0.974296
Si Si4 0.302667 0.349468 0.571603
Si Si5 0.924204 0.344815 0.398445
O O1 0.222405 0.508685 0.578537
O O2 0.286791 0.412168 0.461478
O O3 0.000000 0.500000 0.500000
O O4 0.129438 0.444888 0.248893
O O5 0.464649 0.096449 0.711965
O O6 0.500000 0.000000 0.000000
O O7 0.121125 0.230391 0.661104
O O8 0.013908 0.187490 0.008818
O O9 0.201339 0.177739 0.065958
O O10 0.369598 0.318714 0.355607
O O11 0.351278 0.351149 0.859826
#
# Coordination Sequence:
#
# PCOD9461177 Si02
#       5
#     8   8   8   8   8
#     4  12  24  42  68 104 146 189 238 290 353 436
#     4  12  24  42  68 104 146 189 238 290 357 437
#     4  12  28  50  76 107 145 193 251 312 369 431
#     4  12  26  47  74 106 149 190 243 304 367 438
#     4  12  26  47  74 107 148 190 244 305 368 437
#
# _framework density 23.329039999999999
#
# number of rings (size 3 to 8) (size 9 to 14) (size 15 to 20)
#    0.000    0.000    2.000    9.600    0.000    4.800 
#    0.000    0.000    0.000    0.000    0.000    0.000 
#    0.000    0.000    0.000    0.000    0.000    0.000 
#
# Total GULP energy -224192.738412 kJ/mol
# GULP energy per Si atom -5604.818460 kJ/mol
# Density = 2.327594 g / cm^3
# Si number density = 23.329040 Si / 1000 Ang^3
#
#
#
# Elastic Constant Matrix: (Units=GPa)
#
#
# Indices 1 2 3 4 5 6 
#
# 1 111.0530 29.8848 25.1358 0.0000 0.0000 0.0000
# 2 29.8848 38.2748 7.0481 0.0000 0.0000 0.0000
# 3 25.1358 7.0481 140.5017 0.0000 0.0000 0.0000
# 4 0.0000 0.0000 0.0000 27.5933 0.0000 0.0000
# 5 0.0000 0.0000 0.0000 0.0000 40.6154 0.0000
# 6 0.0000 0.0000 0.0000 0.0000 0.0000 28.2781
#
#
#
# Elastic Compliance Matrix: (Units=1/GPa)
#
#
# Indices 1 2 3 4 5 6 
#
# 1 0.011772 -0.008886 -0.001660 0.000000 0.000000 0.000000
# 2 -0.008886 0.033077 -0.000070 0.000000 0.000000 0.000000
# 3 -0.001660 -0.000070 0.007418 0.000000 0.000000 0.000000
# 4 0.000000 0.000000 0.000000 0.036241 0.000000 0.000000
# 5 0.000000 0.000000 0.000000 0.000000 0.024621 0.000000
# 6 0.000000 0.000000 0.000000 0.000000 0.000000 0.035363
#
#
# Mechanical properties :
#
#
# Convention : Reuss Voigt Hill
#
# Bulk Modulus (GPa) = 32.22048 45.99632 39.10840
# Shear Modulus (GPa) = 27.76728 34.48142 31.12435
#
# Velocity S-wave (km/s) = 3.45374 3.84871 3.65656
# Velocity P-wave (km/s) = 5.45396 6.28564 5.88451
#
# Compressibility (1/GPa) = 0.03103616
#
# Stress axis : x y z
#
# Youngs Moduli (GPa) = 84.95013 30.23203 134.80983
#
# Poissons Ratio (x) = 0.26863 0.22381
# Poissons Ratio (y) = 0.75483 0.00939
# Poissons Ratio (z) = 0.14104 0.00211
#
# Static dielectric constant tensor:
#      x y z
#    x 1.926010 0.000000 0.000000 
#    y 0.000000 1.890960 0.000000 
#    z 0.000000 0.000000 1.866630 
# 
# From -- ./inp_files/221.got.cif
#   From: 2010.05.17/outbox.cif.g08.bks.cpg/sg61_1_cif.got.tgz:221.got - 2010.06.03 15:17:17.
