data_PCOD9461604
_publ_section_title
;
Structure prediction by ZEFSAII (Michael W. Deem and Ramdas Pophale) SiO2 
 PCOD9461604
Probable space group: P N M A
;
_chemical_formula_sum "Si O2"
_cell_formula_units_Z 56
_cell_length_a 19.197394
_cell_length_b 7.986668
_cell_length_c 21.558678
_cell_angle_alpha 90.000000
_cell_angle_beta 90.000000
_cell_angle_gamma 90.000000
_cell_volume 3305.445765
_symmetry_space_group_name_H-M "P N M A"
_symmetry_group_IT_number 62
_symmetry_cell_setting 'orthorhombic'
loop_
_space_group_symop_operation_xyz
x,y,z
1/2-x,-y,1/2+z
1/2+x,1/2-y,1/2-z
-x,1/2+y,-z
-x,-y,-z
1/2+x,y,1/2-z
1/2-x,1/2+y,1/2+z
x,1/2-y,z
loop_
_atom_site_type_symbol
_atom_site_label
_atom_site_fract_x
_atom_site_fract_y
_atom_site_fract_z
Si Si1 0.080607 0.050179 0.998729
Si Si2 0.204592 0.557680 0.677427
Si Si3 0.426432 0.455436 0.245353
Si Si4 0.343547 0.955466 0.623171
Si Si5 0.223687 0.942612 0.299779
Si Si6 0.084650 0.452182 0.252548
Si Si7 0.151805 0.550958 0.870798
O O1 0.083955 0.250000 0.000540
O O2 0.120245 0.986997 0.060232
O O3 0.117207 0.992062 0.935799
O O4 0.000000 0.000000 0.000000
O O5 0.193673 0.750000 0.658390
O O6 0.128919 0.484494 0.693552
O O7 0.263788 0.484649 0.632508
O O8 0.243165 0.553329 0.744550
O O9 0.425499 0.250000 0.244369
O O10 0.505797 0.509708 0.236980
O O11 0.396714 0.506158 0.312938
O O12 0.341968 0.750000 0.623343
O O13 0.387893 0.004276 0.684113
O O14 0.231766 0.750000 0.281169
O O15 0.142348 0.985114 0.301108
O O16 0.271644 0.975353 0.359180
O O17 0.084803 0.250000 0.253690
O O18 0.157899 0.750000 0.866064
#
# Coordination Sequence:
#
# PCOD9461604 Si02
#       7
#     8   8   8   8   8   8   8
#     4  11  21  32  45  65  91 122 155 188 220 258
#     4   8  14  28  46  63  83 114 149 180 214 261
#     4   8  14  25  46  68  85 108 144 181 217 260
#     4   8  15  27  43  60  86 120 151 177 211 258
#     4  10  18  28  42  64  89 114 143 179 219 262
#     4   9  15  27  45  65  87 114 142 173 212 260
#     4  10  19  33  48  63  86 120 155 188 221 261
#
# _framework density 16.941737
#
# number of rings (size 3 to 8) (size 9 to 14) (size 15 to 20)
#    0.000    2.857    0.000    4.714    0.000    2.286 
#    0.000   12.143    0.000    0.000    0.000    1.000 
#    0.000    0.000    0.000    0.000    0.000    0.000 
#
# Total GULP energy -311863.792478 kJ/mol
# GULP energy per Si atom -5568.996294 kJ/mol
# Density = 1.690318 g / cm^3
# Si number density = 16.941737 Si / 1000 Ang^3
#
#
#
# Elastic Constant Matrix: (Units=GPa)
#
#
# Indices 1 2 3 4 5 6 
#
# 1 188.6280 12.6306 71.5469 0.0000 0.0000 0.0000
# 2 12.6306 30.8561 5.8066 0.0000 0.0000 0.0000
# 3 71.5469 5.8066 73.4595 0.0000 0.0000 0.0000
# 4 0.0000 0.0000 0.0000 16.4363 0.0000 0.0000
# 5 0.0000 0.0000 0.0000 0.0000 29.2657 0.0000
# 6 0.0000 0.0000 0.0000 0.0000 0.0000 8.3835
#
#
#
# Elastic Compliance Matrix: (Units=1/GPa)
#
#
# Indices 1 2 3 4 5 6 
#
# 1 0.008522 -0.001956 -0.008146 0.000000 0.000000 0.000000
# 2 -0.001956 0.033347 -0.000731 0.000000 0.000000 0.000000
# 3 -0.008146 -0.000731 0.021604 0.000000 0.000000 0.000000
# 4 0.000000 0.000000 0.000000 0.060841 0.000000 0.000000
# 5 0.000000 0.000000 0.000000 0.000000 0.034170 0.000000
# 6 0.000000 0.000000 0.000000 0.000000 0.000000 0.119282
#
#
# Mechanical properties :
#
#
# Convention : Reuss Voigt Hill
#
# Bulk Modulus (GPa) = 23.91879 52.54575 38.23227
# Shear Modulus (GPa) = 15.95575 24.34772 20.15174
#
# Velocity S-wave (km/s) = 3.07221 3.79508 3.45262
# Velocity P-wave (km/s) = 5.17045 7.09129 6.20564
#
# Compressibility (1/GPa) = 0.04180813
#
# Stress axis : x y z
#
# Youngs Moduli (GPa) = 117.34336 29.98810 46.28728
#
# Poissons Ratio (x) = 0.05864 0.37704
# Poissons Ratio (y) = 0.22947 0.03385
# Poissons Ratio (z) = 0.95583 0.02193
#
# Static dielectric constant tensor:
#      x y z
#    x 1.612080 0.000000 0.000000 
#    y 0.000000 1.613330 0.000000 
#    z 0.000000 0.000000 1.548550 
# 
# From -- ./inp_files/27534.got.cif
#   From: 2010.05.17/outbox.cif.g08.bks.cpg/sg62_14_cif.got.tgz:27534.got - 2010.06.03 15:25:27.
