data_PCOD9461699
_publ_section_title
;
Structure prediction by ZEFSAII (Michael W. Deem and Ramdas Pophale) SiO2 
 PCOD9461699
Probable space group: P N M A
;
_chemical_formula_sum "Si O2"
_cell_formula_units_Z 64
_cell_length_a 24.018788
_cell_length_b 8.365641
_cell_length_c 19.872434
_cell_angle_alpha 90.000000
_cell_angle_beta 90.000000
_cell_angle_gamma 90.000000
_cell_volume 3993.018991
_symmetry_space_group_name_H-M "P N M A"
_symmetry_group_IT_number 62
_symmetry_cell_setting 'orthorhombic'
loop_
_space_group_symop_operation_xyz
x,y,z
1/2-x,-y,1/2+z
1/2+x,1/2-y,1/2-z
-x,1/2+y,-z
-x,-y,-z
1/2+x,y,1/2-z
1/2-x,1/2+y,1/2+z
x,1/2-y,z
loop_
_atom_site_type_symbol
_atom_site_label
_atom_site_fract_x
_atom_site_fract_y
_atom_site_fract_z
Si Si1 0.774179 0.941598 0.145029
Si Si2 0.119327 0.056388 0.502571
Si Si3 0.253237 0.056866 0.001227
Si Si4 0.437763 0.942966 0.863242
Si Si5 0.339152 0.059125 0.230971
Si Si6 0.937124 0.940686 0.358212
Si Si7 0.334842 0.943474 0.776133
Si Si8 0.729474 0.055226 0.351520
O O1 0.774633 0.750000 0.146407
O O2 0.776003 0.997196 0.067667
O O3 0.822016 0.003437 0.194702
O O4 0.715674 0.000751 0.176268
O O5 0.121036 0.250000 0.502736
O O6 0.085421 0.004996 0.436297
O O7 0.089339 0.000866 0.570947
O O8 0.182300 0.994586 0.499670
O O9 0.251812 0.250000 0.001675
O O10 0.227070 0.999666 0.071662
O O11 0.437892 0.750000 0.863083
O O12 0.393168 0.997761 0.807243
O O13 0.500020 0.000510 0.851433
O O14 0.339774 0.250000 0.229686
O O15 0.288411 0.005349 0.181784
O O16 0.396552 0.995799 0.201321
O O17 0.937211 0.750000 0.360420
O O18 0.334519 0.750000 0.776908
O O19 0.318344 0.995893 0.700731
O O20 0.729266 0.250000 0.352197
#
# Coordination Sequence:
#
# PCOD9461699 Si02
#       8
#     8   8   8   8   8   8   8   8
#     4  10  19  29  46  71  98 123 153 196 241 281
#     4  10  20  32  45  66  98 130 164 201 230 272
#     4  10  18  29  47  71  98 128 157 190 235 287
#     4  10  20  33  48  66  93 132 169 199 234 282
#     4  10  19  33  51  67  91 127 162 197 236 287
#     4  11  22  33  47  69  96 127 164 206 243 277
#     4   9  17  31  49  67  91 124 163 200 234 280
#     4   8  15  28  47  69  90 118 155 191 232 281
#
# _framework density 16.027971999999998
#
# number of rings (size 3 to 8) (size 9 to 14) (size 15 to 20)
#    0.000    2.250    2.500    2.250    0.000    2.000 
#    0.000    0.000    0.000    0.000    0.000    0.875 
#    0.000    0.000    0.000    0.000    0.000    0.000 
#
# Total GULP energy -356906.927575 kJ/mol
# GULP energy per Si atom -5576.670743 kJ/mol
# Density = 1.599149 g / cm^3
# Si number density = 16.027972 Si / 1000 Ang^3
#
#
#
# Elastic Constant Matrix: (Units=GPa)
#
#
# Indices 1 2 3 4 5 6 
#
# 1 98.0467 16.5739 77.7646 0.0000 0.0000 0.0000
# 2 16.5739 8.9970 20.0439 0.0000 0.0000 0.0000
# 3 77.7646 20.0439 154.6151 0.0000 0.0000 0.0000
# 4 0.0000 0.0000 0.0000 12.2922 0.0000 0.0000
# 5 0.0000 0.0000 0.0000 0.0000 15.7498 0.0000
# 6 0.0000 0.0000 0.0000 0.0000 0.0000 22.7178
#
#
#
# Elastic Compliance Matrix: (Units=1/GPa)
#
#
# Indices 1 2 3 4 5 6 
#
# 1 0.019104 -0.019384 -0.007095 0.000000 0.000000 0.000000
# 2 -0.019384 0.175954 -0.013061 0.000000 0.000000 0.000000
# 3 -0.007095 -0.013061 0.011729 0.000000 0.000000 0.000000
# 4 0.000000 0.000000 0.000000 0.081352 0.000000 0.000000
# 5 0.000000 0.000000 0.000000 0.000000 0.063493 0.000000
# 6 0.000000 0.000000 0.000000 0.000000 0.000000 0.044018
#
#
# Mechanical properties :
#
#
# Convention : Reuss Voigt Hill
#
# Bulk Modulus (GPa) = 7.83048 54.49151 31.16100
# Shear Modulus (GPa) = 9.66558 19.97041 14.81800
#
# Velocity S-wave (km/s) = 2.45836 3.53366 3.04387
# Velocity P-wave (km/s) = 3.59919 7.12184 5.64246
#
# Compressibility (1/GPa) = 0.12770603
#
# Stress axis : x y z
#
# Youngs Moduli (GPa) = 52.34639 5.68331 85.25559
#
# Poissons Ratio (x) = 0.11017 0.60491
# Poissons Ratio (y) = 1.01471 1.11350
# Poissons Ratio (z) = 0.37141 0.07423
#
# Static dielectric constant tensor:
#      x y z
#    x 1.502810 0.000000 0.000000 
#    y 0.000000 1.547100 0.000000 
#    z 0.000000 0.000000 1.568130 
# 
# From -- ./inp_files/24940.got.cif
#   From: 2010.05.17/outbox.cif.g08.bks.cpg/sg62_13_cif.got.tgz:24940.got - 2010.06.03 15:25:27.
