data_PCOD9461789
_publ_section_title
;
Structure prediction by ZEFSAII (Michael W. Deem and Ramdas Pophale) SiO2 
 PCOD9461789
Probable space group: P N M A
;
_chemical_formula_sum "Si O2"
_cell_formula_units_Z 48
_cell_length_a 8.568091
_cell_length_b 18.306993
_cell_length_c 13.594250
_cell_angle_alpha 90.000000
_cell_angle_beta 90.000000
_cell_angle_gamma 90.000000
_cell_volume 2132.339433
_symmetry_space_group_name_H-M "P N M A"
_symmetry_group_IT_number 62
_symmetry_cell_setting 'orthorhombic'
loop_
_space_group_symop_operation_xyz
x,y,z
1/2-x,-y,1/2+z
1/2+x,1/2-y,1/2-z
-x,1/2+y,-z
-x,-y,-z
1/2+x,y,1/2-z
1/2-x,1/2+y,1/2+z
x,1/2-y,z
loop_
_atom_site_type_symbol
_atom_site_label
_atom_site_fract_x
_atom_site_fract_y
_atom_site_fract_z
Si Si1 0.334268 0.993890 0.387390
Si Si2 0.923873 0.089093 0.387015
Si Si3 0.687926 0.168199 0.607361
Si Si4 0.138991 0.074304 0.548311
Si Si5 0.130051 0.442901 0.214664
Si Si6 0.839101 0.330243 0.808416
O O1 0.312921 0.914039 0.435309
O O2 0.509726 0.012466 0.353406
O O3 0.233518 0.005893 0.287316
O O4 0.265610 0.050778 0.465720
O O5 0.005438 0.117094 0.486505
O O6 0.927863 0.000749 0.405683
O O7 0.748756 0.103329 0.351846
O O8 0.029822 0.104292 0.291670
O O9 0.698741 0.250000 0.559955
O O10 0.518931 0.166193 0.661287
O O11 0.818278 0.163826 0.692054
O O12 0.228426 0.116137 0.632428
O O13 0.780964 0.250000 0.836106
#
# Coordination Sequence:
#
# PCOD9461789 Si02
#       6
#     8   8   8   8   8   8
#     4  10  18  30  49  73 102 134 171 213 257 300
#     4   9  18  30  46  69  96 123 158 201 249 295
#     4  10  20  33  50  71 101 141 176 203 240 305
#     4  10  20  31  47  74 104 132 165 214 260 295
#     4   9  17  30  47  68  96 130 164 201 248 305
#     4  10  21  36  52  73 104 140 172 203 248 303
#
# _framework density 22.510487999999999
#
# number of rings (size 3 to 8) (size 9 to 14) (size 15 to 20)
#    0.000    2.333    0.000    4.000    0.000    5.333 
#    0.000    0.000    0.000    0.000    0.000   18.667 
#    0.000    9.333    0.000    0.667    0.000    0.000 
#
# Total GULP energy -267843.306960 kJ/mol
# GULP energy per Si atom -5580.068895 kJ/mol
# Density = 2.245925 g / cm^3
# Si number density = 22.510488 Si / 1000 Ang^3
#
#
#
# Elastic Constant Matrix: (Units=GPa)
#
#
# Indices 1 2 3 4 5 6 
#
# 1 98.7288 -6.0402 28.9193 0.0000 0.0000 0.0000
# 2 -6.0402 32.7944 -4.2609 0.0000 0.0000 0.0000
# 3 28.9193 -4.2609 86.9441 0.0000 0.0000 0.0000
# 4 0.0000 0.0000 0.0000 15.7064 0.0000 0.0000
# 5 0.0000 0.0000 0.0000 0.0000 40.8771 0.0000
# 6 0.0000 0.0000 0.0000 0.0000 0.0000 13.1187
#
#
#
# Elastic Compliance Matrix: (Units=1/GPa)
#
#
# Indices 1 2 3 4 5 6 
#
# 1 0.011305 0.001604 -0.003682 0.000000 0.000000 0.000000
# 2 0.001604 0.030916 0.000982 0.000000 0.000000 0.000000
# 3 -0.003682 0.000982 0.012774 0.000000 0.000000 0.000000
# 4 0.000000 0.000000 0.000000 0.063668 0.000000 0.000000
# 5 0.000000 0.000000 0.000000 0.000000 0.024464 0.000000
# 6 0.000000 0.000000 0.000000 0.000000 0.000000 0.076227
#
#
# Mechanical properties :
#
#
# Convention : Reuss Voigt Hill
#
# Bulk Modulus (GPa) = 18.93828 28.41153 23.67490
# Shear Modulus (GPa) = 20.90754 27.26372 24.08563
#
# Velocity S-wave (km/s) = 3.05091 3.48394 3.27459
# Velocity P-wave (km/s) = 4.56532 5.36961 4.98371
#
# Compressibility (1/GPa) = 0.05280311
#
# Stress axis : x y z
#
# Youngs Moduli (GPa) = 88.45387 32.34578 78.28169
#
# Poissons Ratio (x) = -0.05188 0.28821
# Poissons Ratio (y) = -0.14187 -0.07684
# Poissons Ratio (z) = 0.32567 -0.03175
#
# Static dielectric constant tensor:
#      x y z
#    x 1.926630 0.000000 0.000000 
#    y 0.000000 1.866900 0.000000 
#    z 0.000000 0.000000 1.898350 
# 
# From -- ./inp_files/17079.got.cif
#   From: 2010.05.17/outbox.cif.g08.bks.cpg/sg62_9_cif.got.tgz:17079.got - 2010.06.03 15:25:27.
