data_PCOD9461747
_publ_section_title
;
Structure prediction by ZEFSAII (Michael W. Deem and Ramdas Pophale) SiO2 
 PCOD9461747
Probable space group: P N M A
;
_chemical_formula_sum "Si O2"
_cell_formula_units_Z 64
_cell_length_a 5.424787
_cell_length_b 19.299160
_cell_length_c 28.089868
_cell_angle_alpha 90.000000
_cell_angle_beta 90.000000
_cell_angle_gamma 90.000000
_cell_volume 2940.835929
_symmetry_space_group_name_H-M "P N M A"
_symmetry_group_IT_number 62
_symmetry_cell_setting 'orthorhombic'
loop_
_space_group_symop_operation_xyz
x,y,z
1/2-x,-y,1/2+z
1/2+x,1/2-y,1/2-z
-x,1/2+y,-z
-x,-y,-z
1/2+x,y,1/2-z
1/2-x,1/2+y,1/2+z
x,1/2-y,z
loop_
_atom_site_type_symbol
_atom_site_label
_atom_site_fract_x
_atom_site_fract_y
_atom_site_fract_z
Si Si1 0.095050 0.830546 0.626551
Si Si2 0.153696 0.631583 0.266387
Si Si3 0.693899 0.345940 0.268767
Si Si4 0.537906 0.944894 0.043562
Si Si5 0.344911 0.506249 0.700511
Si Si6 0.038294 0.918320 0.012986
Si Si7 0.405578 0.334694 0.419434
Si Si8 0.654822 0.972444 0.151133
O O1 0.085539 0.750000 0.612379
O O2 0.176150 0.832429 0.681049
O O3 0.328597 0.861084 0.598746
O O4 0.822861 0.856519 0.614258
O O5 0.403752 0.667823 0.250025
O O6 0.154031 0.561955 0.233005
O O7 0.153581 0.602322 0.320543
O O8 0.410326 0.321210 0.266617
O O9 0.659236 0.427982 0.265460
O O10 0.262484 0.915142 0.050414
O O11 0.632708 0.971764 0.094350
O O12 0.763054 0.895493 0.027507
O O13 0.500000 0.000000 0.000000
O O14 0.588676 0.505641 0.668278
O O15 0.095371 0.507729 0.669966
O O16 0.131601 0.871962 0.969496
O O17 0.000000 0.000000 0.000000
O O18 0.412074 0.250000 0.422195
#
# Coordination Sequence:
#
# PCOD9461747 Si02
#       8
#     8   8   8   8   8   8   8   8
#     4  10  23  40  58  78  97 129 184 235 277 335
#     4   8  14  25  40  57  81 113 160 205 234 278
#     4  12  23  34  49  72 101 131 166 226 297 339
#     4  10  21  33  46  72 106 139 173 208 265 336
#     4  10  19  31  46  68  93 128 180 219 254 317
#     4  10  21  36  53  78 110 133 165 219 273 322
#     4  10  21  41  63  80 101 137 185 231 273 325
#     4  10  18  30  46  63  94 134 166 207 255 304
#
# _framework density 21.762519000000001
#
# number of rings (size 3 to 8) (size 9 to 14) (size 15 to 20)
#    0.000    2.000    0.000    5.250    0.000    6.500 
#    0.000    0.000    0.000    0.000    0.000    0.000 
#    0.000    0.000    0.000    0.000    0.000  112.500 
#
# Total GULP energy -356890.737354 kJ/mol
# GULP energy per Si atom -5576.417771 kJ/mol
# Density = 2.171299 g / cm^3
# Si number density = 21.762519 Si / 1000 Ang^3
#
#
#
# Elastic Constant Matrix: (Units=GPa)
#
#
# Indices 1 2 3 4 5 6 
#
# 1 191.5355 12.5369 29.8947 0.0000 0.0000 0.0000
# 2 12.5369 46.3224 7.2144 0.0000 0.0000 0.0000
# 3 29.8947 7.2144 99.0000 0.0000 0.0000 0.0000
# 4 0.0000 0.0000 0.0000 20.7617 0.0000 0.0000
# 5 0.0000 0.0000 0.0000 0.0000 45.3449 0.0000
# 6 0.0000 0.0000 0.0000 0.0000 0.0000 70.4733
#
#
#
# Elastic Compliance Matrix: (Units=1/GPa)
#
#
# Indices 1 2 3 4 5 6 
#
# 1 0.005550 -0.001255 -0.001585 0.000000 0.000000 0.000000
# 2 -0.001255 0.022120 -0.001233 0.000000 0.000000 0.000000
# 3 -0.001585 -0.001233 0.010669 0.000000 0.000000 0.000000
# 4 0.000000 0.000000 0.000000 0.048166 0.000000 0.000000
# 5 0.000000 0.000000 0.000000 0.000000 0.022053 0.000000
# 6 0.000000 0.000000 0.000000 0.000000 0.000000 0.014190
#
#
# Mechanical properties :
#
#
# Convention : Reuss Voigt Hill
#
# Bulk Modulus (GPa) = 33.11942 48.46111 40.79026
# Shear Modulus (GPa) = 35.47151 46.46345 40.96748
#
# Velocity S-wave (km/s) = 4.04163 4.62564 4.34346
# Velocity P-wave (km/s) = 6.08533 7.13059 6.62859
#
# Compressibility (1/GPa) = 0.03019377
#
# Stress axis : x y z
#
# Youngs Moduli (GPa) = 180.16538 45.20880 93.72658
#
# Poissons Ratio (x) = 0.05676 0.14852
# Poissons Ratio (y) = 0.22618 0.11555
# Poissons Ratio (z) = 0.28548 0.05573
#
# Static dielectric constant tensor:
#      x y z
#    x 1.973480 0.000000 0.000000 
#    y 0.000000 1.841680 0.000000 
#    z 0.000000 0.000000 1.816930 
# 
# From -- ./inp_files/30544.got.cif
#   From: 2010.05.17/outbox.cif.g08.bks.cpg/sg62_16_cif.got.tgz:30544.got - 2010.06.03 15:25:27.
