data_PCOD9461743
_publ_section_title
;
Structure prediction by ZEFSAII (Michael W. Deem and Ramdas Pophale) SiO2 
 PCOD9461743
Probable space group: P N M A
;
_chemical_formula_sum "Si O2"
_cell_formula_units_Z 56
_cell_length_a 22.333600
_cell_length_b 8.938879
_cell_length_c 18.433204
_cell_angle_alpha 90.000000
_cell_angle_beta 90.000000
_cell_angle_gamma 90.000000
_cell_volume 3679.955962
_symmetry_space_group_name_H-M "P N M A"
_symmetry_group_IT_number 62
_symmetry_cell_setting 'orthorhombic'
loop_
_space_group_symop_operation_xyz
x,y,z
1/2-x,-y,1/2+z
1/2+x,1/2-y,1/2-z
-x,1/2+y,-z
-x,-y,-z
1/2+x,y,1/2-z
1/2-x,1/2+y,1/2+z
x,1/2-y,z
loop_
_atom_site_type_symbol
_atom_site_label
_atom_site_fract_x
_atom_site_fract_y
_atom_site_fract_z
Si Si1 0.147131 0.568303 0.872243
Si Si2 0.180550 0.424294 0.258212
Si Si3 0.678207 0.922731 0.784356
Si Si4 0.289154 0.928615 0.072202
Si Si5 0.349202 0.072151 0.613160
Si Si6 0.715952 0.067930 0.088026
Si Si7 0.065475 0.428838 0.994595
O O1 0.142195 0.750000 0.876271
O O2 0.143893 0.522968 0.787534
O O3 0.214061 0.528928 0.900374
O O4 0.099054 0.491552 0.923416
O O5 0.161869 0.250000 0.254311
O O6 0.251536 0.427569 0.238705
O O7 0.148231 0.519832 0.196649
O O8 0.178623 0.480124 0.341255
O O9 0.662423 0.750000 0.795639
O O10 0.674163 0.006840 0.860326
O O11 0.295018 0.750000 0.073155
O O12 0.218640 0.961333 0.086071
O O13 0.304523 0.983496 0.991303
O O14 0.358452 0.250000 0.606263
O O15 0.395188 0.984542 0.562767
O O16 0.714322 0.250000 0.089079
O O17 0.062382 0.250000 0.993009
O O18 0.000000 0.500000 0.000000
#
# Coordination Sequence:
#
# PCOD9461743 Si02
#       7
#     8   8   8   8   8   8   8
#     4   9  16  31  47  59  83 116 147 181 223 260
#     4   8  14  25  41  60  83 113 149 177 208 258
#     4   8  15  25  40  60  84 114 144 176 214 258
#     4   9  15  24  41  62  88 119 148 177 212 255
#     4  10  18  30  45  60  85 115 145 182 224 259
#     4   8  13  24  42  62  87 120 148 175 214 257
#     4  12  24  35  48  65  84 111 150 190 225 263
#
# _framework density 15.217574000000001
#
# number of rings (size 3 to 8) (size 9 to 14) (size 15 to 20)
#    0.000    2.857    1.429    3.429    0.000    1.143 
#    0.000    2.857    0.000    0.000    0.000    0.000 
#    0.000    1.143    0.000    3.429    0.000    5.286 
#
# Total GULP energy -311756.577024 kJ/mol
# GULP energy per Si atom -5567.081733 kJ/mol
# Density = 1.518294 g / cm^3
# Si number density = 15.217574 Si / 1000 Ang^3
#
#
#
# Elastic Constant Matrix: (Units=GPa)
#
#
# Indices 1 2 3 4 5 6 
#
# 1 35.6641 27.9371 34.2600 0.0000 0.0000 0.0000
# 2 27.9371 45.8164 46.9650 0.0000 0.0000 0.0000
# 3 34.2600 46.9650 168.6491 0.0000 0.0000 0.0000
# 4 0.0000 0.0000 0.0000 27.6621 0.0000 0.0000
# 5 0.0000 0.0000 0.0000 0.0000 9.5767 0.0000
# 6 0.0000 0.0000 0.0000 0.0000 0.0000 14.1913
#
#
#
# Elastic Compliance Matrix: (Units=1/GPa)
#
#
# Indices 1 2 3 4 5 6 
#
# 1 0.054446 -0.030595 -0.002540 0.000000 0.000000 0.000000
# 2 -0.030595 0.047738 -0.007079 0.000000 0.000000 0.000000
# 3 -0.002540 -0.007079 0.008417 0.000000 0.000000 0.000000
# 4 0.000000 0.000000 0.000000 0.036151 0.000000 0.000000
# 5 0.000000 0.000000 0.000000 0.000000 0.104420 0.000000
# 6 0.000000 0.000000 0.000000 0.000000 0.000000 0.070466
#
#
# Mechanical properties :
#
#
# Convention : Reuss Voigt Hill
#
# Bulk Modulus (GPa) = 33.14267 52.05042 42.59655
# Shear Modulus (GPa) = 12.13228 19.68386 15.90807
#
# Velocity S-wave (km/s) = 2.82663 3.60042 3.23673
# Velocity P-wave (km/s) = 5.69909 7.18070 6.48236
#
# Compressibility (1/GPa) = 0.03017258
#
# Stress axis : x y z
#
# Youngs Moduli (GPa) = 18.36678 20.94749 118.80969
#
# Poissons Ratio (x) = 0.64089 0.30181
# Poissons Ratio (y) = 0.56194 0.84104
# Poissons Ratio (z) = 0.04666 0.14828
#
# Static dielectric constant tensor:
#      x y z
#    x 1.469750 0.000000 0.000000 
#    y 0.000000 1.508840 0.000000 
#    z 0.000000 0.000000 1.551640 
# 
# From -- ./inp_files/24568.got.cif
#   From: 2010.05.17/outbox.cif.g08.bks.cpg/sg62_13_cif.got.tgz:24568.got - 2010.06.03 15:25:27.
