data_PCOD9461544
_publ_section_title
;
Structure prediction by ZEFSAII (Michael W. Deem and Ramdas Pophale) SiO2 
 PCOD9461544
Probable space group: P N M A
;
_chemical_formula_sum "Si O2"
_cell_formula_units_Z 64
_cell_length_a 35.099575
_cell_length_b 9.266832
_cell_length_c 13.930167
_cell_angle_alpha 90.000000
_cell_angle_beta 90.000000
_cell_angle_gamma 90.000000
_cell_volume 4530.952095
_symmetry_space_group_name_H-M "P N M A"
_symmetry_group_IT_number 62
_symmetry_cell_setting 'orthorhombic'
loop_
_space_group_symop_operation_xyz
x,y,z
1/2-x,-y,1/2+z
1/2+x,1/2-y,1/2-z
-x,1/2+y,-z
-x,-y,-z
1/2+x,y,1/2-z
1/2-x,1/2+y,1/2+z
x,1/2-y,z
loop_
_atom_site_type_symbol
_atom_site_label
_atom_site_fract_x
_atom_site_fract_y
_atom_site_fract_z
Si Si1 0.540346 0.083560 0.611536
Si Si2 0.964644 0.583779 0.878201
Si Si3 0.729547 0.577104 0.078997
Si Si4 0.732813 0.076859 0.880195
Si Si5 0.617702 0.578883 0.600230
Si Si6 0.690811 0.421902 0.683472
Si Si7 0.309577 0.425481 0.726254
Si Si8 0.112448 0.922088 0.128674
O O1 0.541814 0.250000 0.642373
O O2 0.537170 0.083139 0.494980
O O3 0.502709 0.002920 0.648736
O O4 0.579054 0.998871 0.634395
O O5 0.966410 0.750000 0.847417
O O6 0.926093 0.505521 0.845378
O O7 0.726249 0.750000 0.068147
O O8 0.722626 0.499443 0.978934
O O9 0.772445 0.547110 0.116697
O O10 0.701684 0.530934 0.165865
O O11 0.733623 0.250000 0.892963
O O12 0.704313 0.045959 0.792039
O O13 0.774934 0.030441 0.843724
O O14 0.615471 0.750000 0.616614
O O15 0.654471 0.510506 0.649865
O O16 0.620319 0.556013 0.484883
O O17 0.683272 0.250000 0.676932
O O18 0.309307 0.250000 0.725277
O O19 0.350590 0.471505 0.687860
O O20 0.107011 0.750000 0.142535
#
# Coordination Sequence:
#
# PCOD9461544 Si02
#       8
#     8   8   8   8   8   8   8   8
#     4   9  16  26  39  54  77 109 138 163 198 243
#     4   9  16  25  37  55  79 105 135 169 200 233
#     4   9  17  29  44  60  79 105 137 172 206 239
#     4   9  17  30  45  59  79 108 138 169 207 246
#     4  10  18  26  40  61  82 106 139 175 203 232
#     4   9  18  30  42  58  82 110 137 166 205 250
#     4   8  15  28  43  58  79 108 138 166 201 246
#     4   9  16  26  40  57  79 109 140 167 200 242
#
# _framework density 14.125067
#
# number of rings (size 3 to 8) (size 9 to 14) (size 15 to 20)
#    0.000    3.000    0.000    3.375    0.000    5.500 
#    0.000    3.125    0.000    0.000    0.000    0.000 
#    0.000    1.000    0.000    3.000    0.000    4.625 
#
# Total GULP energy -356466.302543 kJ/mol
# GULP energy per Si atom -5569.785977 kJ/mol
# Density = 1.409292 g / cm^3
# Si number density = 14.125067 Si / 1000 Ang^3
#
#
#
# Elastic Constant Matrix: (Units=GPa)
#
#
# Indices 1 2 3 4 5 6 
#
# 1 133.9907 73.3586 42.5671 0.0000 0.0000 0.0000
# 2 73.3586 69.3774 38.3691 0.0000 0.0000 0.0000
# 3 42.5671 38.3691 57.9214 0.0000 0.0000 0.0000
# 4 0.0000 0.0000 0.0000 20.0072 0.0000 0.0000
# 5 0.0000 0.0000 0.0000 0.0000 18.6324 0.0000
# 6 0.0000 0.0000 0.0000 0.0000 0.0000 24.5957
#
#
#
# Elastic Compliance Matrix: (Units=1/GPa)
#
#
# Indices 1 2 3 4 5 6 
#
# 1 0.017758 -0.018242 -0.000966 0.000000 0.000000 0.000000
# 2 -0.018242 0.041488 -0.014077 0.000000 0.000000 0.000000
# 3 -0.000966 -0.014077 0.027299 0.000000 0.000000 0.000000
# 4 0.000000 0.000000 0.000000 0.049982 0.000000 0.000000
# 5 0.000000 0.000000 0.000000 0.000000 0.053670 0.000000
# 6 0.000000 0.000000 0.000000 0.000000 0.000000 0.040658
#
#
# Mechanical properties :
#
#
# Convention : Reuss Voigt Hill
#
# Bulk Modulus (GPa) = 50.06155 63.31991 56.69073
# Shear Modulus (GPa) = 16.44288 19.78006 18.11147
#
# Velocity S-wave (km/s) = 3.41558 3.74619 3.58470
# Velocity P-wave (km/s) = 7.14657 7.97730 7.57333
#
# Compressibility (1/GPa) = 0.01997541
#
# Stress axis : x y z
#
# Youngs Moduli (GPa) = 56.31388 24.10317 36.63079
#
# Poissons Ratio (x) = 0.43970 0.03538
# Poissons Ratio (y) = 1.02730 0.51564
# Poissons Ratio (z) = 0.05439 0.33929
#
# Static dielectric constant tensor:
#      x y z
#    x 1.459330 0.000000 0.000000 
#    y 0.000000 1.469120 0.000000 
#    z 0.000000 0.000000 1.440470 
# 
# From -- ./inp_files/21230.got.cif
#   From: 2010.05.17/outbox.cif.g08.bks.cpg/sg62_11_cif.got.tgz:21230.got - 2010.06.03 15:25:27.
