data_PCOD9461045
_publ_section_title
;
Structure prediction by ZEFSAII (Michael W. Deem and Ramdas Pophale) SiO2 
 PCOD9461045
Probable space group: P B C A
;
_chemical_formula_sum "Si O2"
_cell_formula_units_Z 56
_cell_length_a 14.083807
_cell_length_b 31.413799
_cell_length_c 5.482403
_cell_angle_alpha 90.000000
_cell_angle_beta 90.000000
_cell_angle_gamma 90.000000
_cell_volume 2425.556984
_symmetry_space_group_name_H-M "P B C A"
_symmetry_group_IT_number 61
_symmetry_cell_setting 'orthorhombic'
loop_
_space_group_symop_operation_xyz
x,y,z
1/2-x,-y,1/2+z
1/2+x,1/2-y,-z
-x,1/2+y,1/2-z
-x,-y,-z
1/2+x,y,1/2-z
1/2-x,1/2+y,z
x,1/2-y,1/2+z
loop_
_atom_site_type_symbol
_atom_site_label
_atom_site_fract_x
_atom_site_fract_y
_atom_site_fract_z
Si Si1 0.731576 0.726053 0.698382
Si Si2 0.248347 0.864864 0.841554
Si Si3 0.598696 0.844726 0.043474
Si Si4 0.899050 0.418161 0.396229
Si Si5 0.808879 0.996310 0.033730
Si Si6 0.391989 0.822318 0.136376
Si Si7 0.893619 0.594732 0.528665
O O1 0.708464 0.746888 0.438257
O O2 0.669649 0.682619 0.713382
O O3 0.843821 0.713505 0.697659
O O4 0.156523 0.847372 0.703474
O O5 0.319690 0.891604 0.675385
O O6 0.200875 0.897825 0.025549
O O7 0.315395 0.826407 0.922588
O O8 0.585078 0.893199 0.140744
O O9 0.498954 0.820308 0.045820
O O10 0.881278 0.467909 0.431719
O O11 0.995090 0.406272 0.542371
O O12 0.740706 0.989976 0.792559
O O13 0.862505 0.952570 0.100518
O O14 0.385028 0.867924 0.272031
#
# Coordination Sequence:
#
# PCOD9461045 Si02
#       7
#     8   8   8   8   8   8   8
#     4  12  27  48  73 106 146 186 234 303 362 429
#     4  12  19  44  69 102 140 188 244 297 352 435
#     4  11  25  45  73 105 142 192 243 297 368 442
#     4  11  24  42  69 103 140 190 241 297 360 434
#     4  12  25  44  69 104 148 190 237 300 363 422
#     4  11  25  45  73 105 142 192 243 297 368 442
#     4  11  24  42  69 103 140 190 241 297 360 434
#
# _framework density 23.087478999999998
#
# number of rings (size 3 to 8) (size 9 to 14) (size 15 to 20)
#    0.000    0.571    4.286    3.857    0.000    1.143 
#    0.000    1.429    0.000    0.000    0.000    0.000 
#    0.000    0.000    0.000    0.000    0.000    0.000 
#
# Total GULP energy -312474.106543 kJ/mol
# GULP energy per Si atom -5579.894760 kJ/mol
# Density = 2.303493 g / cm^3
# Si number density = 23.087479 Si / 1000 Ang^3
#
#
#
# Elastic Constant Matrix: (Units=GPa)
#
#
# Indices 1 2 3 4 5 6 
#
# 1 116.3020 -15.0100 6.4073 0.0000 0.0000 0.0000
# 2 -15.0100 77.0545 6.1762 0.0000 0.0000 0.0000
# 3 6.4073 6.1762 60.8230 0.0000 0.0000 0.0000
# 4 0.0000 0.0000 0.0000 36.9623 0.0000 0.0000
# 5 0.0000 0.0000 0.0000 0.0000 45.7510 0.0000
# 6 0.0000 0.0000 0.0000 0.0000 0.0000 29.4050
#
#
#
# Elastic Compliance Matrix: (Units=1/GPa)
#
#
# Indices 1 2 3 4 5 6 
#
# 1 0.008895 0.001823 -0.001122 0.000000 0.000000 0.000000
# 2 0.001823 0.013458 -0.001559 0.000000 0.000000 0.000000
# 3 -0.001122 -0.001559 0.016718 0.000000 0.000000 0.000000
# 4 0.000000 0.000000 0.000000 0.027055 0.000000 0.000000
# 5 0.000000 0.000000 0.000000 0.000000 0.021857 0.000000
# 6 0.000000 0.000000 0.000000 0.000000 0.000000 0.034008
#
#
# Mechanical properties :
#
#
# Convention : Reuss Voigt Hill
#
# Bulk Modulus (GPa) = 26.77032 27.70296 27.23664
# Shear Modulus (GPa) = 36.72197 39.53072 38.12635
#
# Velocity S-wave (km/s) = 3.99251 4.14238 4.06813
# Velocity P-wave (km/s) = 5.73357 5.90798 5.82143
#
# Compressibility (1/GPa) = 0.03735480
#
# Stress axis : x y z
#
# Youngs Moduli (GPa) = 112.41808 74.30629 59.81713
#
# Poissons Ratio (x) = -0.13544 0.06712
# Poissons Ratio (y) = -0.20491 0.09323
# Poissons Ratio (z) = 0.12615 0.11581
#
# Static dielectric constant tensor:
#      x y z
#    x 1.863900 0.000000 0.000000 
#    y 0.000000 1.990200 0.000000 
#    z 0.000000 0.000000 2.022510 
# 
# From -- ./inp_files/587.got.cif
#   From: 2010.05.17/outbox.cif.g08.bks.cpg/sg61_1_cif.got.tgz:587.got - 2010.06.03 15:17:17.
