data_PCOD9461471
_publ_section_title
;
Structure prediction by ZEFSAII (Michael W. Deem and Ramdas Pophale) SiO2 
 PCOD9461471
Probable space group: P N M A
;
_chemical_formula_sum "Si O2"
_cell_formula_units_Z 56
_cell_length_a 12.131418
_cell_length_b 14.061686
_cell_length_c 19.116863
_cell_angle_alpha 90.000000
_cell_angle_beta 90.000000
_cell_angle_gamma 90.000000
_cell_volume 3261.111070
_symmetry_space_group_name_H-M "P N M A"
_symmetry_group_IT_number 62
_symmetry_cell_setting 'orthorhombic'
loop_
_space_group_symop_operation_xyz
x,y,z
1/2-x,-y,1/2+z
1/2+x,1/2-y,1/2-z
-x,1/2+y,-z
-x,-y,-z
1/2+x,y,1/2-z
1/2-x,1/2+y,1/2+z
x,1/2-y,z
loop_
_atom_site_type_symbol
_atom_site_label
_atom_site_fract_x
_atom_site_fract_y
_atom_site_fract_z
Si Si1 0.870928 0.983428 0.989459
Si Si2 0.314276 0.138394 0.615601
Si Si3 0.015122 0.140418 0.777505
Si Si4 0.095915 0.465502 0.649850
Si Si5 0.564079 0.643424 0.061490
Si Si6 0.699695 0.639636 0.915994
Si Si7 0.705242 0.143298 0.613497
O O1 0.825185 0.080888 0.956895
O O2 0.818978 0.905875 0.935201
O O3 0.829182 0.941977 0.062787
O O4 0.000000 0.000000 0.000000
O O5 0.308766 0.250000 0.603399
O O6 0.420033 0.120213 0.665400
O O7 0.204308 0.100421 0.652067
O O8 0.998841 0.250000 0.752189
O O9 0.023464 0.063583 0.716366
O O10 0.132170 0.138058 0.817813
O O11 0.139067 0.572293 0.639910
O O12 0.026335 0.433175 0.581823
O O13 0.515667 0.750000 0.063489
O O14 0.663354 0.639203 0.118185
O O15 0.626402 0.632492 0.987377
O O16 0.707703 0.750000 0.897158
O O17 0.681460 0.250000 0.582299
#
# Coordination Sequence:
#
# PCOD9461471 Si02
#       7
#     8   8   8   8   8   8   8
#     4  10  17  30  53  77 102 133 173 214 256 311
#     4  10  21  33  48  77 109 135 167 214 269 311
#     4  10  20  32  48  73 107 139 166 208 266 321
#     4  11  21  33  53  77 105 137 177 212 258 316
#     4   9  17  31  53  79 102 131 172 215 258 308
#     4   9  20  36  54  75 103 141 182 218 259 307
#     4   9  18  32  51  76 106 140 174 209 259 319
#
# _framework density 17.172059999999998
#
# number of rings (size 3 to 8) (size 9 to 14) (size 15 to 20)
#    0.000    2.286    1.429    3.000    2.000    0.571 
#    0.000    0.000    0.000    5.143    0.000    0.000 
#    0.000    0.000    0.000    0.000    0.000    0.000 
#
# Total GULP energy -311809.626792 kJ/mol
# GULP energy per Si atom -5568.029050 kJ/mol
# Density = 1.713298 g / cm^3
# Si number density = 17.172060 Si / 1000 Ang^3
#
#
#
# Elastic Constant Matrix: (Units=GPa)
#
#
# Indices 1 2 3 4 5 6 
#
# 1 53.3674 37.3660 11.3533 0.0000 0.0000 0.0000
# 2 37.3660 129.3539 39.3794 0.0000 0.0000 0.0000
# 3 11.3533 39.3794 47.8551 0.0000 0.0000 0.0000
# 4 0.0000 0.0000 0.0000 21.5950 0.0000 0.0000
# 5 0.0000 0.0000 0.0000 0.0000 18.3241 0.0000
# 6 0.0000 0.0000 0.0000 0.0000 0.0000 22.5336
#
#
#
# Elastic Compliance Matrix: (Units=1/GPa)
#
#
# Indices 1 2 3 4 5 6 
#
# 1 0.023489 -0.006790 0.000014 0.000000 0.000000 0.000000
# 2 -0.006790 0.012277 -0.008492 0.000000 0.000000 0.000000
# 3 0.000014 -0.008492 0.027881 0.000000 0.000000 0.000000
# 4 0.000000 0.000000 0.000000 0.046307 0.000000 0.000000
# 5 0.000000 0.000000 0.000000 0.000000 0.054573 0.000000
# 6 0.000000 0.000000 0.000000 0.000000 0.000000 0.044378
#
#
# Mechanical properties :
#
#
# Convention : Reuss Voigt Hill
#
# Bulk Modulus (GPa) = 30.19979 45.19709 37.69844
# Shear Modulus (GPa) = 19.96192 21.98905 20.97549
#
# Velocity S-wave (km/s) = 3.41319 3.58231 3.49877
# Velocity P-wave (km/s) = 5.75829 6.59453 6.19055
#
# Compressibility (1/GPa) = 0.03311281
#
# Stress axis : x y z
#
# Youngs Moduli (GPa) = 42.57361 81.45151 35.86671
#
# Poissons Ratio (x) = 0.55302 -0.00052
# Poissons Ratio (y) = 0.28905 0.30458
# Poissons Ratio (z) = -0.00062 0.69169
#
# Static dielectric constant tensor:
#      x y z
#    x 1.607210 0.000000 0.000000 
#    y 0.000000 1.576190 0.000000 
#    z 0.000000 0.000000 1.614830 
# 
# From -- ./inp_files/26632.got.cif
#   From: 2010.05.17/outbox.cif.g08.bks.cpg/sg62_14_cif.got.tgz:26632.got - 2010.06.03 15:25:27.
