data_PCOD9461850
_publ_section_title
;
Structure prediction by ZEFSAII (Michael W. Deem and Ramdas Pophale) SiO2 
 PCOD9461850
Probable space group: P N M A
;
_chemical_formula_sum "Si O2"
_cell_formula_units_Z 64
_cell_length_a 8.082911
_cell_length_b 25.334288
_cell_length_c 20.896172
_cell_angle_alpha 90.000000
_cell_angle_beta 90.000000
_cell_angle_gamma 90.000000
_cell_volume 4279.009341
_symmetry_space_group_name_H-M "P N M A"
_symmetry_group_IT_number 62
_symmetry_cell_setting 'orthorhombic'
loop_
_space_group_symop_operation_xyz
x,y,z
1/2-x,-y,1/2+z
1/2+x,1/2-y,1/2-z
-x,1/2+y,-z
-x,-y,-z
1/2+x,y,1/2-z
1/2-x,1/2+y,1/2+z
x,1/2-y,z
loop_
_atom_site_type_symbol
_atom_site_label
_atom_site_fract_x
_atom_site_fract_y
_atom_site_fract_z
Si Si1 0.374897 0.527274 0.245500
Si Si2 0.544983 0.557724 0.473619
Si Si3 0.595255 0.912738 0.328638
Si Si4 0.157518 0.495210 0.352011
Si Si5 0.166721 0.689589 0.343702
Si Si6 0.288535 0.689393 0.201350
Si Si7 0.081481 0.443433 0.477787
Si Si8 0.290773 0.097953 0.944720
O O1 0.226633 0.547495 0.202353
O O2 0.443162 0.579482 0.280856
O O3 0.313493 0.490314 0.303862
O O4 0.508004 0.504661 0.196890
O O5 0.500000 0.500000 0.500000
O O6 0.555957 0.564896 0.397691
O O7 0.732754 0.567546 0.496925
O O8 0.377905 0.591700 0.485929
O O9 0.670019 0.854490 0.329368
O O10 0.108280 0.449729 0.401721
O O11 0.188043 0.547073 0.396757
O O12 0.182699 0.750000 0.366252
O O13 0.270065 0.684833 0.278054
O O14 0.214120 0.648005 0.397962
O O15 0.975525 0.680857 0.322589
O O16 0.240788 0.750000 0.185598
O O17 0.000000 0.500000 0.500000
O O18 0.949804 0.403127 0.508373
#
# Coordination Sequence:
#
# PCOD9461850 Si02
#       8
#     8   8   8   8   8   8   8   8
#     4  10  19  27  45  61  90 121 150 195 245 281
#     4  12  21  32  49  68  89 122 164 211 244 293
#     4  11  19  30  43  65  89 117 162 205 239 291
#     4  10  18  31  43  67  90 120 162 191 238 292
#     4  10  21  35  48  69  96 128 171 216 256 294
#     4  10  20  32  48  65  92 129 166 215 262 290
#     4  10  19  33  48  67  93 124 160 205 240 289
#     4  11  21  33  50  68  93 128 167 207 248 284
#
# _framework density 14.956734000000001
#
# number of rings (size 3 to 8) (size 9 to 14) (size 15 to 20)
#    0.000    1.500    3.750    5.250    1.750    0.000 
#    0.000    0.000    0.000    0.000    0.000    0.000 
#    0.000    0.000    0.000    1.125    0.250    1.375 
#
# Total GULP energy -356428.520140 kJ/mol
# GULP energy per Si atom -5569.195627 kJ/mol
# Density = 1.492269 g / cm^3
# Si number density = 14.956734 Si / 1000 Ang^3
#
#
#
# Elastic Constant Matrix: (Units=GPa)
#
#
# Indices 1 2 3 4 5 6 
#
# 1 94.9774 19.5361 33.2441 0.0000 0.0000 0.0000
# 2 19.5361 53.3498 31.1663 0.0000 0.0000 0.0000
# 3 33.2441 31.1663 67.7612 0.0000 0.0000 0.0000
# 4 0.0000 0.0000 0.0000 25.1198 0.0000 0.0000
# 5 0.0000 0.0000 0.0000 0.0000 32.6058 0.0000
# 6 0.0000 0.0000 0.0000 0.0000 0.0000 17.6257
#
#
#
# Elastic Compliance Matrix: (Units=1/GPa)
#
#
# Indices 1 2 3 4 5 6 
#
# 1 0.012787 -0.001391 -0.005633 0.000000 0.000000 0.000000
# 2 -0.001391 0.025783 -0.011176 0.000000 0.000000 0.000000
# 3 -0.005633 -0.011176 0.022662 0.000000 0.000000 0.000000
# 4 0.000000 0.000000 0.000000 0.039809 0.000000 0.000000
# 5 0.000000 0.000000 0.000000 0.000000 0.030669 0.000000
# 6 0.000000 0.000000 0.000000 0.000000 0.000000 0.056735
#
#
# Mechanical properties :
#
#
# Convention : Reuss Voigt Hill
#
# Bulk Modulus (GPa) = 40.27415 42.66459 41.46937
# Shear Modulus (GPa) = 21.44793 23.87973 22.66383
#
# Velocity S-wave (km/s) = 3.79093 4.00007 3.89690
# Velocity P-wave (km/s) = 6.79316 7.06550 6.93067
#
# Compressibility (1/GPa) = 0.02482982
#
# Stress axis : x y z
#
# Youngs Moduli (GPa) = 78.20558 38.78598 44.12743
#
# Poissons Ratio (x) = 0.05397 0.24858
# Poissons Ratio (y) = 0.10882 0.49316
# Poissons Ratio (z) = 0.44055 0.43346
#
# Static dielectric constant tensor:
#      x y z
#    x 1.596090 0.000000 0.000000 
#    y 0.000000 1.484050 0.000000 
#    z 0.000000 0.000000 1.491100 
# 
# From -- ./inp_files/22662.got.cif
#   From: 2010.05.17/outbox.cif.g08.bks.cpg/sg62_12_cif.got.tgz:22662.got - 2010.06.03 15:25:27.
