data_PCOD9461527
_publ_section_title
;
Structure prediction by ZEFSAII (Michael W. Deem and Ramdas Pophale) SiO2 
 PCOD9461527
Probable space group: P N M A
;
_chemical_formula_sum "Si O2"
_cell_formula_units_Z 64
_cell_length_a 18.783728
_cell_length_b 21.967404
_cell_length_c 9.141500
_cell_angle_alpha 90.000000
_cell_angle_beta 90.000000
_cell_angle_gamma 90.000000
_cell_volume 3772.054783
_symmetry_space_group_name_H-M "P N M A"
_symmetry_group_IT_number 62
_symmetry_cell_setting 'orthorhombic'
loop_
_space_group_symop_operation_xyz
x,y,z
1/2-x,-y,1/2+z
1/2+x,1/2-y,1/2-z
-x,1/2+y,-z
-x,-y,-z
1/2+x,y,1/2-z
1/2-x,1/2+y,1/2+z
x,1/2-y,z
loop_
_atom_site_type_symbol
_atom_site_label
_atom_site_fract_x
_atom_site_fract_y
_atom_site_fract_z
Si Si1 0.929086 0.512247 0.835117
Si Si2 0.081256 0.384931 0.644502
Si Si3 0.644303 0.180820 0.124228
Si Si4 0.008122 0.820161 0.784292
Si Si5 0.716220 0.055387 0.188345
Si Si6 0.493206 0.898032 0.435004
Si Si7 0.671333 0.000234 0.895483
Si Si8 0.967776 0.427348 0.406726
O O1 0.852550 0.526865 0.769601
O O2 0.944429 0.442364 0.875901
O O3 0.987944 0.534766 0.715927
O O4 0.942720 0.554129 0.977696
O O5 0.116511 0.334283 0.540166
O O6 0.046476 0.367946 0.797897
O O7 0.138450 0.438199 0.672320
O O8 0.019918 0.413918 0.541002
O O9 0.670635 0.250000 0.134543
O O10 0.574499 0.175063 0.229030
O O11 0.698134 0.126696 0.165924
O O12 0.028542 0.750000 0.778538
O O13 0.049429 0.863470 0.671708
O O14 0.015289 0.848900 0.944583
O O15 0.784913 0.039545 0.281749
O O16 0.718349 0.022658 0.031229
O O17 0.603163 0.962165 0.949773
#
# Coordination Sequence:
#
# PCOD9461527 Si02
#       8
#     8   8   8   8   8   8   8   8
#     4  10  18  32  50  76 110 140 169 207 270 324
#     4  10  18  31  53  80 103 137 179 222 261 320
#     4   9  18  36  54  70 102 146 179 210 257 322
#     4   9  18  32  51  75 102 136 183 221 251 310
#     4  11  22  35  50  83 108 137 175 220 264 321
#     4  10  18  26  52  78 109 135 167 223 268 309
#     4  11  22  31  52  77 112 135 172 223 267 317
#     4  10  17  36  55  74 101 145 180 208 268 320
#
# _framework density 16.96688
#
# number of rings (size 3 to 8) (size 9 to 14) (size 15 to 20)
#    0.000    2.000    6.250    1.125    1.750    0.500 
#    0.000    0.625    0.000    0.000    0.000    4.375 
#    0.000    0.000    0.000    0.000    0.000    0.000 
#
# Total GULP energy -356826.866579 kJ/mol
# GULP energy per Si atom -5575.419790 kJ/mol
# Density = 1.692826 g / cm^3
# Si number density = 16.966880 Si / 1000 Ang^3
#
#
#
# Elastic Constant Matrix: (Units=GPa)
#
#
# Indices 1 2 3 4 5 6 
#
# 1 30.4661 12.0546 7.3942 0.0000 0.0000 0.0000
# 2 12.0546 108.3841 25.7515 0.0000 0.0000 0.0000
# 3 7.3942 25.7515 75.1803 0.0000 0.0000 0.0000
# 4 0.0000 0.0000 0.0000 20.7156 0.0000 0.0000
# 5 0.0000 0.0000 0.0000 0.0000 22.5074 0.0000
# 6 0.0000 0.0000 0.0000 0.0000 0.0000 14.3308
#
#
#
# Elastic Compliance Matrix: (Units=1/GPa)
#
#
# Indices 1 2 3 4 5 6 
#
# 1 0.034688 -0.003317 -0.002275 0.000000 0.000000 0.000000
# 2 -0.003317 0.010361 -0.003223 0.000000 0.000000 0.000000
# 3 -0.002275 -0.003223 0.014629 0.000000 0.000000 0.000000
# 4 0.000000 0.000000 0.000000 0.048273 0.000000 0.000000
# 5 0.000000 0.000000 0.000000 0.000000 0.044430 0.000000
# 6 0.000000 0.000000 0.000000 0.000000 0.000000 0.069780
#
#
# Mechanical properties :
#
#
# Convention : Reuss Voigt Hill
#
# Bulk Modulus (GPa) = 23.78273 33.82569 28.80421
# Shear Modulus (GPa) = 19.69995 22.76608 21.23302
#
# Velocity S-wave (km/s) = 3.41116 3.66703 3.54141
# Velocity P-wave (km/s) = 5.43712 6.15703 5.80824
#
# Compressibility (1/GPa) = 0.04204731
#
# Stress axis : x y z
#
# Youngs Moduli (GPa) = 28.82820 96.51463 68.35724
#
# Poissons Ratio (x) = 0.32018 0.15554
# Poissons Ratio (y) = 0.09564 0.22030
# Poissons Ratio (z) = 0.06560 0.31104
#
# Static dielectric constant tensor:
#      x y z
#    x 1.560970 0.000000 0.000000 
#    y 0.000000 1.583950 0.000000 
#    z 0.000000 0.000000 1.595920 
# 
# From -- ./inp_files/8993.got.cif
#   From: 2010.05.17/outbox.cif.g08.bks.cpg/sg62_5_cif.got.tgz:8993.got - 2010.06.03 15:25:27.
