data_PCOD9461785
_publ_section_title
;
Structure prediction by ZEFSAII (Michael W. Deem and Ramdas Pophale) SiO2 
 PCOD9461785
Probable space group: P N M A
;
_chemical_formula_sum "Si O2"
_cell_formula_units_Z 48
_cell_length_a 13.526569
_cell_length_b 16.758264
_cell_length_c 8.488421
_cell_angle_alpha 90.000000
_cell_angle_beta 90.000000
_cell_angle_gamma 90.000000
_cell_volume 1924.170673
_symmetry_space_group_name_H-M "P N M A"
_symmetry_group_IT_number 62
_symmetry_cell_setting 'orthorhombic'
loop_
_space_group_symop_operation_xyz
x,y,z
1/2-x,-y,1/2+z
1/2+x,1/2-y,1/2-z
-x,1/2+y,-z
-x,-y,-z
1/2+x,y,1/2-z
1/2-x,1/2+y,1/2+z
x,1/2-y,z
loop_
_atom_site_type_symbol
_atom_site_label
_atom_site_fract_x
_atom_site_fract_y
_atom_site_fract_z
Si Si1 0.754651 0.401831 0.317189
Si Si2 0.983793 0.095000 0.000578
Si Si3 0.479163 0.106119 0.164628
Si Si4 0.261964 0.341990 0.506041
Si Si5 0.245978 0.579262 0.321991
Si Si6 0.006966 0.914020 0.334460
O O1 0.865239 0.366366 0.335245
O O2 0.710376 0.358542 0.162703
O O3 0.715683 0.407709 0.498254
O O4 0.762533 0.491348 0.248345
O O5 0.022390 0.128908 0.165799
O O6 0.866088 0.110176 0.001733
O O7 0.022080 0.123740 0.831979
O O8 0.000000 0.000000 0.000000
O O9 0.478155 0.008143 0.163618
O O10 0.524573 0.127188 0.996382
O O11 0.286697 0.250000 0.513658
O O12 0.218407 0.366747 0.675882
O O13 0.126850 0.586806 0.337396
#
# Coordination Sequence:
#
# PCOD9461785 Si02
#       6
#     8   8   8   8   8   8
#     4  10  18  30  49  72 102 131 173 215 257 312
#     4   8  14  26  44  66  94 125 160 201 248 306
#     4   8  14  24  40  65  94 115 156 202 242 280
#     4  10  20  32  48  76 107 133 170 225 277 308
#     4  10  18  30  49  72 102 131 173 215 257 312
#     4   8  14  24  40  65  94 115 156 202 242 280
#
# _framework density 24.945812
#
# number of rings (size 3 to 8) (size 9 to 14) (size 15 to 20)
#    0.000    3.000    1.667    0.000    0.000    0.667 
#    0.000    0.000    0.000    0.000    0.000   37.333 
#    0.000    0.000    0.000    0.000    0.000    0.000 
#
# Total GULP energy -267616.102270 kJ/mol
# GULP energy per Si atom -5575.335464 kJ/mol
# Density = 2.488903 g / cm^3
# Si number density = 24.945812 Si / 1000 Ang^3
#
#
#
# Elastic Constant Matrix: (Units=GPa)
#
#
# Indices 1 2 3 4 5 6 
#
# 1 87.5324 6.8336 59.5681 0.0000 0.0000 0.0000
# 2 6.8336 40.6420 31.5221 0.0000 0.0000 0.0000
# 3 59.5681 31.5221 331.0369 0.0000 0.0000 0.0000
# 4 0.0000 0.0000 0.0000 14.2040 0.0000 0.0000
# 5 0.0000 0.0000 0.0000 0.0000 54.9766 0.0000
# 6 0.0000 0.0000 0.0000 0.0000 0.0000 4.8765
#
#
#
# Elastic Compliance Matrix: (Units=1/GPa)
#
#
# Indices 1 2 3 4 5 6 
#
# 1 0.013025 -0.000402 -0.002305 0.000000 0.000000 0.000000
# 2 -0.000402 0.026580 -0.002459 0.000000 0.000000 0.000000
# 3 -0.002305 -0.002459 0.003670 0.000000 0.000000 0.000000
# 4 0.000000 0.000000 0.000000 0.070403 0.000000 0.000000
# 5 0.000000 0.000000 0.000000 0.000000 0.018190 0.000000
# 6 0.000000 0.000000 0.000000 0.000000 0.000000 0.205066
#
#
# Mechanical properties :
#
#
# Convention : Reuss Voigt Hill
#
# Bulk Modulus (GPa) = 30.35629 72.78430 51.57030
# Shear Modulus (GPa) = 13.95695 38.89726 26.42711
#
# Velocity S-wave (km/s) = 2.36792 3.95304 3.25834
# Velocity P-wave (km/s) = 4.43524 7.07642 5.90538
#
# Compressibility (1/GPa) = 0.03294210
#
# Stress axis : x y z
#
# Youngs Moduli (GPa) = 76.77761 37.62280 272.49593
#
# Poissons Ratio (x) = 0.01512 0.62822
# Poissons Ratio (y) = 0.03085 0.66997
# Poissons Ratio (z) = 0.17701 0.09250
#
# Static dielectric constant tensor:
#      x y z
#    x 1.950900 0.000000 0.000000 
#    y 0.000000 1.847260 0.000000 
#    z 0.000000 0.000000 2.241240 
# 
# From -- ./inp_files/7795.got.cif
#   From: 2010.05.17/outbox.cif.g08.bks.cpg/sg62_4_cif.got.tgz:7795.got - 2010.06.03 15:25:27.
