data_PCOD9461237
_publ_section_title
;
Structure prediction by ZEFSAII (Michael W. Deem and Ramdas Pophale) SiO2 
 PCOD9461237
Probable space group: P B C A
;
_chemical_formula_sum "Si O2"
_cell_formula_units_Z 28
_cell_length_a 8.401011
_cell_length_b 15.812072
_cell_length_c 7.392599
_cell_angle_alpha 90.000000
_cell_angle_beta 90.000000
_cell_angle_gamma 90.000000
_cell_volume 982.013562
_symmetry_space_group_name_H-M "P B C A"
_symmetry_group_IT_number 61
_symmetry_cell_setting 'orthorhombic'
loop_
_space_group_symop_operation_xyz
x,y,z
1/2-x,-y,1/2+z
1/2+x,1/2-y,-z
-x,1/2+y,1/2-z
-x,-y,-z
1/2+x,y,1/2-z
1/2-x,1/2+y,z
x,1/2-y,1/2+z
loop_
_atom_site_type_symbol
_atom_site_label
_atom_site_fract_x
_atom_site_fract_y
_atom_site_fract_z
Si Si1 0.500000 0.500000 0.000000
Si Si2 0.120276 0.671701 0.344834
Si Si3 0.898116 0.836429 0.368158
Si Si4 0.799853 0.405498 0.038789
O O1 0.514010 0.595348 0.079265
O O2 0.697924 0.489208 0.006785
O O3 0.278393 0.676991 0.466713
O O4 0.011680 0.755246 0.347534
O O5 0.168763 0.646592 0.142737
O O6 0.793215 0.854974 0.194030
O O7 0.021312 0.915969 0.379995
#
# Coordination Sequence:
#
# PCOD9461237 Si02
#       4
#     4   8   8   8
#     4  12  30  56  86 138 180 236 304 380 480 538
#     4  12  31  56  92 134 184 241 306 390 461 570
#     4  12  31  56  90 129 179 240 313 370 471 566
#     4  12  31  54  89 129 181 238 302 387 461 565
#
# _framework density 28.512844999999999
#
# number of rings (size 3 to 8) (size 9 to 14) (size 15 to 20)
#    0.000    0.000    0.000    5.143   24.000    3.429 
#    0.000    0.000    0.000    0.000    0.000    0.000 
#    0.000    0.000    0.000    0.000    0.000    0.000 
#
# Total GULP energy -156725.419938 kJ/mol
# GULP energy per Si atom -5597.336426 kJ/mol
# Density = 2.844795 g / cm^3
# Si number density = 28.512845 Si / 1000 Ang^3
#
#
#
# Elastic Constant Matrix: (Units=GPa)
#
#
# Indices 1 2 3 4 5 6 
#
# 1 209.3985 41.5008 62.4241 0.0000 0.0000 0.0000
# 2 41.5008 101.5989 -0.8240 0.0000 0.0000 0.0000
# 3 62.4241 -0.8240 166.3034 0.0000 0.0000 0.0000
# 4 0.0000 0.0000 0.0000 13.8300 0.0000 0.0000
# 5 0.0000 0.0000 0.0000 0.0000 77.2794 0.0000
# 6 0.0000 0.0000 0.0000 0.0000 0.0000 87.1384
#
#
#
# Elastic Compliance Matrix: (Units=1/GPa)
#
#
# Indices 1 2 3 4 5 6 
#
# 1 0.005926 -0.002439 -0.002236 0.000000 0.000000 0.000000
# 2 -0.002439 0.010847 0.000969 0.000000 0.000000 0.000000
# 3 -0.002236 0.000969 0.006857 0.000000 0.000000 0.000000
# 4 0.000000 0.000000 0.000000 0.072307 0.000000 0.000000
# 5 0.000000 0.000000 0.000000 0.000000 0.012940 0.000000
# 6 0.000000 0.000000 0.000000 0.000000 0.000000 0.011476
#
#
# Mechanical properties :
#
#
# Convention : Reuss Voigt Hill
#
# Bulk Modulus (GPa) = 61.66035 75.94472 68.80253
# Shear Modulus (GPa) = 37.54603 60.59621 49.07112
#
# Velocity S-wave (km/s) = 3.63273 4.61502 4.15302
# Velocity P-wave (km/s) = 6.26642 7.42233 6.86873
#
# Compressibility (1/GPa) = 0.01621788
#
# Stress axis : x y z
#
# Youngs Moduli (GPa) = 168.76034 92.19479 145.82918
#
# Poissons Ratio (x) = 0.22483 0.32612
# Poissons Ratio (y) = 0.41154 -0.14132
# Poissons Ratio (z) = 0.37740 -0.08935
#
# Static dielectric constant tensor:
#      x y z
#    x 2.262810 0.000000 0.000000 
#    y 0.000000 2.258880 0.000000 
#    z 0.000000 0.000000 2.420990 
# 
# From -- ./inp_files/1610.got.cif
#   From: 2010.05.17/outbox.cif.g08.bks.cpg/sg61_1_cif.got.tgz:1610.got - 2010.06.03 15:17:17.
