data_PCOD9461788
_publ_section_title
;
Structure prediction by ZEFSAII (Michael W. Deem and Ramdas Pophale) SiO2 
 PCOD9461788
Probable space group: P N M A
;
_chemical_formula_sum "Si O2"
_cell_formula_units_Z 56
_cell_length_a 19.137605
_cell_length_b 7.332696
_cell_length_c 14.679458
_cell_angle_alpha 90.000000
_cell_angle_beta 90.000000
_cell_angle_gamma 90.000000
_cell_volume 2059.971859
_symmetry_space_group_name_H-M "P N M A"
_symmetry_group_IT_number 62
_symmetry_cell_setting 'orthorhombic'
loop_
_space_group_symop_operation_xyz
x,y,z
1/2-x,-y,1/2+z
1/2+x,1/2-y,1/2-z
-x,1/2+y,-z
-x,-y,-z
1/2+x,y,1/2-z
1/2-x,1/2+y,1/2+z
x,1/2-y,z
loop_
_atom_site_type_symbol
_atom_site_label
_atom_site_fract_x
_atom_site_fract_y
_atom_site_fract_z
Si Si1 0.634404 0.537533 0.409393
Si Si2 0.295460 0.531328 0.764093
Si Si3 0.937334 0.529657 0.630235
Si Si4 0.217180 0.971823 0.930772
Si Si5 0.084756 0.458488 0.723470
Si Si6 0.356568 0.972021 0.042042
Si Si7 0.511308 0.032805 0.607507
O O1 0.620013 0.750000 0.424742
O O2 0.698132 0.528439 0.339431
O O3 0.653634 0.458621 0.507775
O O4 0.565377 0.461249 0.361945
O O5 0.294326 0.750000 0.763980
O O6 0.367521 0.473990 0.813951
O O7 0.232181 0.468083 0.828151
O O8 0.941058 0.750000 0.632496
O O9 0.919450 0.473862 0.526287
O O10 0.007984 0.457290 0.674796
O O11 0.214220 0.750000 0.929932
O O12 0.285693 0.022165 0.989904
O O13 0.107424 0.250000 0.735108
O O14 0.133187 0.541879 0.644619
O O15 0.069574 0.543002 0.823327
O O16 0.357149 0.750000 0.045431
O O17 0.516845 0.250000 0.620086
O O18 0.500000 0.000000 0.500000
#
# Coordination Sequence:
#
# PCOD9461788 Si02
#       7
#     8   8   8   8   8   8   8
#     4  10  19  35  57  77  99 132 172 215 257 296
#     4   9  17  31  52  75  99 130 168 207 249 307
#     4   9  16  27  47  74  99 128 162 193 242 307
#     4   8  16  32  52  74 102 136 171 204 251 313
#     4  10  18  30  49  73 101 130 163 206 249 291
#     4   8  15  28  47  73 103 131 159 196 246 306
#     4  10  22  37  52  73 101 134 173 214 256 298
#
# _framework density 27.184836000000001
#
# number of rings (size 3 to 8) (size 9 to 14) (size 15 to 20)
#    0.000    2.857    1.429    2.143    0.000    1.143 
#    2.571    0.714    0.000    1.714    0.000    0.000 
#    0.000    0.000    0.000    0.000    0.000    0.000 
#
# Total GULP energy -312971.953031 kJ/mol
# GULP energy per Si atom -5588.784876 kJ/mol
# Density = 2.712296 g / cm^3
# Si number density = 27.184836 Si / 1000 Ang^3
#
#
#
# Elastic Constant Matrix: (Units=GPa)
#
#
# Indices 1 2 3 4 5 6 
#
# 1 65.8316 5.1167 15.5885 0.0000 0.0000 0.0000
# 2 5.1167 120.7530 -1.7012 0.0000 0.0000 0.0000
# 3 15.5885 -1.7012 189.0176 0.0000 0.0000 0.0000
# 4 0.0000 0.0000 0.0000 10.1703 0.0000 0.0000
# 5 0.0000 0.0000 0.0000 0.0000 55.4210 0.0000
# 6 0.0000 0.0000 0.0000 0.0000 0.0000 9.4840
#
#
#
# Elastic Compliance Matrix: (Units=1/GPa)
#
#
# Indices 1 2 3 4 5 6 
#
# 1 0.015548 -0.000677 -0.001288 0.000000 0.000000 0.000000
# 2 -0.000677 0.008312 0.000131 0.000000 0.000000 0.000000
# 3 -0.001288 0.000131 0.005398 0.000000 0.000000 0.000000
# 4 0.000000 0.000000 0.000000 0.098326 0.000000 0.000000
# 5 0.000000 0.000000 0.000000 0.000000 0.018044 0.000000
# 6 0.000000 0.000000 0.000000 0.000000 0.000000 0.105441
#
#
# Mechanical properties :
#
#
# Convention : Reuss Voigt Hill
#
# Bulk Modulus (GPa) = 39.08014 45.95668 42.51841
# Shear Modulus (GPa) = 18.99211 38.78826 28.89019
#
# Velocity S-wave (km/s) = 2.64603 3.78144 3.26349
# Velocity P-wave (km/s) = 4.87260 6.00064 5.46580
#
# Compressibility (1/GPa) = 0.02558844
#
# Stress axis : x y z
#
# Youngs Moduli (GPa) = 64.31708 120.30948 185.25587
#
# Poissons Ratio (x) = 0.08145 0.23867
# Poissons Ratio (y) = 0.04354 -0.02420
# Poissons Ratio (z) = 0.08286 -0.01572
#
# Static dielectric constant tensor:
#      x y z
#    x 2.196900 0.000000 0.000000 
#    y 0.000000 2.025390 0.000000 
#    z 0.000000 0.000000 2.177760 
# 
# From -- ./inp_files/14770.got.cif
#   From: 2010.05.17/outbox.cif.g08.bks.cpg/sg62_8_cif.got.tgz:14770.got - 2010.06.03 15:25:27.
