data_PCOD9461197
_publ_section_title
;
Structure prediction by ZEFSAII (Michael W. Deem and Ramdas Pophale) SiO2 
 PCOD9461197
Probable space group: P B C A
;
_chemical_formula_sum "Si O2"
_cell_formula_units_Z 48
_cell_length_a 13.406391
_cell_length_b 16.414284
_cell_length_c 8.947216
_cell_angle_alpha 90.000000
_cell_angle_beta 90.000000
_cell_angle_gamma 90.000000
_cell_volume 1968.891331
_symmetry_space_group_name_H-M "P B C A"
_symmetry_group_IT_number 61
_symmetry_cell_setting 'orthorhombic'
loop_
_space_group_symop_operation_xyz
x,y,z
1/2-x,-y,1/2+z
1/2+x,1/2-y,-z
-x,1/2+y,1/2-z
-x,-y,-z
1/2+x,y,1/2-z
1/2-x,1/2+y,z
x,1/2-y,1/2+z
loop_
_atom_site_type_symbol
_atom_site_label
_atom_site_fract_x
_atom_site_fract_y
_atom_site_fract_z
Si Si1 0.107154 0.291928 0.286128
Si Si2 0.671186 0.906282 0.916036
Si Si3 0.748678 0.732290 0.953737
Si Si4 0.025479 0.382983 0.767172
Si Si5 0.192187 0.509437 0.772498
Si Si6 0.434388 0.384398 0.044011
O O1 0.183312 0.258864 0.409545
O O2 0.179277 0.320450 0.153167
O O3 0.047159 0.211616 0.234330
O O4 0.027589 0.352708 0.357626
O O5 0.719862 0.818964 0.879533
O O6 0.553741 0.893773 0.899054
O O7 0.708300 0.973374 0.798881
O O8 0.702184 0.935151 0.081298
O O9 0.645824 0.687343 0.990565
O O10 0.977512 0.415596 0.612734
O O11 0.124190 0.431209 0.810477
O O12 0.130361 0.554925 0.643737
#
# Coordination Sequence:
#
# PCOD9461197 Si02
#       6
#     8   8   8   8   8   8
#     4  12  25  44  72 108 144 188 244 301 368 433
#     4  12  26  49  72 109 148 195 251 301 377 444
#     4  12  26  45  75 107 146 193 244 306 363 445
#     4  12  26  48  71 105 152 191 246 308 369 448
#     4  12  28  47  75 108 146 201 241 310 375 447
#     4  12  27  47  79 106 149 193 252 307 374 441
#
# _framework density 24.379200999999998
#
# number of rings (size 3 to 8) (size 9 to 14) (size 15 to 20)
#    0.000    0.000    5.000    4.000    7.000    2.667 
#    0.000    0.000    0.000    0.000    0.000    0.000 
#    0.000    0.000    0.000    0.000    0.000    0.000 
#
# Total GULP energy -269037.089621 kJ/mol
# GULP energy per Si atom -5604.939367 kJ/mol
# Density = 2.432371 g / cm^3
# Si number density = 24.379201 Si / 1000 Ang^3
#
#
#
# Elastic Constant Matrix: (Units=GPa)
#
#
# Indices 1 2 3 4 5 6 
#
# 1 90.8548 16.0803 10.3368 0.0000 0.0000 0.0000
# 2 16.0803 60.6642 -10.8020 0.0000 0.0000 0.0000
# 3 10.3368 -10.8020 42.1324 0.0000 0.0000 0.0000
# 4 0.0000 0.0000 0.0000 38.9733 0.0000 0.0000
# 5 0.0000 0.0000 0.0000 0.0000 51.6219 0.0000
# 6 0.0000 0.0000 0.0000 0.0000 0.0000 45.4887
#
#
#
# Elastic Compliance Matrix: (Units=1/GPa)
#
#
# Indices 1 2 3 4 5 6 
#
# 1 0.012157 -0.003933 -0.003991 0.000000 0.000000 0.000000
# 2 -0.003933 0.018545 0.005720 0.000000 0.000000 0.000000
# 3 -0.003991 0.005720 0.026180 0.000000 0.000000 0.000000
# 4 0.000000 0.000000 0.000000 0.025659 0.000000 0.000000
# 5 0.000000 0.000000 0.000000 0.000000 0.019372 0.000000
# 6 0.000000 0.000000 0.000000 0.000000 0.000000 0.021983
#
#
# Mechanical properties :
#
#
# Convention : Reuss Voigt Hill
#
# Bulk Modulus (GPa) = 19.05725 24.98684 22.02204
# Shear Modulus (GPa) = 34.29458 39.08587 36.69022
#
# Velocity S-wave (km/s) = 3.75469 4.00840 3.88362
# Velocity P-wave (km/s) = 5.16051 5.62979 5.40025
#
# Compressibility (1/GPa) = 0.05247347
#
# Stress axis : x y z
#
# Youngs Moduli (GPa) = 82.25901 53.92240 38.19675
#
# Poissons Ratio (x) = 0.21208 0.15244
# Poissons Ratio (y) = 0.32353 -0.21847
# Poissons Ratio (z) = 0.32829 -0.30841
#
# Static dielectric constant tensor:
#      x y z
#    x 1.896340 0.000000 0.000000 
#    y 0.000000 1.956020 0.000000 
#    z 0.000000 0.000000 1.914280 
# 
# From -- ./inp_files/2872.got.cif
#   From: 2010.05.17/outbox.cif.g08.bks.cpg/sg61_2_cif.got.tgz:2872.got - 2010.06.03 15:17:17.
