data_PCOD9461827
_publ_section_title
;
Structure prediction by ZEFSAII (Michael W. Deem and Ramdas Pophale) SiO2 
 PCOD9461827
Probable space group: P N M A
;
_chemical_formula_sum "Si O2"
_cell_formula_units_Z 48
_cell_length_a 14.058628
_cell_length_b 20.611743
_cell_length_c 7.949012
_cell_angle_alpha 90.000000
_cell_angle_beta 90.000000
_cell_angle_gamma 90.000000
_cell_volume 2303.407681
_symmetry_space_group_name_H-M "P N M A"
_symmetry_group_IT_number 62
_symmetry_cell_setting 'orthorhombic'
loop_
_space_group_symop_operation_xyz
x,y,z
1/2-x,-y,1/2+z
1/2+x,1/2-y,1/2-z
-x,1/2+y,-z
-x,-y,-z
1/2+x,y,1/2-z
1/2-x,1/2+y,1/2+z
x,1/2-y,z
loop_
_atom_site_type_symbol
_atom_site_label
_atom_site_fract_x
_atom_site_fract_y
_atom_site_fract_z
Si Si1 0.167552 0.680033 0.119008
Si Si2 0.877131 0.679051 0.297631
Si Si3 0.111319 0.960458 0.144380
Si Si4 0.922215 0.178033 0.513843
Si Si5 0.116558 0.043602 0.843832
Si Si6 0.895563 0.466815 0.474625
O O1 0.131120 0.750000 0.054071
O O2 0.280594 0.678087 0.095673
O O3 0.126552 0.611152 0.065966
O O4 0.144150 0.680480 0.319578
O O5 0.884059 0.750000 0.216012
O O6 0.869110 0.619958 0.170531
O O7 0.970889 0.671002 0.410797
O O8 0.147411 0.966361 0.336397
O O9 0.997453 0.967702 0.156866
O O10 0.151534 0.012678 0.015759
O O11 0.914632 0.250000 0.432166
O O12 0.902608 0.109504 0.423605
O O13 0.151177 0.008806 0.673148
O O14 0.000000 0.500000 0.500000
#
# Coordination Sequence:
#
# PCOD9461827 Si02
#       6
#     8   8   8   8   8   8
#     4   9  17  31  50  74 102 134 173 210 253 302
#     4  10  18  30  52  75  99 138 176 207 254 313
#     4   9  18  32  50  75 102 131 164 210 252 298
#     4   9  16  30  50  71  98 135 170 207 255 301
#     4  10  18  32  53  75 102 132 168 207 257 301
#     4   9  15  30  51  73 101 133 161 212 252 295
#
# _framework density 20.83869
#
# number of rings (size 3 to 8) (size 9 to 14) (size 15 to 20)
#    0.000    2.667    5.000    0.000    0.000    0.000 
#    6.000    0.833    0.000    7.000    0.000    9.333 
#    0.000    0.000    0.000    0.000    0.000    0.000 
#
# Total GULP energy -267269.183060 kJ/mol
# GULP energy per Si atom -5568.107980 kJ/mol
# Density = 2.079126 g / cm^3
# Si number density = 20.838690 Si / 1000 Ang^3
#
#
#
# Elastic Constant Matrix: (Units=GPa)
#
#
# Indices 1 2 3 4 5 6 
#
# 1 57.7276 -12.9199 17.4302 0.0000 0.0000 0.0000
# 2 -12.9199 177.0292 63.1386 0.0000 0.0000 0.0000
# 3 17.4302 63.1386 65.2788 0.0000 0.0000 0.0000
# 4 0.0000 0.0000 0.0000 16.2723 0.0000 0.0000
# 5 0.0000 0.0000 0.0000 0.0000 11.1164 0.0000
# 6 0.0000 0.0000 0.0000 0.0000 0.0000 13.9118
#
#
#
# Elastic Compliance Matrix: (Units=1/GPa)
#
#
# Indices 1 2 3 4 5 6 
#
# 1 0.022014 0.005653 -0.011346 0.000000 0.000000 0.000000
# 2 0.005653 0.010075 -0.011254 0.000000 0.000000 0.000000
# 3 -0.011346 -0.011254 0.029234 0.000000 0.000000 0.000000
# 4 0.000000 0.000000 0.000000 0.061454 0.000000 0.000000
# 5 0.000000 0.000000 0.000000 0.000000 0.089957 0.000000
# 6 0.000000 0.000000 0.000000 0.000000 0.000000 0.071881
#
#
# Mechanical properties :
#
#
# Convention : Reuss Voigt Hill
#
# Bulk Modulus (GPa) = 36.45812 48.37040 42.41426
# Shear Modulus (GPa) = 15.26004 23.75252 19.50628
#
# Velocity S-wave (km/s) = 2.70903 3.37980 3.06283
# Velocity P-wave (km/s) = 5.22671 6.20427 5.73635
#
# Compressibility (1/GPa) = 0.02742873
#
# Stress axis : x y z
#
# Youngs Moduli (GPa) = 45.42634 99.25216 34.20692
#
# Poissons Ratio (x) = -0.56108 0.38810
# Poissons Ratio (y) = -0.25680 0.38498
# Poissons Ratio (z) = 0.51539 1.11703
#
# Static dielectric constant tensor:
#      x y z
#    x 1.790990 0.000000 0.000000 
#    y 0.000000 1.801430 0.000000 
#    z 0.000000 0.000000 1.741340 
# 
# From -- ./inp_files/6621.got.cif
#   From: 2010.05.17/outbox.cif.g08.bks.cpg/sg62_4_cif.got.tgz:6621.got - 2010.06.03 15:25:27.
