data_PCOD9461934
_publ_section_title
;
Structure prediction by ZEFSAII (Michael W. Deem and Ramdas Pophale) SiO2 
 PCOD9461934
Probable space group: P N M A
;
_chemical_formula_sum "Si O2"
_cell_formula_units_Z 56
_cell_length_a 15.114577
_cell_length_b 13.448175
_cell_length_c 12.794420
_cell_angle_alpha 90.000000
_cell_angle_beta 90.000000
_cell_angle_gamma 90.000000
_cell_volume 2600.638290
_symmetry_space_group_name_H-M "P N M A"
_symmetry_group_IT_number 62
_symmetry_cell_setting 'orthorhombic'
loop_
_space_group_symop_operation_xyz
x,y,z
1/2-x,-y,1/2+z
1/2+x,1/2-y,1/2-z
-x,1/2+y,-z
-x,-y,-z
1/2+x,y,1/2-z
1/2-x,1/2+y,1/2+z
x,1/2-y,z
loop_
_atom_site_type_symbol
_atom_site_label
_atom_site_fract_x
_atom_site_fract_y
_atom_site_fract_z
Si Si1 0.494296 0.000935 0.167338
Si Si2 0.025421 0.634507 0.129158
Si Si3 0.865108 0.637560 0.728721
Si Si4 0.808159 0.062780 0.002771
Si Si5 0.326317 0.451596 0.255680
Si Si6 0.369829 0.860803 0.539086
Si Si7 0.355208 0.866301 0.112572
O O1 0.508343 0.933722 0.271227
O O2 0.448257 0.922389 0.089104
O O3 0.584830 0.059763 0.155300
O O4 0.414706 0.078645 0.193270
O O5 0.028557 0.750000 0.159925
O O6 0.116112 0.604720 0.072614
O O7 0.947229 0.622642 0.044727
O O8 0.868178 0.750000 0.689505
O O9 0.765394 0.605736 0.756357
O O10 0.909438 0.633425 0.844130
O O11 0.717926 0.119337 0.977158
O O12 0.798257 0.946389 0.976643
O O13 0.840662 0.063421 0.121358
O O14 0.318496 0.565912 0.211164
O O15 0.333732 0.750000 0.525629
O O16 0.365690 0.750000 0.136835
#
# Coordination Sequence:
#
# PCOD9461934 Si02
#       7
#     8   8   8   8   8   8   8
#     4  10  20  38  61  84 120 160 201 246 304 359
#     4  11  20  31  57  91 122 151 193 248 311 370
#     4  11  22  38  57  83 120 160 197 242 299 360
#     4  12  20  36  60  90 120 157 202 253 302 362
#     4  10  23  37  63  88 125 155 203 251 302 361
#     4  10  18  31  53  83 118 153 184 235 304 360
#     4  10  22  40  60  85 124 164 200 248 305 360
#
# _framework density 21.533173000000001
#
# number of rings (size 3 to 8) (size 9 to 14) (size 15 to 20)
#    0.857    0.571    4.286    2.143    0.000    2.286 
#    0.000    2.143    0.000    0.000    0.000    0.000 
#    0.000    0.000    0.000    0.000    0.000    0.000 
#
# Total GULP energy -312152.960359 kJ/mol
# GULP energy per Si atom -5574.160006 kJ/mol
# Density = 2.148416 g / cm^3
# Si number density = 21.533173 Si / 1000 Ang^3
#
#
#
# Elastic Constant Matrix: (Units=GPa)
#
#
# Indices 1 2 3 4 5 6 
#
# 1 43.6067 21.7290 -4.5152 0.0000 0.0000 0.0000
# 2 21.7290 105.6554 -7.3669 0.0000 0.0000 0.0000
# 3 -4.5152 -7.3669 33.7065 0.0000 0.0000 0.0000
# 4 0.0000 0.0000 0.0000 11.7361 0.0000 0.0000
# 5 0.0000 0.0000 0.0000 0.0000 23.2695 0.0000
# 6 0.0000 0.0000 0.0000 0.0000 0.0000 14.3674
#
#
#
# Elastic Compliance Matrix: (Units=1/GPa)
#
#
# Indices 1 2 3 4 5 6 
#
# 1 0.025729 -0.005129 0.002326 0.000000 0.000000 0.000000
# 2 -0.005129 0.010634 0.001637 0.000000 0.000000 0.000000
# 3 0.002326 0.001637 0.030337 0.000000 0.000000 0.000000
# 4 0.000000 0.000000 0.000000 0.085207 0.000000 0.000000
# 5 0.000000 0.000000 0.000000 0.000000 0.042975 0.000000
# 6 0.000000 0.000000 0.000000 0.000000 0.000000 0.069602
#
#
# Mechanical properties :
#
#
# Convention : Reuss Voigt Hill
#
# Bulk Modulus (GPa) = 15.53605 22.51805 19.02705
# Shear Modulus (GPa) = 17.34470 21.41605 19.38038
#
# Velocity S-wave (km/s) = 2.84119 3.15709 3.00329
# Velocity P-wave (km/s) = 4.24190 4.87542 4.56965
#
# Compressibility (1/GPa) = 0.06436643
#
# Stress axis : x y z
#
# Youngs Moduli (GPa) = 38.86671 94.04021 32.96286
#
# Poissons Ratio (x) = 0.48236 -0.07666
# Poissons Ratio (y) = 0.19936 -0.05396
# Poissons Ratio (z) = -0.09039 -0.15394
#
# Static dielectric constant tensor:
#      x y z
#    x 1.821090 0.000000 0.000000 
#    y 0.000000 1.794410 0.000000 
#    z 0.000000 0.000000 1.868450 
# 
# From -- ./inp_files/19139.got.cif
#   From: 2010.05.17/outbox.cif.g08.bks.cpg/sg62_10_cif.got.tgz:19139.got - 2010.06.03 15:25:27.
