data_PCOD9461416
_publ_section_title
;
Structure prediction by ZEFSAII (Michael W. Deem and Ramdas Pophale) SiO2 
 PCOD9461416
Probable space group: P N M A
;
_chemical_formula_sum "Si O2"
_cell_formula_units_Z 64
_cell_length_a 24.210040
_cell_length_b 7.493229
_cell_length_c 19.836488
_cell_angle_alpha 90.000000
_cell_angle_beta 90.000000
_cell_angle_gamma 90.000000
_cell_volume 3598.564540
_symmetry_space_group_name_H-M "P N M A"
_symmetry_group_IT_number 62
_symmetry_cell_setting 'orthorhombic'
loop_
_space_group_symop_operation_xyz
x,y,z
1/2-x,-y,1/2+z
1/2+x,1/2-y,1/2-z
-x,1/2+y,-z
-x,-y,-z
1/2+x,y,1/2-z
1/2-x,1/2+y,1/2+z
x,1/2-y,z
loop_
_atom_site_type_symbol
_atom_site_label
_atom_site_fract_x
_atom_site_fract_y
_atom_site_fract_z
Si Si1 0.744150 0.032039 0.514489
Si Si2 0.830066 0.535556 0.787635
Si Si3 0.883176 0.964129 0.007409
Si Si4 0.848148 0.455874 0.250158
Si Si5 0.060334 0.536700 0.849425
Si Si6 0.563737 0.468815 0.367547
Si Si7 0.741308 0.959905 0.164266
Si Si8 0.777911 0.031433 0.370917
O O1 0.744577 0.250000 0.513566
O O2 0.680300 0.974083 0.507153
O O3 0.765028 0.974637 0.587927
O O4 0.777694 0.974694 0.448450
O O5 0.830601 0.750000 0.790809
O O6 0.888894 0.473862 0.815210
O O7 0.811031 0.485773 0.712712
O O8 0.780444 0.476774 0.837220
O O9 0.880714 0.750000 0.002324
O O10 0.912196 0.007772 0.077653
O O11 0.917005 0.026782 0.942170
O O12 0.942366 0.250000 0.159971
O O13 0.898904 0.536199 0.208430
O O14 0.794507 0.457143 0.201215
O O15 0.825990 0.532896 0.320735
O O16 0.137660 0.750000 0.736023
O O17 0.997709 0.469065 0.850234
O O18 0.562849 0.250000 0.367886
O O19 0.753676 0.750000 0.161092
O O20 0.778740 0.250000 0.369304
#
# Coordination Sequence:
#
# PCOD9461416 Si02
#       8
#     8   8   8   8   8   8   8   8
#     4   9  15  24  41  62  81 106 142 173 200 246
#     4   9  16  29  46  61  79 110 145 175 207 250
#     4  10  17  28  43  60  83 119 154 173 197 247
#     4   9  17  28  43  61  84 112 141 173 209 249
#     4  10  19  29  41  64  91 114 143 183 216 241
#     4   9  17  29  46  62  83 117 154 179 202 245
#     4  10  18  27  42  63  85 105 132 177 219 251
#     4   8  13  24  42  59  75 103 143 174 198 240
#
# _framework density 17.784869
#
# number of rings (size 3 to 8) (size 9 to 14) (size 15 to 20)
#    0.000    2.750    2.500    1.500    0.000    0.000 
#    0.000    1.250    0.000    6.000    0.000    0.875 
#    0.000    0.000    0.000    0.000    0.000    0.000 
#
# Total GULP energy -356865.674279 kJ/mol
# GULP energy per Si atom -5576.026161 kJ/mol
# Density = 1.774439 g / cm^3
# Si number density = 17.784869 Si / 1000 Ang^3
#
#
#
# Elastic Constant Matrix: (Units=GPa)
#
#
# Indices 1 2 3 4 5 6 
#
# 1 72.0559 -3.3349 41.5252 0.0000 0.0000 0.0000
# 2 -3.3349 47.1938 -5.6883 0.0000 0.0000 0.0000
# 3 41.5252 -5.6883 115.3282 0.0000 0.0000 0.0000
# 4 0.0000 0.0000 0.0000 10.2177 0.0000 0.0000
# 5 0.0000 0.0000 0.0000 0.0000 22.5618 0.0000
# 6 0.0000 0.0000 0.0000 0.0000 0.0000 6.2178
#
#
#
# Elastic Compliance Matrix: (Units=1/GPa)
#
#
# Indices 1 2 3 4 5 6 
#
# 1 0.017523 0.000481 -0.006286 0.000000 0.000000 0.000000
# 2 0.000481 0.021329 0.000879 0.000000 0.000000 0.000000
# 3 -0.006286 0.000879 0.010977 0.000000 0.000000 0.000000
# 4 0.000000 0.000000 0.000000 0.097869 0.000000 0.000000
# 5 0.000000 0.000000 0.000000 0.000000 0.044323 0.000000
# 6 0.000000 0.000000 0.000000 0.000000 0.000000 0.160829
#
#
# Mechanical properties :
#
#
# Convention : Reuss Voigt Hill
#
# Bulk Modulus (GPa) = 25.01419 33.28690 29.15054
# Shear Modulus (GPa) = 13.29688 21.27117 17.28402
#
# Velocity S-wave (km/s) = 2.73729 3.46211 3.12081
# Velocity P-wave (km/s) = 4.90772 5.89395 5.42330
#
# Compressibility (1/GPa) = 0.03997731
#
# Stress axis : x y z
#
# Youngs Moduli (GPa) = 57.06903 46.88422 91.09607
#
# Poissons Ratio (x) = -0.02253 0.57259
# Poissons Ratio (y) = -0.02743 -0.08007
# Poissons Ratio (z) = 0.35871 -0.04121
#
# Static dielectric constant tensor:
#      x y z
#    x 1.592190 0.000000 0.000000 
#    y 0.000000 1.197050 0.000000 
#    z 0.000000 0.000000 1.619310 
# 
# From -- ./inp_files/24870.got.cif
#   From: 2010.05.17/outbox.cif.g08.bks.cpg/sg62_13_cif.got.tgz:24870.got - 2010.06.03 15:25:27.
