data_PCOD9461517
_publ_section_title
;
Structure prediction by ZEFSAII (Michael W. Deem and Ramdas Pophale) SiO2 
 PCOD9461517
Probable space group: P N M A
;
_chemical_formula_sum "Si O2"
_cell_formula_units_Z 56
_cell_length_a 17.793314
_cell_length_b 18.184298
_cell_length_c 8.261416
_cell_angle_alpha 90.000000
_cell_angle_beta 90.000000
_cell_angle_gamma 90.000000
_cell_volume 2673.054873
_symmetry_space_group_name_H-M "P N M A"
_symmetry_group_IT_number 62
_symmetry_cell_setting 'orthorhombic'
loop_
_space_group_symop_operation_xyz
x,y,z
1/2-x,-y,1/2+z
1/2+x,1/2-y,1/2-z
-x,1/2+y,-z
-x,-y,-z
1/2+x,y,1/2-z
1/2-x,1/2+y,1/2+z
x,1/2-y,z
loop_
_atom_site_type_symbol
_atom_site_label
_atom_site_fract_x
_atom_site_fract_y
_atom_site_fract_z
Si Si1 0.172905 0.970777 0.415449
Si Si2 0.081546 0.577977 0.914033
Si Si3 0.273083 0.332134 0.422262
Si Si4 0.376216 0.618804 0.083607
Si Si5 0.298410 0.586164 0.635558
Si Si6 0.969644 0.082410 0.457681
Si Si7 0.570439 0.098682 0.563661
O O1 0.249476 0.935912 0.480136
O O2 0.103470 0.913812 0.425358
O O3 0.150693 0.034836 0.545096
O O4 0.184292 0.015472 0.249823
O O5 0.161131 0.611118 0.964228
O O6 0.059620 0.591392 0.725481
O O7 0.080481 0.490039 0.931629
O O8 0.015967 0.611424 0.024694
O O9 0.302997 0.250000 0.425436
O O10 0.196986 0.337345 0.527278
O O11 0.248120 0.357848 0.244295
O O12 0.398955 0.628726 0.268574
O O13 0.455220 0.629849 0.988615
O O14 0.376174 0.622059 0.582248
O O15 0.000000 0.000000 0.500000
#
# Coordination Sequence:
#
# PCOD9461517 Si02
#       7
#     8   8   8   8   8   8   8
#     4  10  18  31  56  89 123 155 188 254 309 369
#     4  11  21  35  59  98 129 158 196 256 329 379
#     4  11  24  44  61  81 122 174 220 255 301 373
#     4  10  20  37  59  85 121 165 199 246 310 366
#     4  11  21  35  59  91 125 156 204 251 317 371
#     4  10  17  34  55  88 128 154 188 243 314 378
#     4  11  21  35  62  99 123 152 196 262 330 383
#
# _framework density 20.949812999999999
#
# number of rings (size 3 to 8) (size 9 to 14) (size 15 to 20)
#    0.000    1.429    4.286    5.143    2.000    0.000 
#    0.000    4.286    0.000    0.000    0.000    0.000 
#    0.000    0.000    0.000    0.000    0.000    0.000 
#
# Total GULP energy -312517.475310 kJ/mol
# GULP energy per Si atom -5580.669202 kJ/mol
# Density = 2.090213 g / cm^3
# Si number density = 20.949813 Si / 1000 Ang^3
#
#
#
# Elastic Constant Matrix: (Units=GPa)
#
#
# Indices 1 2 3 4 5 6 
#
# 1 127.9491 6.3611 24.2839 0.0000 0.0000 0.0000
# 2 6.3611 23.5988 -0.2274 0.0000 0.0000 0.0000
# 3 24.2839 -0.2274 69.6425 0.0000 0.0000 0.0000
# 4 0.0000 0.0000 0.0000 1.5185 0.0000 0.0000
# 5 0.0000 0.0000 0.0000 0.0000 35.1668 0.0000
# 6 0.0000 0.0000 0.0000 0.0000 0.0000 6.6502
#
#
#
# Elastic Compliance Matrix: (Units=1/GPa)
#
#
# Indices 1 2 3 4 5 6 
#
# 1 0.008494 -0.002318 -0.002970 0.000000 0.000000 0.000000
# 2 -0.002318 0.043009 0.000949 0.000000 0.000000 0.000000
# 3 -0.002970 0.000949 0.015398 0.000000 0.000000 0.000000
# 4 0.000000 0.000000 0.000000 0.658560 0.000000 0.000000
# 5 0.000000 0.000000 0.000000 0.000000 0.028436 0.000000
# 6 0.000000 0.000000 0.000000 0.000000 0.000000 0.150372
#
#
# Mechanical properties :
#
#
# Convention : Reuss Voigt Hill
#
# Bulk Modulus (GPa) = 17.17530 31.33617 24.25573
# Shear Modulus (GPa) = 5.36276 21.38527 13.37402
#
# Velocity S-wave (km/s) = 1.60168 3.19844 2.52937
# Velocity P-wave (km/s) = 3.41125 5.35072 4.48703
#
# Compressibility (1/GPa) = 0.05822316
#
# Stress axis : x y z
#
# Youngs Moduli (GPa) = 117.72377 23.25085 64.94523
#
# Poissons Ratio (x) = 0.05390 0.19286
# Poissons Ratio (y) = 0.27292 -0.06162
# Poissons Ratio (z) = 0.34958 -0.02206
#
# Static dielectric constant tensor:
#      x y z
#    x 1.812600 0.000000 0.000000 
#    y 0.000000 1.761210 0.000000 
#    z 0.000000 0.000000 1.768360 
# 
# From -- ./inp_files/8056.got.cif
#   From: 2010.05.17/outbox.cif.g08.bks.cpg/sg62_5_cif.got.tgz:8056.got - 2010.06.03 15:25:27.
