data_PCOD9461478
_publ_section_title
;
Structure prediction by ZEFSAII (Michael W. Deem and Ramdas Pophale) SiO2 
 PCOD9461478
Probable space group: P N M A
;
_chemical_formula_sum "Si O2"
_cell_formula_units_Z 36
_cell_length_a 14.533923
_cell_length_b 15.439573
_cell_length_c 7.178618
_cell_angle_alpha 90.000000
_cell_angle_beta 90.000000
_cell_angle_gamma 90.000000
_cell_volume 1610.864400
_symmetry_space_group_name_H-M "P N M A"
_symmetry_group_IT_number 62
_symmetry_cell_setting 'orthorhombic'
loop_
_space_group_symop_operation_xyz
x,y,z
1/2-x,-y,1/2+z
1/2+x,1/2-y,1/2-z
-x,1/2+y,-z
-x,-y,-z
1/2+x,y,1/2-z
1/2-x,1/2+y,1/2+z
x,1/2-y,z
loop_
_atom_site_type_symbol
_atom_site_label
_atom_site_fract_x
_atom_site_fract_y
_atom_site_fract_z
Si Si1 0.213392 0.750000 0.079521
Si Si2 0.609740 0.250000 0.105286
Si Si3 0.876025 0.085671 0.448125
Si Si4 0.201792 0.346745 0.907485
Si Si5 0.546313 0.098381 0.826756
Si Si6 0.066313 0.750000 0.801397
O O1 0.280545 0.750000 0.900723
O O2 0.110683 0.750000 0.005295
O O3 0.245143 0.670011 0.209456
O O4 0.543681 0.250000 0.281831
O O5 0.580159 0.166567 0.983110
O O6 0.766978 0.088064 0.483400
O O7 0.899169 0.165248 0.311068
O O8 0.937070 0.097774 0.637421
O O9 0.913023 0.996292 0.366303
O O10 0.206286 0.250000 0.989337
O O11 0.097599 0.372502 0.861420
#
# Coordination Sequence:
#
# PCOD9461478 Si02
#       6
#     4   4   8   8   8   4
#     4   8  17  31  49  70  98 134 168 206 273 295
#     4   8  16  32  48  64 102 136 166 210 250 314
#     4  10  19  32  55  79  99 140 181 212 253 329
#     4   9  18  34  53  75 102 137 171 219 263 302
#     4   9  18  32  53  77 103 137 177 211 259 308
#     4  10  17  31  51  74 102 132 176 212 257 315
#
# _framework density 22.34825
#
# number of rings (size 3 to 8) (size 9 to 14) (size 15 to 20)
#    0.667    2.222    2.222    0.000    0.000    3.556 
#    0.000    2.222    0.000   13.333    0.000    0.000 
#    0.000    0.000    0.000    0.000    0.000    0.000 
#
# Total GULP energy -200431.095048 kJ/mol
# GULP energy per Si atom -5567.530418 kJ/mol
# Density = 2.229738 g / cm^3
# Si number density = 22.348250 Si / 1000 Ang^3
#
#
#
# Elastic Constant Matrix: (Units=GPa)
#
#
# Indices 1 2 3 4 5 6 
#
# 1 52.2259 -3.4076 2.2079 0.0000 0.0000 0.0000
# 2 -3.4076 104.3212 8.6242 0.0000 0.0000 0.0000
# 3 2.2079 8.6242 38.9033 0.0000 0.0000 0.0000
# 4 0.0000 0.0000 0.0000 6.4847 0.0000 0.0000
# 5 0.0000 0.0000 0.0000 0.0000 47.4125 0.0000
# 6 0.0000 0.0000 0.0000 0.0000 0.0000 18.8282
#
#
#
# Elastic Compliance Matrix: (Units=1/GPa)
#
#
# Indices 1 2 3 4 5 6 
#
# 1 0.019248 0.000732 -0.001255 0.000000 0.000000 0.000000
# 2 0.000732 0.009793 -0.002212 0.000000 0.000000 0.000000
# 3 -0.001255 -0.002212 0.026266 0.000000 0.000000 0.000000
# 4 0.000000 0.000000 0.000000 0.154208 0.000000 0.000000
# 5 0.000000 0.000000 0.000000 0.000000 0.021091 0.000000
# 6 0.000000 0.000000 0.000000 0.000000 0.000000 0.053112
#
#
# Mechanical properties :
#
#
# Convention : Reuss Voigt Hill
#
# Bulk Modulus (GPa) = 20.06501 23.36658 21.71580
# Shear Modulus (GPa) = 16.35049 27.08016 21.71533
#
# Velocity S-wave (km/s) = 2.70779 3.48478 3.12056
# Velocity P-wave (km/s) = 4.33289 5.16429 4.76675
#
# Compressibility (1/GPa) = 0.04983801
#
# Stress axis : x y z
#
# Youngs Moduli (GPa) = 51.95232 102.11790 38.07144
#
# Poissons Ratio (x) = -0.07480 0.04777
# Poissons Ratio (y) = -0.03805 0.08423
# Poissons Ratio (z) = 0.06519 0.22593
#
# Static dielectric constant tensor:
#      x y z
#    x 1.829310 0.000000 0.000000 
#    y 0.000000 1.782040 0.000000 
#    z 0.000000 0.000000 1.903540 
# 
# From -- ./inp_files/6243.got.cif
#   From: 2010.05.17/outbox.cif.g08.bks.cpg/sg62_4_cif.got.tgz:6243.got - 2010.06.03 15:25:27.
