data_PCOD9461843
_publ_section_title
;
Structure prediction by ZEFSAII (Michael W. Deem and Ramdas Pophale) SiO2 
 PCOD9461843
Probable space group: P N M A
;
_chemical_formula_sum "Si O2"
_cell_formula_units_Z 64
_cell_length_a 20.049669
_cell_length_b 19.905826
_cell_length_c 9.850374
_cell_angle_alpha 90.000000
_cell_angle_beta 90.000000
_cell_angle_gamma 90.000000
_cell_volume 3931.335707
_symmetry_space_group_name_H-M "P N M A"
_symmetry_group_IT_number 62
_symmetry_cell_setting 'orthorhombic'
loop_
_space_group_symop_operation_xyz
x,y,z
1/2-x,-y,1/2+z
1/2+x,1/2-y,1/2-z
-x,1/2+y,-z
-x,-y,-z
1/2+x,y,1/2-z
1/2-x,1/2+y,1/2+z
x,1/2-y,z
loop_
_atom_site_type_symbol
_atom_site_label
_atom_site_fract_x
_atom_site_fract_y
_atom_site_fract_z
Si Si1 0.071822 0.914617 0.954762
Si Si2 0.296922 0.828813 0.053884
Si Si3 0.168347 0.560422 0.711120
Si Si4 0.819662 0.924683 0.694200
Si Si5 0.818804 0.077625 0.598185
Si Si6 0.852487 0.329289 0.842707
Si Si7 0.668058 0.408048 0.693127
Si Si8 0.583488 0.434964 0.442036
O O1 0.116373 0.910299 0.819473
O O2 0.993931 0.919113 0.921642
O O3 0.090682 0.855318 0.056779
O O4 0.090885 0.984727 0.030749
O O5 0.303412 0.750000 0.027313
O O6 0.218500 0.844480 0.082707
O O7 0.331683 0.850686 0.194063
O O8 0.323703 0.873162 0.930245
O O9 0.243898 0.578715 0.751469
O O10 0.158369 0.583334 0.556896
O O11 0.162988 0.479470 0.728365
O O12 0.871383 0.913257 0.815750
O O13 0.830358 0.000784 0.642799
O O14 0.852666 0.128402 0.703842
O O15 0.739186 0.090218 0.614987
O O16 0.855236 0.250000 0.817538
O O17 0.611157 0.402859 0.580758
#
# Coordination Sequence:
#
# PCOD9461843 Si02
#       8
#     8   8   8   8   8   8   8   8
#     4  10  20  36  53  82 113 146 183 225 272 333
#     4  10  20  34  53  81 112 141 179 229 280 329
#     4  10  18  30  55  82 107 137 185 227 274 315
#     4  11  18  32  55  84 110 140 179 234 276 325
#     4  10  18  30  54  83 107 136 184 231 270 321
#     4  10  20  36  55  79 111 149 185 222 273 334
#     4   9  18  30  51  80 105 140 178 226 273 323
#     4  10  20  34  56  82 113 140 183 232 276 320
#
# _framework density 16.279454999999999
#
# number of rings (size 3 to 8) (size 9 to 14) (size 15 to 20)
#    0.000    2.000    5.000    0.000    0.000    0.000 
#    0.000    5.000    0.000    0.000    0.000    0.000 
#    0.000    0.000    0.000    0.000    0.000    0.000 
#
# Total GULP energy -356903.386727 kJ/mol
# GULP energy per Si atom -5576.615418 kJ/mol
# Density = 1.624240 g / cm^3
# Si number density = 16.279455 Si / 1000 Ang^3
#
#
#
# Elastic Constant Matrix: (Units=GPa)
#
#
# Indices 1 2 3 4 5 6 
#
# 1 65.9735 26.6589 57.9247 0.0000 0.0000 0.0000
# 2 26.6589 60.0632 53.6287 0.0000 0.0000 0.0000
# 3 57.9247 53.6287 145.4179 0.0000 0.0000 0.0000
# 4 0.0000 0.0000 0.0000 24.4911 0.0000 0.0000
# 5 0.0000 0.0000 0.0000 0.0000 22.4954 0.0000
# 6 0.0000 0.0000 0.0000 0.0000 0.0000 13.8308
#
#
#
# Elastic Compliance Matrix: (Units=1/GPa)
#
#
# Indices 1 2 3 4 5 6 
#
# 1 0.023695 -0.003115 -0.008289 0.000000 0.000000 0.000000
# 2 -0.003115 0.025232 -0.008065 0.000000 0.000000 0.000000
# 3 -0.008289 -0.008065 0.013153 0.000000 0.000000 0.000000
# 4 0.000000 0.000000 0.000000 0.040831 0.000000 0.000000
# 5 0.000000 0.000000 0.000000 0.000000 0.044454 0.000000
# 6 0.000000 0.000000 0.000000 0.000000 0.000000 0.072303
#
#
# Mechanical properties :
#
#
# Convention : Reuss Voigt Hill
#
# Bulk Modulus (GPa) = 43.21303 60.87548 52.04425
# Shear Modulus (GPa) = 18.77444 21.04627 19.91036
#
# Velocity S-wave (km/s) = 3.39965 3.59947 3.50099
# Velocity P-wave (km/s) = 6.48169 7.39933 6.95566
#
# Compressibility (1/GPa) = 0.02314117
#
# Stress axis : x y z
#
# Youngs Moduli (GPa) = 42.20377 39.63148 76.02958
#
# Poissons Ratio (x) = 0.12347 0.63024
# Poissons Ratio (y) = 0.13148 0.61314
# Poissons Ratio (z) = 0.34984 0.31961
#
# Static dielectric constant tensor:
#      x y z
#    x 1.542250 0.000000 0.000000 
#    y 0.000000 1.541330 0.000000 
#    z 0.000000 0.000000 1.537400 
# 
# From -- ./inp_files/8080.got.cif
#   From: 2010.05.17/outbox.cif.g08.bks.cpg/sg62_5_cif.got.tgz:8080.got - 2010.06.03 15:25:27.
