data_PCOD9461225
_publ_section_title
;
Structure prediction by ZEFSAII (Michael W. Deem and Ramdas Pophale) SiO2 
 PCOD9461225
Probable space group: P B C A
;
_chemical_formula_sum "Si O2"
_cell_formula_units_Z 36
_cell_length_a 10.153787
_cell_length_b 9.789642
_cell_length_c 14.456917
_cell_angle_alpha 90.000000
_cell_angle_beta 90.000000
_cell_angle_gamma 90.000000
_cell_volume 1437.045592
_symmetry_space_group_name_H-M "P B C A"
_symmetry_group_IT_number 61
_symmetry_cell_setting 'orthorhombic'
loop_
_space_group_symop_operation_xyz
x,y,z
1/2-x,-y,1/2+z
1/2+x,1/2-y,-z
-x,1/2+y,1/2-z
-x,-y,-z
1/2+x,y,1/2-z
1/2-x,1/2+y,z
x,1/2-y,1/2+z
loop_
_atom_site_type_symbol
_atom_site_label
_atom_site_fract_x
_atom_site_fract_y
_atom_site_fract_z
Si Si1 0.617676 0.795611 0.195451
Si Si2 0.000000 0.000000 0.000000
Si Si3 0.234379 0.581874 0.627927
Si Si4 0.027015 0.919260 0.669390
Si Si5 0.673588 0.249192 0.044438
O O1 0.722150 0.844509 0.272911
O O2 0.535635 0.670986 0.238119
O O3 0.691599 0.747374 0.103314
O O4 0.532938 0.930616 0.179944
O O5 0.877196 0.901974 0.032621
O O6 0.910238 0.052779 0.911182
O O7 0.324010 0.447675 0.637800
O O8 0.303198 0.678658 0.553220
O O9 0.936934 0.838090 0.597752
#
# Coordination Sequence:
#
# PCOD9461225 Si02
#       5
#     8   4   8   8   8
#     4  12  28  53  82 125 165 223 282 351 430 510
#     4  12  28  48  78 118 158 216 270 348 422 498
#     4  12  28  49  82 119 167 218 278 350 421 514
#     4  12  27  52  82 120 168 221 281 351 421 515
#     4  12  28  52  81 121 167 219 279 352 426 509
#
# _framework density 25.051396
#
# number of rings (size 3 to 8) (size 9 to 14) (size 15 to 20)
#    0.000    0.000    2.222    6.000    6.222    0.000 
#    0.000    0.000    0.000    0.000    0.000    0.000 
#    0.000    0.000    0.000    0.000    0.000    0.000 
#
# Total GULP energy -201103.305674 kJ/mol
# GULP energy per Si atom -5586.202935 kJ/mol
# Density = 2.499438 g / cm^3
# Si number density = 25.051396 Si / 1000 Ang^3
#
#
#
# Elastic Constant Matrix: (Units=GPa)
#
#
# Indices 1 2 3 4 5 6 
#
# 1 45.7716 20.5935 12.8522 0.0000 0.0000 0.0000
# 2 20.5935 104.2787 35.9004 0.0000 0.0000 0.0000
# 3 12.8522 35.9004 81.6854 0.0000 0.0000 0.0000
# 4 0.0000 0.0000 0.0000 42.5011 0.0000 0.0000
# 5 0.0000 0.0000 0.0000 0.0000 46.2346 0.0000
# 6 0.0000 0.0000 0.0000 0.0000 0.0000 54.6796
#
#
#
# Elastic Compliance Matrix: (Units=1/GPa)
#
#
# Indices 1 2 3 4 5 6 
#
# 1 0.024257 -0.004096 -0.002016 0.000000 0.000000 0.000000
# 2 -0.004096 0.011991 -0.004626 0.000000 0.000000 0.000000
# 3 -0.002016 -0.004626 0.014592 0.000000 0.000000 0.000000
# 4 0.000000 0.000000 0.000000 0.023529 0.000000 0.000000
# 5 0.000000 0.000000 0.000000 0.000000 0.021629 0.000000
# 6 0.000000 0.000000 0.000000 0.000000 0.000000 0.018288
#
#
# Mechanical properties :
#
#
# Convention : Reuss Voigt Hill
#
# Bulk Modulus (GPa) = 34.05525 41.15865 37.60695
# Shear Modulus (GPa) = 34.35246 39.50903 36.93075
#
# Velocity S-wave (km/s) = 3.70710 3.97560 3.84370
# Velocity P-wave (km/s) = 5.65217 6.12693 5.89433
#
# Compressibility (1/GPa) = 0.02936405
#
# Stress axis : x y z
#
# Youngs Moduli (GPa) = 41.22569 83.39535 68.52968
#
# Poissons Ratio (x) = 0.34160 0.13817
# Poissons Ratio (y) = 0.16887 0.31699
# Poissons Ratio (z) = 0.08312 0.38575
#
# Static dielectric constant tensor:
#      x y z
#    x 1.976520 0.000000 0.000000 
#    y 0.000000 1.620730 0.000000 
#    z 0.000000 0.000000 1.935130 
# 
# From -- ./inp_files/7326.got.cif
#   From: 2010.05.17/outbox.cif.g08.bks.cpg/sg61_4_cif.got.tgz:7326.got - 2010.06.03 15:17:17.
