data_PCOD9461649
_publ_section_title
;
Structure prediction by ZEFSAII (Michael W. Deem and Ramdas Pophale) SiO2 
 PCOD9461649
Probable space group: P N M A
;
_chemical_formula_sum "Si O2"
_cell_formula_units_Z 64
_cell_length_a 12.491270
_cell_length_b 12.807198
_cell_length_c 22.796231
_cell_angle_alpha 90.000000
_cell_angle_beta 90.000000
_cell_angle_gamma 90.000000
_cell_volume 3646.899276
_symmetry_space_group_name_H-M "P N M A"
_symmetry_group_IT_number 62
_symmetry_cell_setting 'orthorhombic'
loop_
_space_group_symop_operation_xyz
x,y,z
1/2-x,-y,1/2+z
1/2+x,1/2-y,1/2-z
-x,1/2+y,-z
-x,-y,-z
1/2+x,y,1/2-z
1/2-x,1/2+y,1/2+z
x,1/2-y,z
loop_
_atom_site_type_symbol
_atom_site_label
_atom_site_fract_x
_atom_site_fract_y
_atom_site_fract_z
Si Si1 0.875302 0.525365 0.688362
Si Si2 0.036696 0.630424 0.768234
Si Si3 0.442600 0.631175 0.143434
Si Si4 0.721274 0.496909 0.789062
Si Si5 0.732318 0.123391 0.408291
Si Si6 0.755736 0.123621 0.081585
Si Si7 0.116614 0.469750 0.523627
Si Si8 0.496828 0.124467 0.402078
O O1 0.944172 0.615517 0.720247
O O2 0.814361 0.472211 0.743104
O O3 0.795948 0.572802 0.639963
O O4 0.960166 0.447081 0.658717
O O5 0.070416 0.750000 0.771771
O O6 0.134995 0.561610 0.747988
O O7 0.999561 0.597929 0.832912
O O8 0.475454 0.750000 0.150915
O O9 0.342389 0.600865 0.184600
O O10 0.403172 0.607838 0.077814
O O11 0.752690 0.571099 0.844008
O O12 0.742111 0.250000 0.405329
O O13 0.611444 0.093207 0.428550
O O14 0.820245 0.069907 0.449982
O O15 0.751322 0.250000 0.085937
O O16 0.880555 0.090249 0.075256
O O17 0.686656 0.083249 0.026978
O O18 0.000000 0.500000 0.500000
O O19 0.495958 0.250000 0.406287
#
# Coordination Sequence:
#
# PCOD9461649 Si02
#       8
#     8   8   8   8   8   8   8   8
#     4  11  20  34  56  87 114 149 188 230 292 350
#     4  10  18  28  48  82 122 148 171 217 282 350
#     4  10  23  41  57  77 111 151 195 242 288 340
#     4  10  20  33  56  85 116 147 187 229 288 353
#     4  10  21  37  59  86 119 153 191 237 289 348
#     4  11  22  36  57  85 120 152 192 243 291 345
#     4  11  23  42  58  84 110 154 204 244 291 332
#     4   9  18  32  53  83 114 151 182 222 291 346
#
# _framework density 17.549154999999999
#
# number of rings (size 3 to 8) (size 9 to 14) (size 15 to 20)
#    0.000    1.750    3.750    1.125    0.000    3.000 
#    0.000    0.000    0.000    0.000    0.000    0.875 
#    0.000    0.000    0.000    0.000    0.000    0.000 
#
# Total GULP energy -356766.178992 kJ/mol
# GULP energy per Si atom -5574.471547 kJ/mol
# Density = 1.750921 g / cm^3
# Si number density = 17.549155 Si / 1000 Ang^3
#
#
#
# Elastic Constant Matrix: (Units=GPa)
#
#
# Indices 1 2 3 4 5 6 
#
# 1 106.4755 18.7964 39.8307 0.0000 0.0000 0.0000
# 2 18.7964 57.4876 20.1728 0.0000 0.0000 0.0000
# 3 39.8307 20.1728 84.8291 0.0000 0.0000 0.0000
# 4 0.0000 0.0000 0.0000 15.8195 0.0000 0.0000
# 5 0.0000 0.0000 0.0000 0.0000 37.6800 0.0000
# 6 0.0000 0.0000 0.0000 0.0000 0.0000 17.6265
#
#
#
# Elastic Compliance Matrix: (Units=1/GPa)
#
#
# Indices 1 2 3 4 5 6 
#
# 1 0.011611 -0.002055 -0.004963 0.000000 0.000000 0.000000
# 2 -0.002055 0.019342 -0.003635 0.000000 0.000000 0.000000
# 3 -0.004963 -0.003635 0.014983 0.000000 0.000000 0.000000
# 4 0.000000 0.000000 0.000000 0.063213 0.000000 0.000000
# 5 0.000000 0.000000 0.000000 0.000000 0.026539 0.000000
# 6 0.000000 0.000000 0.000000 0.000000 0.000000 0.056733
#
#
# Mechanical properties :
#
#
# Convention : Reuss Voigt Hill
#
# Bulk Modulus (GPa) = 40.59943 45.15467 42.87705
# Shear Modulus (GPa) = 22.52878 25.55803 24.04340
#
# Velocity S-wave (km/s) = 3.58684 3.82038 3.70545
# Velocity P-wave (km/s) = 6.35128 6.72656 6.54161
#
# Compressibility (1/GPa) = 0.02463089
#
# Stress axis : x y z
#
# Youngs Moduli (GPa) = 86.12326 51.69987 66.74106
#
# Poissons Ratio (x) = 0.10623 0.33126
# Poissons Ratio (y) = 0.17697 0.24260
# Poissons Ratio (z) = 0.42746 0.18792
#
# Static dielectric constant tensor:
#      x y z
#    x 1.633710 0.000000 0.000000 
#    y 0.000000 1.563080 0.000000 
#    z 0.000000 0.000000 1.603210 
# 
# From -- ./inp_files/29468.got.cif
#   From: 2010.05.17/outbox.cif.g08.bks.cpg/sg62_15_cif.got.tgz:29468.got - 2010.06.03 15:25:27.
