data_PCOD9461670
_publ_section_title
;
Structure prediction by ZEFSAII (Michael W. Deem and Ramdas Pophale) SiO2 
 PCOD9461670
Probable space group: P N M A
;
_chemical_formula_sum "Si O2"
_cell_formula_units_Z 56
_cell_length_a 30.370759
_cell_length_b 8.507755
_cell_length_c 14.116324
_cell_angle_alpha 90.000000
_cell_angle_beta 90.000000
_cell_angle_gamma 90.000000
_cell_volume 3647.474281
_symmetry_space_group_name_H-M "P N M A"
_symmetry_group_IT_number 62
_symmetry_cell_setting 'orthorhombic'
loop_
_space_group_symop_operation_xyz
x,y,z
1/2-x,-y,1/2+z
1/2+x,1/2-y,1/2-z
-x,1/2+y,-z
-x,-y,-z
1/2+x,y,1/2-z
1/2-x,1/2+y,1/2+z
x,1/2-y,z
loop_
_atom_site_type_symbol
_atom_site_label
_atom_site_fract_x
_atom_site_fract_y
_atom_site_fract_z
Si Si1 0.181150 0.061875 0.709036
Si Si2 0.684503 0.561619 0.203918
Si Si3 0.597136 0.438730 0.108801
Si Si4 0.272070 0.061512 0.391939
Si Si5 0.904393 0.438577 0.393049
Si Si6 0.499305 0.939253 0.892414
Si Si7 0.770204 0.440941 0.894663
O O1 0.179246 0.250000 0.705627
O O2 0.221611 0.009807 0.640830
O O3 0.195134 0.009044 0.813951
O O4 0.135564 0.993491 0.671906
O O5 0.688489 0.750000 0.198392
O O6 0.637064 0.509640 0.167926
O O7 0.722891 0.487945 0.139198
O O8 0.696022 0.512634 0.311790
O O9 0.599905 0.250000 0.111893
O O10 0.548499 0.489864 0.145687
O O11 0.600806 0.491470 0.998904
O O12 0.275305 0.250000 0.388936
O O13 0.280122 0.005405 0.499261
O O14 0.903663 0.250000 0.401227
O O15 0.952805 0.487307 0.353535
O O16 0.498562 0.750000 0.892710
O O17 0.500000 0.000000 0.000000
O O18 0.769814 0.250000 0.897014
#
# Coordination Sequence:
#
# PCOD9461670 Si02
#       7
#     8   8   8   8   8   8   8
#     4  10  19  31  45  66  93 119 145 180 222 265
#     4  10  19  31  45  65  90 118 150 184 219 262
#     4  10  18  29  44  65  92 121 147 181 225 266
#     4  10  18  31  48  65  86 117 152 185 218 258
#     4  10  18  29  45  66  89 119 153 183 215 262
#     4   8  16  28  42  61  88 116 146 180 218 262
#     4   8  17  31  45  60  85 116 146 179 216 253
#
# _framework density 15.35309
#
# number of rings (size 3 to 8) (size 9 to 14) (size 15 to 20)
#    0.000    2.571    0.000    3.857    0.000    2.286 
#    0.000    7.857    0.000    0.000    0.000    1.000 
#    0.000    0.000    0.000    0.000    0.000    0.000 
#
# Total GULP energy -311950.459676 kJ/mol
# GULP energy per Si atom -5570.543923 kJ/mol
# Density = 1.531815 g / cm^3
# Si number density = 15.353090 Si / 1000 Ang^3
#
#
#
# Elastic Constant Matrix: (Units=GPa)
#
#
# Indices 1 2 3 4 5 6 
#
# 1 127.3332 2.6450 39.2465 0.0000 0.0000 0.0000
# 2 2.6450 17.0563 -4.0240 0.0000 0.0000 0.0000
# 3 39.2465 -4.0240 72.9263 0.0000 0.0000 0.0000
# 4 0.0000 0.0000 0.0000 19.9434 0.0000 0.0000
# 5 0.0000 0.0000 0.0000 0.0000 22.4530 0.0000
# 6 0.0000 0.0000 0.0000 0.0000 0.0000 17.5409
#
#
#
# Elastic Compliance Matrix: (Units=1/GPa)
#
#
# Indices 1 2 3 4 5 6 
#
# 1 0.009539 -0.002726 -0.005284 0.000000 0.000000 0.000000
# 2 -0.002726 0.060182 0.004788 0.000000 0.000000 0.000000
# 3 -0.005284 0.004788 0.016820 0.000000 0.000000 0.000000
# 4 0.000000 0.000000 0.000000 0.050142 0.000000 0.000000
# 5 0.000000 0.000000 0.000000 0.000000 0.044537 0.000000
# 6 0.000000 0.000000 0.000000 0.000000 0.000000 0.057010
#
#
# Mechanical properties :
#
#
# Convention : Reuss Voigt Hill
#
# Bulk Modulus (GPa) = 12.48490 32.56121 22.52306
# Shear Modulus (GPa) = 18.42488 23.95067 21.18778
#
# Velocity S-wave (km/s) = 3.46797 3.95396 3.71891
# Velocity P-wave (km/s) = 4.91785 6.48840 5.75693
#
# Compressibility (1/GPa) = 0.08009673
#
# Stress axis : x y z
#
# Youngs Moduli (GPa) = 104.83739 16.61635 59.45237
#
# Poissons Ratio (x) = 0.04529 0.31413
# Poissons Ratio (y) = 0.28576 -0.28464
# Poissons Ratio (z) = 0.55393 -0.07955
#
# Static dielectric constant tensor:
#      x y z
#    x 1.531620 0.000000 0.000000 
#    y 0.000000 1.522090 0.000000 
#    z 0.000000 0.000000 1.490580 
# 
# From -- ./inp_files/21181.got.cif
#   From: 2010.05.17/outbox.cif.g08.bks.cpg/sg62_11_cif.got.tgz:21181.got - 2010.06.03 15:25:27.
