data_PCOD9461076
_publ_section_title
;
Structure prediction by ZEFSAII (Michael W. Deem and Ramdas Pophale) SiO2 
 PCOD9461076
Probable space group: P B C A
;
_chemical_formula_sum "Si O2"
_cell_formula_units_Z 56
_cell_length_a 7.850684
_cell_length_b 23.172640
_cell_length_c 14.501969
_cell_angle_alpha 90.000000
_cell_angle_beta 90.000000
_cell_angle_gamma 90.000000
_cell_volume 2638.213777
_symmetry_space_group_name_H-M "P B C A"
_symmetry_group_IT_number 61
_symmetry_cell_setting 'orthorhombic'
loop_
_space_group_symop_operation_xyz
x,y,z
1/2-x,-y,1/2+z
1/2+x,1/2-y,-z
-x,1/2+y,1/2-z
-x,-y,-z
1/2+x,y,1/2-z
1/2-x,1/2+y,z
x,1/2-y,1/2+z
loop_
_atom_site_type_symbol
_atom_site_label
_atom_site_fract_x
_atom_site_fract_y
_atom_site_fract_z
Si Si1 0.632156 0.079736 0.051256
Si Si2 0.445423 0.699257 0.383761
Si Si3 0.810945 0.720201 0.473320
Si Si4 0.487473 0.390684 0.048126
Si Si5 0.807249 0.365614 0.259339
Si Si6 0.172981 0.948693 0.411164
Si Si7 0.535385 0.279217 0.296502
O O1 0.596297 0.131763 0.122050
O O2 0.636694 0.016498 0.095978
O O3 0.479624 0.077334 0.974646
O O4 0.816648 0.091821 0.005697
O O5 0.623750 0.704123 0.438781
O O6 0.309299 0.729620 0.450707
O O7 0.457940 0.735629 0.290101
O O8 0.919746 0.667115 0.512384
O O9 0.904403 0.745502 0.384423
O O10 0.424173 0.378192 0.152318
O O11 0.640361 0.437237 0.044786
O O12 0.812250 0.417262 0.187474
O O13 0.629277 0.342236 0.298806
O O14 0.848121 0.305762 0.205601
#
# Coordination Sequence:
#
# PCOD9461076 Si02
#       7
#     8   8   8   8   8   8   8
#     4  11  26  44  69  99 140 189 228 296 354 419
#     4  12  24  42  64 104 143 181 232 283 367 423
#     4  12  24  41  68 101 142 184 221 298 354 428
#     4  12  24  45  73 105 139 184 236 294 362 417
#     4  12  22  42  69 102 134 177 240 292 333 424
#     4  11  24  47  70  96 138 185 246 289 339 424
#     4  12  25  39  66 103 139 178 229 287 355 423
#
# _framework density 21.226483999999999
#
# number of rings (size 3 to 8) (size 9 to 14) (size 15 to 20)
#    0.000    0.286    5.714    3.857    4.000    0.000 
#    0.000    4.286    0.000    0.000    0.000    0.000 
#    0.000    0.000    0.000    0.000    0.000    0.000 
#
# Total GULP energy -312840.734001 kJ/mol
# GULP energy per Si atom -5586.441679 kJ/mol
# Density = 2.117817 g / cm^3
# Si number density = 21.226484 Si / 1000 Ang^3
#
#
#
# Elastic Constant Matrix: (Units=GPa)
#
#
# Indices 1 2 3 4 5 6 
#
# 1 88.3304 15.2826 12.6405 0.0000 0.0000 0.0000
# 2 15.2826 128.3590 39.8251 0.0000 0.0000 0.0000
# 3 12.6405 39.8251 74.8867 0.0000 0.0000 0.0000
# 4 0.0000 0.0000 0.0000 32.2991 0.0000 0.0000
# 5 0.0000 0.0000 0.0000 0.0000 18.7885 0.0000
# 6 0.0000 0.0000 0.0000 0.0000 0.0000 167.1473
#
#
#
# Elastic Compliance Matrix: (Units=1/GPa)
#
#
# Indices 1 2 3 4 5 6 
#
# 1 0.011694 -0.000934 -0.001477 0.000000 0.000000 0.000000
# 2 -0.000934 0.009405 -0.004844 0.000000 0.000000 0.000000
# 3 -0.001477 -0.004844 0.016179 0.000000 0.000000 0.000000
# 4 0.000000 0.000000 0.000000 0.030961 0.000000 0.000000
# 5 0.000000 0.000000 0.000000 0.000000 0.053224 0.000000
# 6 0.000000 0.000000 0.000000 0.000000 0.000000 0.005983
#
#
# Mechanical properties :
#
#
# Convention : Reuss Voigt Hill
#
# Bulk Modulus (GPa) = 43.92202 47.45249 45.68725
# Shear Modulus (GPa) = 33.43489 58.56883 46.00186
#
# Velocity S-wave (km/s) = 3.97312 5.25854 4.66036
# Velocity P-wave (km/s) = 6.46410 7.69893 7.10838
#
# Compressibility (1/GPa) = 0.02276762
#
# Stress axis : x y z
#
# Youngs Moduli (GPa) = 85.51303 106.32970 61.80924
#
# Poissons Ratio (x) = 0.09931 0.09130
# Poissons Ratio (y) = 0.07987 0.29939
# Poissons Ratio (z) = 0.12632 0.51504
#
# Static dielectric constant tensor:
#      x y z
#    x 2.042370 0.000000 0.000000 
#    y 0.000000 1.739140 0.000000 
#    z 0.000000 0.000000 1.798120 
# 
# From -- ./inp_files/7148.got.cif
#   From: 2010.05.17/outbox.cif.g08.bks.cpg/sg61_4_cif.got.tgz:7148.got - 2010.06.03 15:17:17.
