data_PCOD9461858
_publ_section_title
;
Structure prediction by ZEFSAII (Michael W. Deem and Ramdas Pophale) SiO2 
 PCOD9461858
Probable space group: P N M A
;
_chemical_formula_sum "Si O2"
_cell_formula_units_Z 48
_cell_length_a 8.319043
_cell_length_b 14.670756
_cell_length_c 23.489804
_cell_angle_alpha 90.000000
_cell_angle_beta 90.000000
_cell_angle_gamma 90.000000
_cell_volume 2866.851888
_symmetry_space_group_name_H-M "P N M A"
_symmetry_group_IT_number 62
_symmetry_cell_setting 'orthorhombic'
loop_
_space_group_symop_operation_xyz
x,y,z
1/2-x,-y,1/2+z
1/2+x,1/2-y,1/2-z
-x,1/2+y,-z
-x,-y,-z
1/2+x,y,1/2-z
1/2-x,1/2+y,1/2+z
x,1/2-y,z
loop_
_atom_site_type_symbol
_atom_site_label
_atom_site_fract_x
_atom_site_fract_y
_atom_site_fract_z
Si Si1 0.191599 0.856145 0.327193
Si Si2 0.668129 0.451595 0.563555
Si Si3 0.798430 0.459799 0.901836
Si Si4 0.183035 0.143511 0.704053
Si Si5 0.704482 0.851184 0.952256
Si Si6 0.883959 0.912634 0.507092
O O1 0.225757 0.750000 0.340668
O O2 0.240327 0.915902 0.380899
O O3 0.287853 0.880356 0.269832
O O4 0.003703 0.864198 0.312353
O O5 0.480318 0.455448 0.576273
O O6 0.708724 0.384338 0.510760
O O7 0.738841 0.550194 0.545609
O O8 0.780382 0.419922 0.839131
O O9 0.738621 0.564431 0.909523
O O10 0.689955 0.397448 0.944680
O O11 0.232421 0.250000 0.697566
O O12 0.759402 0.750000 0.935326
O O13 0.512957 0.846284 0.965574
O O14 0.000000 0.000000 0.500000
#
# Coordination Sequence:
#
# PCOD9461858 Si02
#       6
#     8   8   8   8   8   8
#     4  10  19  31  47  71  99 127 160 195 236 292
#     4  10  18  31  49  70  99 129 157 197 242 289
#     4  10  19  32  48  70 100 131 162 196 236 289
#     4  10  20  32  48  71 100 130 161 195 234 284
#     4  10  19  32  50  71  96 129 164 202 241 278
#     4   8  16  30  46  65  90 120 159 195 232 278
#
# _framework density 16.743103999999999
#
# number of rings (size 3 to 8) (size 9 to 14) (size 15 to 20)
#    0.000    2.667    0.000    6.500    0.000    4.667 
#    0.000    2.500    0.000    0.000    0.000   10.500 
#    0.000    0.000    0.000    0.000    0.000    0.000 
#
# Total GULP energy -267363.366495 kJ/mol
# GULP energy per Si atom -5570.070135 kJ/mol
# Density = 1.670500 g / cm^3
# Si number density = 16.743104 Si / 1000 Ang^3
#
#
#
# Elastic Constant Matrix: (Units=GPa)
#
#
# Indices 1 2 3 4 5 6 
#
# 1 39.0299 -3.7459 -15.1436 0.0000 0.0000 0.0000
# 2 -3.7459 64.8014 22.1006 0.0000 0.0000 0.0000
# 3 -15.1436 22.1006 61.5379 0.0000 0.0000 0.0000
# 4 0.0000 0.0000 0.0000 13.8614 0.0000 0.0000
# 5 0.0000 0.0000 0.0000 0.0000 31.0455 0.0000
# 6 0.0000 0.0000 0.0000 0.0000 0.0000 10.5169
#
#
#
# Elastic Compliance Matrix: (Units=1/GPa)
#
#
# Indices 1 2 3 4 5 6 
#
# 1 0.028366 -0.000844 0.007284 0.000000 0.000000 0.000000
# 2 -0.000844 0.017611 -0.006533 0.000000 0.000000 0.000000
# 3 0.007284 -0.006533 0.020389 0.000000 0.000000 0.000000
# 4 0.000000 0.000000 0.000000 0.072143 0.000000 0.000000
# 5 0.000000 0.000000 0.000000 0.000000 0.032211 0.000000
# 6 0.000000 0.000000 0.000000 0.000000 0.000000 0.095085
#
#
# Mechanical properties :
#
#
# Convention : Reuss Voigt Hill
#
# Bulk Modulus (GPa) = 15.11033 19.08791 17.09912
# Shear Modulus (GPa) = 17.35805 21.89530 19.62668
#
# Velocity S-wave (km/s) = 3.22332 3.62016 3.42749
# Velocity P-wave (km/s) = 4.78513 5.37581 5.08905
#
# Compressibility (1/GPa) = 0.06617991
#
# Stress axis : x y z
#
# Youngs Moduli (GPa) = 35.25286 56.78309 49.04679
#
# Poissons Ratio (x) = 0.04795 -0.35725
# Poissons Ratio (y) = 0.02977 0.32040
# Poissons Ratio (z) = -0.25678 0.37094
#
# Static dielectric constant tensor:
#      x y z
#    x 1.611840 0.000000 0.000000 
#    y 0.000000 1.592670 0.000000 
#    z 0.000000 0.000000 1.557220 
# 
# From -- ./inp_files/25865.got.cif
#   From: 2010.05.17/outbox.cif.g08.bks.cpg/sg62_13_cif.got.tgz:25865.got - 2010.06.03 15:25:27.
