data_PCOD9461990
_publ_section_title
;
Structure prediction by ZEFSAII (Michael W. Deem and Ramdas Pophale) SiO2 
 PCOD9461990
Probable space group: P N M A
;
_chemical_formula_sum "Si O2"
_cell_formula_units_Z 32
_cell_length_a 36.951393
_cell_length_b 5.373617
_cell_length_c 6.836264
_cell_angle_alpha 90.000000
_cell_angle_beta 90.000000
_cell_angle_gamma 90.000000
_cell_volume 1357.426584
_symmetry_space_group_name_H-M "P N M A"
_symmetry_group_IT_number 62
_symmetry_cell_setting 'orthorhombic'
loop_
_space_group_symop_operation_xyz
x,y,z
1/2-x,-y,1/2+z
1/2+x,1/2-y,1/2-z
-x,1/2+y,-z
-x,-y,-z
1/2+x,y,1/2-z
1/2-x,1/2+y,1/2+z
x,1/2-y,z
loop_
_atom_site_type_symbol
_atom_site_label
_atom_site_fract_x
_atom_site_fract_y
_atom_site_fract_z
Si Si1 0.418004 0.250000 0.452286
Si Si2 0.224733 0.750000 0.555940
Si Si3 0.052008 0.250000 0.360125
Si Si4 0.634066 0.250000 0.038217
Si Si5 0.458340 0.750000 0.403109
Si Si6 0.708608 0.250000 0.185622
Si Si7 0.149615 0.750000 0.713071
Si Si8 0.033185 0.750000 0.326878
O O1 0.435299 0.501432 0.364487
O O2 0.375365 0.250000 0.406155
O O3 0.432071 0.250000 0.677080
O O4 0.218150 0.500015 0.433429
O O5 0.265644 0.750000 0.629077
O O6 0.193420 0.750000 0.724431
O O7 0.094846 0.250000 0.367617
O O8 0.037575 0.502139 0.450194
O O9 0.036864 0.250000 0.139082
O O10 0.639323 0.499856 0.908486
O O11 0.665356 0.250000 0.202594
O O12 0.497451 0.750000 0.305100
#
# Coordination Sequence:
#
# PCOD9461990 Si02
#       8
#     4   4   4   4   4   4   4   4
#     4  10  18  32  52  78 100 136 183 212 273 326
#     4  10  21  40  61  88 118 159 195 237 294 349
#     4  10  18  32  52  78 100 136 183 212 273 326
#     4  10  21  37  56  76 112 149 178 220 277 330
#     4  10  19  33  55  76 106 137 173 237 287 313
#     4  10  21  40  61  88 118 159 195 237 294 349
#     4  10  21  37  56  76 112 149 178 220 277 330
#     4  10  19  33  55  76 106 137 173 237 287 313
#
# _framework density 23.574017999999999
#
# number of rings (size 3 to 8) (size 9 to 14) (size 15 to 20)
#    0.000    2.000    0.000    6.000    0.000    0.000 
#    9.000    0.000    0.000   25.500    0.000    0.000 
#    0.000    0.000    0.000    0.000    0.000    0.000 
#
# Total GULP energy -178938.642817 kJ/mol
# GULP energy per Si atom -5591.832588 kJ/mol
# Density = 2.352036 g / cm^3
# Si number density = 23.574018 Si / 1000 Ang^3
#
#
#
# Elastic Constant Matrix: (Units=GPa)
#
#
# Indices 1 2 3 4 5 6 
#
# 1 100.3208 25.3677 3.7274 0.0000 0.0000 0.0000
# 2 25.3677 215.0447 -4.9302 0.0000 0.0000 0.0000
# 3 3.7274 -4.9302 46.8805 0.0000 0.0000 0.0000
# 4 0.0000 0.0000 0.0000 -9.7730 0.0000 0.0000
# 5 0.0000 0.0000 0.0000 0.0000 44.2107 0.0000
# 6 0.0000 0.0000 0.0000 0.0000 0.0000 33.9162
#
#
#
# Elastic Compliance Matrix: (Units=1/GPa)
#
#
# Indices 1 2 3 4 5 6 
#
# 1 0.010317 -0.001239 -0.000951 0.000000 0.000000 0.000000
# 2 -0.001239 0.004810 0.000604 0.000000 0.000000 0.000000
# 3 -0.000951 0.000604 0.021470 0.000000 0.000000 0.000000
# 4 0.000000 0.000000 0.000000 -0.102323 0.000000 0.000000
# 5 0.000000 0.000000 0.000000 0.000000 0.022619 0.000000
# 6 0.000000 0.000000 0.000000 0.000000 0.000000 0.029484
#
#
# Mechanical properties :
#
#
# Convention : Reuss Voigt Hill
#
# Bulk Modulus (GPa) = 29.91611 45.61953 37.76782
# Shear Modulus (GPa) = 7249.42892 36.20952 3642.81922
#
# Velocity S-wave (km/s) = 55.51444 3.92343 39.35255
# Velocity P-wave (km/s) = 64.20168 6.31807 45.61674
#
# Compressibility (1/GPa) = 0.03342680
#
# Stress axis : x y z
#
# Youngs Moduli (GPa) = 96.93133 207.89221 46.57670
#
# Poissons Ratio (x) = 0.25753 0.04427
# Poissons Ratio (y) = 0.12008 -0.02815
# Poissons Ratio (z) = 0.09214 -0.12564
#
# Static dielectric constant tensor:
#      x y z
#    x 1.865050 0.000000 0.000000 
#    y 0.000000 2.000780 0.000000 
#    z 0.000000 0.000000 1.886470 
# 
# From -- ./inp_files/9644.got.cif
#   From: 2010.05.17/outbox.cif.g08.bks.cpg/sg62_5_cif.got.tgz:9644.got - 2010.06.03 15:25:27.
