data_PCOD9461775
_publ_section_title
;
Structure prediction by ZEFSAII (Michael W. Deem and Ramdas Pophale) SiO2 
 PCOD9461775
Probable space group: P N M A
;
_chemical_formula_sum "Si O2"
_cell_formula_units_Z 56
_cell_length_a 22.128419
_cell_length_b 9.354402
_cell_length_c 15.613613
_cell_angle_alpha 90.000000
_cell_angle_beta 90.000000
_cell_angle_gamma 90.000000
_cell_volume 3231.988646
_symmetry_space_group_name_H-M "P N M A"
_symmetry_group_IT_number 62
_symmetry_cell_setting 'orthorhombic'
loop_
_space_group_symop_operation_xyz
x,y,z
1/2-x,-y,1/2+z
1/2+x,1/2-y,1/2-z
-x,1/2+y,-z
-x,-y,-z
1/2+x,y,1/2-z
1/2-x,1/2+y,1/2+z
x,1/2-y,z
loop_
_atom_site_type_symbol
_atom_site_label
_atom_site_fract_x
_atom_site_fract_y
_atom_site_fract_z
Si Si1 0.479911 0.914705 0.630475
Si Si2 0.318609 0.421239 0.043733
Si Si3 0.946988 0.587914 0.256845
Si Si4 0.725363 0.919425 0.578026
Si Si5 0.322306 0.079705 0.242512
Si Si6 0.592831 0.913666 0.499338
Si Si7 0.944455 0.914489 0.460473
O O1 0.469787 0.750000 0.651829
O O2 0.539388 0.924252 0.569464
O O3 0.498056 0.007222 0.712018
O O4 0.425057 0.980066 0.576482
O O5 0.323981 0.250000 0.034223
O O6 0.302635 0.449906 0.144495
O O7 0.382218 0.499600 0.026193
O O8 0.270056 0.486837 0.978874
O O9 0.942487 0.750000 0.223866
O O10 0.884495 0.504192 0.241387
O O11 0.954566 0.590841 0.358507
O O12 0.739718 0.750000 0.569045
O O13 0.722956 0.954635 0.679540
O O14 0.657290 0.940616 0.542412
O O15 0.334816 0.250000 0.248705
O O16 0.592263 0.750000 0.467523
O O17 0.940380 0.750000 0.491525
O O18 0.000000 0.000000 0.500000
#
# Coordination Sequence:
#
# PCOD9461775 Si02
#       7
#     8   8   8   8   8   8   8
#     4  10  18  30  48  74 106 140 177 213 258 310
#     4  10  21  36  57  84 111 139 179 225 268 322
#     4  10  19  31  52  80 107 135 175 222 265 315
#     4  10  19  35  56  77 107 146 183 221 270 320
#     4   9  18  35  55  76 104 141 182 222 265 320
#     4   9  18  31  48  72 104 141 178 216 259 305
#     4  10  21  38  59  82 106 136 174 220 272 319
#
# _framework density 17.326794
#
# number of rings (size 3 to 8) (size 9 to 14) (size 15 to 20)
#    0.000    2.286    1.429    1.714    0.000    4.000 
#    0.000    1.429    0.000    3.429    0.000    0.000 
#    0.000    0.000    0.000    0.000    0.000    0.000 
#
# Total GULP energy -312259.308379 kJ/mol
# GULP energy per Si atom -5576.059078 kJ/mol
# Density = 1.728736 g / cm^3
# Si number density = 17.326794 Si / 1000 Ang^3
#
#
#
# Elastic Constant Matrix: (Units=GPa)
#
#
# Indices 1 2 3 4 5 6 
#
# 1 70.9207 53.2888 50.4496 0.0000 0.0000 0.0000
# 2 53.2888 99.8154 60.5513 0.0000 0.0000 0.0000
# 3 50.4496 60.5513 77.5019 0.0000 0.0000 0.0000
# 4 0.0000 0.0000 0.0000 27.8433 0.0000 0.0000
# 5 0.0000 0.0000 0.0000 0.0000 32.6730 0.0000
# 6 0.0000 0.0000 0.0000 0.0000 0.0000 30.6596
#
#
#
# Elastic Compliance Matrix: (Units=1/GPa)
#
#
# Indices 1 2 3 4 5 6 
#
# 1 0.029057 -0.007677 -0.012916 0.000000 0.000000 0.000000
# 2 -0.007677 0.021073 -0.011467 0.000000 0.000000 0.000000
# 3 -0.012916 -0.011467 0.030270 0.000000 0.000000 0.000000
# 4 0.000000 0.000000 0.000000 0.035915 0.000000 0.000000
# 5 0.000000 0.000000 0.000000 0.000000 0.030606 0.000000
# 6 0.000000 0.000000 0.000000 0.000000 0.000000 0.032616
#
#
# Mechanical properties :
#
#
# Convention : Reuss Voigt Hill
#
# Bulk Modulus (GPa) = 61.42881 64.09082 62.75981
# Shear Modulus (GPa) = 20.07346 23.83173 21.95260
#
# Velocity S-wave (km/s) = 3.40740 3.71270 3.56332
# Velocity P-wave (km/s) = 7.14216 7.44638 7.29586
#
# Compressibility (1/GPa) = 0.01627901
#
# Stress axis : x y z
#
# Youngs Moduli (GPa) = 34.41520 47.45336 33.03631
#
# Poissons Ratio (x) = 0.36431 0.42671
# Poissons Ratio (y) = 0.26421 0.37882
# Poissons Ratio (z) = 0.44452 0.54414
#
# Static dielectric constant tensor:
#      x y z
#    x 1.551520 0.000000 0.000000 
#    y 0.000000 1.592910 0.000000 
#    z 0.000000 0.000000 1.607530 
# 
# From -- ./inp_files/20398.got.cif
#   From: 2010.05.17/outbox.cif.g08.bks.cpg/sg62_11_cif.got.tgz:20398.got - 2010.06.03 15:25:27.
