data_PCOD9461673
_publ_section_title
;
Structure prediction by ZEFSAII (Michael W. Deem and Ramdas Pophale) SiO2 
 PCOD9461673
Probable space group: P N M A
;
_chemical_formula_sum "Si O2"
_cell_formula_units_Z 56
_cell_length_a 18.945371
_cell_length_b 8.635912
_cell_length_c 21.586284
_cell_angle_alpha 90.000000
_cell_angle_beta 90.000000
_cell_angle_gamma 90.000000
_cell_volume 3531.743944
_symmetry_space_group_name_H-M "P N M A"
_symmetry_group_IT_number 62
_symmetry_cell_setting 'orthorhombic'
loop_
_space_group_symop_operation_xyz
x,y,z
1/2-x,-y,1/2+z
1/2+x,1/2-y,1/2-z
-x,1/2+y,-z
-x,-y,-z
1/2+x,y,1/2-z
1/2-x,1/2+y,1/2+z
x,1/2-y,z
loop_
_atom_site_type_symbol
_atom_site_label
_atom_site_fract_x
_atom_site_fract_y
_atom_site_fract_z
Si Si1 0.703309 0.571819 0.821617
Si Si2 0.352292 0.935705 0.368165
Si Si3 0.584743 0.565643 0.251463
Si Si4 0.920928 0.563126 0.001985
Si Si5 0.843875 0.561247 0.875835
Si Si6 0.783166 0.928198 0.688379
Si Si7 0.929435 0.062968 0.253244
O O1 0.691872 0.750000 0.840840
O O2 0.762834 0.504927 0.867047
O O3 0.743089 0.572337 0.755044
O O4 0.626695 0.504870 0.805219
O O5 0.355345 0.750000 0.363559
O O6 0.382507 0.984821 0.434620
O O7 0.272102 0.990786 0.357187
O O8 0.399800 0.006288 0.313081
O O9 0.581970 0.750000 0.254512
O O10 0.610868 0.500601 0.318006
O O11 0.643264 0.512349 0.201613
O O12 0.507937 0.497692 0.237386
O O13 0.923627 0.750000 0.001713
O O14 0.878356 0.514942 0.940614
O O15 0.000000 0.500000 0.000000
O O16 0.843350 0.750000 0.871756
O O17 0.794784 0.750000 0.670840
O O18 0.928272 0.250000 0.253322
#
# Coordination Sequence:
#
# PCOD9461673 Si02
#       7
#     8   8   8   8   8   8   8
#     4   7  13  26  45  63  80 106 147 186 217 259
#     4  10  19  31  45  67  95 122 154 194 232 267
#     4  11  20  29  44  69  95 118 145 189 237 273
#     4  10  21  32  45  65  93 126 159 191 224 263
#     4   9  17  32  48  63  87 123 159 188 220 270
#     4   9  17  31  48  65  86 119 154 184 224 280
#     4  10  18  29  45  66  90 120 152 186 229 280
#
# _framework density 15.856189000000001
#
# number of rings (size 3 to 8) (size 9 to 14) (size 15 to 20)
#    0.000    2.571    0.000    5.143    0.000    4.000 
#    0.000    0.714    0.000    0.000    0.000    1.000 
#    0.000    0.000    0.000    0.000    0.000    0.000 
#
# Total GULP energy -311980.815755 kJ/mol
# GULP energy per Si atom -5571.085996 kJ/mol
# Density = 1.582010 g / cm^3
# Si number density = 15.856189 Si / 1000 Ang^3
#
#
#
# Elastic Constant Matrix: (Units=GPa)
#
#
# Indices 1 2 3 4 5 6 
#
# 1 168.4175 37.5199 70.2921 0.0000 0.0000 0.0000
# 2 37.5199 51.9485 20.8168 0.0000 0.0000 0.0000
# 3 70.2921 20.8168 78.3431 0.0000 0.0000 0.0000
# 4 0.0000 0.0000 0.0000 15.5386 0.0000 0.0000
# 5 0.0000 0.0000 0.0000 0.0000 26.6824 0.0000
# 6 0.0000 0.0000 0.0000 0.0000 0.0000 25.0922
#
#
#
# Elastic Compliance Matrix: (Units=1/GPa)
#
#
# Indices 1 2 3 4 5 6 
#
# 1 0.010235 -0.004155 -0.008080 0.000000 0.000000 0.000000
# 2 -0.004155 0.023230 -0.002445 0.000000 0.000000 0.000000
# 3 -0.008080 -0.002445 0.020663 0.000000 0.000000 0.000000
# 4 0.000000 0.000000 0.000000 0.064356 0.000000 0.000000
# 5 0.000000 0.000000 0.000000 0.000000 0.037478 0.000000
# 6 0.000000 0.000000 0.000000 0.000000 0.000000 0.039853
#
#
# Mechanical properties :
#
#
# Convention : Reuss Voigt Hill
#
# Bulk Modulus (GPa) = 40.37033 61.77410 51.07222
# Shear Modulus (GPa) = 21.41960 24.80131 23.11046
#
# Velocity S-wave (km/s) = 3.67940 3.95921 3.82187
# Velocity P-wave (km/s) = 6.60047 7.74235 7.19410
#
# Compressibility (1/GPa) = 0.02477066
#
# Stress axis : x y z
#
# Youngs Moduli (GPa) = 97.70034 43.04709 48.39530
#
# Poissons Ratio (x) = 0.17886 0.39101
# Poissons Ratio (y) = 0.40594 0.11831
# Poissons Ratio (z) = 0.78937 0.10524
#
# Static dielectric constant tensor:
#      x y z
#    x 1.547680 0.000000 0.000000 
#    y 0.000000 1.539900 0.000000 
#    z 0.000000 0.000000 1.515170 
# 
# From -- ./inp_files/27561.got.cif
#   From: 2010.05.17/outbox.cif.g08.bks.cpg/sg62_14_cif.got.tgz:27561.got - 2010.06.03 15:25:27.
