data_PCOD9461529
_publ_section_title
;
Structure prediction by ZEFSAII (Michael W. Deem and Ramdas Pophale) SiO2 
 PCOD9461529
Probable space group: P N M A
;
_chemical_formula_sum "Si O2"
_cell_formula_units_Z 48
_cell_length_a 17.481952
_cell_length_b 16.432803
_cell_length_c 9.527264
_cell_angle_alpha 90.000000
_cell_angle_beta 90.000000
_cell_angle_gamma 90.000000
_cell_volume 2736.968329
_symmetry_space_group_name_H-M "P N M A"
_symmetry_group_IT_number 62
_symmetry_cell_setting 'orthorhombic'
loop_
_space_group_symop_operation_xyz
x,y,z
1/2-x,-y,1/2+z
1/2+x,1/2-y,1/2-z
-x,1/2+y,-z
-x,-y,-z
1/2+x,y,1/2-z
1/2-x,1/2+y,1/2+z
x,1/2-y,z
loop_
_atom_site_type_symbol
_atom_site_label
_atom_site_fract_x
_atom_site_fract_y
_atom_site_fract_z
Si Si1 0.816828 0.985827 0.987189
Si Si2 0.959545 0.425919 0.912854
Si Si3 0.070023 0.158246 0.098218
Si Si4 0.517272 0.423178 0.900460
Si Si5 0.337581 0.494848 0.185064
Si Si6 0.047254 0.842653 0.653100
O O1 0.863767 0.906473 0.934049
O O2 0.735024 0.987887 0.914874
O O3 0.870485 0.062140 0.942935
O O4 0.813466 0.987815 0.155292
O O5 0.975788 0.431054 0.748592
O O6 0.000000 0.500000 0.000000
O O7 0.004537 0.350370 0.978581
O O8 0.099552 0.250000 0.103509
O O9 0.023567 0.140291 0.241385
O O10 0.606648 0.432331 0.865549
O O11 0.500000 0.500000 0.000000
O O12 0.485484 0.350703 0.995297
O O13 0.388347 0.411553 0.179347
O O14 0.073480 0.750000 0.679686
#
# Coordination Sequence:
#
# PCOD9461529 Si02
#       6
#     8   8   8   8   8   8
#     4  11  22  35  58  86 113 150 188 234 284 344
#     4  10  17  36  58  81 108 144 196 233 272 329
#     4  10  20  38  61  81 109 151 194 237 283 335
#     4  10  19  34  58  84 110 145 191 241 274 329
#     4  11  22  36  58  84 119 148 188 235 284 341
#     4  10  22  39  60  85 114 150 194 241 288 337
#
# _framework density 17.537651
#
# number of rings (size 3 to 8) (size 9 to 14) (size 15 to 20)
#    0.000    1.667    5.000    3.000    7.000    1.333 
#    0.000    0.000    0.000    2.000    0.000    0.000 
#    0.000    0.000    0.000    0.000    0.000    0.000 
#
# Total GULP energy -267463.254818 kJ/mol
# GULP energy per Si atom -5572.151142 kJ/mol
# Density = 1.749773 g / cm^3
# Si number density = 17.537651 Si / 1000 Ang^3
#
#
#
# Elastic Constant Matrix: (Units=GPa)
#
#
# Indices 1 2 3 4 5 6 
#
# 1 94.8941 12.2517 42.5787 0.0000 0.0000 0.0000
# 2 12.2517 34.5687 4.7620 0.0000 0.0000 0.0000
# 3 42.5787 4.7620 152.1675 0.0000 0.0000 0.0000
# 4 0.0000 0.0000 0.0000 17.9985 0.0000 0.0000
# 5 0.0000 0.0000 0.0000 0.0000 35.4379 0.0000
# 6 0.0000 0.0000 0.0000 0.0000 0.0000 16.1659
#
#
#
# Elastic Compliance Matrix: (Units=1/GPa)
#
#
# Indices 1 2 3 4 5 6 
#
# 1 0.012576 -0.003990 -0.003394 0.000000 0.000000 0.000000
# 2 -0.003990 0.030319 0.000168 0.000000 0.000000 0.000000
# 3 -0.003394 0.000168 0.007516 0.000000 0.000000 0.000000
# 4 0.000000 0.000000 0.000000 0.055560 0.000000 0.000000
# 5 0.000000 0.000000 0.000000 0.000000 0.028218 0.000000
# 6 0.000000 0.000000 0.000000 0.000000 0.000000 0.061858
#
#
# Mechanical properties :
#
#
# Convention : Reuss Voigt Hill
#
# Bulk Modulus (GPa) = 27.79425 44.53502 36.16464
# Shear Modulus (GPa) = 22.47461 28.72300 25.59880
#
# Velocity S-wave (km/s) = 3.58370 4.05135 3.82468
# Velocity P-wave (km/s) = 5.74514 6.87995 6.33799
#
# Compressibility (1/GPa) = 0.03597866
#
# Stress axis : x y z
#
# Youngs Moduli (GPa) = 79.51596 32.98286 133.04615
#
# Poissons Ratio (x) = 0.13159 0.45158
# Poissons Ratio (y) = 0.31724 -0.02229
# Poissons Ratio (z) = 0.26989 -0.00553
#
# Static dielectric constant tensor:
#      x y z
#    x 1.598260 0.000000 0.000000 
#    y 0.000000 1.636690 0.000000 
#    z 0.000000 0.000000 1.612410 
# 
# From -- ./inp_files/7811.got.cif
#   From: 2010.05.17/outbox.cif.g08.bks.cpg/sg62_4_cif.got.tgz:7811.got - 2010.06.03 15:25:27.
