data_PCOD9461819
_publ_section_title
;
Structure prediction by ZEFSAII (Michael W. Deem and Ramdas Pophale) SiO2 
 PCOD9461819
Probable space group: P N M A
;
_chemical_formula_sum "Si O2"
_cell_formula_units_Z 48
_cell_length_a 18.919810
_cell_length_b 8.400487
_cell_length_c 16.889893
_cell_angle_alpha 90.000000
_cell_angle_beta 90.000000
_cell_angle_gamma 90.000000
_cell_volume 2684.405581
_symmetry_space_group_name_H-M "P N M A"
_symmetry_group_IT_number 62
_symmetry_cell_setting 'orthorhombic'
loop_
_space_group_symop_operation_xyz
x,y,z
1/2-x,-y,1/2+z
1/2+x,1/2-y,1/2-z
-x,1/2+y,-z
-x,-y,-z
1/2+x,y,1/2-z
1/2-x,1/2+y,1/2+z
x,1/2-y,z
loop_
_atom_site_type_symbol
_atom_site_label
_atom_site_fract_x
_atom_site_fract_y
_atom_site_fract_z
Si Si1 0.666617 0.942646 0.335770
Si Si2 0.787203 0.063378 0.431600
Si Si3 0.920584 0.937590 0.504193
Si Si4 0.210007 0.936128 0.915753
Si Si5 0.843637 0.437731 0.659476
Si Si6 0.579333 0.942010 0.490866
O O1 0.672617 0.750000 0.337416
O O2 0.639821 0.988465 0.248893
O O3 0.614714 0.992860 0.407367
O O4 0.743425 0.017016 0.354053
O O5 0.777309 0.250000 0.449040
O O6 0.869375 0.021933 0.440062
O O7 0.750178 0.958378 0.500172
O O8 0.918684 0.750000 0.490753
O O9 0.887330 0.975953 0.590577
O O10 0.000000 0.000000 0.500000
O O11 0.208687 0.750000 0.894496
O O12 0.260386 0.029336 0.856050
O O13 0.131326 0.994053 0.937408
O O14 0.856906 0.250000 0.650889
O O15 0.580601 0.750000 0.491363
O O16 0.500000 0.000000 0.500000
#
# Coordination Sequence:
#
# PCOD9461819 Si02
#       6
#     8   8   8   8   8   8
#     4   9  19  35  52  73 103 135 167 209 258 304
#     4  10  18  30  51  76  98 126 168 208 245 297
#     4  11  21  35  54  76 105 137 171 211 257 308
#     4   9  17  31  49  70  98 129 161 202 250 296
#     4  10  19  33  54  77 100 131 171 211 255 306
#     4   9  18  32  50  72  99 132 166 201 245 295
#
# _framework density 17.881053999999999
#
# number of rings (size 3 to 8) (size 9 to 14) (size 15 to 20)
#    0.000    2.333    0.000    7.000    0.000    4.667 
#    0.000    1.667    0.000    6.000    0.000    0.000 
#    0.000    0.000    0.000    0.000    0.000    0.000 
#
# Total GULP energy -267470.292377 kJ/mol
# GULP energy per Si atom -5572.297758 kJ/mol
# Density = 1.784036 g / cm^3
# Si number density = 17.881054 Si / 1000 Ang^3
#
#
#
# Elastic Constant Matrix: (Units=GPa)
#
#
# Indices 1 2 3 4 5 6 
#
# 1 129.2291 9.1988 28.1290 0.0000 0.0000 0.0000
# 2 9.1988 35.2083 10.8521 0.0000 0.0000 0.0000
# 3 28.1290 10.8521 66.8002 0.0000 0.0000 0.0000
# 4 0.0000 0.0000 0.0000 19.6789 0.0000 0.0000
# 5 0.0000 0.0000 0.0000 0.0000 17.0782 0.0000
# 6 0.0000 0.0000 0.0000 0.0000 0.0000 32.0443
#
#
#
# Elastic Compliance Matrix: (Units=1/GPa)
#
#
# Indices 1 2 3 4 5 6 
#
# 1 0.008566 -0.001186 -0.003414 0.000000 0.000000 0.000000
# 2 -0.001186 0.030064 -0.004385 0.000000 0.000000 0.000000
# 3 -0.003414 -0.004385 0.017120 0.000000 0.000000 0.000000
# 4 0.000000 0.000000 0.000000 0.050816 0.000000 0.000000
# 5 0.000000 0.000000 0.000000 0.000000 0.058554 0.000000
# 6 0.000000 0.000000 0.000000 0.000000 0.000000 0.031207
#
#
# Mechanical properties :
#
#
# Convention : Reuss Voigt Hill
#
# Bulk Modulus (GPa) = 26.46897 36.39972 31.43434
# Shear Modulus (GPa) = 22.03718 25.96412 24.00065
#
# Velocity S-wave (km/s) = 3.51441 3.81471 3.66763
# Velocity P-wave (km/s) = 5.59491 6.30900 5.96265
#
# Compressibility (1/GPa) = 0.03778009
#
# Stress axis : x y z
#
# Youngs Moduli (GPa) = 116.74354 33.26274 58.41084
#
# Poissons Ratio (x) = 0.03944 0.19944
# Poissons Ratio (y) = 0.13841 0.25612
# Poissons Ratio (z) = 0.39861 0.14585
#
# Static dielectric constant tensor:
#      x y z
#    x 1.634280 0.000000 0.000000 
#    y 0.000000 1.597470 0.000000 
#    z 0.000000 0.000000 1.635080 
# 
# From -- ./inp_files/24193.got.cif
#   From: 2010.05.17/outbox.cif.g08.bks.cpg/sg62_13_cif.got.tgz:24193.got - 2010.06.03 15:25:27.
