data_PCOD9461340
_publ_section_title
;
Structure prediction by ZEFSAII (Michael W. Deem and Ramdas Pophale) SiO2 
 PCOD9461340
Probable space group: P N M A
;
_chemical_formula_sum "Si O2"
_cell_formula_units_Z 64
_cell_length_a 20.043363
_cell_length_b 7.908524
_cell_length_c 23.760968
_cell_angle_alpha 90.000000
_cell_angle_beta 90.000000
_cell_angle_gamma 90.000000
_cell_volume 3766.432237
_symmetry_space_group_name_H-M "P N M A"
_symmetry_group_IT_number 62
_symmetry_cell_setting 'orthorhombic'
loop_
_space_group_symop_operation_xyz
x,y,z
1/2-x,-y,1/2+z
1/2+x,1/2-y,1/2-z
-x,1/2+y,-z
-x,-y,-z
1/2+x,y,1/2-z
1/2-x,1/2+y,1/2+z
x,1/2-y,z
loop_
_atom_site_type_symbol
_atom_site_label
_atom_site_fract_x
_atom_site_fract_y
_atom_site_fract_z
Si Si1 0.784299 0.953979 0.665397
Si Si2 0.635404 0.456615 0.277616
Si Si3 0.993930 0.955580 0.377640
Si Si4 0.491161 0.452503 0.253570
Si Si5 0.628766 0.949121 0.061964
Si Si6 0.344228 0.042992 0.269475
Si Si7 0.736746 0.951484 0.839860
Si Si8 0.642219 0.447989 0.934648
O O1 0.784964 0.750000 0.663175
O O2 0.833128 0.003988 0.716986
O O3 0.710011 0.007874 0.683822
O O4 0.813259 0.020236 0.607290
O O5 0.633462 0.250000 0.278662
O O6 0.559580 0.518380 0.281008
O O7 0.689230 0.514217 0.324013
O O8 0.994934 0.750000 0.377904
O O9 0.926615 0.018310 0.408084
O O10 0.059782 0.015846 0.410743
O O11 0.994889 0.013399 0.313178
O O12 0.490532 0.250000 0.261388
O O13 0.419912 0.517732 0.275438
O O14 0.620228 0.750000 0.053817
O O15 0.643583 0.023370 0.001009
O O16 0.345270 0.250000 0.269108
O O17 0.314008 0.987402 0.209073
O O18 0.739413 0.750000 0.833065
O O19 0.705630 0.986266 0.900231
O O20 0.640428 0.250000 0.923729
#
# Coordination Sequence:
#
# PCOD9461340 Si02
#       8
#     8   8   8   8   8   8   8   8
#     4   9  16  30  47  67  93 121 152 191 229 267
#     4   8  15  26  46  71  94 119 152 188 226 269
#     4  10  21  33  43  64  96 123 155 193 226 263
#     4  10  16  27  49  72  92 125 160 183 217 271
#     4  11  22  34  47  65  90 124 161 194 229 270
#     4   8  15  26  46  71  94 119 152 188 226 269
#     4   9  16  30  47  67  93 121 152 191 229 267
#     4  11  22  34  47  65  90 124 161 194 229 270
#
# _framework density 16.992208000000002
#
# number of rings (size 3 to 8) (size 9 to 14) (size 15 to 20)
#    0.000    2.500    2.500    2.625    0.000    1.000 
#    0.000    3.750    0.000    0.000    0.000    0.875 
#    0.000    0.000    0.000    0.000    0.000    0.000 
#
# Total GULP energy -356799.333443 kJ/mol
# GULP energy per Si atom -5574.989585 kJ/mol
# Density = 1.695353 g / cm^3
# Si number density = 16.992208 Si / 1000 Ang^3
#
#
#
# Elastic Constant Matrix: (Units=GPa)
#
#
# Indices 1 2 3 4 5 6 
#
# 1 144.2156 1.3457 40.2271 0.0000 0.0000 0.0000
# 2 1.3457 10.1722 -11.4753 0.0000 0.0000 0.0000
# 3 40.2271 -11.4753 47.8023 0.0000 0.0000 0.0000
# 4 0.0000 0.0000 0.0000 19.1058 0.0000 0.0000
# 5 0.0000 0.0000 0.0000 0.0000 19.0994 0.0000
# 6 0.0000 0.0000 0.0000 0.0000 0.0000 10.1125
#
#
#
# Elastic Compliance Matrix: (Units=1/GPa)
#
#
# Indices 1 2 3 4 5 6 
#
# 1 0.010633 -0.015773 -0.012735 0.000000 0.000000 0.000000
# 2 -0.015773 0.158212 0.051253 0.000000 0.000000 0.000000
# 3 -0.012735 0.051253 0.043940 0.000000 0.000000 0.000000
# 4 0.000000 0.000000 0.000000 0.052340 0.000000 0.000000
# 5 0.000000 0.000000 0.000000 0.000000 0.052358 0.000000
# 6 0.000000 0.000000 0.000000 0.000000 0.000000 0.098888
#
#
# Mechanical properties :
#
#
# Convention : Reuss Voigt Hill
#
# Bulk Modulus (GPa) = 3.87182 29.15392 16.51287
# Shear Modulus (GPa) = 10.94161 21.13639 16.03900
#
# Velocity S-wave (km/s) = 2.54031 3.53070 3.07563
# Velocity P-wave (km/s) = 3.29966 5.81512 4.72776
#
# Compressibility (1/GPa) = 0.25827638
#
# Stress axis : x y z
#
# Youngs Moduli (GPa) = 94.04311 6.32064 22.75841
#
# Poissons Ratio (x) = 0.09969 0.28982
# Poissons Ratio (y) = 1.48331 -1.16644
# Poissons Ratio (z) = 1.19761 -0.32395
#
# Static dielectric constant tensor:
#      x y z
#    x 1.623690 0.000000 0.000000 
#    y 0.000000 1.607700 0.000000 
#    z 0.000000 0.000000 1.536230 
# 
# From -- ./inp_files/27877.got.cif
#   From: 2010.05.17/outbox.cif.g08.bks.cpg/sg62_14_cif.got.tgz:27877.got - 2010.06.03 15:25:27.
