data_PCOD9461413
_publ_section_title
;
Structure prediction by ZEFSAII (Michael W. Deem and Ramdas Pophale) SiO2 
 PCOD9461413
Probable space group: P N M A
;
_chemical_formula_sum "Si O2"
_cell_formula_units_Z 48
_cell_length_a 11.447673
_cell_length_b 7.778556
_cell_length_c 29.701872
_cell_angle_alpha 90.000000
_cell_angle_beta 90.000000
_cell_angle_gamma 90.000000
_cell_volume 2644.843750
_symmetry_space_group_name_H-M "P N M A"
_symmetry_group_IT_number 62
_symmetry_cell_setting 'orthorhombic'
loop_
_space_group_symop_operation_xyz
x,y,z
1/2-x,-y,1/2+z
1/2+x,1/2-y,1/2-z
-x,1/2+y,-z
-x,-y,-z
1/2+x,y,1/2-z
1/2-x,1/2+y,1/2+z
x,1/2-y,z
loop_
_atom_site_type_symbol
_atom_site_label
_atom_site_fract_x
_atom_site_fract_y
_atom_site_fract_z
Si Si1 0.361939 0.750000 0.225331
Si Si2 0.967253 0.052015 0.576429
Si Si3 0.617215 0.561083 0.843299
Si Si4 0.884247 0.951077 0.861848
Si Si5 0.664799 0.539659 0.994341
Si Si6 0.585994 0.044145 0.459953
Si Si7 0.410762 0.250000 0.710510
O O1 0.384036 0.584702 0.193950
O O2 0.219428 0.750000 0.235290
O O3 0.467685 0.750000 0.261576
O O4 0.948712 0.250000 0.589055
O O5 0.858780 0.989301 0.546278
O O6 0.014587 0.957637 0.620253
O O7 0.069511 0.037919 0.539182
O O8 0.613002 0.750000 0.822551
O O9 0.742924 0.545351 0.868135
O O10 0.914673 0.750000 0.852733
O O11 0.939738 0.013268 0.908993
O O12 0.910519 0.081004 0.821426
O O13 0.655556 0.750000 0.992279
O O14 0.788492 0.481650 0.976316
O O15 0.593346 0.250000 0.456231
O O16 0.500000 0.000000 0.500000
#
# Coordination Sequence:
#
# PCOD9461413 Si02
#       7
#     4   8   8   8   8   8   4
#     4  10  22  40  60  94 108 146 190 240 290 355
#     4  10  17  27  48  76 105 139 179 221 269 325
#     4  10  18  33  58  82 112 143 183 232 280 336
#     4   9  19  35  57  82 108 147 188 228 274 337
#     4   9  18  30  44  69 107 144 177 222 270 309
#     4  10  20  33  49  73 107 145 191 229 262 318
#     4  10  22  40  66  84 116 142 190 238 296 343
#
# _framework density 18.148520000000001
#
# number of rings (size 3 to 8) (size 9 to 14) (size 15 to 20)
#    0.000    2.333    2.500    0.500    1.167    2.000 
#    0.000    1.667    0.000    2.000    0.000    0.000 
#    0.000    0.000    0.000    0.000    0.000    0.000 
#
# Total GULP energy -267277.831116 kJ/mol
# GULP energy per Si atom -5568.288148 kJ/mol
# Density = 1.810721 g / cm^3
# Si number density = 18.148520 Si / 1000 Ang^3
#
#
#
# Elastic Constant Matrix: (Units=GPa)
#
#
# Indices 1 2 3 4 5 6 
#
# 1 57.4337 15.4986 45.7698 0.0000 0.0000 0.0000
# 2 15.4986 78.0021 35.8213 0.0000 0.0000 0.0000
# 3 45.7698 35.8213 79.9861 0.0000 0.0000 0.0000
# 4 0.0000 0.0000 0.0000 10.5765 0.0000 0.0000
# 5 0.0000 0.0000 0.0000 0.0000 33.6565 0.0000
# 6 0.0000 0.0000 0.0000 0.0000 0.0000 17.1338
#
#
#
# Elastic Compliance Matrix: (Units=1/GPa)
#
#
# Indices 1 2 3 4 5 6 
#
# 1 0.032426 0.002616 -0.019726 0.000000 0.000000 0.000000
# 2 0.002616 0.016351 -0.008820 0.000000 0.000000 0.000000
# 3 -0.019726 -0.008820 0.027740 0.000000 0.000000 0.000000
# 4 0.000000 0.000000 0.000000 0.094549 0.000000 0.000000
# 5 0.000000 0.000000 0.000000 0.000000 0.029712 0.000000
# 6 0.000000 0.000000 0.000000 0.000000 0.000000 0.058364
#
#
# Mechanical properties :
#
#
# Convention : Reuss Voigt Hill
#
# Bulk Modulus (GPa) = 40.55696 45.51125 43.03411
# Shear Modulus (GPa) = 15.66322 20.16218 17.91270
#
# Velocity S-wave (km/s) = 2.94097 3.33671 3.14507
# Velocity P-wave (km/s) = 5.82479 6.32269 6.07884
#
# Compressibility (1/GPa) = 0.02465668
#
# Stress axis : x y z
#
# Youngs Moduli (GPa) = 30.83986 61.15977 36.04934
#
# Poissons Ratio (x) = -0.16001 0.71112
# Poissons Ratio (y) = -0.08068 0.31794
# Poissons Ratio (z) = 0.60836 0.53940
#
# Static dielectric constant tensor:
#      x y z
#    x 1.655350 0.000000 0.000000 
#    y 0.000000 1.629520 0.000000 
#    z 0.000000 0.000000 1.634480 
# 
# From -- ./inp_files/29324.got.cif
#   From: 2010.05.17/outbox.cif.g08.bks.cpg/sg62_15_cif.got.tgz:29324.got - 2010.06.03 15:25:27.
