data_PCOD9461423
_publ_section_title
;
Structure prediction by ZEFSAII (Michael W. Deem and Ramdas Pophale) SiO2 
 PCOD9461423
Probable space group: P N M A
;
_chemical_formula_sum "Si O2"
_cell_formula_units_Z 56
_cell_length_a 31.108532
_cell_length_b 22.913948
_cell_length_c 5.099536
_cell_angle_alpha 90.000000
_cell_angle_beta 90.000000
_cell_angle_gamma 90.000000
_cell_volume 3635.047603
_symmetry_space_group_name_H-M "P N M A"
_symmetry_group_IT_number 62
_symmetry_cell_setting 'orthorhombic'
loop_
_space_group_symop_operation_xyz
x,y,z
1/2-x,-y,1/2+z
1/2+x,1/2-y,1/2-z
-x,1/2+y,-z
-x,-y,-z
1/2+x,y,1/2-z
1/2-x,1/2+y,1/2+z
x,1/2-y,z
loop_
_atom_site_type_symbol
_atom_site_label
_atom_site_fract_x
_atom_site_fract_y
_atom_site_fract_z
Si Si1 0.172182 0.919345 0.294935
Si Si2 0.759523 0.963326 0.308546
Si Si3 0.949913 0.318558 0.334886
Si Si4 0.651960 0.996679 0.704590
Si Si5 0.945661 0.969866 0.274203
Si Si6 0.892523 0.318695 0.834858
Si Si7 0.490877 0.922767 0.719984
O O1 0.223792 0.915243 0.259007
O O2 0.160635 0.946387 0.577420
O O3 0.146907 0.860406 0.234091
O O4 0.157155 0.966997 0.078925
O O5 0.753595 0.984074 0.607976
O O6 0.809816 0.956399 0.249813
O O7 0.960336 0.250000 0.313376
O O8 0.929548 0.329967 0.619181
O O9 0.990165 0.359656 0.280592
O O10 0.913147 0.331163 0.117987
O O11 0.604869 0.022498 0.739734
O O12 0.958619 0.946207 0.558280
O O13 0.967582 0.928620 0.057595
O O14 0.968656 0.032588 0.230417
O O15 0.881411 0.250000 0.820851
#
# Coordination Sequence:
#
# PCOD9461423 Si02
#       7
#     8   8   8   8   8   8   8
#     4  10  17  28  45  63  89 117 139 174 214 254
#     4   8  16  27  41  62  85 110 140 166 198 250
#     4  10  20  33  47  63  87 117 148 181 212 254
#     4  10  18  29  44  64  88 116 145 172 214 259
#     4  10  19  28  43  63  89 114 138 177 216 259
#     4  10  19  29  44  66  87 112 145 174 210 257
#     4  10  19  30  42  63  86 112 145 174 216 257
#
# _framework density 15.405575000000001
#
# number of rings (size 3 to 8) (size 9 to 14) (size 15 to 20)
#    0.000    2.286    0.000    4.286    0.000    2.286 
#    0.000    0.000    0.000    0.000    0.000    2.000 
#    0.000    0.000    0.000    0.000    0.000    0.000 
#
# Total GULP energy -312215.465177 kJ/mol
# GULP energy per Si atom -5575.276164 kJ/mol
# Density = 1.537051 g / cm^3
# Si number density = 15.405575 Si / 1000 Ang^3
#
#
#
# Elastic Constant Matrix: (Units=GPa)
#
#
# Indices 1 2 3 4 5 6 
#
# 1 95.6434 25.0099 -11.0310 0.0000 0.0000 0.0000
# 2 25.0099 27.5842 -12.7987 0.0000 0.0000 0.0000
# 3 -11.0310 -12.7987 40.2590 0.0000 0.0000 0.0000
# 4 0.0000 0.0000 0.0000 11.8359 0.0000 0.0000
# 5 0.0000 0.0000 0.0000 0.0000 11.7189 0.0000
# 6 0.0000 0.0000 0.0000 0.0000 0.0000 22.9393
#
#
#
# Elastic Compliance Matrix: (Units=1/GPa)
#
#
# Indices 1 2 3 4 5 6 
#
# 1 0.013706 -0.012534 -0.000229 0.000000 0.000000 0.000000
# 2 -0.012534 0.053986 0.013728 0.000000 0.000000 0.000000
# 3 -0.000229 0.013728 0.029141 0.000000 0.000000 0.000000
# 4 0.000000 0.000000 0.000000 0.084489 0.000000 0.000000
# 5 0.000000 0.000000 0.000000 0.000000 0.085332 0.000000
# 6 0.000000 0.000000 0.000000 0.000000 0.000000 0.043593
#
#
# Mechanical properties :
#
#
# Convention : Reuss Voigt Hill
#
# Bulk Modulus (GPa) = 10.12500 18.42746 14.27623
# Shear Modulus (GPa) = 14.65257 20.11927 17.38592
#
# Velocity S-wave (km/s) = 3.08737 3.61775 3.36303
# Velocity P-wave (km/s) = 4.39269 5.42571 4.93629
#
# Compressibility (1/GPa) = 0.09876547
#
# Stress axis : x y z
#
# Youngs Moduli (GPa) = 72.95809 18.52325 34.31617
#
# Poissons Ratio (x) = 0.23216 0.00786
# Poissons Ratio (y) = 0.91442 -0.47111
# Poissons Ratio (z) = 0.01670 -0.25430
#
# Static dielectric constant tensor:
#      x y z
#    x 1.519900 0.000000 0.000000 
#    y 0.000000 1.490010 0.000000 
#    z 0.000000 0.000000 1.526330 
# 
# From -- ./inp_files/3303.got.cif
#   From: 2010.05.17/outbox.cif.g08.bks.cpg/sg62_2_cif.got.tgz:3303.got - 2010.06.03 15:25:27.
