data_PCOD9461089
_publ_section_title
;
Structure prediction by ZEFSAII (Michael W. Deem and Ramdas Pophale) SiO2 
 PCOD9461089
Probable space group: P B C A
;
_chemical_formula_sum "Si O2"
_cell_formula_units_Z 48
_cell_length_a 13.754174
_cell_length_b 13.389109
_cell_length_c 11.639985
_cell_angle_alpha 90.000000
_cell_angle_beta 90.000000
_cell_angle_gamma 90.000000
_cell_volume 2143.574648
_symmetry_space_group_name_H-M "P B C A"
_symmetry_group_IT_number 61
_symmetry_cell_setting 'orthorhombic'
loop_
_space_group_symop_operation_xyz
x,y,z
1/2-x,-y,1/2+z
1/2+x,1/2-y,-z
-x,1/2+y,1/2-z
-x,-y,-z
1/2+x,y,1/2-z
1/2-x,1/2+y,z
x,1/2-y,1/2+z
loop_
_atom_site_type_symbol
_atom_site_label
_atom_site_fract_x
_atom_site_fract_y
_atom_site_fract_z
Si Si1 0.927494 0.452033 0.092795
Si Si2 0.730352 0.855181 0.926829
Si Si3 0.257276 0.140030 0.535709
Si Si4 0.908335 0.648693 0.779394
Si Si5 0.604317 0.040837 0.536782
Si Si6 0.666181 0.363101 0.707461
O O1 0.837180 0.411682 0.018224
O O2 0.988097 0.368769 0.160305
O O3 0.823246 0.617195 0.868209
O O4 0.000000 0.500000 0.000000
O O5 0.692535 0.741817 0.923920
O O6 0.842108 0.867691 0.971052
O O7 0.794608 0.666072 0.083140
O O8 0.745194 0.886571 0.794734
O O9 0.105413 0.036618 0.316567
O O10 0.326455 0.050008 0.502438
O O11 0.899960 0.578397 0.667619
O O12 0.890813 0.764942 0.749939
O O13 0.500000 0.000000 0.500000
#
# Coordination Sequence:
#
# PCOD9461089 Si02
#       6
#     8   8   8   8   8   8
#     4  12  25  45  77 110 147 189 249 307 377 453
#     4  11  26  46  70 103 143 194 245 301 378 446
#     4  11  25  47  75 103 148 198 243 307 381 447
#     4  11  26  48  76 112 153 192 252 314 377 461
#     4  12  26  45  75 110 148 193 257 311 377 454
#     4  11  24  48  75 100 155 195 240 308 380 447
#
# _framework density 22.392503000000001
#
# number of rings (size 3 to 8) (size 9 to 14) (size 15 to 20)
#    0.000    0.667    5.000    1.000    4.667    6.667 
#    0.000    0.000    0.000    0.000    0.000    0.000 
#    0.000    0.000    0.000    0.000    0.000    0.000 
#
# Total GULP energy -268140.259825 kJ/mol
# GULP energy per Si atom -5586.255413 kJ/mol
# Density = 2.234154 g / cm^3
# Si number density = 22.392503 Si / 1000 Ang^3
#
#
#
# Elastic Constant Matrix: (Units=GPa)
#
#
# Indices 1 2 3 4 5 6 
#
# 1 105.4796 66.6043 61.3220 0.0000 0.0000 0.0000
# 2 66.6043 137.6124 59.5936 0.0000 0.0000 0.0000
# 3 61.3220 59.5936 163.4569 0.0000 0.0000 0.0000
# 4 0.0000 0.0000 0.0000 45.7049 0.0000 0.0000
# 5 0.0000 0.0000 0.0000 0.0000 43.4229 0.0000
# 6 0.0000 0.0000 0.0000 0.0000 0.0000 26.6930
#
#
#
# Elastic Compliance Matrix: (Units=1/GPa)
#
#
# Indices 1 2 3 4 5 6 
#
# 1 0.015249 -0.005822 -0.003598 0.000000 0.000000 0.000000
# 2 -0.005822 0.010852 -0.001772 0.000000 0.000000 0.000000
# 3 -0.003598 -0.001772 0.008114 0.000000 0.000000 0.000000
# 4 0.000000 0.000000 0.000000 0.021879 0.000000 0.000000
# 5 0.000000 0.000000 0.000000 0.000000 0.023029 0.000000
# 6 0.000000 0.000000 0.000000 0.000000 0.000000 0.037463
#
#
# Mechanical properties :
#
#
# Convention : Reuss Voigt Hill
#
# Bulk Modulus (GPa) = 84.53297 86.84320 85.68809
# Shear Modulus (GPa) = 34.98595 37.76610 36.37602
#
# Velocity S-wave (km/s) = 3.95700 4.11122 4.03485
# Velocity P-wave (km/s) = 7.66222 7.83598 7.74959
#
# Compressibility (1/GPa) = 0.01182970
#
# Stress axis : x y z
#
# Youngs Moduli (GPa) = 65.57972 92.14695 123.24732
#
# Poissons Ratio (x) = 0.53650 0.44344
# Poissons Ratio (y) = 0.38182 0.21843
# Poissons Ratio (z) = 0.23595 0.16331
#
# Static dielectric constant tensor:
#      x y z
#    x 1.825260 0.000000 0.000000 
#    y 0.000000 1.896640 0.000000 
#    z 0.000000 0.000000 1.846250 
# 
# From -- ./inp_files/5741.got.cif
#   From: 2010.05.17/outbox.cif.g08.bks.cpg/sg61_3_cif.got.tgz:5741.got - 2010.06.03 15:17:17.
