data_PCOD9461880
_publ_section_title
;
Structure prediction by ZEFSAII (Michael W. Deem and Ramdas Pophale) SiO2 
 PCOD9461880
Probable space group: P N M A
;
_chemical_formula_sum "Si O2"
_cell_formula_units_Z 48
_cell_length_a 19.029648
_cell_length_b 8.590240
_cell_length_c 16.804168
_cell_angle_alpha 90.000000
_cell_angle_beta 90.000000
_cell_angle_gamma 90.000000
_cell_volume 2746.964630
_symmetry_space_group_name_H-M "P N M A"
_symmetry_group_IT_number 62
_symmetry_cell_setting 'orthorhombic'
loop_
_space_group_symop_operation_xyz
x,y,z
1/2-x,-y,1/2+z
1/2+x,1/2-y,1/2-z
-x,1/2+y,-z
-x,-y,-z
1/2+x,y,1/2-z
1/2-x,1/2+y,1/2+z
x,1/2-y,z
loop_
_atom_site_type_symbol
_atom_site_label
_atom_site_fract_x
_atom_site_fract_y
_atom_site_fract_z
Si Si1 0.409362 0.936916 0.830288
Si Si2 0.913080 0.065127 0.838819
Si Si3 0.040668 0.562703 0.577155
Si Si4 0.459511 0.435708 0.422160
Si Si5 0.167240 0.063125 0.006821
Si Si6 0.828711 0.061506 0.514868
O O1 0.406636 0.750000 0.823982
O O2 0.490271 0.986332 0.850617
O O3 0.387068 0.012308 0.747441
O O4 0.362080 0.990788 0.904896
O O5 0.914781 0.250000 0.846102
O O6 0.865367 0.997796 0.910227
O O7 0.992053 0.998548 0.851408
O O8 0.039155 0.750000 0.577113
O O9 0.121014 0.515881 0.559823
O O10 0.000000 0.500000 0.500000
O O11 0.500000 0.500000 0.500000
O O12 0.460028 0.250000 0.422150
O O13 0.381022 0.497685 0.435262
O O14 0.162322 0.250000 0.006745
O O15 0.248179 0.015813 0.997537
O O16 0.831255 0.250000 0.521818
#
# Coordination Sequence:
#
# PCOD9461880 Si02
#       6
#     8   8   8   8   8   8
#     4  10  19  32  52  76 102 132 169 212 255 299
#     4  11  21  34  52  73 100 133 171 214 258 302
#     4   8  15  29  49  72  96 125 161 198 238 288
#     4  10  18  31  51  73  97 126 164 205 246 297
#     4  10  19  33  53  76 103 134 168 206 252 307
#     4   9  18  33  53  76 103 134 166 203 250 305
#
# _framework density 17.473831000000001
#
# number of rings (size 3 to 8) (size 9 to 14) (size 15 to 20)
#    0.000    2.333    0.000    6.000    0.000    2.000 
#    0.000    1.667    0.000    6.000    0.000    0.000 
#    0.000    0.000    0.000    0.000    0.000    0.000 
#
# Total GULP energy -267368.838921 kJ/mol
# GULP energy per Si atom -5570.184144 kJ/mol
# Density = 1.743406 g / cm^3
# Si number density = 17.473831 Si / 1000 Ang^3
#
#
#
# Elastic Constant Matrix: (Units=GPa)
#
#
# Indices 1 2 3 4 5 6 
#
# 1 143.1646 40.0412 35.9396 0.0000 0.0000 0.0000
# 2 40.0412 77.4953 23.5495 0.0000 0.0000 0.0000
# 3 35.9396 23.5495 74.2429 0.0000 0.0000 0.0000
# 4 0.0000 0.0000 0.0000 18.0245 0.0000 0.0000
# 5 0.0000 0.0000 0.0000 0.0000 18.9706 0.0000
# 6 0.0000 0.0000 0.0000 0.0000 0.0000 23.1413
#
#
#
# Elastic Compliance Matrix: (Units=1/GPa)
#
#
# Indices 1 2 3 4 5 6 
#
# 1 0.008768 -0.003586 -0.003107 0.000000 0.000000 0.000000
# 2 -0.003586 0.015747 -0.003259 0.000000 0.000000 0.000000
# 3 -0.003107 -0.003259 0.016007 0.000000 0.000000 0.000000
# 4 0.000000 0.000000 0.000000 0.055480 0.000000 0.000000
# 5 0.000000 0.000000 0.000000 0.000000 0.052713 0.000000
# 6 0.000000 0.000000 0.000000 0.000000 0.000000 0.043213
#
#
# Mechanical properties :
#
#
# Convention : Reuss Voigt Hill
#
# Bulk Modulus (GPa) = 48.50084 54.88481 51.69282
# Shear Modulus (GPa) = 22.86185 25.05211 23.95698
#
# Velocity S-wave (km/s) = 3.62103 3.79052 3.70675
# Velocity P-wave (km/s) = 6.73046 7.11585 6.92583
#
# Compressibility (1/GPa) = 0.02061820
#
# Stress axis : x y z
#
# Youngs Moduli (GPa) = 114.05229 63.50298 62.47267
#
# Poissons Ratio (x) = 0.22773 0.19409
# Poissons Ratio (y) = 0.40901 0.20360
# Poissons Ratio (z) = 0.35434 0.20695
#
# Static dielectric constant tensor:
#      x y z
#    x 1.633570 0.000000 0.000000 
#    y 0.000000 1.583990 0.000000 
#    z 0.000000 0.000000 1.590270 
# 
# From -- ./inp_files/20039.got.cif
#   From: 2010.05.17/outbox.cif.g08.bks.cpg/sg62_11_cif.got.tgz:20039.got - 2010.06.03 15:25:27.
