data_PCOD9461966
_publ_section_title
;
Structure prediction by ZEFSAII (Michael W. Deem and Ramdas Pophale) SiO2 
 PCOD9461966
Probable space group: P N M A
;
_chemical_formula_sum "Si O2"
_cell_formula_units_Z 64
_cell_length_a 31.299000
_cell_length_b 8.333867
_cell_length_c 15.083500
_cell_angle_alpha 90.000000
_cell_angle_beta 90.000000
_cell_angle_gamma 90.000000
_cell_volume 3934.405831
_symmetry_space_group_name_H-M "P N M A"
_symmetry_group_IT_number 62
_symmetry_cell_setting 'orthorhombic'
loop_
_space_group_symop_operation_xyz
x,y,z
1/2-x,-y,1/2+z
1/2+x,1/2-y,1/2-z
-x,1/2+y,-z
-x,-y,-z
1/2+x,y,1/2-z
1/2-x,1/2+y,1/2+z
x,1/2-y,z
loop_
_atom_site_type_symbol
_atom_site_label
_atom_site_fract_x
_atom_site_fract_y
_atom_site_fract_z
Si Si1 0.292340 0.943417 0.303645
Si Si2 0.868357 0.943998 0.322846
Si Si3 0.725661 0.556090 0.502467
Si Si4 0.293133 0.056622 0.695792
Si Si5 0.631517 0.441776 0.183404
Si Si6 0.451732 0.441405 0.897186
Si Si7 0.175845 0.445172 0.496068
Si Si8 0.047119 0.941875 0.600377
O O1 0.291220 0.750000 0.298773
O O2 0.335392 0.997319 0.253095
O O3 0.248689 0.000056 0.252802
O O4 0.293680 0.993954 0.405925
O O5 0.869427 0.750000 0.321138
O O6 0.846864 0.998765 0.414869
O O7 0.916688 0.004205 0.330756
O O8 0.723653 0.750000 0.504136
O O9 0.708506 0.502022 0.406648
O O10 0.775170 0.506288 0.504611
O O11 0.290418 0.250000 0.695263
O O12 0.337563 0.006861 0.740530
O O13 0.633705 0.250000 0.185987
O O14 0.582395 0.492066 0.172823
O O15 0.652634 0.502582 0.091762
O O16 0.448729 0.250000 0.897451
O O17 0.500188 0.492692 0.877805
O O18 0.442545 0.499702 0.998963
O O19 0.174779 0.250000 0.496033
O O20 0.045470 0.750000 0.597769
#
# Coordination Sequence:
#
# PCOD9461966 Si02
#       8
#     8   8   8   8   8   8   8   8
#     4  10  20  32  49  72  98 130 170 211 248 291
#     4  10  18  32  50  69  98 136 169 201 249 299
#     4  10  19  34  50  67  97 136 172 208 250 293
#     4  10  20  33  49  70  99 134 170 207 249 297
#     4  11  20  31  50  73  99 132 170 209 247 292
#     4  10  20  33  49  71 101 133 164 200 247 300
#     4   9  16  27  46  69  95 130 168 201 241 289
#     4  10  20  32  48  73 101 129 165 206 245 291
#
# _framework density 16.266750999999999
#
# number of rings (size 3 to 8) (size 9 to 14) (size 15 to 20)
#    0.000    2.000    3.750    1.125    0.000    2.000 
#    0.000    0.625    0.000    0.000    0.000    0.875 
#    0.000    0.000    0.000    0.000    0.000    0.000 
#
# Total GULP energy -356804.803707 kJ/mol
# GULP energy per Si atom -5575.075058 kJ/mol
# Density = 1.622973 g / cm^3
# Si number density = 16.266751 Si / 1000 Ang^3
#
#
#
# Elastic Constant Matrix: (Units=GPa)
#
#
# Indices 1 2 3 4 5 6 
#
# 1 119.0504 11.2234 64.7185 0.0000 0.0000 0.0000
# 2 11.2234 15.7868 14.7552 0.0000 0.0000 0.0000
# 3 64.7185 14.7552 112.9571 0.0000 0.0000 0.0000
# 4 0.0000 0.0000 0.0000 21.5758 0.0000 0.0000
# 5 0.0000 0.0000 0.0000 0.0000 22.0915 0.0000
# 6 0.0000 0.0000 0.0000 0.0000 0.0000 19.5624
#
#
#
# Elastic Compliance Matrix: (Units=1/GPa)
#
#
# Indices 1 2 3 4 5 6 
#
# 1 0.012282 -0.002454 -0.006717 0.000000 0.000000 0.000000
# 2 -0.002454 0.072644 -0.008083 0.000000 0.000000 0.000000
# 3 -0.006717 -0.008083 0.013757 0.000000 0.000000 0.000000
# 4 0.000000 0.000000 0.000000 0.046348 0.000000 0.000000
# 5 0.000000 0.000000 0.000000 0.000000 0.045266 0.000000
# 6 0.000000 0.000000 0.000000 0.000000 0.000000 0.051118
#
#
# Mechanical properties :
#
#
# Convention : Reuss Voigt Hill
#
# Bulk Modulus (GPa) = 15.58227 47.68760 31.63493
# Shear Modulus (GPa) = 16.81712 23.11909 19.96810
#
# Velocity S-wave (km/s) = 3.21882 3.77403 3.50743
# Velocity P-wave (km/s) = 4.83884 6.95491 5.99104
#
# Compressibility (1/GPa) = 0.06417551
#
# Stress axis : x y z
#
# Youngs Moduli (GPa) = 81.41666 13.76578 72.69000
#
# Poissons Ratio (x) = 0.03379 0.48823
# Poissons Ratio (y) = 0.19983 0.58755
# Poissons Ratio (z) = 0.54685 0.11127
#
# Static dielectric constant tensor:
#      x y z
#    x 1.553190 0.000000 0.000000 
#    y 0.000000 1.564940 0.000000 
#    z 0.000000 0.000000 1.549050 
# 
# From -- ./inp_files/21220.got.cif
#   From: 2010.05.17/outbox.cif.g08.bks.cpg/sg62_11_cif.got.tgz:21220.got - 2010.06.03 15:25:27.
