data_PCOD9461009
_publ_section_title
;
Structure prediction by ZEFSAII (Michael W. Deem and Ramdas Pophale) SiO2 
 PCOD9461009
Probable space group: P B C A
;
_chemical_formula_sum "Si O2"
_cell_formula_units_Z 48
_cell_length_a 17.207361
_cell_length_b 13.288114
_cell_length_c 9.796242
_cell_angle_alpha 90.000000
_cell_angle_beta 90.000000
_cell_angle_gamma 90.000000
_cell_volume 2239.943792
_symmetry_space_group_name_H-M "P B C A"
_symmetry_group_IT_number 61
_symmetry_cell_setting 'orthorhombic'
loop_
_space_group_symop_operation_xyz
x,y,z
1/2-x,-y,1/2+z
1/2+x,1/2-y,-z
-x,1/2+y,1/2-z
-x,-y,-z
1/2+x,y,1/2-z
1/2-x,1/2+y,z
x,1/2-y,1/2+z
loop_
_atom_site_type_symbol
_atom_site_label
_atom_site_fract_x
_atom_site_fract_y
_atom_site_fract_z
Si Si1 0.734072 0.625097 0.788952
Si Si2 0.822555 0.820184 0.853273
Si Si3 0.474661 0.756213 0.012178
Si Si4 0.948790 0.350520 0.268510
Si Si5 0.225114 0.975248 0.484660
Si Si6 0.576305 0.449158 0.640566
O O1 0.787819 0.722230 0.781778
O O2 0.644457 0.654348 0.767978
O O3 0.755468 0.547497 0.667961
O O4 0.742624 0.571583 0.935254
O O5 0.753583 0.880105 0.927820
O O6 0.866957 0.892406 0.747441
O O7 0.887638 0.782207 0.959400
O O8 0.518639 0.678576 0.915386
O O9 0.471386 0.863426 0.935153
O O10 0.515293 0.775429 0.156891
O O11 0.968914 0.464292 0.221762
O O12 0.133367 0.994426 0.466425
#
# Coordination Sequence:
#
# PCOD9461009 Si02
#       6
#     8   8   8   8   8   8
#     4  11  26  45  73 108 142 184 243 301 357 422
#     4  12  24  46  76 103 141 190 243 289 359 425
#     4  12  25  48  73 102 146 193 229 295 361 433
#     4  11  27  46  69 107 146 184 237 294 361 427
#     4  11  23  45  73 104 139 181 244 302 343 421
#     4  11  24  48  68 106 141 186 244 286 360 423
#
# _framework density 21.429110000000001
#
# number of rings (size 3 to 8) (size 9 to 14) (size 15 to 20)
#    0.000    0.667    6.667    1.500    4.667    0.667 
#    0.000    0.000    0.000    0.000    0.000    0.000 
#    0.000    0.000    0.000    0.000    0.000    0.000 
#
# Total GULP energy -268384.149125 kJ/mol
# GULP energy per Si atom -5591.336440 kJ/mol
# Density = 2.138034 g / cm^3
# Si number density = 21.429110 Si / 1000 Ang^3
#
#
#
# Elastic Constant Matrix: (Units=GPa)
#
#
# Indices 1 2 3 4 5 6 
#
# 1 25.3749 20.3444 12.6639 0.0000 0.0000 0.0000
# 2 20.3444 86.4998 26.0103 0.0000 0.0000 0.0000
# 3 12.6639 26.0103 59.2129 0.0000 0.0000 0.0000
# 4 0.0000 0.0000 0.0000 18.9985 0.0000 0.0000
# 5 0.0000 0.0000 0.0000 0.0000 34.5435 0.0000
# 6 0.0000 0.0000 0.0000 0.0000 0.0000 34.4250
#
#
#
# Elastic Compliance Matrix: (Units=1/GPa)
#
#
# Indices 1 2 3 4 5 6 
#
# 1 0.050617 -0.009966 -0.006448 0.000000 0.000000 0.000000
# 2 -0.009966 0.015282 -0.004582 0.000000 0.000000 0.000000
# 3 -0.006448 -0.004582 0.020280 0.000000 0.000000 0.000000
# 4 0.000000 0.000000 0.000000 0.052636 0.000000 0.000000
# 5 0.000000 0.000000 0.000000 0.000000 0.028949 0.000000
# 6 0.000000 0.000000 0.000000 0.000000 0.000000 0.029049
#
#
# Mechanical properties :
#
#
# Convention : Reuss Voigt Hill
#
# Bulk Modulus (GPa) = 22.63039 32.12501 27.37770
# Shear Modulus (GPa) = 19.72128 25.06466 22.39297
#
# Velocity S-wave (km/s) = 3.03694 3.42373 3.23612
# Velocity P-wave (km/s) = 4.78339 5.53652 5.17368
#
# Compressibility (1/GPa) = 0.04418838
#
# Stress axis : x y z
#
# Youngs Moduli (GPa) = 19.75611 65.43476 49.31026
#
# Poissons Ratio (x) = 0.65213 0.31794
# Poissons Ratio (y) = 0.19689 0.22592
# Poissons Ratio (z) = 0.12738 0.29980
#
# Static dielectric constant tensor:
#      x y z
#    x 1.748600 0.000000 0.000000 
#    y 0.000000 1.781570 0.000000 
#    z 0.000000 0.000000 1.783130 
# 
# From -- ./inp_files/3453.got.cif
#   From: 2010.05.17/outbox.cif.g08.bks.cpg/sg61_2_cif.got.tgz:3453.got - 2010.06.03 15:17:17.
