data_PCOD9461235
_publ_section_title
;
Structure prediction by ZEFSAII (Michael W. Deem and Ramdas Pophale) SiO2 
 PCOD9461235
Probable space group: P B C A
;
_chemical_formula_sum "Si O2"
_cell_formula_units_Z 28
_cell_length_a 14.341534
_cell_length_b 7.520374
_cell_length_c 9.067143
_cell_angle_alpha 90.000000
_cell_angle_beta 90.000000
_cell_angle_gamma 90.000000
_cell_volume 977.924916
_symmetry_space_group_name_H-M "P B C A"
_symmetry_group_IT_number 61
_symmetry_cell_setting 'orthorhombic'
loop_
_space_group_symop_operation_xyz
x,y,z
1/2-x,-y,1/2+z
1/2+x,1/2-y,-z
-x,1/2+y,1/2-z
-x,-y,-z
1/2+x,y,1/2-z
1/2-x,1/2+y,z
x,1/2-y,1/2+z
loop_
_atom_site_type_symbol
_atom_site_label
_atom_site_fract_x
_atom_site_fract_y
_atom_site_fract_z
Si Si1 0.341609 0.551503 0.713432
Si Si2 0.500000 0.000000 0.500000
Si Si3 0.699787 0.372228 0.598094
Si Si4 0.957931 0.139470 0.685611
O O1 0.350197 0.692340 0.849461
O O2 0.281954 0.624302 0.575356
O O3 0.287715 0.395021 0.794455
O O4 0.444315 0.539518 0.647688
O O5 0.477934 0.167998 0.384981
O O6 0.453069 0.115270 0.637416
O O7 0.633376 0.538749 0.629186
#
# Coordination Sequence:
#
# PCOD9461235 Si02
#       4
#     8   4   8   8
#     4  12  28  52  79 125 166 225 283 355 426 515
#     4  12  30  50  90 122 166 226 282 354 428 498
#     4  12  29  50  85 119 174 223 286 354 432 507
#     4  12  29  54  86 122 170 223 288 355 422 520
#
# _framework density 28.632054
#
# number of rings (size 3 to 8) (size 9 to 14) (size 15 to 20)
#    0.000    0.000    2.857    4.286   12.000    0.000 
#    0.000    0.000    0.000    0.000    0.000    0.000 
#    0.000    0.000    0.000    0.000    0.000    0.000 
#
# Total GULP energy -155953.446553 kJ/mol
# GULP energy per Si atom -5569.765948 kJ/mol
# Density = 2.856689 g / cm^3
# Si number density = 28.632054 Si / 1000 Ang^3
#
#
#
# Elastic Constant Matrix: (Units=GPa)
#
#
# Indices 1 2 3 4 5 6 
#
# 1 117.9174 6.5283 -7.2141 0.0000 0.0000 0.0000
# 2 6.5283 110.9630 3.6518 0.0000 0.0000 0.0000
# 3 -7.2141 3.6518 223.0734 0.0000 0.0000 0.0000
# 4 0.0000 0.0000 0.0000 59.6916 0.0000 0.0000
# 5 0.0000 0.0000 0.0000 0.0000 28.3344 0.0000
# 6 0.0000 0.0000 0.0000 0.0000 0.0000 28.1304
#
#
#
# Elastic Compliance Matrix: (Units=1/GPa)
#
#
# Indices 1 2 3 4 5 6 
#
# 1 0.008526 -0.000511 0.000284 0.000000 0.000000 0.000000
# 2 -0.000511 0.009047 -0.000165 0.000000 0.000000 0.000000
# 3 0.000284 -0.000165 0.004495 0.000000 0.000000 0.000000
# 4 0.000000 0.000000 0.000000 0.016753 0.000000 0.000000
# 5 0.000000 0.000000 0.000000 0.000000 0.035293 0.000000
# 6 0.000000 0.000000 0.000000 0.000000 0.000000 0.035549
#
#
# Mechanical properties :
#
#
# Convention : Reuss Voigt Hill
#
# Bulk Modulus (GPa) = 46.98062 50.87619 48.92840
# Shear Modulus (GPa) = 42.53839 53.16380 47.85110
#
# Velocity S-wave (km/s) = 3.85865 4.31373 4.09252
# Velocity P-wave (km/s) = 6.02464 6.52829 6.28151
#
# Compressibility (1/GPa) = 0.02128537
#
# Stress axis : x y z
#
# Youngs Moduli (GPa) = 117.28580 110.52783 222.48368
#
# Poissons Ratio (x) = 0.05648 -0.06321
# Poissons Ratio (y) = 0.05993 0.03663
# Poissons Ratio (z) = -0.03332 0.01820
#
# Static dielectric constant tensor:
#      x y z
#    x 2.410840 0.000000 0.000000 
#    y 0.000000 1.837520 0.000000 
#    z 0.000000 0.000000 2.180420 
# 
# From -- ./inp_files/1634.got.cif
#   From: 2010.05.17/outbox.cif.g08.bks.cpg/sg61_1_cif.got.tgz:1634.got - 2010.06.03 15:17:17.
