data_PCOD9461156
_publ_section_title
;
Structure prediction by ZEFSAII (Michael W. Deem and Ramdas Pophale) SiO2 
 PCOD9461156
Probable space group: P B C A
;
_chemical_formula_sum "Si O2"
_cell_formula_units_Z 24
_cell_length_a 13.541222
_cell_length_b 7.665221
_cell_length_c 8.965905
_cell_angle_alpha 90.000000
_cell_angle_beta 90.000000
_cell_angle_gamma 90.000000
_cell_volume 930.629193
_symmetry_space_group_name_H-M "P B C A"
_symmetry_group_IT_number 61
_symmetry_cell_setting 'orthorhombic'
loop_
_space_group_symop_operation_xyz
x,y,z
1/2-x,-y,1/2+z
1/2+x,1/2-y,-z
-x,1/2+y,1/2-z
-x,-y,-z
1/2+x,y,1/2-z
1/2-x,1/2+y,z
x,1/2-y,1/2+z
loop_
_atom_site_type_symbol
_atom_site_label
_atom_site_fract_x
_atom_site_fract_y
_atom_site_fract_z
Si Si1 0.643084 0.069786 0.509211
Si Si2 0.945425 0.634474 0.200927
Si Si3 0.362901 0.166305 0.006870
O O1 0.613857 0.195148 0.644849
O O2 0.567409 0.114696 0.376313
O O3 0.752280 0.113956 0.449237
O O4 0.642299 0.866282 0.541945
O O5 0.055385 0.648220 0.135794
O O6 0.896817 0.465533 0.122918
#
# Coordination Sequence:
#
# PCOD9461156 Si02
#       3
#     8   8   8
#     4  12  27  47  79 103 153 189 245 301 364 437
#     4  11  29  48  74 111 146 194 245 301 366 434
#     4  11  27  47  72 111 147 193 240 300 366 433
#
# _framework density 25.789003999999998
#
# number of rings (size 3 to 8) (size 9 to 14) (size 15 to 20)
#    0.000    0.667    3.333    1.000   14.000    2.667 
#    0.000    0.000    0.000    0.000    0.000    0.000 
#    0.000    0.000    0.000    0.000    0.000    0.000 
#
# Total GULP energy -134957.986939 kJ/mol
# GULP energy per Si atom -5623.249456 kJ/mol
# Density = 2.573031 g / cm^3
# Si number density = 25.789004 Si / 1000 Ang^3
#
#
#
# Elastic Constant Matrix: (Units=GPa)
#
#
# Indices 1 2 3 4 5 6 
#
# 1 180.4138 44.1662 -5.9991 0.0000 0.0000 0.0000
# 2 44.1662 257.6198 39.4719 0.0000 0.0000 0.0000
# 3 -5.9991 39.4719 58.7475 0.0000 0.0000 0.0000
# 4 0.0000 0.0000 0.0000 28.1633 0.0000 0.0000
# 5 0.0000 0.0000 0.0000 0.0000 17.6910 0.0000
# 6 0.0000 0.0000 0.0000 0.0000 0.0000 36.2115
#
#
#
# Elastic Compliance Matrix: (Units=1/GPa)
#
#
# Indices 1 2 3 4 5 6 
#
# 1 0.005891 -0.001229 0.001427 0.000000 0.000000 0.000000
# 2 -0.001229 0.004583 -0.003205 0.000000 0.000000 0.000000
# 3 0.001427 -0.003205 0.019321 0.000000 0.000000 0.000000
# 4 0.000000 0.000000 0.000000 0.035507 0.000000 0.000000
# 5 0.000000 0.000000 0.000000 0.000000 0.056526 0.000000
# 6 0.000000 0.000000 0.000000 0.000000 0.000000 0.027616
#
#
# Mechanical properties :
#
#
# Convention : Reuss Voigt Hill
#
# Bulk Modulus (GPa) = 42.04777 72.45102 57.24939
# Shear Modulus (GPa) = 30.60259 44.35595 37.47927
#
# Velocity S-wave (km/s) = 3.44852 4.15173 3.81636
# Velocity P-wave (km/s) = 5.67418 7.15103 6.45498
#
# Compressibility (1/GPa) = 0.02378248
#
# Stress axis : x y z
#
# Youngs Moduli (GPa) = 169.74950 218.17948 51.75678
#
# Poissons Ratio (x) = 0.26806 -0.07386
# Poissons Ratio (y) = 0.20856 0.16588
# Poissons Ratio (z) = -0.24224 0.69926
#
# Static dielectric constant tensor:
#      x y z
#    x 2.070300 0.000000 0.000000 
#    y 0.000000 1.979590 0.000000 
#    z 0.000000 0.000000 1.961000 
# 
# From -- ./inp_files/1572.got.cif
#   From: 2010.05.17/outbox.cif.g08.bks.cpg/sg61_1_cif.got.tgz:1572.got - 2010.06.03 15:17:17.
