data_PCOD9461846
_publ_section_title
;
Structure prediction by ZEFSAII (Michael W. Deem and Ramdas Pophale) SiO2 
 PCOD9461846
Probable space group: P N M A
;
_chemical_formula_sum "Si O2"
_cell_formula_units_Z 48
_cell_length_a 16.419574
_cell_length_b 20.417301
_cell_length_c 7.840109
_cell_angle_alpha 90.000000
_cell_angle_beta 90.000000
_cell_angle_gamma 90.000000
_cell_volume 2628.344677
_symmetry_space_group_name_H-M "P N M A"
_symmetry_group_IT_number 62
_symmetry_cell_setting 'orthorhombic'
loop_
_space_group_symop_operation_xyz
x,y,z
1/2-x,-y,1/2+z
1/2+x,1/2-y,1/2-z
-x,1/2+y,-z
-x,-y,-z
1/2+x,y,1/2-z
1/2-x,1/2+y,1/2+z
x,1/2-y,z
loop_
_atom_site_type_symbol
_atom_site_label
_atom_site_fract_x
_atom_site_fract_y
_atom_site_fract_z
Si Si1 0.157946 0.397432 0.741721
Si Si2 0.654678 0.964738 0.629425
Si Si3 0.496329 0.062708 0.130686
Si Si4 0.497093 0.173276 0.854333
Si Si5 0.334800 0.532930 0.869350
Si Si6 0.837984 0.393413 0.765609
O O1 0.150327 0.456315 0.876768
O O2 0.160701 0.435782 0.558436
O O3 0.246973 0.364574 0.752789
O O4 0.078787 0.352081 0.740656
O O5 0.579332 0.943203 0.744344
O O6 0.745579 0.950726 0.703040
O O7 0.652660 0.929513 0.447586
O O8 0.584221 0.058708 0.222305
O O9 0.493252 0.129311 0.024532
O O10 0.500000 0.000000 0.000000
O O11 0.502316 0.250000 0.885922
O O12 0.413339 0.154603 0.759123
O O13 0.341274 0.454124 0.867502
#
# Coordination Sequence:
#
# PCOD9461846 Si02
#       6
#     8   8   8   8   8   8
#     4   9  18  34  52  76 108 142 175 217 266 327
#     4  10  18  30  56  83 107 130 174 228 277 299
#     4  11  18  36  56  75 106 143 183 219 256 321
#     4  11  22  36  53  74 107 150 182 215 266 324
#     4   9  17  31  52  81 108 133 171 224 271 307
#     4  10  19  31  53  84 108 132 172 230 273 310
#
# _framework density 18.262445
#
# number of rings (size 3 to 8) (size 9 to 14) (size 15 to 20)
#    0.000    2.000    5.000    0.000    0.000    3.333 
#    0.000    0.833    0.000    4.000    0.000    0.000 
#    0.000    0.000    0.000    0.000    0.000    0.000 
#
# Total GULP energy -267404.111310 kJ/mol
# GULP energy per Si atom -5570.918986 kJ/mol
# Density = 1.822088 g / cm^3
# Si number density = 18.262445 Si / 1000 Ang^3
#
#
#
# Elastic Constant Matrix: (Units=GPa)
#
#
# Indices 1 2 3 4 5 6 
#
# 1 184.2413 60.2688 29.7155 0.0000 0.0000 0.0000
# 2 60.2688 102.9973 17.9612 0.0000 0.0000 0.0000
# 3 29.7155 17.9612 33.3389 0.0000 0.0000 0.0000
# 4 0.0000 0.0000 0.0000 15.5941 0.0000 0.0000
# 5 0.0000 0.0000 0.0000 0.0000 28.4935 0.0000
# 6 0.0000 0.0000 0.0000 0.0000 0.0000 10.0957
#
#
#
# Elastic Compliance Matrix: (Units=1/GPa)
#
#
# Indices 1 2 3 4 5 6 
#
# 1 0.007312 -0.003468 -0.004649 0.000000 0.000000 0.000000
# 2 -0.003468 0.012360 -0.003568 0.000000 0.000000 0.000000
# 3 -0.004649 -0.003568 0.036061 0.000000 0.000000 0.000000
# 4 0.000000 0.000000 0.000000 0.064127 0.000000 0.000000
# 5 0.000000 0.000000 0.000000 0.000000 0.035096 0.000000
# 6 0.000000 0.000000 0.000000 0.000000 0.000000 0.099052
#
#
# Mechanical properties :
#
#
# Convention : Reuss Voigt Hill
#
# Bulk Modulus (GPa) = 30.89908 59.60762 45.25335
# Shear Modulus (GPa) = 17.35113 25.01212 21.18163
#
# Velocity S-wave (km/s) = 3.08571 3.70482 3.40935
# Velocity P-wave (km/s) = 5.44534 7.14221 6.35070
#
# Compressibility (1/GPa) = 0.03236342
#
# Stress axis : x y z
#
# Youngs Moduli (GPa) = 136.76408 80.90330 27.73079
#
# Poissons Ratio (x) = 0.28056 0.12892
# Poissons Ratio (y) = 0.47427 0.09895
# Poissons Ratio (z) = 0.63580 0.28868
#
# Static dielectric constant tensor:
#      x y z
#    x 1.725840 0.000000 0.000000 
#    y 0.000000 1.578610 0.000000 
#    z 0.000000 0.000000 1.669110 
# 
# From -- ./inp_files/6452.got.cif
#   From: 2010.05.17/outbox.cif.g08.bks.cpg/sg62_4_cif.got.tgz:6452.got - 2010.06.03 15:25:27.
