data_PCOD9461369
_publ_section_title
;
Structure prediction by ZEFSAII (Michael W. Deem and Ramdas Pophale) SiO2 
 PCOD9461369
Probable space group: P N M A
;
_chemical_formula_sum "Si O2"
_cell_formula_units_Z 48
_cell_length_a 16.601821
_cell_length_b 16.617592
_cell_length_c 6.961509
_cell_angle_alpha 90.000000
_cell_angle_beta 90.000000
_cell_angle_gamma 90.000000
_cell_volume 1920.557030
_symmetry_space_group_name_H-M "P N M A"
_symmetry_group_IT_number 62
_symmetry_cell_setting 'orthorhombic'
loop_
_space_group_symop_operation_xyz
x,y,z
1/2-x,-y,1/2+z
1/2+x,1/2-y,1/2-z
-x,1/2+y,-z
-x,-y,-z
1/2+x,y,1/2-z
1/2-x,1/2+y,1/2+z
x,1/2-y,z
loop_
_atom_site_type_symbol
_atom_site_label
_atom_site_fract_x
_atom_site_fract_y
_atom_site_fract_z
Si Si1 0.344158 0.934824 0.934816
Si Si2 0.313305 0.154506 0.475674
Si Si3 0.514768 0.656744 0.482240
Si Si4 0.005075 0.337953 0.445589
Si Si5 0.843547 0.655369 0.970686
Si Si6 0.329577 0.378102 0.018322
O O1 0.267836 0.890833 0.029309
O O2 0.431486 0.905096 0.002507
O O3 0.340537 0.904271 0.712890
O O4 0.334460 0.028002 0.974669
O O5 0.307230 0.250000 0.512133
O O6 0.397557 0.119411 0.558687
O O7 0.321613 0.143208 0.244773
O O8 0.521694 0.750000 0.425864
O O9 0.507167 0.654788 0.715275
O O10 0.425408 0.630433 0.418359
O O11 0.040697 0.250000 0.484883
O O12 0.916645 0.343055 0.535829
O O13 0.854541 0.750000 0.912837
O O14 0.755354 0.652223 0.064871
#
# Coordination Sequence:
#
# PCOD9461369 Si02
#       6
#     8   8   8   8   8   8
#     4  10  17  24  38  63  89 106 129 171 209 237
#     4   9  16  29  45  61  81 111 141 166 198 245
#     4   7  12  23  42  60  75  98 136 171 193 224
#     4   9  15  25  39  58  81 108 134 161 201 252
#     4   9  16  29  45  61  81 111 141 166 198 245
#     4  10  17  24  38  63  89 106 129 171 209 237
#
# _framework density 24.992749
#
# number of rings (size 3 to 8) (size 9 to 14) (size 15 to 20)
#    0.000    3.000    0.000    6.500    0.000    0.000 
#    0.000    0.833    0.000    0.000    0.000   42.000 
#    0.000   10.667    0.000    0.000    0.000    0.000 
#
# Total GULP energy -267914.852547 kJ/mol
# GULP energy per Si atom -5581.559428 kJ/mol
# Density = 2.493586 g / cm^3
# Si number density = 24.992749 Si / 1000 Ang^3
#
#
#
# Elastic Constant Matrix: (Units=GPa)
#
#
# Indices 1 2 3 4 5 6 
#
# 1 235.1465 50.5550 -26.6738 0.0000 0.0000 0.0000
# 2 50.5550 112.7917 3.0248 0.0000 0.0000 0.0000
# 3 -26.6738 3.0248 92.0083 0.0000 0.0000 0.0000
# 4 0.0000 0.0000 0.0000 -148.1061 0.0000 0.0000
# 5 0.0000 0.0000 0.0000 0.0000 -23.7043 0.0000
# 6 0.0000 0.0000 0.0000 0.0000 0.0000 152.4374
#
#
#
# Elastic Compliance Matrix: (Units=1/GPa)
#
#
# Indices 1 2 3 4 5 6 
#
# 1 0.004903 -0.002238 0.001495 0.000000 0.000000 0.000000
# 2 -0.002238 0.009895 -0.000974 0.000000 0.000000 0.000000
# 3 0.001495 -0.000974 0.011334 0.000000 0.000000 0.000000
# 4 0.000000 0.000000 0.000000 -0.006752 0.000000 0.000000
# 5 0.000000 0.000000 0.000000 0.000000 -0.042186 0.000000
# 6 0.000000 0.000000 0.000000 0.000000 0.000000 0.006560
#
#
# Mechanical properties :
#
#
# Convention : Reuss Voigt Hill
#
# Bulk Modulus (GPa) = 44.05521 54.86208 49.45864
# Shear Modulus (GPa) = -953.14991 23.66142 -464.74425
#
# Velocity S-wave (km/s) = -19.54990 3.08024 -13.65120
# Velocity P-wave (km/s) = 22.17955 5.88637 15.12090
#
# Compressibility (1/GPa) = 0.02269879
#
# Stress axis : x y z
#
# Youngs Moduli (GPa) = 203.94043 101.06042 88.22976
#
# Poissons Ratio (x) = 0.22616 -0.13191
# Poissons Ratio (y) = 0.45639 0.08594
# Poissons Ratio (z) = -0.30491 0.09844
#
# Static dielectric constant tensor:
#      x y z
#    x 2.053090 0.000000 0.000000 
#    y 0.000000 1.888050 0.000000 
#    z 0.000000 0.000000 2.025510 
# 
# From -- ./inp_files/14200.got.cif
#   From: 2010.05.17/outbox.cif.g08.bks.cpg/sg62_8_cif.got.tgz:14200.got - 2010.06.03 15:25:27.
