data_PCOD9461603
_publ_section_title
;
Structure prediction by ZEFSAII (Michael W. Deem and Ramdas Pophale) SiO2 
 PCOD9461603
Probable space group: P N M A
;
_chemical_formula_sum "Si O2"
_cell_formula_units_Z 56
_cell_length_a 18.990575
_cell_length_b 8.207164
_cell_length_c 21.804128
_cell_angle_alpha 90.000000
_cell_angle_beta 90.000000
_cell_angle_gamma 90.000000
_cell_volume 3398.364429
_symmetry_space_group_name_H-M "P N M A"
_symmetry_group_IT_number 62
_symmetry_cell_setting 'orthorhombic'
loop_
_space_group_symop_operation_xyz
x,y,z
1/2-x,-y,1/2+z
1/2+x,1/2-y,1/2-z
-x,1/2+y,-z
-x,-y,-z
1/2+x,y,1/2-z
1/2-x,1/2+y,1/2+z
x,1/2-y,z
loop_
_atom_site_type_symbol
_atom_site_label
_atom_site_fract_x
_atom_site_fract_y
_atom_site_fract_z
Si Si1 0.847526 0.552302 0.623326
Si Si2 0.208318 0.939318 0.185892
Si Si3 0.581231 0.442847 0.745781
Si Si4 0.580849 0.447362 0.998461
Si Si5 0.924219 0.942294 0.748354
Si Si6 0.846701 0.550747 0.372839
Si Si7 0.715641 0.942623 0.693529
O O1 0.852319 0.750000 0.622396
O O2 0.879515 0.492844 0.559676
O O3 0.891987 0.497058 0.683121
O O4 0.765561 0.513242 0.636431
O O5 0.194226 0.750000 0.174056
O O6 0.265463 0.001847 0.136693
O O7 0.134675 0.025140 0.199917
O O8 0.251973 0.959354 0.249233
O O9 0.592013 0.250000 0.743454
O O10 0.499434 0.480411 0.738406
O O11 0.607785 0.501133 0.813309
O O12 0.633057 0.521494 0.695449
O O13 0.583261 0.250000 0.998353
O O14 0.618303 0.503912 0.935952
O O15 0.500000 0.500000 0.000000
O O16 0.934254 0.750000 0.742402
O O17 0.846181 0.750000 0.372422
O O18 0.726576 0.750000 0.705431
#
# Coordination Sequence:
#
# PCOD9461603 Si02
#       7
#     8   8   8   8   8   8   8
#     4   8  16  28  43  61  85 114 145 173 205 246
#     4   9  16  28  43  61  83 111 143 177 213 254
#     4  10  18  28  42  64  88 113 141 175 215 256
#     4  10  18  30  44  62  87 116 145 174 201 238
#     4  10  18  28  42  64  88 113 141 175 215 256
#     4   8  16  28  43  61  85 114 145 173 205 246
#     4   9  16  28  43  61  83 111 143 177 213 254
#
# _framework density 16.478515000000002
#
# number of rings (size 3 to 8) (size 9 to 14) (size 15 to 20)
#    0.000    2.857    0.000    4.286    0.000    0.000 
#    0.000    7.143    0.000    0.000    0.000    1.000 
#    0.000    0.000    0.000    0.000    0.000    0.000 
#
# Total GULP energy -311798.330576 kJ/mol
# GULP energy per Si atom -5567.827332 kJ/mol
# Density = 1.644101 g / cm^3
# Si number density = 16.478515 Si / 1000 Ang^3
#
#
#
# Elastic Constant Matrix: (Units=GPa)
#
#
# Indices 1 2 3 4 5 6 
#
# 1 138.9419 5.9996 65.1201 0.0000 0.0000 0.0000
# 2 5.9996 17.6471 6.6750 0.0000 0.0000 0.0000
# 3 65.1201 6.6750 80.8205 0.0000 0.0000 0.0000
# 4 0.0000 0.0000 0.0000 10.3449 0.0000 0.0000
# 5 0.0000 0.0000 0.0000 0.0000 28.1293 0.0000
# 6 0.0000 0.0000 0.0000 0.0000 0.0000 24.9976
#
#
#
# Elastic Compliance Matrix: (Units=1/GPa)
#
#
# Indices 1 2 3 4 5 6 
#
# 1 0.011567 -0.000420 -0.009286 0.000000 0.000000 0.000000
# 2 -0.000420 0.058509 -0.004494 0.000000 0.000000 0.000000
# 3 -0.009286 -0.004494 0.020226 0.000000 0.000000 0.000000
# 4 0.000000 0.000000 0.000000 0.096666 0.000000 0.000000
# 5 0.000000 0.000000 0.000000 0.000000 0.035550 0.000000
# 6 0.000000 0.000000 0.000000 0.000000 0.000000 0.040004
#
#
# Mechanical properties :
#
#
# Convention : Reuss Voigt Hill
#
# Bulk Modulus (GPa) = 16.15421 43.66653 29.91037
# Shear Modulus (GPa) = 16.04851 23.33537 19.69194
#
# Velocity S-wave (km/s) = 3.12413 3.76720 3.46064
# Velocity P-wave (km/s) = 4.77892 6.74381 5.84453
#
# Compressibility (1/GPa) = 0.06190336
#
# Stress axis : x y z
#
# Youngs Moduli (GPa) = 86.44969 17.09138 49.44146
#
# Poissons Ratio (x) = 0.00718 0.45909
# Poissons Ratio (y) = 0.03634 0.22217
# Poissons Ratio (z) = 0.80273 0.07680
#
# Static dielectric constant tensor:
#      x y z
#    x 1.574880 0.000000 0.000000 
#    y 0.000000 1.573150 0.000000 
#    z 0.000000 0.000000 1.551090 
# 
# From -- ./inp_files/27554.got.cif
#   From: 2010.05.17/outbox.cif.g08.bks.cpg/sg62_14_cif.got.tgz:27554.got - 2010.06.03 15:25:27.
