data_PCOD9461595
_publ_section_title
;
Structure prediction by ZEFSAII (Michael W. Deem and Ramdas Pophale) SiO2 
 PCOD9461595
Probable space group: P N M A
;
_chemical_formula_sum "Si O2"
_cell_formula_units_Z 56
_cell_length_a 30.784804
_cell_length_b 7.521275
_cell_length_c 13.964012
_cell_angle_alpha 90.000000
_cell_angle_beta 90.000000
_cell_angle_gamma 90.000000
_cell_volume 3233.240977
_symmetry_space_group_name_H-M "P N M A"
_symmetry_group_IT_number 62
_symmetry_cell_setting 'orthorhombic'
loop_
_space_group_symop_operation_xyz
x,y,z
1/2-x,-y,1/2+z
1/2+x,1/2-y,1/2-z
-x,1/2+y,-z
-x,-y,-z
1/2+x,y,1/2-z
1/2-x,1/2+y,1/2+z
x,1/2-y,z
loop_
_atom_site_type_symbol
_atom_site_label
_atom_site_fract_x
_atom_site_fract_y
_atom_site_fract_z
Si Si1 0.315199 0.464930 0.303702
Si Si2 0.096329 0.965736 0.900566
Si Si3 0.271475 0.468158 0.109751
Si Si4 0.223710 0.958291 0.396468
Si Si5 0.001986 0.537124 0.886333
Si Si6 0.682109 0.456094 0.300968
Si Si7 0.092002 0.460352 0.126526
O O1 0.315902 0.250000 0.303838
O O2 0.360975 0.528256 0.344990
O O3 0.303438 0.521893 0.195671
O O4 0.274391 0.519244 0.369118
O O5 0.096255 0.750000 0.898739
O O6 0.049955 0.027589 0.857527
O O7 0.098187 0.018955 0.012129
O O8 0.270661 0.250000 0.109007
O O9 0.223162 0.530689 0.140166
O O10 0.283376 0.528200 0.003481
O O11 0.213622 0.750000 0.396379
O O12 0.196025 0.038456 0.309844
O O13 0.001893 0.750000 0.872549
O O14 0.955937 0.466307 0.847523
O O15 0.000000 0.500000 0.000000
O O16 0.679441 0.250000 0.330687
O O17 0.635011 0.535516 0.323139
O O18 0.089964 0.250000 0.148183
#
# Coordination Sequence:
#
# PCOD9461595 Si02
#       7
#     8   8   8   8   8   8   8
#     4   9  17  29  42  57  79 107 131 155 193 237
#     4   9  16  25  40  61  84 106 133 167 196 226
#     4   8  15  27  40  53  74 101 128 156 190 229
#     4  10  18  28  42  59  77  99 130 167 195 226
#     4   8  14  24  37  57  81 105 132 161 193 231
#     4   9  17  29  42  57  78 106 133 157 192 237
#     4   9  16  26  41  58  82 112 135 157 194 240
#
# _framework density 17.320081999999999
#
# number of rings (size 3 to 8) (size 9 to 14) (size 15 to 20)
#    0.000    3.143    0.000    2.143    0.000    2.286 
#    0.000    7.143    0.000    0.000    0.000    1.000 
#    0.000    0.000    0.000    0.000    0.000    0.000 
#
# Total GULP energy -311822.689423 kJ/mol
# GULP energy per Si atom -5568.262311 kJ/mol
# Density = 1.728066 g / cm^3
# Si number density = 17.320082 Si / 1000 Ang^3
#
#
#
# Elastic Constant Matrix: (Units=GPa)
#
#
# Indices 1 2 3 4 5 6 
#
# 1 149.6371 -5.4492 33.4410 0.0000 0.0000 0.0000
# 2 -5.4492 43.1604 -12.8027 0.0000 0.0000 0.0000
# 3 33.4410 -12.8027 59.3040 0.0000 0.0000 0.0000
# 4 0.0000 0.0000 0.0000 13.4202 0.0000 0.0000
# 5 0.0000 0.0000 0.0000 0.0000 24.1425 0.0000
# 6 0.0000 0.0000 0.0000 0.0000 0.0000 6.8956
#
#
#
# Elastic Compliance Matrix: (Units=1/GPa)
#
#
# Indices 1 2 3 4 5 6 
#
# 1 0.007651 -0.000335 -0.004387 0.000000 0.000000 0.000000
# 2 -0.000335 0.024769 0.005536 0.000000 0.000000 0.000000
# 3 -0.004387 0.005536 0.020531 0.000000 0.000000 0.000000
# 4 0.000000 0.000000 0.000000 0.074515 0.000000 0.000000
# 5 0.000000 0.000000 0.000000 0.000000 0.041421 0.000000
# 6 0.000000 0.000000 0.000000 0.000000 0.000000 0.145021
#
#
# Mechanical properties :
#
#
# Convention : Reuss Voigt Hill
#
# Bulk Modulus (GPa) = 18.32172 31.38665 24.85419
# Shear Modulus (GPa) = 15.12986 24.68580 19.90783
#
# Velocity S-wave (km/s) = 2.95878 3.77937 3.39397
# Velocity P-wave (km/s) = 4.71951 6.09965 5.45342
#
# Compressibility (1/GPa) = 0.05458003
#
# Stress axis : x y z
#
# Youngs Moduli (GPa) = 130.70238 40.37256 48.70664
#
# Poissons Ratio (x) = 0.01354 0.21366
# Poissons Ratio (y) = 0.04382 -0.26965
# Poissons Ratio (z) = 0.57335 -0.22351
#
# Static dielectric constant tensor:
#      x y z
#    x 1.638080 0.000000 0.000000 
#    y 0.000000 1.623720 0.000000 
#    z 0.000000 0.000000 1.558250 
# 
# From -- ./inp_files/21165.got.cif
#   From: 2010.05.17/outbox.cif.g08.bks.cpg/sg62_11_cif.got.tgz:21165.got - 2010.06.03 15:25:27.
