data_PCOD9461875
_publ_section_title
;
Structure prediction by ZEFSAII (Michael W. Deem and Ramdas Pophale) SiO2 
 PCOD9461875
Probable space group: P N M A
;
_chemical_formula_sum "Si O2"
_cell_formula_units_Z 64
_cell_length_a 15.451827
_cell_length_b 7.726775
_cell_length_c 27.814401
_cell_angle_alpha 90.000000
_cell_angle_beta 90.000000
_cell_angle_gamma 90.000000
_cell_volume 3320.838953
_symmetry_space_group_name_H-M "P N M A"
_symmetry_group_IT_number 62
_symmetry_cell_setting 'orthorhombic'
loop_
_space_group_symop_operation_xyz
x,y,z
1/2-x,-y,1/2+z
1/2+x,1/2-y,1/2-z
-x,1/2+y,-z
-x,-y,-z
1/2+x,y,1/2-z
1/2-x,1/2+y,1/2+z
x,1/2-y,z
loop_
_atom_site_type_symbol
_atom_site_label
_atom_site_fract_x
_atom_site_fract_y
_atom_site_fract_z
Si Si1 0.223904 0.045684 0.862259
Si Si2 0.412032 0.540236 0.283867
Si Si3 0.223393 0.954777 0.137076
Si Si4 0.402870 0.962334 0.172906
Si Si5 0.593672 0.950445 0.164748
Si Si6 0.604476 0.544853 0.551660
Si Si7 0.590378 0.959502 0.442197
Si Si8 0.893783 0.952117 0.774285
O O1 0.232759 0.250000 0.851478
O O2 0.159101 0.975096 0.821402
O O3 0.320698 0.971312 0.859229
O O4 0.176543 0.027680 0.912969
O O5 0.414231 0.750000 0.285854
O O6 0.391402 0.489422 0.228985
O O7 0.509213 0.478453 0.294494
O O8 0.231326 0.750000 0.127861
O O9 0.320624 0.023699 0.142665
O O10 0.161105 0.026103 0.095479
O O11 0.174649 0.977623 0.187721
O O12 0.403911 0.750000 0.172141
O O13 0.497729 0.025386 0.156844
O O14 0.587581 0.750000 0.149641
O O15 0.608931 0.957889 0.222333
O O16 0.616054 0.750000 0.550070
O O17 0.507920 0.507304 0.570918
O O18 0.607009 0.478398 0.496744
O O19 0.593343 0.750000 0.442466
O O20 0.878172 0.750000 0.766645
#
# Coordination Sequence:
#
# PCOD9461875 Si02
#       8
#     8   8   8   8   8   8   8   8
#     4  10  19  31  51  73  92 122 162 197 230 276
#     4   9  17  30  46  66  93 123 155 187 223 270
#     4  10  18  31  51  70  90 121 161 197 230 274
#     4   8  15  29  50  70  87 115 156 198 229 258
#     4   9  18  34  51  67  91 124 161 195 227 268
#     4  10  20  33  49  71  99 125 151 191 241 286
#     4   9  19  34  51  71  95 125 158 191 232 285
#     4  11  21  30  43  69 101 128 154 187 232 278
#
# _framework density 19.272238999999999
#
# number of rings (size 3 to 8) (size 9 to 14) (size 15 to 20)
#    0.000    2.500    0.000    3.750    0.000    7.000 
#    0.000    5.000    0.000    0.750    0.000    0.000 
#    0.000    0.000    0.000    0.000    0.000    0.375 
#
# Total GULP energy -357111.522523 kJ/mol
# GULP energy per Si atom -5579.867539 kJ/mol
# Density = 1.922837 g / cm^3
# Si number density = 19.272239 Si / 1000 Ang^3
#
#
#
# Elastic Constant Matrix: (Units=GPa)
#
#
# Indices 1 2 3 4 5 6 
#
# 1 172.1806 -11.5488 70.2709 0.0000 0.0000 0.0000
# 2 -11.5488 27.0825 -9.1691 0.0000 0.0000 0.0000
# 3 70.2709 -9.1691 48.0924 0.0000 0.0000 0.0000
# 4 0.0000 0.0000 0.0000 11.4844 0.0000 0.0000
# 5 0.0000 0.0000 0.0000 0.0000 24.1355 0.0000
# 6 0.0000 0.0000 0.0000 0.0000 0.0000 -3.5214
#
#
#
# Elastic Compliance Matrix: (Units=1/GPa)
#
#
# Indices 1 2 3 4 5 6 
#
# 1 0.014416 -0.001052 -0.021264 0.000000 0.000000 0.000000
# 2 -0.001052 0.039549 0.009077 0.000000 0.000000 0.000000
# 3 -0.021264 0.009077 0.053595 0.000000 0.000000 0.000000
# 4 0.000000 0.000000 0.000000 0.087075 0.000000 0.000000
# 5 0.000000 0.000000 0.000000 0.000000 0.041433 0.000000
# 6 0.000000 0.000000 0.000000 0.000000 0.000000 -0.283982
#
#
# Mechanical properties :
#
#
# Convention : Reuss Voigt Hill
#
# Bulk Modulus (GPa) = 12.33328 38.49574 25.41451
# Shear Modulus (GPa) = 894.33335 19.60652 456.96994
#
# Velocity S-wave (km/s) = 21.56525 3.19305 15.41518
# Velocity P-wave (km/s) = 25.02985 5.79760 18.16736
#
# Compressibility (1/GPa) = 0.08108141
#
# Stress axis : x y z
#
# Youngs Moduli (GPa) = 69.36822 25.28517 18.65850
#
# Poissons Ratio (x) = 0.02660 0.39676
# Poissons Ratio (y) = 0.07298 -0.16937
# Poissons Ratio (z) = 1.47508 -0.22952
#
# Static dielectric constant tensor:
#      x y z
#    x 1.701510 0.000000 0.000000 
#    y 0.000000 1.709010 0.000000 
#    z 0.000000 0.000000 1.653250 
# 
# From -- ./inp_files/32729.got.cif
#   From: 2010.05.17/outbox.cif.g08.bks.cpg/sg62_17_cif.got.tgz:32729.got - 2010.06.03 15:25:27.
