data_PCOD9461240
_publ_section_title
;
Structure prediction by ZEFSAII (Michael W. Deem and Ramdas Pophale) SiO2 
 PCOD9461240
Probable space group: P B C A
;
_chemical_formula_sum "Si O2"
_cell_formula_units_Z 64
_cell_length_a 24.119182
_cell_length_b 18.232933
_cell_length_c 7.104513
_cell_angle_alpha 90.000000
_cell_angle_beta 90.000000
_cell_angle_gamma 90.000000
_cell_volume 3124.305001
_symmetry_space_group_name_H-M "P B C A"
_symmetry_group_IT_number 61
_symmetry_cell_setting 'orthorhombic'
loop_
_space_group_symop_operation_xyz
x,y,z
1/2-x,-y,1/2+z
1/2+x,1/2-y,-z
-x,1/2+y,1/2-z
-x,-y,-z
1/2+x,y,1/2-z
1/2-x,1/2+y,z
x,1/2-y,1/2+z
loop_
_atom_site_type_symbol
_atom_site_label
_atom_site_fract_x
_atom_site_fract_y
_atom_site_fract_z
Si Si1 0.675865 0.553306 0.734909
Si Si2 0.768441 0.901122 0.763604
Si Si3 0.380534 0.648136 0.316227
Si Si4 0.274029 0.638654 0.820450
Si Si5 0.444127 0.949610 0.297751
Si Si6 0.560320 0.494161 0.770913
Si Si7 0.884481 0.693057 0.620348
Si Si8 0.330452 0.015871 0.207804
O O1 0.703988 0.479980 0.820889
O O2 0.713527 0.624985 0.767745
O O3 0.611495 0.550988 0.786862
O O4 0.678458 0.534702 0.511186
O O5 0.815908 0.866811 0.631701
O O6 0.707620 0.922712 0.689860
O O7 0.762919 0.855741 0.955249
O O8 0.416015 0.574603 0.349852
O O9 0.404280 0.723714 0.393849
O O10 0.378668 0.660878 0.089972
O O11 0.323157 0.696046 0.784613
O O12 0.304801 0.561794 0.771097
O O13 0.450299 0.960672 0.522689
O O14 0.422095 0.866473 0.272397
O O15 0.503295 0.968732 0.209020
O O16 0.395456 0.006439 0.242566
#
# Coordination Sequence:
#
# PCOD9461240 Si02
#       8
#     8   8   8   8   8   8   8   8
#     4   9  15  24  42  66  87 107 138 180 216 249
#     4   8  15  27  41  60  88 116 137 165 214 267
#     4   9  17  29  45  65  88 114 145 182 225 272
#     4   8  15  27  41  60  88 116 137 165 214 267
#     4   9  18  32  47  63  88 122 155 186 224 269
#     4   9  18  32  47  63  88 122 155 186 224 269
#     4   9  17  29  45  65  88 114 145 182 225 272
#     4   9  15  24  42  66  87 107 138 180 216 249
#
# _framework density 20.484555
#
# number of rings (size 3 to 8) (size 9 to 14) (size 15 to 20)
#    0.000    3.250    0.000    2.250    0.000    5.500 
#    0.000    0.000    0.000    1.500    0.000   10.500 
#    0.000    0.000    0.000    0.000    0.000    0.000 
#
# Total GULP energy -356292.892752 kJ/mol
# GULP energy per Si atom -5567.076449 kJ/mol
# Density = 2.043793 g / cm^3
# Si number density = 20.484555 Si / 1000 Ang^3
#
#
#
# Elastic Constant Matrix: (Units=GPa)
#
#
# Indices 1 2 3 4 5 6 
#
# 1 167.0322 54.7719 -10.4601 0.0000 0.0000 0.0000
# 2 54.7719 69.5824 6.8146 0.0000 0.0000 0.0000
# 3 -10.4601 6.8146 45.7491 0.0000 0.0000 0.0000
# 4 0.0000 0.0000 0.0000 18.6454 0.0000 0.0000
# 5 0.0000 0.0000 0.0000 0.0000 16.9396 0.0000
# 6 0.0000 0.0000 0.0000 0.0000 0.0000 17.9891
#
#
#
# Elastic Compliance Matrix: (Units=1/GPa)
#
#
# Indices 1 2 3 4 5 6 
#
# 1 0.008449 -0.006941 0.002966 0.000000 0.000000 0.000000
# 2 -0.006941 0.020286 -0.004609 0.000000 0.000000 0.000000
# 3 0.002966 -0.004609 0.023223 0.000000 0.000000 0.000000
# 4 0.000000 0.000000 0.000000 0.053633 0.000000 0.000000
# 5 0.000000 0.000000 0.000000 0.000000 0.059033 0.000000
# 6 0.000000 0.000000 0.000000 0.000000 0.000000 0.055589
#
#
# Mechanical properties :
#
#
# Convention : Reuss Voigt Hill
#
# Bulk Modulus (GPa) = 28.74397 42.73516 35.73957
# Shear Modulus (GPa) = 20.08219 26.13065 23.10642
#
# Velocity S-wave (km/s) = 3.13446 3.57547 3.36220
# Velocity P-wave (km/s) = 5.21175 6.16058 5.70592
#
# Compressibility (1/GPa) = 0.03478990
#
# Stress axis : x y z
#
# Youngs Moduli (GPa) = 118.36391 49.29463 43.06096
#
# Poissons Ratio (x) = 0.34214 -0.12770
# Poissons Ratio (y) = 0.82153 0.19845
# Poissons Ratio (z) = -0.35101 0.22718
#
# Static dielectric constant tensor:
#      x y z
#    x 1.786900 0.000000 0.000000 
#    y 0.000000 1.750880 0.000000 
#    z 0.000000 0.000000 1.850150 
# 
# From -- ./inp_files/4397.got.cif
#   From: 2010.05.17/outbox.cif.g08.bks.cpg/sg61_3_cif.got.tgz:4397.got - 2010.06.03 15:17:17.
