data_PCOD9461874
_publ_section_title
;
Structure prediction by ZEFSAII (Michael W. Deem and Ramdas Pophale) SiO2 
 PCOD9461874
Probable space group: P N M A
;
_chemical_formula_sum "Si O2"
_cell_formula_units_Z 64
_cell_length_a 19.411464
_cell_length_b 8.074168
_cell_length_c 21.402725
_cell_angle_alpha 90.000000
_cell_angle_beta 90.000000
_cell_angle_gamma 90.000000
_cell_volume 3354.479512
_symmetry_space_group_name_H-M "P N M A"
_symmetry_group_IT_number 62
_symmetry_cell_setting 'orthorhombic'
loop_
_space_group_symop_operation_xyz
x,y,z
1/2-x,-y,1/2+z
1/2+x,1/2-y,1/2-z
-x,1/2+y,-z
-x,-y,-z
1/2+x,y,1/2-z
1/2-x,1/2+y,1/2+z
x,1/2-y,z
loop_
_atom_site_type_symbol
_atom_site_label
_atom_site_fract_x
_atom_site_fract_y
_atom_site_fract_z
Si Si1 0.427051 0.941571 0.475476
Si Si2 0.885539 0.552465 0.669093
Si Si3 0.736043 0.546755 0.629329
Si Si4 0.162545 0.948659 0.090367
Si Si5 0.908698 0.438935 0.158096
Si Si6 0.783118 0.550761 0.491350
Si Si7 0.069059 0.944974 0.465494
Si Si8 0.940701 0.951091 0.800914
O O1 0.427698 0.750000 0.455367
O O2 0.500000 0.000000 0.500000
O O3 0.377829 0.967405 0.533628
O O4 0.410715 0.056490 0.417020
O O5 0.880948 0.750000 0.676157
O O6 0.807051 0.491678 0.661413
O O7 0.923537 0.519165 0.603941
O O8 0.922698 0.490251 0.731210
O O9 0.733340 0.750000 0.629553
O O10 0.667944 0.486085 0.665990
O O11 0.744546 0.495807 0.556078
O O12 0.157346 0.750000 0.085196
O O13 0.241270 0.994884 0.071568
O O14 0.121330 0.998283 0.152596
O O15 0.906934 0.250000 0.181864
O O16 0.982420 0.511406 0.179482
O O17 0.784529 0.750000 0.494435
O O18 0.861485 0.491868 0.496950
O O19 0.067775 0.750000 0.458373
O O20 0.000000 0.000000 0.500000
O O21 0.943424 0.750000 0.803466
#
# Coordination Sequence:
#
# PCOD9461874 Si02
#       8
#     8   8   8   8   8   8   8   8
#     4  12  22  31  46  73 109 146 184 228 270 316
#     4   9  19  38  57  78 109 149 189 231 282 338
#     4   8  14  29  53  73  98 135 179 224 275 326
#     4  11  21  34  53  77 112 152 186 221 272 328
#     4  10  18  31  50  76 104 142 188 230 275 325
#     4   9  18  34  55  81 111 144 178 221 277 334
#     4  11  22  38  63  90 111 138 181 238 293 340
#     4  10  21  34  52  77 113 153 193 231 271 335
#
# _framework density 19.078966000000001
#
# number of rings (size 3 to 8) (size 9 to 14) (size 15 to 20)
#    0.000    2.000    2.500    3.375    0.000    1.500 
#    0.000    1.250    0.000    3.000    0.000    0.000 
#    0.000    0.000    0.000    0.000    0.000    0.000 
#
# Total GULP energy -356515.386619 kJ/mol
# GULP energy per Si atom -5570.552916 kJ/mol
# Density = 1.903554 g / cm^3
# Si number density = 19.078966 Si / 1000 Ang^3
#
#
#
# Elastic Constant Matrix: (Units=GPa)
#
#
# Indices 1 2 3 4 5 6 
#
# 1 148.0707 2.4165 64.1789 0.0000 0.0000 0.0000
# 2 2.4165 21.4602 -1.7184 0.0000 0.0000 0.0000
# 3 64.1789 -1.7184 75.4205 0.0000 0.0000 0.0000
# 4 0.0000 0.0000 0.0000 16.4902 0.0000 0.0000
# 5 0.0000 0.0000 0.0000 0.0000 19.3701 0.0000
# 6 0.0000 0.0000 0.0000 0.0000 0.0000 19.4829
#
#
#
# Elastic Compliance Matrix: (Units=1/GPa)
#
#
# Indices 1 2 3 4 5 6 
#
# 1 0.010781 -0.001952 -0.009219 0.000000 0.000000 0.000000
# 2 -0.001952 0.047037 0.002733 0.000000 0.000000 0.000000
# 3 -0.009219 0.002733 0.021166 0.000000 0.000000 0.000000
# 4 0.000000 0.000000 0.000000 0.060642 0.000000 0.000000
# 5 0.000000 0.000000 0.000000 0.000000 0.051626 0.000000
# 6 0.000000 0.000000 0.000000 0.000000 0.000000 0.051327
#
#
# Mechanical properties :
#
#
# Convention : Reuss Voigt Hill
#
# Bulk Modulus (GPa) = 16.10110 41.63396 28.86753
# Shear Modulus (GPa) = 17.84715 23.07359 20.46037
#
# Velocity S-wave (km/s) = 3.06181 3.48138 3.27831
# Velocity P-wave (km/s) = 4.57789 6.16679 5.43076
#
# Compressibility (1/GPa) = 0.06210756
#
# Stress axis : x y z
#
# Youngs Moduli (GPa) = 92.75537 21.26008 47.24603
#
# Poissons Ratio (x) = 0.04150 0.43554
# Poissons Ratio (y) = 0.18107 -0.12912
# Poissons Ratio (z) = 0.85507 -0.05810
#
# Static dielectric constant tensor:
#      x y z
#    x 1.882530 0.000000 0.000000 
#    y 0.000000 1.686170 0.000000 
#    z 0.000000 0.000000 1.642280 
# 
# From -- ./inp_files/27689.got.cif
#   From: 2010.05.17/outbox.cif.g08.bks.cpg/sg62_14_cif.got.tgz:27689.got - 2010.06.03 15:25:27.
