data_PCOD9461105
_publ_section_title
;
Structure prediction by ZEFSAII (Michael W. Deem and Ramdas Pophale) SiO2 
 PCOD9461105
Probable space group: P B C A
;
_chemical_formula_sum "Si O2"
_cell_formula_units_Z 48
_cell_length_a 12.432113
_cell_length_b 10.169702
_cell_length_c 18.416481
_cell_angle_alpha 90.000000
_cell_angle_beta 90.000000
_cell_angle_gamma 90.000000
_cell_volume 2328.411981
_symmetry_space_group_name_H-M "P B C A"
_symmetry_group_IT_number 61
_symmetry_cell_setting 'orthorhombic'
loop_
_space_group_symop_operation_xyz
x,y,z
1/2-x,-y,1/2+z
1/2+x,1/2-y,-z
-x,1/2+y,1/2-z
-x,-y,-z
1/2+x,y,1/2-z
1/2-x,1/2+y,z
x,1/2-y,1/2+z
loop_
_atom_site_type_symbol
_atom_site_label
_atom_site_fract_x
_atom_site_fract_y
_atom_site_fract_z
Si Si1 0.198767 0.039441 0.826194
Si Si2 0.034032 0.649683 0.642357
Si Si3 0.675326 0.969214 0.023941
Si Si4 0.025160 0.287115 0.008800
Si Si5 0.201569 0.774574 0.735608
Si Si6 0.834154 0.894032 0.894112
O O1 0.247821 0.029492 0.906668
O O2 0.265151 0.144753 0.779156
O O3 0.077459 0.091465 0.829913
O O4 0.201939 0.898001 0.788941
O O5 0.086386 0.752735 0.697722
O O6 0.284295 0.808768 0.670728
O O7 0.011334 0.715415 0.564661
O O8 0.621083 0.110617 0.009254
O O9 0.576269 0.869961 0.037056
O O10 0.742446 0.923025 0.953960
O O11 0.070029 0.183646 0.066269
O O12 0.380400 0.032346 0.633222
#
# Coordination Sequence:
#
# PCOD9461105 Si02
#       6
#     8   8   8   8   8   8
#     4  12  29  46  76 107 152 193 245 300 367 446
#     4  12  26  45  73 109 139 195 246 296 377 434
#     4  11  26  46  74 109 142 190 246 303 361 428
#     4  11  25  44  78 106 143 185 249 307 358 430
#     4  12  28  50  70 106 151 194 238 307 370 440
#     4  12  25  47  76 103 146 191 243 302 364 433
#
# _framework density 20.614909999999998
#
# number of rings (size 3 to 8) (size 9 to 14) (size 15 to 20)
#    0.000    0.333    5.000    2.500    4.667    1.333 
#    0.000    0.000    0.000    0.000    0.000    0.000 
#    0.000    0.000    0.000    0.000    0.000    0.000 
#
# Total GULP energy -268890.586977 kJ/mol
# GULP energy per Si atom -5601.887229 kJ/mol
# Density = 2.056799 g / cm^3
# Si number density = 20.614910 Si / 1000 Ang^3
#
#
#
# Elastic Constant Matrix: (Units=GPa)
#
#
# Indices 1 2 3 4 5 6 
#
# 1 52.5550 -6.6038 5.1923 0.0000 0.0000 0.0000
# 2 -6.6038 71.5182 0.8020 0.0000 0.0000 0.0000
# 3 5.1923 0.8020 56.1541 0.0000 0.0000 0.0000
# 4 0.0000 0.0000 0.0000 24.1076 0.0000 0.0000
# 5 0.0000 0.0000 0.0000 0.0000 29.0388 0.0000
# 6 0.0000 0.0000 0.0000 0.0000 0.0000 56.7625
#
#
#
# Elastic Compliance Matrix: (Units=1/GPa)
#
#
# Indices 1 2 3 4 5 6 
#
# 1 0.019436 0.001815 -0.001823 0.000000 0.000000 0.000000
# 2 0.001815 0.014154 -0.000370 0.000000 0.000000 0.000000
# 3 -0.001823 -0.000370 0.017982 0.000000 0.000000 0.000000
# 4 0.000000 0.000000 0.000000 0.041481 0.000000 0.000000
# 5 0.000000 0.000000 0.000000 0.000000 0.034437 0.000000
# 6 0.000000 0.000000 0.000000 0.000000 0.000000 0.017617
#
#
# Mechanical properties :
#
#
# Convention : Reuss Voigt Hill
#
# Bulk Modulus (GPa) = 19.67876 19.88980 19.78428
# Shear Modulus (GPa) = 30.71228 34.03757 32.37492
#
# Velocity S-wave (km/s) = 3.86399 4.06780 3.96720
# Velocity P-wave (km/s) = 5.42898 5.63310 5.53198
#
# Compressibility (1/GPa) = 0.05081621
#
# Stress axis : x y z
#
# Youngs Moduli (GPa) = 51.45123 70.65035 55.61119
#
# Poissons Ratio (x) = -0.12824 0.10138
# Poissons Ratio (y) = -0.09339 0.02058
# Poissons Ratio (z) = 0.09380 0.02614
#
# Static dielectric constant tensor:
#      x y z
#    x 1.712880 0.000000 0.000000 
#    y 0.000000 1.711150 0.000000 
#    z 0.000000 0.000000 1.693340 
# 
# From -- ./inp_files/9165.got.cif
#   From: 2010.05.17/outbox.cif.g08.bks.cpg/sg61_5_cif.got.tgz:9165.got - 2010.06.03 15:17:17.
