data_PCOD9461675
_publ_section_title
;
Structure prediction by ZEFSAII (Michael W. Deem and Ramdas Pophale) SiO2 
 PCOD9461675
Probable space group: P N M A
;
_chemical_formula_sum "Si O2"
_cell_formula_units_Z 64
_cell_length_a 24.961499
_cell_length_b 11.185730
_cell_length_c 12.611059
_cell_angle_alpha 90.000000
_cell_angle_beta 90.000000
_cell_angle_gamma 90.000000
_cell_volume 3521.166423
_symmetry_space_group_name_H-M "P N M A"
_symmetry_group_IT_number 62
_symmetry_cell_setting 'orthorhombic'
loop_
_space_group_symop_operation_xyz
x,y,z
1/2-x,-y,1/2+z
1/2+x,1/2-y,1/2-z
-x,1/2+y,-z
-x,-y,-z
1/2+x,y,1/2-z
1/2-x,1/2+y,1/2+z
x,1/2-y,z
loop_
_atom_site_type_symbol
_atom_site_label
_atom_site_fract_x
_atom_site_fract_y
_atom_site_fract_z
Si Si1 0.621343 0.611321 0.817264
Si Si2 0.162182 0.110076 0.195300
Si Si3 0.191096 0.388583 0.429005
Si Si4 0.923299 0.957040 0.504158
Si Si5 0.985006 0.119710 0.648055
Si Si6 0.559868 0.110257 0.424886
Si Si7 0.729733 0.889064 0.933872
Si Si8 0.543391 0.493405 0.657741
O O1 0.610393 0.750000 0.802224
O O2 0.591629 0.563747 0.922804
O O3 0.684318 0.596228 0.842168
O O4 0.595294 0.542161 0.718984
O O5 0.150221 0.250000 0.216789
O O6 0.183210 0.067363 0.308454
O O7 0.108550 0.056428 0.144359
O O8 0.211066 0.104017 0.113580
O O9 0.212382 0.250000 0.433291
O O10 0.131110 0.386539 0.477170
O O11 0.221029 0.497014 0.489406
O O12 0.945177 0.014494 0.612519
O O13 0.969742 0.885761 0.444149
O O14 0.959085 0.250000 0.648685
O O15 0.014572 0.095799 0.759117
O O16 0.569754 0.250000 0.436327
O O17 0.557854 0.058271 0.543274
O O18 0.503244 0.089082 0.367321
O O19 0.721930 0.750000 0.974346
#
# Coordination Sequence:
#
# PCOD9461675 Si02
#       8
#     8   8   8   8   8   8   8   8
#     4   9  17  31  50  72  99 130 168 215 266 317
#     4   9  19  35  55  76 101 138 176 211 259 318
#     4  10  19  34  56  78 102 133 172 217 260 307
#     4   9  18  29  46  73 100 133 169 205 255 310
#     4  10  18  29  45  69 103 134 167 211 256 304
#     4  10  20  35  51  70 101 136 174 216 258 315
#     4   9  19  36  56  79 107 138 174 218 269 322
#     4  10  20  31  49  74  98 134 176 215 262 311
#
# _framework density 18.175795000000001
#
# number of rings (size 3 to 8) (size 9 to 14) (size 15 to 20)
#    0.000    2.500    0.000    2.250    0.000    1.500 
#    0.000    5.000    0.000    5.250    0.000    0.000 
#    0.000    0.000    0.000    0.000    0.000    0.000 
#
# Total GULP energy -356303.214919 kJ/mol
# GULP energy per Si atom -5567.237733 kJ/mol
# Density = 1.813443 g / cm^3
# Si number density = 18.175795 Si / 1000 Ang^3
#
#
#
# Elastic Constant Matrix: (Units=GPa)
#
#
# Indices 1 2 3 4 5 6 
#
# 1 36.8039 2.1381 6.1113 0.0000 0.0000 0.0000
# 2 2.1381 59.5007 22.4514 0.0000 0.0000 0.0000
# 3 6.1113 22.4514 82.3454 0.0000 0.0000 0.0000
# 4 0.0000 0.0000 0.0000 11.0556 0.0000 0.0000
# 5 0.0000 0.0000 0.0000 0.0000 13.2337 0.0000
# 6 0.0000 0.0000 0.0000 0.0000 0.0000 12.9967
#
#
#
# Elastic Compliance Matrix: (Units=1/GPa)
#
#
# Indices 1 2 3 4 5 6 
#
# 1 0.027513 -0.000243 -0.001976 0.000000 0.000000 0.000000
# 2 -0.000243 0.018736 -0.005090 0.000000 0.000000 0.000000
# 3 -0.001976 -0.005090 0.013678 0.000000 0.000000 0.000000
# 4 0.000000 0.000000 0.000000 0.090452 0.000000 0.000000
# 5 0.000000 0.000000 0.000000 0.000000 0.075565 0.000000
# 6 0.000000 0.000000 0.000000 0.000000 0.000000 0.076943
#
#
# Mechanical properties :
#
#
# Convention : Reuss Voigt Hill
#
# Bulk Modulus (GPa) = 22.07045 26.67240 24.37143
# Shear Modulus (GPa) = 15.03270 17.32048 16.17659
#
# Velocity S-wave (km/s) = 2.87901 3.09032 2.98654
# Velocity P-wave (km/s) = 4.81879 5.23832 5.03293
#
# Compressibility (1/GPa) = 0.04530945
#
# Stress axis : x y z
#
# Youngs Moduli (GPa) = 36.34618 53.37317 73.10765
#
# Poissons Ratio (x) = 0.01298 0.14443
# Poissons Ratio (y) = 0.00884 0.37214
# Poissons Ratio (z) = 0.07181 0.27169
#
# Static dielectric constant tensor:
#      x y z
#    x 1.640370 0.000000 0.000000 
#    y 0.000000 1.637350 0.000000 
#    z 0.000000 0.000000 1.623610 
# 
# From -- ./inp_files/15569.got.cif
#   From: 2010.05.17/outbox.cif.g08.bks.cpg/sg62_8_cif.got.tgz:15569.got - 2010.06.03 15:25:27.
