data_PCOD9461278
_publ_section_title
;
Structure prediction by ZEFSAII (Michael W. Deem and Ramdas Pophale) SiO2 
 PCOD9461278
Probable space group: P B C A
;
_chemical_formula_sum "Si O2"
_cell_formula_units_Z 64
_cell_length_a 24.000000
_cell_length_b 15.000000
_cell_length_c 9.000000
_cell_angle_alpha 90.000000
_cell_angle_beta 90.000000
_cell_angle_gamma 90.000000
_cell_volume 3240.000000
_symmetry_space_group_name_H-M "P B C A"
_symmetry_group_IT_number 61
_symmetry_cell_setting 'orthorhombic'
loop_
_space_group_symop_operation_xyz
x,y,z
1/2-x,-y,1/2+z
1/2+x,1/2-y,-z
-x,1/2+y,1/2-z
-x,-y,-z
1/2+x,y,1/2-z
1/2-x,1/2+y,z
x,1/2-y,1/2+z
loop_
_atom_site_type_symbol
_atom_site_label
_atom_site_fract_x
_atom_site_fract_y
_atom_site_fract_z
Si Si1 0.501941 0.241719 0.441689
Si Si2 0.170578 0.976691 0.524341
Si Si3 0.806274 0.662362 0.144337
Si Si4 0.264366 0.836194 0.523122
Si Si5 0.082883 0.226187 0.811647
Si Si6 0.646958 0.053013 0.664745
Si Si7 0.043161 0.928747 0.559518
Si Si8 0.046890 0.558101 0.415743
O O1 0.526261 0.252906 0.276514
O O2 0.560090 0.217551 0.522406
O O3 0.475357 0.332703 0.499029
O O4 0.460314 0.159830 0.465810
O O5 0.207061 0.888855 0.489894
O O6 0.105340 0.953737 0.507378
O O7 0.188073 0.064942 0.431071
O O8 0.176182 0.002608 0.699206
O O9 0.774398 0.661288 0.300762
O O10 0.868136 0.701095 0.183422
O O11 0.775708 0.736005 0.038756
O O12 0.310730 0.896196 0.441095
O O13 0.108658 0.131641 0.762953
O O14 0.606859 0.988362 0.570729
O O15 0.039370 0.936318 0.737760
O O16 0.000000 0.000000 0.500000
O O17 0.000000 0.500000 0.500000
#
# Coordination Sequence:
#
# PCOD9461278 Si02
#       8
#     8   8   8   8   8   8   8   8
#     4  12  22  38  60  95 130 171 210 260 324 386
#     4  11  24  45  66  96 128 173 223 272 331 390
#     4  11  23  42  70  96 129 168 222 273 328 388
#     4  11  24  44  68  96 124 168 222 276 328 387
#     4  11  20  37  65  93 127 167 219 260 314 389
#     4  10  21  41  65  92 130 168 218 275 318 384
#     4  11  25  43  64  94 136 170 214 271 328 391
#     4  11  23  39  62  94 130 171 212 263 325 392
#
# _framework density 19.753086
#
# number of rings (size 3 to 8) (size 9 to 14) (size 15 to 20)
#    0.000    1.000    2.500    6.750    0.000    0.000 
#    6.750    0.000    0.000    0.000    0.000    0.000 
#    0.000    0.000    0.000    0.000    0.000    0.000 
#
# Total GULP energy -357386.908432 kJ/mol
# GULP energy per Si atom -5584.170444 kJ/mol
# Density = 1.970813 g / cm^3
# Si number density = 19.753086 Si / 1000 Ang^3
#
#
#
# Elastic Constant Matrix: (Units=GPa)
#
#
# Indices 1 2 3 4 5 6 
#
# 1 87.2593 39.9169 32.0349 0.0000 0.0000 0.0000
# 2 39.9169 105.4682 31.5801 0.0000 0.0000 0.0000
# 3 32.0349 31.5801 57.2632 0.0000 0.0000 0.0000
# 4 0.0000 0.0000 0.0000 25.9578 0.0000 0.0000
# 5 0.0000 0.0000 0.0000 0.0000 27.4203 0.0000
# 6 0.0000 0.0000 0.0000 0.0000 0.0000 36.4547
#
#
#
# Elastic Compliance Matrix: (Units=1/GPa)
#
#
# Indices 1 2 3 4 5 6 
#
# 1 0.015695 -0.003966 -0.006593 0.000000 0.000000 0.000000
# 2 -0.003966 0.012359 -0.004597 0.000000 0.000000 0.000000
# 3 -0.006593 -0.004597 0.023687 0.000000 0.000000 0.000000
# 4 0.000000 0.000000 0.000000 0.038524 0.000000 0.000000
# 5 0.000000 0.000000 0.000000 0.000000 0.036469 0.000000
# 6 0.000000 0.000000 0.000000 0.000000 0.000000 0.027431
#
#
# Mechanical properties :
#
#
# Convention : Reuss Voigt Hill
#
# Bulk Modulus (GPa) = 46.66703 50.78384 48.72544
# Shear Modulus (GPa) = 26.09325 27.73048 26.91187
#
# Velocity S-wave (km/s) = 3.63846 3.75087 3.69509
# Velocity P-wave (km/s) = 6.42866 6.67262 6.55177
#
# Compressibility (1/GPa) = 0.02142840
#
# Stress axis : x y z
#
# Youngs Moduli (GPa) = 63.71560 80.91224 42.21750
#
# Poissons Ratio (x) = 0.32089 0.27834
# Poissons Ratio (y) = 0.25269 0.19408
# Poissons Ratio (z) = 0.42008 0.37197
#
# Static dielectric constant tensor:
#      x y z
#    x 1.715910 0.000000 0.000000 
#    y 0.000000 1.696260 0.000000 
#    z 0.000000 0.000000 1.602530 
# 
# From -- ./inp_files/4356.got.cif
#   From: 2010.05.17/outbox.ucp.g08.bks.cvg/sg61_3_cif.got.tgz:4356.got - 2010.06.11 16:28:26.
