data_PCOD9461286
_publ_section_title
;
Structure prediction by ZEFSAII (Michael W. Deem and Ramdas Pophale) SiO2 
 PCOD9461286
Probable space group: P B C A
;
_chemical_formula_sum "Si O2"
_cell_formula_units_Z 56
_cell_length_a 21.000000
_cell_length_b 15.000000
_cell_length_c 9.000000
_cell_angle_alpha 90.000000
_cell_angle_beta 90.000000
_cell_angle_gamma 90.000000
_cell_volume 2835.000000
_symmetry_space_group_name_H-M "P B C A"
_symmetry_group_IT_number 61
_symmetry_cell_setting 'orthorhombic'
loop_
_space_group_symop_operation_xyz
x,y,z
1/2-x,-y,1/2+z
1/2+x,1/2-y,-z
-x,1/2+y,1/2-z
-x,-y,-z
1/2+x,y,1/2-z
1/2-x,1/2+y,z
x,1/2-y,1/2+z
loop_
_atom_site_type_symbol
_atom_site_label
_atom_site_fract_x
_atom_site_fract_y
_atom_site_fract_z
Si Si1 0.684276 0.926167 0.006597
Si Si2 0.792435 0.865034 0.511144
Si Si3 0.586947 0.782484 0.904075
Si Si4 0.963072 0.374762 0.620687
Si Si5 0.698287 0.170156 0.361492
Si Si6 0.671098 0.622416 0.824031
Si Si7 0.904466 0.970140 0.957385
O O1 0.621107 0.864865 0.988084
O O2 0.734858 0.878110 0.899509
O O3 0.678994 0.033831 0.984231
O O4 0.707785 0.904095 0.174411
O O5 0.807317 0.839628 0.682407
O O6 0.807581 0.774030 0.414960
O O7 0.718151 0.879888 0.465641
O O8 0.542829 0.830041 0.781827
O O9 0.639548 0.720084 0.820481
O O10 0.554146 0.707578 0.009175
O O11 0.916555 0.461511 0.596009
O O12 0.030942 0.418323 0.582950
O O13 0.648335 0.107191 0.450554
O O14 0.618292 0.544782 0.838656
#
# Coordination Sequence:
#
# PCOD9461286 Si02
#       7
#     8   8   8   8   8   8   8
#     4  12  23  41  67 102 131 175 214 279 335 401
#     4  12  25  40  62 104 136 175 213 266 341 401
#     4  11  23  41  71  99 127 170 233 273 331 402
#     4  10  24  44  72  95 127 184 228 281 328 396
#     4  12  26  40  67  97 142 174 217 276 334 408
#     4  11  22  43  66  95 135 170 220 268 334 408
#     4  10  23  45  68  92 135 176 226 276 337 387
#
# _framework density 19.753086
#
# number of rings (size 3 to 8) (size 9 to 14) (size 15 to 20)
#    0.000    0.857    5.714    0.857    4.000    3.429 
#    0.000    3.571    0.000    0.000    0.000    0.000 
#    0.000    0.000    0.000    0.000    0.000    0.000 
#
# Total GULP energy -312067.713743 kJ/mol
# GULP energy per Si atom -5572.637745 kJ/mol
# Density = 1.970813 g / cm^3
# Si number density = 19.753086 Si / 1000 Ang^3
#
#
#
# Elastic Constant Matrix: (Units=GPa)
#
#
# Indices 1 2 3 4 5 6 
#
# 1 59.0988 45.5340 12.7147 0.0000 0.0000 0.0000
# 2 45.5340 212.2807 40.2415 0.0000 0.0000 0.0000
# 3 12.7147 40.2415 66.3464 0.0000 0.0000 0.0000
# 4 0.0000 0.0000 0.0000 29.1147 0.0000 0.0000
# 5 0.0000 0.0000 0.0000 0.0000 16.2843 0.0000
# 6 0.0000 0.0000 0.0000 0.0000 0.0000 53.4775
#
#
#
# Elastic Compliance Matrix: (Units=1/GPa)
#
#
# Indices 1 2 3 4 5 6 
#
# 1 0.020388 -0.004105 -0.001418 0.000000 0.000000 0.000000
# 2 -0.004105 0.006149 -0.002943 0.000000 0.000000 0.000000
# 3 -0.001418 -0.002943 0.017129 0.000000 0.000000 0.000000
# 4 0.000000 0.000000 0.000000 0.034347 0.000000 0.000000
# 5 0.000000 0.000000 0.000000 0.000000 0.061409 0.000000
# 6 0.000000 0.000000 0.000000 0.000000 0.000000 0.018699
#
#
# Mechanical properties :
#
#
# Convention : Reuss Voigt Hill
#
# Bulk Modulus (GPa) = 37.40279 59.41181 48.40730
# Shear Modulus (GPa) = 27.17920 35.72434 31.45177
#
# Velocity S-wave (km/s) = 3.71340 4.25731 3.99462
# Velocity P-wave (km/s) = 6.11245 7.36945 6.77019
#
# Compressibility (1/GPa) = 0.02673597
#
# Stress axis : x y z
#
# Youngs Moduli (GPa) = 49.04793 162.62655 58.38002
#
# Poissons Ratio (x) = 0.66750 0.08276
# Poissons Ratio (y) = 0.20132 0.17181
# Poissons Ratio (z) = 0.06953 0.47862
#
# Static dielectric constant tensor:
#      x y z
#    x 1.744740 0.000000 0.000000 
#    y 0.000000 1.674300 0.000000 
#    z 0.000000 0.000000 1.739280 
# 
# From -- ./inp_files/3962.got.cif
#   From: 2010.05.17/outbox.ucp.g08.bks.cvg/sg61_2_cif.got.tgz:3962.got - 2010.06.11 16:28:26.
