data_PCOD9461242
_publ_section_title
;
Structure prediction by ZEFSAII (Michael W. Deem and Ramdas Pophale) SiO2 
 PCOD9461242
Probable space group: P B C A
;
_chemical_formula_sum "Si O2"
_cell_formula_units_Z 40
_cell_length_a 17.290996
_cell_length_b 7.855994
_cell_length_c 11.956193
_cell_angle_alpha 90.000000
_cell_angle_beta 90.000000
_cell_angle_gamma 90.000000
_cell_volume 1624.104876
_symmetry_space_group_name_H-M "P B C A"
_symmetry_group_IT_number 61
_symmetry_cell_setting 'orthorhombic'
loop_
_space_group_symop_operation_xyz
x,y,z
1/2-x,-y,1/2+z
1/2+x,1/2-y,-z
-x,1/2+y,1/2-z
-x,-y,-z
1/2+x,y,1/2-z
1/2-x,1/2+y,z
x,1/2-y,1/2+z
loop_
_atom_site_type_symbol
_atom_site_label
_atom_site_fract_x
_atom_site_fract_y
_atom_site_fract_z
Si Si1 0.632960 0.523761 0.801185
Si Si2 0.493386 0.248528 0.127096
Si Si3 0.395437 0.015774 0.299856
Si Si4 0.885986 0.342888 0.060992
Si Si5 0.276303 0.364931 0.637337
O O1 0.556696 0.574934 0.867504
O O2 0.612688 0.537852 0.669970
O O3 0.688410 0.684236 0.828041
O O4 0.684767 0.373286 0.848103
O O5 0.457738 0.122291 0.221934
O O6 0.574961 0.332724 0.158465
O O7 0.465324 0.165928 0.011063
O O8 0.375658 0.149303 0.397255
O O9 0.319444 0.009764 0.223943
O O10 0.814183 0.397229 0.983541
#
# Coordination Sequence:
#
# PCOD9461242 Si02
#       5
#     8   8   8   8   8
#     4   9  19  33  51  77 108 143 187 237 281 338
#     4   9  18  33  53  78 111 149 191 240 287 342
#     4   9  18  33  53  78 111 149 191 240 287 342
#     4   8  17  34  53  74 106 144 183 230 289 338
#     4   9  19  33  51  77 108 143 187 237 281 338
#
# _framework density 24.628952000000002
#
# number of rings (size 3 to 8) (size 9 to 14) (size 15 to 20)
#    0.000    4.000    0.000    0.600    0.000    8.000 
#    0.000   16.000    0.000   24.000    0.000    0.000 
#    0.000    0.000    0.000    0.000    0.000    0.000 
#
# Total GULP energy -222985.539712 kJ/mol
# GULP energy per Si atom -5574.638493 kJ/mol
# Density = 2.457290 g / cm^3
# Si number density = 24.628952 Si / 1000 Ang^3
#
#
#
# Elastic Constant Matrix: (Units=GPa)
#
#
# Indices 1 2 3 4 5 6 
#
# 1 34.7351 2.7231 -2.3873 0.0000 0.0000 0.0000
# 2 2.7231 55.1364 -11.1940 0.0000 0.0000 0.0000
# 3 -2.3873 -11.1940 105.1546 0.0000 0.0000 0.0000
# 4 0.0000 0.0000 0.0000 -36.3018 0.0000 0.0000
# 5 0.0000 0.0000 0.0000 0.0000 10.2879 0.0000
# 6 0.0000 0.0000 0.0000 0.0000 0.0000 60.4962
#
#
#
# Elastic Compliance Matrix: (Units=1/GPa)
#
#
# Indices 1 2 3 4 5 6 
#
# 1 0.028929 -0.001324 0.000516 0.000000 0.000000 0.000000
# 2 -0.001324 0.018598 0.001950 0.000000 0.000000 0.000000
# 3 0.000516 0.001950 0.009729 0.000000 0.000000 0.000000
# 4 0.000000 0.000000 0.000000 -0.027547 0.000000 0.000000
# 5 0.000000 0.000000 0.000000 0.000000 0.097202 0.000000
# 6 0.000000 0.000000 0.000000 0.000000 0.000000 0.016530
#
#
# Mechanical properties :
#
#
# Convention : Reuss Voigt Hill
#
# Bulk Modulus (GPa) = 16.79576 19.25664 18.02620
# Shear Modulus (GPa) = 31.05521 20.62209 25.83865
#
# Velocity S-wave (km/s) = 3.55480 2.89677 3.24252
# Velocity P-wave (km/s) = 4.86653 4.36166 4.62099
#
# Compressibility (1/GPa) = 0.05953882
#
# Stress axis : x y z
#
# Youngs Moduli (GPa) = 34.56792 53.76904 102.78474
#
# Poissons Ratio (x) = 0.07119 -0.05302
# Poissons Ratio (y) = 0.04577 -0.20040
# Poissons Ratio (z) = -0.01783 -0.10484
#
# Static dielectric constant tensor:
#      x y z
#    x 2.053760 0.000000 0.000000 
#    y 0.000000 2.021540 0.000000 
#    z 0.000000 0.000000 1.975330 
# 
# From -- ./inp_files/2200.got.cif
#   From: 2010.05.17/outbox.cif.g08.bks.cpg/sg61_2_cif.got.tgz:2200.got - 2010.06.03 15:17:17.
