data_PCOD9461054
_publ_section_title
;
Structure prediction by ZEFSAII (Michael W. Deem and Ramdas Pophale) SiO2 
 PCOD9461054
Probable space group: P B C A
;
_chemical_formula_sum "Si O2"
_cell_formula_units_Z 60
_cell_length_a 17.543118
_cell_length_b 14.409156
_cell_length_c 10.287550
_cell_angle_alpha 90.000000
_cell_angle_beta 90.000000
_cell_angle_gamma 90.000000
_cell_volume 2600.502567
_symmetry_space_group_name_H-M "P B C A"
_symmetry_group_IT_number 61
_symmetry_cell_setting 'orthorhombic'
loop_
_space_group_symop_operation_xyz
x,y,z
1/2-x,-y,1/2+z
1/2+x,1/2-y,-z
-x,1/2+y,1/2-z
-x,-y,-z
1/2+x,y,1/2-z
1/2-x,1/2+y,z
x,1/2-y,1/2+z
loop_
_atom_site_type_symbol
_atom_site_label
_atom_site_fract_x
_atom_site_fract_y
_atom_site_fract_z
Si Si1 0.052154 0.666154 0.083838
Si Si2 0.829211 0.015950 0.416468
Si Si3 0.092410 0.397099 0.305394
Si Si4 0.000000 0.500000 0.500000
Si Si5 0.593295 0.312833 0.725997
Si Si6 0.770259 0.831161 0.546497
Si Si7 0.593474 0.826329 0.612526
Si Si8 0.684323 0.140319 0.438585
O O1 0.105369 0.584032 0.029344
O O2 0.082429 0.688091 0.231641
O O3 0.964166 0.645818 0.120236
O O4 0.056461 0.747137 0.978209
O O5 0.871457 0.966091 0.297768
O O6 0.796155 0.931787 0.499879
O O7 0.754781 0.079353 0.390192
O O8 0.016513 0.431216 0.375531
O O9 0.074545 0.294537 0.249748
O O10 0.157037 0.386982 0.417571
O O11 0.058289 0.576497 0.432251
O O12 0.678090 0.312124 0.670840
O O13 0.605262 0.371088 0.857144
O O14 0.682449 0.826266 0.579799
O O15 0.791611 0.748208 0.447077
#
# Coordination Sequence:
#
# PCOD9461054 Si02
#       8
#     8   8   8   4   8   8   8   8
#     4  12  27  47  76 108 154 194 255 307 383 452
#     4  12  25  46  74 108 145 191 255 315 365 457
#     4  11  24  43  73 104 142 194 245 294 380 447
#     4  12  22  44  74 102 144 192 248 300 376 454
#     4  11  25  47  72 104 154 197 235 312 377 448
#     4  11  26  46  76 107 148 193 253 306 382 446
#     4  12  26  48  77 113 147 205 248 320 377 463
#     4  11  24  43  70 105 143 195 239 308 367 444
#
# _framework density 23.072462000000002
#
# number of rings (size 3 to 8) (size 9 to 14) (size 15 to 20)
#    0.000    0.533    5.333    2.400    3.733    0.533 
#    0.000    2.667    0.000    0.000    0.000    0.000 
#    0.000    0.000    0.000    0.000    0.000    0.000 
#
# Total GULP energy -334535.167478 kJ/mol
# GULP energy per Si atom -5575.586125 kJ/mol
# Density = 2.301995 g / cm^3
# Si number density = 23.072462 Si / 1000 Ang^3
#
#
#
# Elastic Constant Matrix: (Units=GPa)
#
#
# Indices 1 2 3 4 5 6 
#
# 1 88.6139 -2.7794 -3.9125 0.0000 0.0000 0.0000
# 2 -2.7794 93.2629 -0.9470 0.0000 0.0000 0.0000
# 3 -3.9125 -0.9470 47.9511 0.0000 0.0000 0.0000
# 4 0.0000 0.0000 0.0000 27.7644 0.0000 0.0000
# 5 0.0000 0.0000 0.0000 0.0000 22.3875 0.0000
# 6 0.0000 0.0000 0.0000 0.0000 0.0000 32.7812
#
#
#
# Elastic Compliance Matrix: (Units=1/GPa)
#
#
# Indices 1 2 3 4 5 6 
#
# 1 0.011337 0.000347 0.000932 0.000000 0.000000 0.000000
# 2 0.000347 0.010735 0.000240 0.000000 0.000000 0.000000
# 3 0.000932 0.000240 0.020935 0.000000 0.000000 0.000000
# 4 0.000000 0.000000 0.000000 0.036017 0.000000 0.000000
# 5 0.000000 0.000000 0.000000 0.000000 0.044668 0.000000
# 6 0.000000 0.000000 0.000000 0.000000 0.000000 0.030505
#
#
# Mechanical properties :
#
#
# Convention : Reuss Voigt Hill
#
# Bulk Modulus (GPa) = 21.71714 23.83891 22.77803
# Shear Modulus (GPa) = 30.02865 32.41774 31.22320
#
# Velocity S-wave (km/s) = 3.61154 3.75245 3.68267
# Velocity P-wave (km/s) = 5.17918 5.39714 5.28929
#
# Compressibility (1/GPa) = 0.04604657
#
# Stress axis : x y z
#
# Youngs Moduli (GPa) = 88.20714 93.15177 47.76606
#
# Poissons Ratio (x) = -0.03235 -0.04451
# Poissons Ratio (y) = -0.03064 -0.01148
# Poissons Ratio (z) = -0.08220 -0.02239
#
# Static dielectric constant tensor:
#      x y z
#    x 1.978050 0.000000 0.000000 
#    y 0.000000 2.005810 0.000000 
#    z 0.000000 0.000000 1.747020 
# 
# From -- ./inp_files/6258.got.cif
#   From: 2010.05.17/outbox.cif.g08.bks.cpg/sg61_4_cif.got.tgz:6258.got - 2010.06.03 15:17:17.
