data_PCOD9461848
_publ_section_title
;
Structure prediction by ZEFSAII (Michael W. Deem and Ramdas Pophale) SiO2 
 PCOD9461848
Probable space group: P N M A
;
_chemical_formula_sum "Si O2"
_cell_formula_units_Z 52
_cell_length_a 14.778320
_cell_length_b 7.694657
_cell_length_c 22.786107
_cell_angle_alpha 90.000000
_cell_angle_beta 90.000000
_cell_angle_gamma 90.000000
_cell_volume 2591.101728
_symmetry_space_group_name_H-M "P N M A"
_symmetry_group_IT_number 62
_symmetry_cell_setting 'orthorhombic'
loop_
_space_group_symop_operation_xyz
x,y,z
1/2-x,-y,1/2+z
1/2+x,1/2-y,1/2-z
-x,1/2+y,-z
-x,-y,-z
1/2+x,y,1/2-z
1/2-x,1/2+y,1/2+z
x,1/2-y,z
loop_
_atom_site_type_symbol
_atom_site_label
_atom_site_fract_x
_atom_site_fract_y
_atom_site_fract_z
Si Si1 0.628095 0.250000 0.755455
Si Si2 0.435303 0.540999 0.944635
Si Si3 0.437447 0.452125 0.157622
Si Si4 0.461098 0.044538 0.435567
Si Si5 0.683806 0.750000 0.308222
Si Si6 0.765285 0.459185 0.023672
Si Si7 0.498334 0.750000 0.346024
Si Si8 0.740700 0.440253 0.391514
O O1 0.589023 0.418591 0.790020
O O2 0.737083 0.250000 0.760500
O O3 0.594140 0.250000 0.689590
O O4 0.432147 0.750000 0.940897
O O5 0.481092 0.483181 0.883660
O O6 0.332701 0.477962 0.954397
O O7 0.500000 0.500000 0.000000
O O8 0.451882 0.250000 0.176041
O O9 0.349347 0.451428 0.115241
O O10 0.474201 0.250000 0.424451
O O11 0.353371 0.004690 0.437542
O O12 0.500000 0.000000 0.500000
O O13 0.504500 0.918050 0.387724
O O14 0.577482 0.750000 0.296985
O O15 0.702366 0.585244 0.349404
O O16 0.760015 0.250000 0.017672
O O17 0.783107 0.531632 0.958878
O O18 0.711321 0.250000 0.372030
#
# Coordination Sequence:
#
# PCOD9461848 Si02
#       8
#     4   8   8   8   4   8   4   8
#     4  10  24  44  66  86 120 164 213 262 303 355
#     4  10  19  30  50  85 128 164 204 252 313 379
#     4   9  19  36  56  86 121 162 212 258 295 359
#     4  11  24  43  65  94 131 161 201 265 326 388
#     4  10  22  42  64  84 122 156 203 269 294 352
#     4  10  20  33  52  84 128 166 191 245 322 369
#     4  12  26  46  68  98 120 168 218 255 325 385
#     4  10  18  30  57  89 119 161 205 241 297 370
#
# _framework density 20.068681999999999
#
# number of rings (size 3 to 8) (size 9 to 14) (size 15 to 20)
#    0.000    1.846    3.077    0.923    2.154    2.462 
#    2.769    0.000    0.000    0.000    0.000    0.000 
#    0.000    0.000    0.000    0.000    0.000    0.000 
#
# Total GULP energy -290305.725327 kJ/mol
# GULP energy per Si atom -5582.802410 kJ/mol
# Density = 2.002301 g / cm^3
# Si number density = 20.068682 Si / 1000 Ang^3
#
#
#
# Elastic Constant Matrix: (Units=GPa)
#
#
# Indices 1 2 3 4 5 6 
#
# 1 113.0732 24.0926 18.0718 0.0000 0.0000 0.0000
# 2 24.0926 83.2802 18.5058 0.0000 0.0000 0.0000
# 3 18.0718 18.5058 52.7951 0.0000 0.0000 0.0000
# 4 0.0000 0.0000 0.0000 8.8987 0.0000 0.0000
# 5 0.0000 0.0000 0.0000 0.0000 27.1861 0.0000
# 6 0.0000 0.0000 0.0000 0.0000 0.0000 -15.4021
#
#
#
# Elastic Compliance Matrix: (Units=1/GPa)
#
#
# Indices 1 2 3 4 5 6 
#
# 1 0.009729 -0.002250 -0.002542 0.000000 0.000000 0.000000
# 2 -0.002250 0.013542 -0.003977 0.000000 0.000000 0.000000
# 3 -0.002542 -0.003977 0.021205 0.000000 0.000000 0.000000
# 4 0.000000 0.000000 0.000000 0.112376 0.000000 0.000000
# 5 0.000000 0.000000 0.000000 0.000000 0.036784 0.000000
# 6 0.000000 0.000000 0.000000 0.000000 0.000000 -0.064926
#
#
# Mechanical properties :
#
#
# Convention : Reuss Voigt Hill
#
# Bulk Modulus (GPa) = 37.11940 41.16545 39.14243
# Shear Modulus (GPa) = 32.21104 16.70177 24.45640
#
# Velocity S-wave (km/s) = 4.01064 2.88797 3.49468
# Velocity P-wave (km/s) = 6.32324 5.62826 5.98584
#
# Compressibility (1/GPa) = 0.02694009
#
# Stress axis : x y z
#
# Youngs Moduli (GPa) = 102.78080 73.84324 47.15838
#
# Poissons Ratio (x) = 0.16614 0.11987
# Poissons Ratio (y) = 0.23124 0.18753
# Poissons Ratio (z) = 0.26124 0.29365
#
# Static dielectric constant tensor:
#      x y z
#    x 1.739570 0.000000 0.000000 
#    y 0.000000 1.701730 0.000000 
#    z 0.000000 0.000000 1.649720 
# 
# From -- ./inp_files/27038.got.cif
#   From: 2010.05.17/outbox.cif.g08.bks.cpg/sg62_14_cif.got.tgz:27038.got - 2010.06.03 15:25:27.
