data_PCOD9461947
_publ_section_title
;
Structure prediction by ZEFSAII (Michael W. Deem and Ramdas Pophale) SiO2 
 PCOD9461947
Probable space group: P N M A
;
_chemical_formula_sum "Si O2"
_cell_formula_units_Z 64
_cell_length_a 17.899417
_cell_length_b 19.931987
_cell_length_c 9.029418
_cell_angle_alpha 90.000000
_cell_angle_beta 90.000000
_cell_angle_gamma 90.000000
_cell_volume 3221.434010
_symmetry_space_group_name_H-M "P N M A"
_symmetry_group_IT_number 62
_symmetry_cell_setting 'orthorhombic'
loop_
_space_group_symop_operation_xyz
x,y,z
1/2-x,-y,1/2+z
1/2+x,1/2-y,1/2-z
-x,1/2+y,-z
-x,-y,-z
1/2+x,y,1/2-z
1/2-x,1/2+y,1/2+z
x,1/2-y,z
loop_
_atom_site_type_symbol
_atom_site_label
_atom_site_fract_x
_atom_site_fract_y
_atom_site_fract_z
Si Si1 0.098707 0.016171 0.807387
Si Si2 0.918369 0.897805 0.909831
Si Si3 0.844919 0.105232 0.693316
Si Si4 0.245359 0.373175 0.067184
Si Si5 0.953741 0.506053 0.650938
Si Si6 0.685181 0.617176 0.640651
Si Si7 0.770816 0.535214 0.412537
Si Si8 0.438302 0.327081 0.561930
O O1 0.152766 0.047219 0.680682
O O2 0.013189 0.024341 0.765432
O O3 0.125468 0.939726 0.811926
O O4 0.102433 0.042935 0.974086
O O5 0.841974 0.855189 0.924628
O O6 0.992789 0.863933 0.978044
O O7 0.929762 0.927188 0.743062
O O8 0.792807 0.144842 0.578455
O O9 0.884170 0.041271 0.618448
O O10 0.791563 0.069845 0.810999
O O11 0.909927 0.144864 0.779325
O O12 0.284882 0.347159 0.214275
O O13 0.254148 0.455594 0.075329
O O14 0.000000 0.500000 0.500000
O O15 0.753657 0.575159 0.564874
O O16 0.637475 0.664224 0.534342
O O17 0.459307 0.250000 0.576648
#
# Coordination Sequence:
#
# PCOD9461947 Si02
#       8
#     8   8   8   8   8   8   8   8
#     4  11  19  33  56  90 127 158 184 243 305 374
#     4  12  21  38  59  89 123 160 197 247 307 361
#     4  11  21  37  58  88 123 158 195 243 307 369
#     4  11  20  34  60  96 125 150 185 243 307 379
#     4  12  23  32  56  95 132 154 188 235 310 389
#     4  10  20  35  59  91 124 154 193 237 311 365
#     4  10  18  31  55  91 132 155 177 227 308 378
#     4  11  25  45  62  77 110 164 221 257 289 349
#
# _framework density 19.86693
#
# number of rings (size 3 to 8) (size 9 to 14) (size 15 to 20)
#    0.000    1.000    6.250    3.375    1.750    0.000 
#    0.000    1.875    0.000    0.000    0.000    0.000 
#    0.000    0.000    0.000    0.000    0.000    0.000 
#
# Total GULP energy -356409.424584 kJ/mol
# GULP energy per Si atom -5568.897259 kJ/mol
# Density = 1.982171 g / cm^3
# Si number density = 19.866930 Si / 1000 Ang^3
#
#
#
# Elastic Constant Matrix: (Units=GPa)
#
#
# Indices 1 2 3 4 5 6 
#
# 1 105.1043 24.7099 22.5332 0.0000 0.0000 0.0000
# 2 24.7099 28.8748 12.6300 0.0000 0.0000 0.0000
# 3 22.5332 12.6300 91.5941 0.0000 0.0000 0.0000
# 4 0.0000 0.0000 0.0000 4.2139 0.0000 0.0000
# 5 0.0000 0.0000 0.0000 0.0000 36.0081 0.0000
# 6 0.0000 0.0000 0.0000 0.0000 0.0000 8.0076
#
#
#
# Elastic Compliance Matrix: (Units=1/GPa)
#
#
# Indices 1 2 3 4 5 6 
#
# 1 0.012142 -0.009667 -0.001654 0.000000 0.000000 0.000000
# 2 -0.009667 0.044552 -0.003765 0.000000 0.000000 0.000000
# 3 -0.001654 -0.003765 0.011844 0.000000 0.000000 0.000000
# 4 0.000000 0.000000 0.000000 0.237313 0.000000 0.000000
# 5 0.000000 0.000000 0.000000 0.000000 0.027772 0.000000
# 6 0.000000 0.000000 0.000000 0.000000 0.000000 0.124881
#
#
# Mechanical properties :
#
#
# Convention : Reuss Voigt Hill
#
# Bulk Modulus (GPa) = 26.06528 38.36881 32.21705
# Shear Modulus (GPa) = 9.97082 20.69257 15.33169
#
# Velocity S-wave (km/s) = 2.24270 3.23082 2.78100
# Velocity P-wave (km/s) = 4.45586 5.76823 5.15398
#
# Compressibility (1/GPa) = 0.03836521
#
# Stress axis : x y z
#
# Youngs Moduli (GPa) = 82.36125 22.44581 84.43222
#
# Poissons Ratio (x) = 0.21698 0.13965
# Poissons Ratio (y) = 0.79617 0.31790
# Poissons Ratio (z) = 0.13623 0.08451
#
# Static dielectric constant tensor:
#      x y z
#    x 1.757560 0.000000 0.000000 
#    y 0.000000 1.693920 0.000000 
#    z 0.000000 0.000000 1.809550 
# 
# From -- ./inp_files/8177.got.cif
#   From: 2010.05.17/outbox.cif.g08.bks.cpg/sg62_5_cif.got.tgz:8177.got - 2010.06.03 15:25:27.
