data_PCOD9461142
_publ_section_title
;
Structure prediction by ZEFSAII (Michael W. Deem and Ramdas Pophale) SiO2 
 PCOD9461142
Probable space group: P B C A
;
_chemical_formula_sum "Si O2"
_cell_formula_units_Z 56
_cell_length_a 11.590461
_cell_length_b 9.825700
_cell_length_c 18.905677
_cell_angle_alpha 90.000000
_cell_angle_beta 90.000000
_cell_angle_gamma 90.000000
_cell_volume 2153.061543
_symmetry_space_group_name_H-M "P B C A"
_symmetry_group_IT_number 61
_symmetry_cell_setting 'orthorhombic'
loop_
_space_group_symop_operation_xyz
x,y,z
1/2-x,-y,1/2+z
1/2+x,1/2-y,-z
-x,1/2+y,1/2-z
-x,-y,-z
1/2+x,y,1/2-z
1/2-x,1/2+y,z
x,1/2-y,1/2+z
loop_
_atom_site_type_symbol
_atom_site_label
_atom_site_fract_x
_atom_site_fract_y
_atom_site_fract_z
Si Si1 0.811962 0.411655 0.438036
Si Si2 0.490028 0.635300 0.120884
Si Si3 0.992106 0.777046 0.525701
Si Si4 0.311548 0.552504 0.916127
Si Si5 0.842816 0.971188 0.308049
Si Si6 0.820952 0.697709 0.253526
Si Si7 0.086099 0.015416 0.366411
O O1 0.905113 0.520647 0.410913
O O2 0.777457 0.463159 0.514834
O O3 0.711647 0.415829 0.381388
O O4 0.882382 0.272008 0.446045
O O5 0.609256 0.552930 0.128436
O O6 0.430200 0.679039 0.193206
O O7 0.494722 0.748592 0.058526
O O8 0.893810 0.673190 0.556183
O O9 0.965226 0.918962 0.562454
O O10 0.188652 0.589022 0.882956
O O11 0.784711 0.114296 0.288092
O O12 0.979172 0.973730 0.317770
O O13 0.802609 0.858264 0.252114
O O14 0.853156 0.634791 0.178911
#
# Coordination Sequence:
#
# PCOD9461142 Si02
#       7
#     8   8   8   8   8   8   8
#     4   8  17  41  70  91 129 182 223 277 338 416
#     4   8  18  41  67  93 129 185 223 274 341 415
#     4   9  19  41  68  97 134 175 230 276 348 406
#     4   9  20  39  67  99 134 174 226 279 343 408
#     4  11  26  47  69  99 137 185 232 280 349 413
#     4  11  27  45  70  94 141 188 231 281 350 414
#     4  12  27  38  66 107 133 175 229 299 333 411
#
# _framework density 26.009474999999998
#
# number of rings (size 3 to 8) (size 9 to 14) (size 15 to 20)
#    0.000    2.286    0.000    2.571    6.000    5.143 
#    7.714    0.000    0.000    0.000    0.000    0.000 
#    0.000    0.000    0.000    0.000    0.000    0.000 
#
# Total GULP energy -313704.399849 kJ/mol
# GULP energy per Si atom -5601.864283 kJ/mol
# Density = 2.595028 g / cm^3
# Si number density = 26.009475 Si / 1000 Ang^3
#
#
#
# Elastic Constant Matrix: (Units=GPa)
#
#
# Indices 1 2 3 4 5 6 
#
# 1 142.4714 35.0266 31.7220 0.0000 0.0000 0.0000
# 2 35.0266 71.6382 7.0423 0.0000 0.0000 0.0000
# 3 31.7220 7.0423 82.7625 0.0000 0.0000 0.0000
# 4 0.0000 0.0000 0.0000 41.2192 0.0000 0.0000
# 5 0.0000 0.0000 0.0000 0.0000 35.0976 0.0000
# 6 0.0000 0.0000 0.0000 0.0000 0.0000 28.6439
#
#
#
# Elastic Compliance Matrix: (Units=1/GPa)
#
#
# Indices 1 2 3 4 5 6 
#
# 1 0.008650 -0.003936 -0.002981 0.000000 0.000000 0.000000
# 2 -0.003936 0.015868 0.000159 0.000000 0.000000 0.000000
# 3 -0.002981 0.000159 0.013212 0.000000 0.000000 0.000000
# 4 0.000000 0.000000 0.000000 0.024261 0.000000 0.000000
# 5 0.000000 0.000000 0.000000 0.000000 0.028492 0.000000
# 6 0.000000 0.000000 0.000000 0.000000 0.000000 0.034911
#
#
# Mechanical properties :
#
#
# Convention : Reuss Voigt Hill
#
# Bulk Modulus (GPa) = 41.29988 49.38378 45.34183
# Shear Modulus (GPa) = 34.01769 35.86422 34.94096
#
# Velocity S-wave (km/s) = 3.62041 3.71737 3.66921
# Velocity P-wave (km/s) = 5.77838 6.11990 5.95159
#
# Compressibility (1/GPa) = 0.02421315
#
# Stress axis : x y z
#
# Youngs Moduli (GPa) = 115.60160 63.01937 75.69034
#
# Poissons Ratio (x) = 0.24808 0.22561
# Poissons Ratio (y) = 0.45507 -0.01200
# Poissons Ratio (z) = 0.34457 -0.00999
#
# Static dielectric constant tensor:
#      x y z
#    x 1.991220 0.000000 0.000000 
#    y 0.000000 2.049560 0.000000 
#    z 0.000000 0.000000 2.009670 
# 
# From -- ./inp_files/10299.got.cif
#   From: 2010.05.17/outbox.cif.g08.bks.cpg/sg61_6_cif.got.tgz:10299.got - 2010.06.03 15:17:17.
