data_PCOD9461144
_publ_section_title
;
Structure prediction by ZEFSAII (Michael W. Deem and Ramdas Pophale) SiO2 
 PCOD9461144
Probable space group: P B C A
;
_chemical_formula_sum "Si O2"
_cell_formula_units_Z 48
_cell_length_a 15.860777
_cell_length_b 13.771427
_cell_length_c 9.048264
_cell_angle_alpha 90.000000
_cell_angle_beta 90.000000
_cell_angle_gamma 90.000000
_cell_volume 1976.371883
_symmetry_space_group_name_H-M "P B C A"
_symmetry_group_IT_number 61
_symmetry_cell_setting 'orthorhombic'
loop_
_space_group_symop_operation_xyz
x,y,z
1/2-x,-y,1/2+z
1/2+x,1/2-y,-z
-x,1/2+y,1/2-z
-x,-y,-z
1/2+x,y,1/2-z
1/2-x,1/2+y,z
x,1/2-y,1/2+z
loop_
_atom_site_type_symbol
_atom_site_label
_atom_site_fract_x
_atom_site_fract_y
_atom_site_fract_z
Si Si1 0.690570 0.072854 0.745163
Si Si2 0.218128 0.083865 0.088584
Si Si3 0.072365 0.829185 0.850700
Si Si4 0.814561 0.222340 0.882858
Si Si5 0.442832 0.540338 0.288616
Si Si6 0.027998 0.142767 0.599315
O O1 0.694074 0.048821 0.573779
O O2 0.768421 0.143162 0.783671
O O3 0.606707 0.128051 0.793116
O O4 0.704177 0.978071 0.846070
O O5 0.245959 0.195698 0.075844
O O6 0.141326 0.064824 0.200119
O O7 0.114277 0.779978 0.707395
O O8 0.023589 0.926874 0.808885
O O9 0.002242 0.752430 0.904709
O O10 0.143443 0.828934 0.976300
O O11 0.455025 0.429002 0.338318
O O12 0.447001 0.603476 0.438203
#
# Coordination Sequence:
#
# PCOD9461144 Si02
#       6
#     8   8   8   8   8   8
#     4  12  28  46  74 106 146 187 244 297 364 434
#     4  12  28  47  73 109 144 192 239 301 364 432
#     4  12  25  46  75 105 142 191 239 298 363 428
#     4  12  27  47  73 106 146 189 242 299 362 433
#     4  11  26  47  75 103 148 189 241 299 363 429
#     4  11  26  47  72 106 145 190 241 300 359 433
#
# _framework density 24.286926999999999
#
# number of rings (size 3 to 8) (size 9 to 14) (size 15 to 20)
#    0.000    0.333    3.333    4.000   11.667    3.333 
#    0.000    0.000    0.000    0.000    0.000    0.000 
#    0.000    0.000    0.000    0.000    0.000    0.000 
#
# Total GULP energy -269366.535679 kJ/mol
# GULP energy per Si atom -5611.802827 kJ/mol
# Density = 2.423165 g / cm^3
# Si number density = 24.286927 Si / 1000 Ang^3
#
#
#
# Elastic Constant Matrix: (Units=GPa)
#
#
# Indices 1 2 3 4 5 6 
#
# 1 73.7290 18.6963 35.8249 0.0000 0.0000 0.0000
# 2 18.6963 76.4246 2.8107 0.0000 0.0000 0.0000
# 3 35.8249 2.8107 120.4695 0.0000 0.0000 0.0000
# 4 0.0000 0.0000 0.0000 24.2710 0.0000 0.0000
# 5 0.0000 0.0000 0.0000 0.0000 51.7794 0.0000
# 6 0.0000 0.0000 0.0000 0.0000 0.0000 36.1437
#
#
#
# Elastic Compliance Matrix: (Units=1/GPa)
#
#
# Indices 1 2 3 4 5 6 
#
# 1 0.016979 -0.003971 -0.004956 0.000000 0.000000 0.000000
# 2 -0.003971 0.014025 0.000854 0.000000 0.000000 0.000000
# 3 -0.004956 0.000854 0.009755 0.000000 0.000000 0.000000
# 4 0.000000 0.000000 0.000000 0.041201 0.000000 0.000000
# 5 0.000000 0.000000 0.000000 0.000000 0.019313 0.000000
# 6 0.000000 0.000000 0.000000 0.000000 0.000000 0.027667
#
#
# Mechanical properties :
#
#
# Convention : Reuss Voigt Hill
#
# Bulk Modulus (GPa) = 40.63313 42.80967 41.72140
# Shear Modulus (GPa) = 32.61767 36.65824 34.63796
#
# Velocity S-wave (km/s) = 3.66869 3.88929 3.78060
# Velocity P-wave (km/s) = 5.89173 6.15091 6.02271
#
# Compressibility (1/GPa) = 0.02461046
#
# Stress axis : x y z
#
# Youngs Moduli (GPa) = 58.89789 71.30165 102.51310
#
# Poissons Ratio (x) = 0.28316 0.50809
# Poissons Ratio (y) = 0.23390 -0.08752
# Poissons Ratio (z) = 0.29192 -0.06087
#
# Static dielectric constant tensor:
#      x y z
#    x 1.930440 0.000000 0.000000 
#    y 0.000000 1.945560 0.000000 
#    z 0.000000 0.000000 1.889050 
# 
# From -- ./inp_files/3463.got.cif
#   From: 2010.05.17/outbox.cif.g08.bks.cpg/sg61_2_cif.got.tgz:3463.got - 2010.06.03 15:17:17.
