data_PCOD9461046
_publ_section_title
;
Structure prediction by ZEFSAII (Michael W. Deem and Ramdas Pophale) SiO2 
 PCOD9461046
Probable space group: P B C A
;
_chemical_formula_sum "Si O2"
_cell_formula_units_Z 56
_cell_length_a 19.876606
_cell_length_b 14.088992
_cell_length_c 8.568678
_cell_angle_alpha 90.000000
_cell_angle_beta 90.000000
_cell_angle_gamma 90.000000
_cell_volume 2399.584094
_symmetry_space_group_name_H-M "P B C A"
_symmetry_group_IT_number 61
_symmetry_cell_setting 'orthorhombic'
loop_
_space_group_symop_operation_xyz
x,y,z
1/2-x,-y,1/2+z
1/2+x,1/2-y,-z
-x,1/2+y,1/2-z
-x,-y,-z
1/2+x,y,1/2-z
1/2-x,1/2+y,z
x,1/2-y,1/2+z
loop_
_atom_site_type_symbol
_atom_site_label
_atom_site_fract_x
_atom_site_fract_y
_atom_site_fract_z
Si Si1 0.675968 0.222774 0.214103
Si Si2 0.438839 0.407531 0.617380
Si Si3 0.471936 0.723538 0.876637
Si Si4 0.172383 0.964584 0.820122
Si Si5 0.269501 0.882201 0.085391
Si Si6 0.892578 0.909112 0.934528
Si Si7 0.545952 0.561374 0.709517
O O1 0.601065 0.266071 0.202165
O O2 0.729437 0.300800 0.276928
O O3 0.667970 0.143298 0.347243
O O4 0.684465 0.170910 0.046584
O O5 0.493629 0.324678 0.600398
O O6 0.379408 0.392312 0.738892
O O7 0.479094 0.502437 0.664034
O O8 0.410364 0.424956 0.444971
O O9 0.523126 0.660036 0.779749
O O10 0.454045 0.662946 0.031602
O O11 0.210382 0.022337 0.681206
O O12 0.211306 0.914313 0.963354
O O13 0.130408 0.046892 0.904233
O O14 0.916829 0.995649 0.830995
#
# Coordination Sequence:
#
# PCOD9461046 Si02
#       7
#     8   8   8   8   8   8   8
#     4  12  23  45  77 106 145 196 261 309 383 469
#     4  11  25  43  70 116 154 201 245 319 391 468
#     4  12  23  41  76 111 152 199 246 307 389 473
#     4  12  27  48  74 107 151 198 270 319 390 453
#     4  12  26  50  75 108 147 206 263 328 379 460
#     4  12  23  43  74 108 145 198 249 309 380 478
#     4  11  24  42  70 110 159 193 245 308 392 471
#
# _framework density 23.337378999999999
#
# number of rings (size 3 to 8) (size 9 to 14) (size 15 to 20)
#    0.000    0.286    5.714    3.000    2.000    0.000 
#    5.143    0.000    0.000    0.000    0.000    0.000 
#    0.000    0.000    0.000    0.000    0.000    0.000 
#
# Total GULP energy -312642.244704 kJ/mol
# GULP energy per Si atom -5582.897227 kJ/mol
# Density = 2.328426 g / cm^3
# Si number density = 23.337379 Si / 1000 Ang^3
#
#
#
# Elastic Constant Matrix: (Units=GPa)
#
#
# Indices 1 2 3 4 5 6 
#
# 1 42.9817 21.4559 42.2366 0.0000 0.0000 0.0000
# 2 21.4559 78.6305 31.4599 0.0000 0.0000 0.0000
# 3 42.2366 31.4599 121.1484 0.0000 0.0000 0.0000
# 4 0.0000 0.0000 0.0000 14.8394 0.0000 0.0000
# 5 0.0000 0.0000 0.0000 0.0000 39.6152 0.0000
# 6 0.0000 0.0000 0.0000 0.0000 0.0000 25.9710
#
#
#
# Elastic Compliance Matrix: (Units=1/GPa)
#
#
# Indices 1 2 3 4 5 6 
#
# 1 0.037459 -0.005576 -0.011612 0.000000 0.000000 0.000000
# 2 -0.005576 0.015022 -0.001957 0.000000 0.000000 0.000000
# 3 -0.011612 -0.001957 0.012811 0.000000 0.000000 0.000000
# 4 0.000000 0.000000 0.000000 0.067388 0.000000 0.000000
# 5 0.000000 0.000000 0.000000 0.000000 0.025243 0.000000
# 6 0.000000 0.000000 0.000000 0.000000 0.000000 0.038504
#
#
# Mechanical properties :
#
#
# Convention : Reuss Voigt Hill
#
# Bulk Modulus (GPa) = 37.03246 48.11839 42.57543
# Shear Modulus (GPa) = 20.51548 25.92566 23.22057
#
# Velocity S-wave (km/s) = 2.96815 3.33664 3.15778
# Velocity P-wave (km/s) = 5.25826 5.95883 5.61947
#
# Compressibility (1/GPa) = 0.02700334
#
# Stress axis : x y z
#
# Youngs Moduli (GPa) = 26.69550 66.56826 78.05900
#
# Poissons Ratio (x) = 0.37117 0.90640
# Poissons Ratio (y) = 0.14885 0.15277
# Poissons Ratio (z) = 0.30998 0.13028
#
# Static dielectric constant tensor:
#      x y z
#    x 1.882170 0.000000 0.000000 
#    y 0.000000 1.901820 0.000000 
#    z 0.000000 0.000000 1.940440 
# 
# From -- ./inp_files/3947.got.cif
#   From: 2010.05.17/outbox.cif.g08.bks.cpg/sg61_2_cif.got.tgz:3947.got - 2010.06.03 15:17:17.
