data_PCOD9461392
_publ_section_title
;
Structure prediction by ZEFSAII (Michael W. Deem and Ramdas Pophale) SiO2 
 PCOD9461392
Probable space group: P N M A
;
_chemical_formula_sum "Si O2"
_cell_formula_units_Z 56
_cell_length_a 22.912417
_cell_length_b 8.666620
_cell_length_c 18.441283
_cell_angle_alpha 90.000000
_cell_angle_beta 90.000000
_cell_angle_gamma 90.000000
_cell_volume 3661.944788
_symmetry_space_group_name_H-M "P N M A"
_symmetry_group_IT_number 62
_symmetry_cell_setting 'orthorhombic'
loop_
_space_group_symop_operation_xyz
x,y,z
1/2-x,-y,1/2+z
1/2+x,1/2-y,1/2-z
-x,1/2+y,-z
-x,-y,-z
1/2+x,y,1/2-z
1/2-x,1/2+y,1/2+z
x,1/2-y,z
loop_
_atom_site_type_symbol
_atom_site_label
_atom_site_fract_x
_atom_site_fract_y
_atom_site_fract_z
Si Si1 0.565009 0.935489 0.998410
Si Si2 0.687747 0.936667 0.721264
Si Si3 0.314306 0.433206 0.734782
Si Si4 0.282237 0.934114 0.588593
Si Si5 0.150333 0.434596 0.381013
Si Si6 0.649675 0.936915 0.871760
Si Si7 0.217663 0.935024 0.933337
O O1 0.563445 0.750000 0.997722
O O2 0.602260 0.991801 0.067171
O O3 0.600270 0.991196 0.926799
O O4 0.500000 0.000000 0.000000
O O5 0.694882 0.750000 0.723219
O O6 0.644595 0.980263 0.786811
O O7 0.678926 0.977682 0.637219
O O8 0.749272 0.010477 0.743747
O O9 0.318256 0.250000 0.736985
O O10 0.320821 0.493431 0.652787
O O11 0.353307 0.505742 0.798476
O O12 0.283700 0.750000 0.595853
O O13 0.214338 0.984711 0.600948
O O14 0.298955 0.984838 0.508030
O O15 0.145889 0.250000 0.381706
O O16 0.215047 0.474972 0.412310
O O17 0.649040 0.750000 0.874557
O O18 0.215269 0.750000 0.942779
#
# Coordination Sequence:
#
# PCOD9461392 Si02
#       7
#     8   8   8   8   8   8   8
#     4  11  21  33  47  66  87 117 157 195 231 267
#     4   8  15  28  42  60  83 112 145 180 218 262
#     4  10  18  27  41  62  85 112 146 180 218 264
#     4  10  17  27  42  61  87 118 149 177 212 260
#     4  10  19  32  46  61  85 116 149 187 227 266
#     4   8  15  28  44  58  80 114 149 182 220 261
#     4   9  16  25  41  64  89 112 142 178 217 260
#
# _framework density 15.292420999999999
#
# number of rings (size 3 to 8) (size 9 to 14) (size 15 to 20)
#    0.000    2.571    1.429    4.286    0.000    2.286 
#    0.000    0.714    0.000    0.000    0.000    0.000 
#    0.000    1.143    0.000    3.143    0.000    4.571 
#
# Total GULP energy -311791.595128 kJ/mol
# GULP energy per Si atom -5567.707056 kJ/mol
# Density = 1.525761 g / cm^3
# Si number density = 15.292421 Si / 1000 Ang^3
#
#
#
# Elastic Constant Matrix: (Units=GPa)
#
#
# Indices 1 2 3 4 5 6 
#
# 1 50.4706 18.5011 47.9332 0.0000 0.0000 0.0000
# 2 18.5011 35.6132 48.3405 0.0000 0.0000 0.0000
# 3 47.9332 48.3405 163.6089 0.0000 0.0000 0.0000
# 4 0.0000 0.0000 0.0000 26.3921 0.0000 0.0000
# 5 0.0000 0.0000 0.0000 0.0000 12.8669 0.0000
# 6 0.0000 0.0000 0.0000 0.0000 0.0000 14.2388
#
#
#
# Elastic Compliance Matrix: (Units=1/GPa)
#
#
# Indices 1 2 3 4 5 6 
#
# 1 0.028133 -0.005722 -0.006552 0.000000 0.000000 0.000000
# 2 -0.005722 0.048045 -0.012519 0.000000 0.000000 0.000000
# 3 -0.006552 -0.012519 0.011731 0.000000 0.000000 0.000000
# 4 0.000000 0.000000 0.000000 0.037890 0.000000 0.000000
# 5 0.000000 0.000000 0.000000 0.000000 0.077719 0.000000
# 6 0.000000 0.000000 0.000000 0.000000 0.000000 0.070231
#
#
# Mechanical properties :
#
#
# Convention : Reuss Voigt Hill
#
# Bulk Modulus (GPa) = 26.09387 53.24913 39.67150
# Shear Modulus (GPa) = 14.87610 19.69409 17.28509
#
# Velocity S-wave (km/s) = 3.12232 3.59253 3.36565
# Velocity P-wave (km/s) = 5.48624 7.21835 6.41106
#
# Compressibility (1/GPa) = 0.03832318
#
# Stress axis : x y z
#
# Youngs Moduli (GPa) = 35.54494 20.81362 85.24738
#
# Poissons Ratio (x) = 0.11910 0.55851
# Poissons Ratio (y) = 0.20340 1.06723
# Poissons Ratio (z) = 0.23288 0.26057
#
# Static dielectric constant tensor:
#      x y z
#    x 1.474660 0.000000 0.000000 
#    y 0.000000 1.509570 0.000000 
#    z 0.000000 0.000000 1.561460 
# 
# From -- ./inp_files/24609.got.cif
#   From: 2010.05.17/outbox.cif.g08.bks.cpg/sg62_13_cif.got.tgz:24609.got - 2010.06.03 15:25:27.
