data_PCOD9461574
_publ_section_title
;
Structure prediction by ZEFSAII (Michael W. Deem and Ramdas Pophale) SiO2 
 PCOD9461574
Probable space group: P N M A
;
_chemical_formula_sum "Si O2"
_cell_formula_units_Z 64
_cell_length_a 23.170981
_cell_length_b 8.278818
_cell_length_c 17.934022
_cell_angle_alpha 90.000000
_cell_angle_beta 90.000000
_cell_angle_gamma 90.000000
_cell_volume 3440.253573
_symmetry_space_group_name_H-M "P N M A"
_symmetry_group_IT_number 62
_symmetry_cell_setting 'orthorhombic'
loop_
_space_group_symop_operation_xyz
x,y,z
1/2-x,-y,1/2+z
1/2+x,1/2-y,1/2-z
-x,1/2+y,-z
-x,-y,-z
1/2+x,y,1/2-z
1/2-x,1/2+y,1/2+z
x,1/2-y,z
loop_
_atom_site_type_symbol
_atom_site_label
_atom_site_fract_x
_atom_site_fract_y
_atom_site_fract_z
Si Si1 0.514833 0.447789 0.733458
Si Si2 0.945192 0.067256 0.458554
Si Si3 0.966256 0.443390 0.927459
Si Si4 0.666668 0.933651 0.061997
Si Si5 0.850641 0.560609 0.864668
Si Si6 0.393301 0.057883 0.792908
Si Si7 0.881340 0.564086 0.324146
Si Si8 0.272915 0.942871 0.082526
O O1 0.515813 0.250000 0.737608
O O2 0.499027 0.492520 0.648917
O O3 0.459776 0.501638 0.784136
O O4 0.578002 0.506877 0.759220
O O5 0.953962 0.250000 0.429775
O O6 0.893495 0.073803 0.517538
O O7 0.925186 0.948548 0.393597
O O8 0.000000 0.000000 0.500000
O O9 0.962084 0.250000 0.926975
O O10 0.902079 0.514456 0.920863
O O11 0.000000 0.500000 0.000000
O O12 0.688261 0.750000 0.073828
O O13 0.647568 0.008797 0.141230
O O14 0.708622 0.017645 0.002432
O O15 0.853036 0.750000 0.849200
O O16 0.864395 0.469474 0.787335
O O17 0.788673 0.513907 0.896636
O O18 0.397489 0.250000 0.807575
O O19 0.868791 0.750000 0.304792
O O20 0.822389 0.493233 0.359338
O O21 0.271583 0.750000 0.090129
#
# Coordination Sequence:
#
# PCOD9461574 Si02
#       8
#     8   8   8   8   8   8   8   8
#     4   8  15  30  53  78 105 137 170 207 256 316
#     4  10  18  27  41  65  98 134 169 204 244 291
#     4  10  20  37  60  84 108 134 171 221 276 329
#     4   9  18  32  50  72 101 137 175 215 259 312
#     4  11  22  37  57  78 104 140 180 222 270 322
#     4   9  17  32  54  77 102 134 173 217 265 318
#     4   9  17  31  50  72  99 133 170 205 247 302
#     4  10  20  34  53  76 105 141 180 221 264 316
#
# _framework density 18.603280999999999
#
# number of rings (size 3 to 8) (size 9 to 14) (size 15 to 20)
#    0.000    2.500    0.000    3.750    0.000    3.500 
#    0.000    6.875    0.000    6.000    0.000    0.000 
#    0.000    0.000    0.000    0.000    0.000    0.000 
#
# Total GULP energy -356522.796456 kJ/mol
# GULP energy per Si atom -5570.668695 kJ/mol
# Density = 1.856094 g / cm^3
# Si number density = 18.603281 Si / 1000 Ang^3
#
#
#
# Elastic Constant Matrix: (Units=GPa)
#
#
# Indices 1 2 3 4 5 6 
#
# 1 116.9941 2.1594 55.2469 0.0000 0.0000 0.0000
# 2 2.1594 22.7501 -1.5076 0.0000 0.0000 0.0000
# 3 55.2469 -1.5076 76.6838 0.0000 0.0000 0.0000
# 4 0.0000 0.0000 0.0000 22.3697 0.0000 0.0000
# 5 0.0000 0.0000 0.0000 0.0000 21.1023 0.0000
# 6 0.0000 0.0000 0.0000 0.0000 0.0000 13.7018
#
#
#
# Elastic Compliance Matrix: (Units=1/GPa)
#
#
# Indices 1 2 3 4 5 6 
#
# 1 0.013033 -0.001862 -0.009426 0.000000 0.000000 0.000000
# 2 -0.001862 0.044279 0.002212 0.000000 0.000000 0.000000
# 3 -0.009426 0.002212 0.019875 0.000000 0.000000 0.000000
# 4 0.000000 0.000000 0.000000 0.044703 0.000000 0.000000
# 5 0.000000 0.000000 0.000000 0.000000 0.047388 0.000000
# 6 0.000000 0.000000 0.000000 0.000000 0.000000 0.072983
#
#
# Mechanical properties :
#
#
# Convention : Reuss Voigt Hill
#
# Bulk Modulus (GPa) = 16.93909 36.46949 26.70429
# Shear Modulus (GPa) = 17.85123 22.13671 19.99397
#
# Velocity S-wave (km/s) = 3.10106 3.45329 3.28190
# Velocity P-wave (km/s) = 4.68479 5.96210 5.36162
#
# Compressibility (1/GPa) = 0.05903506
#
# Stress axis : x y z
#
# Youngs Moduli (GPa) = 76.72787 22.58396 50.31394
#
# Poissons Ratio (x) = 0.04205 0.47427
# Poissons Ratio (y) = 0.14285 -0.11128
# Poissons Ratio (z) = 0.72326 -0.04995
#
# Static dielectric constant tensor:
#      x y z
#    x 1.631060 0.000000 0.000000 
#    y 0.000000 1.668990 0.000000 
#    z 0.000000 0.000000 1.628330 
# 
# From -- ./inp_files/24763.got.cif
#   From: 2010.05.17/outbox.cif.g08.bks.cpg/sg62_13_cif.got.tgz:24763.got - 2010.06.03 15:25:27.
