data_PCOD9461492
_publ_section_title
;
Structure prediction by ZEFSAII (Michael W. Deem and Ramdas Pophale) SiO2 
 PCOD9461492
Probable space group: P N M A
;
_chemical_formula_sum "Si O2"
_cell_formula_units_Z 64
_cell_length_a 9.862030
_cell_length_b 21.358980
_cell_length_c 19.771759
_cell_angle_alpha 90.000000
_cell_angle_beta 90.000000
_cell_angle_gamma 90.000000
_cell_volume 4164.780684
_symmetry_space_group_name_H-M "P N M A"
_symmetry_group_IT_number 62
_symmetry_cell_setting 'orthorhombic'
loop_
_space_group_symop_operation_xyz
x,y,z
1/2-x,-y,1/2+z
1/2+x,1/2-y,1/2-z
-x,1/2+y,-z
-x,-y,-z
1/2+x,y,1/2-z
1/2-x,1/2+y,1/2+z
x,1/2-y,z
loop_
_atom_site_type_symbol
_atom_site_label
_atom_site_fract_x
_atom_site_fract_y
_atom_site_fract_z
Si Si1 0.687891 0.527858 0.680058
Si Si2 0.562440 0.063214 0.587387
Si Si3 0.489069 0.675922 0.497748
Si Si4 0.077894 0.087413 0.244045
Si Si5 0.704934 0.000725 0.456060
Si Si6 0.519871 0.322531 0.129905
Si Si7 0.261649 0.607735 0.953577
Si Si8 0.226482 0.371856 0.108840
O O1 0.646985 0.459925 0.651573
O O2 0.821569 0.535388 0.724745
O O3 0.562391 0.557262 0.720371
O O4 0.710936 0.570247 0.612973
O O5 0.547529 0.135868 0.569311
O O6 0.632779 0.033398 0.520627
O O7 0.414729 0.030274 0.588503
O O8 0.491046 0.750000 0.488376
O O9 0.635343 0.649630 0.521721
O O10 0.379630 0.656931 0.555302
O O11 0.052242 0.138370 0.302371
O O12 0.150858 0.119212 0.180036
O O13 0.769414 0.058033 0.415636
O O14 0.790648 0.944295 0.488598
O O15 0.553962 0.250000 0.138725
O O16 0.610774 0.352037 0.070118
O O17 0.361275 0.331384 0.114897
#
# Coordination Sequence:
#
# PCOD9461492 Si02
#       8
#     8   8   8   8   8   8   8   8
#     4  10  17  32  48  66  91 117 155 198 228 258
#     4   8  14  27  47  69  91 113 144 196 242 263
#     4  10  18  29  50  73  91 119 156 185 227 287
#     4  11  20  32  46  66  90 125 162 190 221 263
#     4   8  14  27  51  68  86 113 153 196 240 268
#     4  11  24  34  41  62 100 134 159 184 220 273
#     4   9  18  33  49  67  90 124 152 195 236 266
#     4  11  19  32  47  69  93 123 156 196 230 265
#
# _framework density 15.366955000000001
#
# number of rings (size 3 to 8) (size 9 to 14) (size 15 to 20)
#    0.000    2.250    3.750    2.250    0.000    1.500 
#    0.000    0.000    0.000    0.000    0.000    0.875 
#    0.000    0.000    0.000    0.000    0.000    0.000 
#
# Total GULP energy -356532.706892 kJ/mol
# GULP energy per Si atom -5570.823545 kJ/mol
# Density = 1.533198 g / cm^3
# Si number density = 15.366955 Si / 1000 Ang^3
#
#
#
# Elastic Constant Matrix: (Units=GPa)
#
#
# Indices 1 2 3 4 5 6 
#
# 1 34.6620 -0.5821 0.0600 0.0000 0.0000 0.0000
# 2 -0.5821 75.0154 13.5699 0.0000 0.0000 0.0000
# 3 0.0600 13.5699 10.2795 0.0000 0.0000 0.0000
# 4 0.0000 0.0000 0.0000 15.0912 0.0000 0.0000
# 5 0.0000 0.0000 0.0000 0.0000 13.3809 0.0000
# 6 0.0000 0.0000 0.0000 0.0000 0.0000 20.3955
#
#
#
# Elastic Compliance Matrix: (Units=1/GPa)
#
#
# Indices 1 2 3 4 5 6 
#
# 1 0.028857 0.000334 -0.000610 0.000000 0.000000 0.000000
# 2 0.000334 0.017516 -0.023125 0.000000 0.000000 0.000000
# 3 -0.000610 -0.023125 0.127813 0.000000 0.000000 0.000000
# 4 0.000000 0.000000 0.000000 0.066264 0.000000 0.000000
# 5 0.000000 0.000000 0.000000 0.000000 0.074733 0.000000
# 6 0.000000 0.000000 0.000000 0.000000 0.000000 0.049030
#
#
# Mechanical properties :
#
#
# Convention : Reuss Voigt Hill
#
# Bulk Modulus (GPa) = 7.85028 16.22807 12.03918
# Shear Modulus (GPa) = 11.02592 16.90078 13.96335
#
# Velocity S-wave (km/s) = 2.68154 3.31994 3.01767
# Velocity P-wave (km/s) = 3.83499 5.02785 4.47138
#
# Compressibility (1/GPa) = 0.12738400
#
# Stress axis : x y z
#
# Youngs Moduli (GPa) = 34.65396 57.08910 7.82395
#
# Poissons Ratio (x) = -0.01908 0.00477
# Poissons Ratio (y) = -0.01158 0.18093
# Poissons Ratio (z) = 0.02113 1.32021
#
# Static dielectric constant tensor:
#      x y z
#    x 1.514540 0.000000 0.000000 
#    y 0.000000 1.515450 0.000000 
#    z 0.000000 0.000000 1.506610 
# 
# From -- ./inp_files/26286.got.cif
#   From: 2010.05.17/outbox.cif.g08.bks.cpg/sg62_14_cif.got.tgz:26286.got - 2010.06.03 15:25:27.
