data_PCOD9461433
_publ_section_title
;
Structure prediction by ZEFSAII (Michael W. Deem and Ramdas Pophale) SiO2 
 PCOD9461433
Probable space group: P N M A
;
_chemical_formula_sum "Si O2"
_cell_formula_units_Z 56
_cell_length_a 20.405494
_cell_length_b 7.448035
_cell_length_c 15.933333
_cell_angle_alpha 90.000000
_cell_angle_beta 90.000000
_cell_angle_gamma 90.000000
_cell_volume 2421.561230
_symmetry_space_group_name_H-M "P N M A"
_symmetry_group_IT_number 62
_symmetry_cell_setting 'orthorhombic'
loop_
_space_group_symop_operation_xyz
x,y,z
1/2-x,-y,1/2+z
1/2+x,1/2-y,1/2-z
-x,1/2+y,-z
-x,-y,-z
1/2+x,y,1/2-z
1/2-x,1/2+y,1/2+z
x,1/2-y,z
loop_
_atom_site_type_symbol
_atom_site_label
_atom_site_fract_x
_atom_site_fract_y
_atom_site_fract_z
Si Si1 0.771335 0.962882 0.501355
Si Si2 0.376895 0.466451 0.502180
Si Si3 0.140690 0.533830 0.660584
Si Si4 0.074791 0.530400 0.822285
Si Si5 0.358815 0.531448 0.842298
Si Si6 0.073180 0.462108 0.185939
Si Si7 0.498798 0.037127 0.097229
O O1 0.766444 0.750000 0.514738
O O2 0.697775 0.034008 0.496017
O O3 0.810359 0.033534 0.583888
O O4 0.807978 0.983606 0.411770
O O5 0.375805 0.250000 0.498495
O O6 0.411234 0.528973 0.416853
O O7 0.412385 0.513604 0.588320
O O8 0.143317 0.750000 0.661073
O O9 0.134064 0.478922 0.758638
O O10 0.069957 0.466489 0.629241
O O11 0.073275 0.750000 0.821366
O O12 0.001131 0.470312 0.796386
O O13 0.352194 0.750000 0.843887
O O14 0.365407 0.474306 0.744228
O O15 0.431815 0.474840 0.869413
O O16 0.069489 0.250000 0.202539
O O17 0.497216 0.250000 0.114029
O O18 0.500000 0.000000 0.000000
#
# Coordination Sequence:
#
# PCOD9461433 Si02
#       7
#     8   8   8   8   8   8   8
#     4  10  21  36  52  74 109 148 176 204 256 326
#     4  10  22  38  53  73 106 145 180 214 258 314
#     4  10  19  32  55  84 107 132 174 224 264 305
#     4   9  18  35  58  81 105 135 174 221 269 314
#     4   9  17  31  53  78 104 136 172 208 257 319
#     4  10  19  35  60  83 102 131 177 228 267 304
#     4  10  17  28  49  78 108 134 166 213 264 312
#
# _framework density 23.125575999999999
#
# number of rings (size 3 to 8) (size 9 to 14) (size 15 to 20)
#    0.000    2.286    2.857    0.429    0.000    1.714 
#    0.000    5.714    0.000    0.000    0.000    0.000 
#    0.000    0.000    0.000    0.000    0.000    0.000 
#
# Total GULP energy -312109.447870 kJ/mol
# GULP energy per Si atom -5573.382998 kJ/mol
# Density = 2.307294 g / cm^3
# Si number density = 23.125576 Si / 1000 Ang^3
#
#
#
# Elastic Constant Matrix: (Units=GPa)
#
#
# Indices 1 2 3 4 5 6 
#
# 1 84.4842 1.0153 34.3182 0.0000 0.0000 0.0000
# 2 1.0153 66.3199 -4.6631 0.0000 0.0000 0.0000
# 3 34.3182 -4.6631 160.8405 0.0000 0.0000 0.0000
# 4 0.0000 0.0000 0.0000 26.1332 0.0000 0.0000
# 5 0.0000 0.0000 0.0000 0.0000 42.0591 0.0000
# 6 0.0000 0.0000 0.0000 0.0000 0.0000 6.8663
#
#
#
# Elastic Compliance Matrix: (Units=1/GPa)
#
#
# Indices 1 2 3 4 5 6 
#
# 1 0.012970 -0.000394 -0.002779 0.000000 0.000000 0.000000
# 2 -0.000394 0.015121 0.000522 0.000000 0.000000 0.000000
# 3 -0.002779 0.000522 0.006825 0.000000 0.000000 0.000000
# 4 0.000000 0.000000 0.000000 0.038266 0.000000 0.000000
# 5 0.000000 0.000000 0.000000 0.000000 0.023776 0.000000
# 6 0.000000 0.000000 0.000000 0.000000 0.000000 0.145639
#
#
# Mechanical properties :
#
#
# Convention : Reuss Voigt Hill
#
# Bulk Modulus (GPa) = 33.76551 41.44283 37.60417
# Shear Modulus (GPa) = 19.39715 33.74332 26.57024
#
# Velocity S-wave (km/s) = 2.89930 3.82401 3.39330
# Velocity P-wave (km/s) = 5.08336 6.12022 5.62573
#
# Compressibility (1/GPa) = 0.02961602
#
# Stress axis : x y z
#
# Youngs Moduli (GPa) = 77.10077 66.13235 146.51162
#
# Poissons Ratio (x) = 0.02605 0.40713
# Poissons Ratio (y) = 0.03037 -0.07655
# Poissons Ratio (z) = 0.21425 -0.03455
#
# Static dielectric constant tensor:
#      x y z
#    x 1.839960 0.000000 0.000000 
#    y 0.000000 1.916630 0.000000 
#    z 0.000000 0.000000 1.935480 
# 
# From -- ./inp_files/20217.got.cif
#   From: 2010.05.17/outbox.cif.g08.bks.cpg/sg62_11_cif.got.tgz:20217.got - 2010.06.03 15:25:27.
