data_PCOD9461763
_publ_section_title
;
Structure prediction by ZEFSAII (Michael W. Deem and Ramdas Pophale) SiO2 
 PCOD9461763
Probable space group: P N M A
;
_chemical_formula_sum "Si O2"
_cell_formula_units_Z 48
_cell_length_a 19.035584
_cell_length_b 8.513847
_cell_length_c 17.011745
_cell_angle_alpha 90.000000
_cell_angle_beta 90.000000
_cell_angle_gamma 90.000000
_cell_volume 2757.026311
_symmetry_space_group_name_H-M "P N M A"
_symmetry_group_IT_number 62
_symmetry_cell_setting 'orthorhombic'
loop_
_space_group_symop_operation_xyz
x,y,z
1/2-x,-y,1/2+z
1/2+x,1/2-y,1/2-z
-x,1/2+y,-z
-x,-y,-z
1/2+x,y,1/2-z
1/2-x,1/2+y,1/2+z
x,1/2-y,z
loop_
_atom_site_type_symbol
_atom_site_label
_atom_site_fract_x
_atom_site_fract_y
_atom_site_fract_z
Si Si1 0.587890 0.438367 0.660554
Si Si2 0.956449 0.062000 0.574960
Si Si3 0.328730 0.939433 0.009307
Si Si4 0.460038 0.937247 0.577692
Si Si5 0.088353 0.441061 0.665282
Si Si6 0.332327 0.061624 0.493086
O O1 0.591790 0.250000 0.655083
O O2 0.634473 0.508552 0.590145
O O3 0.610134 0.491254 0.747688
O O4 0.507019 0.489866 0.646526
O O5 0.953263 0.250000 0.573060
O O6 0.007301 0.014425 0.646625
O O7 0.878865 0.996016 0.561437
O O8 0.000000 0.000000 0.500000
O O9 0.330480 0.750000 0.009798
O O10 0.363069 0.993726 0.092342
O O11 0.248358 0.989747 0.000351
O O12 0.463610 0.750000 0.580433
O O13 0.500000 0.000000 0.500000
O O14 0.380781 0.992723 0.562788
O O15 0.090565 0.250000 0.664695
O O16 0.335862 0.250000 0.497174
#
# Coordination Sequence:
#
# PCOD9461763 Si02
#       6
#     8   8   8   8   8   8
#     4  10  18  31  51  71  94 123 160 202 240 281
#     4   9  16  29  49  71  94 121 158 195 230 278
#     4   9  18  33  51  71  97 128 161 196 238 286
#     4  10  18  30  48  69  93 120 156 194 231 280
#     4   8  16  31  50  71  93 123 161 198 236 283
#     4  10  19  32  50  71  98 129 160 195 238 286
#
# _framework density 17.410063000000001
#
# number of rings (size 3 to 8) (size 9 to 14) (size 15 to 20)
#    0.000    2.667    0.000    6.000    0.000    1.333 
#    0.000   10.000    0.000    8.000    0.000    0.000 
#    0.000    0.000    0.000    0.000    0.000    0.000 
#
# Total GULP energy -267238.903959 kJ/mol
# GULP energy per Si atom -5567.477166 kJ/mol
# Density = 1.737044 g / cm^3
# Si number density = 17.410063 Si / 1000 Ang^3
#
#
#
# Elastic Constant Matrix: (Units=GPa)
#
#
# Indices 1 2 3 4 5 6 
#
# 1 137.2044 18.2179 34.1538 0.0000 0.0000 0.0000
# 2 18.2179 40.1544 6.7319 0.0000 0.0000 0.0000
# 3 34.1538 6.7319 75.4980 0.0000 0.0000 0.0000
# 4 0.0000 0.0000 0.0000 16.5179 0.0000 0.0000
# 5 0.0000 0.0000 0.0000 0.0000 18.4027 0.0000
# 6 0.0000 0.0000 0.0000 0.0000 0.0000 26.3994
#
#
#
# Elastic Compliance Matrix: (Units=1/GPa)
#
#
# Indices 1 2 3 4 5 6 
#
# 1 0.008626 -0.003309 -0.003607 0.000000 0.000000 0.000000
# 2 -0.003309 0.026551 -0.000871 0.000000 0.000000 0.000000
# 3 -0.003607 -0.000871 0.014955 0.000000 0.000000 0.000000
# 4 0.000000 0.000000 0.000000 0.060540 0.000000 0.000000
# 5 0.000000 0.000000 0.000000 0.000000 0.054340 0.000000
# 6 0.000000 0.000000 0.000000 0.000000 0.000000 0.037880
#
#
# Mechanical properties :
#
#
# Convention : Reuss Voigt Hill
#
# Bulk Modulus (GPa) = 28.93639 41.22932 35.08285
# Shear Modulus (GPa) = 21.74068 25.18088 23.46078
#
# Velocity S-wave (km/s) = 3.53759 3.80720 3.67487
# Velocity P-wave (km/s) = 5.77431 6.56195 6.18069
#
# Compressibility (1/GPa) = 0.03455856
#
# Stress axis : x y z
#
# Youngs Moduli (GPa) = 115.93394 37.66340 66.86831
#
# Poissons Ratio (x) = 0.12462 0.24120
# Poissons Ratio (y) = 0.38359 0.05822
# Poissons Ratio (z) = 0.41818 0.03279
#
# Static dielectric constant tensor:
#      x y z
#    x 1.619380 0.000000 0.000000 
#    y 0.000000 1.620600 0.000000 
#    z 0.000000 0.000000 1.602300 
# 
# From -- ./inp_files/27818.got.cif
#   From: 2010.05.17/outbox.cif.g08.bks.cpg/sg62_14_cif.got.tgz:27818.got - 2010.06.03 15:25:27.
