data_PCOD9461823
_publ_section_title
;
Structure prediction by ZEFSAII (Michael W. Deem and Ramdas Pophale) SiO2 
 PCOD9461823
Probable space group: P N M A
;
_chemical_formula_sum "Si O2"
_cell_formula_units_Z 40
_cell_length_a 7.651816
_cell_length_b 27.234310
_cell_length_c 8.029799
_cell_angle_alpha 90.000000
_cell_angle_beta 90.000000
_cell_angle_gamma 90.000000
_cell_volume 1673.345303
_symmetry_space_group_name_H-M "P N M A"
_symmetry_group_IT_number 62
_symmetry_cell_setting 'orthorhombic'
loop_
_space_group_symop_operation_xyz
x,y,z
1/2-x,-y,1/2+z
1/2+x,1/2-y,1/2-z
-x,1/2+y,-z
-x,-y,-z
1/2+x,y,1/2-z
1/2-x,1/2+y,1/2+z
x,1/2-y,z
loop_
_atom_site_type_symbol
_atom_site_label
_atom_site_fract_x
_atom_site_fract_y
_atom_site_fract_z
Si Si1 0.733282 0.146383 0.979600
Si Si2 0.328269 0.750000 0.651165
Si Si3 0.292073 0.250000 0.518792
Si Si4 0.625956 0.048752 0.813665
Si Si5 0.635846 0.648588 0.830853
Si Si6 0.263566 0.451145 0.019383
O O1 0.757962 0.198738 0.888655
O O2 0.549933 0.146592 0.079129
O O3 0.873057 0.146834 0.129967
O O4 0.726505 0.098551 0.866343
O O5 0.334266 0.750000 0.854602
O O6 0.513858 0.750000 0.560204
O O7 0.228034 0.800764 0.615354
O O8 0.611243 0.047592 0.615465
O O9 0.442704 0.048874 0.910528
O O10 0.724526 0.999033 0.867393
O O11 0.737113 0.599149 0.880043
#
# Coordination Sequence:
#
# PCOD9461823 Si02
#       6
#     8   4   4   8   8   8
#     4  10  19  33  54  80 109 140 177 218 261 310
#     4  10  18  30  51  78 107 140 178 216 260 310
#     4  10  18  30  51  78 107 140 178 216 260 310
#     4  10  22  38  56  80 108 139 176 218 264 315
#     4  10  19  33  54  80 109 140 177 218 261 310
#     4  10  22  38  56  80 108 139 176 218 264 315
#
# _framework density 23.904212000000001
#
# number of rings (size 3 to 8) (size 9 to 14) (size 15 to 20)
#    0.000    2.000    0.000    6.600    0.000    4.000 
#    0.000    1.000    0.000    0.000    0.000    0.000 
#    0.000    0.000    0.000    0.000    0.000    0.000 
#
# Total GULP energy -223754.605884 kJ/mol
# GULP energy per Si atom -5593.865147 kJ/mol
# Density = 2.384980 g / cm^3
# Si number density = 23.904212 Si / 1000 Ang^3
#
#
#
# Elastic Constant Matrix: (Units=GPa)
#
#
# Indices 1 2 3 4 5 6 
#
# 1 63.5623 30.0973 -11.0233 0.0000 0.0000 0.0000
# 2 30.0973 218.2890 31.3697 0.0000 0.0000 0.0000
# 3 -11.0233 31.3697 26.7567 0.0000 0.0000 0.0000
# 4 0.0000 0.0000 0.0000 34.2948 0.0000 0.0000
# 5 0.0000 0.0000 0.0000 0.0000 24.3781 0.0000
# 6 0.0000 0.0000 0.0000 0.0000 0.0000 32.5397
#
#
#
# Elastic Compliance Matrix: (Units=1/GPa)
#
#
# Indices 1 2 3 4 5 6 
#
# 1 0.020482 -0.004854 0.014130 0.000000 0.000000 0.000000
# 2 -0.004854 0.006660 -0.009808 0.000000 0.000000 0.000000
# 3 0.014130 -0.009808 0.054694 0.000000 0.000000 0.000000
# 4 0.000000 0.000000 0.000000 0.029159 0.000000 0.000000
# 5 0.000000 0.000000 0.000000 0.000000 0.041020 0.000000
# 6 0.000000 0.000000 0.000000 0.000000 0.000000 0.030732
#
#
# Mechanical properties :
#
#
# Convention : Reuss Voigt Hill
#
# Bulk Modulus (GPa) = 12.38089 45.49947 28.94018
# Shear Modulus (GPa) = 23.72637 35.45347 29.58992
#
# Velocity S-wave (km/s) = 3.15391 3.85534 3.52213
# Velocity P-wave (km/s) = 4.29575 6.23648 5.35477
#
# Compressibility (1/GPa) = 0.08076963
#
# Stress axis : x y z
#
# Youngs Moduli (GPa) = 48.82415 150.15229 18.28350
#
# Poissons Ratio (x) = 0.72891 -0.25834
# Poissons Ratio (y) = 0.23702 0.17933
# Poissons Ratio (z) = -0.68986 1.47271
#
# Static dielectric constant tensor:
#      x y z
#    x 1.960560 0.000000 0.000000 
#    y 0.000000 1.923450 0.000000 
#    z 0.000000 0.000000 1.869810 
# 
# From -- ./inp_files/4425.got.cif
#   From: 2010.05.17/outbox.cif.g08.bks.cpg/sg62_3_cif.got.tgz:4425.got - 2010.06.03 15:25:27.
