data_PCOD9461594
_publ_section_title
;
Structure prediction by ZEFSAII (Michael W. Deem and Ramdas Pophale) SiO2 
 PCOD9461594
Probable space group: P N M A
;
_chemical_formula_sum "Si O2"
_cell_formula_units_Z 44
_cell_length_a 10.243832
_cell_length_b 8.428169
_cell_length_c 22.012882
_cell_angle_alpha 90.000000
_cell_angle_beta 90.000000
_cell_angle_gamma 90.000000
_cell_volume 1900.520631
_symmetry_space_group_name_H-M "P N M A"
_symmetry_group_IT_number 62
_symmetry_cell_setting 'orthorhombic'
loop_
_space_group_symop_operation_xyz
x,y,z
1/2-x,-y,1/2+z
1/2+x,1/2-y,1/2-z
-x,1/2+y,-z
-x,-y,-z
1/2+x,y,1/2-z
1/2-x,1/2+y,1/2+z
x,1/2-y,z
loop_
_atom_site_type_symbol
_atom_site_label
_atom_site_fract_x
_atom_site_fract_y
_atom_site_fract_z
Si Si1 0.148000 0.561556 0.994567
Si Si2 0.779482 0.750000 0.678347
Si Si3 0.780720 0.250000 0.323380
Si Si4 0.261760 0.426168 0.872608
Si Si5 0.264720 0.926649 0.127533
Si Si6 0.002275 0.250000 0.195225
Si Si7 0.498555 0.084919 0.708681
O O1 0.146611 0.750000 0.982447
O O2 0.219903 0.467554 0.940955
O O3 0.221971 0.542444 0.058566
O O4 0.000000 0.500000 0.000000
O O5 0.750725 0.750000 0.750976
O O6 0.832765 0.582604 0.654137
O O7 0.627642 0.750000 0.655376
O O8 0.835653 0.416987 0.346610
O O9 0.629024 0.250000 0.347145
O O10 0.322541 0.250000 0.869307
O O11 0.128388 0.413936 0.832541
O O12 0.325850 0.750000 0.131404
O O13 0.131653 0.914005 0.167716
O O14 0.001861 0.408875 0.234990
O O15 0.498665 0.250000 0.744666
#
# Coordination Sequence:
#
# PCOD9461594 Si02
#       7
#     8   4   4   8   8   4   8
#     4  11  19  25  41  68 101 133 162 191 229 298
#     4  10  20  34  46  66  92 126 171 199 227 285
#     4  10  20  32  50  62  90 134 163 197 235 277
#     4  10  18  28  41  62  91 125 159 191 234 273
#     4   9  18  28  39  63  91 122 160 189 227 274
#     4   8  16  28  44  60  84 112 156 196 222 256
#     4   8  13  23  36  55  83 115 147 179 207 263
#
# _framework density 23.151551999999999
#
# number of rings (size 3 to 8) (size 9 to 14) (size 15 to 20)
#    0.000    2.545    2.727    0.545    2.545    0.727 
#    0.000    0.000    0.000    0.000    0.000    0.000 
#    0.000    1.455    0.000    0.000    0.000    0.364 
#
# Total GULP energy -245142.587340 kJ/mol
# GULP energy per Si atom -5571.422440 kJ/mol
# Density = 2.309886 g / cm^3
# Si number density = 23.151552 Si / 1000 Ang^3
#
#
#
# Elastic Constant Matrix: (Units=GPa)
#
#
# Indices 1 2 3 4 5 6 
#
# 1 34.4394 2.9442 15.8576 0.0000 0.0000 0.0000
# 2 2.9442 319.1298 72.8806 0.0000 0.0000 0.0000
# 3 15.8576 72.8806 134.3270 0.0000 0.0000 0.0000
# 4 0.0000 0.0000 0.0000 -133.5914 0.0000 0.0000
# 5 0.0000 0.0000 0.0000 0.0000 30.0651 0.0000
# 6 0.0000 0.0000 0.0000 0.0000 0.0000 41.3227
#
#
#
# Elastic Compliance Matrix: (Units=1/GPa)
#
#
# Indices 1 2 3 4 5 6 
#
# 1 0.030814 0.000624 -0.003976 0.000000 0.000000 0.000000
# 2 0.000624 0.003589 -0.002021 0.000000 0.000000 0.000000
# 3 -0.003976 -0.002021 0.009010 0.000000 0.000000 0.000000
# 4 0.000000 0.000000 0.000000 -0.007486 0.000000 0.000000
# 5 0.000000 0.000000 0.000000 0.000000 0.033261 0.000000
# 6 0.000000 0.000000 0.000000 0.000000 0.000000 0.024200
#
#
# Mechanical properties :
#
#
# Convention : Reuss Voigt Hill
#
# Bulk Modulus (GPa) = 30.61196 74.58455 52.59826
# Shear Modulus (GPa) = 43.46883 13.97353 28.72118
#
# Velocity S-wave (km/s) = 4.33780 2.45943 3.52600
# Velocity P-wave (km/s) = 6.19192 6.35223 6.27258
#
# Compressibility (1/GPa) = 0.03266697
#
# Stress axis : x y z
#
# Youngs Moduli (GPa) = 32.45280 278.60404 110.98216
#
# Poissons Ratio (x) = -0.17378 0.44127
# Poissons Ratio (y) = -0.02024 0.22430
# Poissons Ratio (z) = 0.12903 0.56308
#
# Static dielectric constant tensor:
#      x y z
#    x 1.946200 0.000000 0.000000 
#    y 0.000000 2.013960 0.000000 
#    z 0.000000 0.000000 1.808730 
# 
# From -- ./inp_files/23596.got.cif
#   From: 2010.05.17/outbox.cif.g08.bks.cpg/sg62_12_cif.got.tgz:23596.got - 2010.06.03 15:25:27.
