data_PCOD9461970
_publ_section_title
;
Structure prediction by ZEFSAII (Michael W. Deem and Ramdas Pophale) SiO2 
 PCOD9461970
Probable space group: P N M A
;
_chemical_formula_sum "Si O2"
_cell_formula_units_Z 56
_cell_length_a 23.230409
_cell_length_b 13.318188
_cell_length_c 10.542594
_cell_angle_alpha 90.000000
_cell_angle_beta 90.000000
_cell_angle_gamma 90.000000
_cell_volume 3261.741049
_symmetry_space_group_name_H-M "P N M A"
_symmetry_group_IT_number 62
_symmetry_cell_setting 'orthorhombic'
loop_
_space_group_symop_operation_xyz
x,y,z
1/2-x,-y,1/2+z
1/2+x,1/2-y,1/2-z
-x,1/2+y,-z
-x,-y,-z
1/2+x,y,1/2-z
1/2-x,1/2+y,1/2+z
x,1/2-y,z
loop_
_atom_site_type_symbol
_atom_site_label
_atom_site_fract_x
_atom_site_fract_y
_atom_site_fract_z
Si Si1 0.789532 0.363211 0.828943
Si Si2 0.574963 0.499304 0.889736
Si Si3 0.703010 0.072396 0.453884
Si Si4 0.340695 0.866308 0.275524
Si Si5 0.971418 0.632802 0.615994
Si Si6 0.843468 0.639088 0.688753
Si Si7 0.825927 0.065171 0.561580
O O1 0.798067 0.250000 0.876374
O O2 0.722563 0.376044 0.788358
O O3 0.824709 0.378812 0.696854
O O4 0.803944 0.453868 0.923312
O O5 0.615453 0.441481 0.791731
O O6 0.524678 0.568158 0.833640
O O7 0.545530 0.415825 0.980411
O O8 0.616078 0.567436 0.980053
O O9 0.769827 0.095719 0.483130
O O10 0.668280 0.106217 0.577410
O O11 0.683120 0.127661 0.327028
O O12 0.358488 0.750000 0.262012
O O13 0.985378 0.750000 0.605159
O O14 0.912316 0.623252 0.695087
O O15 0.833389 0.750000 0.635303
O O16 0.818751 0.552290 0.599765
#
# Coordination Sequence:
#
# PCOD9461970 Si02
#       7
#     8   8   8   8   8   8   8
#     4   9  18  31  48  70 103 139 167 202 251 310
#     4  10  18  33  54  75 104 132 168 222 260 298
#     4  10  18  32  50  74 106 133 168 212 250 305
#     4  10  19  31  51  76 102 136 175 209 249 308
#     4   9  19  34  53  75  98 132 175 217 261 301
#     4   9  18  33  52  73  98 135 174 206 248 304
#     4   9  18  30  49  74 102 128 166 210 255 303
#
# _framework density 17.168744
#
# number of rings (size 3 to 8) (size 9 to 14) (size 15 to 20)
#    0.000    2.571    1.429    0.857    0.000    2.286 
#    0.000    1.429    0.000    0.857    0.000    0.000 
#    0.000    0.000    0.000    0.000    0.000    0.000 
#
# Total GULP energy -312203.293836 kJ/mol
# GULP energy per Si atom -5575.058819 kJ/mol
# Density = 1.712967 g / cm^3
# Si number density = 17.168744 Si / 1000 Ang^3
#
#
#
# Elastic Constant Matrix: (Units=GPa)
#
#
# Indices 1 2 3 4 5 6 
#
# 1 61.6655 27.2927 17.6744 0.0000 0.0000 0.0000
# 2 27.2927 59.5975 -4.5051 0.0000 0.0000 0.0000
# 3 17.6744 -4.5051 28.1123 0.0000 0.0000 0.0000
# 4 0.0000 0.0000 0.0000 8.6669 0.0000 0.0000
# 5 0.0000 0.0000 0.0000 0.0000 17.1955 0.0000
# 6 0.0000 0.0000 0.0000 0.0000 0.0000 24.3279
#
#
#
# Elastic Compliance Matrix: (Units=1/GPa)
#
#
# Indices 1 2 3 4 5 6 
#
# 1 0.028458 -0.014561 -0.020225 0.000000 0.000000 0.000000
# 2 -0.014561 0.024436 0.013071 0.000000 0.000000 0.000000
# 3 -0.020225 0.013071 0.050382 0.000000 0.000000 0.000000
# 4 0.000000 0.000000 0.000000 0.115382 0.000000 0.000000
# 5 0.000000 0.000000 0.000000 0.000000 0.058155 0.000000
# 6 0.000000 0.000000 0.000000 0.000000 0.000000 0.041105
#
#
# Mechanical properties :
#
#
# Convention : Reuss Voigt Hill
#
# Bulk Modulus (GPa) = 16.71012 25.58880 21.14946
# Shear Modulus (GPa) = 13.11310 17.29894 15.20602
#
# Velocity S-wave (km/s) = 2.76665 3.17769 2.97927
# Velocity P-wave (km/s) = 4.46764 5.32919 4.91732
#
# Compressibility (1/GPa) = 0.05984397
#
# Stress axis : x y z
#
# Youngs Moduli (GPa) = 35.13920 40.92381 19.84830
#
# Poissons Ratio (x) = 0.59591 0.40144
# Poissons Ratio (y) = 0.51167 -0.25943
# Poissons Ratio (z) = 0.71071 -0.53490
#
# Static dielectric constant tensor:
#      x y z
#    x 1.579980 0.000000 0.000000 
#    y 0.000000 1.597870 0.000000 
#    z 0.000000 0.000000 1.574280 
# 
# From -- ./inp_files/14790.got.cif
#   From: 2010.05.17/outbox.cif.g08.bks.cpg/sg62_8_cif.got.tgz:14790.got - 2010.06.03 15:25:27.
