data_PCOD9461333
_publ_section_title
;
Structure prediction by ZEFSAII (Michael W. Deem and Ramdas Pophale) SiO2 
 PCOD9461333
Probable space group: P N M A
;
_chemical_formula_sum "Si O2"
_cell_formula_units_Z 64
_cell_length_a 5.399616
_cell_length_b 19.457637
_cell_length_c 34.061839
_cell_angle_alpha 90.000000
_cell_angle_beta 90.000000
_cell_angle_gamma 90.000000
_cell_volume 3578.665153
_symmetry_space_group_name_H-M "P N M A"
_symmetry_group_IT_number 62
_symmetry_cell_setting 'orthorhombic'
loop_
_space_group_symop_operation_xyz
x,y,z
1/2-x,-y,1/2+z
1/2+x,1/2-y,1/2-z
-x,1/2+y,-z
-x,-y,-z
1/2+x,y,1/2-z
1/2-x,1/2+y,1/2+z
x,1/2-y,z
loop_
_atom_site_type_symbol
_atom_site_label
_atom_site_fract_x
_atom_site_fract_y
_atom_site_fract_z
Si Si1 0.248702 0.170477 0.355615
Si Si2 0.248733 0.954658 0.429784
Si Si3 0.777051 0.324274 0.776153
Si Si4 0.750132 0.588289 0.980099
Si Si5 0.248077 0.411532 0.158804
Si Si6 0.751348 0.019530 0.911523
Si Si7 0.216113 0.026890 0.724329
Si Si8 0.750083 0.880787 0.557455
O O1 0.252720 0.250000 0.344518
O O2 0.495526 0.132121 0.340687
O O3 0.251822 0.162708 0.402989
O O4 0.995126 0.134552 0.341667
O O5 0.248453 0.928843 0.474241
O O6 0.501588 0.936485 0.408477
O O7 0.996165 0.936700 0.408341
O O8 0.249290 0.038457 0.429924
O O9 0.545623 0.324973 0.745306
O O10 0.758875 0.250000 0.797023
O O11 0.745529 0.398285 0.796420
O O12 0.750709 0.516426 0.955060
O O13 0.502072 0.627404 0.966907
O O14 0.999437 0.627137 0.967271
O O15 0.247955 0.456958 0.118987
O O16 0.258009 0.465118 0.194133
O O17 0.447239 0.023192 0.754761
#
# Coordination Sequence:
#
# PCOD9461333 Si02
#       8
#     8   8   8   8   8   8   8   8
#     4  12  23  37  54  72  96 137 181 231 291 331
#     4  10  16  25  43  68 101 129 144 185 248 309
#     4   8  14  27  49  79 113 137 155 183 227 298
#     4  10  16  25  44  67 100 129 145 186 251 307
#     4  12  21  38  55  72 104 135 171 236 267 337
#     4  10  16  27  42  66  96 129 158 189 254 292
#     4  10  21  36  57  83 106 139 171 206 275 327
#     4  10  16  29  41  65  95 121 158 200 244 311
#
# _framework density 17.883765
#
# number of rings (size 3 to 8) (size 9 to 14) (size 15 to 20)
#    0.000    1.750    5.000    4.875    0.000    0.000 
#    0.000    0.000    0.000    7.500    0.000    0.000 
#    0.000   11.000    0.000    0.250    0.000    0.000 
#
# Total GULP energy -356564.614245 kJ/mol
# GULP energy per Si atom -5571.322098 kJ/mol
# Density = 1.784306 g / cm^3
# Si number density = 17.883765 Si / 1000 Ang^3
#
#
#
# Elastic Constant Matrix: (Units=GPa)
#
#
# Indices 1 2 3 4 5 6 
#
# 1 159.1159 20.3291 5.0703 0.0000 0.0000 0.0000
# 2 20.3291 74.2208 27.7665 0.0000 0.0000 0.0000
# 3 5.0703 27.7665 17.1395 0.0000 0.0000 0.0000
# 4 0.0000 0.0000 0.0000 11.2611 0.0000 0.0000
# 5 0.0000 0.0000 0.0000 0.0000 14.0607 0.0000
# 6 0.0000 0.0000 0.0000 0.0000 0.0000 14.9213
#
#
#
# Elastic Compliance Matrix: (Units=1/GPa)
#
#
# Indices 1 2 3 4 5 6 
#
# 1 0.006553 -0.002715 0.002460 0.000000 0.000000 0.000000
# 2 -0.002715 0.035327 -0.056427 0.000000 0.000000 0.000000
# 3 0.002460 -0.056427 0.149031 0.000000 0.000000 0.000000
# 4 0.000000 0.000000 0.000000 0.088801 0.000000 0.000000
# 5 0.000000 0.000000 0.000000 0.000000 0.071120 0.000000
# 6 0.000000 0.000000 0.000000 0.000000 0.000000 0.067018
#
#
# Mechanical properties :
#
#
# Convention : Reuss Voigt Hill
#
# Bulk Modulus (GPa) = 12.89546 39.64531 26.27039
# Shear Modulus (GPa) = 8.97562 21.20266 15.08914
#
# Velocity S-wave (km/s) = 2.24271 3.44696 2.90786
# Velocity P-wave (km/s) = 3.73265 6.16916 5.09859
#
# Compressibility (1/GPa) = 0.07754666
#
# Stress axis : x y z
#
# Youngs Moduli (GPa) = 152.59603 28.30703 6.71000
#
# Poissons Ratio (x) = 0.07686 -0.01651
# Poissons Ratio (y) = 0.41436 0.37863
# Poissons Ratio (z) = -0.37545 1.59729
#
# Static dielectric constant tensor:
#      x y z
#    x 1.719640 0.000000 0.000000 
#    y 0.000000 1.596230 0.000000 
#    z 0.000000 0.000000 1.599930 
# 
# From -- ./inp_files/31718.got.cif
#   From: 2010.05.17/outbox.cif.g08.bks.cpg/sg62_16_cif.got.tgz:31718.got - 2010.06.03 15:25:27.
