data_PCOD9461672
_publ_section_title
;
Structure prediction by ZEFSAII (Michael W. Deem and Ramdas Pophale) SiO2 
 PCOD9461672
Probable space group: P N M A
;
_chemical_formula_sum "Si O2"
_cell_formula_units_Z 64
_cell_length_a 27.127899
_cell_length_b 8.731753
_cell_length_c 18.840318
_cell_angle_alpha 90.000000
_cell_angle_beta 90.000000
_cell_angle_gamma 90.000000
_cell_volume 4462.783624
_symmetry_space_group_name_H-M "P N M A"
_symmetry_group_IT_number 62
_symmetry_cell_setting 'orthorhombic'
loop_
_space_group_symop_operation_xyz
x,y,z
1/2-x,-y,1/2+z
1/2+x,1/2-y,1/2-z
-x,1/2+y,-z
-x,-y,-z
1/2+x,y,1/2-z
1/2-x,1/2+y,1/2+z
x,1/2-y,z
loop_
_atom_site_type_symbol
_atom_site_label
_atom_site_fract_x
_atom_site_fract_y
_atom_site_fract_z
Si Si1 0.447994 0.934066 0.919077
Si Si2 0.649975 0.066170 0.165676
Si Si3 0.147698 0.933371 0.661540
Si Si4 0.757053 0.431528 0.579767
Si Si5 0.054509 0.067374 0.584448
Si Si6 0.798695 0.068349 0.201770
Si Si7 0.294019 0.067537 0.714312
Si Si8 0.259412 0.567850 0.075577
O O1 0.454550 0.750000 0.916151
O O2 0.401921 0.975671 0.869902
O O3 0.499152 0.013482 0.898724
O O4 0.436803 0.973597 0.001366
O O5 0.653209 0.250000 0.170406
O O6 0.694240 0.007303 0.115032
O O7 0.658756 0.992252 0.243072
O O8 0.152694 0.750000 0.655627
O O9 0.157387 0.974195 0.744339
O O10 0.095460 0.987612 0.632413
O O11 0.190698 0.010003 0.614071
O O12 0.762297 0.250000 0.583827
O O13 0.710581 0.484265 0.627640
O O14 0.752728 0.486322 0.499229
O O15 0.058705 0.250000 0.591136
O O16 0.799448 0.250000 0.189667
O O17 0.750593 0.021943 0.247533
O O18 0.288357 0.250000 0.726060
O O19 0.285283 0.039257 0.631102
O O20 0.263539 0.750000 0.064687
#
# Coordination Sequence:
#
# PCOD9461672 Si02
#       8
#     8   8   8   8   8   8   8   8
#     4   9  19  32  43  59  83 111 143 177 212 247
#     4  10  18  29  45  61  83 114 143 174 212 252
#     4  10  19  30  45  63  84 112 144 176 210 251
#     4  11  20  28  42  63  86 112 143 177 209 247
#     4  10  19  30  45  62  83 112 143 178 214 246
#     4   9  17  29  43  59  82 111 140 171 208 248
#     4   9  17  28  42  60  82 108 139 175 209 245
#     4  10  19  30  43  60  85 114 143 175 210 249
#
# _framework density 14.340826
#
# number of rings (size 3 to 8) (size 9 to 14) (size 15 to 20)
#    0.000    2.250    0.000    5.625    0.000    5.500 
#    0.000    0.000    0.000    0.000    0.000    0.000 
#    0.000    1.000    0.000    3.250    0.000    4.000 
#
# Total GULP energy -356691.061432 kJ/mol
# GULP energy per Si atom -5573.297835 kJ/mol
# Density = 1.430819 g / cm^3
# Si number density = 14.340826 Si / 1000 Ang^3
#
#
#
# Elastic Constant Matrix: (Units=GPa)
#
#
# Indices 1 2 3 4 5 6 
#
# 1 73.1321 22.8303 43.3801 0.0000 0.0000 0.0000
# 2 22.8303 40.9946 27.6377 0.0000 0.0000 0.0000
# 3 43.3801 27.6377 90.3585 0.0000 0.0000 0.0000
# 4 0.0000 0.0000 0.0000 23.8662 0.0000 0.0000
# 5 0.0000 0.0000 0.0000 0.0000 25.9934 0.0000
# 6 0.0000 0.0000 0.0000 0.0000 0.0000 21.1568
#
#
#
# Elastic Compliance Matrix: (Units=1/GPa)
#
#
# Indices 1 2 3 4 5 6 
#
# 1 0.020204 -0.005936 -0.007884 0.000000 0.000000 0.000000
# 2 -0.005936 0.032475 -0.007083 0.000000 0.000000 0.000000
# 3 -0.007884 -0.007083 0.017018 0.000000 0.000000 0.000000
# 4 0.000000 0.000000 0.000000 0.041900 0.000000 0.000000
# 5 0.000000 0.000000 0.000000 0.000000 0.038471 0.000000
# 6 0.000000 0.000000 0.000000 0.000000 0.000000 0.047266
#
#
# Mechanical properties :
#
#
# Convention : Reuss Voigt Hill
#
# Bulk Modulus (GPa) = 35.85472 43.57571 39.71522
# Shear Modulus (GPa) = 20.12581 21.57909 20.85245
#
# Velocity S-wave (km/s) = 3.75025 3.88329 3.81735
# Velocity P-wave (km/s) = 6.61881 7.11044 6.86903
#
# Compressibility (1/GPa) = 0.02789033
#
# Stress axis : x y z
#
# Youngs Moduli (GPa) = 49.49626 30.79324 58.76013
#
# Poissons Ratio (x) = 0.18280 0.46325
# Poissons Ratio (y) = 0.29383 0.41619
# Poissons Ratio (z) = 0.39021 0.21811
#
# Static dielectric constant tensor:
#      x y z
#    x 1.458280 0.000000 0.000000 
#    y 0.000000 1.479280 0.000000 
#    z 0.000000 0.000000 1.490640 
# 
# From -- ./inp_files/25005.got.cif
#   From: 2010.05.17/outbox.cif.g08.bks.cpg/sg62_13_cif.got.tgz:25005.got - 2010.06.03 15:25:27.
