data_PCOD9461866
_publ_section_title
;
Structure prediction by ZEFSAII (Michael W. Deem and Ramdas Pophale) SiO2 
 PCOD9461866
Probable space group: P N M A
;
_chemical_formula_sum "Si O2"
_cell_formula_units_Z 64
_cell_length_a 23.880558
_cell_length_b 8.550278
_cell_length_c 19.824442
_cell_angle_alpha 90.000000
_cell_angle_beta 90.000000
_cell_angle_gamma 90.000000
_cell_volume 4047.861812
_symmetry_space_group_name_H-M "P N M A"
_symmetry_group_IT_number 62
_symmetry_cell_setting 'orthorhombic'
loop_
_space_group_symop_operation_xyz
x,y,z
1/2-x,-y,1/2+z
1/2+x,1/2-y,1/2-z
-x,1/2+y,-z
-x,-y,-z
1/2+x,y,1/2-z
1/2-x,1/2+y,1/2+z
x,1/2-y,z
loop_
_atom_site_type_symbol
_atom_site_label
_atom_site_fract_x
_atom_site_fract_y
_atom_site_fract_z
Si Si1 0.227898 0.439996 0.351441
Si Si2 0.752287 0.060936 0.001376
Si Si3 0.163071 0.437938 0.222551
Si Si4 0.935787 0.062467 0.864979
Si Si5 0.338358 0.437150 0.268547
Si Si6 0.227260 0.062251 0.646393
Si Si7 0.620913 0.437721 0.500653
Si Si8 0.064278 0.061278 0.858059
O O1 0.227351 0.250000 0.351994
O O2 0.224944 0.494330 0.428467
O O3 0.180357 0.488575 0.298264
O O4 0.287660 0.487121 0.318959
O O5 0.753138 0.250000 0.002575
O O6 0.722814 0.013357 0.931681
O O7 0.816314 0.003905 0.999584
O O8 0.160883 0.250000 0.220164
O O9 0.106131 0.506416 0.193314
O O10 0.214614 0.493657 0.175623
O O11 0.934525 0.250000 0.868535
O O12 0.999747 0.011375 0.853574
O O13 0.912452 0.996693 0.935480
O O14 0.337779 0.250000 0.265726
O O15 0.321414 0.503221 0.195700
O O16 0.396091 0.495903 0.299622
O O17 0.230226 0.250000 0.649727
O O18 0.623324 0.250000 0.498953
O O19 0.590181 0.487153 0.569686
O O20 0.065972 0.250000 0.855462
#
# Coordination Sequence:
#
# PCOD9461866 Si02
#       8
#     8   8   8   8   8   8   8   8
#     4   8  16  30  48  70  95 123 156 197 243 290
#     4  10  18  31  50  72  97 130 162 192 241 298
#     4  10  19  32  49  71  97 126 165 208 245 286
#     4  11  22  35  49  67  97 136 170 203 244 294
#     4  10  19  32  51  71  96 129 163 203 245 288
#     4  10  19  30  49  72  99 129 159 197 243 296
#     4  11  21  32  47  70  98 129 167 209 239 279
#     4  10  22  36  49  69  97 130 171 209 245 288
#
# _framework density 15.810816000000001
#
# number of rings (size 3 to 8) (size 9 to 14) (size 15 to 20)
#    0.000    2.000    2.500    3.000    0.000    2.000 
#    0.000    0.625    0.000    0.000    0.000    0.875 
#    0.000    0.000    0.000    0.000    0.000    0.000 
#
# Total GULP energy -357059.743382 kJ/mol
# GULP energy per Si atom -5579.058490 kJ/mol
# Density = 1.577483 g / cm^3
# Si number density = 15.810816 Si / 1000 Ang^3
#
#
#
# Elastic Constant Matrix: (Units=GPa)
#
#
# Indices 1 2 3 4 5 6 
#
# 1 83.8103 10.1309 70.1827 0.0000 0.0000 0.0000
# 2 10.1309 17.2596 23.5164 0.0000 0.0000 0.0000
# 3 70.1827 23.5164 156.4131 0.0000 0.0000 0.0000
# 4 0.0000 0.0000 0.0000 16.5833 0.0000 0.0000
# 5 0.0000 0.0000 0.0000 0.0000 19.8208 0.0000
# 6 0.0000 0.0000 0.0000 0.0000 0.0000 21.7108
#
#
#
# Elastic Compliance Matrix: (Units=1/GPa)
#
#
# Indices 1 2 3 4 5 6 
#
# 1 0.019118 0.000586 -0.008666 0.000000 0.000000 0.000000
# 2 0.000586 0.072883 -0.011221 0.000000 0.000000 0.000000
# 3 -0.008666 -0.011221 0.011969 0.000000 0.000000 0.000000
# 4 0.000000 0.000000 0.000000 0.060302 0.000000 0.000000
# 5 0.000000 0.000000 0.000000 0.000000 0.050452 0.000000
# 6 0.000000 0.000000 0.000000 0.000000 0.000000 0.046060
#
#
# Mechanical properties :
#
#
# Convention : Reuss Voigt Hill
#
# Bulk Modulus (GPa) = 15.29796 51.68255 33.49026
# Shear Modulus (GPa) = 15.56782 21.86651 18.71716
#
# Velocity S-wave (km/s) = 3.14129 3.72292 3.44440
# Velocity P-wave (km/s) = 4.78054 7.15816 6.08657
#
# Compressibility (1/GPa) = 0.06536818
#
# Stress axis : x y z
#
# Youngs Moduli (GPa) = 52.30640 13.72061 83.54903
#
# Poissons Ratio (x) = -0.00805 0.72408
# Poissons Ratio (y) = -0.03067 0.93750
# Poissons Ratio (z) = 0.45331 0.15396
#
# Static dielectric constant tensor:
#      x y z
#    x 1.498700 0.000000 0.000000 
#    y 0.000000 1.534920 0.000000 
#    z 0.000000 0.000000 1.546560 
# 
# From -- ./inp_files/24757.got.cif
#   From: 2010.05.17/outbox.cif.g08.bks.cpg/sg62_13_cif.got.tgz:24757.got - 2010.06.03 15:25:27.
