data_PCOD9461051
_publ_section_title
;
Structure prediction by ZEFSAII (Michael W. Deem and Ramdas Pophale) SiO2 
 PCOD9461051
Probable space group: P B C A
;
_chemical_formula_sum "Si O2"
_cell_formula_units_Z 32
_cell_length_a 8.183937
_cell_length_b 8.702467
_cell_length_c 17.413717
_cell_angle_alpha 90.000000
_cell_angle_beta 90.000000
_cell_angle_gamma 90.000000
_cell_volume 1240.212616
_symmetry_space_group_name_H-M "P B C A"
_symmetry_group_IT_number 61
_symmetry_cell_setting 'orthorhombic'
loop_
_space_group_symop_operation_xyz
x,y,z
1/2-x,-y,1/2+z
1/2+x,1/2-y,-z
-x,1/2+y,1/2-z
-x,-y,-z
1/2+x,y,1/2-z
1/2-x,1/2+y,z
x,1/2-y,1/2+z
loop_
_atom_site_type_symbol
_atom_site_label
_atom_site_fract_x
_atom_site_fract_y
_atom_site_fract_z
Si Si1 0.110811 0.975181 0.274583
Si Si2 0.888886 0.214097 0.470139
Si Si3 0.720190 0.425352 0.570200
Si Si4 0.324622 0.770910 0.177276
O O1 0.233988 0.019503 0.343059
O O2 0.103556 0.116841 0.215580
O O3 0.175987 0.828098 0.229876
O O4 0.948553 0.915447 0.317637
O O5 0.877946 0.345857 0.534463
O O6 0.752768 0.247749 0.405959
O O7 0.066876 0.193694 0.433205
O O8 0.835677 0.061670 0.514876
#
# Coordination Sequence:
#
# PCOD9461051 Si02
#       4
#     8   8   8   8
#     4  12  25  44  70 102 139 179 227 280 341 406
#     4  11  24  44  68  97 134 174 224 279 337 405
#     4  11  24  43  67  97 134 177 224 279 339 403
#     4  12  25  44  71 103 139 180 227 281 339 406
#
# _framework density 25.802029000000001
#
# number of rings (size 3 to 8) (size 9 to 14) (size 15 to 20)
#    0.000    0.500    0.000   10.500    0.000    3.000 
#    0.000    0.000    0.000    0.000    0.000    0.000 
#    0.000    0.000    0.000    0.000    0.000    0.000 
#
# Total GULP energy -179539.373680 kJ/mol
# GULP energy per Si atom -5610.605428 kJ/mol
# Density = 2.574330 g / cm^3
# Si number density = 25.802029 Si / 1000 Ang^3
#
#
#
# Elastic Constant Matrix: (Units=GPa)
#
#
# Indices 1 2 3 4 5 6 
#
# 1 41.9531 9.0393 17.2270 0.0000 0.0000 0.0000
# 2 9.0393 48.7236 13.5669 0.0000 0.0000 0.0000
# 3 17.2270 13.5669 140.0141 0.0000 0.0000 0.0000
# 4 0.0000 0.0000 0.0000 44.1796 0.0000 0.0000
# 5 0.0000 0.0000 0.0000 0.0000 32.2103 0.0000
# 6 0.0000 0.0000 0.0000 0.0000 0.0000 92.2815
#
#
#
# Elastic Compliance Matrix: (Units=1/GPa)
#
#
# Indices 1 2 3 4 5 6 
#
# 1 0.025848 -0.004018 -0.002791 0.000000 0.000000 0.000000
# 2 -0.004018 0.021718 -0.001610 0.000000 0.000000 0.000000
# 3 -0.002791 -0.001610 0.007642 0.000000 0.000000 0.000000
# 4 0.000000 0.000000 0.000000 0.022635 0.000000 0.000000
# 5 0.000000 0.000000 0.000000 0.000000 0.031046 0.000000
# 6 0.000000 0.000000 0.000000 0.000000 0.000000 0.010836
#
#
# Mechanical properties :
#
#
# Convention : Reuss Voigt Hill
#
# Bulk Modulus (GPa) = 26.06277 34.48413 30.27345
# Shear Modulus (GPa) = 33.47789 46.45813 39.96801
#
# Velocity S-wave (km/s) = 3.60598 4.24791 3.94004
# Velocity P-wave (km/s) = 5.24027 6.11993 5.69710
#
# Compressibility (1/GPa) = 0.03836891
#
# Stress axis : x y z
#
# Youngs Moduli (GPa) = 38.68782 46.04537 130.86395
#
# Poissons Ratio (x) = 0.18502 0.36523
# Poissons Ratio (y) = 0.15546 0.21069
# Poissons Ratio (z) = 0.10797 0.07413
#
# Static dielectric constant tensor:
#      x y z
#    x 2.095090 0.000000 0.000000 
#    y 0.000000 2.017940 0.000000 
#    z 0.000000 0.000000 1.955730 
# 
# From -- ./inp_files/1669.got.cif
#   From: 2010.05.17/outbox.cif.g08.bks.cpg/sg61_1_cif.got.tgz:1669.got - 2010.06.03 15:17:17.
