data_PCOD9461175
_publ_section_title
;
Structure prediction by ZEFSAII (Michael W. Deem and Ramdas Pophale) SiO2 
 PCOD9461175
Probable space group: P B C A
;
_chemical_formula_sum "Si O2"
_cell_formula_units_Z 40
_cell_length_a 16.852864
_cell_length_b 15.166873
_cell_length_c 6.915441
_cell_angle_alpha 90.000000
_cell_angle_beta 90.000000
_cell_angle_gamma 90.000000
_cell_volume 1767.623012
_symmetry_space_group_name_H-M "P B C A"
_symmetry_group_IT_number 61
_symmetry_cell_setting 'orthorhombic'
loop_
_space_group_symop_operation_xyz
x,y,z
1/2-x,-y,1/2+z
1/2+x,1/2-y,-z
-x,1/2+y,1/2-z
-x,-y,-z
1/2+x,y,1/2-z
1/2-x,1/2+y,z
x,1/2-y,1/2+z
loop_
_atom_site_type_symbol
_atom_site_label
_atom_site_fract_x
_atom_site_fract_y
_atom_site_fract_z
Si Si1 0.178467 0.463334 0.476657
Si Si2 0.070336 0.114583 0.246553
Si Si3 0.549308 0.681213 0.507533
Si Si4 0.433998 0.125201 0.558184
Si Si5 0.639388 0.989472 0.939380
O O1 0.150704 0.385324 0.620913
O O2 0.148362 0.455631 0.257548
O O3 0.085367 0.459689 0.907416
O O4 0.272308 0.475735 0.479364
O O5 0.031348 0.190129 0.380192
O O6 0.961032 0.357343 0.221822
O O7 0.005860 0.095043 0.080021
O O8 0.589110 0.776795 0.515098
O O9 0.601904 0.606499 0.403524
O O10 0.364554 0.053218 0.550588
#
# Coordination Sequence:
#
# PCOD9461175 Si02
#       5
#     8   8   8   8   8
#     4  12  24  43  69 100 134 177 229 273 335 401
#     4  12  24  40  72  94 134 170 228 282 314 410
#     4  12  24  43  69  98 137 176 223 278 340 391
#     4  12  24  43  69  98 137 176 223 278 340 391
#     4  12  24  43  69 100 134 177 229 273 335 401
#
# _framework density 22.629258
#
# number of rings (size 3 to 8) (size 9 to 14) (size 15 to 20)
#    0.000    0.000    8.000    2.400    0.000    0.000 
#    0.000    2.000    0.000    0.000    0.000    0.000 
#    0.000    0.000    0.000    0.000    0.000    0.000 
#
# Total GULP energy -223375.409264 kJ/mol
# GULP energy per Si atom -5584.385232 kJ/mol
# Density = 2.257775 g / cm^3
# Si number density = 22.629258 Si / 1000 Ang^3
#
#
#
# Elastic Constant Matrix: (Units=GPa)
#
#
# Indices 1 2 3 4 5 6 
#
# 1 75.3742 19.2714 17.6259 0.0000 0.0000 0.0000
# 2 19.2714 38.8576 4.4707 0.0000 0.0000 0.0000
# 3 17.6259 4.4707 149.0159 0.0000 0.0000 0.0000
# 4 0.0000 0.0000 0.0000 33.0882 0.0000 0.0000
# 5 0.0000 0.0000 0.0000 0.0000 34.9109 0.0000
# 6 0.0000 0.0000 0.0000 0.0000 0.0000 12.0542
#
#
#
# Elastic Compliance Matrix: (Units=1/GPa)
#
#
# Indices 1 2 3 4 5 6 
#
# 1 0.015572 -0.007537 -0.001616 0.000000 0.000000 0.000000
# 2 -0.007537 0.029472 0.000007 0.000000 0.000000 0.000000
# 3 -0.001616 0.000007 0.006902 0.000000 0.000000 0.000000
# 4 0.000000 0.000000 0.000000 0.030222 0.000000 0.000000
# 5 0.000000 0.000000 0.000000 0.000000 0.028644 0.000000
# 6 0.000000 0.000000 0.000000 0.000000 0.000000 0.082959
#
#
# Mechanical properties :
#
#
# Convention : Reuss Voigt Hill
#
# Bulk Modulus (GPa) = 29.71350 38.44262 34.07806
# Shear Modulus (GPa) = 22.39336 30.80262 26.59799
#
# Velocity S-wave (km/s) = 3.14916 3.69343 3.43210
# Velocity P-wave (km/s) = 5.13635 5.93409 5.54957
#
# Compressibility (1/GPa) = 0.03365474
#
# Stress axis : x y z
#
# Youngs Moduli (GPa) = 64.21767 33.93031 144.89414
#
# Poissons Ratio (x) = 0.25573 0.23412
# Poissons Ratio (y) = 0.48401 -0.00106
# Poissons Ratio (z) = 0.10376 -0.00025
#
# Static dielectric constant tensor:
#      x y z
#    x 1.816640 0.000000 0.000000 
#    y 0.000000 1.862660 0.000000 
#    z 0.000000 0.000000 1.916070 
# 
# From -- ./inp_files/2725.got.cif
#   From: 2010.05.17/outbox.cif.g08.bks.cpg/sg61_2_cif.got.tgz:2725.got - 2010.06.03 15:17:17.
