data_PCOD9461965
_publ_section_title
;
Structure prediction by ZEFSAII (Michael W. Deem and Ramdas Pophale) SiO2 
 PCOD9461965
Probable space group: P N M A
;
_chemical_formula_sum "Si O2"
_cell_formula_units_Z 48
_cell_length_a 14.447999
_cell_length_b 20.750600
_cell_length_c 7.403829
_cell_angle_alpha 90.000000
_cell_angle_beta 90.000000
_cell_angle_gamma 90.000000
_cell_volume 2219.702348
_symmetry_space_group_name_H-M "P N M A"
_symmetry_group_IT_number 62
_symmetry_cell_setting 'orthorhombic'
loop_
_space_group_symop_operation_xyz
x,y,z
1/2-x,-y,1/2+z
1/2+x,1/2-y,1/2-z
-x,1/2+y,-z
-x,-y,-z
1/2+x,y,1/2-z
1/2-x,1/2+y,1/2+z
x,1/2-y,z
loop_
_atom_site_type_symbol
_atom_site_label
_atom_site_fract_x
_atom_site_fract_y
_atom_site_fract_z
Si Si1 0.874105 0.459628 0.365908
Si Si2 0.410318 0.821607 0.745587
Si Si3 0.218299 0.680330 0.963464
Si Si4 0.394531 0.319988 0.100852
Si Si5 0.715906 0.955297 0.464776
Si Si6 0.554197 0.462593 0.342539
O O1 0.860414 0.390116 0.462672
O O2 0.825851 0.455995 0.167158
O O3 0.819430 0.517593 0.457118
O O4 0.982766 0.467772 0.323585
O O5 0.412097 0.750000 0.657026
O O6 0.312783 0.827312 0.847888
O O7 0.494395 0.821383 0.889366
O O8 0.426875 0.886262 0.629285
O O9 0.219260 0.750000 0.053825
O O10 0.138011 0.680682 0.811709
O O11 0.210439 0.619104 0.090557
O O12 0.364163 0.250000 0.025192
O O13 0.651056 0.000630 0.344700
O O14 0.500000 0.500000 0.500000
#
# Coordination Sequence:
#
# PCOD9461965 Si02
#       6
#     8   8   8   8   8   8
#     4   9  18  30  48  71  95 127 160 195 241 291
#     4   9  16  28  47  71  95 119 158 207 241 272
#     4   9  17  29  48  70  91 126 169 202 240 290
#     4   8  14  26  44  68  95 119 150 195 239 276
#     4  10  18  32  50  69  95 124 159 203 244 290
#     4   9  17  29  46  71 101 129 157 196 249 303
#
# _framework density 21.624521000000001
#
# number of rings (size 3 to 8) (size 9 to 14) (size 15 to 20)
#    0.000    3.000    0.000    3.000    0.000    0.000 
#    0.000    7.500    0.000    6.000    0.000    0.000 
#    0.000    0.000    0.000    0.000    0.000    0.000 
#
# Total GULP energy -267222.921499 kJ/mol
# GULP energy per Si atom -5567.144198 kJ/mol
# Density = 2.157530 g / cm^3
# Si number density = 21.624521 Si / 1000 Ang^3
#
#
#
# Elastic Constant Matrix: (Units=GPa)
#
#
# Indices 1 2 3 4 5 6 
#
# 1 96.9711 10.2432 7.3909 0.0000 0.0000 0.0000
# 2 10.2432 175.0458 29.3348 0.0000 0.0000 0.0000
# 3 7.3909 29.3348 37.9065 0.0000 0.0000 0.0000
# 4 0.0000 0.0000 0.0000 5.9640 0.0000 0.0000
# 5 0.0000 0.0000 0.0000 0.0000 14.8920 0.0000
# 6 0.0000 0.0000 0.0000 0.0000 0.0000 31.6038
#
#
#
# Elastic Compliance Matrix: (Units=1/GPa)
#
#
# Indices 1 2 3 4 5 6 
#
# 1 0.010483 -0.000311 -0.001803 0.000000 0.000000 0.000000
# 2 -0.000311 0.006573 -0.005026 0.000000 0.000000 0.000000
# 3 -0.001803 -0.005026 0.030622 0.000000 0.000000 0.000000
# 4 0.000000 0.000000 0.000000 0.167673 0.000000 0.000000
# 5 0.000000 0.000000 0.000000 0.000000 0.067150 0.000000
# 6 0.000000 0.000000 0.000000 0.000000 0.000000 0.031642
#
#
# Mechanical properties :
#
#
# Convention : Reuss Voigt Hill
#
# Bulk Modulus (GPa) = 29.94289 44.87346 37.40817
# Shear Modulus (GPa) = 14.72512 28.02225 21.37368
#
# Velocity S-wave (km/s) = 2.61232 3.60370 3.14729
# Velocity P-wave (km/s) = 4.79330 6.17348 5.52664
#
# Compressibility (1/GPa) = 0.03339691
#
# Stress axis : x y z
#
# Youngs Moduli (GPa) = 95.39571 152.13011 32.65633
#
# Poissons Ratio (x) = 0.04735 0.05888
# Poissons Ratio (y) = 0.02969 0.16414
# Poissons Ratio (z) = 0.17200 0.76464
#
# Static dielectric constant tensor:
#      x y z
#    x 2.479260 0.000000 0.000000 
#    y 0.000000 1.871170 0.000000 
#    z 0.000000 0.000000 1.800440 
# 
# From -- ./inp_files/13629.got.cif
#   From: 2010.05.17/outbox.cif.g08.bks.cpg/sg62_7_cif.got.tgz:13629.got - 2010.06.03 15:25:27.
