data_PCOD9461148
_publ_section_title
;
Structure prediction by ZEFSAII (Michael W. Deem and Ramdas Pophale) SiO2 
 PCOD9461148
Probable space group: P B C A
;
_chemical_formula_sum "Si O2"
_cell_formula_units_Z 40
_cell_length_a 7.438544
_cell_length_b 21.851894
_cell_length_c 9.026023
_cell_angle_alpha 90.000000
_cell_angle_beta 90.000000
_cell_angle_gamma 90.000000
_cell_volume 1467.146417
_symmetry_space_group_name_H-M "P B C A"
_symmetry_group_IT_number 61
_symmetry_cell_setting 'orthorhombic'
loop_
_space_group_symop_operation_xyz
x,y,z
1/2-x,-y,1/2+z
1/2+x,1/2-y,-z
-x,1/2+y,1/2-z
-x,-y,-z
1/2+x,y,1/2-z
1/2-x,1/2+y,z
x,1/2-y,1/2+z
loop_
_atom_site_type_symbol
_atom_site_label
_atom_site_fract_x
_atom_site_fract_y
_atom_site_fract_z
Si Si1 0.101875 0.075682 0.374705
Si Si2 0.177511 0.303720 0.715116
Si Si3 0.598668 0.613403 0.888184
Si Si4 0.996441 0.251557 0.960343
Si Si5 0.780808 0.442336 0.092897
O O1 0.113199 0.126700 0.245207
O O2 0.233885 0.098010 0.506487
O O3 0.906794 0.065043 0.448832
O O4 0.178690 0.008931 0.336789
O O5 0.178219 0.275563 0.879140
O O6 0.350054 0.297731 0.609296
O O7 0.044146 0.256949 0.631056
O O8 0.539916 0.682640 0.911278
O O9 0.653661 0.604364 0.718591
O O10 0.429269 0.570269 0.927611
#
# Coordination Sequence:
#
# PCOD9461148 Si02
#       5
#     8   8   8   8   8
#     4  11  27  51  77 120 162 227 284 351 433 508
#     4  12  28  52  81 116 169 214 275 351 415 512
#     4  12  24  49  78 114 161 220 273 353 426 495
#     4  12  28  49  78 119 158 216 275 335 422 499
#     4  11  26  47  83 117 166 215 289 353 421 517
#
# _framework density 27.263812000000001
#
# number of rings (size 3 to 8) (size 9 to 14) (size 15 to 20)
#    0.000    0.400    2.000    5.400    5.600    4.800 
#    3.600    0.000    0.000    0.000    0.000    0.000 
#    0.000    0.000    0.000    0.000    0.000    0.000 
#
# Total GULP energy -224256.731587 kJ/mol
# GULP energy per Si atom -5606.418290 kJ/mol
# Density = 2.720176 g / cm^3
# Si number density = 27.263812 Si / 1000 Ang^3
#
#
#
# Elastic Constant Matrix: (Units=GPa)
#
#
# Indices 1 2 3 4 5 6 
#
# 1 142.0634 -5.1150 21.1725 0.0000 0.0000 0.0000
# 2 -5.1150 116.9405 18.9828 0.0000 0.0000 0.0000
# 3 21.1725 18.9828 105.1356 0.0000 0.0000 0.0000
# 4 0.0000 0.0000 0.0000 49.2101 0.0000 0.0000
# 5 0.0000 0.0000 0.0000 0.0000 43.5890 0.0000
# 6 0.0000 0.0000 0.0000 0.0000 0.0000 43.7665
#
#
#
# Elastic Compliance Matrix: (Units=1/GPa)
#
#
# Indices 1 2 3 4 5 6 
#
# 1 0.007294 0.000574 -0.001573 0.000000 0.000000 0.000000
# 2 0.000574 0.008855 -0.001714 0.000000 0.000000 0.000000
# 3 -0.001573 -0.001714 0.010138 0.000000 0.000000 0.000000
# 4 0.000000 0.000000 0.000000 0.020321 0.000000 0.000000
# 5 0.000000 0.000000 0.000000 0.000000 0.022942 0.000000
# 6 0.000000 0.000000 0.000000 0.000000 0.000000 0.022849
#
#
# Mechanical properties :
#
#
# Convention : Reuss Voigt Hill
#
# Bulk Modulus (GPa) = 47.93574 48.24670 48.09122
# Shear Modulus (GPa) = 47.72038 49.25307 48.48673
#
# Velocity S-wave (km/s) = 4.18822 4.25495 4.22172
# Velocity P-wave (km/s) = 6.40380 6.47102 6.43750
#
# Compressibility (1/GPa) = 0.02086126
#
# Stress axis : x y z
#
# Youngs Moduli (GPa) = 137.09592 112.93331 98.64096
#
# Poissons Ratio (x) = -0.06486 0.15512
# Poissons Ratio (y) = -0.07874 0.16911
# Poissons Ratio (z) = 0.21560 0.19362
#
# Static dielectric constant tensor:
#      x y z
#    x 2.300640 0.000000 0.000000 
#    y 0.000000 2.055870 0.000000 
#    z 0.000000 0.000000 2.082250 
# 
# From -- ./inp_files/1741.got.cif
#   From: 2010.05.17/outbox.cif.g08.bks.cpg/sg61_1_cif.got.tgz:1741.got - 2010.06.03 15:17:17.
