data_PCOD9461538
_publ_section_title
;
Structure prediction by ZEFSAII (Michael W. Deem and Ramdas Pophale) SiO2 
 PCOD9461538
Probable space group: P N M A
;
_chemical_formula_sum "Si O2"
_cell_formula_units_Z 56
_cell_length_a 18.240827
_cell_length_b 9.086110
_cell_length_c 22.493628
_cell_angle_alpha 90.000000
_cell_angle_beta 90.000000
_cell_angle_gamma 90.000000
_cell_volume 3728.052530
_symmetry_space_group_name_H-M "P N M A"
_symmetry_group_IT_number 62
_symmetry_cell_setting 'orthorhombic'
loop_
_space_group_symop_operation_xyz
x,y,z
1/2-x,-y,1/2+z
1/2+x,1/2-y,1/2-z
-x,1/2+y,-z
-x,-y,-z
1/2+x,y,1/2-z
1/2-x,1/2+y,1/2+z
x,1/2-y,z
loop_
_atom_site_type_symbol
_atom_site_label
_atom_site_fract_x
_atom_site_fract_y
_atom_site_fract_z
Si Si1 0.863392 0.571205 0.649185
Si Si2 0.246495 0.080113 0.182225
Si Si3 0.563271 0.423759 0.711352
Si Si4 0.505241 0.427103 0.064239
Si Si5 0.911351 0.927670 0.781761
Si Si6 0.890068 0.576131 0.348813
Si Si7 0.706884 0.920169 0.678271
O O1 0.860335 0.750000 0.651185
O O2 0.918983 0.529462 0.597373
O O3 0.895996 0.525015 0.713258
O O4 0.778917 0.522052 0.644055
O O5 0.252906 0.250000 0.162339
O O6 0.161545 0.033344 0.180963
O O7 0.267437 0.079305 0.252483
O O8 0.306229 0.979508 0.150434
O O9 0.057740 0.250000 0.797439
O O10 0.486798 0.502067 0.697222
O O11 0.580645 0.450275 0.781538
O O12 0.632488 0.488531 0.675790
O O13 0.502762 0.250000 0.060359
O O14 0.439889 0.485742 0.105844
O O15 0.500000 0.500000 0.000000
O O16 0.916945 0.750000 0.781834
O O17 0.894674 0.750000 0.360825
O O18 0.692830 0.750000 0.662109
#
# Coordination Sequence:
#
# PCOD9461538 Si02
#       7
#     8   8   8   8   8   8   8
#     4   8  15  28  45  60  77 108 147 183 213 248
#     4   8  15  26  42  61  80 107 144 179 211 252
#     4  10  18  25  37  62  91 115 140 173 214 256
#     4  11  21  33  48  64  85 112 150 190 224 257
#     4   9  15  26  43  62  83 113 149 176 207 255
#     4  10  19  30  42  59  85 115 146 178 219 261
#     4   8  14  26  42  58  77 107 145 175 206 252
#
# _framework density 15.021247000000001
#
# number of rings (size 3 to 8) (size 9 to 14) (size 15 to 20)
#    0.000    2.857    1.429    3.000    0.000    1.714 
#    0.000    3.571    0.000    0.000    0.000    0.000 
#    0.000    1.143    0.000    3.429    0.000    4.571 
#
# Total GULP energy -311819.098347 kJ/mol
# GULP energy per Si atom -5568.198185 kJ/mol
# Density = 1.498706 g / cm^3
# Si number density = 15.021247 Si / 1000 Ang^3
#
#
#
# Elastic Constant Matrix: (Units=GPa)
#
#
# Indices 1 2 3 4 5 6 
#
# 1 154.8283 57.0751 28.5149 0.0000 0.0000 0.0000
# 2 57.0751 47.9835 27.0234 0.0000 0.0000 0.0000
# 3 28.5149 27.0234 33.4828 0.0000 0.0000 0.0000
# 4 0.0000 0.0000 0.0000 15.5732 0.0000 0.0000
# 5 0.0000 0.0000 0.0000 0.0000 9.6170 0.0000
# 6 0.0000 0.0000 0.0000 0.0000 0.0000 13.2411
#
#
#
# Elastic Compliance Matrix: (Units=1/GPa)
#
#
# Indices 1 2 3 4 5 6 
#
# 1 0.011598 -0.015094 0.002304 0.000000 0.000000 0.000000
# 2 -0.015094 0.057849 -0.033835 0.000000 0.000000 0.000000
# 3 0.002304 -0.033835 0.055211 0.000000 0.000000 0.000000
# 4 0.000000 0.000000 0.000000 0.064213 0.000000 0.000000
# 5 0.000000 0.000000 0.000000 0.000000 0.103983 0.000000
# 6 0.000000 0.000000 0.000000 0.000000 0.000000 0.075523
#
#
# Mechanical properties :
#
#
# Convention : Reuss Voigt Hill
#
# Bulk Modulus (GPa) = 31.83668 51.28017 41.55843
# Shear Modulus (GPa) = 10.59108 15.93166 13.26137
#
# Velocity S-wave (km/s) = 2.65820 3.26023 2.97449
# Velocity P-wave (km/s) = 5.53731 6.95591 6.28675
#
# Compressibility (1/GPa) = 0.03141031
#
# Stress axis : x y z
#
# Youngs Moduli (GPa) = 86.21806 17.28631 18.11237
#
# Poissons Ratio (x) = 0.26092 -0.04174
# Poissons Ratio (y) = 1.30136 0.61283
# Poissons Ratio (z) = -0.19868 0.58488
#
# Static dielectric constant tensor:
#      x y z
#    x 1.521830 0.000000 0.000000 
#    y 0.000000 1.496110 0.000000 
#    z 0.000000 0.000000 1.469430 
# 
# From -- ./inp_files/27506.got.cif
#   From: 2010.05.17/outbox.cif.g08.bks.cpg/sg62_14_cif.got.tgz:27506.got - 2010.06.03 15:25:27.
