data_PCOD9461799
_publ_section_title
;
Structure prediction by ZEFSAII (Michael W. Deem and Ramdas Pophale) SiO2 
 PCOD9461799
Probable space group: P N M A
;
_chemical_formula_sum "Si O2"
_cell_formula_units_Z 56
_cell_length_a 5.663259
_cell_length_b 23.925151
_cell_length_c 23.470984
_cell_angle_alpha 90.000000
_cell_angle_beta 90.000000
_cell_angle_gamma 90.000000
_cell_volume 3180.185175
_symmetry_space_group_name_H-M "P N M A"
_symmetry_group_IT_number 62
_symmetry_cell_setting 'orthorhombic'
loop_
_space_group_symop_operation_xyz
x,y,z
1/2-x,-y,1/2+z
1/2+x,1/2-y,1/2-z
-x,1/2+y,-z
-x,-y,-z
1/2+x,y,1/2-z
1/2-x,1/2+y,1/2+z
x,1/2-y,z
loop_
_atom_site_type_symbol
_atom_site_label
_atom_site_fract_x
_atom_site_fract_y
_atom_site_fract_z
Si Si1 0.715933 0.425039 0.490632
Si Si2 0.746459 0.809762 0.123394
Si Si3 0.572106 0.982563 0.408192
Si Si4 0.009964 0.479765 0.778672
Si Si5 0.020265 0.845070 0.223434
Si Si6 0.021737 0.688094 0.009361
Si Si7 0.398726 0.619641 0.070848
O O1 0.612388 0.460559 0.544246
O O2 0.707233 0.465408 0.436682
O O3 0.558374 0.369301 0.478296
O O4 0.964232 0.405592 0.516176
O O5 0.647656 0.750000 0.140994
O O6 0.975419 0.823679 0.159827
O O7 0.563475 0.859931 0.122581
O O8 0.822091 0.807441 0.057851
O O9 0.474753 0.995014 0.345670
O O10 0.740845 0.929140 0.403881
O O11 0.254230 0.498318 0.747405
O O12 0.995016 0.412171 0.775058
O O13 0.774053 0.825960 0.253581
O O14 0.042579 0.750000 0.982196
O O15 0.255102 0.671412 0.044498
#
# Coordination Sequence:
#
# PCOD9461799 Si02
#       7
#     8   8   8   8   8   8   8
#     4   9  19  33  51  78 102 136 168 215 267 313
#     4  10  21  33  46  64  90 129 172 219 266 312
#     4  10  20  33  52  75 106 133 176 216 266 323
#     4  10  22  36  53  76 100 140 176 216 263 315
#     4  10  22  35  50  66  92 127 177 226 267 301
#     4   9  18  32  49  70  98 128 164 204 256 320
#     4  10  18  30  50  72  95 131 170 212 263 316
#
# _framework density 17.609038000000002
#
# number of rings (size 3 to 8) (size 9 to 14) (size 15 to 20)
#    0.000    2.286    0.000    3.429   10.000    1.143 
#    0.000    0.000    0.000    0.000    0.000    0.000 
#    0.000    1.143    0.000    0.000    0.000    0.000 
#
# Total GULP energy -311925.837321 kJ/mol
# GULP energy per Si atom -5570.104238 kJ/mol
# Density = 1.756896 g / cm^3
# Si number density = 17.609038 Si / 1000 Ang^3
#
#
#
# Elastic Constant Matrix: (Units=GPa)
#
#
# Indices 1 2 3 4 5 6 
#
# 1 57.8531 0.1005 24.7954 0.0000 0.0000 0.0000
# 2 0.1005 37.3760 22.5867 0.0000 0.0000 0.0000
# 3 24.7954 22.5867 60.7059 0.0000 0.0000 0.0000
# 4 0.0000 0.0000 0.0000 11.7449 0.0000 0.0000
# 5 0.0000 0.0000 0.0000 0.0000 18.5270 0.0000
# 6 0.0000 0.0000 0.0000 0.0000 0.0000 4.1686
#
#
#
# Elastic Compliance Matrix: (Units=1/GPa)
#
#
# Indices 1 2 3 4 5 6 
#
# 1 0.022296 0.007022 -0.011720 0.000000 0.000000 0.000000
# 2 0.007022 0.036728 -0.016533 0.000000 0.000000 0.000000
# 3 -0.011720 -0.016533 0.027411 0.000000 0.000000 0.000000
# 4 0.000000 0.000000 0.000000 0.085143 0.000000 0.000000
# 5 0.000000 0.000000 0.000000 0.000000 0.053975 0.000000
# 6 0.000000 0.000000 0.000000 0.000000 0.000000 0.239886
#
#
# Mechanical properties :
#
#
# Convention : Reuss Voigt Hill
#
# Bulk Modulus (GPa) = 22.74102 27.87780 25.30941
# Shear Modulus (GPa) = 9.56831 14.11827 11.84329
#
# Velocity S-wave (km/s) = 2.33357 2.83461 2.59621
# Velocity P-wave (km/s) = 4.49479 5.15551 4.83645
#
# Compressibility (1/GPa) = 0.04397341
#
# Stress axis : x y z
#
# Youngs Moduli (GPa) = 44.85138 27.22753 36.48141
#
# Poissons Ratio (x) = -0.19120 0.42755
# Poissons Ratio (y) = -0.31496 0.60316
# Poissons Ratio (z) = 0.52564 0.45016
#
# Static dielectric constant tensor:
#      x y z
#    x 1.697950 0.000000 0.000000 
#    y 0.000000 1.652240 0.000000 
#    z 0.000000 0.000000 1.624270 
# 
# From -- ./inp_files/25375.got.cif
#   From: 2010.05.17/outbox.cif.g08.bks.cpg/sg62_13_cif.got.tgz:25375.got - 2010.06.03 15:25:27.
