data_PCOD9461677
_publ_section_title
;
Structure prediction by ZEFSAII (Michael W. Deem and Ramdas Pophale) SiO2 
 PCOD9461677
Probable space group: P N M A
;
_chemical_formula_sum "Si O2"
_cell_formula_units_Z 56
_cell_length_a 19.036381
_cell_length_b 8.493789
_cell_length_c 21.350676
_cell_angle_alpha 90.000000
_cell_angle_beta 90.000000
_cell_angle_gamma 90.000000
_cell_volume 3452.212229
_symmetry_space_group_name_H-M "P N M A"
_symmetry_group_IT_number 62
_symmetry_cell_setting 'orthorhombic'
loop_
_space_group_symop_operation_xyz
x,y,z
1/2-x,-y,1/2+z
1/2+x,1/2-y,1/2-z
-x,1/2+y,-z
-x,-y,-z
1/2+x,y,1/2-z
1/2-x,1/2+y,1/2+z
x,1/2-y,z
loop_
_atom_site_type_symbol
_atom_site_label
_atom_site_fract_x
_atom_site_fract_y
_atom_site_fract_z
Si Si1 0.079040 0.935425 0.002310
Si Si2 0.856674 0.563728 0.123767
Si Si3 0.296023 0.433928 0.178032
Si Si4 0.073910 0.561468 0.748835
Si Si5 0.724911 0.562420 0.199273
Si Si6 0.655772 0.439209 0.375772
Si Si7 0.580117 0.563264 0.250764
O O1 0.076865 0.750000 0.013247
O O2 0.120915 0.014790 0.059157
O O3 0.115883 0.973229 0.936436
O O4 0.000000 0.000000 0.000000
O O5 0.866069 0.750000 0.113546
O O6 0.899849 0.514450 0.185920
O O7 0.774549 0.533619 0.139899
O O8 0.304233 0.250000 0.163278
O O9 0.373808 0.496951 0.193311
O O10 0.257573 0.459524 0.244851
O O11 0.236896 0.497610 0.130638
O O12 0.082144 0.750000 0.754421
O O13 0.993229 0.520222 0.738002
O O14 0.733221 0.750000 0.214815
O O15 0.642043 0.530326 0.200419
O O16 0.655473 0.250000 0.368813
O O17 0.611398 0.510088 0.317972
O O18 0.568236 0.750000 0.252656
#
# Coordination Sequence:
#
# PCOD9461677 Si02
#       7
#     8   8   8   8   8   8   8
#     4  12  24  36  48  66  91 122 155 188 221 262
#     4  10  19  33  49  66  89 121 155 189 224 264
#     4   8  16  29  46  65  88 116 149 184 223 266
#     4  10  18  29  45  69  96 122 149 183 224 268
#     4   8  16  29  46  65  88 116 149 184 223 266
#     4  10  19  33  49  66  89 121 155 189 224 264
#     4  10  18  29  45  69  96 122 149 183 224 268
#
# _framework density 16.221482000000002
#
# number of rings (size 3 to 8) (size 9 to 14) (size 15 to 20)
#    0.000    2.286    0.000    3.857    0.000    2.286 
#    0.000    0.000    0.000    0.000    0.000    1.000 
#    0.000    0.000    0.000    0.000    0.000    0.000 
#
# Total GULP energy -311954.046124 kJ/mol
# GULP energy per Si atom -5570.607966 kJ/mol
# Density = 1.618456 g / cm^3
# Si number density = 16.221482 Si / 1000 Ang^3
#
#
#
# Elastic Constant Matrix: (Units=GPa)
#
#
# Indices 1 2 3 4 5 6 
#
# 1 121.1273 3.6579 34.6768 0.0000 0.0000 0.0000
# 2 3.6579 23.6969 -1.5111 0.0000 0.0000 0.0000
# 3 34.6768 -1.5111 46.9840 0.0000 0.0000 0.0000
# 4 0.0000 0.0000 0.0000 19.5487 0.0000 0.0000
# 5 0.0000 0.0000 0.0000 0.0000 24.0655 0.0000
# 6 0.0000 0.0000 0.0000 0.0000 0.0000 18.9174
#
#
#
# Elastic Compliance Matrix: (Units=1/GPa)
#
#
# Indices 1 2 3 4 5 6 
#
# 1 0.010574 -0.002134 -0.007873 0.000000 0.000000 0.000000
# 2 -0.002134 0.042717 0.002949 0.000000 0.000000 0.000000
# 3 -0.007873 0.002949 0.027189 0.000000 0.000000 0.000000
# 4 0.000000 0.000000 0.000000 0.051154 0.000000 0.000000
# 5 0.000000 0.000000 0.000000 0.000000 0.041553 0.000000
# 6 0.000000 0.000000 0.000000 0.000000 0.000000 0.052861
#
#
# Mechanical properties :
#
#
# Convention : Reuss Voigt Hill
#
# Bulk Modulus (GPa) = 15.06830 29.49503 22.28167
# Shear Modulus (GPa) = 19.06307 22.83863 20.95085
#
# Velocity S-wave (km/s) = 3.43180 3.75630 3.59771
# Velocity P-wave (km/s) = 5.00123 6.08566 5.56990
#
# Compressibility (1/GPa) = 0.06636447
#
# Stress axis : x y z
#
# Youngs Moduli (GPa) = 94.57042 23.40979 36.77907
#
# Poissons Ratio (x) = 0.04996 0.28956
# Poissons Ratio (y) = 0.20184 -0.10847
# Poissons Ratio (z) = 0.74455 -0.06904
#
# Static dielectric constant tensor:
#      x y z
#    x 1.591460 0.000000 0.000000 
#    y 0.000000 1.559520 0.000000 
#    z 0.000000 0.000000 1.529320 
# 
# From -- ./inp_files/22609.got.cif
#   From: 2010.05.17/outbox.cif.g08.bks.cpg/sg62_12_cif.got.tgz:22609.got - 2010.06.03 15:25:27.
