data_PCOD9461229
_publ_section_title
;
Structure prediction by ZEFSAII (Michael W. Deem and Ramdas Pophale) SiO2 
 PCOD9461229
Probable space group: P B C A
;
_chemical_formula_sum "Si O2"
_cell_formula_units_Z 24
_cell_length_a 19.054610
_cell_length_b 5.013757
_cell_length_c 9.679642
_cell_angle_alpha 90.000000
_cell_angle_beta 90.000000
_cell_angle_gamma 90.000000
_cell_volume 924.746382
_symmetry_space_group_name_H-M "P B C A"
_symmetry_group_IT_number 61
_symmetry_cell_setting 'orthorhombic'
loop_
_space_group_symop_operation_xyz
x,y,z
1/2-x,-y,1/2+z
1/2+x,1/2-y,-z
-x,1/2+y,1/2-z
-x,-y,-z
1/2+x,y,1/2-z
1/2-x,1/2+y,z
x,1/2-y,1/2+z
loop_
_atom_site_type_symbol
_atom_site_label
_atom_site_fract_x
_atom_site_fract_y
_atom_site_fract_z
Si Si1 0.012217 0.750574 0.099219
Si Si2 0.795907 0.583242 0.012721
Si Si3 0.384002 0.615810 0.213090
O O1 0.953059 0.744544 0.217066
O O2 0.087319 0.826254 0.165436
O O3 0.000000 0.500000 0.000000
O O4 0.000000 0.000000 0.000000
O O5 0.770141 0.281943 0.992326
O O6 0.853354 0.708855 0.910557
O O7 0.826172 0.599653 0.167326
#
# Coordination Sequence:
#
# PCOD9461229 Si02
#       3
#     8   8   8
#     4  12  28  49  83 128 165 219 277 369 432 509
#     4  12  30  51  83 119 169 229 283 348 424 523
#     4  12  28  54  85 123 172 216 293 352 442 505
#
# _framework density 25.953061000000002
#
# number of rings (size 3 to 8) (size 9 to 14) (size 15 to 20)
#    0.000    0.000    3.333    4.000    4.667    8.000 
#    0.000    0.000    0.000    0.000    0.000    0.000 
#    0.000    0.000    0.000    0.000    0.000    0.000 
#
# Total GULP energy -134716.673455 kJ/mol
# GULP energy per Si atom -5613.194727 kJ/mol
# Density = 2.589399 g / cm^3
# Si number density = 25.953061 Si / 1000 Ang^3
#
#
#
# Elastic Constant Matrix: (Units=GPa)
#
#
# Indices 1 2 3 4 5 6 
#
# 1 122.7676 37.0894 41.9333 0.0000 0.0000 0.0000
# 2 37.0894 168.2947 48.8979 0.0000 0.0000 0.0000
# 3 41.9333 48.8979 150.1511 0.0000 0.0000 0.0000
# 4 0.0000 0.0000 0.0000 37.6328 0.0000 0.0000
# 5 0.0000 0.0000 0.0000 0.0000 64.9222 0.0000
# 6 0.0000 0.0000 0.0000 0.0000 0.0000 62.5170
#
#
#
# Elastic Compliance Matrix: (Units=1/GPa)
#
#
# Indices 1 2 3 4 5 6 
#
# 1 0.009306 -0.001431 -0.002133 0.000000 0.000000 0.000000
# 2 -0.001431 0.006783 -0.001809 0.000000 0.000000 0.000000
# 3 -0.002133 -0.001809 0.007845 0.000000 0.000000 0.000000
# 4 0.000000 0.000000 0.000000 0.026573 0.000000 0.000000
# 5 0.000000 0.000000 0.000000 0.000000 0.015403 0.000000
# 6 0.000000 0.000000 0.000000 0.000000 0.000000 0.015996
#
#
# Mechanical properties :
#
#
# Convention : Reuss Voigt Hill
#
# Bulk Modulus (GPa) = 75.82987 77.45052 76.64019
# Shear Modulus (GPa) = 51.52078 53.90060 52.71069
#
# Velocity S-wave (km/s) = 4.46034 4.56219 4.51155
# Velocity P-wave (km/s) = 7.47045 7.59334 7.53215
#
# Compressibility (1/GPa) = 0.01318742
#
# Stress axis : x y z
#
# Youngs Moduli (GPa) = 107.45281 147.42621 127.47257
#
# Poissons Ratio (x) = 0.21100 0.27189
# Poissons Ratio (y) = 0.15379 0.23063
# Poissons Ratio (z) = 0.22919 0.26673
#
# Static dielectric constant tensor:
#      x y z
#    x 2.113120 0.000000 0.000000 
#    y 0.000000 2.127020 0.000000 
#    z 0.000000 0.000000 2.007190 
# 
# From -- ./inp_files/4139.got.cif
#   From: 2010.05.17/outbox.cif.g08.bks.cpg/sg61_3_cif.got.tgz:4139.got - 2010.06.03 15:17:17.
