data_PCOD9461587
_publ_section_title
;
Structure prediction by ZEFSAII (Michael W. Deem and Ramdas Pophale) SiO2 
 PCOD9461587
Probable space group: P N M A
;
_chemical_formula_sum "Si O2"
_cell_formula_units_Z 64
_cell_length_a 29.094139
_cell_length_b 7.877442
_cell_length_c 14.567749
_cell_angle_alpha 90.000000
_cell_angle_beta 90.000000
_cell_angle_gamma 90.000000
_cell_volume 3338.744408
_symmetry_space_group_name_H-M "P N M A"
_symmetry_group_IT_number 62
_symmetry_cell_setting 'orthorhombic'
loop_
_space_group_symop_operation_xyz
x,y,z
1/2-x,-y,1/2+z
1/2+x,1/2-y,1/2-z
-x,1/2+y,-z
-x,-y,-z
1/2+x,y,1/2-z
1/2-x,1/2+y,1/2+z
x,1/2-y,z
loop_
_atom_site_type_symbol
_atom_site_label
_atom_site_fract_x
_atom_site_fract_y
_atom_site_fract_z
Si Si1 0.747265 0.444428 0.635809
Si Si2 0.440073 0.549681 0.409390
Si Si3 0.843771 0.557485 0.586025
Si Si4 0.723747 0.944404 0.350183
Si Si5 0.461224 0.949371 0.612534
Si Si6 0.349558 0.958038 0.308962
Si Si7 0.321336 0.540609 0.105052
Si Si8 0.371708 0.050725 0.714288
O O1 0.750182 0.250000 0.601687
O O2 0.788314 0.553492 0.595601
O O3 0.758671 0.435976 0.744718
O O4 0.695182 0.508865 0.631457
O O5 0.431063 0.750000 0.419149
O O6 0.489624 0.527566 0.362239
O O7 0.445809 0.479464 0.512739
O O8 0.396864 0.480738 0.353227
O O9 0.860639 0.750000 0.589093
O O10 0.850269 0.485674 0.483793
O O11 0.862784 0.469080 0.676948
O O12 0.718503 0.750000 0.383369
O O13 0.768115 0.021303 0.399974
O O14 0.672870 0.022553 0.340756
O O15 0.469775 0.750000 0.601619
O O16 0.419571 0.974885 0.682015
O O17 0.348517 0.750000 0.308026
O O18 0.342206 0.010487 0.203156
O O19 0.319874 0.750000 0.103674
O O20 0.372854 0.250000 0.694416
#
# Coordination Sequence:
#
# PCOD9461587 Si02
#       8
#     8   8   8   8   8   8   8   8
#     4   8  14  26  43  62  88 123 158 189 221 261
#     4   9  18  33  53  74  94 120 153 189 235 290
#     4  10  18  27  43  69  99 127 156 192 230 268
#     4   7  12  24  41  61  85 116 153 185 215 258
#     4  10  20  33  49  72  99 120 146 192 244 288
#     4   8  14  28  50  71  92 122 160 194 226 275
#     4   8  14  25  43  68  96 125 155 188 227 269
#     4  10  19  32  50  68  91 127 165 196 230 278
#
# _framework density 19.168882
#
# number of rings (size 3 to 8) (size 9 to 14) (size 15 to 20)
#    0.000    3.250    0.000    3.375    0.000    1.500 
#    0.000    0.625    0.000   16.500    0.000    0.000 
#    0.000    0.000    0.000    0.000    0.000    0.000 
#
# Total GULP energy -356306.802497 kJ/mol
# GULP energy per Si atom -5567.293789 kJ/mol
# Density = 1.912525 g / cm^3
# Si number density = 19.168882 Si / 1000 Ang^3
#
#
#
# Elastic Constant Matrix: (Units=GPa)
#
#
# Indices 1 2 3 4 5 6 
#
# 1 105.2512 -6.6326 21.0508 0.0000 0.0000 0.0000
# 2 -6.6326 19.7809 -1.9089 0.0000 0.0000 0.0000
# 3 21.0508 -1.9089 38.9497 0.0000 0.0000 0.0000
# 4 0.0000 0.0000 0.0000 9.7466 0.0000 0.0000
# 5 0.0000 0.0000 0.0000 0.0000 21.8963 0.0000
# 6 0.0000 0.0000 0.0000 0.0000 0.0000 9.0900
#
#
#
# Elastic Compliance Matrix: (Units=1/GPa)
#
#
# Indices 1 2 3 4 5 6 
#
# 1 0.010837 0.003083 -0.005706 0.000000 0.000000 0.000000
# 2 0.003083 0.051671 0.000866 0.000000 0.000000 0.000000
# 3 -0.005706 0.000866 0.028800 0.000000 0.000000 0.000000
# 4 0.000000 0.000000 0.000000 0.102600 0.000000 0.000000
# 5 0.000000 0.000000 0.000000 0.000000 0.045670 0.000000
# 6 0.000000 0.000000 0.000000 0.000000 0.000000 0.110011
#
#
# Mechanical properties :
#
#
# Convention : Reuss Voigt Hill
#
# Bulk Modulus (GPa) = 11.39021 21.00006 16.19513
# Shear Modulus (GPa) = 13.07643 18.24473 15.66058
#
# Velocity S-wave (km/s) = 2.61467 3.08845 2.86139
# Velocity P-wave (km/s) = 3.88204 4.86797 4.40269
#
# Compressibility (1/GPa) = 0.08779473
#
# Stress axis : x y z
#
# Youngs Moduli (GPa) = 92.28059 19.35315 34.72195
#
# Poissons Ratio (x) = -0.05966 0.19811
# Poissons Ratio (y) = -0.28450 -0.03007
# Poissons Ratio (z) = 0.52652 -0.01676
#
# Static dielectric constant tensor:
#      x y z
#    x 1.676920 0.000000 0.000000 
#    y 0.000000 1.686180 0.000000 
#    z 0.000000 0.000000 1.704540 
# 
# From -- ./inp_files/21225.got.cif
#   From: 2010.05.17/outbox.cif.g08.bks.cpg/sg62_11_cif.got.tgz:21225.got - 2010.06.03 15:25:27.
