data_PCOD9461010
_publ_section_title
;
Structure prediction by ZEFSAII (Michael W. Deem and Ramdas Pophale) SiO2 
 PCOD9461010
Probable space group: P B C A
;
_chemical_formula_sum "Si O2"
_cell_formula_units_Z 32
_cell_length_a 14.345031
_cell_length_b 8.788713
_cell_length_c 9.196938
_cell_angle_alpha 90.000000
_cell_angle_beta 90.000000
_cell_angle_gamma 90.000000
_cell_volume 1159.498076
_symmetry_space_group_name_H-M "P B C A"
_symmetry_group_IT_number 61
_symmetry_cell_setting 'orthorhombic'
loop_
_space_group_symop_operation_xyz
x,y,z
1/2-x,-y,1/2+z
1/2+x,1/2-y,-z
-x,1/2+y,1/2-z
-x,-y,-z
1/2+x,y,1/2-z
1/2-x,1/2+y,z
x,1/2-y,1/2+z
loop_
_atom_site_type_symbol
_atom_site_label
_atom_site_fract_x
_atom_site_fract_y
_atom_site_fract_z
Si Si1 0.572591 0.070774 0.111419
Si Si2 0.534247 0.871475 0.390699
Si Si3 0.725950 0.051321 0.608345
Si Si4 0.210991 0.690312 0.169904
O O1 0.545723 0.246132 0.132452
O O2 0.557692 0.966310 0.249804
O O3 0.679444 0.043533 0.071916
O O4 0.500000 0.000000 0.000000
O O5 0.627945 0.772114 0.420502
O O6 0.500000 0.000000 0.500000
O O7 0.713839 0.121413 0.445322
O O8 0.747100 0.183989 0.723326
O O9 0.670432 0.934494 0.714859
#
# Coordination Sequence:
#
# PCOD9461010 Si02
#       4
#     8   8   8   8
#     4  11  23  45  75 109 147 205 264 333 400 480
#     4  11  25  46  77 109 154 203 269 339 403 488
#     4  11  25  48  74 108 157 205 269 335 412 500
#     4  11  25  48  74 111 155 211 262 339 417 495
#
# _framework density 27.598147999999998
#
# number of rings (size 3 to 8) (size 9 to 14) (size 15 to 20)
#    0.000    1.000    2.500    3.000    3.500    2.000 
#   22.500    0.000    0.000    0.000    0.000    0.000 
#    0.000    0.000    0.000    0.000    0.000    0.000 
#
# Total GULP energy -179289.721525 kJ/mol
# GULP energy per Si atom -5602.803798 kJ/mol
# Density = 2.753533 g / cm^3
# Si number density = 27.598148 Si / 1000 Ang^3
#
#
#
# Elastic Constant Matrix: (Units=GPa)
#
#
# Indices 1 2 3 4 5 6 
#
# 1 104.2553 21.9761 25.9903 0.0000 0.0000 0.0000
# 2 21.9761 202.5397 55.1164 0.0000 0.0000 0.0000
# 3 25.9903 55.1164 153.8792 0.0000 0.0000 0.0000
# 4 0.0000 0.0000 0.0000 68.4406 0.0000 0.0000
# 5 0.0000 0.0000 0.0000 0.0000 36.1583 0.0000
# 6 0.0000 0.0000 0.0000 0.0000 0.0000 46.1397
#
#
#
# Elastic Compliance Matrix: (Units=1/GPa)
#
#
# Indices 1 2 3 4 5 6 
#
# 1 0.010102 -0.000700 -0.001456 0.000000 0.000000 0.000000
# 2 -0.000700 0.005519 -0.001859 0.000000 0.000000 0.000000
# 3 -0.001456 -0.001859 0.007410 0.000000 0.000000 0.000000
# 4 0.000000 0.000000 0.000000 0.014611 0.000000 0.000000
# 5 0.000000 0.000000 0.000000 0.000000 0.027656 0.000000
# 6 0.000000 0.000000 0.000000 0.000000 0.000000 0.021673
#
#
# Mechanical properties :
#
#
# Convention : Reuss Voigt Hill
#
# Bulk Modulus (GPa) = 66.65269 74.09334 70.37302
# Shear Modulus (GPa) = 49.99927 53.98715 51.99321
#
# Velocity S-wave (km/s) = 4.26101 4.42768 4.34514
# Velocity P-wave (km/s) = 6.95786 7.28317 7.12238
#
# Compressibility (1/GPa) = 0.01500314
#
# Stress axis : x y z
#
# Youngs Moduli (GPa) = 98.98780 181.19148 134.95012
#
# Poissons Ratio (x) = 0.12684 0.19643
# Poissons Ratio (y) = 0.06929 0.25081
# Poissons Ratio (z) = 0.14408 0.33676
#
# Static dielectric constant tensor:
#      x y z
#    x 2.326580 0.000000 0.000000 
#    y 0.000000 2.189540 0.000000 
#    z 0.000000 0.000000 2.092680 
# 
# From -- ./inp_files/3772.got.cif
#   From: 2010.05.17/outbox.cif.g08.bks.cpg/sg61_2_cif.got.tgz:3772.got - 2010.06.03 15:17:17.
