data_PCOD9461296
_publ_section_title
;
Structure prediction by ZEFSAII (Michael W. Deem and Ramdas Pophale) SiO2 
 PCOD9461296
Probable space group: P B C A
;
_chemical_formula_sum "Si O2"
_cell_formula_units_Z 48
_cell_length_a 9.000000
_cell_length_b 9.000000
_cell_length_c 30.000000
_cell_angle_alpha 90.000000
_cell_angle_beta 90.000000
_cell_angle_gamma 90.000000
_cell_volume 2430.000000
_symmetry_space_group_name_H-M "P B C A"
_symmetry_group_IT_number 61
_symmetry_cell_setting 'orthorhombic'
loop_
_space_group_symop_operation_xyz
x,y,z
1/2-x,-y,1/2+z
1/2+x,1/2-y,-z
-x,1/2+y,1/2-z
-x,-y,-z
1/2+x,y,1/2-z
1/2-x,1/2+y,z
x,1/2-y,1/2+z
loop_
_atom_site_type_symbol
_atom_site_label
_atom_site_fract_x
_atom_site_fract_y
_atom_site_fract_z
Si Si1 0.943135 0.710345 0.100519
Si Si2 0.218452 0.937706 0.551608
Si Si3 0.279496 0.071531 0.941309
Si Si4 0.943775 0.182298 0.294419
Si Si5 0.431875 0.777044 0.096515
Si Si6 0.388469 0.678074 0.704327
O O1 0.830276 0.578506 0.084544
O O2 0.868241 0.860088 0.081271
O O3 0.088053 0.670376 0.070799
O O4 0.981228 0.707582 0.154823
O O5 0.224142 0.943206 0.496490
O O6 0.365742 0.872960 0.575122
O O7 0.173163 0.092676 0.575358
O O8 0.410732 0.184471 0.926112
O O9 0.784677 0.268957 0.294244
O O10 0.031702 0.242285 0.248741
O O11 0.914776 0.001999 0.291162
O O12 0.435781 0.783005 0.151616
#
# Coordination Sequence:
#
# PCOD9461296 Si02
#       6
#     8   8   8   8   8   8
#     4  11  24  44  64 100 139 178 229 289 343 410
#     4  11  21  42  69  96 136 184 226 281 344 411
#     4  11  23  41  67  99 138 181 230 277 342 414
#     4  12  27  48  76 101 141 182 238 290 358 415
#     4  11  22  42  68  97 139 176 226 285 342 411
#     4  12  25  49  72 106 136 188 234 291 354 419
#
# _framework density 19.753086
#
# number of rings (size 3 to 8) (size 9 to 14) (size 15 to 20)
#    0.000    0.667    5.000    5.000    2.333    2.667 
#    3.000    3.333    0.000    0.000    0.000    0.000 
#    0.000    0.000    0.000    0.000    0.000    0.000 
#
# Total GULP energy -267545.874654 kJ/mol
# GULP energy per Si atom -5573.872389 kJ/mol
# Density = 1.970813 g / cm^3
# Si number density = 19.753086 Si / 1000 Ang^3
#
#
#
# Elastic Constant Matrix: (Units=GPa)
#
#
# Indices 1 2 3 4 5 6 
#
# 1 62.0531 54.5903 44.7279 0.0000 0.0000 0.0000
# 2 54.5903 82.9805 45.6914 0.0000 0.0000 0.0000
# 3 44.7279 45.6914 247.5258 0.0000 0.0000 0.0000
# 4 0.0000 0.0000 0.0000 43.9380 0.0000 0.0000
# 5 0.0000 0.0000 0.0000 0.0000 46.0511 0.0000
# 6 0.0000 0.0000 0.0000 0.0000 0.0000 59.1342
#
#
#
# Elastic Compliance Matrix: (Units=1/GPa)
#
#
# Indices 1 2 3 4 5 6 
#
# 1 0.039726 -0.024692 -0.002621 0.000000 0.000000 0.000000
# 2 -0.024692 0.028762 -0.000847 0.000000 0.000000 0.000000
# 3 -0.002621 -0.000847 0.004670 0.000000 0.000000 0.000000
# 4 0.000000 0.000000 0.000000 0.022759 0.000000 0.000000
# 5 0.000000 0.000000 0.000000 0.000000 0.021715 0.000000
# 6 0.000000 0.000000 0.000000 0.000000 0.000000 0.016911
#
#
# Mechanical properties :
#
#
# Convention : Reuss Voigt Hill
#
# Bulk Modulus (GPa) = 59.38820 75.84206 67.61513
# Shear Modulus (GPa) = 25.44848 46.32797 35.88823
#
# Velocity S-wave (km/s) = 3.59322 4.84814 4.26707
# Velocity P-wave (km/s) = 6.88081 8.35570 7.65386
#
# Compressibility (1/GPa) = 0.01683836
#
# Stress axis : x y z
#
# Youngs Moduli (GPa) = 25.17215 34.76862 214.13494
#
# Poissons Ratio (x) = 0.85850 0.56117
# Poissons Ratio (y) = 0.62155 0.18145
# Poissons Ratio (z) = 0.06597 0.02946
#
# Static dielectric constant tensor:
#      x y z
#    x 1.774500 0.000000 0.000000 
#    y 0.000000 1.785150 0.000000 
#    z 0.000000 0.000000 1.679890 
# 
# From -- ./inp_files/11673.got.cif
#   From: 2010.05.17/outbox.ucp.g08.bks.cvg/sg61_6_cif.got.tgz:11673.got - 2010.06.11 16:28:26.
