data_PCOD9461614
_publ_section_title
;
Structure prediction by ZEFSAII (Michael W. Deem and Ramdas Pophale) SiO2 
 PCOD9461614
Probable space group: P N M A
;
_chemical_formula_sum "Si O2"
_cell_formula_units_Z 56
_cell_length_a 14.037697
_cell_length_b 8.801519
_cell_length_c 30.231398
_cell_angle_alpha 90.000000
_cell_angle_beta 90.000000
_cell_angle_gamma 90.000000
_cell_volume 3735.181636
_symmetry_space_group_name_H-M "P N M A"
_symmetry_group_IT_number 62
_symmetry_cell_setting 'orthorhombic'
loop_
_space_group_symop_operation_xyz
x,y,z
1/2-x,-y,1/2+z
1/2+x,1/2-y,1/2-z
-x,1/2+y,-z
-x,-y,-z
1/2+x,y,1/2-z
1/2-x,1/2+y,1/2+z
x,1/2-y,z
loop_
_atom_site_type_symbol
_atom_site_label
_atom_site_fract_x
_atom_site_fract_y
_atom_site_fract_z
Si Si1 0.109239 0.067322 0.902642
Si Si2 0.894055 0.932460 0.000263
Si Si3 0.604123 0.068037 0.403340
Si Si4 0.292130 0.431586 0.679781
Si Si5 0.110938 0.932408 0.272964
Si Si6 0.893522 0.566811 0.267750
Si Si7 0.292196 0.069238 0.317452
O O1 0.108194 0.250000 0.899009
O O2 0.146978 0.022976 0.951852
O O3 0.171159 0.998233 0.863461
O O4 0.000500 0.007243 0.898844
O O5 0.899809 0.750000 0.000971
O O6 0.854112 0.974789 0.951975
O O7 0.000000 0.000000 0.000000
O O8 0.592609 0.250000 0.401804
O O9 0.669951 0.013743 0.363460
O O10 0.296459 0.250000 0.672811
O O11 0.358092 0.467070 0.722413
O O12 0.185310 0.472157 0.695362
O O13 0.120701 0.750000 0.278378
O O14 0.001202 0.975279 0.279609
O O15 0.186603 0.012654 0.304638
O O16 0.890061 0.750000 0.261744
O O17 0.859746 0.492392 0.221988
O O18 0.295795 0.250000 0.318465
#
# Coordination Sequence:
#
# PCOD9461614 Si02
#       7
#     8   8   8   8   8   8   8
#     4  10  18  30  46  62  86 120 152 180 214 259
#     4   8  16  28  42  61  85 114 146 179 216 259
#     4  10  18  28  43  66  93 117 145 182 222 259
#     4   9  17  28  44  67  90 116 149 177 211 261
#     4   9  18  33  49  63  84 116 151 183 212 250
#     4   9  18  33  50  65  86 118 153 183 210 252
#     4  11  21  30  44  68  93 115 143 180 222 262
#
# _framework density 14.992578
#
# number of rings (size 3 to 8) (size 9 to 14) (size 15 to 20)
#    0.000    2.571    0.000    3.857    0.000    5.143 
#    0.000    0.000    0.000    0.000    0.000    1.000 
#    0.000    0.000    0.000    0.000    0.000    0.000 
#
# Total GULP energy -311983.454092 kJ/mol
# GULP energy per Si atom -5571.133109 kJ/mol
# Density = 1.495845 g / cm^3
# Si number density = 14.992578 Si / 1000 Ang^3
#
#
#
# Elastic Constant Matrix: (Units=GPa)
#
#
# Indices 1 2 3 4 5 6 
#
# 1 97.7638 36.2794 67.0262 0.0000 0.0000 0.0000
# 2 36.2794 39.7897 50.2961 0.0000 0.0000 0.0000
# 3 67.0262 50.2961 153.6876 0.0000 0.0000 0.0000
# 4 0.0000 0.0000 0.0000 20.1559 0.0000 0.0000
# 5 0.0000 0.0000 0.0000 0.0000 21.7490 0.0000
# 6 0.0000 0.0000 0.0000 0.0000 0.0000 15.4521
#
#
#
# Elastic Compliance Matrix: (Units=1/GPa)
#
#
# Indices 1 2 3 4 5 6 
#
# 1 0.016747 -0.010297 -0.003934 0.000000 0.000000 0.000000
# 2 -0.010297 0.049195 -0.011609 0.000000 0.000000 0.000000
# 3 -0.003934 -0.011609 0.012022 0.000000 0.000000 0.000000
# 4 0.000000 0.000000 0.000000 0.049613 0.000000 0.000000
# 5 0.000000 0.000000 0.000000 0.000000 0.045979 0.000000
# 6 0.000000 0.000000 0.000000 0.000000 0.000000 0.064716
#
#
# Mechanical properties :
#
#
# Convention : Reuss Voigt Hill
#
# Bulk Modulus (GPa) = 38.04610 66.49383 52.26996
# Shear Modulus (GPa) = 16.73852 20.64736 18.69294
#
# Velocity S-wave (km/s) = 3.34496 3.71505 3.53485
# Velocity P-wave (km/s) = 6.35217 7.92777 7.18330
#
# Compressibility (1/GPa) = 0.02628391
#
# Stress axis : x y z
#
# Youngs Moduli (GPa) = 59.71274 20.32735 83.18426
#
# Poissons Ratio (x) = 0.20931 0.32724
# Poissons Ratio (y) = 0.61485 0.96568
# Poissons Ratio (z) = 0.23490 0.23598
#
# Static dielectric constant tensor:
#      x y z
#    x 1.475870 0.000000 0.000000 
#    y 0.000000 1.505150 0.000000 
#    z 0.000000 0.000000 1.513900 
# 
# From -- ./inp_files/32640.got.cif
#   From: 2010.05.17/outbox.cif.g08.bks.cpg/sg62_17_cif.got.tgz:32640.got - 2010.06.03 15:25:27.
