data_PCOD9461999
_publ_section_title
;
Structure prediction by ZEFSAII (Michael W. Deem and Ramdas Pophale) SiO2 
 PCOD9461999
Probable space group: P N M A
;
_chemical_formula_sum "Si O2"
_cell_formula_units_Z 64
_cell_length_a 25.748560
_cell_length_b 7.531933
_cell_length_c 15.024127
_cell_angle_alpha 90.000000
_cell_angle_beta 90.000000
_cell_angle_gamma 90.000000
_cell_volume 2913.725536
_symmetry_space_group_name_H-M "P N M A"
_symmetry_group_IT_number 62
_symmetry_cell_setting 'orthorhombic'
loop_
_space_group_symop_operation_xyz
x,y,z
1/2-x,-y,1/2+z
1/2+x,1/2-y,1/2-z
-x,1/2+y,-z
-x,-y,-z
1/2+x,y,1/2-z
1/2-x,1/2+y,1/2+z
x,1/2-y,z
loop_
_atom_site_type_symbol
_atom_site_label
_atom_site_fract_x
_atom_site_fract_y
_atom_site_fract_z
Si Si1 0.438673 0.035368 0.159429
Si Si2 0.220892 0.045944 0.228301
Si Si3 0.789708 0.039089 0.565746
Si Si4 0.596203 0.533333 0.028162
Si Si5 0.448193 0.458900 0.784411
Si Si6 0.119449 0.548234 0.127972
Si Si7 0.175226 0.963294 0.960052
Si Si8 0.333821 0.032551 0.256469
O O1 0.438930 0.250000 0.159687
O O2 0.385477 0.977176 0.206109
O O3 0.490249 0.976256 0.209405
O O4 0.436625 0.973701 0.056915
O O5 0.218363 0.250000 0.197956
O O6 0.279136 0.975521 0.213766
O O7 0.213353 0.041927 0.335282
O O8 0.173609 0.947603 0.182282
O O9 0.793065 0.250000 0.578373
O O10 0.843190 0.982977 0.519483
O O11 0.735443 0.001382 0.517414
O O12 0.593868 0.750000 0.028259
O O13 0.575191 0.468800 0.123125
O O14 0.434354 0.250000 0.783989
O O15 0.421866 0.535676 0.695735
O O16 0.101873 0.750000 0.109328
O O17 0.135525 0.465748 0.033669
O O18 0.170365 0.750000 0.959193
O O19 0.165653 0.025918 0.859456
O O20 0.332192 0.250000 0.256067
#
# Coordination Sequence:
#
# PCOD9461999 Si02
#       8
#     8   8   8   8   8   8   8   8
#     4  10  20  35  55  76  99 138 182 223 264 313
#     4  10  19  32  53  80 109 140 177 219 265 320
#     4  10  18  32  53  78 110 145 174 210 265 325
#     4   9  18  32  52  75 105 140 174 208 262 325
#     4  10  20  37  53  73 105 140 177 221 270 322
#     4  10  20  35  55  76 107 145 179 217 272 324
#     4   9  19  35  53  77 108 144 179 219 267 321
#     4   8  17  34  53  74 105 137 172 217 268 316
#
# _framework density 21.965005999999999
#
# number of rings (size 3 to 8) (size 9 to 14) (size 15 to 20)
#    0.000    2.500    1.250    1.875    1.750    1.000 
#    0.000    5.000    0.000    0.000    0.000    0.000 
#    0.000    0.000    0.000    0.000    0.000    0.000 
#
# Total GULP energy -357383.352544 kJ/mol
# GULP energy per Si atom -5584.114884 kJ/mol
# Density = 2.191501 g / cm^3
# Si number density = 21.965006 Si / 1000 Ang^3
#
#
#
# Elastic Constant Matrix: (Units=GPa)
#
#
# Indices 1 2 3 4 5 6 
#
# 1 75.6403 -5.6898 1.9232 0.0000 0.0000 0.0000
# 2 -5.6898 60.6016 -0.5277 0.0000 0.0000 0.0000
# 3 1.9232 -0.5277 27.9232 0.0000 0.0000 0.0000
# 4 0.0000 0.0000 0.0000 -1.1102 0.0000 0.0000
# 5 0.0000 0.0000 0.0000 0.0000 35.3862 0.0000
# 6 0.0000 0.0000 0.0000 0.0000 0.0000 18.7739
#
#
#
# Elastic Compliance Matrix: (Units=1/GPa)
#
#
# Indices 1 2 3 4 5 6 
#
# 1 0.013337 0.001244 -0.000895 0.000000 0.000000 0.000000
# 2 0.001244 0.016620 0.000228 0.000000 0.000000 0.000000
# 3 -0.000895 0.000228 0.035879 0.000000 0.000000 0.000000
# 4 0.000000 0.000000 0.000000 -0.900741 0.000000 0.000000
# 5 0.000000 0.000000 0.000000 0.000000 0.028260 0.000000
# 6 0.000000 0.000000 0.000000 0.000000 0.000000 0.053266
#
#
# Mechanical properties :
#
#
# Convention : Reuss Voigt Hill
#
# Bulk Modulus (GPa) = 14.92743 17.28628 16.10685
# Shear Modulus (GPa) = -6.82868 21.84060 7.50596
#
# Velocity S-wave (km/s) = -1.76512 3.15673 1.85058
# Velocity P-wave (km/s) = 1.62990 4.60148 3.45182
#
# Compressibility (1/GPa) = 0.06699079
#
# Stress axis : x y z
#
# Youngs Moduli (GPa) = 74.98039 60.16832 27.87183
#
# Poissons Ratio (x) = -0.07487 0.02495
# Poissons Ratio (y) = -0.09330 -0.00636
# Poissons Ratio (z) = 0.06711 -0.01374
#
# Static dielectric constant tensor:
#      x y z
#    x 1.777490 0.000000 0.000000 
#    y 0.000000 1.830860 0.000000 
#    z 0.000000 0.000000 1.815630 
# 
# From -- ./inp_files/20763.got.cif
#   From: 2010.05.17/outbox.cif.g08.bks.cpg/sg62_11_cif.got.tgz:20763.got - 2010.06.03 15:25:27.
