data_PCOD9461610
_publ_section_title
;
Structure prediction by ZEFSAII (Michael W. Deem and Ramdas Pophale) SiO2 
 PCOD9461610
Probable space group: P N M A
;
_chemical_formula_sum "Si O2"
_cell_formula_units_Z 64
_cell_length_a 26.916401
_cell_length_b 9.114059
_cell_length_c 18.509023
_cell_angle_alpha 90.000000
_cell_angle_beta 90.000000
_cell_angle_gamma 90.000000
_cell_volume 4540.590337
_symmetry_space_group_name_H-M "P N M A"
_symmetry_group_IT_number 62
_symmetry_cell_setting 'orthorhombic'
loop_
_space_group_symop_operation_xyz
x,y,z
1/2-x,-y,1/2+z
1/2+x,1/2-y,1/2-z
-x,1/2+y,-z
-x,-y,-z
1/2+x,y,1/2-z
1/2-x,1/2+y,1/2+z
x,1/2-y,z
loop_
_atom_site_type_symbol
_atom_site_label
_atom_site_fract_x
_atom_site_fract_y
_atom_site_fract_z
Si Si1 0.253049 0.924130 0.926536
Si Si2 0.549131 0.925358 0.914230
Si Si3 0.199283 0.919301 0.207840
Si Si4 0.146174 0.424369 0.334879
Si Si5 0.698598 0.081451 0.698672
Si Si6 0.745938 0.574696 0.918051
Si Si7 0.555484 0.924747 0.083869
Si Si8 0.146871 0.574749 0.674459
O O1 0.246477 0.750000 0.934829
O O2 0.306391 0.948954 0.887664
O O3 0.211742 0.990339 0.872734
O O4 0.252272 0.003828 0.003246
O O5 0.540360 0.750000 0.908016
O O6 0.595133 0.965461 0.863192
O O7 0.498770 0.011813 0.897622
O O8 0.562853 0.954101 0.998099
O O9 0.185756 0.750000 0.194593
O O10 0.250449 0.919743 0.254338
O O11 0.159906 0.001243 0.258615
O O12 0.212971 0.004241 0.134744
O O13 0.140159 0.250000 0.326415
O O14 0.098170 0.496570 0.370779
O O15 0.686637 0.250000 0.681786
O O16 0.658337 0.008060 0.751163
O O17 0.751732 0.750000 0.921750
O O18 0.692348 0.543991 0.880771
O O19 0.557336 0.750000 0.094636
O O20 0.147330 0.750000 0.687217
#
# Coordination Sequence:
#
# PCOD9461610 Si02
#       8
#     8   8   8   8   8   8   8   8
#     4  10  19  29  42  61  85 113 144 175 209 251
#     4   9  18  31  44  60  84 113 144 178 215 252
#     4   9  17  29  43  60  83 110 141 175 210 250
#     4  10  19  30  44  61  83 113 146 178 214 254
#     4   9  17  28  42  60  82 108 139 175 211 248
#     4  10  18  28  43  63  87 113 142 175 211 251
#     4  10  19  30  44  62  84 111 144 181 217 251
#     4   9  17  29  44  60  82 113 144 174 211 253
#
# _framework density 14.095083000000001
#
# number of rings (size 3 to 8) (size 9 to 14) (size 15 to 20)
#    0.000    2.500    0.000    3.000    0.000    7.000 
#    0.000    0.000    0.000    0.000    0.000    0.000 
#    0.000    1.000    0.000    3.750    0.000    5.750 
#
# Total GULP energy -356824.118604 kJ/mol
# GULP energy per Si atom -5575.376853 kJ/mol
# Density = 1.406300 g / cm^3
# Si number density = 14.095083 Si / 1000 Ang^3
#
#
#
# Elastic Constant Matrix: (Units=GPa)
#
#
# Indices 1 2 3 4 5 6 
#
# 1 89.3274 59.5029 54.4015 0.0000 0.0000 0.0000
# 2 59.5029 93.7056 73.6939 0.0000 0.0000 0.0000
# 3 54.4015 73.6939 101.3836 0.0000 0.0000 0.0000
# 4 0.0000 0.0000 0.0000 28.0577 0.0000 0.0000
# 5 0.0000 0.0000 0.0000 0.0000 27.2563 0.0000
# 6 0.0000 0.0000 0.0000 0.0000 0.0000 21.9047
#
#
#
# Elastic Compliance Matrix: (Units=1/GPa)
#
#
# Indices 1 2 3 4 5 6 
#
# 1 0.019916 -0.009903 -0.003488 0.000000 0.000000 0.000000
# 2 -0.009903 0.029838 -0.016375 0.000000 0.000000 0.000000
# 3 -0.003488 -0.016375 0.023638 0.000000 0.000000 0.000000
# 4 0.000000 0.000000 0.000000 0.035641 0.000000 0.000000
# 5 0.000000 0.000000 0.000000 0.000000 0.036689 0.000000
# 6 0.000000 0.000000 0.000000 0.000000 0.000000 0.045652
#
#
# Mechanical properties :
#
#
# Convention : Reuss Voigt Hill
#
# Bulk Modulus (GPa) = 72.15367 73.29036 72.72201
# Shear Modulus (GPa) = 19.56751 21.89830 20.73291
#
# Velocity S-wave (km/s) = 3.72997 3.94587 3.83943
# Velocity P-wave (km/s) = 8.35775 8.53638 8.44754
#
# Compressibility (1/GPa) = 0.01385931
#
# Stress axis : x y z
#
# Youngs Moduli (GPa) = 50.21111 33.51426 42.30536
#
# Poissons Ratio (x) = 0.33190 0.14757
# Poissons Ratio (y) = 0.49726 0.69274
# Poissons Ratio (z) = 0.17514 0.54878
#
# Static dielectric constant tensor:
#      x y z
#    x 1.438820 0.000000 0.000000 
#    y 0.000000 1.468890 0.000000 
#    z 0.000000 0.000000 1.444790 
# 
# From -- ./inp_files/24909.got.cif
#   From: 2010.05.17/outbox.cif.g08.bks.cpg/sg62_13_cif.got.tgz:24909.got - 2010.06.03 15:25:27.
