data_PCOD9461630
_publ_section_title
;
Structure prediction by ZEFSAII (Michael W. Deem and Ramdas Pophale) SiO2 
 PCOD9461630
Probable space group: P N M A
;
_chemical_formula_sum "Si O2"
_cell_formula_units_Z 56
_cell_length_a 21.563377
_cell_length_b 8.628899
_cell_length_c 19.049839
_cell_angle_alpha 90.000000
_cell_angle_beta 90.000000
_cell_angle_gamma 90.000000
_cell_volume 3544.569296
_symmetry_space_group_name_H-M "P N M A"
_symmetry_group_IT_number 62
_symmetry_cell_setting 'orthorhombic'
loop_
_space_group_symop_operation_xyz
x,y,z
1/2-x,-y,1/2+z
1/2+x,1/2-y,1/2-z
-x,1/2+y,-z
-x,-y,-z
1/2+x,y,1/2-z
1/2-x,1/2+y,1/2+z
x,1/2-y,z
loop_
_atom_site_type_symbol
_atom_site_label
_atom_site_fract_x
_atom_site_fract_y
_atom_site_fract_z
Si Si1 0.747550 0.435085 0.581159
Si Si2 0.376544 0.437797 0.845208
Si Si3 0.874141 0.063469 0.350957
Si Si4 0.312473 0.433969 0.288045
Si Si5 0.809365 0.436867 0.787756
Si Si6 0.249317 0.435355 0.573495
Si Si7 0.998250 0.563253 0.421099
O O1 0.748759 0.250000 0.579190
O O2 0.814964 0.487748 0.611814
O O3 0.695059 0.488190 0.636283
O O4 0.739008 0.499873 0.503543
O O5 0.377384 0.250000 0.848714
O O6 0.366215 0.479445 0.763233
O O7 0.439949 0.491794 0.880198
O O8 0.874139 0.250000 0.355425
O O9 0.864411 0.019116 0.268886
O O10 0.814995 0.001976 0.395001
O O11 0.936730 0.996244 0.382814
O O12 0.315330 0.250000 0.297266
O O13 0.249442 0.481765 0.247993
O O14 0.801291 0.250000 0.781694
O O15 0.803353 0.474723 0.869827
O O16 0.243909 0.250000 0.570307
O O17 0.998000 0.750000 0.422694
O O18 0.000000 0.500000 0.500000
#
# Coordination Sequence:
#
# PCOD9461630 Si02
#       7
#     8   8   8   8   8   8   8
#     4  10  18  29  46  67  94 121 145 181 229 275
#     4   8  16  30  45  61  84 118 152 180 215 260
#     4  10  20  33  46  63  92 125 155 189 228 266
#     4   9  17  29  45  64  87 116 151 188 224 267
#     4   8  15  29  46  63  86 115 147 184 226 270
#     4  10  18  28  46  70  92 116 149 186 226 273
#     4  11  21  32  47  66  91 123 158 190 221 265
#
# _framework density 15.798817
#
# number of rings (size 3 to 8) (size 9 to 14) (size 15 to 20)
#    0.000    2.571    0.000    3.857    0.000    3.429 
#    0.000    6.429    0.000    0.000    0.000    1.000 
#    0.000    0.000    0.000    0.000    0.000    0.000 
#
# Total GULP energy -311843.388199 kJ/mol
# GULP energy per Si atom -5568.631932 kJ/mol
# Density = 1.576286 g / cm^3
# Si number density = 15.798817 Si / 1000 Ang^3
#
#
#
# Elastic Constant Matrix: (Units=GPa)
#
#
# Indices 1 2 3 4 5 6 
#
# 1 78.2589 23.5737 72.7005 0.0000 0.0000 0.0000
# 2 23.5737 41.1828 45.4684 0.0000 0.0000 0.0000
# 3 72.7005 45.4684 176.1120 0.0000 0.0000 0.0000
# 4 0.0000 0.0000 0.0000 27.1696 0.0000 0.0000
# 5 0.0000 0.0000 0.0000 0.0000 24.3089 0.0000
# 6 0.0000 0.0000 0.0000 0.0000 0.0000 11.9743
#
#
#
# Elastic Compliance Matrix: (Units=1/GPa)
#
#
# Indices 1 2 3 4 5 6 
#
# 1 0.021069 -0.003438 -0.007810 0.000000 0.000000 0.000000
# 2 -0.003438 0.034524 -0.007494 0.000000 0.000000 0.000000
# 3 -0.007810 -0.007494 0.010837 0.000000 0.000000 0.000000
# 4 0.000000 0.000000 0.000000 0.036806 0.000000 0.000000
# 5 0.000000 0.000000 0.000000 0.000000 0.041137 0.000000
# 6 0.000000 0.000000 0.000000 0.000000 0.000000 0.083512
#
#
# Mechanical properties :
#
#
# Convention : Reuss Voigt Hill
#
# Bulk Modulus (GPa) = 34.54674 64.33764 49.44219
# Shear Modulus (GPa) = 18.18070 22.94464 20.56267
#
# Velocity S-wave (km/s) = 3.39597 3.81504 3.61159
# Velocity P-wave (km/s) = 6.10663 7.76000 6.98242
#
# Compressibility (1/GPa) = 0.02894629
#
# Stress axis : x y z
#
# Youngs Moduli (GPa) = 47.46378 28.96546 92.27625
#
# Poissons Ratio (x) = 0.09957 0.72066
# Poissons Ratio (y) = 0.16316 0.69154
# Poissons Ratio (z) = 0.37068 0.21708
#
# Static dielectric constant tensor:
#      x y z
#    x 1.515350 0.000000 0.000000 
#    y 0.000000 1.533410 0.000000 
#    z 0.000000 0.000000 1.549800 
# 
# From -- ./inp_files/24597.got.cif
#   From: 2010.05.17/outbox.cif.g08.bks.cpg/sg62_13_cif.got.tgz:24597.got - 2010.06.03 15:25:27.
