data_PCOD9461734
_publ_section_title
;
Structure prediction by ZEFSAII (Michael W. Deem and Ramdas Pophale) SiO2 
 PCOD9461734
Probable space group: P N M A
;
_chemical_formula_sum "Si O2"
_cell_formula_units_Z 64
_cell_length_a 12.182027
_cell_length_b 8.868234
_cell_length_c 34.629729
_cell_angle_alpha 90.000000
_cell_angle_beta 90.000000
_cell_angle_gamma 90.000000
_cell_volume 3741.155800
_symmetry_space_group_name_H-M "P N M A"
_symmetry_group_IT_number 62
_symmetry_cell_setting 'orthorhombic'
loop_
_space_group_symop_operation_xyz
x,y,z
1/2-x,-y,1/2+z
1/2+x,1/2-y,1/2-z
-x,1/2+y,-z
-x,-y,-z
1/2+x,y,1/2-z
1/2-x,1/2+y,1/2+z
x,1/2-y,z
loop_
_atom_site_type_symbol
_atom_site_label
_atom_site_fract_x
_atom_site_fract_y
_atom_site_fract_z
Si Si1 0.971782 0.929286 0.666503
Si Si2 0.683930 0.068701 0.870178
Si Si3 0.806017 0.568943 0.732456
Si Si4 0.374837 0.569078 0.323209
Si Si5 0.854997 0.070334 0.535510
Si Si6 0.733900 0.429564 0.110696
Si Si7 0.113417 0.431334 0.545440
Si Si8 0.628946 0.931904 0.313253
O O1 0.991738 0.750000 0.667169
O O2 0.913046 0.972439 0.706607
O O3 0.880019 0.960224 0.633759
O O4 0.082953 0.012339 0.655833
O O5 0.679752 0.250000 0.871248
O O6 0.665220 0.016507 0.914143
O O7 0.797299 0.023525 0.849997
O O8 0.797134 0.750000 0.732290
O O9 0.701456 0.500922 0.710239
O O10 0.820824 0.505962 0.775071
O O11 0.365341 0.750000 0.322280
O O12 0.327101 0.507482 0.363568
O O13 0.501667 0.526525 0.317795
O O14 0.842364 0.250000 0.536605
O O15 0.982834 0.034640 0.545513
O O16 0.780300 0.994030 0.567970
O O17 0.836951 0.008052 0.492509
O O18 0.749823 0.250000 0.110357
O O19 0.124435 0.250000 0.542107
O O20 0.634733 0.750000 0.309435
#
# Coordination Sequence:
#
# PCOD9461734 Si02
#       8
#     8   8   8   8   8   8   8   8
#     4   9  19  33  50  76 105 135 172 214 262 313
#     4  10  20  35  54  77 107 142 178 216 267 322
#     4  10  22  38  56  79 107 139 177 225 271 318
#     4  10  21  38  57  78 106 139 180 224 268 319
#     4  10  18  29  50  80 109 143 178 214 265 320
#     4  10  19  33  54  79 108 140 176 219 267 316
#     4   9  18  31  48  75 111 144 173 215 267 322
#     4  10  23  39  56  79 105 141 182 225 270 318
#
# _framework density 17.107012000000001
#
# number of rings (size 3 to 8) (size 9 to 14) (size 15 to 20)
#    0.000    2.250    1.250    2.250    1.750    5.000 
#    0.000    0.000    0.000    0.750    0.000    0.000 
#    0.000    0.000    0.000    0.000    0.000    0.000 
#
# Total GULP energy -357154.405311 kJ/mol
# GULP energy per Si atom -5580.537583 kJ/mol
# Density = 1.706808 g / cm^3
# Si number density = 17.107012 Si / 1000 Ang^3
#
#
#
# Elastic Constant Matrix: (Units=GPa)
#
#
# Indices 1 2 3 4 5 6 
#
# 1 103.3882 39.4109 70.9321 0.0000 0.0000 0.0000
# 2 39.4109 26.2201 39.6894 0.0000 0.0000 0.0000
# 3 70.9321 39.6894 142.4792 0.0000 0.0000 0.0000
# 4 0.0000 0.0000 0.0000 30.1582 0.0000 0.0000
# 5 0.0000 0.0000 0.0000 0.0000 19.6014 0.0000
# 6 0.0000 0.0000 0.0000 0.0000 0.0000 10.7604
#
#
#
# Elastic Compliance Matrix: (Units=1/GPa)
#
#
# Indices 1 2 3 4 5 6 
#
# 1 0.023470 -0.030416 -0.003212 0.000000 0.000000 0.000000
# 2 -0.030416 0.105363 -0.014208 0.000000 0.000000 0.000000
# 3 -0.003212 -0.014208 0.012575 0.000000 0.000000 0.000000
# 4 0.000000 0.000000 0.000000 0.033158 0.000000 0.000000
# 5 0.000000 0.000000 0.000000 0.000000 0.051017 0.000000
# 6 0.000000 0.000000 0.000000 0.000000 0.000000 0.092933
#
#
# Mechanical properties :
#
#
# Convention : Reuss Voigt Hill
#
# Bulk Modulus (GPa) = 21.86402 63.57247 42.71824
# Shear Modulus (GPa) = 11.64327 20.24101 15.94214
#
# Velocity S-wave (km/s) = 2.61169 3.44350 3.05603
# Velocity P-wave (km/s) = 4.68007 7.28372 6.12191
#
# Compressibility (1/GPa) = 0.04573724
#
# Stress axis : x y z
#
# Youngs Moduli (GPa) = 42.60745 9.49103 79.52156
#
# Poissons Ratio (x) = 0.28868 0.25540
# Poissons Ratio (y) = 1.29595 1.12982
# Poissons Ratio (z) = 0.13684 0.13485
#
# Static dielectric constant tensor:
#      x y z
#    x 1.559690 0.000000 0.000000 
#    y 0.000000 1.568360 0.000000 
#    z 0.000000 0.000000 1.575920 
# 
# From -- ./inp_files/32517.got.cif
#   From: 2010.05.17/outbox.cif.g08.bks.cpg/sg62_17_cif.got.tgz:32517.got - 2010.06.03 15:25:27.
