data_PCOD9461085
_publ_section_title
;
Structure prediction by ZEFSAII (Michael W. Deem and Ramdas Pophale) SiO2 
 PCOD9461085
Probable space group: P B C A
;
_chemical_formula_sum "Si O2"
_cell_formula_units_Z 64
_cell_length_a 9.895639
_cell_length_b 13.959379
_cell_length_c 21.419944
_cell_angle_alpha 90.000000
_cell_angle_beta 90.000000
_cell_angle_gamma 90.000000
_cell_volume 2958.886274
_symmetry_space_group_name_H-M "P B C A"
_symmetry_group_IT_number 61
_symmetry_cell_setting 'orthorhombic'
loop_
_space_group_symop_operation_xyz
x,y,z
1/2-x,-y,1/2+z
1/2+x,1/2-y,-z
-x,1/2+y,1/2-z
-x,-y,-z
1/2+x,y,1/2-z
1/2-x,1/2+y,z
x,1/2-y,1/2+z
loop_
_atom_site_type_symbol
_atom_site_label
_atom_site_fract_x
_atom_site_fract_y
_atom_site_fract_z
Si Si1 0.228269 0.714593 0.290218
Si Si2 0.103902 0.506213 0.306666
Si Si3 0.150263 0.015388 0.106159
Si Si4 0.068333 0.008698 0.664743
Si Si5 0.034137 0.781500 0.679832
Si Si6 0.814032 0.378204 0.116742
Si Si7 0.805460 0.684021 0.486359
Si Si8 0.418913 0.175058 0.550809
O O1 0.189132 0.603500 0.297837
O O2 0.388698 0.727118 0.287534
O O3 0.151507 0.746414 0.227865
O O4 0.176916 0.775394 0.349310
O O5 0.066981 0.466750 0.238299
O O6 0.196526 0.434870 0.346179
O O7 0.966548 0.529831 0.343121
O O8 0.283413 0.971830 0.137901
O O9 0.095204 0.938583 0.056453
O O10 0.190761 0.112565 0.071882
O O11 0.952184 0.064196 0.627713
O O12 0.046854 0.893588 0.661551
O O13 0.043440 0.716633 0.618775
O O14 0.767888 0.365554 0.045621
O O15 0.720037 0.777504 0.470457
O O16 0.958957 0.703880 0.505868
#
# Coordination Sequence:
#
# PCOD9461085 Si02
#       8
#     8   8   8   8   8   8   8   8
#     4  11  26  42  73 106 146 183 233 297 361 428
#     4  11  25  47  72 105 147 181 236 299 362 425
#     4  12  27  47  74 104 141 191 240 293 359 427
#     4  11  26  44  72 106 143 181 234 304 357 424
#     4  11  24  48  68 105 144 184 235 299 361 426
#     4  12  26  45  71 108 138 194 234 289 365 424
#     4  12  29  48  72 104 143 192 244 294 349 419
#     4  12  28  49  72 102 143 189 244 293 350 430
#
# _framework density 21.629760000000001
#
# number of rings (size 3 to 8) (size 9 to 14) (size 15 to 20)
#    0.000    0.500    5.000    1.125   14.000    1.500 
#    0.000    0.000    0.000    0.000    0.000    0.000 
#    0.000    0.000    0.000    0.000    0.000    0.000 
#
# Total GULP energy -358515.880790 kJ/mol
# GULP energy per Si atom -5601.810637 kJ/mol
# Density = 2.158053 g / cm^3
# Si number density = 21.629760 Si / 1000 Ang^3
#
#
#
# Elastic Constant Matrix: (Units=GPa)
#
#
# Indices 1 2 3 4 5 6 
#
# 1 78.2455 -5.4193 1.2001 0.0000 0.0000 0.0000
# 2 -5.4193 25.9702 -2.9904 0.0000 0.0000 0.0000
# 3 1.2001 -2.9904 34.3695 0.0000 0.0000 0.0000
# 4 0.0000 0.0000 0.0000 23.8363 0.0000 0.0000
# 5 0.0000 0.0000 0.0000 0.0000 49.0941 0.0000
# 6 0.0000 0.0000 0.0000 0.0000 0.0000 31.0565
#
#
#
# Elastic Compliance Matrix: (Units=1/GPa)
#
#
# Indices 1 2 3 4 5 6 
#
# 1 0.012969 0.002681 -0.000220 0.000000 0.000000 0.000000
# 2 0.002681 0.039450 0.003339 0.000000 0.000000 0.000000
# 3 -0.000220 0.003339 0.029394 0.000000 0.000000 0.000000
# 4 0.000000 0.000000 0.000000 0.041953 0.000000 0.000000
# 5 0.000000 0.000000 0.000000 0.000000 0.020369 0.000000
# 6 0.000000 0.000000 0.000000 0.000000 0.000000 0.032199
#
#
# Mechanical properties :
#
#
# Convention : Reuss Voigt Hill
#
# Bulk Modulus (GPa) = 10.70511 13.79622 12.25066
# Shear Modulus (GPa) = 25.52699 30.51702 28.02201
#
# Velocity S-wave (km/s) = 3.43910 3.76024 3.60325
# Velocity P-wave (km/s) = 4.55301 5.02442 4.79451
#
# Compressibility (1/GPa) = 0.09341333
#
# Stress axis : x y z
#
# Youngs Moduli (GPa) = 77.10489 25.34881 34.02083
#
# Poissons Ratio (x) = -0.06796 0.00747
# Poissons Ratio (y) = -0.20672 -0.11359
# Poissons Ratio (z) = 0.01693 -0.08464
#
# Static dielectric constant tensor:
#      x y z
#    x 1.763070 0.000000 0.000000 
#    y 0.000000 1.783600 0.000000 
#    z 0.000000 0.000000 1.761570 
# 
# From -- ./inp_files/10927.got.cif
#   From: 2010.05.17/outbox.cif.g08.bks.cpg/sg61_6_cif.got.tgz:10927.got - 2010.06.03 15:17:17.
