data_PCOD9461533
_publ_section_title
;
Structure prediction by ZEFSAII (Michael W. Deem and Ramdas Pophale) SiO2 
 PCOD9461533
Probable space group: P N M A
;
_chemical_formula_sum "Si O2"
_cell_formula_units_Z 56
_cell_length_a 7.804830
_cell_length_b 17.777910
_cell_length_c 19.520968
_cell_angle_alpha 90.000000
_cell_angle_beta 90.000000
_cell_angle_gamma 90.000000
_cell_volume 2708.603908
_symmetry_space_group_name_H-M "P N M A"
_symmetry_group_IT_number 62
_symmetry_cell_setting 'orthorhombic'
loop_
_space_group_symop_operation_xyz
x,y,z
1/2-x,-y,1/2+z
1/2+x,1/2-y,1/2-z
-x,1/2+y,-z
-x,-y,-z
1/2+x,y,1/2-z
1/2-x,1/2+y,1/2+z
x,1/2-y,z
loop_
_atom_site_type_symbol
_atom_site_label
_atom_site_fract_x
_atom_site_fract_y
_atom_site_fract_z
Si Si1 0.608628 0.577886 0.990355
Si Si2 0.631335 0.512469 0.560944
Si Si3 0.648191 0.969672 0.844669
Si Si4 0.760648 0.498817 0.696101
Si Si5 0.756501 0.360824 0.855088
Si Si6 0.606397 0.667751 0.218304
Si Si7 0.283347 0.832135 0.992732
O O1 0.679218 0.579954 0.912473
O O2 0.500000 0.500000 0.000000
O O3 0.748912 0.560920 0.047262
O O4 0.484114 0.647217 0.001885
O O5 0.500000 0.500000 0.500000
O O6 0.606980 0.511514 0.642335
O O7 0.708340 0.595615 0.546271
O O8 0.441696 0.972938 0.834825
O O9 0.721740 0.960536 0.768051
O O10 0.724497 0.050608 0.865093
O O11 0.790223 0.409348 0.704604
O O12 0.901503 0.338556 0.801046
O O13 0.576004 0.335966 0.820100
O O14 0.788506 0.330875 0.930418
O O15 0.682205 0.750000 0.202093
O O16 0.259581 0.750000 0.960616
#
# Coordination Sequence:
#
# PCOD9461533 Si02
#       7
#     8   8   8   8   8   8   8
#     4  10  17  37  60  78 112 147 191 235 282 344
#     4  11  23  38  58  84 118 155 194 245 288 344
#     4  10  18  33  55  81 109 140 192 239 278 342
#     4  10  21  33  52  81 108 148 192 234 287 335
#     4  10  19  32  50  77 112 151 181 222 276 339
#     4  10  19  30  46  74 113 148 182 222 270 335
#     4  11  21  37  62  84 110 152 199 242 297 350
#
# _framework density 20.674856999999999
#
# number of rings (size 3 to 8) (size 9 to 14) (size 15 to 20)
#    0.000    1.714    5.714    2.143    2.000    2.286 
#    0.000    2.857    0.000    0.857    0.000    0.000 
#    0.000    0.000    0.000    0.000    0.000    0.000 
#
# Total GULP energy -311911.969271 kJ/mol
# GULP energy per Si atom -5569.856594 kJ/mol
# Density = 2.062780 g / cm^3
# Si number density = 20.674857 Si / 1000 Ang^3
#
#
#
# Elastic Constant Matrix: (Units=GPa)
#
#
# Indices 1 2 3 4 5 6 
#
# 1 24.5102 4.5016 -2.5711 0.0000 0.0000 0.0000
# 2 4.5016 69.6013 8.8434 0.0000 0.0000 0.0000
# 3 -2.5711 8.8434 115.6163 0.0000 0.0000 0.0000
# 4 0.0000 0.0000 0.0000 7.6839 0.0000 0.0000
# 5 0.0000 0.0000 0.0000 0.0000 29.8389 0.0000
# 6 0.0000 0.0000 0.0000 0.0000 0.0000 12.2811
#
#
#
# Elastic Compliance Matrix: (Units=1/GPa)
#
#
# Indices 1 2 3 4 5 6 
#
# 1 0.041437 -0.002825 0.001138 0.000000 0.000000 0.000000
# 2 -0.002825 0.014701 -0.001187 0.000000 0.000000 0.000000
# 3 0.001138 -0.001187 0.008765 0.000000 0.000000 0.000000
# 4 0.000000 0.000000 0.000000 0.130143 0.000000 0.000000
# 5 0.000000 0.000000 0.000000 0.000000 0.033513 0.000000
# 6 0.000000 0.000000 0.000000 0.000000 0.000000 0.081426
#
#
# Mechanical properties :
#
#
# Convention : Reuss Voigt Hill
#
# Bulk Modulus (GPa) = 16.90465 25.69728 21.30097
# Shear Modulus (GPa) = 14.90523 23.22438 19.06481
#
# Velocity S-wave (km/s) = 2.68794 3.35523 3.03995
# Velocity P-wave (km/s) = 4.22226 5.24083 4.75888
#
# Compressibility (1/GPa) = 0.05915532
#
# Stress axis : x y z
#
# Youngs Moduli (GPa) = 24.13279 68.02222 114.08481
#
# Poissons Ratio (x) = 0.19213 -0.12978
# Poissons Ratio (y) = 0.06816 0.13545
# Poissons Ratio (z) = -0.02745 0.08076
#
# Static dielectric constant tensor:
#      x y z
#    x 1.888700 0.000000 0.000000 
#    y 0.000000 1.776710 0.000000 
#    z 0.000000 0.000000 1.800840 
# 
# From -- ./inp_files/26108.got.cif
#   From: 2010.05.17/outbox.cif.g08.bks.cpg/sg62_14_cif.got.tgz:26108.got - 2010.06.03 15:25:27.
