data_PCOD9461895
_publ_section_title
;
Structure prediction by ZEFSAII (Michael W. Deem and Ramdas Pophale) SiO2 
 PCOD9461895
Probable space group: P N M A
;
_chemical_formula_sum "Si O2"
_cell_formula_units_Z 56
_cell_length_a 15.220019
_cell_length_b 7.845950
_cell_length_c 22.330080
_cell_angle_alpha 90.000000
_cell_angle_beta 90.000000
_cell_angle_gamma 90.000000
_cell_volume 2666.557849
_symmetry_space_group_name_H-M "P N M A"
_symmetry_group_IT_number 62
_symmetry_cell_setting 'orthorhombic'
loop_
_space_group_symop_operation_xyz
x,y,z
1/2-x,-y,1/2+z
1/2+x,1/2-y,1/2-z
-x,1/2+y,-z
-x,-y,-z
1/2+x,y,1/2-z
1/2-x,1/2+y,1/2+z
x,1/2-y,z
loop_
_atom_site_type_symbol
_atom_site_label
_atom_site_fract_x
_atom_site_fract_y
_atom_site_fract_z
Si Si1 0.668160 0.955911 0.784238
Si Si2 0.977412 0.545915 0.931157
Si Si3 0.357555 0.458978 0.352869
Si Si4 0.369510 0.445522 0.024364
Si Si5 0.488743 0.459039 0.129708
Si Si6 0.782612 0.053154 0.890404
Si Si7 0.826904 0.554416 0.604539
O O1 0.670887 0.750000 0.784722
O O2 0.655673 0.010732 0.715995
O O3 0.581938 0.011975 0.821159
O O4 0.753010 0.015403 0.822047
O O5 0.974895 0.750000 0.927908
O O6 0.882800 0.482404 0.908262
O O7 0.055382 0.482602 0.887410
O O8 0.000000 0.500000 0.000000
O O9 0.361822 0.250000 0.354298
O O10 0.269173 0.519715 0.385927
O O11 0.386148 0.250000 0.007052
O O12 0.448882 0.510700 0.065582
O O13 0.284288 0.449755 0.067500
O O14 0.350299 0.549640 0.965190
O O15 0.489778 0.250000 0.129435
O O16 0.587924 0.521380 0.137348
O O17 0.763848 0.250000 0.902568
O O18 0.820686 0.750000 0.625443
#
# Coordination Sequence:
#
# PCOD9461895 Si02
#       7
#     8   8   8   8   8   8   8
#     4   9  18  37  58  80 108 142 184 229 274 332
#     4  11  22  38  59  87 119 155 195 239 287 341
#     4   9  20  35  56  82 109 141 183 228 274 328
#     4  10  19  33  52  78 108 142 179 220 269 327
#     4   8  16  29  50  76 105 137 172 212 262 320
#     4  11  22  37  57  82 110 147 189 234 283 334
#     4  10  18  31  51  79 109 138 171 216 271 330
#
# _framework density 21.000858000000001
#
# number of rings (size 3 to 8) (size 9 to 14) (size 15 to 20)
#    0.000    2.286    0.000    4.286    0.000    2.286 
#    0.000   10.000    0.000    0.000    0.000    0.000 
#    0.000    0.000    0.000    0.000    0.000    0.000 
#
# Total GULP energy -312547.120541 kJ/mol
# GULP energy per Si atom -5581.198581 kJ/mol
# Density = 2.095306 g / cm^3
# Si number density = 21.000858 Si / 1000 Ang^3
#
#
#
# Elastic Constant Matrix: (Units=GPa)
#
#
# Indices 1 2 3 4 5 6 
#
# 1 150.4689 0.2769 43.4986 0.0000 0.0000 0.0000
# 2 0.2769 45.7687 -2.4106 0.0000 0.0000 0.0000
# 3 43.4986 -2.4106 95.2164 0.0000 0.0000 0.0000
# 4 0.0000 0.0000 0.0000 19.4239 0.0000 0.0000
# 5 0.0000 0.0000 0.0000 0.0000 21.4042 0.0000
# 6 0.0000 0.0000 0.0000 0.0000 0.0000 9.9171
#
#
#
# Elastic Compliance Matrix: (Units=1/GPa)
#
#
# Indices 1 2 3 4 5 6 
#
# 1 0.007660 -0.000231 -0.003505 0.000000 0.000000 0.000000
# 2 -0.000231 0.021885 0.000660 0.000000 0.000000 0.000000
# 3 -0.003505 0.000660 0.012120 0.000000 0.000000 0.000000
# 4 0.000000 0.000000 0.000000 0.051483 0.000000 0.000000
# 5 0.000000 0.000000 0.000000 0.000000 0.046720 0.000000
# 6 0.000000 0.000000 0.000000 0.000000 0.000000 0.100836
#
#
# Mechanical properties :
#
#
# Convention : Reuss Voigt Hill
#
# Bulk Modulus (GPa) = 28.15934 41.57599 34.86766
# Shear Modulus (GPa) = 19.32784 26.82164 23.07474
#
# Velocity S-wave (km/s) = 3.03699 3.57763 3.31834
# Velocity P-wave (km/s) = 5.07302 6.07504 5.59650
#
# Compressibility (1/GPa) = 0.03551220
#
# Stress axis : x y z
#
# Youngs Moduli (GPa) = 130.55548 45.69313 82.50594
#
# Poissons Ratio (x) = 0.01055 0.28919
# Poissons Ratio (y) = 0.03015 -0.05442
# Poissons Ratio (z) = 0.45760 -0.03014
#
# Static dielectric constant tensor:
#      x y z
#    x 1.771200 0.000000 0.000000 
#    y 0.000000 1.773840 0.000000 
#    z 0.000000 0.000000 1.740300 
# 
# From -- ./inp_files/27200.got.cif
#   From: 2010.05.17/outbox.cif.g08.bks.cpg/sg62_14_cif.got.tgz:27200.got - 2010.06.03 15:25:27.
