data_PCOD9461635
_publ_section_title
;
Structure prediction by ZEFSAII (Michael W. Deem and Ramdas Pophale) SiO2 
 PCOD9461635
Probable space group: P N M A
;
_chemical_formula_sum "Si O2"
_cell_formula_units_Z 40
_cell_length_a 8.052473
_cell_length_b 18.547097
_cell_length_c 15.861506
_cell_angle_alpha 90.000000
_cell_angle_beta 90.000000
_cell_angle_gamma 90.000000
_cell_volume 2368.915887
_symmetry_space_group_name_H-M "P N M A"
_symmetry_group_IT_number 62
_symmetry_cell_setting 'orthorhombic'
loop_
_space_group_symop_operation_xyz
x,y,z
1/2-x,-y,1/2+z
1/2+x,1/2-y,1/2-z
-x,1/2+y,-z
-x,-y,-z
1/2+x,y,1/2-z
1/2-x,1/2+y,1/2+z
x,1/2-y,z
loop_
_atom_site_type_symbol
_atom_site_label
_atom_site_fract_x
_atom_site_fract_y
_atom_site_fract_z
Si Si1 0.999542 0.250000 0.703696
Si Si2 0.400132 0.462112 0.375503
Si Si3 0.136383 0.250000 0.881460
Si Si4 0.303044 0.604299 0.165898
Si Si5 0.906435 0.010120 0.712313
Si Si6 0.501105 0.608865 0.461484
O O1 0.817877 0.250000 0.661766
O O2 0.000966 0.250000 0.805482
O O3 0.102517 0.321017 0.678907
O O4 0.214792 0.458979 0.339513
O O5 0.518538 0.471377 0.294597
O O6 0.409270 0.537460 0.427142
O O7 0.459533 0.401740 0.440309
O O8 0.102466 0.321144 0.935939
O O9 0.199919 0.577432 0.248588
O O10 0.443966 0.542998 0.158144
O O11 0.174513 0.609428 0.089844
#
# Coordination Sequence:
#
# PCOD9461635 Si02
#       6
#     4   8   4   8   8   8
#     4  12  20  30  48  70 101 134 156 178 229 296
#     4   9  18  33  51  72  96 125 159 198 240 279
#     4  12  22  32  48  70 101 132 158 190 233 288
#     4  10  18  28  46  72  99 127 159 190 228 285
#     4   9  17  31  49  69  93 125 165 197 229 279
#     4  10  20  32  48  72 102 127 154 197 241 277
#
# _framework density 16.885362000000001
#
# number of rings (size 3 to 8) (size 9 to 14) (size 15 to 20)
#    0.000    2.000    0.000    7.800    0.000    0.800 
#    0.000    4.000    0.000    1.200    0.000    0.000 
#    0.000    0.000    0.000    0.000    0.000    0.000 
#
# Total GULP energy -223170.508596 kJ/mol
# GULP energy per Si atom -5579.262715 kJ/mol
# Density = 1.684693 g / cm^3
# Si number density = 16.885362 Si / 1000 Ang^3
#
#
#
# Elastic Constant Matrix: (Units=GPa)
#
#
# Indices 1 2 3 4 5 6 
#
# 1 75.7855 10.0189 9.6707 0.0000 0.0000 0.0000
# 2 10.0189 47.0094 15.8336 0.0000 0.0000 0.0000
# 3 9.6707 15.8336 47.5908 0.0000 0.0000 0.0000
# 4 0.0000 0.0000 0.0000 15.8739 0.0000 0.0000
# 5 0.0000 0.0000 0.0000 0.0000 10.1590 0.0000
# 6 0.0000 0.0000 0.0000 0.0000 0.0000 12.6263
#
#
#
# Elastic Compliance Matrix: (Units=1/GPa)
#
#
# Indices 1 2 3 4 5 6 
#
# 1 0.013753 -0.002241 -0.002049 0.000000 0.000000 0.000000
# 2 -0.002241 0.024322 -0.007637 0.000000 0.000000 0.000000
# 3 -0.002049 -0.007637 0.023970 0.000000 0.000000 0.000000
# 4 0.000000 0.000000 0.000000 0.062997 0.000000 0.000000
# 5 0.000000 0.000000 0.000000 0.000000 0.098435 0.000000
# 6 0.000000 0.000000 0.000000 0.000000 0.000000 0.079200
#
#
# Mechanical properties :
#
#
# Convention : Reuss Voigt Hill
#
# Bulk Modulus (GPa) = 26.18404 26.82578 26.50491
# Shear Modulus (GPa) = 14.73799 16.72268 15.73034
#
# Velocity S-wave (km/s) = 2.95757 3.15042 3.05552
# Velocity P-wave (km/s) = 5.21570 5.39954 5.30842
#
# Compressibility (1/GPa) = 0.03819121
#
# Stress axis : x y z
#
# Youngs Moduli (GPa) = 72.71217 41.11493 41.71956
#
# Poissons Ratio (x) = 0.09213 0.08549
# Poissons Ratio (y) = 0.16294 0.31860
# Poissons Ratio (z) = 0.14899 0.31398
#
# Static dielectric constant tensor:
#      x y z
#    x 1.607110 0.000000 0.000000 
#    y 0.000000 1.573640 0.000000 
#    z 0.000000 0.000000 1.571160 
# 
# From -- ./inp_files/16703.got.cif
#   From: 2010.05.17/outbox.cif.g08.bks.cpg/sg62_9_cif.got.tgz:16703.got - 2010.06.03 15:25:27.
