data_PCOD9461973
_publ_section_title
;
Structure prediction by ZEFSAII (Michael W. Deem and Ramdas Pophale) SiO2 
 PCOD9461973
Probable space group: P N M A
;
_chemical_formula_sum "Si O2"
_cell_formula_units_Z 64
_cell_length_a 32.466447
_cell_length_b 10.294114
_cell_length_c 9.504894
_cell_angle_alpha 90.000000
_cell_angle_beta 90.000000
_cell_angle_gamma 90.000000
_cell_volume 3176.662053
_symmetry_space_group_name_H-M "P N M A"
_symmetry_group_IT_number 62
_symmetry_cell_setting 'orthorhombic'
loop_
_space_group_symop_operation_xyz
x,y,z
1/2-x,-y,1/2+z
1/2+x,1/2-y,1/2-z
-x,1/2+y,-z
-x,-y,-z
1/2+x,y,1/2-z
1/2-x,1/2+y,1/2+z
x,1/2-y,z
loop_
_atom_site_type_symbol
_atom_site_label
_atom_site_fract_x
_atom_site_fract_y
_atom_site_fract_z
Si Si1 0.743909 0.094730 0.546673
Si Si2 0.578161 0.109046 0.519615
Si Si3 0.386848 0.987948 0.741047
Si Si4 0.015005 0.098575 0.619124
Si Si5 0.459310 0.108602 0.608802
Si Si6 0.657936 0.093205 0.693866
Si Si7 0.706382 0.093841 0.240584
Si Si8 0.392673 0.595585 0.054017
O O1 0.752776 0.250000 0.572409
O O2 0.701301 0.058685 0.627314
O O3 0.734781 0.080892 0.380263
O O4 0.776191 0.993623 0.613066
O O5 0.566582 0.250000 0.576486
O O6 0.543851 0.999805 0.511447
O O7 0.619416 0.059505 0.594732
O O8 0.590842 0.119540 0.355400
O O9 0.412552 0.107139 0.675633
O O10 0.338398 0.965125 0.722400
O O11 0.395204 0.974138 0.905423
O O12 0.009268 0.250000 0.576539
O O13 0.064155 0.079671 0.635972
O O14 0.988580 0.078869 0.759527
O O15 0.000000 0.000000 0.500000
O O16 0.469242 0.250000 0.551851
O O17 0.657812 0.250000 0.698274
O O18 0.645006 0.048250 0.849040
O O19 0.702799 0.250000 0.209939
O O20 0.387302 0.750000 0.027285
#
# Coordination Sequence:
#
# PCOD9461973 Si02
#       8
#     8   8   8   8   8   8   8   8
#     4  10  22  40  59  83 117 149 180 230 287 336
#     4   9  16  32  57  76  98 138 186 222 258 313
#     4  10  19  32  58  78 104 136 189 222 260 311
#     4  10  18  32  50  78 113 145 178 225 275 320
#     4   9  19  31  51  78 110 143 176 221 275 324
#     4   9  18  35  56  80 109 142 181 230 277 320
#     4  11  23  39  59  86 114 143 187 233 276 334
#     4  10  19  30  53  85 111 138 182 227 270 318
#
# _framework density 20.146933000000001
#
# number of rings (size 3 to 8) (size 9 to 14) (size 15 to 20)
#    0.750    1.500    2.500    1.125    1.750    1.500 
#    0.000    2.500    0.000    2.250    0.000    0.000 
#    0.000    0.000    0.000    0.000    0.000    0.000 
#
# Total GULP energy -356347.402599 kJ/mol
# GULP energy per Si atom -5567.928166 kJ/mol
# Density = 2.010108 g / cm^3
# Si number density = 20.146933 Si / 1000 Ang^3
#
#
#
# Elastic Constant Matrix: (Units=GPa)
#
#
# Indices 1 2 3 4 5 6 
#
# 1 69.7532 29.8502 14.8021 0.0000 0.0000 0.0000
# 2 29.8502 58.6578 30.2859 0.0000 0.0000 0.0000
# 3 14.8021 30.2859 58.3948 0.0000 0.0000 0.0000
# 4 0.0000 0.0000 0.0000 8.7994 0.0000 0.0000
# 5 0.0000 0.0000 0.0000 0.0000 42.5091 0.0000
# 6 0.0000 0.0000 0.0000 0.0000 0.0000 41.2256
#
#
#
# Elastic Compliance Matrix: (Units=1/GPa)
#
#
# Indices 1 2 3 4 5 6 
#
# 1 0.018330 -0.009463 0.000261 0.000000 0.000000 0.000000
# 2 -0.009463 0.028168 -0.012210 0.000000 0.000000 0.000000
# 3 0.000261 -0.012210 0.023391 0.000000 0.000000 0.000000
# 4 0.000000 0.000000 0.000000 0.113644 0.000000 0.000000
# 5 0.000000 0.000000 0.000000 0.000000 0.023524 0.000000
# 6 0.000000 0.000000 0.000000 0.000000 0.000000 0.024257
#
#
# Mechanical properties :
#
#
# Convention : Reuss Voigt Hill
#
# Bulk Modulus (GPa) = 36.94694 37.40914 37.17804
# Shear Modulus (GPa) = 17.65782 25.96467 21.81125
#
# Velocity S-wave (km/s) = 2.96371 3.59383 3.29387
# Velocity P-wave (km/s) = 5.48543 5.98576 5.74105
#
# Compressibility (1/GPa) = 0.02706584
#
# Stress axis : x y z
#
# Youngs Moduli (GPa) = 54.55419 35.50125 42.75097
#
# Poissons Ratio (x) = 0.33595 -0.01118
# Poissons Ratio (y) = 0.51625 0.52200
# Poissons Ratio (z) = -0.01427 0.43348
#
# Static dielectric constant tensor:
#      x y z
#    x 1.766400 0.000000 0.000000 
#    y 0.000000 1.303270 0.000000 
#    z 0.000000 0.000000 1.728910 
# 
# From -- ./inp_files/10476.got.cif
#   From: 2010.05.17/outbox.cif.g08.bks.cpg/sg62_6_cif.got.tgz:10476.got - 2010.06.03 15:25:27.
