data_PCOD9461263
_publ_section_title
;
Structure prediction by ZEFSAII (Michael W. Deem and Ramdas Pophale) SiO2 
 PCOD9461263
Probable space group: P B C A
;
_chemical_formula_sum "Si O2"
_cell_formula_units_Z 64
_cell_length_a 18.000000
_cell_length_b 21.000000
_cell_length_c 9.000000
_cell_angle_alpha 90.000000
_cell_angle_beta 90.000000
_cell_angle_gamma 90.000000
_cell_volume 3402.000000
_symmetry_space_group_name_H-M "P B C A"
_symmetry_group_IT_number 61
_symmetry_cell_setting 'orthorhombic'
loop_
_space_group_symop_operation_xyz
x,y,z
1/2-x,-y,1/2+z
1/2+x,1/2-y,-z
-x,1/2+y,1/2-z
-x,-y,-z
1/2+x,y,1/2-z
1/2-x,1/2+y,z
x,1/2-y,1/2+z
loop_
_atom_site_type_symbol
_atom_site_label
_atom_site_fract_x
_atom_site_fract_y
_atom_site_fract_z
Si Si1 0.947353 0.054934 0.063973
Si Si2 0.536451 0.197663 0.152758
Si Si3 0.783623 0.065483 0.929173
Si Si4 0.290115 0.291193 0.037116
Si Si5 0.481980 0.552041 0.373757
Si Si6 0.295737 0.687307 0.230433
Si Si7 0.313320 0.954630 0.784530
Si Si8 0.961332 0.299433 0.540814
O O1 0.973086 0.125343 0.010529
O O2 0.957264 0.051205 0.241998
O O3 0.862335 0.051217 0.011186
O O4 0.000000 0.000000 0.000000
O O5 0.526418 0.126940 0.081632
O O6 0.618425 0.202055 0.226189
O O7 0.475806 0.205599 0.283458
O O8 0.520171 0.253689 0.038217
O O9 0.783319 0.139853 0.881494
O O10 0.778686 0.015409 0.796265
O O11 0.719955 0.054441 0.051107
O O12 0.243521 0.234602 0.113754
O O13 0.253222 0.303549 0.877804
O O14 0.378067 0.280070 0.009579
O O15 0.500000 0.500000 0.500000
O O16 0.401875 0.536592 0.300505
O O17 0.296410 0.611401 0.196720
#
# Coordination Sequence:
#
# PCOD9461263 Si02
#       8
#     8   8   8   8   8   8   8   8
#     4  10  20  39  60  82 118 159 193 244 301 355
#     4  10  21  39  59  88 121 155 198 247 293 354
#     4  10  22  39  58  87 121 154 199 245 295 356
#     4  10  21  39  59  85 119 152 195 246 292 352
#     4  10  22  39  61  89 120 156 201 247 301 355
#     4  10  21  39  61  83 121 156 194 244 296 350
#     4  10  22  40  59  87 122 156 198 245 296 363
#     4  10  21  37  59  86 118 152 198 246 295 351
#
# _framework density 18.812463000000001
#
# number of rings (size 3 to 8) (size 9 to 14) (size 15 to 20)
#    0.000    2.000    1.250    1.500    1.750    3.000 
#    4.500    0.000    0.000    0.000    0.000    0.000 
#    0.000    0.000    0.000    0.000    0.000    0.000 
#
# Total GULP energy -357008.520692 kJ/mol
# GULP energy per Si atom -5578.258136 kJ/mol
# Density = 1.876965 g / cm^3
# Si number density = 18.812463 Si / 1000 Ang^3
#
#
#
# Elastic Constant Matrix: (Units=GPa)
#
#
# Indices 1 2 3 4 5 6 
#
# 1 58.1954 17.9979 -0.1328 0.0000 0.0000 0.0000
# 2 17.9979 84.5114 26.9211 0.0000 0.0000 0.0000
# 3 -0.1328 26.9211 29.2882 0.0000 0.0000 0.0000
# 4 0.0000 0.0000 0.0000 36.0837 0.0000 0.0000
# 5 0.0000 0.0000 0.0000 0.0000 28.5887 0.0000
# 6 0.0000 0.0000 0.0000 0.0000 0.0000 34.0365
#
#
#
# Elastic Compliance Matrix: (Units=1/GPa)
#
#
# Indices 1 2 3 4 5 6 
#
# 1 0.018975 -0.005753 0.005374 0.000000 0.000000 0.000000
# 2 -0.005753 0.018476 -0.017009 0.000000 0.000000 0.000000
# 3 0.005374 -0.017009 0.049802 0.000000 0.000000 0.000000
# 4 0.000000 0.000000 0.000000 0.027713 0.000000 0.000000
# 5 0.000000 0.000000 0.000000 0.000000 0.034979 0.000000
# 6 0.000000 0.000000 0.000000 0.000000 0.000000 0.029380
#
#
# Mechanical properties :
#
#
# Convention : Reuss Voigt Hill
#
# Bulk Modulus (GPa) = 19.05579 29.06304 24.05942
# Shear Modulus (GPa) = 21.58953 28.22237 24.90595
#
# Velocity S-wave (km/s) = 3.39133 3.87744 3.64250
# Velocity P-wave (km/s) = 5.04838 5.96057 5.52334
#
# Compressibility (1/GPa) = 0.05247748
#
# Stress axis : x y z
#
# Youngs Moduli (GPa) = 52.70110 54.12400 20.07945
#
# Poissons Ratio (x) = 0.31137 -0.10791
# Poissons Ratio (y) = 0.30318 0.34153
# Poissons Ratio (z) = -0.28321 0.92059
#
# Static dielectric constant tensor:
#      x y z
#    x 1.649680 0.000000 0.000000 
#    y 0.000000 1.672640 0.000000 
#    z 0.000000 0.000000 1.650330 
# 
# From -- ./inp_files/3697.got.cif
#   From: 2010.05.17/outbox.ucp.g08.bks.cvg/sg61_2_cif.got.tgz:3697.got - 2010.06.11 16:28:26.
