data_PCOD9461971
_publ_section_title
;
Structure prediction by ZEFSAII (Michael W. Deem and Ramdas Pophale) SiO2 
 PCOD9461971
Probable space group: P N M A
;
_chemical_formula_sum "Si O2"
_cell_formula_units_Z 56
_cell_length_a 15.364579
_cell_length_b 20.718333
_cell_length_c 8.783498
_cell_angle_alpha 90.000000
_cell_angle_beta 90.000000
_cell_angle_gamma 90.000000
_cell_volume 2796.037428
_symmetry_space_group_name_H-M "P N M A"
_symmetry_group_IT_number 62
_symmetry_cell_setting 'orthorhombic'
loop_
_space_group_symop_operation_xyz
x,y,z
1/2-x,-y,1/2+z
1/2+x,1/2-y,1/2-z
-x,1/2+y,-z
-x,-y,-z
1/2+x,y,1/2-z
1/2-x,1/2+y,1/2+z
x,1/2-y,z
loop_
_atom_site_type_symbol
_atom_site_label
_atom_site_fract_x
_atom_site_fract_y
_atom_site_fract_z
Si Si1 0.669694 0.676631 0.584743
Si Si2 0.593017 0.088293 0.009875
Si Si3 0.651849 0.393684 0.514927
Si Si4 0.508966 0.372715 0.300859
Si Si5 0.778287 0.673329 0.305406
Si Si6 0.925112 0.510698 0.225209
Si Si7 0.259493 0.943486 0.763772
O O1 0.698290 0.750000 0.609772
O O2 0.570332 0.667921 0.633757
O O3 0.691267 0.661315 0.406952
O O4 0.721991 0.626439 0.688650
O O5 0.529459 0.127817 0.120980
O O6 0.659628 0.048831 0.120644
O O7 0.648911 0.138301 0.908836
O O8 0.550932 0.040026 0.888320
O O9 0.596522 0.354082 0.390633
O O10 0.710983 0.356978 0.637627
O O11 0.576609 0.431476 0.606100
O O12 0.706622 0.441668 0.408361
O O13 0.480037 0.448210 0.318505
O O14 0.791024 0.750000 0.294884
O O15 0.822592 0.490576 0.227300
#
# Coordination Sequence:
#
# PCOD9461971 Si02
#       7
#     8   8   8   8   8   8   8
#     4   9  19  36  54  72  98 132 168 209 255 299
#     4   9  18  32  51  75 103 135 170 206 248 299
#     4  10  20  33  52  78 103 132 169 208 249 297
#     4  10  20  33  51  77 106 133 166 207 254 304
#     4   9  19  36  54  72  98 132 170 211 254 299
#     4  10  18  32  50  74 106 138 165 203 250 298
#     4   9  18  32  52  76  99 132 175 210 242 290
#
# _framework density 20.028344000000001
#
# number of rings (size 3 to 8) (size 9 to 14) (size 15 to 20)
#    0.000    2.571    0.000    1.714    0.000    2.857 
#    0.000   10.000    0.000    0.000    0.000    0.000 
#    0.000    0.000    0.000    0.000    0.000    0.000 
#
# Total GULP energy -311941.089026 kJ/mol
# GULP energy per Si atom -5570.376590 kJ/mol
# Density = 1.998276 g / cm^3
# Si number density = 20.028344 Si / 1000 Ang^3
#
#
#
# Elastic Constant Matrix: (Units=GPa)
#
#
# Indices 1 2 3 4 5 6 
#
# 1 46.5513 -11.3007 21.6725 0.0000 0.0000 0.0000
# 2 -11.3007 35.8193 21.3225 0.0000 0.0000 0.0000
# 3 21.6725 21.3225 135.4165 0.0000 0.0000 0.0000
# 4 0.0000 0.0000 0.0000 13.8284 0.0000 0.0000
# 5 0.0000 0.0000 0.0000 0.0000 26.9229 0.0000
# 6 0.0000 0.0000 0.0000 0.0000 0.0000 12.0736
#
#
#
# Elastic Compliance Matrix: (Units=1/GPa)
#
#
# Indices 1 2 3 4 5 6 
#
# 1 0.027462 0.012447 -0.006355 0.000000 0.000000 0.000000
# 2 0.012447 0.036447 -0.007731 0.000000 0.000000 0.000000
# 3 -0.006355 -0.007731 0.009619 0.000000 0.000000 0.000000
# 4 0.000000 0.000000 0.000000 0.072315 0.000000 0.000000
# 5 0.000000 0.000000 0.000000 0.000000 0.037143 0.000000
# 6 0.000000 0.000000 0.000000 0.000000 0.000000 0.082825
#
#
# Mechanical properties :
#
#
# Convention : Reuss Voigt Hill
#
# Bulk Modulus (GPa) = 14.23484 31.24172 22.73828
# Shear Modulus (GPa) = 17.09369 22.97117 20.03243
#
# Velocity S-wave (km/s) = 2.92460 3.39031 3.16603
# Velocity P-wave (km/s) = 4.30432 5.56401 4.97420
#
# Compressibility (1/GPa) = 0.07025016
#
# Stress axis : x y z
#
# Youngs Moduli (GPa) = 36.41404 27.43711 103.96087
#
# Poissons Ratio (x) = -0.34151 0.66067
# Poissons Ratio (y) = -0.45325 0.80372
# Poissons Ratio (z) = 0.23141 0.21212
#
# Static dielectric constant tensor:
#      x y z
#    x 1.740120 0.000000 0.000000 
#    y 0.000000 1.711030 0.000000 
#    z 0.000000 0.000000 1.735910 
# 
# From -- ./inp_files/8058.got.cif
#   From: 2010.05.17/outbox.cif.g08.bks.cpg/sg62_5_cif.got.tgz:8058.got - 2010.06.03 15:25:27.
