data_PCOD9461877
_publ_section_title
;
Structure prediction by ZEFSAII (Michael W. Deem and Ramdas Pophale) SiO2 
 PCOD9461877
Probable space group: P N M A
;
_chemical_formula_sum "Si O2"
_cell_formula_units_Z 64
_cell_length_a 23.974347
_cell_length_b 8.764865
_cell_length_c 19.669849
_cell_angle_alpha 90.000000
_cell_angle_beta 90.000000
_cell_angle_gamma 90.000000
_cell_volume 4133.263037
_symmetry_space_group_name_H-M "P N M A"
_symmetry_group_IT_number 62
_symmetry_cell_setting 'orthorhombic'
loop_
_space_group_symop_operation_xyz
x,y,z
1/2-x,-y,1/2+z
1/2+x,1/2-y,1/2-z
-x,1/2+y,-z
-x,-y,-z
1/2+x,y,1/2-z
1/2-x,1/2+y,1/2+z
x,1/2-y,z
loop_
_atom_site_type_symbol
_atom_site_label
_atom_site_fract_x
_atom_site_fract_y
_atom_site_fract_z
Si Si1 0.771757 0.567438 0.140862
Si Si2 0.118342 0.065723 0.505875
Si Si3 0.250705 0.933907 0.000594
Si Si4 0.436933 0.935611 0.863472
Si Si5 0.341666 0.932832 0.231161
Si Si6 0.935840 0.067288 0.357858
Si Si7 0.332462 0.933033 0.777115
Si Si8 0.727795 0.933600 0.347700
O O1 0.766246 0.750000 0.142018
O O2 0.777798 0.507829 0.064706
O O3 0.821471 0.526468 0.192993
O O4 0.715669 0.495863 0.172934
O O5 0.115937 0.250000 0.511046
O O6 0.183584 0.024029 0.500706
O O7 0.086177 0.017802 0.437493
O O8 0.090495 0.996085 0.572506
O O9 0.247954 0.750000 0.994983
O O10 0.225635 0.978667 0.073583
O O11 0.437086 0.750000 0.863569
O O12 0.500152 0.986485 0.851932
O O13 0.392085 0.983196 0.806790
O O14 0.348585 0.750000 0.227169
O O15 0.289072 0.972905 0.182414
O O16 0.396652 0.011513 0.203204
O O17 0.935588 0.250000 0.360334
O O18 0.330079 0.750000 0.778169
O O19 0.317071 0.992866 0.702472
O O20 0.723211 0.750000 0.343286
#
# Coordination Sequence:
#
# PCOD9461877 Si02
#       8
#     8   8   8   8   8   8   8   8
#     4  10  20  32  48  70  96 120 155 201 237 276
#     4  10  18  33  48  62  95 136 162 185 231 282
#     4  10  18  31  51  70  95 131 157 183 237 292
#     4   9  19  33  47  65  94 128 162 198 233 271
#     4   9  18  34  48  63  93 129 154 187 241 283
#     4  11  21  31  46  70  94 122 166 207 226 260
#     4  10  18  32  50  67  91 127 161 191 238 287
#     4   9  18  32  48  69  96 122 153 195 237 279
#
# _framework density 15.484135
#
# number of rings (size 3 to 8) (size 9 to 14) (size 15 to 20)
#    0.000    2.250    2.500    2.250    0.000    3.500 
#    0.000    3.125    0.000    0.000    0.000    0.875 
#    0.000    0.000    0.000    0.000    0.000    0.000 
#
# Total GULP energy -356954.104151 kJ/mol
# GULP energy per Si atom -5577.407877 kJ/mol
# Density = 1.544889 g / cm^3
# Si number density = 15.484135 Si / 1000 Ang^3
#
#
#
# Elastic Constant Matrix: (Units=GPa)
#
#
# Indices 1 2 3 4 5 6 
#
# 1 89.0450 24.4826 64.8376 0.0000 0.0000 0.0000
# 2 24.4826 22.3204 35.3002 0.0000 0.0000 0.0000
# 3 64.8376 35.3002 144.0607 0.0000 0.0000 0.0000
# 4 0.0000 0.0000 0.0000 29.0596 0.0000 0.0000
# 5 0.0000 0.0000 0.0000 0.0000 19.7289 0.0000
# 6 0.0000 0.0000 0.0000 0.0000 0.0000 17.7838
#
#
#
# Elastic Compliance Matrix: (Units=1/GPa)
#
#
# Indices 1 2 3 4 5 6 
#
# 1 0.018362 -0.011545 -0.005435 0.000000 0.000000 0.000000
# 2 -0.011545 0.080409 -0.014507 0.000000 0.000000 0.000000
# 3 -0.005435 -0.014507 0.012943 0.000000 0.000000 0.000000
# 4 0.000000 0.000000 0.000000 0.034412 0.000000 0.000000
# 5 0.000000 0.000000 0.000000 0.000000 0.050687 0.000000
# 6 0.000000 0.000000 0.000000 0.000000 0.000000 0.056231
#
#
# Mechanical properties :
#
#
# Convention : Reuss Voigt Hill
#
# Bulk Modulus (GPa) = 20.51754 56.07410 38.29582
# Shear Modulus (GPa) = 15.04826 22.03486 18.54156
#
# Velocity S-wave (km/s) = 3.12083 3.77644 3.46418
# Velocity P-wave (km/s) = 5.12500 7.43692 6.38645
#
# Compressibility (1/GPa) = 0.04873880
#
# Stress axis : x y z
#
# Youngs Moduli (GPa) = 54.45958 12.43648 77.26417
#
# Poissons Ratio (x) = 0.14358 0.41996
# Poissons Ratio (y) = 0.62873 1.12088
# Poissons Ratio (z) = 0.29601 0.18042
#
# Static dielectric constant tensor:
#      x y z
#    x 1.499930 0.000000 0.000000 
#    y 0.000000 1.524670 0.000000 
#    z 0.000000 0.000000 1.517690 
# 
# From -- ./inp_files/27896.got.cif
#   From: 2010.05.17/outbox.cif.g08.bks.cpg/sg62_14_cif.got.tgz:27896.got - 2010.06.03 15:25:27.
