data_PCOD9461883
_publ_section_title
;
Structure prediction by ZEFSAII (Michael W. Deem and Ramdas Pophale) SiO2 
 PCOD9461883
Probable space group: P N M A
;
_chemical_formula_sum "Si O2"
_cell_formula_units_Z 64
_cell_length_a 19.491467
_cell_length_b 9.012582
_cell_length_c 23.708321
_cell_angle_alpha 90.000000
_cell_angle_beta 90.000000
_cell_angle_gamma 90.000000
_cell_volume 4164.803875
_symmetry_space_group_name_H-M "P N M A"
_symmetry_group_IT_number 62
_symmetry_cell_setting 'orthorhombic'
loop_
_space_group_symop_operation_xyz
x,y,z
1/2-x,-y,1/2+z
1/2+x,1/2-y,1/2-z
-x,1/2+y,-z
-x,-y,-z
1/2+x,y,1/2-z
1/2-x,1/2+y,1/2+z
x,1/2-y,z
loop_
_atom_site_type_symbol
_atom_site_label
_atom_site_fract_x
_atom_site_fract_y
_atom_site_fract_z
Si Si1 0.857455 0.427882 0.433315
Si Si2 0.996680 0.071854 0.749066
Si Si3 0.144515 0.072808 0.224425
Si Si4 0.266881 0.572856 0.160941
Si Si5 0.350085 0.927257 0.275680
Si Si6 0.857603 0.071997 0.564499
Si Si7 0.728398 0.073390 0.161674
Si Si8 0.505533 0.428006 0.884343
O O1 0.855963 0.250000 0.427974
O O2 0.799446 0.500071 0.394165
O O3 0.848868 0.466902 0.499061
O O4 0.930366 0.488938 0.411540
O O5 0.988127 0.250000 0.754149
O O6 0.070190 0.030405 0.775280
O O7 0.999754 0.038058 0.682148
O O8 0.932025 0.990171 0.775872
O O9 0.145558 0.250000 0.217775
O O10 0.177645 0.036484 0.285811
O O11 0.194443 0.996573 0.179143
O O12 0.261912 0.750000 0.155022
O O13 0.318409 0.541808 0.213580
O O14 0.345204 0.750000 0.283988
O O15 0.301895 0.008344 0.320450
O O16 0.851530 0.250000 0.570338
O O17 0.934279 0.032047 0.585328
O O18 0.803193 0.996119 0.605613
O O19 0.731953 0.250000 0.157082
O O20 0.516148 0.250000 0.889556
#
# Coordination Sequence:
#
# PCOD9461883 Si02
#       8
#     8   8   8   8   8   8   8   8
#     4  11  22  33  48  72 100 132 170 212 252 285
#     4  10  18  31  51  74  98 133 171 199 238 299
#     4  10  20  32  48  74 102 127 159 207 257 293
#     4  10  19  34  52  70  94 132 170 204 245 294
#     4   9  18  32  50  70  95 128 165 202 245 294
#     4  10  21  35  50  68  97 137 173 206 245 290
#     4  10  20  32  48  72  97 126 164 207 252 291
#     4  10  19  33  49  68  98 137 177 205 234 289
#
# _framework density 15.36687
#
# number of rings (size 3 to 8) (size 9 to 14) (size 15 to 20)
#    0.000    2.000    2.500    1.875    0.000    4.000 
#    0.000    0.000    0.000    0.000    0.000    0.875 
#    0.000    0.000    0.000    0.000    0.000    0.000 
#
# Total GULP energy -357222.233182 kJ/mol
# GULP energy per Si atom -5581.597393 kJ/mol
# Density = 1.533189 g / cm^3
# Si number density = 15.366870 Si / 1000 Ang^3
#
#
#
# Elastic Constant Matrix: (Units=GPa)
#
#
# Indices 1 2 3 4 5 6 
#
# 1 146.5067 57.4239 75.8556 0.0000 0.0000 0.0000
# 2 57.4239 40.6494 47.9916 0.0000 0.0000 0.0000
# 3 75.8556 47.9916 100.6066 0.0000 0.0000 0.0000
# 4 0.0000 0.0000 0.0000 22.1709 0.0000 0.0000
# 5 0.0000 0.0000 0.0000 0.0000 19.2416 0.0000
# 6 0.0000 0.0000 0.0000 0.0000 0.0000 28.1005
#
#
#
# Elastic Compliance Matrix: (Units=1/GPa)
#
#
# Indices 1 2 3 4 5 6 
#
# 1 0.015647 -0.018716 -0.002870 0.000000 0.000000 0.000000
# 2 -0.018716 0.078705 -0.023432 0.000000 0.000000 0.000000
# 3 -0.002870 -0.023432 0.023281 0.000000 0.000000 0.000000
# 4 0.000000 0.000000 0.000000 0.045104 0.000000 0.000000
# 5 0.000000 0.000000 0.000000 0.000000 0.051971 0.000000
# 6 0.000000 0.000000 0.000000 0.000000 0.000000 0.035587
#
#
# Mechanical properties :
#
#
# Convention : Reuss Voigt Hill
#
# Bulk Modulus (GPa) = 36.23595 72.25611 54.24603
# Shear Modulus (GPa) = 14.30487 21.00205 17.65346
#
# Velocity S-wave (km/s) = 3.05436 3.70091 3.39307
# Velocity P-wave (km/s) = 6.00588 8.08611 7.12235
#
# Compressibility (1/GPa) = 0.02759691
#
# Stress axis : x y z
#
# Youngs Moduli (GPa) = 63.90821 12.70561 42.95314
#
# Poissons Ratio (x) = 0.23780 0.12326
# Poissons Ratio (y) = 1.19614 1.00649
# Poissons Ratio (z) = 0.18340 0.29772
#
# Static dielectric constant tensor:
#      x y z
#    x 1.497200 0.000000 0.000000 
#    y 0.000000 1.509490 0.000000 
#    z 0.000000 0.000000 1.487560 
# 
# From -- ./inp_files/27616.got.cif
#   From: 2010.05.17/outbox.cif.g08.bks.cpg/sg62_14_cif.got.tgz:27616.got - 2010.06.03 15:25:27.
