data_PCOD9461421
_publ_section_title
;
Structure prediction by ZEFSAII (Michael W. Deem and Ramdas Pophale) SiO2 
 PCOD9461421
Probable space group: P N M A
;
_chemical_formula_sum "Si O2"
_cell_formula_units_Z 64
_cell_length_a 19.437158
_cell_length_b 30.504578
_cell_length_c 5.560197
_cell_angle_alpha 90.000000
_cell_angle_beta 90.000000
_cell_angle_gamma 90.000000
_cell_volume 3296.764807
_symmetry_space_group_name_H-M "P N M A"
_symmetry_group_IT_number 62
_symmetry_cell_setting 'orthorhombic'
loop_
_space_group_symop_operation_xyz
x,y,z
1/2-x,-y,1/2+z
1/2+x,1/2-y,1/2-z
-x,1/2+y,-z
-x,-y,-z
1/2+x,y,1/2-z
1/2-x,1/2+y,1/2+z
x,1/2-y,z
loop_
_atom_site_type_symbol
_atom_site_label
_atom_site_fract_x
_atom_site_fract_y
_atom_site_fract_z
Si Si1 0.389783 0.067992 0.738272
Si Si2 0.273379 0.428705 0.111494
Si Si3 0.127452 0.659775 0.067079
Si Si4 0.332658 0.994840 0.419871
Si Si5 0.979053 0.976756 0.252493
Si Si6 0.717558 0.197840 0.880076
Si Si7 0.879823 0.198828 0.430640
Si Si8 0.777451 0.831303 0.876462
O O1 0.372482 0.107226 0.556127
O O2 0.472109 0.065850 0.760540
O O3 0.364464 0.019739 0.653015
O O4 0.344955 0.078885 0.971665
O O5 0.289751 0.465114 0.309047
O O6 0.241477 0.381888 0.171863
O O7 0.217319 0.454174 0.952632
O O8 0.205644 0.677655 0.086861
O O9 0.096623 0.674737 0.324624
O O10 0.095371 0.679214 0.824070
O O11 0.396799 0.977945 0.262293
O O12 0.000000 0.000000 0.500000
O O13 0.000000 0.000000 0.000000
O O14 0.721555 0.250000 0.848741
O O15 0.687911 0.176197 0.636911
O O16 0.685046 0.187231 0.140635
O O17 0.895623 0.250000 0.448101
O O18 0.796418 0.193197 0.411533
#
# Coordination Sequence:
#
# PCOD9461421 Si02
#       8
#     8   8   8   8   8   8   8   8
#     4  11  21  36  52  76 104 146 182 226 267 327
#     4  12  21  33  54  76 110 142 183 226 276 322
#     4  10  18  27  45  68  98 131 166 207 261 314
#     4  11  23  36  54  79 106 149 190 230 275 325
#     4  10  22  38  57  75 104 140 187 222 264 315
#     4  10  17  29  45  67 102 134 163 205 267 328
#     4  10  17  28  44  68 102 133 161 204 266 326
#     4  10  19  28  43  70  99 135 163 209 260 321
#
# _framework density 19.412970000000001
#
# number of rings (size 3 to 8) (size 9 to 14) (size 15 to 20)
#    0.000    1.500    5.000    5.250    0.000    0.000 
#    0.000    0.000    0.000    0.000    0.000    0.000 
#    0.000   11.000    0.000    0.000    0.000    0.000 
#
# Total GULP energy -356316.523403 kJ/mol
# GULP energy per Si atom -5567.445678 kJ/mol
# Density = 1.936879 g / cm^3
# Si number density = 19.412970 Si / 1000 Ang^3
#
#
#
# Elastic Constant Matrix: (Units=GPa)
#
#
# Indices 1 2 3 4 5 6 
#
# 1 19.3800 16.5539 8.9934 0.0000 0.0000 0.0000
# 2 16.5539 101.5073 16.0869 0.0000 0.0000 0.0000
# 3 8.9934 16.0869 134.0046 0.0000 0.0000 0.0000
# 4 0.0000 0.0000 0.0000 33.2608 0.0000 0.0000
# 5 0.0000 0.0000 0.0000 0.0000 8.8075 0.0000
# 6 0.0000 0.0000 0.0000 0.0000 0.0000 2.6779
#
#
#
# Elastic Compliance Matrix: (Units=1/GPa)
#
#
# Indices 1 2 3 4 5 6 
#
# 1 0.061081 -0.009492 -0.002960 0.000000 0.000000 0.000000
# 2 -0.009492 0.011518 -0.000746 0.000000 0.000000 0.000000
# 3 -0.002960 -0.000746 0.007751 0.000000 0.000000 0.000000
# 4 0.000000 0.000000 0.000000 0.030065 0.000000 0.000000
# 5 0.000000 0.000000 0.000000 0.000000 0.113539 0.000000
# 6 0.000000 0.000000 0.000000 0.000000 0.000000 0.373422
#
#
# Mechanical properties :
#
#
# Convention : Reuss Voigt Hill
#
# Bulk Modulus (GPa) = 18.53422 37.57336 28.05379
# Shear Modulus (GPa) = 7.79113 23.16644 15.47878
#
# Velocity S-wave (km/s) = 2.00551 3.45824 2.82679
# Velocity P-wave (km/s) = 3.86404 5.94497 5.01366
#
# Compressibility (1/GPa) = 0.05395424
#
# Stress axis : x y z
#
# Youngs Moduli (GPa) = 16.37170 86.82326 129.02265
#
# Poissons Ratio (x) = 0.82413 0.38188
# Poissons Ratio (y) = 0.15540 0.09620
# Poissons Ratio (z) = 0.04846 0.06474
#
# Static dielectric constant tensor:
#      x y z
#    x 1.689580 0.000000 0.000000 
#    y 0.000000 1.701040 0.000000 
#    z 0.000000 0.000000 1.868370 
# 
# From -- ./inp_files/2420.got.cif
#   From: 2010.05.17/outbox.cif.g08.bks.cpg/sg62_2_cif.got.tgz:2420.got - 2010.06.03 15:25:27.
