data_PCOD9461968
_publ_section_title
;
Structure prediction by ZEFSAII (Michael W. Deem and Ramdas Pophale) SiO2 
 PCOD9461968
Probable space group: P N M A
;
_chemical_formula_sum "Si O2"
_cell_formula_units_Z 64
_cell_length_a 31.144658
_cell_length_b 8.754095
_cell_length_c 14.982525
_cell_angle_alpha 90.000000
_cell_angle_beta 90.000000
_cell_angle_gamma 90.000000
_cell_volume 4084.884982
_symmetry_space_group_name_H-M "P N M A"
_symmetry_group_IT_number 62
_symmetry_cell_setting 'orthorhombic'
loop_
_space_group_symop_operation_xyz
x,y,z
1/2-x,-y,1/2+z
1/2+x,1/2-y,1/2-z
-x,1/2+y,-z
-x,-y,-z
1/2+x,y,1/2-z
1/2-x,1/2+y,1/2+z
x,1/2-y,z
loop_
_atom_site_type_symbol
_atom_site_label
_atom_site_fract_x
_atom_site_fract_y
_atom_site_fract_z
Si Si1 0.222974 0.572852 0.012919
Si Si2 0.455227 0.066455 0.104534
Si Si3 0.825530 0.574286 0.502577
Si Si4 0.795038 0.436087 0.182875
Si Si5 0.136202 0.569200 0.323405
Si Si6 0.289690 0.567744 0.705954
Si Si7 0.047480 0.934054 0.397277
Si Si8 0.134950 0.934508 0.674942
O O1 0.209628 0.750000 0.023971
O O2 0.274191 0.570791 0.998798
O O3 0.213036 0.486138 0.104008
O O4 0.204346 0.510776 0.919533
O O5 0.459180 0.250000 0.104779
O O6 0.415250 0.024465 0.167408
O O7 0.500911 0.995558 0.129112
O O8 0.445170 0.019784 0.001411
O O9 0.839008 0.750000 0.518424
O O10 0.842868 0.468119 0.580895
O O11 0.842508 0.513501 0.408904
O O12 0.792571 0.250000 0.179332
O O13 0.752307 0.487016 0.237277
O O14 0.837632 0.476823 0.238099
O O15 0.136115 0.750000 0.307378
O O16 0.166787 0.490435 0.251652
O O17 0.086952 0.515162 0.335251
O O18 0.288776 0.750000 0.709522
O O19 0.046999 0.750000 0.396260
O O20 0.137942 0.750000 0.664645
#
# Coordination Sequence:
#
# PCOD9461968 Si02
#       8
#     8   8   8   8   8   8   8   8
#     4  10  20  35  48  68  99 132 166 202 239 282
#     4   9  17  29  46  70  97 125 162 200 240 294
#     4  11  20  29  46  72 101 131 168 207 238 282
#     4   9  18  32  50  69  96 129 166 201 236 287
#     4  11  21  34  50  70  98 134 169 202 243 295
#     4  11  21  34  51  74  98 129 167 204 243 285
#     4   9  18  31  46  67  96 129 162 196 243 297
#     4  10  18  32  50  70  97 134 169 200 244 293
#
# _framework density 15.667517
#
# number of rings (size 3 to 8) (size 9 to 14) (size 15 to 20)
#    0.000    2.000    3.750    1.125    0.000    2.000 
#    0.000    0.625    0.000    0.000    0.000    0.875 
#    0.000    0.000    0.000    0.000    0.000    0.000 
#
# Total GULP energy -356825.327704 kJ/mol
# GULP energy per Si atom -5575.395745 kJ/mol
# Density = 1.563186 g / cm^3
# Si number density = 15.667517 Si / 1000 Ang^3
#
#
#
# Elastic Constant Matrix: (Units=GPa)
#
#
# Indices 1 2 3 4 5 6 
#
# 1 104.1437 17.8393 40.4720 0.0000 0.0000 0.0000
# 2 17.8393 14.9254 11.5129 0.0000 0.0000 0.0000
# 3 40.4720 11.5129 83.5242 0.0000 0.0000 0.0000
# 4 0.0000 0.0000 0.0000 18.1445 0.0000 0.0000
# 5 0.0000 0.0000 0.0000 0.0000 18.7685 0.0000
# 6 0.0000 0.0000 0.0000 0.0000 0.0000 21.1051
#
#
#
# Elastic Compliance Matrix: (Units=1/GPa)
#
#
# Indices 1 2 3 4 5 6 
#
# 1 0.013649 -0.012546 -0.004885 0.000000 0.000000 0.000000
# 2 -0.012546 0.086504 -0.005844 0.000000 0.000000 0.000000
# 3 -0.004885 -0.005844 0.015145 0.000000 0.000000 0.000000
# 4 0.000000 0.000000 0.000000 0.055113 0.000000 0.000000
# 5 0.000000 0.000000 0.000000 0.000000 0.053281 0.000000
# 6 0.000000 0.000000 0.000000 0.000000 0.000000 0.047382
#
#
# Mechanical properties :
#
#
# Convention : Reuss Voigt Hill
#
# Bulk Modulus (GPa) = 14.54593 38.02684 26.28638
# Shear Modulus (GPa) = 14.68256 20.45489 17.56873
#
# Velocity S-wave (km/s) = 3.06459 3.61717 3.35229
# Velocity P-wave (km/s) = 4.67189 6.46290 5.63895
#
# Compressibility (1/GPa) = 0.06874778
#
# Stress axis : x y z
#
# Youngs Moduli (GPa) = 73.26296 11.56021 66.02864
#
# Poissons Ratio (x) = 0.14504 0.32252
# Poissons Ratio (y) = 0.91919 0.38588
# Poissons Ratio (z) = 0.35785 0.06756
#
# Static dielectric constant tensor:
#      x y z
#    x 1.531190 0.000000 0.000000 
#    y 0.000000 1.536460 0.000000 
#    z 0.000000 0.000000 1.510420 
# 
# From -- ./inp_files/21274.got.cif
#   From: 2010.05.17/outbox.cif.g08.bks.cpg/sg62_11_cif.got.tgz:21274.got - 2010.06.03 15:25:27.
