data_PCOD9461467
_publ_section_title
;
Structure prediction by ZEFSAII (Michael W. Deem and Ramdas Pophale) SiO2 
 PCOD9461467
Probable space group: P N M A
;
_chemical_formula_sum "Si O2"
_cell_formula_units_Z 64
_cell_length_a 16.812119
_cell_length_b 13.511054
_cell_length_c 17.129163
_cell_angle_alpha 90.000000
_cell_angle_beta 90.000000
_cell_angle_gamma 90.000000
_cell_volume 3890.879914
_symmetry_space_group_name_H-M "P N M A"
_symmetry_group_IT_number 62
_symmetry_cell_setting 'orthorhombic'
loop_
_space_group_symop_operation_xyz
x,y,z
1/2-x,-y,1/2+z
1/2+x,1/2-y,1/2-z
-x,1/2+y,-z
-x,-y,-z
1/2+x,y,1/2-z
1/2-x,1/2+y,1/2+z
x,1/2-y,z
loop_
_atom_site_type_symbol
_atom_site_label
_atom_site_fract_x
_atom_site_fract_y
_atom_site_fract_z
Si Si1 0.903136 0.863768 0.423354
Si Si2 0.714577 0.552107 0.148852
Si Si3 0.039053 0.870759 0.313421
Si Si4 0.163454 0.365483 0.964661
Si Si5 0.241910 0.364341 0.695163
Si Si6 0.852435 0.051666 0.935679
Si Si7 0.278336 0.867516 0.948426
Si Si8 0.490942 0.631358 0.363244
O O1 0.922026 0.750000 0.444030
O O2 0.838979 0.862087 0.353401
O O3 0.852820 0.902641 0.496922
O O4 0.981514 0.907256 0.383587
O O5 0.626452 0.587307 0.171004
O O6 0.752113 0.609442 0.075126
O O7 0.766869 0.583474 0.222742
O O8 0.719941 0.436944 0.126851
O O9 0.040676 0.750000 0.315201
O O10 0.005954 0.898940 0.227146
O O11 0.157702 0.250000 0.983619
O O12 0.094829 0.390324 0.900906
O O13 0.151489 0.438378 0.037332
O O14 0.268334 0.250000 0.705804
O O15 0.305700 0.422417 0.643416
O O16 0.941759 0.085801 0.919361
O O17 0.802267 0.110680 0.002150
O O18 0.284211 0.750000 0.935448
O O19 0.500405 0.750000 0.364317
#
# Coordination Sequence:
#
# PCOD9461467 Si02
#       8
#     8   8   8   8   8   8   8   8
#     4   8  16  30  48  69  95 125 154 193 238 282
#     4  11  20  30  49  73  96 126 157 200 245 282
#     4  10  18  28  47  75  99 120 156 197 239 281
#     4  10  21  33  46  71 106 131 153 193 248 291
#     4  10  17  30  51  73  97 122 157 203 245 280
#     4  10  18  31  52  73  94 126 165 195 233 283
#     4   9  19  34  49  68  94 128 166 197 232 284
#     4  10  18  30  49  73 100 127 157 199 239 283
#
# _framework density 16.448722
#
# number of rings (size 3 to 8) (size 9 to 14) (size 15 to 20)
#    0.000    2.250    1.250    4.125    0.000    2.500 
#    0.000    0.625    0.000    0.000    0.000    2.625 
#    0.000    0.000    0.000    0.000    0.000    0.000 
#
# Total GULP energy -356464.355211 kJ/mol
# GULP energy per Si atom -5569.755550 kJ/mol
# Density = 1.641128 g / cm^3
# Si number density = 16.448722 Si / 1000 Ang^3
#
#
#
# Elastic Constant Matrix: (Units=GPa)
#
#
# Indices 1 2 3 4 5 6 
#
# 1 46.9656 20.0433 10.3187 0.0000 0.0000 0.0000
# 2 20.0433 64.7001 37.8591 0.0000 0.0000 0.0000
# 3 10.3187 37.8591 61.5414 0.0000 0.0000 0.0000
# 4 0.0000 0.0000 0.0000 27.3094 0.0000 0.0000
# 5 0.0000 0.0000 0.0000 0.0000 -169.9427 0.0000
# 6 0.0000 0.0000 0.0000 0.0000 0.0000 4.5476
#
#
#
# Elastic Compliance Matrix: (Units=1/GPa)
#
#
# Indices 1 2 3 4 5 6 
#
# 1 0.024566 -0.008125 0.000879 0.000000 0.000000 0.000000
# 2 -0.008125 0.026836 -0.015147 0.000000 0.000000 0.000000
# 3 0.000879 -0.015147 0.025420 0.000000 0.000000 0.000000
# 4 0.000000 0.000000 0.000000 0.036617 0.000000 0.000000
# 5 0.000000 0.000000 0.000000 0.000000 -0.005884 0.000000
# 6 0.000000 0.000000 0.000000 0.000000 0.000000 0.219895
#
#
# Mechanical properties :
#
#
# Convention : Reuss Voigt Hill
#
# Bulk Modulus (GPa) = 31.21348 34.40550 32.80949
# Shear Modulus (GPa) = 13.05778 -20.61808 -3.78015
#
# Velocity S-wave (km/s) = 2.82059 -3.54429 -1.51761
# Velocity P-wave (km/s) = 5.44289 2.05254 4.11327
#
# Compressibility (1/GPa) = 0.03203744
#
# Stress axis : x y z
#
# Youngs Moduli (GPa) = 40.70600 37.26356 39.33957
#
# Poissons Ratio (x) = 0.30276 -0.03458
# Poissons Ratio (y) = 0.33073 0.59586
# Poissons Ratio (z) = -0.03579 0.56442
#
# Static dielectric constant tensor:
#      x y z
#    x 1.597880 0.000000 0.000000 
#    y 0.000000 1.532720 0.000000 
#    z 0.000000 0.000000 1.569230 
# 
# From -- ./inp_files/19951.got.cif
#   From: 2010.05.17/outbox.cif.g08.bks.cpg/sg62_10_cif.got.tgz:19951.got - 2010.06.03 15:25:27.
