data_PCOD9461695
_publ_section_title
;
Structure prediction by ZEFSAII (Michael W. Deem and Ramdas Pophale) SiO2 
 PCOD9461695
Probable space group: P N M A
;
_chemical_formula_sum "Si O2"
_cell_formula_units_Z 64
_cell_length_a 24.132474
_cell_length_b 7.863431
_cell_length_c 19.746809
_cell_angle_alpha 90.000000
_cell_angle_beta 90.000000
_cell_angle_gamma 90.000000
_cell_volume 3747.234335
_symmetry_space_group_name_H-M "P N M A"
_symmetry_group_IT_number 62
_symmetry_cell_setting 'orthorhombic'
loop_
_space_group_symop_operation_xyz
x,y,z
1/2-x,-y,1/2+z
1/2+x,1/2-y,1/2-z
-x,1/2+y,-z
-x,-y,-z
1/2+x,y,1/2-z
1/2-x,1/2+y,1/2+z
x,1/2-y,z
loop_
_atom_site_type_symbol
_atom_site_label
_atom_site_fract_x
_atom_site_fract_y
_atom_site_fract_z
Si Si1 0.432802 0.455413 0.132592
Si Si2 0.943445 0.546892 0.650351
Si Si3 0.232183 0.547072 0.841859
Si Si4 0.744104 0.954534 0.009361
Si Si5 0.782760 0.553066 0.867935
Si Si6 0.883538 0.043955 0.511039
Si Si7 0.175527 0.446299 0.709904
Si Si8 0.157557 0.458688 0.262709
O O1 0.434917 0.250000 0.130148
O O2 0.493975 0.520474 0.150570
O O3 0.413365 0.513245 0.057960
O O4 0.385227 0.504769 0.185289
O O5 0.946851 0.750000 0.660046
O O6 0.915768 0.515398 0.577394
O O7 0.900501 0.481538 0.706827
O O8 0.230589 0.750000 0.837467
O O9 0.227503 0.494987 0.919523
O O10 0.187478 0.477095 0.788938
O O11 0.292427 0.490392 0.813174
O O12 0.741135 0.750000 0.002374
O O13 0.774923 0.022578 0.942495
O O14 0.680298 0.016176 0.011410
O O15 0.798876 0.750000 0.876600
O O16 0.722329 0.547642 0.832050
O O17 0.824767 0.480088 0.811949
O O18 0.883145 0.250000 0.511568
O O19 0.185484 0.250000 0.694176
O O20 0.157487 0.250000 0.261744
#
# Coordination Sequence:
#
# PCOD9461695 Si02
#       8
#     8   8   8   8   8   8   8   8
#     4  10  20  34  48  64  94 134 167 200 242 283
#     4  10  19  31  48  69  93 126 173 206 230 280
#     4  10  19  32  50  68  95 125 155 196 244 290
#     4  10  18  29  47  70  96 128 160 191 232 289
#     4   9  17  32  50  67  97 130 157 192 245 293
#     4  10  19  30  43  64  98 133 164 195 236 279
#     4  11  21  32  48  70  94 121 163 205 238 287
#     4   8  15  28  46  68  89 119 157 194 232 277
#
# _framework density 17.079263999999998
#
# number of rings (size 3 to 8) (size 9 to 14) (size 15 to 20)
#    0.000    2.250    2.500    2.625    0.000    1.500 
#    0.000    0.000    0.000    0.000    0.000    0.875 
#    0.000    0.000    0.000    0.000    0.000    0.000 
#
# Total GULP energy -356979.590091 kJ/mol
# GULP energy per Si atom -5577.806095 kJ/mol
# Density = 1.704039 g / cm^3
# Si number density = 17.079264 Si / 1000 Ang^3
#
#
#
# Elastic Constant Matrix: (Units=GPa)
#
#
# Indices 1 2 3 4 5 6 
#
# 1 84.5340 -7.7934 49.4973 0.0000 0.0000 0.0000
# 2 -7.7934 15.3074 -12.4019 0.0000 0.0000 0.0000
# 3 49.4973 -12.4019 116.2721 0.0000 0.0000 0.0000
# 4 0.0000 0.0000 0.0000 14.8018 0.0000 0.0000
# 5 0.0000 0.0000 0.0000 0.0000 18.5988 0.0000
# 6 0.0000 0.0000 0.0000 0.0000 0.0000 78.8732
#
#
#
# Elastic Compliance Matrix: (Units=1/GPa)
#
#
# Indices 1 2 3 4 5 6 
#
# 1 0.015870 0.002853 -0.006452 0.000000 0.000000 0.000000
# 2 0.002853 0.072020 0.006467 0.000000 0.000000 0.000000
# 3 -0.006452 0.006467 0.012037 0.000000 0.000000 0.000000
# 4 0.000000 0.000000 0.000000 0.067559 0.000000 0.000000
# 5 0.000000 0.000000 0.000000 0.000000 0.053767 0.000000
# 6 0.000000 0.000000 0.000000 0.000000 0.000000 0.012679
#
#
# Mechanical properties :
#
#
# Convention : Reuss Voigt Hill
#
# Bulk Modulus (GPa) = 9.46393 30.52417 19.99405
# Shear Modulus (GPa) = 18.98135 34.90886 26.94511
#
# Velocity S-wave (km/s) = 3.33734 4.52589 3.97627
# Velocity P-wave (km/s) = 4.51704 6.72476 5.72827
#
# Compressibility (1/GPa) = 0.10566436
#
# Stress axis : x y z
#
# Youngs Moduli (GPa) = 63.01099 13.88500 83.07828
#
# Poissons Ratio (x) = -0.03961 0.53600
# Poissons Ratio (y) = -0.17976 -0.53730
# Poissons Ratio (z) = 0.40653 -0.08980
#
# Static dielectric constant tensor:
#      x y z
#    x 1.569150 0.000000 0.000000 
#    y 0.000000 1.619300 0.000000 
#    z 0.000000 0.000000 1.587580 
# 
# From -- ./inp_files/24996.got.cif
#   From: 2010.05.17/outbox.cif.g08.bks.cpg/sg62_13_cif.got.tgz:24996.got - 2010.06.03 15:25:27.
