data_PCOD9461287
_publ_section_title
;
Structure prediction by ZEFSAII (Michael W. Deem and Ramdas Pophale) SiO2 
 PCOD9461287
Probable space group: P B C A
;
_chemical_formula_sum "Si O2"
_cell_formula_units_Z 64
_cell_length_a 9.000000
_cell_length_b 12.000000
_cell_length_c 30.000000
_cell_angle_alpha 90.000000
_cell_angle_beta 90.000000
_cell_angle_gamma 90.000000
_cell_volume 3240.000000
_symmetry_space_group_name_H-M "P B C A"
_symmetry_group_IT_number 61
_symmetry_cell_setting 'orthorhombic'
loop_
_space_group_symop_operation_xyz
x,y,z
1/2-x,-y,1/2+z
1/2+x,1/2-y,-z
-x,1/2+y,1/2-z
-x,-y,-z
1/2+x,y,1/2-z
1/2-x,1/2+y,z
x,1/2-y,1/2+z
loop_
_atom_site_type_symbol
_atom_site_label
_atom_site_fract_x
_atom_site_fract_y
_atom_site_fract_z
Si Si1 0.305722 0.571213 0.945732
Si Si2 0.176256 0.817508 0.200560
Si Si3 0.392111 0.555598 0.770808
Si Si4 0.768466 0.081972 0.143499
Si Si5 0.329675 0.574158 0.618347
Si Si6 0.883717 0.969515 0.952959
Si Si7 0.466338 0.092605 0.189656
Si Si8 0.063379 0.747016 0.418288
O O1 0.253853 0.493314 0.902827
O O2 0.487698 0.564231 0.943933
O O3 0.204854 0.684290 0.940172
O O4 0.301908 0.529963 0.998227
O O5 0.223090 0.857752 0.151581
O O6 0.160762 0.684598 0.198023
O O7 0.278859 0.874935 0.238784
O O8 0.012266 0.858549 0.211573
O O9 0.329682 0.492661 0.814990
O O10 0.476294 0.469398 0.737362
O O11 0.619529 0.132597 0.166358
O O12 0.873663 0.181838 0.125448
O O13 0.239519 0.496866 0.583982
O O14 0.416019 0.496496 0.652968
O O15 0.441884 0.659532 0.594263
O O16 0.975410 0.852009 0.945723
#
# Coordination Sequence:
#
# PCOD9461287 Si02
#       8
#     8   8   8   8   8   8   8   8
#     4  10  23  46  69 101 139 182 233 285 349 417
#     4  11  25  40  68  95 132 179 225 283 342 411
#     4  11  25  44  64  96 137 178 226 286 341 408
#     4  11  24  44  69  98 137 181 230 285 347 411
#     4  11  24  46  67 101 138 177 230 286 348 409
#     4  10  24  45  69 103 141 180 229 294 344 418
#     4  11  25  42  65 100 130 178 231 281 343 413
#     4  11  24  43  73  99 135 189 231 284 352 423
#
# _framework density 19.753086
#
# number of rings (size 3 to 8) (size 9 to 14) (size 15 to 20)
#    0.000    1.250    2.500    2.250    5.250    6.500 
#    2.250    0.000    0.000    0.000    0.000    0.000 
#    0.000    0.000    0.000    0.000    0.000    0.000 
#
# Total GULP energy -356439.360660 kJ/mol
# GULP energy per Si atom -5569.365010 kJ/mol
# Density = 1.970813 g / cm^3
# Si number density = 19.753086 Si / 1000 Ang^3
#
#
#
# Elastic Constant Matrix: (Units=GPa)
#
#
# Indices 1 2 3 4 5 6 
#
# 1 70.3067 28.8450 39.1952 0.0000 0.0000 0.0000
# 2 28.8450 77.8376 29.3217 0.0000 0.0000 0.0000
# 3 39.1952 29.3217 135.3017 0.0000 0.0000 0.0000
# 4 0.0000 0.0000 0.0000 29.4241 0.0000 0.0000
# 5 0.0000 0.0000 0.0000 0.0000 20.3054 0.0000
# 6 0.0000 0.0000 0.0000 0.0000 0.0000 14.7681
#
#
#
# Elastic Compliance Matrix: (Units=1/GPa)
#
#
# Indices 1 2 3 4 5 6 
#
# 1 0.018812 -0.005356 -0.004289 0.000000 0.000000 0.000000
# 2 -0.005356 0.015514 -0.001811 0.000000 0.000000 0.000000
# 3 -0.004289 -0.001811 0.009026 0.000000 0.000000 0.000000
# 4 0.000000 0.000000 0.000000 0.033986 0.000000 0.000000
# 5 0.000000 0.000000 0.000000 0.000000 0.049248 0.000000
# 6 0.000000 0.000000 0.000000 0.000000 0.000000 0.067714
#
#
# Mechanical properties :
#
#
# Convention : Reuss Voigt Hill
#
# Bulk Modulus (GPa) = 48.92086 53.12997 51.02541
# Shear Modulus (GPa) = 22.31917 25.30512 23.81215
#
# Velocity S-wave (km/s) = 3.36506 3.58309 3.47578
# Velocity P-wave (km/s) = 6.31808 6.63879 6.48042
#
# Compressibility (1/GPa) = 0.02044118
#
# Stress axis : x y z
#
# Youngs Moduli (GPa) = 53.15858 64.45791 110.79450
#
# Poissons Ratio (x) = 0.34521 0.47518
# Poissons Ratio (y) = 0.28469 0.20061
# Poissons Ratio (z) = 0.22799 0.11671
#
# Static dielectric constant tensor:
#      x y z
#    x 1.742970 0.000000 0.000000 
#    y 0.000000 1.730110 0.000000 
#    z 0.000000 0.000000 1.684650 
# 
# From -- ./inp_files/11744.got.cif
#   From: 2010.05.17/outbox.ucp.g08.bks.cvg/sg61_6_cif.got.tgz:11744.got - 2010.06.11 16:28:26.
