data_PCOD9461501
_publ_section_title
;
Structure prediction by ZEFSAII (Michael W. Deem and Ramdas Pophale) SiO2 
 PCOD9461501
Probable space group: P N M A
;
_chemical_formula_sum "Si O2"
_cell_formula_units_Z 60
_cell_length_a 13.975300
_cell_length_b 12.857053
_cell_length_c 13.594657
_cell_angle_alpha 90.000000
_cell_angle_beta 90.000000
_cell_angle_gamma 90.000000
_cell_volume 2442.703913
_symmetry_space_group_name_H-M "P N M A"
_symmetry_group_IT_number 62
_symmetry_cell_setting 'orthorhombic'
loop_
_space_group_symop_operation_xyz
x,y,z
1/2-x,-y,1/2+z
1/2+x,1/2-y,1/2-z
-x,1/2+y,-z
-x,-y,-z
1/2+x,y,1/2-z
1/2-x,1/2+y,1/2+z
x,1/2-y,z
loop_
_atom_site_type_symbol
_atom_site_label
_atom_site_fract_x
_atom_site_fract_y
_atom_site_fract_z
Si Si1 0.095865 0.133903 0.312469
Si Si2 0.095232 0.130955 0.092542
Si Si3 0.741601 0.750000 0.139394
Si Si4 0.412937 0.415953 0.914651
Si Si5 0.911865 0.921392 0.112282
Si Si6 0.588795 0.136091 0.812884
Si Si7 0.702050 0.867269 0.603841
Si Si8 0.282434 0.505998 0.071971
O O1 0.068222 0.250000 0.348723
O O2 0.055430 0.121913 0.202346
O O3 0.212594 0.132809 0.315472
O O4 0.070612 0.032183 0.373557
O O5 0.127048 0.250000 0.085281
O O6 0.185865 0.055497 0.088913
O O7 0.039013 0.104372 0.991949
O O8 0.657864 0.841867 0.146299
O O9 0.821707 0.842503 0.116700
O O10 0.517561 0.367178 0.904733
O O11 0.359471 0.431514 0.018187
O O12 0.966297 0.891552 0.212294
O O13 0.871001 0.038054 0.118026
O O14 0.633602 0.250000 0.802736
O O15 0.671176 0.053719 0.831676
O O16 0.661890 0.750000 0.599064
O O17 0.756842 0.899632 0.502740
#
# Coordination Sequence:
#
# PCOD9461501 Si02
#       8
#     8   8   4   8   8   8   8   8
#     4   9  18  32  56  78 102 141 189 227 270 322
#     4  10  17  32  58  86 105 139 192 240 270 313
#     4  12  18  38  60  78 112 148 186 234 270 330
#     4  11  22  39  54  82 117 151 181 223 288 336
#     4  11  20  35  57  82 111 143 188 236 274 318
#     4  12  24  36  54  84 117 150 182 227 285 339
#     4   9  17  33  52  78 109 140 183 230 271 317
#     4  10  20  33  55  81 115 146 181 224 277 338
#
# _framework density 24.562944000000002
#
# number of rings (size 3 to 8) (size 9 to 14) (size 15 to 20)
#    0.000    1.600    6.000    1.600    0.000    0.533 
#    0.000    2.000    0.000    0.000    0.000    0.000 
#    0.000    0.000    0.000    0.000    0.000    0.000 
#
# Total GULP energy -334104.720527 kJ/mol
# GULP energy per Si atom -5568.412009 kJ/mol
# Density = 2.450704 g / cm^3
# Si number density = 24.562944 Si / 1000 Ang^3
#
#
#
# Elastic Constant Matrix: (Units=GPa)
#
#
# Indices 1 2 3 4 5 6 
#
# 1 36.0832 22.7873 -3.4955 0.0000 0.0000 0.0000
# 2 22.7873 162.5529 21.3165 0.0000 0.0000 0.0000
# 3 -3.4955 21.3165 63.5469 0.0000 0.0000 0.0000
# 4 0.0000 0.0000 0.0000 57.0257 0.0000 0.0000
# 5 0.0000 0.0000 0.0000 0.0000 10.3688 0.0000
# 6 0.0000 0.0000 0.0000 0.0000 0.0000 45.7852
#
#
#
# Elastic Compliance Matrix: (Units=1/GPa)
#
#
# Indices 1 2 3 4 5 6 
#
# 1 0.031059 -0.004789 0.003315 0.000000 0.000000 0.000000
# 2 -0.004789 0.007173 -0.002670 0.000000 0.000000 0.000000
# 3 0.003315 -0.002670 0.016814 0.000000 0.000000 0.000000
# 4 0.000000 0.000000 0.000000 0.017536 0.000000 0.000000
# 5 0.000000 0.000000 0.000000 0.000000 0.096443 0.000000
# 6 0.000000 0.000000 0.000000 0.000000 0.000000 0.021841
#
#
# Mechanical properties :
#
#
# Convention : Reuss Voigt Hill
#
# Bulk Modulus (GPa) = 21.38607 38.15551 29.77079
# Shear Modulus (GPa) = 23.28398 37.40758 30.34578
#
# Velocity S-wave (km/s) = 3.08219 3.90670 3.51868
# Velocity P-wave (km/s) = 4.62516 5.99310 5.35301
#
# Compressibility (1/GPa) = 0.04675941
#
# Stress axis : x y z
#
# Youngs Moduli (GPa) = 32.19682 139.40741 59.47334
#
# Poissons Ratio (x) = 0.66757 -0.19714
# Poissons Ratio (y) = 0.15418 0.15877
# Poissons Ratio (z) = -0.10672 0.37217
#
# Static dielectric constant tensor:
#      x y z
#    x 1.937320 0.000000 0.000000 
#    y 0.000000 1.914310 0.000000 
#    z 0.000000 0.000000 2.081460 
# 
# From -- ./inp_files/19860.got.cif
#   From: 2010.05.17/outbox.cif.g08.bks.cpg/sg62_10_cif.got.tgz:19860.got - 2010.06.03 15:25:27.
