data_PCOD9461141
_publ_section_title
;
Structure prediction by ZEFSAII (Michael W. Deem and Ramdas Pophale) SiO2 
 PCOD9461141
Probable space group: P B C A
;
_chemical_formula_sum "Si O2"
_cell_formula_units_Z 64
_cell_length_a 12.044746
_cell_length_b 13.990312
_cell_length_c 17.714526
_cell_angle_alpha 90.000000
_cell_angle_beta 90.000000
_cell_angle_gamma 90.000000
_cell_volume 2985.070427
_symmetry_space_group_name_H-M "P B C A"
_symmetry_group_IT_number 61
_symmetry_cell_setting 'orthorhombic'
loop_
_space_group_symop_operation_xyz
x,y,z
1/2-x,-y,1/2+z
1/2+x,1/2-y,-z
-x,1/2+y,1/2-z
-x,-y,-z
1/2+x,y,1/2-z
1/2-x,1/2+y,z
x,1/2-y,1/2+z
loop_
_atom_site_type_symbol
_atom_site_label
_atom_site_fract_x
_atom_site_fract_y
_atom_site_fract_z
Si Si1 0.404366 0.915043 0.133333
Si Si2 0.607910 0.946864 0.240044
Si Si3 0.921637 0.840975 0.536549
Si Si4 0.831645 0.114355 0.407657
Si Si5 0.124743 0.120095 0.990325
Si Si6 0.970816 0.464012 0.621724
Si Si7 0.249339 0.732110 0.714577
Si Si8 0.256354 0.610542 0.334269
O O1 0.520083 0.938604 0.172422
O O2 0.347446 0.831335 0.180628
O O3 0.329347 0.010327 0.130901
O O4 0.416516 0.882334 0.047419
O O5 0.655721 0.843766 0.261678
O O6 0.544092 0.992965 0.311119
O O7 0.703779 0.017403 0.211015
O O8 0.904825 0.727305 0.532723
O O9 0.823722 0.883654 0.587889
O O10 0.041376 0.866208 0.570318
O O11 0.750950 0.114905 0.480117
O O12 0.792081 0.195382 0.349850
O O13 0.049529 0.088661 0.061770
O O14 0.094174 0.047746 0.923250
O O15 0.875205 0.394981 0.653041
O O16 0.284893 0.796307 0.785184
#
# Coordination Sequence:
#
# PCOD9461141 Si02
#       8
#     8   8   8   8   8   8   8   8
#     4  12  27  48  71 106 146 201 245 309 371 448
#     4  12  27  47  76 108 151 198 244 311 379 441
#     4  12  28  46  74 110 147 198 254 302 374 456
#     4  12  25  49  75 106 151 192 247 313 375 448
#     4  11  26  46  80 106 150 197 246 312 377 454
#     4  11  26  50  74 111 152 191 251 309 380 448
#     4  12  27  45  76 108 147 191 249 308 377 448
#     4  12  29  47  77 111 150 196 249 312 371 453
#
# _framework density 21.44003
#
# number of rings (size 3 to 8) (size 9 to 14) (size 15 to 20)
#    0.000    0.250    2.500    5.625   10.500    2.000 
#    0.000    0.000    0.000    0.000    0.000    0.000 
#    0.000    0.000    0.000    0.000    0.000    0.000 
#
# Total GULP energy -358714.327714 kJ/mol
# GULP energy per Si atom -5604.911371 kJ/mol
# Density = 2.139123 g / cm^3
# Si number density = 21.440030 Si / 1000 Ang^3
#
#
#
# Elastic Constant Matrix: (Units=GPa)
#
#
# Indices 1 2 3 4 5 6 
#
# 1 46.7021 -13.6185 -6.2394 0.0000 0.0000 0.0000
# 2 -13.6185 79.2267 7.3085 0.0000 0.0000 0.0000
# 3 -6.2394 7.3085 70.2124 0.0000 0.0000 0.0000
# 4 0.0000 0.0000 0.0000 5.8482 0.0000 0.0000
# 5 0.0000 0.0000 0.0000 0.0000 37.5924 0.0000
# 6 0.0000 0.0000 0.0000 0.0000 0.0000 2.3839
#
#
#
# Elastic Compliance Matrix: (Units=1/GPa)
#
#
# Indices 1 2 3 4 5 6 
#
# 1 0.022725 0.003756 0.001628 0.000000 0.000000 0.000000
# 2 0.003756 0.013365 -0.001057 0.000000 0.000000 0.000000
# 3 0.001628 -0.001057 0.014497 0.000000 0.000000 0.000000
# 4 0.000000 0.000000 0.000000 0.170993 0.000000 0.000000
# 5 0.000000 0.000000 0.000000 0.000000 0.026601 0.000000
# 6 0.000000 0.000000 0.000000 0.000000 0.000000 0.419475
#
#
# Mechanical properties :
#
#
# Convention : Reuss Voigt Hill
#
# Bulk Modulus (GPa) = 16.87995 19.00472 17.94233
# Shear Modulus (GPa) = 7.36648 23.07761 15.22205
#
# Velocity S-wave (km/s) = 1.85562 3.28438 2.66744
# Velocity P-wave (km/s) = 3.53288 4.82351 4.22774
#
# Compressibility (1/GPa) = 0.05924189
#
# Stress axis : x y z
#
# Youngs Moduli (GPa) = 44.00411 74.82124 68.97847
#
# Poissons Ratio (x) = -0.28103 -0.11233
# Poissons Ratio (y) = -0.16528 0.07294
# Poissons Ratio (z) = -0.07166 0.07912
#
# Static dielectric constant tensor:
#      x y z
#    x 1.685420 0.000000 0.000000 
#    y 0.000000 1.743360 0.000000 
#    z 0.000000 0.000000 1.752850 
# 
# From -- ./inp_files/9309.got.cif
#   From: 2010.05.17/outbox.cif.g08.bks.cpg/sg61_5_cif.got.tgz:9309.got - 2010.06.03 15:17:17.
