data_PCOD9461868
_publ_section_title
;
Structure prediction by ZEFSAII (Michael W. Deem and Ramdas Pophale) SiO2 
 PCOD9461868
Probable space group: P N M A
;
_chemical_formula_sum "Si O2"
_cell_formula_units_Z 64
_cell_length_a 19.704112
_cell_length_b 8.602946
_cell_length_c 23.849247
_cell_angle_alpha 90.000000
_cell_angle_beta 90.000000
_cell_angle_gamma 90.000000
_cell_volume 4042.767221
_symmetry_space_group_name_H-M "P N M A"
_symmetry_group_IT_number 62
_symmetry_cell_setting 'orthorhombic'
loop_
_space_group_symop_operation_xyz
x,y,z
1/2-x,-y,1/2+z
1/2+x,1/2-y,1/2-z
-x,1/2+y,-z
-x,-y,-z
1/2+x,y,1/2-z
1/2-x,1/2+y,1/2+z
x,1/2-y,z
loop_
_atom_site_type_symbol
_atom_site_label
_atom_site_fract_x
_atom_site_fract_y
_atom_site_fract_z
Si Si1 0.276934 0.436259 0.336969
Si Si2 0.139860 0.563484 0.726000
Si Si3 0.497607 0.062814 0.748846
Si Si4 0.998204 0.439097 0.880859
Si Si5 0.356441 0.436564 0.562723
Si Si6 0.361020 0.936452 0.438114
Si Si7 0.347548 0.436644 0.772069
Si Si8 0.272401 0.563307 0.662744
O O1 0.278180 0.250000 0.340286
O O2 0.327090 0.484842 0.285789
O O3 0.304644 0.508844 0.393894
O O4 0.202653 0.491792 0.318026
O O5 0.135261 0.750000 0.726420
O O6 0.195335 0.518956 0.679226
O O7 0.065273 0.494888 0.721134
O O8 0.498456 0.250000 0.747757
O O9 0.499164 0.008473 0.683810
O O10 0.426074 0.014554 0.775742
O O11 0.998266 0.250000 0.880125
O O12 0.929395 0.488186 0.911891
O O13 0.065861 0.489126 0.913388
O O14 0.354308 0.250000 0.564470
O O15 0.350205 0.494456 0.499456
O O16 0.298924 0.503607 0.603546
O O17 0.361438 0.750000 0.441190
O O18 0.343734 0.250000 0.774475
O O19 0.319464 0.491396 0.711590
O O20 0.277408 0.750000 0.665878
#
# Coordination Sequence:
#
# PCOD9461868 Si02
#       8
#     8   8   8   8   8   8   8   8
#     4  10  20  34  49  71  99 130 168 209 248 293
#     4   9  19  32  48  71  99 127 161 205 250 292
#     4  10  18  31  50  74 100 130 167 202 243 298
#     4   9  18  32  47  69 100 134 172 207 239 287
#     4  11  21  35  51  70  99 134 173 211 248 290
#     4  11  21  34  51  71  98 135 174 209 249 291
#     4  10  19  32  51  73  99 130 163 205 252 296
#     4  10  20  34  49  71  99 129 168 209 248 295
#
# _framework density 15.83074
#
# number of rings (size 3 to 8) (size 9 to 14) (size 15 to 20)
#    0.000    2.000    2.500    3.000    0.000    3.500 
#    0.000    1.875    0.000    0.000    0.000    0.875 
#    0.000    0.000    0.000    0.000    0.000    0.000 
#
# Total GULP energy -357145.113785 kJ/mol
# GULP energy per Si atom -5580.392403 kJ/mol
# Density = 1.579471 g / cm^3
# Si number density = 15.830740 Si / 1000 Ang^3
#
#
#
# Elastic Constant Matrix: (Units=GPa)
#
#
# Indices 1 2 3 4 5 6 
#
# 1 134.1791 18.6559 51.9263 0.0000 0.0000 0.0000
# 2 18.6559 25.6391 9.4595 0.0000 0.0000 0.0000
# 3 51.9263 9.4595 77.5251 0.0000 0.0000 0.0000
# 4 0.0000 0.0000 0.0000 23.9553 0.0000 0.0000
# 5 0.0000 0.0000 0.0000 0.0000 20.4918 0.0000
# 6 0.0000 0.0000 0.0000 0.0000 0.0000 14.4350
#
#
#
# Elastic Compliance Matrix: (Units=1/GPa)
#
#
# Indices 1 2 3 4 5 6 
#
# 1 0.010730 -0.005399 -0.006528 0.000000 0.000000 0.000000
# 2 -0.005399 0.043558 -0.001699 0.000000 0.000000 0.000000
# 3 -0.006528 -0.001699 0.017479 0.000000 0.000000 0.000000
# 4 0.000000 0.000000 0.000000 0.041744 0.000000 0.000000
# 5 0.000000 0.000000 0.000000 0.000000 0.048800 0.000000
# 6 0.000000 0.000000 0.000000 0.000000 0.000000 0.069276
#
#
# Mechanical properties :
#
#
# Convention : Reuss Voigt Hill
#
# Bulk Modulus (GPa) = 22.46413 44.15852 33.31132
# Shear Modulus (GPa) = 18.26976 22.26321 20.26648
#
# Velocity S-wave (km/s) = 3.40084 3.75417 3.58187
# Velocity P-wave (km/s) = 5.44445 6.83714 6.18015
#
# Compressibility (1/GPa) = 0.04451542
#
# Stress axis : x y z
#
# Youngs Moduli (GPa) = 93.19996 22.95786 57.21236
#
# Poissons Ratio (x) = 0.12394 0.37348
# Poissons Ratio (y) = 0.50317 0.09719
# Poissons Ratio (z) = 0.60840 0.03900
#
# Static dielectric constant tensor:
#      x y z
#    x 1.534300 0.000000 0.000000 
#    y 0.000000 1.535200 0.000000 
#    z 0.000000 0.000000 1.501320 
# 
# From -- ./inp_files/27662.got.cif
#   From: 2010.05.17/outbox.cif.g08.bks.cpg/sg62_14_cif.got.tgz:27662.got - 2010.06.03 15:25:27.
