data_PCOD9461502
_publ_section_title
;
Structure prediction by ZEFSAII (Michael W. Deem and Ramdas Pophale) SiO2 
 PCOD9461502
Probable space group: P N M A
;
_chemical_formula_sum "Si O2"
_cell_formula_units_Z 64
_cell_length_a 24.504117
_cell_length_b 7.843549
_cell_length_c 16.062320
_cell_angle_alpha 90.000000
_cell_angle_beta 90.000000
_cell_angle_gamma 90.000000
_cell_volume 3087.165735
_symmetry_space_group_name_H-M "P N M A"
_symmetry_group_IT_number 62
_symmetry_cell_setting 'orthorhombic'
loop_
_space_group_symop_operation_xyz
x,y,z
1/2-x,-y,1/2+z
1/2+x,1/2-y,1/2-z
-x,1/2+y,-z
-x,-y,-z
1/2+x,y,1/2-z
1/2-x,1/2+y,1/2+z
x,1/2-y,z
loop_
_atom_site_type_symbol
_atom_site_label
_atom_site_fract_x
_atom_site_fract_y
_atom_site_fract_z
Si Si1 0.117275 0.454370 0.406357
Si Si2 0.882312 0.452551 0.410157
Si Si3 0.684591 0.045762 0.252212
Si Si4 0.810847 0.546934 0.250792
Si Si5 0.497468 0.455955 0.343487
Si Si6 0.500667 0.958268 0.850972
Si Si7 0.114944 0.040782 0.090150
Si Si8 0.121229 0.047681 0.905903
O O1 0.115212 0.250000 0.398468
O O2 0.137210 0.493661 0.498807
O O3 0.155145 0.520018 0.331465
O O4 0.055157 0.518003 0.393730
O O5 0.886203 0.250000 0.410179
O O6 0.843116 0.501311 0.334574
O O7 0.943480 0.521326 0.392561
O O8 0.677433 0.250000 0.252336
O O9 0.653961 0.982700 0.335096
O O10 0.748492 0.010118 0.253071
O O11 0.811303 0.750000 0.244661
O O12 0.842896 0.475692 0.169976
O O13 0.495580 0.250000 0.345746
O O14 0.499754 0.506405 0.246369
O O15 0.552856 0.510736 0.389027
O O16 0.442308 0.522470 0.384424
O O17 0.500908 0.750000 0.853703
O O18 0.115429 0.250000 0.089539
O O19 0.131972 0.980107 0.998600
O O20 0.131734 0.250000 0.909024
#
# Coordination Sequence:
#
# PCOD9461502 Si02
#       8
#     8   8   8   8   8   8   8   8
#     4  10  20  37  60  87 118 150 187 233 288 343
#     4  11  22  37  59  86 115 150 193 235 282 343
#     4  10  21  39  62  83 108 150 196 234 278 340
#     4  11  24  40  56  79 115 153 191 242 289 330
#     4  10  17  32  59  86 114 147 185 224 270 337
#     4   9  17  32  57  86 115 148 185 228 279 341
#     4   9  18  35  60  86 112 147 185 224 277 340
#     4  10  21  36  55  83 116 147 181 226 284 335
#
# _framework density 20.730989999999998
#
# number of rings (size 3 to 8) (size 9 to 14) (size 15 to 20)
#    0.000    2.000    2.500    1.500    0.000    2.000 
#    0.000    3.750    0.000    0.000    0.000    0.000 
#    0.000    0.000    0.000    0.000    0.000    0.000 
#
# Total GULP energy -357534.534011 kJ/mol
# GULP energy per Si atom -5586.477094 kJ/mol
# Density = 2.068381 g / cm^3
# Si number density = 20.730990 Si / 1000 Ang^3
#
#
#
# Elastic Constant Matrix: (Units=GPa)
#
#
# Indices 1 2 3 4 5 6 
#
# 1 152.1023 -2.0354 96.0419 0.0000 0.0000 0.0000
# 2 -2.0354 23.3752 5.7345 0.0000 0.0000 0.0000
# 3 96.0419 5.7345 213.5405 0.0000 0.0000 0.0000
# 4 0.0000 0.0000 0.0000 6.4005 0.0000 0.0000
# 5 0.0000 0.0000 0.0000 0.0000 3.9814 0.0000
# 6 0.0000 0.0000 0.0000 0.0000 0.0000 55.7470
#
#
#
# Elastic Compliance Matrix: (Units=1/GPa)
#
#
# Indices 1 2 3 4 5 6 
#
# 1 0.009260 0.001840 -0.004214 0.000000 0.000000 0.000000
# 2 0.001840 0.043430 -0.001994 0.000000 0.000000 0.000000
# 3 -0.004214 -0.001994 0.006632 0.000000 0.000000 0.000000
# 4 0.000000 0.000000 0.000000 0.156238 0.000000 0.000000
# 5 0.000000 0.000000 0.000000 0.000000 0.251166 0.000000
# 6 0.000000 0.000000 0.000000 0.000000 0.000000 0.017938
#
#
# Mechanical properties :
#
#
# Convention : Reuss Voigt Hill
#
# Bulk Modulus (GPa) = 19.76838 65.38888 42.57863
# Shear Modulus (GPa) = 9.79889 32.51094 21.15492
#
# Velocity S-wave (km/s) = 2.17645 3.96438 3.19791
# Velocity P-wave (km/s) = 3.98401 7.25019 5.84968
#
# Compressibility (1/GPa) = 0.05058585
#
# Stress axis : x y z
#
# Youngs Moduli (GPa) = 107.98960 23.02569 150.78639
#
# Poissons Ratio (x) = -0.04237 0.63545
# Poissons Ratio (y) = -0.19872 0.30066
# Poissons Ratio (z) = 0.45510 0.04591
#
# Static dielectric constant tensor:
#      x y z
#    x 1.660790 0.000000 0.000000 
#    y 0.000000 1.734600 0.000000 
#    z 0.000000 0.000000 1.742720 
# 
# From -- ./inp_files/20843.got.cif
#   From: 2010.05.17/outbox.cif.g08.bks.cpg/sg62_11_cif.got.tgz:20843.got - 2010.06.03 15:25:27.
