data_PCOD9461173
_publ_section_title
;
Structure prediction by ZEFSAII (Michael W. Deem and Ramdas Pophale) SiO2 
 PCOD9461173
Probable space group: P B C A
;
_chemical_formula_sum "Si O2"
_cell_formula_units_Z 48
_cell_length_a 9.784575
_cell_length_b 8.638233
_cell_length_c 23.911407
_cell_angle_alpha 90.000000
_cell_angle_beta 90.000000
_cell_angle_gamma 90.000000
_cell_volume 2021.026520
_symmetry_space_group_name_H-M "P B C A"
_symmetry_group_IT_number 61
_symmetry_cell_setting 'orthorhombic'
loop_
_space_group_symop_operation_xyz
x,y,z
1/2-x,-y,1/2+z
1/2+x,1/2-y,-z
-x,1/2+y,1/2-z
-x,-y,-z
1/2+x,y,1/2-z
1/2-x,1/2+y,z
x,1/2-y,1/2+z
loop_
_atom_site_type_symbol
_atom_site_label
_atom_site_fract_x
_atom_site_fract_y
_atom_site_fract_z
Si Si1 0.867292 0.451412 0.093584
Si Si2 0.919438 0.398046 0.380832
Si Si3 0.629861 0.255163 0.901726
Si Si4 0.812275 0.492651 0.218673
Si Si5 0.873760 0.773000 0.034447
Si Si6 0.447294 0.685935 0.765693
O O1 0.800461 0.507350 0.151749
O O2 0.892550 0.596288 0.053422
O O3 0.764319 0.336195 0.062588
O O4 0.008239 0.365940 0.107217
O O5 0.900687 0.580886 0.373368
O O6 0.772988 0.316262 0.382838
O O7 0.001058 0.366367 0.438144
O O8 0.006654 0.327125 0.330305
O O9 0.635646 0.285678 0.968280
O O10 0.877749 0.648519 0.242574
O O11 0.668099 0.444085 0.244411
O O12 0.918518 0.353866 0.230838
#
# Coordination Sequence:
#
# PCOD9461173 Si02
#       6
#     8   8   8   8   8   8
#     4  12  24  44  75 101 150 185 240 299 359 426
#     4  12  26  46  69 107 147 189 239 303 352 428
#     4  12  27  42  73 106 149 194 244 287 356 426
#     4  12  27  50  75 110 135 193 232 305 359 434
#     4  12  23  47  71 107 144 196 240 295 356 427
#     4  12  29  49  81 104 148 180 247 292 373 423
#
# _framework density 23.750308
#
# number of rings (size 3 to 8) (size 9 to 14) (size 15 to 20)
#    0.000    0.000    3.333    6.000    7.000    0.000 
#    0.000    0.000    0.000    0.000    0.000    0.000 
#    0.000    0.000    0.000    0.000    0.000    0.000 
#
# Total GULP energy -269413.115812 kJ/mol
# GULP energy per Si atom -5612.773246 kJ/mol
# Density = 2.369625 g / cm^3
# Si number density = 23.750308 Si / 1000 Ang^3
#
#
#
# Elastic Constant Matrix: (Units=GPa)
#
#
# Indices 1 2 3 4 5 6 
#
# 1 126.9278 35.7010 -20.6007 0.0000 0.0000 0.0000
# 2 35.7010 106.4623 0.6471 0.0000 0.0000 0.0000
# 3 -20.6007 0.6471 74.2072 0.0000 0.0000 0.0000
# 4 0.0000 0.0000 0.0000 22.8214 0.0000 0.0000
# 5 0.0000 0.0000 0.0000 0.0000 32.2106 0.0000
# 6 0.0000 0.0000 0.0000 0.0000 0.0000 69.7964
#
#
#
# Elastic Compliance Matrix: (Units=1/GPa)
#
#
# Indices 1 2 3 4 5 6 
#
# 1 0.009165 -0.003089 0.002571 0.000000 0.000000 0.000000
# 2 -0.003089 0.010435 -0.000948 0.000000 0.000000 0.000000
# 3 0.002571 -0.000948 0.014198 0.000000 0.000000 0.000000
# 4 0.000000 0.000000 0.000000 0.043819 0.000000 0.000000
# 5 0.000000 0.000000 0.000000 0.000000 0.031046 0.000000
# 6 0.000000 0.000000 0.000000 0.000000 0.000000 0.014327
#
#
# Mechanical properties :
#
#
# Convention : Reuss Voigt Hill
#
# Bulk Modulus (GPa) = 32.39966 37.67689 35.03828
# Shear Modulus (GPa) = 36.70819 44.42233 40.56526
#
# Velocity S-wave (km/s) = 3.93566 4.32949 4.13727
# Velocity P-wave (km/s) = 5.85867 6.39460 6.13249
#
# Compressibility (1/GPa) = 0.03086452
#
# Stress axis : x y z
#
# Youngs Moduli (GPa) = 109.11543 95.83514 70.43334
#
# Poissons Ratio (x) = 0.29602 -0.18109
# Poissons Ratio (y) = 0.33704 0.06681
# Poissons Ratio (z) = -0.28055 0.09090
#
# Static dielectric constant tensor:
#      x y z
#    x 1.841020 0.000000 0.000000 
#    y 0.000000 1.865790 0.000000 
#    z 0.000000 0.000000 1.889920 
# 
# From -- ./inp_files/11674.got.cif
#   From: 2010.05.17/outbox.cif.g08.bks.cpg/sg61_6_cif.got.tgz:11674.got - 2010.06.03 15:17:17.
