data_PCOD9461008
_publ_section_title
;
Structure prediction by ZEFSAII (Michael W. Deem and Ramdas Pophale) SiO2 
 PCOD9461008
Probable space group: P B C A
;
_chemical_formula_sum "Si O2"
_cell_formula_units_Z 44
_cell_length_a 14.386501
_cell_length_b 8.237016
_cell_length_c 13.702681
_cell_angle_alpha 90.000000
_cell_angle_beta 90.000000
_cell_angle_gamma 90.000000
_cell_volume 1623.792897
_symmetry_space_group_name_H-M "P B C A"
_symmetry_group_IT_number 61
_symmetry_cell_setting 'orthorhombic'
loop_
_space_group_symop_operation_xyz
x,y,z
1/2-x,-y,1/2+z
1/2+x,1/2-y,-z
-x,1/2+y,1/2-z
-x,-y,-z
1/2+x,y,1/2-z
1/2-x,1/2+y,z
x,1/2-y,1/2+z
loop_
_atom_site_type_symbol
_atom_site_label
_atom_site_fract_x
_atom_site_fract_y
_atom_site_fract_z
Si Si1 0.659416 0.329774 0.996946
Si Si2 0.557976 0.046498 0.326501
Si Si3 0.902748 0.290180 0.173551
Si Si4 0.812720 0.812736 0.218491
Si Si5 0.000000 0.000000 0.500000
Si Si6 0.157856 0.524515 0.094759
O O1 0.597820 0.453100 0.935442
O O2 0.688510 0.048695 0.802045
O O3 0.762749 0.368188 0.954975
O O4 0.650294 0.349520 0.110985
O O5 0.628475 0.168944 0.268325
O O6 0.444663 0.094690 0.090787
O O7 0.560715 0.883723 0.268077
O O8 0.793572 0.269704 0.190939
O O9 0.934644 0.394696 0.080299
O O10 0.958275 0.125403 0.168785
O O11 0.131826 0.141932 0.530247
#
# Coordination Sequence:
#
# PCOD9461008 Si02
#       6
#     8   8   8   8   4   8
#     4  11  23  45  70 108 142 193 247 300 369 444
#     4  11  27  47  70 114 148 194 253 311 374 451
#     4  12  25  47  77 103 152 199 247 309 377 446
#     4  11  24  44  77 105 146 199 245 305 375 453
#     4  12  22  46  74 106 138 202 240 308 378 442
#     4  11  24  44  77 104 150 193 245 303 378 445
#
# _framework density 27.097049999999999
#
# number of rings (size 3 to 8) (size 9 to 14) (size 15 to 20)
#    0.000    0.727    7.273    1.091    0.000    4.364 
#    0.000    0.909    0.000    0.000    0.000    0.000 
#    0.000    0.000    0.000    0.000    0.000    0.000 
#
# Total GULP energy -245992.811484 kJ/mol
# GULP energy per Si atom -5590.745716 kJ/mol
# Density = 2.703538 g / cm^3
# Si number density = 27.097050 Si / 1000 Ang^3
#
#
#
# Elastic Constant Matrix: (Units=GPa)
#
#
# Indices 1 2 3 4 5 6 
#
# 1 131.1297 16.3698 61.8065 0.0000 0.0000 0.0000
# 2 16.3698 72.6979 45.3149 0.0000 0.0000 0.0000
# 3 61.8065 45.3149 192.7178 0.0000 0.0000 0.0000
# 4 0.0000 0.0000 0.0000 36.8921 0.0000 0.0000
# 5 0.0000 0.0000 0.0000 0.0000 25.6126 0.0000
# 6 0.0000 0.0000 0.0000 0.0000 0.0000 8.1887
#
#
#
# Elastic Compliance Matrix: (Units=1/GPa)
#
#
# Indices 1 2 3 4 5 6 
#
# 1 0.008988 -0.000266 -0.002820 0.000000 0.000000 0.000000
# 2 -0.000266 0.016126 -0.003706 0.000000 0.000000 0.000000
# 3 -0.002820 -0.003706 0.006965 0.000000 0.000000 0.000000
# 4 0.000000 0.000000 0.000000 0.027106 0.000000 0.000000
# 5 0.000000 0.000000 0.000000 0.000000 0.039043 0.000000
# 6 0.000000 0.000000 0.000000 0.000000 0.000000 0.122119
#
#
# Mechanical properties :
#
#
# Convention : Reuss Voigt Hill
#
# Bulk Modulus (GPa) = 54.07195 71.50309 62.78752
# Shear Modulus (GPa) = 20.82487 32.34230 26.58358
#
# Velocity S-wave (km/s) = 2.77524 3.45856 3.13557
# Velocity P-wave (km/s) = 5.50159 6.51106 6.02750
#
# Compressibility (1/GPa) = 0.01849388
#
# Stress axis : x y z
#
# Youngs Moduli (GPa) = 111.25337 62.01239 143.57736
#
# Poissons Ratio (x) = 0.01650 0.40491
# Poissons Ratio (y) = 0.02961 0.53216
# Poissons Ratio (z) = 0.31375 0.22984
#
# Static dielectric constant tensor:
#      x y z
#    x 1.924930 0.000000 0.000000 
#    y 0.000000 2.001540 0.000000 
#    z 0.000000 0.000000 2.112180 
# 
# From -- ./inp_files/6125.got.cif
#   From: 2010.05.17/outbox.cif.g08.bks.cpg/sg61_4_cif.got.tgz:6125.got - 2010.06.03 15:17:17.
