data_PCOD9461513
_publ_section_title
;
Structure prediction by ZEFSAII (Michael W. Deem and Ramdas Pophale) SiO2 
 PCOD9461513
Probable space group: P N M A
;
_chemical_formula_sum "Si O2"
_cell_formula_units_Z 64
_cell_length_a 31.638640
_cell_length_b 7.644880
_cell_length_c 12.131810
_cell_angle_alpha 90.000000
_cell_angle_beta 90.000000
_cell_angle_gamma 90.000000
_cell_volume 2934.364634
_symmetry_space_group_name_H-M "P N M A"
_symmetry_group_IT_number 62
_symmetry_cell_setting 'orthorhombic'
loop_
_space_group_symop_operation_xyz
x,y,z
1/2-x,-y,1/2+z
1/2+x,1/2-y,1/2-z
-x,1/2+y,-z
-x,-y,-z
1/2+x,y,1/2-z
1/2-x,1/2+y,1/2+z
x,1/2-y,z
loop_
_atom_site_type_symbol
_atom_site_label
_atom_site_fract_x
_atom_site_fract_y
_atom_site_fract_z
Si Si1 0.691543 0.045859 0.740986
Si Si2 0.120830 0.952950 0.926015
Si Si3 0.430325 0.539275 0.019361
Si Si4 0.043315 0.034856 0.284895
Si Si5 0.833733 0.962772 0.481285
Si Si6 0.287947 0.537727 0.799966
Si Si7 0.870324 0.952346 0.824674
Si Si8 0.953555 0.456085 0.230637
O O1 0.680036 0.250000 0.739303
O O2 0.678687 0.973388 0.860463
O O3 0.663652 0.962687 0.644996
O O4 0.741473 0.028223 0.726522
O O5 0.111990 0.750000 0.949499
O O6 0.082844 0.027370 0.849725
O O7 0.126085 0.040642 0.044128
O O8 0.432331 0.750000 0.024021
O O9 0.381910 0.488595 0.993847
O O10 0.441325 0.474318 0.140812
O O11 0.457445 0.481661 0.913743
O O12 0.042830 0.250000 0.282991
O O13 0.086960 0.973947 0.229763
O O14 0.001201 0.973094 0.222808
O O15 0.832297 0.750000 0.479683
O O16 0.802629 0.017815 0.578161
O O17 0.285542 0.750000 0.795985
O O18 0.325563 0.476232 0.718678
O O19 0.869793 0.750000 0.787806
O O20 0.955456 0.250000 0.206894
#
# Coordination Sequence:
#
# PCOD9461513 Si02
#       8
#     8   8   8   8   8   8   8   8
#     4  11  23  39  60  87 115 148 191 232 277 344
#     4  11  24  40  56  79 117 156 191 238 290 329
#     4  10  17  33  60  86 113 147 185 228 279 339
#     4   9  18  35  60  86 114 149 189 231 283 342
#     4   9  18  35  60  85 112 145 183 227 279 337
#     4  10  21  39  61  87 116 147 184 234 290 338
#     4  10  21  39  62  84 111 151 197 236 280 343
#     4  10  21  36  55  84 118 151 187 233 285 335
#
# _framework density 21.810514000000001
#
# number of rings (size 3 to 8) (size 9 to 14) (size 15 to 20)
#    0.000    2.000    2.500    1.125    1.750    1.500 
#    0.000    2.500    0.000    0.000    0.000    0.000 
#    0.000    0.000    0.000    0.000    0.000    0.000 
#
# Total GULP energy -357497.839293 kJ/mol
# GULP energy per Si atom -5585.903739 kJ/mol
# Density = 2.176087 g / cm^3
# Si number density = 21.810514 Si / 1000 Ang^3
#
#
#
# Elastic Constant Matrix: (Units=GPa)
#
#
# Indices 1 2 3 4 5 6 
#
# 1 107.8420 -10.7637 28.4053 0.0000 0.0000 0.0000
# 2 -10.7637 41.8728 -13.3540 0.0000 0.0000 0.0000
# 3 28.4053 -13.3540 99.0256 0.0000 0.0000 0.0000
# 4 0.0000 0.0000 0.0000 -21.8613 0.0000 0.0000
# 5 0.0000 0.0000 0.0000 0.0000 17.4188 0.0000
# 6 0.0000 0.0000 0.0000 0.0000 0.0000 -13.6010
#
#
#
# Elastic Compliance Matrix: (Units=1/GPa)
#
#
# Indices 1 2 3 4 5 6 
#
# 1 0.010153 0.001757 -0.002675 0.000000 0.000000 0.000000
# 2 0.001757 0.025259 0.002902 0.000000 0.000000 0.000000
# 3 -0.002675 0.002902 0.011257 0.000000 0.000000 0.000000
# 4 0.000000 0.000000 0.000000 -0.045743 0.000000 0.000000
# 5 0.000000 0.000000 0.000000 0.000000 0.057409 0.000000
# 6 0.000000 0.000000 0.000000 0.000000 0.000000 -0.073524
#
#
# Mechanical properties :
#
#
# Convention : Reuss Voigt Hill
#
# Bulk Modulus (GPa) = 19.74866 28.59060 24.16963
# Shear Modulus (GPa) = -2195.94191 12.68816 -1091.62688
#
# Velocity S-wave (km/s) = -31.76496 2.41456 -22.39624
# Velocity P-wave (km/s) = 36.55511 4.57280 25.64533
#
# Compressibility (1/GPa) = 0.05063635
#
# Stress axis : x y z
#
# Youngs Moduli (GPa) = 98.49444 39.58977 88.83166
#
# Poissons Ratio (x) = -0.06954 0.23766
# Poissons Ratio (y) = -0.17302 -0.25783
# Poissons Ratio (z) = 0.26352 -0.11491
#
# Static dielectric constant tensor:
#      x y z
#    x 1.797510 0.000000 0.000000 
#    y 0.000000 1.819770 0.000000 
#    z 0.000000 0.000000 1.759300 
# 
# From -- ./inp_files/15825.got.cif
#   From: 2010.05.17/outbox.cif.g08.bks.cpg/sg62_8_cif.got.tgz:15825.got - 2010.06.03 15:25:27.
