data_PCOD9461622
_publ_section_title
;
Structure prediction by ZEFSAII (Michael W. Deem and Ramdas Pophale) SiO2 
 PCOD9461622
Probable space group: P N M A
;
_chemical_formula_sum "Si O2"
_cell_formula_units_Z 56
_cell_length_a 21.411451
_cell_length_b 8.713256
_cell_length_c 19.045450
_cell_angle_alpha 90.000000
_cell_angle_beta 90.000000
_cell_angle_gamma 90.000000
_cell_volume 3553.184933
_symmetry_space_group_name_H-M "P N M A"
_symmetry_group_IT_number 62
_symmetry_cell_setting 'orthorhombic'
loop_
_space_group_symop_operation_xyz
x,y,z
1/2-x,-y,1/2+z
1/2+x,1/2-y,1/2-z
-x,1/2+y,-z
-x,-y,-z
1/2+x,y,1/2-z
1/2-x,1/2+y,1/2+z
x,1/2-y,z
loop_
_atom_site_type_symbol
_atom_site_label
_atom_site_fract_x
_atom_site_fract_y
_atom_site_fract_z
Si Si1 0.621931 0.063478 0.154399
Si Si2 0.252863 0.064340 0.418548
Si Si3 0.245596 0.434794 0.072538
Si Si4 0.184240 0.572993 0.779799
Si Si5 0.321012 0.572818 0.706081
Si Si6 0.631685 0.432421 0.854431
Si Si7 0.000534 0.565734 0.421573
O O1 0.619789 0.250000 0.155527
O O2 0.683440 0.021283 0.108955
O O3 0.633305 0.006963 0.234556
O O4 0.560066 0.998551 0.119736
O O5 0.254394 0.250000 0.421353
O O6 0.302543 0.016455 0.358610
O O7 0.264673 0.996012 0.494680
O O8 0.244530 0.250000 0.073598
O O9 0.194354 0.493533 0.129532
O O10 0.313148 0.488758 0.100894
O O11 0.162939 0.750000 0.781804
O O12 0.253292 0.574325 0.744375
O O13 0.141654 0.478510 0.726719
O O14 0.340066 0.750000 0.695528
O O15 0.638567 0.250000 0.862300
O O16 0.564085 0.478169 0.883285
O O17 0.003670 0.750000 0.424279
O O18 0.000000 0.500000 0.500000
#
# Coordination Sequence:
#
# PCOD9461622 Si02
#       7
#     8   8   8   8   8   8   8
#     4   9  17  31  48  62  84 119 151 180 216 257
#     4   9  17  29  45  68  95 117 141 180 226 263
#     4  10  18  28  45  68  92 118 148 179 215 264
#     4   8  15  29  47  64  85 114 146 179 217 266
#     4   7  13  27  44  62  84 111 143 178 216 257
#     4  10  20  32  44  61  89 120 149 184 222 256
#     4  11  23  34  44  63  90 119 151 184 215 251
#
# _framework density 15.760508
#
# number of rings (size 3 to 8) (size 9 to 14) (size 15 to 20)
#    0.000    2.857    0.000    4.714    0.000    6.857 
#    0.000    6.429    0.000    0.000    0.000    1.000 
#    0.000    0.000    0.000    0.000    0.000    0.000 
#
# Total GULP energy -311829.820222 kJ/mol
# GULP energy per Si atom -5568.389647 kJ/mol
# Density = 1.572464 g / cm^3
# Si number density = 15.760508 Si / 1000 Ang^3
#
#
#
# Elastic Constant Matrix: (Units=GPa)
#
#
# Indices 1 2 3 4 5 6 
#
# 1 70.4988 21.8893 64.1179 0.0000 0.0000 0.0000
# 2 21.8893 22.4964 32.5244 0.0000 0.0000 0.0000
# 3 64.1179 32.5244 170.5284 0.0000 0.0000 0.0000
# 4 0.0000 0.0000 0.0000 28.2361 0.0000 0.0000
# 5 0.0000 0.0000 0.0000 0.0000 26.2816 0.0000
# 6 0.0000 0.0000 0.0000 0.0000 0.0000 20.1947
#
#
#
# Elastic Compliance Matrix: (Units=1/GPa)
#
#
# Indices 1 2 3 4 5 6 
#
# 1 0.024592 -0.014581 -0.006466 0.000000 0.000000 0.000000
# 2 -0.014581 0.070021 -0.007873 0.000000 0.000000 0.000000
# 3 -0.006466 -0.007873 0.009797 0.000000 0.000000 0.000000
# 4 0.000000 0.000000 0.000000 0.035416 0.000000 0.000000
# 5 0.000000 0.000000 0.000000 0.000000 0.038049 0.000000
# 6 0.000000 0.000000 0.000000 0.000000 0.000000 0.049518
#
#
# Mechanical properties :
#
#
# Convention : Reuss Voigt Hill
#
# Bulk Modulus (GPa) = 21.47225 55.62075 38.54650
# Shear Modulus (GPa) = 16.62484 24.60862 20.61673
#
# Velocity S-wave (km/s) = 3.25136 3.95576 3.62073
# Velocity P-wave (km/s) = 5.26771 7.49879 6.47999
#
# Compressibility (1/GPa) = 0.04657173
#
# Stress axis : x y z
#
# Youngs Moduli (GPa) = 40.66321 14.28146 102.07543
#
# Poissons Ratio (x) = 0.20824 0.65998
# Poissons Ratio (y) = 0.59290 0.80360
# Poissons Ratio (z) = 0.26291 0.11243
#
# Static dielectric constant tensor:
#      x y z
#    x 1.503970 0.000000 0.000000 
#    y 0.000000 1.536050 0.000000 
#    z 0.000000 0.000000 1.544390 
# 
# From -- ./inp_files/24621.got.cif
#   From: 2010.05.17/outbox.cif.g08.bks.cpg/sg62_13_cif.got.tgz:24621.got - 2010.06.03 15:25:27.
