data_PCOD9461194
_publ_section_title
;
Structure prediction by ZEFSAII (Michael W. Deem and Ramdas Pophale) SiO2 
 PCOD9461194
Probable space group: P B C A
;
_chemical_formula_sum "Si O2"
_cell_formula_units_Z 64
_cell_length_a 8.572730
_cell_length_b 28.127206
_cell_length_c 11.047941
_cell_angle_alpha 90.000000
_cell_angle_beta 90.000000
_cell_angle_gamma 90.000000
_cell_volume 2663.956236
_symmetry_space_group_name_H-M "P B C A"
_symmetry_group_IT_number 61
_symmetry_cell_setting 'orthorhombic'
loop_
_space_group_symop_operation_xyz
x,y,z
1/2-x,-y,1/2+z
1/2+x,1/2-y,-z
-x,1/2+y,1/2-z
-x,-y,-z
1/2+x,y,1/2-z
1/2-x,1/2+y,z
x,1/2-y,1/2+z
loop_
_atom_site_type_symbol
_atom_site_label
_atom_site_fract_x
_atom_site_fract_y
_atom_site_fract_z
Si Si1 0.849946 0.196968 0.716277
Si Si2 0.045643 0.178138 0.911470
Si Si3 0.191962 0.354338 0.839641
Si Si4 0.726018 0.068901 0.370282
Si Si5 0.478708 0.565288 0.917065
Si Si6 0.999701 0.796156 0.839101
Si Si7 0.683010 0.034590 0.816489
Si Si8 0.522448 0.888519 0.051665
O O1 0.669130 0.193786 0.688330
O O2 0.921492 0.245306 0.666167
O O3 0.882673 0.196631 0.859368
O O4 0.922356 0.150543 0.649340
O O5 0.032953 0.121964 0.914223
O O6 0.098950 0.198768 0.038828
O O7 0.187503 0.398335 0.744831
O O8 0.367280 0.336357 0.853723
O O9 0.111573 0.368109 0.964367
O O10 0.098184 0.311181 0.777000
O O11 0.572199 0.052873 0.445885
O O12 0.834609 0.098341 0.463085
O O13 0.820333 0.021761 0.335053
O O14 0.348744 0.545345 0.824360
O O15 0.649408 0.551134 0.868903
O O16 0.549749 0.064967 0.884480
#
# Coordination Sequence:
#
# PCOD9461194 Si02
#       8
#     8   8   8   8   8   8   8   8
#     4  12  28  46  77 108 144 192 251 303 365 436
#     4  12  26  50  74 104 150 194 238 307 365 429
#     4  12  27  49  72 109 149 193 241 306 368 435
#     4  12  27  49  75 104 151 192 243 301 364 442
#     4  12  24  49  70 106 145 186 243 297 364 433
#     4  12  28  48  75 107 148 194 248 299 373 440
#     4  12  28  43  78 108 142 193 245 300 366 441
#     4  12  26  48  72 105 150 190 242 304 366 430
#
# _framework density 24.024419000000002
#
# number of rings (size 3 to 8) (size 9 to 14) (size 15 to 20)
#    0.000    0.000    5.000    3.750    8.750    0.000 
#    0.000    0.000    0.000    0.000    0.000    0.000 
#    0.000    0.000    0.000    0.000    0.000    0.000 
#
# Total GULP energy -358753.548339 kJ/mol
# GULP energy per Si atom -5605.524193 kJ/mol
# Density = 2.396974 g / cm^3
# Si number density = 24.024419 Si / 1000 Ang^3
#
#
#
# Elastic Constant Matrix: (Units=GPa)
#
#
# Indices 1 2 3 4 5 6 
#
# 1 70.2552 1.7383 -5.6572 0.0000 0.0000 0.0000
# 2 1.7383 103.1988 2.9225 0.0000 0.0000 0.0000
# 3 -5.6572 2.9225 51.2605 0.0000 0.0000 0.0000
# 4 0.0000 0.0000 0.0000 25.2663 0.0000 0.0000
# 5 0.0000 0.0000 0.0000 0.0000 38.9082 0.0000
# 6 0.0000 0.0000 0.0000 0.0000 0.0000 25.7800
#
#
#
# Elastic Compliance Matrix: (Units=1/GPa)
#
#
# Indices 1 2 3 4 5 6 
#
# 1 0.014370 -0.000287 0.001602 0.000000 0.000000 0.000000
# 2 -0.000287 0.009711 -0.000585 0.000000 0.000000 0.000000
# 3 0.001602 -0.000585 0.019718 0.000000 0.000000 0.000000
# 4 0.000000 0.000000 0.000000 0.039578 0.000000 0.000000
# 5 0.000000 0.000000 0.000000 0.000000 0.025702 0.000000
# 6 0.000000 0.000000 0.000000 0.000000 0.000000 0.038790
#
#
# Mechanical properties :
#
#
# Convention : Reuss Voigt Hill
#
# Bulk Modulus (GPa) = 22.09519 24.74686 23.42102
# Shear Modulus (GPa) = 30.96036 33.03829 31.99932
#
# Velocity S-wave (km/s) = 3.59375 3.71239 3.65355
# Velocity P-wave (km/s) = 5.14169 5.35713 5.25051
#
# Compressibility (1/GPa) = 0.04525872
#
# Stress axis : x y z
#
# Youngs Moduli (GPa) = 69.58965 102.97119 50.71404
#
# Poissons Ratio (x) = 0.02960 -0.08126
# Poissons Ratio (y) = 0.02000 0.02969
# Poissons Ratio (z) = -0.11150 0.06028
#
# Static dielectric constant tensor:
#      x y z
#    x 1.939300 0.000000 0.000000 
#    y 0.000000 1.888170 0.000000 
#    z 0.000000 0.000000 1.919540 
# 
# From -- ./inp_files/4966.got.cif
#   From: 2010.05.17/outbox.cif.g08.bks.cpg/sg61_3_cif.got.tgz:4966.got - 2010.06.03 15:17:17.
