data_PCOD9461607
_publ_section_title
;
Structure prediction by ZEFSAII (Michael W. Deem and Ramdas Pophale) SiO2 
 PCOD9461607
Probable space group: P N M A
;
_chemical_formula_sum "Si O2"
_cell_formula_units_Z 64
_cell_length_a 26.565277
_cell_length_b 9.093001
_cell_length_c 18.634436
_cell_angle_alpha 90.000000
_cell_angle_beta 90.000000
_cell_angle_gamma 90.000000
_cell_volume 4501.298774
_symmetry_space_group_name_H-M "P N M A"
_symmetry_group_IT_number 62
_symmetry_cell_setting 'orthorhombic'
loop_
_space_group_symop_operation_xyz
x,y,z
1/2-x,-y,1/2+z
1/2+x,1/2-y,1/2-z
-x,1/2+y,-z
-x,-y,-z
1/2+x,y,1/2-z
1/2-x,1/2+y,1/2+z
x,1/2-y,z
loop_
_atom_site_type_symbol
_atom_site_label
_atom_site_fract_x
_atom_site_fract_y
_atom_site_fract_z
Si Si1 0.243241 0.923949 0.083957
Si Si2 0.296900 0.424600 0.209049
Si Si3 0.239647 0.077830 0.932506
Si Si4 0.206939 0.576242 0.292705
Si Si5 0.356813 0.575058 0.329039
Si Si6 0.941432 0.923303 0.925942
Si Si7 0.638159 0.922335 0.331960
Si Si8 0.939737 0.424259 0.076978
O O1 0.252255 0.750000 0.087780
O O2 0.188562 0.950772 0.120767
O O3 0.284971 0.008171 0.131164
O O4 0.241844 0.980313 0.002899
O O5 0.302262 0.250000 0.206438
O O6 0.247637 0.472831 0.254593
O O7 0.341674 0.499219 0.254159
O O8 0.238778 0.250000 0.953059
O O9 0.286040 0.054080 0.877263
O O10 0.189394 0.049597 0.885245
O O11 0.220756 0.750000 0.279231
O O12 0.155115 0.552310 0.250450
O O13 0.361337 0.750000 0.319927
O O14 0.405979 0.505539 0.364546
O O15 0.934070 0.750000 0.938402
O O16 0.000623 0.948610 0.911536
O O17 0.906499 0.979787 0.862034
O O18 0.927567 0.010639 0.998402
O O19 0.625442 0.750000 0.340361
O O20 0.929916 0.250000 0.077941
#
# Coordination Sequence:
#
# PCOD9461607 Si02
#       8
#     8   8   8   8   8   8   8   8
#     4  10  19  29  41  60  86 113 142 174 206 243
#     4  10  18  28  43  61  82 109 140 172 207 248
#     4   9  17  28  42  61  84 109 138 171 207 246
#     4   8  16  30  43  58  83 111 139 173 209 246
#     4  10  19  31  46  62  83 111 142 176 213 251
#     4  10  20  31  43  61  85 111 141 180 217 247
#     4   9  17  29  44  59  80 113 146 175 209 249
#     4  10  20  32  44  60  83 111 144 178 212 251
#
# _framework density 14.218118
#
# number of rings (size 3 to 8) (size 9 to 14) (size 15 to 20)
#    0.000    2.500    0.000    4.875    0.000    8.500 
#    0.000    0.000    0.000    0.000    0.000    0.000 
#    0.000    1.000    0.000    3.000    0.000    4.625 
#
# Total GULP energy -356643.239322 kJ/mol
# GULP energy per Si atom -5572.550614 kJ/mol
# Density = 1.418576 g / cm^3
# Si number density = 14.218118 Si / 1000 Ang^3
#
#
#
# Elastic Constant Matrix: (Units=GPa)
#
#
# Indices 1 2 3 4 5 6 
#
# 1 39.8633 36.3052 22.2032 0.0000 0.0000 0.0000
# 2 36.3052 74.0217 44.3721 0.0000 0.0000 0.0000
# 3 22.2032 44.3721 62.3020 0.0000 0.0000 0.0000
# 4 0.0000 0.0000 0.0000 26.2833 0.0000 0.0000
# 5 0.0000 0.0000 0.0000 0.0000 25.3027 0.0000
# 6 0.0000 0.0000 0.0000 0.0000 0.0000 22.0997
#
#
#
# Elastic Compliance Matrix: (Units=1/GPa)
#
#
# Indices 1 2 3 4 5 6 
#
# 1 0.045349 -0.021907 -0.000559 0.000000 0.000000 0.000000
# 2 -0.021907 0.034157 -0.016520 0.000000 0.000000 0.000000
# 3 -0.000559 -0.016520 0.028016 0.000000 0.000000 0.000000
# 4 0.000000 0.000000 0.000000 0.038047 0.000000 0.000000
# 5 0.000000 0.000000 0.000000 0.000000 0.039521 0.000000
# 6 0.000000 0.000000 0.000000 0.000000 0.000000 0.045250
#
#
# Mechanical properties :
#
#
# Convention : Reuss Voigt Hill
#
# Bulk Modulus (GPa) = 33.84114 42.43868 38.13991
# Shear Modulus (GPa) = 15.71534 19.62422 17.66978
#
# Velocity S-wave (km/s) = 3.32822 3.71917 3.52911
# Velocity P-wave (km/s) = 6.21470 6.95385 6.59464
#
# Compressibility (1/GPa) = 0.02954983
#
# Stress axis : x y z
#
# Youngs Moduli (GPa) = 22.05135 29.27669 35.69441
#
# Poissons Ratio (x) = 0.64136 0.01996
# Poissons Ratio (y) = 0.48308 0.58966
# Poissons Ratio (z) = 0.01233 0.48364
#
# Static dielectric constant tensor:
#      x y z
#    x 1.462670 0.000000 0.000000 
#    y 0.000000 1.471660 0.000000 
#    z 0.000000 0.000000 1.472490 
# 
# From -- ./inp_files/24926.got.cif
#   From: 2010.05.17/outbox.cif.g08.bks.cpg/sg62_13_cif.got.tgz:24926.got - 2010.06.03 15:25:27.
