data_PCOD9461800
_publ_section_title
;
Structure prediction by ZEFSAII (Michael W. Deem and Ramdas Pophale) SiO2 
 PCOD9461800
Probable space group: P N M A
;
_chemical_formula_sum "Si O2"
_cell_formula_units_Z 64
_cell_length_a 23.955700
_cell_length_b 8.460916
_cell_length_c 19.865030
_cell_angle_alpha 90.000000
_cell_angle_beta 90.000000
_cell_angle_gamma 90.000000
_cell_volume 4026.386622
_symmetry_space_group_name_H-M "P N M A"
_symmetry_group_IT_number 62
_symmetry_cell_setting 'orthorhombic'
loop_
_space_group_symop_operation_xyz
x,y,z
1/2-x,-y,1/2+z
1/2+x,1/2-y,1/2-z
-x,1/2+y,-z
-x,-y,-z
1/2+x,y,1/2-z
1/2-x,1/2+y,1/2+z
x,1/2-y,z
loop_
_atom_site_type_symbol
_atom_site_label
_atom_site_fract_x
_atom_site_fract_y
_atom_site_fract_z
Si Si1 0.773719 0.939520 0.148116
Si Si2 0.119268 0.940916 0.501571
Si Si3 0.250743 0.057109 0.999307
Si Si4 0.436453 0.058842 0.860913
Si Si5 0.337775 0.061131 0.227055
Si Si6 0.935978 0.938930 0.361143
Si Si7 0.335909 0.939714 0.775994
Si Si8 0.726877 0.057809 0.353938
O O1 0.775904 0.750000 0.150014
O O2 0.777026 0.993537 0.070665
O O3 0.819925 0.006517 0.198774
O O4 0.713590 0.992866 0.177068
O O5 0.118786 0.750000 0.503495
O O6 0.184073 0.990665 0.499711
O O7 0.087884 0.992001 0.433599
O O8 0.089110 0.001275 0.568294
O O9 0.250253 0.250000 0.999244
O O10 0.223225 0.003107 0.069207
O O11 0.435181 0.250000 0.859791
O O12 0.500236 0.005561 0.853058
O O13 0.394682 0.997341 0.803979
O O14 0.339531 0.250000 0.225100
O O15 0.286644 0.009969 0.177905
O O16 0.395007 0.995087 0.197860
O O17 0.936457 0.750000 0.362505
O O18 0.333165 0.750000 0.778913
O O19 0.319935 0.990559 0.699943
O O20 0.726858 0.250000 0.355140
#
# Coordination Sequence:
#
# PCOD9461800 Si02
#       8
#     8   8   8   8   8   8   8   8
#     4  10  18  30  50  72  97 126 159 198 241 290
#     4  10  18  32  49  66  95 136 168 194 235 287
#     4   9  15  27  49  71  94 129 160 185 234 294
#     4  10  21  35  48  65  96 133 169 203 243 290
#     4  10  19  33  50  68  95 129 162 199 241 289
#     4  11  22  33  47  70  96 127 168 210 243 282
#     4  10  19  30  47  70  95 125 165 206 241 282
#     4   8  15  28  46  68  91 119 156 193 233 284
#
# _framework density 15.895146
#
# number of rings (size 3 to 8) (size 9 to 14) (size 15 to 20)
#    0.000    2.250    2.500    2.625    0.000    1.500 
#    0.000    0.000    0.000    0.000    0.000    0.875 
#    0.000    0.000    0.000    0.000    0.000    0.000 
#
# Total GULP energy -356915.067840 kJ/mol
# GULP energy per Si atom -5576.797935 kJ/mol
# Density = 1.585897 g / cm^3
# Si number density = 15.895146 Si / 1000 Ang^3
#
#
#
# Elastic Constant Matrix: (Units=GPa)
#
#
# Indices 1 2 3 4 5 6 
#
# 1 92.8587 12.4886 70.0687 0.0000 0.0000 0.0000
# 2 12.4886 14.8526 12.4220 0.0000 0.0000 0.0000
# 3 70.0687 12.4220 152.9530 0.0000 0.0000 0.0000
# 4 0.0000 0.0000 0.0000 20.8327 0.0000 0.0000
# 5 0.0000 0.0000 0.0000 0.0000 19.8010 0.0000
# 6 0.0000 0.0000 0.0000 0.0000 0.0000 19.4387
#
#
#
# Elastic Compliance Matrix: (Units=1/GPa)
#
#
# Indices 1 2 3 4 5 6 
#
# 1 0.017415 -0.008552 -0.007283 0.000000 0.000000 0.000000
# 2 -0.008552 0.076434 -0.002290 0.000000 0.000000 0.000000
# 3 -0.007283 -0.002290 0.010061 0.000000 0.000000 0.000000
# 4 0.000000 0.000000 0.000000 0.048002 0.000000 0.000000
# 5 0.000000 0.000000 0.000000 0.000000 0.050503 0.000000
# 6 0.000000 0.000000 0.000000 0.000000 0.000000 0.051444
#
#
# Mechanical properties :
#
#
# Convention : Reuss Voigt Hill
#
# Bulk Modulus (GPa) = 14.77993 50.06922 32.42457
# Shear Modulus (GPa) = 15.99178 23.06014 19.52596
#
# Velocity S-wave (km/s) = 3.17532 3.81302 3.50869
# Velocity P-wave (km/s) = 4.77096 7.13818 6.07107
#
# Compressibility (1/GPa) = 0.06765932
#
# Stress axis : x y z
#
# Youngs Moduli (GPa) = 57.42155 13.08319 99.39852
#
# Poissons Ratio (x) = 0.11188 0.72396
# Poissons Ratio (y) = 0.49106 0.22761
# Poissons Ratio (z) = 0.41823 0.02996
#
# Static dielectric constant tensor:
#      x y z
#    x 1.510480 0.000000 0.000000 
#    y 0.000000 1.545750 0.000000 
#    z 0.000000 0.000000 1.545420 
# 
# From -- ./inp_files/24916.got.cif
#   From: 2010.05.17/outbox.cif.g08.bks.cpg/sg62_13_cif.got.tgz:24916.got - 2010.06.03 15:25:27.
