data_PCOD9461512
_publ_section_title
;
Structure prediction by ZEFSAII (Michael W. Deem and Ramdas Pophale) SiO2 
 PCOD9461512
Probable space group: P N M A
;
_chemical_formula_sum "Si O2"
_cell_formula_units_Z 64
_cell_length_a 16.741023
_cell_length_b 7.522152
_cell_length_c 19.712448
_cell_angle_alpha 90.000000
_cell_angle_beta 90.000000
_cell_angle_gamma 90.000000
_cell_volume 2482.359395
_symmetry_space_group_name_H-M "P N M A"
_symmetry_group_IT_number 62
_symmetry_cell_setting 'orthorhombic'
loop_
_space_group_symop_operation_xyz
x,y,z
1/2-x,-y,1/2+z
1/2+x,1/2-y,1/2-z
-x,1/2+y,-z
-x,-y,-z
1/2+x,y,1/2-z
1/2-x,1/2+y,1/2+z
x,1/2-y,z
loop_
_atom_site_type_symbol
_atom_site_label
_atom_site_fract_x
_atom_site_fract_y
_atom_site_fract_z
Si Si1 0.812031 0.049458 0.692792
Si Si2 0.828045 0.956632 0.538709
Si Si3 0.514812 0.042962 0.206962
Si Si4 0.153474 0.968438 0.960568
Si Si5 0.924645 0.452419 0.171842
Si Si6 0.245667 0.033545 0.670849
Si Si7 0.412549 0.536039 0.087026
Si Si8 0.587855 0.965437 0.401146
O O1 0.786566 0.250000 0.679584
O O2 0.754796 0.971734 0.750830
O O3 0.826425 0.963594 0.619778
O O4 0.902010 0.050212 0.722382
O O5 0.825849 0.750000 0.520014
O O6 0.741458 0.030316 0.519060
O O7 0.897543 0.028742 0.490070
O O8 0.525695 0.250000 0.223746
O O9 0.444165 0.967809 0.254776
O O10 0.487648 0.032385 0.129257
O O11 0.153531 0.750000 0.958277
O O12 0.132150 0.033062 0.885323
O O13 0.093578 0.019435 0.020038
O O14 0.897698 0.250000 0.182289
O O15 0.011335 0.455198 0.135460
O O16 0.245147 0.250000 0.672790
O O17 0.167162 0.981059 0.629264
O O18 0.327892 0.983332 0.633136
O O19 0.420471 0.750000 0.089941
O O20 0.581561 0.750000 0.397534
#
# Coordination Sequence:
#
# PCOD9461512 Si02
#       8
#     8   8   8   8   8   8   8   8
#     4  11  23  40  62  87 117 152 192 241 287 336
#     4  10  21  39  63  87 113 150 193 238 291 346
#     4  11  24  40  58  85 118 154 194 238 288 345
#     4   9  18  34  57  84 118 156 190 228 282 347
#     4  10  21  35  52  83 122 154 188 233 285 340
#     4   9  18  35  60  87 113 146 190 233 278 333
#     4  10  21  40  64  87 113 150 194 239 286 341
#     4  10  17  33  60  84 112 155 196 228 274 341
#
# _framework density 25.781922000000002
#
# number of rings (size 3 to 8) (size 9 to 14) (size 15 to 20)
#    0.000    2.000    2.500    1.125    1.750    1.500 
#    0.000    2.500    0.000    0.000    0.000    0.000 
#    0.000    0.000    0.000    0.000    0.000    0.000 
#
# Total GULP energy -357830.903637 kJ/mol
# GULP energy per Si atom -5591.107869 kJ/mol
# Density = 2.572324 g / cm^3
# Si number density = 25.781922 Si / 1000 Ang^3
#
#
#
# Elastic Constant Matrix: (Units=GPa)
#
#
# Indices 1 2 3 4 5 6 
#
# 1 52.7683 4.4210 0.6569 0.0000 0.0000 0.0000
# 2 4.4210 78.9225 1.2811 0.0000 0.0000 0.0000
# 3 0.6569 1.2811 124.2827 0.0000 0.0000 0.0000
# 4 0.0000 0.0000 0.0000 11.5638 0.0000 0.0000
# 5 0.0000 0.0000 0.0000 0.0000 48.7256 0.0000
# 6 0.0000 0.0000 0.0000 0.0000 0.0000 12.2178
#
#
#
# Elastic Compliance Matrix: (Units=1/GPa)
#
#
# Indices 1 2 3 4 5 6 
#
# 1 0.019041 -0.001065 -0.000090 0.000000 0.000000 0.000000
# 2 -0.001065 0.012732 -0.000126 0.000000 0.000000 0.000000
# 3 -0.000090 -0.000126 0.008048 0.000000 0.000000 0.000000
# 4 0.000000 0.000000 0.000000 0.086477 0.000000 0.000000
# 5 0.000000 0.000000 0.000000 0.000000 0.020523 0.000000
# 6 0.000000 0.000000 0.000000 0.000000 0.000000 0.081848
#
#
# Mechanical properties :
#
#
# Convention : Reuss Voigt Hill
#
# Bulk Modulus (GPa) = 26.83804 29.85461 28.34633
# Shear Modulus (GPa) = 20.52122 31.14241 25.83182
#
# Velocity S-wave (km/s) = 2.82433 3.47928 3.16877
# Velocity P-wave (km/s) = 4.58999 5.26738 4.94031
#
# Compressibility (1/GPa) = 0.03726054
#
# Stress axis : x y z
#
# Youngs Moduli (GPa) = 52.51790 78.53998 124.25538
#
# Poissons Ratio (x) = 0.08366 0.01114
# Poissons Ratio (y) = 0.05594 0.01561
# Poissons Ratio (z) = 0.00471 0.00987
#
# Static dielectric constant tensor:
#      x y z
#    x 2.002730 0.000000 0.000000 
#    y 0.000000 1.914700 0.000000 
#    z 0.000000 0.000000 2.093890 
# 
# From -- ./inp_files/27619.got.cif
#   From: 2010.05.17/outbox.cif.g08.bks.cpg/sg62_14_cif.got.tgz:27619.got - 2010.06.03 15:25:27.
