data_PCOD9461580
_publ_section_title
;
Structure prediction by ZEFSAII (Michael W. Deem and Ramdas Pophale) SiO2 
 PCOD9461580
Probable space group: P N M A
;
_chemical_formula_sum "Si O2"
_cell_formula_units_Z 64
_cell_length_a 18.810024
_cell_length_b 8.872393
_cell_length_c 26.973852
_cell_angle_alpha 90.000000
_cell_angle_beta 90.000000
_cell_angle_gamma 90.000000
_cell_volume 4501.664144
_symmetry_space_group_name_H-M "P N M A"
_symmetry_group_IT_number 62
_symmetry_cell_setting 'orthorhombic'
loop_
_space_group_symop_operation_xyz
x,y,z
1/2-x,-y,1/2+z
1/2+x,1/2-y,1/2-z
-x,1/2+y,-z
-x,-y,-z
1/2+x,y,1/2-z
1/2-x,1/2+y,1/2+z
x,1/2-y,z
loop_
_atom_site_type_symbol
_atom_site_label
_atom_site_fract_x
_atom_site_fract_y
_atom_site_fract_z
Si Si1 0.673945 0.569809 0.645398
Si Si2 0.841379 0.930026 0.850572
Si Si3 0.300916 0.422954 0.803755
Si Si4 0.578330 0.929528 0.440760
Si Si5 0.711652 0.424702 0.799350
Si Si6 0.570620 0.567603 0.259233
Si Si7 0.585300 0.930985 0.744167
Si Si8 0.576104 0.568767 0.556097
O O1 0.677974 0.750000 0.644926
O O2 0.752208 0.508618 0.657087
O O3 0.622324 0.528328 0.691442
O O4 0.636793 0.520408 0.594554
O O5 0.842703 0.750000 0.847092
O O6 0.869536 0.986614 0.903317
O O7 0.762957 0.992539 0.838065
O O8 0.894111 0.999474 0.808875
O O9 0.307405 0.250000 0.819451
O O10 0.256386 0.426955 0.752202
O O11 0.378289 0.479169 0.786724
O O12 0.581957 0.750000 0.432790
O O13 0.593998 0.961287 0.498675
O O14 0.498102 0.987790 0.431800
O O15 0.700299 0.250000 0.812611
O O16 0.638514 0.508155 0.786413
O O17 0.572457 0.750000 0.262477
O O18 0.491402 0.507146 0.253212
O O19 0.579566 0.750000 0.746453
O O20 0.565688 0.750000 0.561165
#
# Coordination Sequence:
#
# PCOD9461580 Si02
#       8
#     8   8   8   8   8   8   8   8
#     4   9  17  28  42  59  81 109 139 171 207 245
#     4  11  20  30  44  61  83 111 145 182 217 253
#     4   8  16  28  41  58  80 106 137 171 204 243
#     4  10  19  30  44  61  83 112 144 177 214 253
#     4   9  17  30  44  59  82 111 142 174 209 251
#     4  10  19  30  43  61  85 113 144 175 210 252
#     4  10  18  27  42  65  89 113 141 173 210 249
#     4   9  18  31  44  61  85 111 142 179 213 247
#
# _framework density 14.216965
#
# number of rings (size 3 to 8) (size 9 to 14) (size 15 to 20)
#    0.000    2.500    0.000    4.125    0.000    6.000 
#    0.000    0.000    0.000    0.000    0.000    0.000 
#    0.000    1.000    0.000    3.000    0.000    4.625 
#
# Total GULP energy -356671.734601 kJ/mol
# GULP energy per Si atom -5572.995853 kJ/mol
# Density = 1.418461 g / cm^3
# Si number density = 14.216965 Si / 1000 Ang^3
#
#
#
# Elastic Constant Matrix: (Units=GPa)
#
#
# Indices 1 2 3 4 5 6 
#
# 1 99.5151 42.9851 45.0284 0.0000 0.0000 0.0000
# 2 42.9851 63.0092 36.9887 0.0000 0.0000 0.0000
# 3 45.0284 36.9887 66.4083 0.0000 0.0000 0.0000
# 4 0.0000 0.0000 0.0000 18.2535 0.0000 0.0000
# 5 0.0000 0.0000 0.0000 0.0000 26.7664 0.0000
# 6 0.0000 0.0000 0.0000 0.0000 0.0000 26.7914
#
#
#
# Elastic Compliance Matrix: (Units=1/GPa)
#
#
# Indices 1 2 3 4 5 6 
#
# 1 0.016280 -0.006874 -0.007210 0.000000 0.000000 0.000000
# 2 -0.006874 0.026483 -0.010090 0.000000 0.000000 0.000000
# 3 -0.007210 -0.010090 0.025567 0.000000 0.000000 0.000000
# 4 0.000000 0.000000 0.000000 0.054784 0.000000 0.000000
# 5 0.000000 0.000000 0.000000 0.000000 0.037360 0.000000
# 6 0.000000 0.000000 0.000000 0.000000 0.000000 0.037325
#
#
# Mechanical properties :
#
#
# Convention : Reuss Voigt Hill
#
# Bulk Modulus (GPa) = 50.04349 53.21521 51.62935
# Shear Modulus (GPa) = 19.77770 21.29094 20.53432
#
# Velocity S-wave (km/s) = 3.73384 3.87405 3.80459
# Velocity P-wave (km/s) = 7.33928 7.58439 7.46284
#
# Compressibility (1/GPa) = 0.01998262
#
# Stress axis : x y z
#
# Youngs Moduli (GPa) = 61.42380 37.75970 39.11228
#
# Poissons Ratio (x) = 0.25955 0.28201
# Poissons Ratio (y) = 0.42221 0.39465
# Poissons Ratio (z) = 0.44289 0.38100
#
# Static dielectric constant tensor:
#      x y z
#    x 1.461180 0.000000 0.000000 
#    y 0.000000 1.478410 0.000000 
#    z 0.000000 0.000000 1.460420 
# 
# From -- ./inp_files/30041.got.cif
#   From: 2010.05.17/outbox.cif.g08.bks.cpg/sg62_16_cif.got.tgz:30041.got - 2010.06.03 15:25:27.
