data_PCOD9461470
_publ_section_title
;
Structure prediction by ZEFSAII (Michael W. Deem and Ramdas Pophale) SiO2 
 PCOD9461470
Probable space group: P N M A
;
_chemical_formula_sum "Si O2"
_cell_formula_units_Z 64
_cell_length_a 13.012317
_cell_length_b 12.977103
_cell_length_c 21.526730
_cell_angle_alpha 90.000000
_cell_angle_beta 90.000000
_cell_angle_gamma 90.000000
_cell_volume 3635.050513
_symmetry_space_group_name_H-M "P N M A"
_symmetry_group_IT_number 62
_symmetry_cell_setting 'orthorhombic'
loop_
_space_group_symop_operation_xyz
x,y,z
1/2-x,-y,1/2+z
1/2+x,1/2-y,1/2-z
-x,1/2+y,-z
-x,-y,-z
1/2+x,y,1/2-z
1/2-x,1/2+y,1/2+z
x,1/2-y,z
loop_
_atom_site_type_symbol
_atom_site_label
_atom_site_fract_x
_atom_site_fract_y
_atom_site_fract_z
Si Si1 0.673141 0.632061 0.682549
Si Si2 0.319830 0.626049 0.133851
Si Si3 0.904887 0.625929 0.636780
Si Si4 0.148382 0.131178 0.497773
Si Si5 0.947579 0.634948 0.050823
Si Si6 0.540993 0.008155 0.772581
Si Si7 0.875148 0.413294 0.045920
Si Si8 0.409834 0.128870 0.672674
O O1 0.668195 0.750000 0.704842
O O2 0.791278 0.607156 0.665504
O O3 0.620675 0.555156 0.730212
O O4 0.615398 0.623366 0.616490
O O5 0.316552 0.750000 0.129269
O O6 0.358114 0.585013 0.066686
O O7 0.395694 0.590789 0.187668
O O8 0.203075 0.593382 0.150295
O O9 0.919316 0.750000 0.636809
O O10 0.903762 0.588260 0.564843
O O11 0.985851 0.568573 0.679518
O O12 0.113896 0.250000 0.501835
O O13 0.269966 0.129772 0.482034
O O14 0.902300 0.750000 0.049718
O O15 0.872399 0.537887 0.045765
O O16 0.012830 0.622784 0.114166
O O17 0.029552 0.623013 0.995239
O O18 0.457512 0.062652 0.728205
O O19 0.402622 0.250000 0.690290
#
# Coordination Sequence:
#
# PCOD9461470 Si02
#       8
#     8   8   8   8   8   8   8   8
#     4  10  20  34  52  78 106 136 176 212 253 314
#     4  10  21  36  56  77 101 137 180 221 261 313
#     4   9  20  36  55  76 102 134 174 221 263 306
#     4   9  17  34  57  78  99 132 182 225 254 303
#     4  10  18  29  49  78 109 136 171 219 264 304
#     4  12  21  34  52  79 109 140 171 210 269 321
#     4  10  17  30  53  77 101 137 176 216 256 304
#     4  10  20  35  52  77 110 141 175 215 260 315
#
# _framework density 17.606359000000001
#
# number of rings (size 3 to 8) (size 9 to 14) (size 15 to 20)
#    0.000    2.000    2.500    3.375    0.000    0.500 
#    0.000    0.000    0.000    4.500    0.000    0.000 
#    0.000    0.000    0.000    0.000    0.000    0.000 
#
# Total GULP energy -356830.389050 kJ/mol
# GULP energy per Si atom -5575.474829 kJ/mol
# Density = 1.756629 g / cm^3
# Si number density = 17.606359 Si / 1000 Ang^3
#
#
#
# Elastic Constant Matrix: (Units=GPa)
#
#
# Indices 1 2 3 4 5 6 
#
# 1 17.7093 6.5125 22.6663 0.0000 0.0000 0.0000
# 2 6.5125 48.6101 17.1455 0.0000 0.0000 0.0000
# 3 22.6663 17.1455 107.8880 0.0000 0.0000 0.0000
# 4 0.0000 0.0000 0.0000 19.0812 0.0000 0.0000
# 5 0.0000 0.0000 0.0000 0.0000 17.0761 0.0000
# 6 0.0000 0.0000 0.0000 0.0000 0.0000 17.0473
#
#
#
# Elastic Compliance Matrix: (Units=1/GPa)
#
#
# Indices 1 2 3 4 5 6 
#
# 1 0.078353 -0.004970 -0.015672 0.000000 0.000000 0.000000
# 2 -0.004970 0.022109 -0.002469 0.000000 0.000000 0.000000
# 3 -0.015672 -0.002469 0.012954 0.000000 0.000000 0.000000
# 4 0.000000 0.000000 0.000000 0.052408 0.000000 0.000000
# 5 0.000000 0.000000 0.000000 0.000000 0.058561 0.000000
# 6 0.000000 0.000000 0.000000 0.000000 0.000000 0.058660
#
#
# Mechanical properties :
#
#
# Convention : Reuss Voigt Hill
#
# Bulk Modulus (GPa) = 14.88223 29.65068 22.26646
# Shear Modulus (GPa) = 14.21810 19.16646 16.69228
#
# Velocity S-wave (km/s) = 2.84483 3.30299 3.08244
# Velocity P-wave (km/s) = 4.38884 5.60569 5.03417
#
# Compressibility (1/GPa) = 0.06719424
#
# Stress axis : x y z
#
# Youngs Moduli (GPa) = 12.76271 45.23110 77.19763
#
# Poissons Ratio (x) = 0.22479 1.20981
# Poissons Ratio (y) = 0.06343 0.19063
# Poissons Ratio (z) = 0.20001 0.11169
#
# Static dielectric constant tensor:
#      x y z
#    x 1.569870 0.000000 0.000000 
#    y 0.000000 1.608960 0.000000 
#    z 0.000000 0.000000 1.606570 
# 
# From -- ./inp_files/24007.got.cif
#   From: 2010.05.17/outbox.cif.g08.bks.cpg/sg62_13_cif.got.tgz:24007.got - 2010.06.03 15:25:27.
