data_PCOD9461213
_publ_section_title
;
Structure prediction by ZEFSAII (Michael W. Deem and Ramdas Pophale) SiO2 
 PCOD9461213
Probable space group: P B C A
;
_chemical_formula_sum "Si O2"
_cell_formula_units_Z 48
_cell_length_a 8.096267
_cell_length_b 18.247438
_cell_length_c 12.565948
_cell_angle_alpha 90.000000
_cell_angle_beta 90.000000
_cell_angle_gamma 90.000000
_cell_volume 1856.444529
_symmetry_space_group_name_H-M "P B C A"
_symmetry_group_IT_number 61
_symmetry_cell_setting 'orthorhombic'
loop_
_space_group_symop_operation_xyz
x,y,z
1/2-x,-y,1/2+z
1/2+x,1/2-y,-z
-x,1/2+y,1/2-z
-x,-y,-z
1/2+x,y,1/2-z
1/2-x,1/2+y,z
x,1/2-y,1/2+z
loop_
_atom_site_type_symbol
_atom_site_label
_atom_site_fract_x
_atom_site_fract_y
_atom_site_fract_z
Si Si1 0.476302 0.435437 0.582888
Si Si2 0.196399 0.813070 0.111549
Si Si3 0.048328 0.243301 0.727361
Si Si4 0.690808 0.814074 0.040299
Si Si5 0.506447 0.914211 0.521199
Si Si6 0.731951 0.609081 0.223090
O O1 0.500000 0.500000 0.500000
O O2 0.453367 0.361212 0.515780
O O3 0.635377 0.435302 0.657301
O O4 0.326824 0.430242 0.668891
O O5 0.327794 0.823097 0.203332
O O6 0.039228 0.772539 0.162457
O O7 0.259910 0.752859 0.029244
O O8 0.151571 0.885760 0.054145
O O9 0.405133 0.227608 0.862164
O O10 0.171409 0.314393 0.743737
O O11 0.843167 0.873014 0.026659
O O12 0.574207 0.889785 0.639713
O O13 0.500000 0.000000 0.500000
#
# Coordination Sequence:
#
# PCOD9461213 Si02
#       6
#     8   8   8   8   8   8
#     4  12  27  50  85 122 172 231 292 368 454 549
#     4  12  27  45  85 121 170 218 301 360 442 525
#     4  12  26  48  83 129 166 225 298 380 442 531
#     4  12  26  48  82 123 165 222 302 360 443 538
#     4  12  30  54  86 128 181 234 289 375 460 549
#     4  12  26  53  83 123 178 233 296 366 467 532
#
# _framework density 25.855875000000001
#
# number of rings (size 3 to 8) (size 9 to 14) (size 15 to 20)
#    0.000    0.000    3.333    5.000    9.333    1.333 
#    0.000    6.667    0.000    0.000    0.000    0.000 
#    0.000    0.000    0.000    0.000    0.000    0.000 
#
# Total GULP energy -267792.480994 kJ/mol
# GULP energy per Si atom -5579.010021 kJ/mol
# Density = 2.579703 g / cm^3
# Si number density = 25.855875 Si / 1000 Ang^3
#
#
#
# Elastic Constant Matrix: (Units=GPa)
#
#
# Indices 1 2 3 4 5 6 
#
# 1 125.7522 72.9772 78.6413 0.0000 0.0000 0.0000
# 2 72.9772 173.0089 88.0013 0.0000 0.0000 0.0000
# 3 78.6413 88.0013 167.9229 0.0000 0.0000 0.0000
# 4 0.0000 0.0000 0.0000 53.8794 0.0000 0.0000
# 5 0.0000 0.0000 0.0000 0.0000 63.4982 0.0000
# 6 0.0000 0.0000 0.0000 0.0000 0.0000 40.5484
#
#
#
# Elastic Compliance Matrix: (Units=1/GPa)
#
#
# Indices 1 2 3 4 5 6 
#
# 1 0.012350 -0.003092 -0.004164 0.000000 0.000000 0.000000
# 2 -0.003092 0.008655 -0.003088 0.000000 0.000000 0.000000
# 3 -0.004164 -0.003088 0.009523 0.000000 0.000000 0.000000
# 4 0.000000 0.000000 0.000000 0.018560 0.000000 0.000000
# 5 0.000000 0.000000 0.000000 0.000000 0.015748 0.000000
# 6 0.000000 0.000000 0.000000 0.000000 0.000000 0.024662
#
#
# Mechanical properties :
#
#
# Convention : Reuss Voigt Hill
#
# Bulk Modulus (GPa) = 101.60420 105.10263 103.35341
# Shear Modulus (GPa) = 44.06660 46.72281 45.39471
#
# Velocity S-wave (km/s) = 4.13282 4.25555 4.19463
# Velocity P-wave (km/s) = 7.88386 8.05506 7.96992
#
# Compressibility (1/GPa) = 0.00984211
#
# Stress axis : x y z
#
# Youngs Moduli (GPa) = 80.97147 115.54433 105.00749
#
# Poissons Ratio (x) = 0.35721 0.43721
# Poissons Ratio (y) = 0.25033 0.32423
# Poissons Ratio (z) = 0.33713 0.35677
#
# Static dielectric constant tensor:
#      x y z
#    x 2.238920 0.000000 0.000000 
#    y 0.000000 1.995330 0.000000 
#    z 0.000000 0.000000 2.147890 
# 
# From -- ./inp_files/7050.got.cif
#   From: 2010.05.17/outbox.cif.g08.bks.cpg/sg61_4_cif.got.tgz:7050.got - 2010.06.03 15:17:17.
