data_PCOD9461317
_publ_section_title
;
Structure prediction by ZEFSAII (Michael W. Deem and Ramdas Pophale) SiO2 
 PCOD9461317
Probable space group: P N M A
;
_chemical_formula_sum "Si O2"
_cell_formula_units_Z 40
_cell_length_a 7.853630
_cell_length_b 13.885393
_cell_length_c 13.086831
_cell_angle_alpha 90.000000
_cell_angle_beta 90.000000
_cell_angle_gamma 90.000000
_cell_volume 1427.128592
_symmetry_space_group_name_H-M "P N M A"
_symmetry_group_IT_number 62
_symmetry_cell_setting 'orthorhombic'
loop_
_space_group_symop_operation_xyz
x,y,z
1/2-x,-y,1/2+z
1/2+x,1/2-y,1/2-z
-x,1/2+y,-z
-x,-y,-z
1/2+x,y,1/2-z
1/2-x,1/2+y,1/2+z
x,1/2-y,z
loop_
_atom_site_type_symbol
_atom_site_label
_atom_site_fract_x
_atom_site_fract_y
_atom_site_fract_z
Si Si1 0.092506 0.144333 0.333967
Si Si2 0.830887 0.865483 0.354633
Si Si3 0.643676 0.635721 0.005443
Si Si4 0.345248 0.985015 0.343850
Si Si5 0.412381 0.356482 0.477511
O O1 0.085551 0.250000 0.280360
O O2 0.910801 0.124279 0.387309
O O3 0.221074 0.159201 0.429663
O O4 0.185781 0.048686 0.296615
O O5 0.834115 0.750000 0.346578
O O6 0.987903 0.900026 0.424259
O O7 0.867231 0.909368 0.244928
O O8 0.649586 0.887879 0.409452
O O9 0.657662 0.750000 0.023023
O O10 0.798695 0.576016 0.052939
O O11 0.467434 0.069094 0.388904
O O12 0.492629 0.250000 0.477245
#
# Coordination Sequence:
#
# PCOD9461317 Si02
#       5
#     8   8   8   8   8
#     4   7  13  24  39  58  80 105 131 169 211 241
#     4   9  17  27  39  63  90 109 136 176 212 246
#     4   9  16  26  40  64  91 108 133 176 214 246
#     4  10  15  24  47  63  78 114 146 166 205 256
#     4   7  14  27  42  59  84 112 137 171 211 245
#
# _framework density 28.028307999999999
#
# number of rings (size 3 to 8) (size 9 to 14) (size 15 to 20)
#    1.200    2.400    0.000    3.600    0.000    0.000 
#    0.000    0.000    0.000   10.800    0.000    0.000 
#    0.000    0.000    0.000    0.000    0.000    0.000 
#
# Total GULP energy -222877.966095 kJ/mol
# GULP energy per Si atom -5571.949152 kJ/mol
# Density = 2.796451 g / cm^3
# Si number density = 28.028308 Si / 1000 Ang^3
#
#
#
# Elastic Constant Matrix: (Units=GPa)
#
#
# Indices 1 2 3 4 5 6 
#
# 1 49.5473 -8.2925 21.2509 0.0000 0.0000 0.0000
# 2 -8.2925 140.3207 32.8437 0.0000 0.0000 0.0000
# 3 21.2509 32.8437 78.3285 0.0000 0.0000 0.0000
# 4 0.0000 0.0000 0.0000 42.7322 0.0000 0.0000
# 5 0.0000 0.0000 0.0000 0.0000 26.6443 0.0000
# 6 0.0000 0.0000 0.0000 0.0000 0.0000 21.7689
#
#
#
# Elastic Compliance Matrix: (Units=1/GPa)
#
#
# Indices 1 2 3 4 5 6 
#
# 1 0.024129 0.003280 -0.007922 0.000000 0.000000 0.000000
# 2 0.003280 0.008348 -0.004390 0.000000 0.000000 0.000000
# 3 -0.007922 -0.004390 0.016757 0.000000 0.000000 0.000000
# 4 0.000000 0.000000 0.000000 0.023402 0.000000 0.000000
# 5 0.000000 0.000000 0.000000 0.000000 0.037531 0.000000
# 6 0.000000 0.000000 0.000000 0.000000 0.000000 0.045937
#
#
# Mechanical properties :
#
#
# Convention : Reuss Voigt Hill
#
# Bulk Modulus (GPa) = 32.08176 39.97784 36.02980
# Shear Modulus (GPa) = 27.09169 33.05537 30.07353
#
# Velocity S-wave (km/s) = 3.11236 3.43790 3.27918
# Velocity P-wave (km/s) = 4.93830 5.48208 5.21728
#
# Compressibility (1/GPa) = 0.03117036
#
# Stress axis : x y z
#
# Youngs Moduli (GPa) = 41.44320 119.78943 59.67708
#
# Poissons Ratio (x) = -0.39293 0.47275
# Poissons Ratio (y) = -0.13594 0.26200
# Poissons Ratio (z) = 0.32831 0.52591
#
# Static dielectric constant tensor:
#      x y z
#    x 2.423590 0.000000 0.000000 
#    y 0.000000 2.179200 0.000000 
#    z 0.000000 0.000000 2.179810 
# 
# From -- ./inp_files/17877.got.cif
#   From: 2010.05.17/outbox.cif.g08.bks.cpg/sg62_9_cif.got.tgz:17877.got - 2010.06.03 15:25:27.
