data_PCOD9461525
_publ_section_title
;
Structure prediction by ZEFSAII (Michael W. Deem and Ramdas Pophale) SiO2 
 PCOD9461525
Probable space group: P N M A
;
_chemical_formula_sum "Si O2"
_cell_formula_units_Z 32
_cell_length_a 28.511343
_cell_length_b 5.559898
_cell_length_c 8.332306
_cell_angle_alpha 90.000000
_cell_angle_beta 90.000000
_cell_angle_gamma 90.000000
_cell_volume 1320.838471
_symmetry_space_group_name_H-M "P N M A"
_symmetry_group_IT_number 62
_symmetry_cell_setting 'orthorhombic'
loop_
_space_group_symop_operation_xyz
x,y,z
1/2-x,-y,1/2+z
1/2+x,1/2-y,1/2-z
-x,1/2+y,-z
-x,-y,-z
1/2+x,y,1/2-z
1/2-x,1/2+y,1/2+z
x,1/2-y,z
loop_
_atom_site_type_symbol
_atom_site_label
_atom_site_fract_x
_atom_site_fract_y
_atom_site_fract_z
Si Si1 0.868295 0.250000 0.701542
Si Si2 0.298906 0.750000 0.872266
Si Si3 0.475658 0.750000 0.554041
Si Si4 0.659787 0.250000 0.803291
Si Si5 0.119416 0.750000 0.673106
Si Si6 0.735006 0.750000 0.188096
Si Si7 0.616044 0.250000 0.330278
Si Si8 0.009926 0.750000 0.593901
O O1 0.861486 0.250000 0.510359
O O2 0.815762 0.250000 0.776526
O O3 0.894198 0.489348 0.753709
O O4 0.269176 0.509116 0.897316
O O5 0.326533 0.750000 0.699580
O O6 0.340830 0.750000 0.001907
O O7 0.500000 0.500000 0.500000
O O8 0.419681 0.750000 0.519069
O O9 0.479789 0.750000 0.745846
O O10 0.637587 0.502384 0.749419
O O11 0.714943 0.250000 0.768984
O O12 0.063824 0.750000 0.651811
O O13 0.000000 0.500000 0.500000
#
# Coordination Sequence:
#
# PCOD9461525 Si02
#       8
#     4   4   4   4   4   4   4   4
#     4  10  17  35  60  90 115 158 216 283 323 404
#     4  10  19  37  59  87 117 160 218 272 313 407
#     4  12  26  45  70 100 147 189 219 294 372 437
#     4  12  21  36  63  90 126 168 209 286 347 403
#     4  12  21  38  64  93 130 165 215 298 357 382
#     4  10  20  33  58  86 119 156 209 252 336 400
#     4  10  18  35  64  85 114 166 221 255 328 411
#     4  12  26  45  76 113 136 184 257 304 346 438
#
# _framework density 24.227035999999998
#
# number of rings (size 3 to 8) (size 9 to 14) (size 15 to 20)
#    0.000    1.000    5.000    4.500    0.000    0.000 
#    0.000    0.000   33.000    0.000    0.000    0.000 
#    0.000    0.000    0.000    0.000    0.000    0.000 
#
# Total GULP energy -178242.275196 kJ/mol
# GULP energy per Si atom -5570.071100 kJ/mol
# Density = 2.417189 g / cm^3
# Si number density = 24.227036 Si / 1000 Ang^3
#
#
#
# Elastic Constant Matrix: (Units=GPa)
#
#
# Indices 1 2 3 4 5 6 
#
# 1 146.1134 67.3070 30.6149 0.0000 0.0000 0.0000
# 2 67.3070 304.3701 49.1479 0.0000 0.0000 0.0000
# 3 30.6149 49.1479 34.1371 0.0000 0.0000 0.0000
# 4 0.0000 0.0000 0.0000 29.2738 0.0000 0.0000
# 5 0.0000 0.0000 0.0000 0.0000 31.2133 0.0000
# 6 0.0000 0.0000 0.0000 0.0000 0.0000 40.7814
#
#
#
# Elastic Compliance Matrix: (Units=1/GPa)
#
#
# Indices 1 2 3 4 5 6 
#
# 1 0.008595 -0.000855 -0.006478 0.000000 0.000000 0.000000
# 2 -0.000855 0.004366 -0.005519 0.000000 0.000000 0.000000
# 3 -0.006478 -0.005519 0.043049 0.000000 0.000000 0.000000
# 4 0.000000 0.000000 0.000000 0.034160 0.000000 0.000000
# 5 0.000000 0.000000 0.000000 0.000000 0.032038 0.000000
# 6 0.000000 0.000000 0.000000 0.000000 0.000000 0.024521
#
#
# Mechanical properties :
#
#
# Convention : Reuss Voigt Hill
#
# Bulk Modulus (GPa) = 32.99585 86.52893 59.76239
# Shear Modulus (GPa) = 27.39239 42.75709 35.07474
#
# Velocity S-wave (km/s) = 3.36617 4.20557 3.80906
# Velocity P-wave (km/s) = 5.36257 7.70557 6.63826
#
# Compressibility (1/GPa) = 0.03030684
#
# Stress axis : x y z
#
# Youngs Moduli (GPa) = 116.34720 229.06291 23.22960
#
# Poissons Ratio (x) = 0.19577 0.15047
# Poissons Ratio (y) = 0.09944 0.12820
# Poissons Ratio (z) = 0.75366 1.26415
#
# Static dielectric constant tensor:
#      x y z
#    x 2.101460 0.000000 0.000000 
#    y 0.000000 1.981720 0.000000 
#    z 0.000000 0.000000 2.015530 
# 
# From -- ./inp_files/9638.got.cif
#   From: 2010.05.17/outbox.cif.g08.bks.cpg/sg62_5_cif.got.tgz:9638.got - 2010.06.03 15:25:27.
