data_PCOD9461779
_publ_section_title
;
Structure prediction by ZEFSAII (Michael W. Deem and Ramdas Pophale) SiO2 
 PCOD9461779
Probable space group: P N M A
;
_chemical_formula_sum "Si O2"
_cell_formula_units_Z 64
_cell_length_a 15.000276
_cell_length_b 7.361905
_cell_length_c 25.393263
_cell_angle_alpha 90.000000
_cell_angle_beta 90.000000
_cell_angle_gamma 90.000000
_cell_volume 2804.193444
_symmetry_space_group_name_H-M "P N M A"
_symmetry_group_IT_number 62
_symmetry_cell_setting 'orthorhombic'
loop_
_space_group_symop_operation_xyz
x,y,z
1/2-x,-y,1/2+z
1/2+x,1/2-y,1/2-z
-x,1/2+y,-z
-x,-y,-z
1/2+x,y,1/2-z
1/2-x,1/2+y,1/2+z
x,1/2-y,z
loop_
_atom_site_type_symbol
_atom_site_label
_atom_site_fract_x
_atom_site_fract_y
_atom_site_fract_z
Si Si1 0.149803 0.971299 0.600869
Si Si2 0.278128 0.968763 0.513701
Si Si3 0.468817 0.967406 0.939860
Si Si4 0.040664 0.034123 0.056953
Si Si5 0.988663 0.971694 0.828341
Si Si6 0.222368 0.460400 0.402414
Si Si7 0.214982 0.471636 0.192913
Si Si8 0.319547 0.027835 0.297583
O O1 0.150203 0.750000 0.602704
O O2 0.189758 0.025400 0.544133
O O3 0.217833 0.030221 0.646236
O O4 0.047443 0.030261 0.599471
O O5 0.280418 0.750000 0.511642
O O6 0.358617 0.031787 0.550310
O O7 0.283993 0.033830 0.454229
O O8 0.463930 0.750000 0.935742
O O9 0.372111 0.039760 0.922321
O O10 0.500000 0.000000 0.000000
O O11 0.043793 0.250000 0.063257
O O12 0.997629 0.968121 0.110782
O O13 0.000000 0.000000 0.000000
O O14 0.987908 0.750000 0.826062
O O15 0.888483 0.029397 0.812331
O O16 0.076626 0.029510 0.796637
O O17 0.205662 0.250000 0.389487
O O18 0.271615 0.535496 0.351323
O O19 0.212853 0.250000 0.190668
O O20 0.261055 0.525908 0.247505
O O21 0.321123 0.250000 0.298100
#
# Coordination Sequence:
#
# PCOD9461779 Si02
#       8
#     8   8   8   8   8   8   8   8
#     4   9  16  28  45  66  91 122 162 202 231 274
#     4  10  18  30  49  70  94 129 167 198 234 291
#     4  10  19  30  47  69  98 131 162 198 243 290
#     4  10  19  30  47  71  99 130 162 197 242 291
#     4   9  16  28  44  64  92 124 156 196 242 284
#     4  10  20  32  46  72 104 129 156 201 253 293
#     4   9  16  28  46  66  91 126 164 198 236 286
#     4   9  18  29  43  66  97 126 154 196 247 289
#
# _framework density 22.822962
#
# number of rings (size 3 to 8) (size 9 to 14) (size 15 to 20)
#    0.000    2.500    2.500    0.750    0.000    2.500 
#    0.000    5.000    0.000    0.000    0.000    2.625 
#    0.000    0.000    0.000    0.000    0.000    0.000 
#
# Total GULP energy -357126.017722 kJ/mol
# GULP energy per Si atom -5580.094027 kJ/mol
# Density = 2.277102 g / cm^3
# Si number density = 22.822962 Si / 1000 Ang^3
#
#
#
# Elastic Constant Matrix: (Units=GPa)
#
#
# Indices 1 2 3 4 5 6 
#
# 1 142.6432 7.3785 68.0270 0.0000 0.0000 0.0000
# 2 7.3785 80.3243 -2.1044 0.0000 0.0000 0.0000
# 3 68.0270 -2.1044 141.7051 0.0000 0.0000 0.0000
# 4 0.0000 0.0000 0.0000 9.9516 0.0000 0.0000
# 5 0.0000 0.0000 0.0000 0.0000 34.2832 0.0000
# 6 0.0000 0.0000 0.0000 0.0000 0.0000 -2.1750
#
#
#
# Elastic Compliance Matrix: (Units=1/GPa)
#
#
# Indices 1 2 3 4 5 6 
#
# 1 0.009165 -0.000958 -0.004414 0.000000 0.000000 0.000000
# 2 -0.000958 0.012554 0.000646 0.000000 0.000000 0.000000
# 3 -0.004414 0.000646 0.009186 0.000000 0.000000 0.000000
# 4 0.000000 0.000000 0.000000 0.100487 0.000000 0.000000
# 5 0.000000 0.000000 0.000000 0.000000 0.029169 0.000000
# 6 0.000000 0.000000 0.000000 0.000000 0.000000 -0.459777
#
#
# Mechanical properties :
#
#
# Convention : Reuss Voigt Hill
#
# Bulk Modulus (GPa) = 46.61107 56.80832 51.70970
# Shear Modulus (GPa) = -17.69196 27.83672 5.07238
#
# Velocity S-wave (km/s) = -2.78723 3.49618 1.49242
# Velocity P-wave (km/s) = 3.17947 6.42204 5.06713
#
# Compressibility (1/GPa) = 0.02145413
#
# Stress axis : x y z
#
# Youngs Moduli (GPa) = 109.10968 79.65319 108.86719
#
# Poissons Ratio (x) = 0.07627 0.48054
# Poissons Ratio (y) = 0.10448 -0.07034
# Poissons Ratio (z) = 0.48161 -0.05147
#
# Static dielectric constant tensor:
#      x y z
#    x 1.882890 0.000000 0.000000 
#    y 0.000000 1.939150 0.000000 
#    z 0.000000 0.000000 1.811080 
# 
# From -- ./inp_files/29930.got.cif
#   From: 2010.05.17/outbox.cif.g08.bks.cpg/sg62_15_cif.got.tgz:29930.got - 2010.06.03 15:25:27.
