data_PCOD9461210
_publ_section_title
;
Structure prediction by ZEFSAII (Michael W. Deem and Ramdas Pophale) SiO2 
 PCOD9461210
Probable space group: P B C A
;
_chemical_formula_sum "Si O2"
_cell_formula_units_Z 48
_cell_length_a 17.264381
_cell_length_b 13.376177
_cell_length_c 8.174893
_cell_angle_alpha 90.000000
_cell_angle_beta 90.000000
_cell_angle_gamma 90.000000
_cell_volume 1887.839617
_symmetry_space_group_name_H-M "P B C A"
_symmetry_group_IT_number 61
_symmetry_cell_setting 'orthorhombic'
loop_
_space_group_symop_operation_xyz
x,y,z
1/2-x,-y,1/2+z
1/2+x,1/2-y,-z
-x,1/2+y,1/2-z
-x,-y,-z
1/2+x,y,1/2-z
1/2-x,1/2+y,z
x,1/2-y,1/2+z
loop_
_atom_site_type_symbol
_atom_site_label
_atom_site_fract_x
_atom_site_fract_y
_atom_site_fract_z
Si Si1 0.466363 0.780470 0.979793
Si Si2 0.639060 0.717186 0.871500
Si Si3 0.839247 0.403312 0.034589
Si Si4 0.185172 0.519580 0.461076
Si Si5 0.438853 0.530979 0.690835
Si Si6 0.580842 0.402172 0.815951
O O1 0.551913 0.756462 0.909137
O O2 0.414136 0.833157 0.843032
O O3 0.437604 0.674365 0.039712
O O4 0.460640 0.858709 0.130656
O O5 0.645573 0.662806 0.696927
O O6 0.508812 0.476386 0.784148
O O7 0.685496 0.820183 0.899309
O O8 0.667100 0.635457 0.003965
O O9 0.772332 0.484075 0.057457
O O10 0.913204 0.464507 0.966595
O O11 0.135130 0.478985 0.309017
O O12 0.152107 0.465737 0.623306
#
# Coordination Sequence:
#
# PCOD9461210 Si02
#       6
#     8   8   8   8   8   8
#     4  12  26  45  77 114 149 204 264 324 398 463
#     4  12  26  49  80 108 154 208 265 320 408 472
#     4  12  28  49  79 112 159 212 264 326 400 485
#     4  12  28  49  77 114 160 210 259 331 402 474
#     4  12  26  48  76 116 156 204 265 329 388 470
#     4  12  26  44  77 112 156 200 260 327 380 469
#
# _framework density 25.425886999999999
#
# number of rings (size 3 to 8) (size 9 to 14) (size 15 to 20)
#    0.000    0.000    3.333    6.000    4.667    4.000 
#    0.000    0.000    0.000    0.000    0.000    0.000 
#    0.000    0.000    0.000    0.000    0.000    0.000 
#
# Total GULP energy -269193.215624 kJ/mol
# GULP energy per Si atom -5608.191992 kJ/mol
# Density = 2.536802 g / cm^3
# Si number density = 25.425887 Si / 1000 Ang^3
#
#
#
# Elastic Constant Matrix: (Units=GPa)
#
#
# Indices 1 2 3 4 5 6 
#
# 1 73.4177 49.2466 27.5161 0.0000 0.0000 0.0000
# 2 49.2466 158.5517 32.9561 0.0000 0.0000 0.0000
# 3 27.5161 32.9561 103.4071 0.0000 0.0000 0.0000
# 4 0.0000 0.0000 0.0000 64.1929 0.0000 0.0000
# 5 0.0000 0.0000 0.0000 0.0000 13.8395 0.0000
# 6 0.0000 0.0000 0.0000 0.0000 0.0000 36.4363
#
#
#
# Elastic Compliance Matrix: (Units=1/GPa)
#
#
# Indices 1 2 3 4 5 6 
#
# 1 0.018172 -0.004968 -0.003252 0.000000 0.000000 0.000000
# 2 -0.004968 0.008113 -0.001264 0.000000 0.000000 0.000000
# 3 -0.003252 -0.001264 0.010939 0.000000 0.000000 0.000000
# 4 0.000000 0.000000 0.000000 0.015578 0.000000 0.000000
# 5 0.000000 0.000000 0.000000 0.000000 0.072257 0.000000
# 6 0.000000 0.000000 0.000000 0.000000 0.000000 0.027445
#
#
# Mechanical properties :
#
#
# Convention : Reuss Voigt Hill
#
# Bulk Modulus (GPa) = 54.77753 61.64603 58.21178
# Shear Modulus (GPa) = 28.15993 37.93758 33.04875
#
# Velocity S-wave (km/s) = 3.33157 3.86694 3.60920
# Velocity P-wave (km/s) = 6.03240 6.65099 6.34923
#
# Compressibility (1/GPa) = 0.01825566
#
# Stress axis : x y z
#
# Youngs Moduli (GPa) = 55.02915 123.26024 91.41958
#
# Poissons Ratio (x) = 0.61240 0.29731
# Poissons Ratio (y) = 0.27340 0.11551
# Poissons Ratio (z) = 0.17896 0.15575
#
# Static dielectric constant tensor:
#      x y z
#    x 1.961500 0.000000 0.000000 
#    y 0.000000 1.977030 0.000000 
#    z 0.000000 0.000000 2.136610 
# 
# From -- ./inp_files/4224.got.cif
#   From: 2010.05.17/outbox.cif.g08.bks.cpg/sg61_3_cif.got.tgz:4224.got - 2010.06.03 15:17:17.
