data_PCOD9461353
_publ_section_title
;
Structure prediction by ZEFSAII (Michael W. Deem and Ramdas Pophale) SiO2 
 PCOD9461353
Probable space group: P N M A
;
_chemical_formula_sum "Si O2"
_cell_formula_units_Z 64
_cell_length_a 5.324951
_cell_length_b 29.077993
_cell_length_c 23.341996
_cell_angle_alpha 90.000000
_cell_angle_beta 90.000000
_cell_angle_gamma 90.000000
_cell_volume 3614.248702
_symmetry_space_group_name_H-M "P N M A"
_symmetry_group_IT_number 62
_symmetry_cell_setting 'orthorhombic'
loop_
_space_group_symop_operation_xyz
x,y,z
1/2-x,-y,1/2+z
1/2+x,1/2-y,1/2-z
-x,1/2+y,-z
-x,-y,-z
1/2+x,y,1/2-z
1/2-x,1/2+y,1/2+z
x,1/2-y,z
loop_
_atom_site_type_symbol
_atom_site_label
_atom_site_fract_x
_atom_site_fract_y
_atom_site_fract_z
Si Si1 0.235961 0.306028 0.471674
Si Si2 0.675771 0.603456 0.194434
Si Si3 0.670444 0.303343 0.670357
Si Si4 0.823834 0.804592 0.399915
Si Si5 0.263900 0.805510 0.597243
Si Si6 0.792907 0.968539 0.788454
Si Si7 0.280893 0.636091 0.711399
Si Si8 0.674109 0.566077 0.322209
O O1 0.235199 0.250000 0.103017
O O2 0.216091 0.324154 0.536674
O O3 0.494339 0.318903 0.440644
O O4 0.992312 0.319288 0.434917
O O5 0.744630 0.655651 0.212046
O O6 0.652912 0.574866 0.253160
O O7 0.416227 0.595757 0.161281
O O8 0.906039 0.583991 0.157431
O O9 0.672477 0.250000 0.690871
O O10 0.398918 0.315755 0.644695
O O11 0.891368 0.308440 0.622835
O O12 0.784446 0.750000 0.406169
O O13 0.766947 0.750000 0.526377
O O14 0.279378 0.828938 0.658958
O O15 0.552980 0.972852 0.746610
O O16 0.784617 0.012037 0.830678
O O17 0.782950 0.916636 0.811546
O O18 0.530498 0.641776 0.750120
#
# Coordination Sequence:
#
# PCOD9461353 Si02
#       8
#     8   8   8   8   8   8   8   8
#     4   9  17  30  49  67  87 120 159 196 223 256
#     4  10  18  28  45  65  88 119 153 183 228 266
#     4  10  19  30  43  65  97 122 146 185 227 277
#     4   9  17  30  47  65  88 120 152 188 237 266
#     4  10  19  31  46  68  97 126 159 187 212 260
#     4  10  16  30  47  65  86 116 147 192 238 252
#     4  10  21  31  46  68  97 130 151 186 219 272
#     4  10  17  30  45  63  86 119 149 195 228 259
#
# _framework density 17.707691000000001
#
# number of rings (size 3 to 8) (size 9 to 14) (size 15 to 20)
#    0.000    2.250    2.500    2.250    0.000    3.500 
#    0.000    2.500    0.000    0.000    0.000    0.000 
#    0.000   20.000    0.000    0.000    0.000    0.000 
#
# Total GULP energy -356417.025682 kJ/mol
# GULP energy per Si atom -5569.016026 kJ/mol
# Density = 1.766739 g / cm^3
# Si number density = 17.707691 Si / 1000 Ang^3
#
#
#
# Elastic Constant Matrix: (Units=GPa)
#
#
# Indices 1 2 3 4 5 6 
#
# 1 132.6748 11.5521 6.2254 0.0000 0.0000 0.0000
# 2 11.5521 55.3458 10.3806 0.0000 0.0000 0.0000
# 3 6.2254 10.3806 29.2888 0.0000 0.0000 0.0000
# 4 0.0000 0.0000 0.0000 3.9215 0.0000 0.0000
# 5 0.0000 0.0000 0.0000 0.0000 13.8702 0.0000
# 6 0.0000 0.0000 0.0000 0.0000 0.0000 16.9108
#
#
#
# Elastic Compliance Matrix: (Units=1/GPa)
#
#
# Indices 1 2 3 4 5 6 
#
# 1 0.007712 -0.001395 -0.001145 0.000000 0.000000 0.000000
# 2 -0.001395 0.019607 -0.006653 0.000000 0.000000 0.000000
# 3 -0.001145 -0.006653 0.036744 0.000000 0.000000 0.000000
# 4 0.000000 0.000000 0.000000 0.255004 0.000000 0.000000
# 5 0.000000 0.000000 0.000000 0.000000 0.072097 0.000000
# 6 0.000000 0.000000 0.000000 0.000000 0.000000 0.059134
#
#
# Mechanical properties :
#
#
# Convention : Reuss Voigt Hill
#
# Bulk Modulus (GPa) = 21.89225 30.40287 26.14756
# Shear Modulus (GPa) = 10.33250 19.55059 14.94154
#
# Velocity S-wave (km/s) = 2.41820 3.32636 2.90795
# Velocity P-wave (km/s) = 4.49298 5.65327 5.10619
#
# Compressibility (1/GPa) = 0.04567826
#
# Stress axis : x y z
#
# Youngs Moduli (GPa) = 129.66113 51.00168 27.21538
#
# Poissons Ratio (x) = 0.07115 0.03116
# Poissons Ratio (y) = 0.18088 0.18106
# Poissons Ratio (z) = 0.14844 0.33930
#
# Static dielectric constant tensor:
#      x y z
#    x 1.675880 0.000000 0.000000 
#    y 0.000000 1.642530 0.000000 
#    z 0.000000 0.000000 1.587320 
# 
# From -- ./inp_files/28481.got.cif
#   From: 2010.05.17/outbox.cif.g08.bks.cpg/sg62_15_cif.got.tgz:28481.got - 2010.06.03 15:25:27.
