data_PCOD9461370
_publ_section_title
;
Structure prediction by ZEFSAII (Michael W. Deem and Ramdas Pophale) SiO2 
 PCOD9461370
Probable space group: P N M A
;
_chemical_formula_sum "Si O2"
_cell_formula_units_Z 56
_cell_length_a 13.470918
_cell_length_b 11.614422
_cell_length_c 14.364664
_cell_angle_alpha 90.000000
_cell_angle_beta 90.000000
_cell_angle_gamma 90.000000
_cell_volume 2247.451178
_symmetry_space_group_name_H-M "P N M A"
_symmetry_group_IT_number 62
_symmetry_cell_setting 'orthorhombic'
loop_
_space_group_symop_operation_xyz
x,y,z
1/2-x,-y,1/2+z
1/2+x,1/2-y,1/2-z
-x,1/2+y,-z
-x,-y,-z
1/2+x,y,1/2-z
1/2-x,1/2+y,1/2+z
x,1/2-y,z
loop_
_atom_site_type_symbol
_atom_site_label
_atom_site_fract_x
_atom_site_fract_y
_atom_site_fract_z
Si Si1 0.242897 0.126709 0.285512
Si Si2 0.274074 0.121091 0.812186
Si Si3 0.075901 0.131945 0.422258
Si Si4 0.926795 0.880547 0.874523
Si Si5 0.416780 0.551166 0.124794
Si Si6 0.018727 0.622956 0.198055
Si Si7 0.733430 0.881266 0.970721
O O1 0.297833 0.250000 0.274870
O O2 0.186872 0.130641 0.384544
O O3 0.152527 0.127630 0.211027
O O4 0.283960 0.997013 0.286606
O O5 0.230795 0.250000 0.803043
O O6 0.372187 0.121605 0.747536
O O7 0.299411 0.110555 0.922231
O O8 0.028543 0.250000 0.388704
O O9 0.074439 0.127056 0.532512
O O10 0.010748 0.033168 0.379852
O O11 0.972488 0.750000 0.880764
O O12 0.851776 0.897684 0.961500
O O13 0.985991 0.000323 0.857709
O O14 0.439460 0.619487 0.217975
O O15 0.323683 0.469538 0.096453
O O16 0.010858 0.750000 0.150054
O O17 0.712958 0.750000 0.941232
#
# Coordination Sequence:
#
# PCOD9461370 Si02
#       7
#     8   8   8   8   8   8   8
#     4   9  15  27  42  58  81 115 149 175 204 250
#     4   9  15  27  42  61  85 113 144 178 209 246
#     4  10  17  24  38  63  90 115 144 174 209 254
#     4   9  18  32  44  57  84 123 156 181 211 255
#     4  11  17  26  40  63  90 115 145 180 215 255
#     4  10  19  31  46  64  88 121 153 179 214 262
#     4  10  19  28  41  63  91 118 149 185 219 251
#
# _framework density 24.917116
#
# number of rings (size 3 to 8) (size 9 to 14) (size 15 to 20)
#    0.000    2.286    4.286    1.714    0.000    1.714 
#    0.000    2.143    0.000    0.000    0.000    0.000 
#    0.000    4.571    0.000    9.429    0.000    9.143 
#
# Total GULP energy -312014.290752 kJ/mol
# GULP energy per Si atom -5571.683763 kJ/mol
# Density = 2.486040 g / cm^3
# Si number density = 24.917116 Si / 1000 Ang^3
#
#
#
# Elastic Constant Matrix: (Units=GPa)
#
#
# Indices 1 2 3 4 5 6 
#
# 1 45.5493 32.6767 10.7494 0.0000 0.0000 0.0000
# 2 32.6767 264.6804 31.4672 0.0000 0.0000 0.0000
# 3 10.7494 31.4672 21.4341 0.0000 0.0000 0.0000
# 4 0.0000 0.0000 0.0000 15.6931 0.0000 0.0000
# 5 0.0000 0.0000 0.0000 0.0000 22.2537 0.0000
# 6 0.0000 0.0000 0.0000 0.0000 0.0000 16.9195
#
#
#
# Elastic Compliance Matrix: (Units=1/GPa)
#
#
# Indices 1 2 3 4 5 6 
#
# 1 0.025739 -0.001990 -0.009986 0.000000 0.000000 0.000000
# 2 -0.001990 0.004731 -0.005947 0.000000 0.000000 0.000000
# 3 -0.009986 -0.005947 0.060394 0.000000 0.000000 0.000000
# 4 0.000000 0.000000 0.000000 0.063722 0.000000 0.000000
# 5 0.000000 0.000000 0.000000 0.000000 0.044936 0.000000
# 6 0.000000 0.000000 0.000000 0.000000 0.000000 0.059103
#
#
# Mechanical properties :
#
#
# Convention : Reuss Voigt Hill
#
# Bulk Modulus (GPa) = 18.17653 53.49448 35.83551
# Shear Modulus (GPa) = 15.98405 28.09130 22.03768
#
# Velocity S-wave (km/s) = 2.53551 3.36131 2.97718
# Velocity P-wave (km/s) = 3.98527 6.04815 5.12164
#
# Compressibility (1/GPa) = 0.05501601
#
# Stress axis : x y z
#
# Youngs Moduli (GPa) = 38.85177 211.37540 16.55797
#
# Poissons Ratio (x) = 0.42072 0.16535
# Poissons Ratio (y) = 0.07733 0.09847
# Poissons Ratio (z) = 0.38798 1.25709
#
# Static dielectric constant tensor:
#      x y z
#    x 1.971720 0.000000 0.000000 
#    y 0.000000 2.046630 0.000000 
#    z 0.000000 0.000000 2.013510 
# 
# From -- ./inp_files/24429.got.cif
#   From: 2010.05.17/outbox.cif.g08.bks.cpg/sg62_13_cif.got.tgz:24429.got - 2010.06.03 15:25:27.
