data_PCOD9461807
_publ_section_title
;
Structure prediction by ZEFSAII (Michael W. Deem and Ramdas Pophale) SiO2 
 PCOD9461807
Probable space group: P N M A
;
_chemical_formula_sum "Si O2"
_cell_formula_units_Z 64
_cell_length_a 20.859902
_cell_length_b 7.575186
_cell_length_c 20.196434
_cell_angle_alpha 90.000000
_cell_angle_beta 90.000000
_cell_angle_gamma 90.000000
_cell_volume 3191.392788
_symmetry_space_group_name_H-M "P N M A"
_symmetry_group_IT_number 62
_symmetry_cell_setting 'orthorhombic'
loop_
_space_group_symop_operation_xyz
x,y,z
1/2-x,-y,1/2+z
1/2+x,1/2-y,1/2-z
-x,1/2+y,-z
-x,-y,-z
1/2+x,y,1/2-z
1/2-x,1/2+y,1/2+z
x,1/2-y,z
loop_
_atom_site_type_symbol
_atom_site_label
_atom_site_fract_x
_atom_site_fract_y
_atom_site_fract_z
Si Si1 0.134559 0.462350 0.327343
Si Si2 0.193255 0.453967 0.459533
Si Si3 0.479826 0.044199 0.319309
Si Si4 0.628956 0.540293 0.322068
Si Si5 0.066555 0.539732 0.536861
Si Si6 0.936323 0.038039 0.041657
Si Si7 0.513266 0.533607 0.826303
Si Si8 0.186652 0.966360 0.041922
O O1 0.132845 0.250000 0.333208
O O2 0.178692 0.531769 0.386829
O O3 0.153528 0.503512 0.252010
O O4 0.060749 0.522979 0.336732
O O5 0.211800 0.250000 0.448146
O O6 0.126280 0.458711 0.498708
O O7 0.248941 0.529796 0.505938
O O8 0.461837 0.250000 0.316611
O O9 0.446392 0.966617 0.384127
O O10 0.466098 0.970358 0.246353
O O11 0.556968 0.035529 0.328088
O O12 0.621367 0.750000 0.328731
O O13 0.673136 0.476987 0.382523
O O14 0.076085 0.750000 0.536975
O O15 0.000000 0.500000 0.500000
O O16 0.056700 0.478240 0.612368
O O17 0.930911 0.250000 0.046159
O O18 0.874068 0.976833 0.002175
O O19 0.000000 0.000000 0.000000
O O20 0.512500 0.750000 0.825746
O O21 0.188242 0.750000 0.043713
#
# Coordination Sequence:
#
# PCOD9461807 Si02
#       8
#     8   8   8   8   8   8   8   8
#     4   9  17  32  52  73  98 132 173 212 255 308
#     4  10  20  37  55  73 103 143 179 216 257 310
#     4   9  17  30  50  74 101 134 169 209 258 311
#     4  10  18  30  50  76 104 131 167 215 258 310
#     4  11  20  33  53  78 106 134 170 217 263 311
#     4  10  18  31  52  77 102 132 172 214 256 310
#     4   8  15  29  47  72 102 128 160 207 257 299
#     4   9  19  34  52  75 105 139 174 210 260 313
#
# _framework density 20.053939
#
# number of rings (size 3 to 8) (size 9 to 14) (size 15 to 20)
#    0.000    2.500    2.500    1.500    0.000    0.500 
#    0.000    3.750    0.000    3.000    0.000    0.000 
#    0.000    0.000    0.000    0.000    0.000    0.000 
#
# Total GULP energy -356977.316252 kJ/mol
# GULP energy per Si atom -5577.770566 kJ/mol
# Density = 2.000830 g / cm^3
# Si number density = 20.053939 Si / 1000 Ang^3
#
#
#
# Elastic Constant Matrix: (Units=GPa)
#
#
# Indices 1 2 3 4 5 6 
#
# 1 88.2623 -11.9480 66.2650 0.0000 0.0000 0.0000
# 2 -11.9480 46.6497 -4.3182 0.0000 0.0000 0.0000
# 3 66.2650 -4.3182 203.7996 0.0000 0.0000 0.0000
# 4 0.0000 0.0000 0.0000 13.3513 0.0000 0.0000
# 5 0.0000 0.0000 0.0000 0.0000 28.9111 0.0000
# 6 0.0000 0.0000 0.0000 0.0000 0.0000 10.8695
#
#
#
# Elastic Compliance Matrix: (Units=1/GPa)
#
#
# Indices 1 2 3 4 5 6 
#
# 1 0.015545 0.003520 -0.004980 0.000000 0.000000 0.000000
# 2 0.003520 0.022276 -0.000673 0.000000 0.000000 0.000000
# 3 -0.004980 -0.000673 0.006512 0.000000 0.000000 0.000000
# 4 0.000000 0.000000 0.000000 0.074899 0.000000 0.000000
# 5 0.000000 0.000000 0.000000 0.000000 0.034589 0.000000
# 6 0.000000 0.000000 0.000000 0.000000 0.000000 0.092000
#
#
# Mechanical properties :
#
#
# Convention : Reuss Voigt Hill
#
# Bulk Modulus (GPa) = 24.95727 48.74548 36.85137
# Shear Modulus (GPa) = 18.97955 29.87390 24.42673
#
# Velocity S-wave (km/s) = 3.07974 3.86382 3.49385
# Velocity P-wave (km/s) = 5.01183 6.65323 5.88999
#
# Compressibility (1/GPa) = 0.04006849
#
# Stress axis : x y z
#
# Youngs Moduli (GPa) = 64.32852 44.89187 153.56897
#
# Poissons Ratio (x) = -0.15804 0.76476
# Poissons Ratio (y) = -0.22647 0.10330
# Poissons Ratio (z) = 0.32035 0.03020
#
# Static dielectric constant tensor:
#      x y z
#    x 1.673750 0.000000 0.000000 
#    y 0.000000 1.750000 0.000000 
#    z 0.000000 0.000000 1.751080 
# 
# From -- ./inp_files/27938.got.cif
#   From: 2010.05.17/outbox.cif.g08.bks.cpg/sg62_14_cif.got.tgz:27938.got - 2010.06.03 15:25:27.
