data_PCOD9461088
_publ_section_title
;
Structure prediction by ZEFSAII (Michael W. Deem and Ramdas Pophale) SiO2 
 PCOD9461088
Probable space group: P B C A
;
_chemical_formula_sum "Si O2"
_cell_formula_units_Z 48
_cell_length_a 8.678639
_cell_length_b 10.492976
_cell_length_c 23.163414
_cell_angle_alpha 90.000000
_cell_angle_beta 90.000000
_cell_angle_gamma 90.000000
_cell_volume 2109.370522
_symmetry_space_group_name_H-M "P B C A"
_symmetry_group_IT_number 61
_symmetry_cell_setting 'orthorhombic'
loop_
_space_group_symop_operation_xyz
x,y,z
1/2-x,-y,1/2+z
1/2+x,1/2-y,-z
-x,1/2+y,1/2-z
-x,-y,-z
1/2+x,y,1/2-z
1/2-x,1/2+y,z
x,1/2-y,1/2+z
loop_
_atom_site_type_symbol
_atom_site_label
_atom_site_fract_x
_atom_site_fract_y
_atom_site_fract_z
Si Si1 0.288203 0.151135 0.195134
Si Si2 0.436988 0.309985 0.814022
Si Si3 0.049479 0.052809 0.628132
Si Si4 0.791036 0.285842 0.426104
Si Si5 0.872756 0.660564 0.524760
Si Si6 0.754921 0.587256 0.084501
O O1 0.349848 0.210102 0.254029
O O2 0.373666 0.019539 0.181667
O O3 0.323319 0.236327 0.138597
O O4 0.105437 0.133308 0.198057
O O5 0.337611 0.398405 0.856011
O O6 0.468314 0.178890 0.847816
O O7 0.924600 0.965396 0.597528
O O8 0.182576 0.091856 0.583304
O O9 0.949508 0.312077 0.459415
O O10 0.680916 0.185109 0.459240
O O11 0.172455 0.479548 0.453829
O O12 0.776840 0.773058 0.557160
#
# Coordination Sequence:
#
# PCOD9461088 Si02
#       6
#     8   8   8   8   8   8
#     4  11  25  46  73 107 149 193 246 308 376 447
#     4  11  26  46  74 111 144 194 252 308 370 449
#     4  11  24  48  73 109 146 192 254 305 379 446
#     4  11  27  45  74 110 148 198 250 309 375 454
#     4  12  27  46  77 106 154 193 252 306 379 444
#     4  12  25  47  77 106 146 196 244 308 378 445
#
# _framework density 22.755604000000002
#
# number of rings (size 3 to 8) (size 9 to 14) (size 15 to 20)
#    0.000    0.667    3.333    3.000    4.667    8.667 
#    0.000    0.000    0.000    0.000    0.000    0.000 
#    0.000    0.000    0.000    0.000    0.000    0.000 
#
# Total GULP energy -268826.949834 kJ/mol
# GULP energy per Si atom -5600.561455 kJ/mol
# Density = 2.270381 g / cm^3
# Si number density = 22.755604 Si / 1000 Ang^3
#
#
#
# Elastic Constant Matrix: (Units=GPa)
#
#
# Indices 1 2 3 4 5 6 
#
# 1 120.6628 37.6212 42.5546 0.0000 0.0000 0.0000
# 2 37.6212 84.5575 37.2840 0.0000 0.0000 0.0000
# 3 42.5546 37.2840 115.7140 0.0000 0.0000 0.0000
# 4 0.0000 0.0000 0.0000 34.2281 0.0000 0.0000
# 5 0.0000 0.0000 0.0000 0.0000 39.3611 0.0000
# 6 0.0000 0.0000 0.0000 0.0000 0.0000 45.1700
#
#
#
# Elastic Compliance Matrix: (Units=1/GPa)
#
#
# Indices 1 2 3 4 5 6 
#
# 1 0.010295 -0.003393 -0.002693 0.000000 0.000000 0.000000
# 2 -0.003393 0.014903 -0.003554 0.000000 0.000000 0.000000
# 3 -0.002693 -0.003554 0.010777 0.000000 0.000000 0.000000
# 4 0.000000 0.000000 0.000000 0.029216 0.000000 0.000000
# 5 0.000000 0.000000 0.000000 0.000000 0.025406 0.000000
# 6 0.000000 0.000000 0.000000 0.000000 0.000000 0.022139
#
#
# Mechanical properties :
#
#
# Convention : Reuss Voigt Hill
#
# Bulk Modulus (GPa) = 59.89588 61.76155 60.82871
# Shear Modulus (GPa) = 36.34223 37.31682 36.82953
#
# Velocity S-wave (km/s) = 4.00067 4.05396 4.02740
# Velocity P-wave (km/s) = 6.90789 7.00806 6.95816
#
# Compressibility (1/GPa) = 0.01669564
#
# Stress axis : x y z
#
# Youngs Moduli (GPa) = 97.13270 67.10040 92.78655
#
# Poissons Ratio (x) = 0.22768 0.24986
# Poissons Ratio (y) = 0.32959 0.32976
# Poissons Ratio (z) = 0.26156 0.23848
#
# Static dielectric constant tensor:
#      x y z
#    x 1.831340 0.000000 0.000000 
#    y 0.000000 1.855580 0.000000 
#    z 0.000000 0.000000 1.841180 
# 
# From -- ./inp_files/10845.got.cif
#   From: 2010.05.17/outbox.cif.g08.bks.cpg/sg61_6_cif.got.tgz:10845.got - 2010.06.03 15:17:17.
