data_PCOD9461498
_publ_section_title
;
Structure prediction by ZEFSAII (Michael W. Deem and Ramdas Pophale) SiO2 
 PCOD9461498
Probable space group: P N M A
;
_chemical_formula_sum "Si O2"
_cell_formula_units_Z 64
_cell_length_a 19.060563
_cell_length_b 22.539078
_cell_length_c 8.427514
_cell_angle_alpha 90.000000
_cell_angle_beta 90.000000
_cell_angle_gamma 90.000000
_cell_volume 3620.523357
_symmetry_space_group_name_H-M "P N M A"
_symmetry_group_IT_number 62
_symmetry_cell_setting 'orthorhombic'
loop_
_space_group_symop_operation_xyz
x,y,z
1/2-x,-y,1/2+z
1/2+x,1/2-y,1/2-z
-x,1/2+y,-z
-x,-y,-z
1/2+x,y,1/2-z
1/2-x,1/2+y,1/2+z
x,1/2-y,z
loop_
_atom_site_type_symbol
_atom_site_label
_atom_site_fract_x
_atom_site_fract_y
_atom_site_fract_z
Si Si1 0.427521 0.577614 0.454895
Si Si2 0.010905 0.683337 0.919384
Si Si3 0.224735 0.457061 0.028837
Si Si4 0.168121 0.818481 0.060995
Si Si5 0.141806 0.905345 0.350864
Si Si6 0.022473 0.503015 0.251838
Si Si7 0.062193 0.600429 0.657961
Si Si8 0.202761 0.576138 0.853562
O O1 0.460491 0.641955 0.478153
O O2 0.344494 0.576327 0.469278
O O3 0.455822 0.537639 0.601381
O O4 0.459805 0.546761 0.300301
O O5 0.985284 0.750000 0.905559
O O6 0.022054 0.651950 0.750091
O O7 0.088032 0.683450 0.997714
O O8 0.244782 0.441045 0.210170
O O9 0.290239 0.436387 0.924183
O O10 0.210073 0.526220 0.989664
O O11 0.191999 0.750000 0.077067
O O12 0.163314 0.856592 0.222103
O O13 0.210380 0.859254 0.934260
O O14 0.089361 0.956485 0.288466
O O15 0.099410 0.877831 0.499277
O O16 0.990647 0.454305 0.371692
O O17 0.124561 0.576521 0.775016
#
# Coordination Sequence:
#
# PCOD9461498 Si02
#       8
#     8   8   8   8   8   8   8   8
#     4  10  18  31  55  79 103 143 179 228 275 329
#     4   9  18  34  55  75  98 137 186 231 268 320
#     4  11  21  33  55  84 117 141 178 234 292 334
#     4  10  20  36  56  76 105 146 190 228 269 327
#     4  11  21  33  53  86 112 146 184 224 280 344
#     4  10  17  32  54  78 111 140 182 226 279 329
#     4   9  19  31  52  80 110 136 177 232 284 325
#     4  10  19  34  52  80 109 142 180 227 282 338
#
# _framework density 17.677004
#
# number of rings (size 3 to 8) (size 9 to 14) (size 15 to 20)
#    0.000    2.000    2.500    2.625    0.000    0.500 
#    0.000    3.125    0.000    0.000    0.000    0.000 
#    0.000    0.000    0.000    0.000    0.000    0.000 
#
# Total GULP energy -356789.598014 kJ/mol
# GULP energy per Si atom -5574.837469 kJ/mol
# Density = 1.763677 g / cm^3
# Si number density = 17.677004 Si / 1000 Ang^3
#
#
#
# Elastic Constant Matrix: (Units=GPa)
#
#
# Indices 1 2 3 4 5 6 
#
# 1 54.1791 21.8671 12.9672 0.0000 0.0000 0.0000
# 2 21.8671 133.7945 46.4286 0.0000 0.0000 0.0000
# 3 12.9672 46.4286 68.3785 0.0000 0.0000 0.0000
# 4 0.0000 0.0000 0.0000 17.3833 0.0000 0.0000
# 5 0.0000 0.0000 0.0000 0.0000 22.6739 0.0000
# 6 0.0000 0.0000 0.0000 0.0000 0.0000 20.1982
#
#
#
# Elastic Compliance Matrix: (Units=1/GPa)
#
#
# Indices 1 2 3 4 5 6 
#
# 1 0.019979 -0.002552 -0.002056 0.000000 0.000000 0.000000
# 2 -0.002552 0.010104 -0.006377 0.000000 0.000000 0.000000
# 3 -0.002056 -0.006377 0.019344 0.000000 0.000000 0.000000
# 4 0.000000 0.000000 0.000000 0.057527 0.000000 0.000000
# 5 0.000000 0.000000 0.000000 0.000000 0.044104 0.000000
# 6 0.000000 0.000000 0.000000 0.000000 0.000000 0.049509
#
#
# Mechanical properties :
#
#
# Convention : Reuss Voigt Hill
#
# Bulk Modulus (GPa) = 36.41903 46.54198 41.48051
# Shear Modulus (GPa) = 21.58063 23.72367 22.65215
#
# Velocity S-wave (km/s) = 3.49783 3.66739 3.58361
# Velocity P-wave (km/s) = 6.07950 6.65727 6.37494
#
# Compressibility (1/GPa) = 0.02745817
#
# Stress axis : x y z
#
# Youngs Moduli (GPa) = 50.05156 98.97067 51.69532
#
# Poissons Ratio (x) = 0.25256 0.10629
# Poissons Ratio (y) = 0.12772 0.32964
# Poissons Ratio (z) = 0.10291 0.63110
#
# Static dielectric constant tensor:
#      x y z
#    x 1.598690 0.000000 0.000000 
#    y 0.000000 1.594520 0.000000 
#    z 0.000000 0.000000 1.649360 
# 
# From -- ./inp_files/8082.got.cif
#   From: 2010.05.17/outbox.cif.g08.bks.cpg/sg62_5_cif.got.tgz:8082.got - 2010.06.03 15:25:27.
