data_PCOD9461609
_publ_section_title
;
Structure prediction by ZEFSAII (Michael W. Deem and Ramdas Pophale) SiO2 
 PCOD9461609
Probable space group: P N M A
;
_chemical_formula_sum "Si O2"
_cell_formula_units_Z 64
_cell_length_a 18.921974
_cell_length_b 8.627846
_cell_length_c 27.400861
_cell_angle_alpha 90.000000
_cell_angle_beta 90.000000
_cell_angle_gamma 90.000000
_cell_volume 4473.351612
_symmetry_space_group_name_H-M "P N M A"
_symmetry_group_IT_number 62
_symmetry_cell_setting 'orthorhombic'
loop_
_space_group_symop_operation_xyz
x,y,z
1/2-x,-y,1/2+z
1/2+x,1/2-y,1/2-z
-x,1/2+y,-z
-x,-y,-z
1/2+x,y,1/2-z
1/2-x,1/2+y,1/2+z
x,1/2-y,z
loop_
_atom_site_type_symbol
_atom_site_label
_atom_site_fract_x
_atom_site_fract_y
_atom_site_fract_z
Si Si1 0.798696 0.433848 0.201701
Si Si2 0.286941 0.435043 0.707079
Si Si3 0.335289 0.561314 0.851966
Si Si4 0.157619 0.064666 0.645884
Si Si5 0.081381 0.934820 0.552292
Si Si6 0.081968 0.437103 0.447074
Si Si7 0.926452 0.565092 0.255186
Si Si8 0.083079 0.064484 0.252999
O O1 0.810021 0.250000 0.198097
O O2 0.752025 0.472811 0.249528
O O3 0.745748 0.486036 0.158561
O O4 0.872641 0.516330 0.212211
O O5 0.281126 0.250000 0.716044
O O6 0.239221 0.469335 0.659769
O O7 0.367650 0.487494 0.711559
O O8 0.335456 0.750000 0.852182
O O9 0.369496 0.507773 0.902437
O O10 0.383972 0.515381 0.805668
O O11 0.150928 0.250000 0.640847
O O12 0.110487 0.018740 0.693240
O O13 0.128947 0.987084 0.597329
O O14 0.081450 0.750000 0.548916
O O15 0.999758 0.985879 0.560957
O O16 0.103970 0.003635 0.500230
O O17 0.083398 0.250000 0.447347
O O18 0.933703 0.750000 0.255616
O O19 0.002373 0.487244 0.250300
O O20 0.088578 0.250000 0.249722
#
# Coordination Sequence:
#
# PCOD9461609 Si02
#       8
#     8   8   8   8   8   8   8   8
#     4   9  16  27  42  60  81 106 139 174 207 244
#     4   9  17  29  42  59  83 109 138 170 206 247
#     4   8  15  27  43  60  78 106 141 172 204 243
#     4   9  18  30  43  58  80 112 143 170 205 247
#     4  10  19  28  41  61  82 106 139 177 210 241
#     4   9  17  30  43  56  80 110 138 171 209 245
#     4  10  19  29  41  60  85 112 141 171 207 248
#     4  10  18  28  43  63  85 110 141 173 206 243
#
# _framework density 14.306946
#
# number of rings (size 3 to 8) (size 9 to 14) (size 15 to 20)
#    0.000    2.750    0.000    4.125    0.000    4.500 
#    0.000    3.750    0.000    0.000    0.000    0.000 
#    0.000    1.000    0.000    3.000    0.000    4.000 
#
# Total GULP energy -356375.514504 kJ/mol
# GULP energy per Si atom -5568.367414 kJ/mol
# Density = 1.427438 g / cm^3
# Si number density = 14.306946 Si / 1000 Ang^3
#
#
#
# Elastic Constant Matrix: (Units=GPa)
#
#
# Indices 1 2 3 4 5 6 
#
# 1 93.1898 16.7320 51.7923 0.0000 0.0000 0.0000
# 2 16.7320 21.0557 18.9487 0.0000 0.0000 0.0000
# 3 51.7923 18.9487 87.4637 0.0000 0.0000 0.0000
# 4 0.0000 0.0000 0.0000 17.6364 0.0000 0.0000
# 5 0.0000 0.0000 0.0000 0.0000 24.6745 0.0000
# 6 0.0000 0.0000 0.0000 0.0000 0.0000 21.7739
#
#
#
# Elastic Compliance Matrix: (Units=1/GPa)
#
#
# Indices 1 2 3 4 5 6 
#
# 1 0.016467 -0.005354 -0.008591 0.000000 0.000000 0.000000
# 2 -0.005354 0.060736 -0.009988 0.000000 0.000000 0.000000
# 3 -0.008591 -0.009988 0.018684 0.000000 0.000000 0.000000
# 4 0.000000 0.000000 0.000000 0.056701 0.000000 0.000000
# 5 0.000000 0.000000 0.000000 0.000000 0.040528 0.000000
# 6 0.000000 0.000000 0.000000 0.000000 0.000000 0.045927
#
#
# Mechanical properties :
#
#
# Convention : Reuss Voigt Hill
#
# Bulk Modulus (GPa) = 20.82401 41.85058 31.33729
# Shear Modulus (GPa) = 16.50628 20.43271 18.46950
#
# Velocity S-wave (km/s) = 3.40034 3.78321 3.59687
# Velocity P-wave (km/s) = 5.47751 6.95694 6.26108
#
# Compressibility (1/GPa) = 0.04802150
#
# Stress axis : x y z
#
# Youngs Moduli (GPa) = 60.72854 16.46469 53.52078
#
# Poissons Ratio (x) = 0.08815 0.45980
# Poissons Ratio (y) = 0.32514 0.53455
# Poissons Ratio (z) = 0.52172 0.16445
#
# Static dielectric constant tensor:
#      x y z
#    x 1.489170 0.000000 0.000000 
#    y 0.000000 1.479550 0.000000 
#    z 0.000000 0.000000 1.457830 
# 
# From -- ./inp_files/31347.got.cif
#   From: 2010.05.17/outbox.cif.g08.bks.cpg/sg62_16_cif.got.tgz:31347.got - 2010.06.03 15:25:27.
