data_PCOD9461095
_publ_section_title
;
Structure prediction by ZEFSAII (Michael W. Deem and Ramdas Pophale) SiO2 
 PCOD9461095
Probable space group: P B C A
;
_chemical_formula_sum "Si O2"
_cell_formula_units_Z 40
_cell_length_a 9.417817
_cell_length_b 13.539180
_cell_length_c 12.688563
_cell_angle_alpha 90.000000
_cell_angle_beta 90.000000
_cell_angle_gamma 90.000000
_cell_volume 1617.912572
_symmetry_space_group_name_H-M "P B C A"
_symmetry_group_IT_number 61
_symmetry_cell_setting 'orthorhombic'
loop_
_space_group_symop_operation_xyz
x,y,z
1/2-x,-y,1/2+z
1/2+x,1/2-y,-z
-x,1/2+y,1/2-z
-x,-y,-z
1/2+x,y,1/2-z
1/2-x,1/2+y,z
x,1/2-y,1/2+z
loop_
_atom_site_type_symbol
_atom_site_label
_atom_site_fract_x
_atom_site_fract_y
_atom_site_fract_z
Si Si1 0.136699 0.594169 0.162432
Si Si2 0.756155 0.576793 0.568789
Si Si3 0.040001 0.262080 0.951198
Si Si4 0.686988 0.623115 0.989179
Si Si5 0.391962 0.016933 0.728283
O O1 0.294900 0.582007 0.208532
O O2 0.042195 0.692634 0.149981
O O3 0.043635 0.517492 0.228697
O O4 0.161335 0.573235 0.037524
O O5 0.861713 0.667653 0.568813
O O6 0.835982 0.471451 0.562217
O O7 0.667049 0.577178 0.673403
O O8 0.913319 0.214668 0.020357
O O9 0.149903 0.340894 0.000903
O O10 0.638863 0.583127 0.874591
#
# Coordination Sequence:
#
# PCOD9461095 Si02
#       5
#     8   8   8   8   8
#     4  11  25  47  75 110 154 201 257 316 381 466
#     4  11  24  49  79 107 157 201 259 322 388 448
#     4  12  24  48  74 110 148 207 253 317 387 457
#     4  11  26  47  77 112 156 201 260 320 390 462
#     4  11  25  46  74 114 151 204 255 319 390 454
#
# _framework density 24.723215
#
# number of rings (size 3 to 8) (size 9 to 14) (size 15 to 20)
#    0.000    0.800    4.000    2.400    2.800    3.200 
#    3.600    0.000    0.000    0.000    0.000    0.000 
#    0.000    0.000    0.000    0.000    0.000    0.000 
#
# Total GULP energy -223387.940511 kJ/mol
# GULP energy per Si atom -5584.698513 kJ/mol
# Density = 2.466694 g / cm^3
# Si number density = 24.723215 Si / 1000 Ang^3
#
#
#
# Elastic Constant Matrix: (Units=GPa)
#
#
# Indices 1 2 3 4 5 6 
#
# 1 107.9385 31.9344 35.4036 0.0000 0.0000 0.0000
# 2 31.9344 99.7233 14.0128 0.0000 0.0000 0.0000
# 3 35.4036 14.0128 121.7791 0.0000 0.0000 0.0000
# 4 0.0000 0.0000 0.0000 13.0764 0.0000 0.0000
# 5 0.0000 0.0000 0.0000 0.0000 34.7608 0.0000
# 6 0.0000 0.0000 0.0000 0.0000 0.0000 43.4873
#
#
#
# Elastic Compliance Matrix: (Units=1/GPa)
#
#
# Indices 1 2 3 4 5 6 
#
# 1 0.011144 -0.003165 -0.002876 0.000000 0.000000 0.000000
# 2 -0.003165 0.011091 -0.000356 0.000000 0.000000 0.000000
# 3 -0.002876 -0.000356 0.009089 0.000000 0.000000 0.000000
# 4 0.000000 0.000000 0.000000 0.076473 0.000000 0.000000
# 5 0.000000 0.000000 0.000000 0.000000 0.028768 0.000000
# 6 0.000000 0.000000 0.000000 0.000000 0.000000 0.022995
#
#
# Mechanical properties :
#
#
# Convention : Reuss Voigt Hill
#
# Bulk Modulus (GPa) = 53.96394 54.68250 54.32322
# Shear Modulus (GPa) = 28.00643 34.80424 31.40534
#
# Velocity S-wave (km/s) = 3.36936 3.75608 3.56796
# Velocity P-wave (km/s) = 6.08370 6.40131 6.24452
#
# Compressibility (1/GPa) = 0.01853089
#
# Stress axis : x y z
#
# Youngs Moduli (GPa) = 89.73433 90.16159 110.02816
#
# Poissons Ratio (x) = 0.28532 0.31640
# Poissons Ratio (y) = 0.28397 0.03920
# Poissons Ratio (z) = 0.25804 0.03212
#
# Static dielectric constant tensor:
#      x y z
#    x 2.063310 0.000000 0.000000 
#    y 0.000000 2.073510 0.000000 
#    z 0.000000 0.000000 1.926050 
# 
# From -- ./inp_files/6963.got.cif
#   From: 2010.05.17/outbox.cif.g08.bks.cpg/sg61_4_cif.got.tgz:6963.got - 2010.06.03 15:17:17.
