data_PCOD9461311
_publ_section_title
;
Structure prediction by ZEFSAII (Michael W. Deem and Ramdas Pophale) SiO2 
 PCOD9461311
Probable space group: P N M A
;
_chemical_formula_sum "Si O2"
_cell_formula_units_Z 32
_cell_length_a 8.407233
_cell_length_b 19.306567
_cell_length_c 7.607297
_cell_angle_alpha 90.000000
_cell_angle_beta 90.000000
_cell_angle_gamma 90.000000
_cell_volume 1234.776946
_symmetry_space_group_name_H-M "P N M A"
_symmetry_group_IT_number 62
_symmetry_cell_setting 'orthorhombic'
loop_
_space_group_symop_operation_xyz
x,y,z
1/2-x,-y,1/2+z
1/2+x,1/2-y,1/2-z
-x,1/2+y,-z
-x,-y,-z
1/2+x,y,1/2-z
1/2-x,1/2+y,1/2+z
x,1/2-y,z
loop_
_atom_site_type_symbol
_atom_site_label
_atom_site_fract_x
_atom_site_fract_y
_atom_site_fract_z
Si Si1 0.256721 0.250000 0.792968
Si Si2 0.929301 0.040277 0.739531
Si Si3 0.655336 0.394214 0.549770
Si Si4 0.571213 0.250000 0.032918
Si Si5 0.029159 0.604340 0.623824
O O1 0.174275 0.181380 0.867598
O O2 0.431733 0.250000 0.881914
O O3 0.232712 0.250000 0.582039
O O4 0.975785 0.080764 0.916049
O O5 0.748316 0.051072 0.677805
O O6 0.012693 0.079904 0.575195
O O7 0.972916 0.960057 0.738269
O O8 0.778518 0.391911 0.386679
O O9 0.541828 0.319344 0.145458
#
# Coordination Sequence:
#
# PCOD9461311 Si02
#       5
#     4   8   8   4   8
#     4  10  14  22  38  66  82 106 130 166 222 248
#     4   9  16  28  42  61  86 112 139 168 207 254
#     4   9  15  25  42  61  87 109 136 174 206 251
#     4  10  16  26  44  62  86 106 136 174 210 254
#     4   8  17  27  43  61  87 111 138 165 213 251
#
# _framework density 25.915610999999998
#
# number of rings (size 3 to 8) (size 9 to 14) (size 15 to 20)
#    1.500    1.500    2.500    0.000    0.000    0.000 
#    0.000    1.250    0.000    1.500    0.000    0.000 
#    0.000    0.000    0.000    0.000    0.000    0.000 
#
# Total GULP energy -178301.810525 kJ/mol
# GULP energy per Si atom -5571.931579 kJ/mol
# Density = 2.585663 g / cm^3
# Si number density = 25.915611 Si / 1000 Ang^3
#
#
#
# Elastic Constant Matrix: (Units=GPa)
#
#
# Indices 1 2 3 4 5 6 
#
# 1 42.5929 12.5798 2.8985 0.0000 0.0000 0.0000
# 2 12.5798 194.6205 3.7566 0.0000 0.0000 0.0000
# 3 2.8985 3.7566 26.1455 0.0000 0.0000 0.0000
# 4 0.0000 0.0000 0.0000 23.7782 0.0000 0.0000
# 5 0.0000 0.0000 0.0000 0.0000 36.4595 0.0000
# 6 0.0000 0.0000 0.0000 0.0000 0.0000 27.5175
#
#
#
# Elastic Compliance Matrix: (Units=1/GPa)
#
#
# Indices 1 2 3 4 5 6 
#
# 1 0.024091 -0.001510 -0.002454 0.000000 0.000000 0.000000
# 2 -0.001510 0.005247 -0.000587 0.000000 0.000000 0.000000
# 3 -0.002454 -0.000587 0.038604 0.000000 0.000000 0.000000
# 4 0.000000 0.000000 0.000000 0.042055 0.000000 0.000000
# 5 0.000000 0.000000 0.000000 0.000000 0.027428 0.000000
# 6 0.000000 0.000000 0.000000 0.000000 0.000000 0.036340
#
#
# Mechanical properties :
#
#
# Convention : Reuss Voigt Hill
#
# Bulk Modulus (GPa) = 16.99478 33.53651 25.26565
# Shear Modulus (GPa) = 24.69384 33.82599 29.25992
#
# Velocity S-wave (km/s) = 3.09019 3.61672 3.36377
# Velocity P-wave (km/s) = 4.39367 5.51450 4.98568
#
# Compressibility (1/GPa) = 0.05884160
#
# Stress axis : x y z
#
# Youngs Moduli (GPa) = 41.50929 190.58085 25.90415
#
# Poissons Ratio (x) = 0.28774 0.06356
# Poissons Ratio (y) = 0.06267 0.01519
# Poissons Ratio (z) = 0.10186 0.11178
#
# Static dielectric constant tensor:
#      x y z
#    x 2.173370 0.000000 0.000000 
#    y 0.000000 1.961590 0.000000 
#    z 0.000000 0.000000 2.087260 
# 
# From -- ./inp_files/11139.got.cif
#   From: 2010.05.17/outbox.cif.g08.bks.cpg/sg62_6_cif.got.tgz:11139.got - 2010.06.03 15:25:27.
