data_PCOD9461490
_publ_section_title
;
Structure prediction by ZEFSAII (Michael W. Deem and Ramdas Pophale) SiO2 
 PCOD9461490
Probable space group: P N M A
;
_chemical_formula_sum "Si O2"
_cell_formula_units_Z 56
_cell_length_a 9.408686
_cell_length_b 26.417685
_cell_length_c 9.837694
_cell_angle_alpha 90.000000
_cell_angle_beta 90.000000
_cell_angle_gamma 90.000000
_cell_volume 2445.214948
_symmetry_space_group_name_H-M "P N M A"
_symmetry_group_IT_number 62
_symmetry_cell_setting 'orthorhombic'
loop_
_space_group_symop_operation_xyz
x,y,z
1/2-x,-y,1/2+z
1/2+x,1/2-y,1/2-z
-x,1/2+y,-z
-x,-y,-z
1/2+x,y,1/2-z
1/2-x,1/2+y,1/2+z
x,1/2-y,z
loop_
_atom_site_type_symbol
_atom_site_label
_atom_site_fract_x
_atom_site_fract_y
_atom_site_fract_z
Si Si1 0.554349 0.129074 0.009008
Si Si2 0.071076 0.027654 0.628882
Si Si3 0.801163 0.309162 0.153190
Si Si4 0.638746 0.534122 0.487993
Si Si5 0.371487 0.549545 0.772474
Si Si6 0.725264 0.808524 0.978045
Si Si7 0.542031 0.377512 0.456286
O O1 0.686609 0.163319 0.056864
O O2 0.537357 0.090086 0.135295
O O3 0.423281 0.165760 0.987893
O O4 0.566655 0.088238 0.886599
O O5 0.238594 0.015781 0.616305
O O6 0.000000 0.000000 0.500000
O O7 0.972110 0.000187 0.737135
O O8 0.816066 0.250000 0.118752
O O9 0.760087 0.311632 0.312625
O O10 0.947500 0.339163 0.132784
O O11 0.500000 0.500000 0.500000
O O12 0.732454 0.540785 0.630021
O O13 0.571376 0.589061 0.461522
O O14 0.365579 0.582773 0.634704
O O15 0.732624 0.750000 0.016430
O O16 0.849653 0.843040 0.038508
#
# Coordination Sequence:
#
# PCOD9461490 Si02
#       7
#     8   8   8   8   8   8   8
#     4  10  17  32  45  61  90 129 170 209 247 280
#     4   8  18  33  47  65  87 120 170 214 261 292
#     4  11  19  30  45  65  96 133 173 205 234 286
#     4  10  21  32  48  70  88 127 170 209 258 300
#     4  10  20  33  48  69  90 130 172 210 257 303
#     4  11  21  28  42  67  97 136 170 202 241 288
#     4  12  20  32  48  69 101 129 171 210 249 295
#
# _framework density 22.901872000000001
#
# number of rings (size 3 to 8) (size 9 to 14) (size 15 to 20)
#    0.000    2.000    5.714    0.857    6.000    2.286 
#    0.000    0.000    0.000    0.000    0.000    0.000 
#    0.000    0.000    0.000    7.714    0.000    2.286 
#
# Total GULP energy -312217.173127 kJ/mol
# GULP energy per Si atom -5575.306663 kJ/mol
# Density = 2.284975 g / cm^3
# Si number density = 22.901872 Si / 1000 Ang^3
#
#
#
# Elastic Constant Matrix: (Units=GPa)
#
#
# Indices 1 2 3 4 5 6 
#
# 1 192.8255 82.3737 15.4872 0.0000 0.0000 0.0000
# 2 82.3737 183.3712 9.2667 0.0000 0.0000 0.0000
# 3 15.4872 9.2667 29.2544 0.0000 0.0000 0.0000
# 4 0.0000 0.0000 0.0000 17.0502 0.0000 0.0000
# 5 0.0000 0.0000 0.0000 0.0000 19.8654 0.0000
# 6 0.0000 0.0000 0.0000 0.0000 0.0000 31.3497
#
#
#
# Elastic Compliance Matrix: (Units=1/GPa)
#
#
# Indices 1 2 3 4 5 6 
#
# 1 0.006606 -0.002836 -0.002599 0.000000 0.000000 0.000000
# 2 -0.002836 0.006760 -0.000640 0.000000 0.000000 0.000000
# 3 -0.002599 -0.000640 0.035761 0.000000 0.000000 0.000000
# 4 0.000000 0.000000 0.000000 0.058650 0.000000 0.000000
# 5 0.000000 0.000000 0.000000 0.000000 0.050339 0.000000
# 6 0.000000 0.000000 0.000000 0.000000 0.000000 0.031898
#
#
# Mechanical properties :
#
#
# Convention : Reuss Voigt Hill
#
# Bulk Modulus (GPa) = 27.04338 68.85625 47.94982
# Shear Modulus (GPa) = 23.31100 33.54131 28.42615
#
# Velocity S-wave (km/s) = 3.19386 3.83112 3.52691
# Velocity P-wave (km/s) = 5.04331 7.04989 6.12927
#
# Compressibility (1/GPa) = 0.03697763
#
# Stress axis : x y z
#
# Youngs Moduli (GPa) = 151.36675 147.93090 27.96309
#
# Poissons Ratio (x) = 0.41959 0.07268
# Poissons Ratio (y) = 0.42934 0.01789
# Poissons Ratio (z) = 0.39340 0.09463
#
# Static dielectric constant tensor:
#      x y z
#    x 1.936580 0.000000 0.000000 
#    y 0.000000 1.918890 0.000000 
#    z 0.000000 0.000000 2.003530 
# 
# From -- ./inp_files/22512.got.cif
#   From: 2010.05.17/outbox.cif.g08.bks.cpg/sg62_12_cif.got.tgz:22512.got - 2010.06.03 15:25:27.
