data_PCOD9461212
_publ_section_title
;
Structure prediction by ZEFSAII (Michael W. Deem and Ramdas Pophale) SiO2 
 PCOD9461212
Probable space group: P B C A
;
_chemical_formula_sum "Si O2"
_cell_formula_units_Z 48
_cell_length_a 8.968086
_cell_length_b 17.866760
_cell_length_c 12.923624
_cell_angle_alpha 90.000000
_cell_angle_beta 90.000000
_cell_angle_gamma 90.000000
_cell_volume 2070.760548
_symmetry_space_group_name_H-M "P B C A"
_symmetry_group_IT_number 61
_symmetry_cell_setting 'orthorhombic'
loop_
_space_group_symop_operation_xyz
x,y,z
1/2-x,-y,1/2+z
1/2+x,1/2-y,-z
-x,1/2+y,1/2-z
-x,-y,-z
1/2+x,y,1/2-z
1/2-x,1/2+y,z
x,1/2-y,1/2+z
loop_
_atom_site_type_symbol
_atom_site_label
_atom_site_fract_x
_atom_site_fract_y
_atom_site_fract_z
Si Si1 0.924663 0.291248 0.233742
Si Si2 0.349826 0.297587 0.960660
Si Si3 0.520802 0.187111 0.093936
Si Si4 0.418684 0.924300 0.464520
Si Si5 0.617714 0.962437 0.920921
Si Si6 0.841732 0.899454 0.278121
O O1 0.870763 0.227131 0.157642
O O2 0.794575 0.341246 0.283589
O O3 0.029442 0.248535 0.315236
O O4 0.019844 0.353918 0.175345
O O5 0.177018 0.319774 0.966251
O O6 0.390378 0.223653 0.025022
O O7 0.471265 0.358506 0.996303
O O8 0.469319 0.106184 0.132396
O O9 0.258533 0.928368 0.519204
O O10 0.385622 0.916703 0.341581
O O11 0.500000 0.000000 0.500000
O O12 0.676949 0.024537 0.840949
O O13 0.500000 0.000000 0.000000
#
# Coordination Sequence:
#
# PCOD9461212 Si02
#       6
#     8   8   8   8   8   8
#     4  12  26  47  77 109 151 203 260 319 398 464
#     4  12  26  48  79 110 160 198 269 323 400 468
#     4  12  27  47  76 117 146 207 260 329 386 482
#     4  12  27  49  76 115 155 211 257 326 399 471
#     4  12  28  48  79 113 161 205 267 324 398 476
#     4  12  26  51  75 111 157 207 257 331 398 471
#
# _framework density 23.17989
#
# number of rings (size 3 to 8) (size 9 to 14) (size 15 to 20)
#    0.000    0.000    3.333    6.000    9.333    0.000 
#    0.000    0.000    0.000    0.000    0.000    0.000 
#    0.000    0.000    0.000    0.000    0.000    0.000 
#
# Total GULP energy -268599.954712 kJ/mol
# GULP energy per Si atom -5595.832390 kJ/mol
# Density = 2.312713 g / cm^3
# Si number density = 23.179890 Si / 1000 Ang^3
#
#
#
# Elastic Constant Matrix: (Units=GPa)
#
#
# Indices 1 2 3 4 5 6 
#
# 1 117.6005 51.3036 36.2963 0.0000 0.0000 0.0000
# 2 51.3036 166.9330 53.5689 0.0000 0.0000 0.0000
# 3 36.2963 53.5689 98.6225 0.0000 0.0000 0.0000
# 4 0.0000 0.0000 0.0000 41.2779 0.0000 0.0000
# 5 0.0000 0.0000 0.0000 0.0000 33.2453 0.0000
# 6 0.0000 0.0000 0.0000 0.0000 0.0000 51.8996
#
#
#
# Elastic Compliance Matrix: (Units=1/GPa)
#
#
# Indices 1 2 3 4 5 6 
#
# 1 0.010309 -0.002363 -0.002511 0.000000 0.000000 0.000000
# 2 -0.002363 0.007796 -0.003365 0.000000 0.000000 0.000000
# 3 -0.002511 -0.003365 0.012892 0.000000 0.000000 0.000000
# 4 0.000000 0.000000 0.000000 0.024226 0.000000 0.000000
# 5 0.000000 0.000000 0.000000 0.000000 0.030079 0.000000
# 6 0.000000 0.000000 0.000000 0.000000 0.000000 0.019268
#
#
# Mechanical properties :
#
#
# Convention : Reuss Voigt Hill
#
# Bulk Modulus (GPa) = 68.87140 73.94372 71.40756
# Shear Modulus (GPa) = 39.71795 41.41704 40.56750
#
# Velocity S-wave (km/s) = 4.14389 4.23160 4.18798
# Velocity P-wave (km/s) = 7.25755 7.47292 7.36602
#
# Compressibility (1/GPa) = 0.01451982
#
# Stress axis : x y z
#
# Youngs Moduli (GPa) = 97.00298 128.26369 77.56956
#
# Poissons Ratio (x) = 0.30303 0.19476
# Poissons Ratio (y) = 0.22917 0.26105
# Poissons Ratio (z) = 0.24355 0.43165
#
# Static dielectric constant tensor:
#      x y z
#    x 1.880720 0.000000 0.000000 
#    y 0.000000 1.827770 0.000000 
#    z 0.000000 0.000000 1.954180 
# 
# From -- ./inp_files/7030.got.cif
#   From: 2010.05.17/outbox.cif.g08.bks.cpg/sg61_4_cif.got.tgz:7030.got - 2010.06.03 15:17:17.
