data_PCOD9461908
_publ_section_title
;
Structure prediction by ZEFSAII (Michael W. Deem and Ramdas Pophale) SiO2 
 PCOD9461908
Probable space group: P N M A
;
_chemical_formula_sum "Si O2"
_cell_formula_units_Z 64
_cell_length_a 28.730306
_cell_length_b 7.400076
_cell_length_c 12.817777
_cell_angle_alpha 90.000000
_cell_angle_beta 90.000000
_cell_angle_gamma 90.000000
_cell_volume 2725.142038
_symmetry_space_group_name_H-M "P N M A"
_symmetry_group_IT_number 62
_symmetry_cell_setting 'orthorhombic'
loop_
_space_group_symop_operation_xyz
x,y,z
1/2-x,-y,1/2+z
1/2+x,1/2-y,1/2-z
-x,1/2+y,-z
-x,-y,-z
1/2+x,y,1/2-z
1/2-x,1/2+y,1/2+z
x,1/2-y,z
loop_
_atom_site_type_symbol
_atom_site_label
_atom_site_fract_x
_atom_site_fract_y
_atom_site_fract_z
Si Si1 0.877329 0.459763 0.543318
Si Si2 0.086043 0.469574 0.854360
Si Si3 0.790436 0.471838 0.660610
Si Si4 0.661067 0.537446 0.372059
Si Si5 0.448890 0.040092 0.123351
Si Si6 0.809628 0.966128 0.095726
Si Si7 0.056782 0.453844 0.074104
Si Si8 0.456430 0.970288 0.799279
O O1 0.870137 0.250000 0.515747
O O2 0.826394 0.532947 0.570609
O O3 0.910189 0.541315 0.453383
O O4 0.908305 0.470811 0.648615
O O5 0.085313 0.250000 0.857657
O O6 0.067494 0.529870 0.743126
O O7 0.139811 0.531187 0.865966
O O8 0.057369 0.532661 0.957216
O O9 0.790280 0.250000 0.659252
O O10 0.813059 0.528263 0.769616
O O11 0.737520 0.532970 0.648425
O O12 0.651103 0.750000 0.360105
O O13 0.692490 0.509247 0.473454
O O14 0.611807 0.446892 0.397017
O O15 0.453370 0.250000 0.093559
O O16 0.501246 0.965671 0.127765
O O17 0.810683 0.750000 0.108570
O O18 0.038857 0.250000 0.065380
O O19 0.036425 0.536562 0.180357
O O20 0.456434 0.750000 0.795784
#
# Coordination Sequence:
#
# PCOD9461908 Si02
#       8
#     8   8   8   8   8   8   8   8
#     4  10  20  36  55  78 108 142 179 219 270 321
#     4   9  19  35  53  73 101 140 180 217 265 324
#     4   9  18  33  54  77 103 137 174 213 264 320
#     4  10  18  31  52  78 103 131 173 221 261 307
#     4  10  22  36  52  77 112 145 175 220 271 320
#     4   9  19  36  54  74 105 143 175 214 273 325
#     4   9  18  34  55  76 103 138 175 217 267 318
#     4  10  20  35  55  80 107 139 179 223 269 317
#
# _framework density 23.485015000000001
#
# number of rings (size 3 to 8) (size 9 to 14) (size 15 to 20)
#    0.000    2.500    1.250    1.500    0.000    4.500 
#    0.000    1.875    0.000    0.000    0.000    0.000 
#    0.000    0.000    0.000    0.000    0.000    0.000 
#
# Total GULP energy -357488.654152 kJ/mol
# GULP energy per Si atom -5585.760221 kJ/mol
# Density = 2.343156 g / cm^3
# Si number density = 23.485015 Si / 1000 Ang^3
#
#
#
# Elastic Constant Matrix: (Units=GPa)
#
#
# Indices 1 2 3 4 5 6 
#
# 1 78.2872 6.5247 13.8873 0.0000 0.0000 0.0000
# 2 6.5247 84.4405 -11.7779 0.0000 0.0000 0.0000
# 3 13.8873 -11.7779 86.7768 0.0000 0.0000 0.0000
# 4 0.0000 0.0000 0.0000 10.4925 0.0000 0.0000
# 5 0.0000 0.0000 0.0000 0.0000 37.4440 0.0000
# 6 0.0000 0.0000 0.0000 0.0000 0.0000 27.2699
#
#
#
# Elastic Compliance Matrix: (Units=1/GPa)
#
#
# Indices 1 2 3 4 5 6 
#
# 1 0.013296 -0.001350 -0.002311 0.000000 0.000000 0.000000
# 2 -0.001350 0.012208 0.001873 0.000000 0.000000 0.000000
# 3 -0.002311 0.001873 0.012148 0.000000 0.000000 0.000000
# 4 0.000000 0.000000 0.000000 0.095306 0.000000 0.000000
# 5 0.000000 0.000000 0.000000 0.000000 0.026707 0.000000
# 6 0.000000 0.000000 0.000000 0.000000 0.000000 0.036671
#
#
# Mechanical properties :
#
#
# Convention : Reuss Voigt Hill
#
# Bulk Modulus (GPa) = 29.34573 29.64141 29.49357
# Shear Modulus (GPa) = 23.66650 31.09931 27.38291
#
# Velocity S-wave (km/s) = 3.17792 3.64293 3.41834
# Velocity P-wave (km/s) = 5.09786 5.50848 5.30715
#
# Compressibility (1/GPa) = 0.03407651
#
# Stress axis : x y z
#
# Youngs Moduli (GPa) = 75.21104 81.91214 82.31895
#
# Poissons Ratio (x) = 0.11056 0.19024
# Poissons Ratio (y) = 0.10151 -0.15418
# Poissons Ratio (z) = 0.17381 -0.15342
#
# Static dielectric constant tensor:
#      x y z
#    x 1.879330 0.000000 0.000000 
#    y 0.000000 1.875900 0.000000 
#    z 0.000000 0.000000 1.889690 
# 
# From -- ./inp_files/15845.got.cif
#   From: 2010.05.17/outbox.cif.g08.bks.cpg/sg62_8_cif.got.tgz:15845.got - 2010.06.03 15:25:27.
