data_PCOD9461745
_publ_section_title
;
Structure prediction by ZEFSAII (Michael W. Deem and Ramdas Pophale) SiO2 
 PCOD9461745
Probable space group: P N M A
;
_chemical_formula_sum "Si O2"
_cell_formula_units_Z 64
_cell_length_a 23.736103
_cell_length_b 7.542083
_cell_length_c 19.917759
_cell_angle_alpha 90.000000
_cell_angle_beta 90.000000
_cell_angle_gamma 90.000000
_cell_volume 3565.670423
_symmetry_space_group_name_H-M "P N M A"
_symmetry_group_IT_number 62
_symmetry_cell_setting 'orthorhombic'
loop_
_space_group_symop_operation_xyz
x,y,z
1/2-x,-y,1/2+z
1/2+x,1/2-y,1/2-z
-x,1/2+y,-z
-x,-y,-z
1/2+x,y,1/2-z
1/2-x,1/2+y,1/2+z
x,1/2-y,z
loop_
_atom_site_type_symbol
_atom_site_label
_atom_site_fract_x
_atom_site_fract_y
_atom_site_fract_z
Si Si1 0.244675 0.458278 0.334867
Si Si2 0.061095 0.032179 0.856278
Si Si3 0.217794 0.467981 0.627051
Si Si4 0.172616 0.536017 0.211341
Si Si5 0.853031 0.954418 0.251404
Si Si6 0.566996 0.536118 0.371381
Si Si7 0.743773 0.453449 0.016628
Si Si8 0.872307 0.540665 0.010701
O O1 0.258285 0.250000 0.341220
O O2 0.192018 0.478691 0.285080
O O3 0.298531 0.542131 0.297766
O O4 0.235099 0.532299 0.409403
O O5 0.061635 0.250000 0.856015
O O6 0.095405 0.969232 0.791025
O O7 0.996513 0.973579 0.859732
O O8 0.094822 0.977532 0.923138
O O9 0.217444 0.250000 0.626815
O O10 0.277340 0.520479 0.660727
O O11 0.169365 0.530157 0.678230
O O12 0.216003 0.530811 0.550486
O O13 0.172311 0.750000 0.211128
O O14 0.113024 0.473299 0.182822
O O15 0.867423 0.750000 0.264986
O O16 0.565812 0.750000 0.367942
O O17 0.590306 0.488948 0.444845
O O18 0.723988 0.250000 0.020636
O O19 0.811066 0.454454 0.004136
O O20 0.862116 0.750000 0.018331
#
# Coordination Sequence:
#
# PCOD9461745 Si02
#       8
#     8   8   8   8   8   8   8   8
#     4  10  19  28  44  66  90 114 144 188 226 267
#     4   9  18  30  46  66  89 118 155 192 222 258
#     4   8  14  26  45  63  81 111 147 177 213 262
#     4   9  17  30  47  62  83 117 151 185 222 265
#     4   9  16  30  47  64  87 114 147 185 224 266
#     4  10  19  33  48  62  86 124 160 186 219 266
#     4  10  18  30  45  65  90 122 153 177 218 275
#     4  11  20  29  42  66  96 122 150 189 221 254
#
# _framework density 17.948937000000001
#
# number of rings (size 3 to 8) (size 9 to 14) (size 15 to 20)
#    0.000    2.500    2.500    1.875    0.000    1.000 
#    0.000    1.250    0.000    0.000    0.000    0.875 
#    0.000    0.000    0.000    0.000    0.000    0.000 
#
# Total GULP energy -356947.812652 kJ/mol
# GULP energy per Si atom -5577.309573 kJ/mol
# Density = 1.790808 g / cm^3
# Si number density = 17.948937 Si / 1000 Ang^3
#
#
#
# Elastic Constant Matrix: (Units=GPa)
#
#
# Indices 1 2 3 4 5 6 
#
# 1 47.3781 -4.2089 20.0160 0.0000 0.0000 0.0000
# 2 -4.2089 45.6225 -4.5231 0.0000 0.0000 0.0000
# 3 20.0160 -4.5231 102.1081 0.0000 0.0000 0.0000
# 4 0.0000 0.0000 0.0000 11.4548 0.0000 0.0000
# 5 0.0000 0.0000 0.0000 0.0000 23.5234 0.0000
# 6 0.0000 0.0000 0.0000 0.0000 0.0000 7.3004
#
#
#
# Elastic Compliance Matrix: (Units=1/GPa)
#
#
# Indices 1 2 3 4 5 6 
#
# 1 0.023142 0.001693 -0.004462 0.000000 0.000000 0.000000
# 2 0.001693 0.022139 0.000649 0.000000 0.000000 0.000000
# 3 -0.004462 0.000649 0.010697 0.000000 0.000000 0.000000
# 4 0.000000 0.000000 0.000000 0.087300 0.000000 0.000000
# 5 0.000000 0.000000 0.000000 0.000000 0.042511 0.000000
# 6 0.000000 0.000000 0.000000 0.000000 0.000000 0.136979
#
#
# Mechanical properties :
#
#
# Convention : Reuss Voigt Hill
#
# Bulk Modulus (GPa) = 19.32798 24.18633 21.75716
# Shear Modulus (GPa) = 14.52414 20.71070 17.61742
#
# Velocity S-wave (km/s) = 2.84772 3.40055 3.13634
# Velocity P-wave (km/s) = 4.64805 5.37798 5.02628
#
# Compressibility (1/GPa) = 0.05173846
#
# Stress axis : x y z
#
# Youngs Moduli (GPa) = 43.21145 45.16815 93.48535
#
# Poissons Ratio (x) = -0.07645 0.41709
# Poissons Ratio (y) = -0.07314 -0.06066
# Poissons Ratio (z) = 0.19279 -0.02931
#
# Static dielectric constant tensor:
#      x y z
#    x 1.588200 0.000000 0.000000 
#    y 0.000000 1.692870 0.000000 
#    z 0.000000 0.000000 1.638780 
# 
# From -- ./inp_files/24997.got.cif
#   From: 2010.05.17/outbox.cif.g08.bks.cpg/sg62_13_cif.got.tgz:24997.got - 2010.06.03 15:25:27.
