data_PCOD9461034
_publ_section_title
;
Structure prediction by ZEFSAII (Michael W. Deem and Ramdas Pophale) SiO2 
 PCOD9461034
Probable space group: P B C A
;
_chemical_formula_sum "Si O2"
_cell_formula_units_Z 64
_cell_length_a 23.222273
_cell_length_b 8.203081
_cell_length_c 13.326596
_cell_angle_alpha 90.000000
_cell_angle_beta 90.000000
_cell_angle_gamma 90.000000
_cell_volume 2538.639063
_symmetry_space_group_name_H-M "P B C A"
_symmetry_group_IT_number 61
_symmetry_cell_setting 'orthorhombic'
loop_
_space_group_symop_operation_xyz
x,y,z
1/2-x,-y,1/2+z
1/2+x,1/2-y,-z
-x,1/2+y,1/2-z
-x,-y,-z
1/2+x,y,1/2-z
1/2-x,1/2+y,z
x,1/2-y,1/2+z
loop_
_atom_site_type_symbol
_atom_site_label
_atom_site_fract_x
_atom_site_fract_y
_atom_site_fract_z
Si Si1 0.211515 0.133744 0.690075
Si Si2 0.877761 0.142602 0.269251
Si Si3 0.979485 0.805543 0.405968
Si Si4 0.934272 0.331371 0.429930
Si Si5 0.999241 0.020083 0.233880
Si Si6 0.768211 0.468601 0.517257
Si Si7 0.804911 0.329779 0.142569
Si Si8 0.134404 0.331328 0.551305
O O1 0.249172 0.074885 0.594887
O O2 0.254559 0.187920 0.775622
O O3 0.167441 0.271639 0.651648
O O4 0.174658 0.981218 0.727999
O O5 0.892971 0.196412 0.381885
O O6 0.862620 0.304537 0.206008
O O7 0.931600 0.052841 0.220366
O O8 0.027522 0.730919 0.478587
O O9 0.970800 0.681060 0.311552
O O10 0.001852 0.968238 0.350822
O O11 0.917289 0.800261 0.461094
O O12 0.898691 0.495781 0.449871
O O13 0.976811 0.380167 0.338671
O O14 0.710949 0.511264 0.580008
O O15 0.801535 0.319107 0.565641
O O16 0.810735 0.626015 0.519042
#
# Coordination Sequence:
#
# PCOD9461034 Si02
#       8
#     8   8   8   8   8   8   8   8
#     4  12  26  49  69 109 150 183 249 309 361 444
#     4  12  26  46  74 103 147 195 240 305 364 434
#     4  11  25  47  74 106 147 192 240 306 363 436
#     4  11  27  45  74 106 146 194 237 306 370 437
#     4  11  23  48  69 107 143 185 247 295 351 450
#     4  12  27  47  73 109 144 194 243 303 369 451
#     4  12  28  46  75 106 145 194 246 298 368 439
#     4  11  24  46  72 102 145 189 235 302 371 418
#
# _framework density 25.210356999999998
#
# number of rings (size 3 to 8) (size 9 to 14) (size 15 to 20)
#    0.000    0.500    5.000    3.000    7.000    0.500 
#    0.000    0.000    0.000    0.000    0.000    0.000 
#    0.000    0.000    0.000    0.000    0.000    0.000 
#
# Total GULP energy -358044.447319 kJ/mol
# GULP energy per Si atom -5594.444489 kJ/mol
# Density = 2.515298 g / cm^3
# Si number density = 25.210357 Si / 1000 Ang^3
#
#
#
# Elastic Constant Matrix: (Units=GPa)
#
#
# Indices 1 2 3 4 5 6 
#
# 1 98.6294 18.8004 46.5553 0.0000 0.0000 0.0000
# 2 18.8004 54.1965 8.2767 0.0000 0.0000 0.0000
# 3 46.5553 8.2767 76.2758 0.0000 0.0000 0.0000
# 4 0.0000 0.0000 0.0000 34.0518 0.0000 0.0000
# 5 0.0000 0.0000 0.0000 0.0000 40.8015 0.0000
# 6 0.0000 0.0000 0.0000 0.0000 0.0000 40.8066
#
#
#
# Elastic Compliance Matrix: (Units=1/GPa)
#
#
# Indices 1 2 3 4 5 6 
#
# 1 0.015000 -0.003869 -0.008735 0.000000 0.000000 0.000000
# 2 -0.003869 0.019760 0.000217 0.000000 0.000000 0.000000
# 3 -0.008735 0.000217 0.018418 0.000000 0.000000 0.000000
# 4 0.000000 0.000000 0.000000 0.029367 0.000000 0.000000
# 5 0.000000 0.000000 0.000000 0.000000 0.024509 0.000000
# 6 0.000000 0.000000 0.000000 0.000000 0.000000 0.024506
#
#
# Mechanical properties :
#
#
# Convention : Reuss Voigt Hill
#
# Bulk Modulus (GPa) = 35.20610 41.81851 38.51231
# Shear Modulus (GPa) = 30.15632 33.49663 31.82647
#
# Velocity S-wave (km/s) = 3.46235 3.64907 3.55693
# Velocity P-wave (km/s) = 5.47531 5.86328 5.67262
#
# Compressibility (1/GPa) = 0.02840417
#
# Stress axis : x y z
#
# Youngs Moduli (GPa) = 66.66759 50.60630 54.29357
#
# Poissons Ratio (x) = 0.19581 0.47427
# Poissons Ratio (y) = 0.25796 -0.01180
# Poissons Ratio (z) = 0.58236 -0.01100
#
# Static dielectric constant tensor:
#      x y z
#    x 1.984240 0.000000 0.000000 
#    y 0.000000 2.028940 0.000000 
#    z 0.000000 0.000000 1.974450 
# 
# From -- ./inp_files/8507.got.cif
#   From: 2010.05.17/outbox.cif.g08.bks.cpg/sg61_5_cif.got.tgz:8507.got - 2010.06.03 15:17:17.
