data_PCOD9461440
_publ_section_title
;
Structure prediction by ZEFSAII (Michael W. Deem and Ramdas Pophale) SiO2 
 PCOD9461440
Probable space group: P N M A
;
_chemical_formula_sum "Si O2"
_cell_formula_units_Z 56
_cell_length_a 9.575103
_cell_length_b 24.881061
_cell_length_c 15.734084
_cell_angle_alpha 90.000000
_cell_angle_beta 90.000000
_cell_angle_gamma 90.000000
_cell_volume 3748.468061
_symmetry_space_group_name_H-M "P N M A"
_symmetry_group_IT_number 62
_symmetry_cell_setting 'orthorhombic'
loop_
_space_group_symop_operation_xyz
x,y,z
1/2-x,-y,1/2+z
1/2+x,1/2-y,1/2-z
-x,1/2+y,-z
-x,-y,-z
1/2+x,y,1/2-z
1/2-x,1/2+y,1/2+z
x,1/2-y,z
loop_
_atom_site_type_symbol
_atom_site_label
_atom_site_fract_x
_atom_site_fract_y
_atom_site_fract_z
Si Si1 0.290169 0.894795 0.608476
Si Si2 0.207450 0.968227 0.762094
Si Si3 0.088212 0.689012 0.698995
Si Si4 0.137348 0.186750 0.444226
Si Si5 0.403690 0.130247 0.374042
Si Si6 0.473951 0.085784 0.005080
Si Si7 0.539638 0.502806 0.143011
O O1 0.289475 0.938466 0.684802
O O2 0.205272 0.845713 0.651316
O O3 0.447778 0.881941 0.583390
O O4 0.189309 0.911529 0.531231
O O5 0.157309 0.923533 0.829964
O O6 0.312057 0.006985 0.811238
O O7 0.076981 0.994861 0.714952
O O8 0.134586 0.750000 0.700913
O O9 0.065225 0.667618 0.792866
O O10 0.944575 0.684977 0.646138
O O11 0.140766 0.250000 0.469916
O O12 0.289035 0.160471 0.430789
O O13 0.045322 0.144351 0.498694
O O14 0.538166 0.051284 0.084081
O O15 0.492778 0.051322 0.920440
#
# Coordination Sequence:
#
# PCOD9461440 Si02
#       7
#     8   8   8   8   8   8   8
#     4   9  18  28  42  61  94 125 159 195 232 269
#     4  10  17  29  46  70  89 125 154 198 238 277
#     4   9  17  26  38  58  87 126 166 192 219 271
#     4  10  19  30  44  65  95 131 164 194 235 288
#     4  11  17  25  40  64  94 121 157 197 228 270
#     4   9  19  34  47  67  95 134 160 192 238 297
#     4  10  18  32  52  69  96 124 163 198 243 284
#
# _framework density 14.939437
#
# number of rings (size 3 to 8) (size 9 to 14) (size 15 to 20)
#    0.000    2.286    2.857    3.000    0.000    2.286 
#    0.000    2.143    0.000    0.000    0.000    1.000 
#    0.000    0.000    0.000    0.000    0.000    0.000 
#
# Total GULP energy -311938.325631 kJ/mol
# GULP energy per Si atom -5570.327243 kJ/mol
# Density = 1.490543 g / cm^3
# Si number density = 14.939437 Si / 1000 Ang^3
#
#
#
# Elastic Constant Matrix: (Units=GPa)
#
#
# Indices 1 2 3 4 5 6 
#
# 1 81.3082 25.7157 23.5552 0.0000 0.0000 0.0000
# 2 25.7157 64.2945 26.5485 0.0000 0.0000 0.0000
# 3 23.5552 26.5485 32.4640 0.0000 0.0000 0.0000
# 4 0.0000 0.0000 0.0000 15.0909 0.0000 0.0000
# 5 0.0000 0.0000 0.0000 0.0000 105.6067 0.0000
# 6 0.0000 0.0000 0.0000 0.0000 0.0000 15.9876
#
#
#
# Elastic Compliance Matrix: (Units=1/GPa)
#
#
# Indices 1 2 3 4 5 6 
#
# 1 0.015813 -0.002396 -0.009514 0.000000 0.000000 0.000000
# 2 -0.002396 0.023846 -0.017763 0.000000 0.000000 0.000000
# 3 -0.009514 -0.017763 0.052232 0.000000 0.000000 0.000000
# 4 0.000000 0.000000 0.000000 0.066265 0.000000 0.000000
# 5 0.000000 0.000000 0.000000 0.000000 0.009469 0.000000
# 6 0.000000 0.000000 0.000000 0.000000 0.000000 0.062549
#
#
# Mechanical properties :
#
#
# Convention : Reuss Voigt Hill
#
# Bulk Modulus (GPa) = 30.72542 36.63394 33.67968
# Shear Modulus (GPa) = 16.64619 34.15351 25.39985
#
# Velocity S-wave (km/s) = 3.34165 4.78654 4.12781
# Velocity P-wave (km/s) = 5.95820 7.42447 6.73138
#
# Compressibility (1/GPa) = 0.03254634
#
# Stress axis : x y z
#
# Youngs Moduli (GPa) = 63.23929 41.93516 19.14517
#
# Poissons Ratio (x) = 0.10048 0.18215
# Poissons Ratio (y) = 0.15153 0.34007
# Poissons Ratio (z) = 0.60166 0.74488
#
# Static dielectric constant tensor:
#      x y z
#    x 1.520990 0.000000 0.000000 
#    y 0.000000 1.514150 0.000000 
#    z 0.000000 0.000000 1.479490 
# 
# From -- ./inp_files/22596.got.cif
#   From: 2010.05.17/outbox.cif.g08.bks.cpg/sg62_12_cif.got.tgz:22596.got - 2010.06.03 15:25:27.
