data_PCOD9461683
_publ_section_title
;
Structure prediction by ZEFSAII (Michael W. Deem and Ramdas Pophale) SiO2 
 PCOD9461683
Probable space group: P N M A
;
_chemical_formula_sum "Si O2"
_cell_formula_units_Z 64
_cell_length_a 8.295378
_cell_length_b 13.902367
_cell_length_c 28.900885
_cell_angle_alpha 90.000000
_cell_angle_beta 90.000000
_cell_angle_gamma 90.000000
_cell_volume 3333.005815
_symmetry_space_group_name_H-M "P N M A"
_symmetry_group_IT_number 62
_symmetry_cell_setting 'orthorhombic'
loop_
_space_group_symop_operation_xyz
x,y,z
1/2-x,-y,1/2+z
1/2+x,1/2-y,1/2-z
-x,1/2+y,-z
-x,-y,-z
1/2+x,y,1/2-z
1/2-x,1/2+y,1/2+z
x,1/2-y,z
loop_
_atom_site_type_symbol
_atom_site_label
_atom_site_fract_x
_atom_site_fract_y
_atom_site_fract_z
Si Si1 0.310247 0.856038 0.927409
Si Si2 0.300800 0.866129 0.266373
Si Si3 0.850466 0.453910 0.937962
Si Si4 0.965935 0.641157 0.980222
Si Si5 0.515806 0.362782 0.644750
Si Si6 0.836993 0.436693 0.599457
Si Si7 0.526800 0.362815 0.978423
Si Si8 0.471171 0.865080 0.179864
O O1 0.332354 0.750000 0.906226
O O2 0.139629 0.854360 0.954397
O O3 0.305457 0.950039 0.896104
O O4 0.447745 0.870706 0.966647
O O5 0.310992 0.750000 0.264734
O O6 0.439572 0.894620 0.303174
O O7 0.329083 0.898462 0.213823
O O8 0.130483 0.887571 0.289490
O O9 0.684358 0.410247 0.955769
O O10 0.861616 0.566134 0.950718
O O11 0.892263 0.424768 0.885594
O O12 0.989209 0.403651 0.969964
O O13 0.902455 0.750000 0.984046
O O14 0.468340 0.250000 0.644754
O O15 0.688360 0.375410 0.618768
O O16 0.875088 0.411501 0.546237
O O17 0.991573 0.410580 0.630620
O O18 0.524461 0.250000 0.967159
O O19 0.460104 0.750000 0.173141
#
# Coordination Sequence:
#
# PCOD9461683 Si02
#       8
#     8   8   8   8   8   8   8   8
#     4   9  18  33  49  66  93 129 165 202 239 278
#     4   8  16  28  42  63  93 121 145 185 233 282
#     4  10  18  30  47  68  92 128 164 201 234 280
#     4   9  17  31  48  66  92 126 165 207 243 272
#     4  10  18  29  46  70  95 122 162 198 228 279
#     4  11  19  31  48  71  94 128 160 196 233 283
#     4  10  20  32  45  67 101 130 157 197 243 282
#     4   9  17  30  47  68  94 120 151 186 230 286
#
# _framework density 19.201885000000001
#
# number of rings (size 3 to 8) (size 9 to 14) (size 15 to 20)
#    0.000    2.500    1.250    4.125    0.000    1.000 
#    0.000    3.125    0.000    0.000    0.000    4.375 
#    0.000    0.000    0.000    0.000    0.000    0.000 
#
# Total GULP energy -357142.836432 kJ/mol
# GULP energy per Si atom -5580.356819 kJ/mol
# Density = 1.915818 g / cm^3
# Si number density = 19.201885 Si / 1000 Ang^3
#
#
#
# Elastic Constant Matrix: (Units=GPa)
#
#
# Indices 1 2 3 4 5 6 
#
# 1 35.4165 1.2847 -4.3053 0.0000 0.0000 0.0000
# 2 1.2847 97.7404 14.0364 0.0000 0.0000 0.0000
# 3 -4.3053 14.0364 38.1838 0.0000 0.0000 0.0000
# 4 0.0000 0.0000 0.0000 13.2480 0.0000 0.0000
# 5 0.0000 0.0000 0.0000 0.0000 23.5021 0.0000
# 6 0.0000 0.0000 0.0000 0.0000 0.0000 8.4298
#
#
#
# Elastic Compliance Matrix: (Units=1/GPa)
#
#
# Indices 1 2 3 4 5 6 
#
# 1 0.028701 -0.000889 0.003563 0.000000 0.000000 0.000000
# 2 -0.000889 0.010829 -0.004081 0.000000 0.000000 0.000000
# 3 0.003563 -0.004081 0.028091 0.000000 0.000000 0.000000
# 4 0.000000 0.000000 0.000000 0.075483 0.000000 0.000000
# 5 0.000000 0.000000 0.000000 0.000000 0.042549 0.000000
# 6 0.000000 0.000000 0.000000 0.000000 0.000000 0.118626
#
#
# Mechanical properties :
#
#
# Convention : Reuss Voigt Hill
#
# Bulk Modulus (GPa) = 15.43052 21.48582 18.45817
# Shear Modulus (GPa) = 15.21164 19.72432 17.46798
#
# Velocity S-wave (km/s) = 2.81765 3.20848 3.01940
# Velocity P-wave (km/s) = 4.31728 4.99395 4.66789
#
# Compressibility (1/GPa) = 0.06480664
#
# Stress axis : x y z
#
# Youngs Moduli (GPa) = 34.84225 92.34528 35.59865
#
# Poissons Ratio (x) = 0.08209 -0.12683
# Poissons Ratio (y) = 0.03097 0.14528
# Poissons Ratio (z) = -0.12414 0.37685
#
# Static dielectric constant tensor:
#      x y z
#    x 1.754930 0.000000 0.000000 
#    y 0.000000 1.661730 0.000000 
#    z 0.000000 0.000000 1.701710 
# 
# From -- ./inp_files/32331.got.cif
#   From: 2010.05.17/outbox.cif.g08.bks.cpg/sg62_17_cif.got.tgz:32331.got - 2010.06.03 15:25:27.
