data_PCOD9461573
_publ_section_title
;
Structure prediction by ZEFSAII (Michael W. Deem and Ramdas Pophale) SiO2 
 PCOD9461573
Probable space group: P N M A
;
_chemical_formula_sum "Si O2"
_cell_formula_units_Z 56
_cell_length_a 13.954317
_cell_length_b 8.755840
_cell_length_c 30.427278
_cell_angle_alpha 90.000000
_cell_angle_beta 90.000000
_cell_angle_gamma 90.000000
_cell_volume 3717.658590
_symmetry_space_group_name_H-M "P N M A"
_symmetry_group_IT_number 62
_symmetry_cell_setting 'orthorhombic'
loop_
_space_group_symop_operation_xyz
x,y,z
1/2-x,-y,1/2+z
1/2+x,1/2-y,1/2-z
-x,1/2+y,-z
-x,-y,-z
1/2+x,y,1/2-z
1/2-x,1/2+y,1/2+z
x,1/2-y,z
loop_
_atom_site_type_symbol
_atom_site_label
_atom_site_fract_x
_atom_site_fract_y
_atom_site_fract_z
Si Si1 0.607123 0.933691 0.999438
Si Si2 0.902873 0.933167 0.229626
Si Si3 0.290159 0.567170 0.181867
Si Si4 0.394416 0.065239 0.904548
Si Si5 0.609768 0.431389 0.270495
Si Si6 0.890377 0.433494 0.403051
Si Si7 0.293490 0.065795 0.815123
O O1 0.602486 0.750000 0.998820
O O2 0.647878 0.979364 0.951838
O O3 0.647556 0.977635 0.047332
O O4 0.500000 0.000000 0.000000
O O5 0.916701 0.750000 0.228273
O O6 0.863350 0.972738 0.278339
O O7 0.816109 0.973582 0.196685
O O8 0.002411 0.014027 0.220078
O O9 0.284620 0.750000 0.180227
O O10 0.187579 0.501246 0.196127
O O11 0.329237 0.502530 0.136366
O O12 0.405052 0.250000 0.903487
O O13 0.328898 0.021077 0.863379
O O14 0.500116 0.993335 0.899767
O O15 0.616201 0.250000 0.271317
O O16 0.640343 0.492547 0.222367
O O17 0.890590 0.250000 0.399937
O O18 0.301661 0.250000 0.810889
#
# Coordination Sequence:
#
# PCOD9461573 Si02
#       7
#     8   8   8   8   8   8   8
#     4   8  15  26  40  60  88 118 146 178 215 257
#     4   9  18  32  46  61  84 113 144 177 212 252
#     4  10  20  33  48  64  85 117 152 180 210 256
#     4   9  16  28  45  64  88 121 155 180 210 256
#     4  11  21  31  45  65  89 114 141 178 220 257
#     4  10  18  27  41  65  94 119 145 181 223 259
#     4   9  18  31  47  65  86 116 151 180 208 251
#
# _framework density 15.063245
#
# number of rings (size 3 to 8) (size 9 to 14) (size 15 to 20)
#    0.000    2.571    0.000    3.857    0.000    7.429 
#    0.000    0.000    0.000    0.000    0.000    1.000 
#    0.000    0.000    0.000    0.000    0.000    0.000 
#
# Total GULP energy -311981.152752 kJ/mol
# GULP energy per Si atom -5571.092013 kJ/mol
# Density = 1.502896 g / cm^3
# Si number density = 15.063245 Si / 1000 Ang^3
#
#
#
# Elastic Constant Matrix: (Units=GPa)
#
#
# Indices 1 2 3 4 5 6 
#
# 1 86.2693 32.7557 67.7332 0.0000 0.0000 0.0000
# 2 32.7557 30.7922 39.8717 0.0000 0.0000 0.0000
# 3 67.7332 39.8717 165.1475 0.0000 0.0000 0.0000
# 4 0.0000 0.0000 0.0000 18.5746 0.0000 0.0000
# 5 0.0000 0.0000 0.0000 0.0000 22.5781 0.0000
# 6 0.0000 0.0000 0.0000 0.0000 0.0000 2.8094
#
#
#
# Elastic Compliance Matrix: (Units=1/GPa)
#
#
# Indices 1 2 3 4 5 6 
#
# 1 0.021845 -0.016929 -0.004872 0.000000 0.000000 0.000000
# 2 -0.016929 0.060365 -0.007631 0.000000 0.000000 0.000000
# 3 -0.004872 -0.007631 0.009896 0.000000 0.000000 0.000000
# 4 0.000000 0.000000 0.000000 0.053837 0.000000 0.000000
# 5 0.000000 0.000000 0.000000 0.000000 0.044291 0.000000
# 6 0.000000 0.000000 0.000000 0.000000 0.000000 0.355943
#
#
# Mechanical properties :
#
#
# Convention : Reuss Voigt Hill
#
# Bulk Modulus (GPa) = 30.08264 62.54780 46.31522
# Shear Modulus (GPa) = 8.11531 18.24899 13.18215
#
# Velocity S-wave (km/s) = 2.32361 3.48442 2.96145
# Velocity P-wave (km/s) = 5.21662 7.60276 6.51978
#
# Compressibility (1/GPa) = 0.03324176
#
# Stress axis : x y z
#
# Youngs Moduli (GPa) = 45.77780 16.56591 101.05326
#
# Poissons Ratio (x) = 0.28044 0.49235
# Poissons Ratio (y) = 0.77496 0.77112
# Poissons Ratio (z) = 0.22304 0.12641
#
# Static dielectric constant tensor:
#      x y z
#    x 1.466130 0.000000 0.000000 
#    y 0.000000 1.509510 0.000000 
#    z 0.000000 0.000000 1.530960 
# 
# From -- ./inp_files/32637.got.cif
#   From: 2010.05.17/outbox.cif.g08.bks.cpg/sg62_17_cif.got.tgz:32637.got - 2010.06.03 15:25:27.
