data_PCOD9461262
_publ_section_title
;
Structure prediction by ZEFSAII (Michael W. Deem and Ramdas Pophale) SiO2 
 PCOD9461262
Probable space group: P B C A
;
_chemical_formula_sum "Si O2"
_cell_formula_units_Z 64
_cell_length_a 15.000000
_cell_length_b 24.000000
_cell_length_c 9.000000
_cell_angle_alpha 90.000000
_cell_angle_beta 90.000000
_cell_angle_gamma 90.000000
_cell_volume 3240.000000
_symmetry_space_group_name_H-M "P B C A"
_symmetry_group_IT_number 61
_symmetry_cell_setting 'orthorhombic'
loop_
_space_group_symop_operation_xyz
x,y,z
1/2-x,-y,1/2+z
1/2+x,1/2-y,-z
-x,1/2+y,1/2-z
-x,-y,-z
1/2+x,y,1/2-z
1/2-x,1/2+y,z
x,1/2-y,1/2+z
loop_
_atom_site_type_symbol
_atom_site_label
_atom_site_fract_x
_atom_site_fract_y
_atom_site_fract_z
Si Si1 0.095489 0.505736 0.303618
Si Si2 0.922056 0.223135 0.291756
Si Si3 0.002913 0.818362 0.020116
Si Si4 0.835931 0.112473 0.381000
Si Si5 0.258187 0.787586 0.285807
Si Si6 0.929058 0.061669 0.875248
Si Si7 0.253432 0.415094 0.298437
Si Si8 0.313162 0.809009 0.609908
O O1 0.123081 0.558604 0.200696
O O2 0.082760 0.532174 0.466192
O O3 0.172501 0.458620 0.302162
O O4 0.002314 0.472498 0.279105
O O5 0.990836 0.264990 0.371152
O O6 0.903172 0.165650 0.382531
O O7 0.835002 0.262452 0.272055
O O8 0.945089 0.200738 0.127933
O O9 0.039973 0.874476 0.095726
O O10 0.904088 0.831397 0.959694
O O11 0.798873 0.093804 0.540478
O O12 0.747165 0.143191 0.312971
O O13 0.272627 0.852352 0.245538
O O14 0.261431 0.786422 0.464027
O O15 0.327040 0.743491 0.216574
O O16 0.832591 0.062198 0.802187
#
# Coordination Sequence:
#
# PCOD9461262 Si02
#       8
#     8   8   8   8   8   8   8   8
#     4  11  24  44  65  92 128 171 223 266 324 382
#     4  11  22  38  65  88 133 164 205 263 326 394
#     4  12  22  39  62 100 125 169 212 267 327 381
#     4  10  22  43  60  89 127 168 208 263 327 377
#     4  10  20  39  58  92 124 167 206 255 325 381
#     4  11  24  41  68  93 127 171 222 268 316 395
#     4  11  22  40  67  92 126 173 214 273 322 385
#     4  10  22  36  64  89 127 160 208 264 315 392
#
# _framework density 19.753086
#
# number of rings (size 3 to 8) (size 9 to 14) (size 15 to 20)
#    0.000    1.250    2.500    5.250    0.000    1.500 
#    0.000    0.000    0.000    0.000    0.000    0.000 
#    0.000    0.000    0.000    0.000    0.000    0.000 
#
# Total GULP energy -356984.731438 kJ/mol
# GULP energy per Si atom -5577.886429 kJ/mol
# Density = 1.970813 g / cm^3
# Si number density = 19.753086 Si / 1000 Ang^3
#
#
#
# Elastic Constant Matrix: (Units=GPa)
#
#
# Indices 1 2 3 4 5 6 
#
# 1 36.3351 -8.6943 -18.3693 0.0000 0.0000 0.0000
# 2 -8.6943 97.9398 -9.2335 0.0000 0.0000 0.0000
# 3 -18.3693 -9.2335 10.6776 0.0000 0.0000 0.0000
# 4 0.0000 0.0000 0.0000 37.0960 0.0000 0.0000
# 5 0.0000 0.0000 0.0000 0.0000 30.3926 0.0000
# 6 0.0000 0.0000 0.0000 0.0000 0.0000 20.0573
#
#
#
# Elastic Compliance Matrix: (Units=1/GPa)
#
#
# Indices 1 2 3 4 5 6 
#
# 1 -0.504387 -0.137818 -0.986905 0.000000 0.000000 0.000000
# 2 -0.137818 -0.026541 -0.260047 0.000000 0.000000 0.000000
# 3 -0.986905 -0.260047 -1.829053 0.000000 0.000000 0.000000
# 4 0.000000 0.000000 0.000000 0.026957 0.000000 0.000000
# 5 0.000000 0.000000 0.000000 0.000000 0.032903 0.000000
# 6 0.000000 0.000000 0.000000 0.000000 0.000000 0.049857
#
#
# Mechanical properties :
#
#
# Convention : Reuss Voigt Hill
#
# Bulk Modulus (GPa) = -0.19495 8.03982 3.92243
# Shear Modulus (GPa) = -4.19969 29.59250 12.69641
#
# Velocity S-wave (km/s) = -1.45969 3.87476 2.53801
# Velocity P-wave (km/s) = 1.71460 4.90890 3.25249
#
# Compressibility (1/GPa) = -5.12952152
#
# Stress axis : x y z
#
# Youngs Moduli (GPa) = -1.98261 -37.67820 -0.54673
#
# Poissons Ratio (x) = -5.19273 -0.53957
# Poissons Ratio (y) = -0.27324 -0.14218
# Poissons Ratio (z) = -1.95664 -9.79812
#
# Static dielectric constant tensor:
#      x y z
#    x 1.756920 0.000000 0.000000 
#    y 0.000000 1.699270 0.000000 
#    z 0.000000 0.000000 1.701930 
# 
# From -- ./inp_files/3206.got.cif
#   From: 2010.05.17/outbox.ucp.g08.bks.cvg/sg61_2_cif.got.tgz:3206.got - 2010.06.11 16:28:26.
