data_PCOD9461386
_publ_section_title
;
Structure prediction by ZEFSAII (Michael W. Deem and Ramdas Pophale) SiO2 
 PCOD9461386
Probable space group: P N M A
;
_chemical_formula_sum "Si O2"
_cell_formula_units_Z 64
_cell_length_a 15.132583
_cell_length_b 13.446085
_cell_length_c 20.453150
_cell_angle_alpha 90.000000
_cell_angle_beta 90.000000
_cell_angle_gamma 90.000000
_cell_volume 4161.684188
_symmetry_space_group_name_H-M "P N M A"
_symmetry_group_IT_number 62
_symmetry_cell_setting 'orthorhombic'
loop_
_space_group_symop_operation_xyz
x,y,z
1/2-x,-y,1/2+z
1/2+x,1/2-y,1/2-z
-x,1/2+y,-z
-x,-y,-z
1/2+x,y,1/2-z
1/2-x,1/2+y,1/2+z
x,1/2-y,z
loop_
_atom_site_type_symbol
_atom_site_label
_atom_site_fract_x
_atom_site_fract_y
_atom_site_fract_z
Si Si1 0.467379 0.631511 0.225167
Si Si2 0.231650 0.370483 0.923967
Si Si3 0.049273 0.445854 0.865968
Si Si4 0.715371 0.130253 0.840529
Si Si5 0.669611 0.629980 0.210262
Si Si6 0.790225 0.516884 0.950008
Si Si7 0.452240 0.637150 0.593455
Si Si8 0.428996 0.359127 0.531681
O O1 0.471951 0.750000 0.235616
O O2 0.435911 0.582879 0.292018
O O3 0.388870 0.615796 0.173785
O O4 0.567453 0.596338 0.212345
O O5 0.230008 0.250000 0.930873
O O6 0.134395 0.410537 0.905791
O O7 0.288770 0.398100 0.859816
O O8 0.258625 0.422543 0.992463
O O9 0.017299 0.559496 0.871438
O O10 0.967734 0.384172 0.897278
O O11 0.729707 0.250000 0.852840
O O12 0.773067 0.103423 0.775076
O O13 0.741484 0.056229 0.899270
O O14 0.669946 0.750000 0.210559
O O15 0.853607 0.593640 0.910828
O O16 0.858649 0.441973 0.985365
O O17 0.454826 0.750000 0.617910
O O18 0.491163 0.637412 0.519673
O O19 0.389680 0.250000 0.530095
#
# Coordination Sequence:
#
# PCOD9461386 Si02
#       8
#     8   8   8   8   8   8   8   8
#     4  10  19  32  52  77 103 127 159 210 261 303
#     4  11  19  30  49  74 102 131 170 210 247 304
#     4  11  17  29  49  73  97 131 161 198 259 306
#     4  10  20  33  51  78 106 131 164 208 259 309
#     4   9  18  32  50  75 103 132 163 204 256 299
#     4  11  19  30  44  70 101 138 164 200 252 300
#     4  10  19  29  43  68 102 131 163 200 242 302
#     4  10  17  26  42  68 100 127 154 191 246 306
#
# _framework density 15.37839
#
# number of rings (size 3 to 8) (size 9 to 14) (size 15 to 20)
#    0.000    1.750    3.750    4.125    0.000    1.000 
#    0.000    0.625    0.000    1.500    0.000    1.750 
#    0.000    0.000    0.000    0.000    0.000    0.000 
#
# Total GULP energy -356272.820699 kJ/mol
# GULP energy per Si atom -5566.762823 kJ/mol
# Density = 1.534339 g / cm^3
# Si number density = 15.378390 Si / 1000 Ang^3
#
#
#
# Elastic Constant Matrix: (Units=GPa)
#
#
# Indices 1 2 3 4 5 6 
#
# 1 60.8679 24.5423 33.0969 0.0000 0.0000 0.0000
# 2 24.5423 72.1276 34.8339 0.0000 0.0000 0.0000
# 3 33.0969 34.8339 85.5954 0.0000 0.0000 0.0000
# 4 0.0000 0.0000 0.0000 26.0458 0.0000 0.0000
# 5 0.0000 0.0000 0.0000 0.0000 25.3437 0.0000
# 6 0.0000 0.0000 0.0000 0.0000 0.0000 16.2519
#
#
#
# Elastic Compliance Matrix: (Units=1/GPa)
#
#
# Indices 1 2 3 4 5 6 
#
# 1 0.021761 -0.004158 -0.006722 0.000000 0.000000 0.000000
# 2 -0.004158 0.018050 -0.005738 0.000000 0.000000 0.000000
# 3 -0.006722 -0.005738 0.016617 0.000000 0.000000 0.000000
# 4 0.000000 0.000000 0.000000 0.038394 0.000000 0.000000
# 5 0.000000 0.000000 0.000000 0.000000 0.039457 0.000000
# 6 0.000000 0.000000 0.000000 0.000000 0.000000 0.061531
#
#
# Mechanical properties :
#
#
# Convention : Reuss Voigt Hill
#
# Bulk Modulus (GPa) = 43.11797 44.83747 43.97772
# Shear Modulus (GPa) = 21.11688 21.93613 21.52650
#
# Velocity S-wave (km/s) = 3.70963 3.78090 3.74543
# Velocity P-wave (km/s) = 6.81523 6.94836 6.88212
#
# Compressibility (1/GPa) = 0.02319219
#
# Stress axis : x y z
#
# Youngs Moduli (GPa) = 45.95455 55.40084 60.17863
#
# Poissons Ratio (x) = 0.23035 0.40452
# Poissons Ratio (y) = 0.19108 0.34531
# Poissons Ratio (z) = 0.30891 0.31789
#
# Static dielectric constant tensor:
#      x y z
#    x 1.551950 0.000000 0.000000 
#    y 0.000000 1.518540 0.000000 
#    z 0.000000 0.000000 1.526890 
# 
# From -- ./inp_files/24102.got.cif
#   From: 2010.05.17/outbox.cif.g08.bks.cpg/sg62_13_cif.got.tgz:24102.got - 2010.06.03 15:25:27.
