data_PCOD9461247
_publ_section_title
;
Structure prediction by ZEFSAII (Michael W. Deem and Ramdas Pophale) SiO2 
 PCOD9461247
Probable space group: P B C A
;
_chemical_formula_sum "Si O2"
_cell_formula_units_Z 48
_cell_length_a 9.174646
_cell_length_b 14.488900
_cell_length_c 13.740277
_cell_angle_alpha 90.000000
_cell_angle_beta 90.000000
_cell_angle_gamma 90.000000
_cell_volume 1826.502282
_symmetry_space_group_name_H-M "P B C A"
_symmetry_group_IT_number 61
_symmetry_cell_setting 'orthorhombic'
loop_
_space_group_symop_operation_xyz
x,y,z
1/2-x,-y,1/2+z
1/2+x,1/2-y,-z
-x,1/2+y,1/2-z
-x,-y,-z
1/2+x,y,1/2-z
1/2-x,1/2+y,z
x,1/2-y,1/2+z
loop_
_atom_site_type_symbol
_atom_site_label
_atom_site_fract_x
_atom_site_fract_y
_atom_site_fract_z
Si Si1 0.542498 0.876256 0.922914
Si Si2 0.821203 0.804113 0.290857
Si Si3 0.356510 0.896445 0.741226
Si Si4 0.112634 0.562090 0.376955
Si Si5 0.869176 0.284868 0.116496
Si Si6 0.225142 0.051012 0.557408
O O1 0.467814 0.849696 0.820971
O O2 0.645604 0.962573 0.898536
O O3 0.624424 0.816362 0.004776
O O4 0.401110 0.907586 0.986256
O O5 0.769285 0.817543 0.179765
O O6 0.736859 0.871096 0.364590
O O7 0.790075 0.694879 0.309154
O O8 0.989240 0.818869 0.322322
O O9 0.457569 0.955995 0.671031
O O10 0.242819 0.956820 0.801258
O O11 0.120917 0.674034 0.386118
O O12 0.152328 0.522320 0.480733
#
# Coordination Sequence:
#
# PCOD9461247 Si02
#       6
#     8   8   8   8   8   8
#     4   9  18  33  53  77 107 143 181 225 280 334
#     4   9  18  33  52  76 103 137 180 221 265 323
#     4   9  18  33  52  76 103 137 180 221 265 323
#     4   9  18  32  52  76 103 138 179 223 268 320
#     4   9  18  32  52  76 103 138 179 223 268 320
#     4   9  18  33  53  77 107 143 181 225 280 334
#
# _framework density 26.279737000000001
#
# number of rings (size 3 to 8) (size 9 to 14) (size 15 to 20)
#    0.000    3.000    0.000    0.000    0.000    5.333 
#    0.000    5.000    0.000    2.000    0.000    0.000 
#    0.000    0.000    0.000    0.000    0.000    0.000 
#
# Total GULP energy -268543.529917 kJ/mol
# GULP energy per Si atom -5594.656873 kJ/mol
# Density = 2.621992 g / cm^3
# Si number density = 26.279737 Si / 1000 Ang^3
#
#
#
# Elastic Constant Matrix: (Units=GPa)
#
#
# Indices 1 2 3 4 5 6 
#
# 1 97.7021 12.1540 36.5284 0.0000 0.0000 0.0000
# 2 12.1540 55.8664 36.6271 0.0000 0.0000 0.0000
# 3 36.5284 36.6271 153.7045 0.0000 0.0000 0.0000
# 4 0.0000 0.0000 0.0000 45.9625 0.0000 0.0000
# 5 0.0000 0.0000 0.0000 0.0000 52.0343 0.0000
# 6 0.0000 0.0000 0.0000 0.0000 0.0000 24.0160
#
#
#
# Elastic Compliance Matrix: (Units=1/GPa)
#
#
# Indices 1 2 3 4 5 6 
#
# 1 0.011265 -0.000824 -0.002481 0.000000 0.000000 0.000000
# 2 -0.000824 0.021274 -0.004874 0.000000 0.000000 0.000000
# 3 -0.002481 -0.004874 0.008257 0.000000 0.000000 0.000000
# 4 0.000000 0.000000 0.000000 0.021757 0.000000 0.000000
# 5 0.000000 0.000000 0.000000 0.000000 0.019218 0.000000
# 6 0.000000 0.000000 0.000000 0.000000 0.000000 0.041639
#
#
# Mechanical properties :
#
#
# Convention : Reuss Voigt Hill
#
# Bulk Modulus (GPa) = 40.91824 53.09910 47.00867
# Shear Modulus (GPa) = 33.80328 39.20013 36.50171
#
# Velocity S-wave (km/s) = 3.59038 3.86638 3.73093
# Velocity P-wave (km/s) = 5.72641 6.33885 6.04040
#
# Compressibility (1/GPa) = 0.02443898
#
# Stress axis : x y z
#
# Youngs Moduli (GPa) = 88.76856 47.00463 121.11024
#
# Poissons Ratio (x) = 0.03875 0.30045
# Poissons Ratio (y) = 0.07318 0.59026
# Poissons Ratio (z) = 0.22022 0.22909
#
# Static dielectric constant tensor:
#      x y z
#    x 2.143870 0.000000 0.000000 
#    y 0.000000 2.013570 0.000000 
#    z 0.000000 0.000000 2.043720 
# 
# From -- ./inp_files/5237.got.cif
#   From: 2010.05.17/outbox.cif.g08.bks.cpg/sg61_3_cif.got.tgz:5237.got - 2010.06.03 15:17:17.
