data_PCOD9461582
_publ_section_title
;
Structure prediction by ZEFSAII (Michael W. Deem and Ramdas Pophale) SiO2 
 PCOD9461582
Probable space group: P N M A
;
_chemical_formula_sum "Si O2"
_cell_formula_units_Z 56
_cell_length_a 13.919850
_cell_length_b 8.799999
_cell_length_c 30.403957
_cell_angle_alpha 90.000000
_cell_angle_beta 90.000000
_cell_angle_gamma 90.000000
_cell_volume 3724.322560
_symmetry_space_group_name_H-M "P N M A"
_symmetry_group_IT_number 62
_symmetry_cell_setting 'orthorhombic'
loop_
_space_group_symop_operation_xyz
x,y,z
1/2-x,-y,1/2+z
1/2+x,1/2-y,1/2-z
-x,1/2+y,-z
-x,-y,-z
1/2+x,y,1/2-z
1/2-x,1/2+y,1/2+z
x,1/2-y,z
loop_
_atom_site_type_symbol
_atom_site_label
_atom_site_fract_x
_atom_site_fract_y
_atom_site_fract_z
Si Si1 0.109555 0.067422 0.096965
Si Si2 0.894328 0.933875 0.095779
Si Si3 0.202912 0.931920 0.182817
Si Si4 0.394400 0.930316 0.768556
Si Si5 0.716593 0.067209 0.683120
Si Si6 0.106950 0.432580 0.000504
Si Si7 0.600176 0.431593 0.770758
O O1 0.108976 0.250000 0.100281
O O2 0.148068 0.022484 0.048132
O O3 0.170514 0.997859 0.136401
O O4 0.999887 0.007045 0.100338
O O5 0.905721 0.750000 0.097612
O O6 0.827020 0.978567 0.136323
O O7 0.852301 0.974854 0.047470
O O8 0.193288 0.750000 0.182984
O O9 0.312499 0.969326 0.196308
O O10 0.136518 0.997688 0.221744
O O11 0.389258 0.750000 0.765408
O O12 0.316249 0.990324 0.803446
O O13 0.501453 0.983855 0.779609
O O14 0.729941 0.250000 0.683708
O O15 0.640761 0.031519 0.722033
O O16 0.101238 0.250000 0.001140
O O17 0.000000 0.500000 0.000000
O O18 0.583996 0.250000 0.772423
#
# Coordination Sequence:
#
# PCOD9461582 Si02
#       7
#     8   8   8   8   8   8   8
#     4  10  18  27  42  66  95 120 144 182 225 259
#     4   9  16  28  46  65  89 123 156 180 208 255
#     4  10  20  33  48  64  85 117 153 181 210 257
#     4  11  21  31  46  67  91 115 140 179 225 262
#     4   9  18  31  47  65  86 117 152 180 208 251
#     4   8  15  26  40  62  90 118 147 178 215 257
#     4   9  18  32  47  63  86 116 149 182 213 253
#
# _framework density 15.036292
#
# number of rings (size 3 to 8) (size 9 to 14) (size 15 to 20)
#    0.000    2.571    0.000    3.857    0.000    5.143 
#    0.000    0.000    0.000    0.000    0.000    1.000 
#    0.000    0.000    0.000    0.000    0.000    0.000 
#
# Total GULP energy -311995.445365 kJ/mol
# GULP energy per Si atom -5571.347239 kJ/mol
# Density = 1.500207 g / cm^3
# Si number density = 15.036292 Si / 1000 Ang^3
#
#
#
# Elastic Constant Matrix: (Units=GPa)
#
#
# Indices 1 2 3 4 5 6 
#
# 1 85.1329 40.0013 66.4708 0.0000 0.0000 0.0000
# 2 40.0013 38.8077 43.3768 0.0000 0.0000 0.0000
# 3 66.4708 43.3768 164.6942 0.0000 0.0000 0.0000
# 4 0.0000 0.0000 0.0000 16.3086 0.0000 0.0000
# 5 0.0000 0.0000 0.0000 0.0000 21.9421 0.0000
# 6 0.0000 0.0000 0.0000 0.0000 0.0000 0.4295
#
#
#
# Elastic Compliance Matrix: (Units=1/GPa)
#
#
# Indices 1 2 3 4 5 6 
#
# 1 0.025109 -0.020626 -0.004701 0.000000 0.000000 0.000000
# 2 -0.020626 0.053462 -0.005756 0.000000 0.000000 0.000000
# 3 -0.004701 -0.005756 0.009485 0.000000 0.000000 0.000000
# 4 0.000000 0.000000 0.000000 0.061317 0.000000 0.000000
# 5 0.000000 0.000000 0.000000 0.000000 0.045574 0.000000
# 6 0.000000 0.000000 0.000000 0.000000 0.000000 2.328253
#
#
# Mechanical properties :
#
#
# Convention : Reuss Voigt Hill
#
# Bulk Modulus (GPa) = 38.62600 65.37028 51.99814
# Shear Modulus (GPa) = 1.92753 16.98843 9.45798
#
# Velocity S-wave (km/s) = 1.13345 3.36494 2.51073
# Velocity P-wave (km/s) = 5.23996 7.65940 6.56215
#
# Compressibility (1/GPa) = 0.02588930
#
# Stress axis : x y z
#
# Youngs Moduli (GPa) = 39.82674 18.70474 105.42494
#
# Poissons Ratio (x) = 0.38580 0.49565
# Poissons Ratio (y) = 0.82147 0.60684
# Poissons Ratio (z) = 0.18725 0.10767
#
# Static dielectric constant tensor:
#      x y z
#    x 1.464740 0.000000 0.000000 
#    y 0.000000 1.500160 0.000000 
#    z 0.000000 0.000000 1.529110 
# 
# From -- ./inp_files/32648.got.cif
#   From: 2010.05.17/outbox.cif.g08.bks.cpg/sg62_17_cif.got.tgz:32648.got - 2010.06.03 15:25:27.
