data_PCOD9461428
_publ_section_title
;
Structure prediction by ZEFSAII (Michael W. Deem and Ramdas Pophale) SiO2 
 PCOD9461428
Probable space group: P N M A
;
_chemical_formula_sum "Si O2"
_cell_formula_units_Z 64
_cell_length_a 14.976186
_cell_length_b 8.781553
_cell_length_c 31.054621
_cell_angle_alpha 90.000000
_cell_angle_beta 90.000000
_cell_angle_gamma 90.000000
_cell_volume 4084.122740
_symmetry_space_group_name_H-M "P N M A"
_symmetry_group_IT_number 62
_symmetry_cell_setting 'orthorhombic'
loop_
_space_group_symop_operation_xyz
x,y,z
1/2-x,-y,1/2+z
1/2+x,1/2-y,1/2-z
-x,1/2+y,-z
-x,-y,-z
1/2+x,y,1/2-z
1/2-x,1/2+y,1/2+z
x,1/2-y,z
loop_
_atom_site_type_symbol
_atom_site_label
_atom_site_fract_x
_atom_site_fract_y
_atom_site_fract_z
Si Si1 0.599780 0.568412 0.449758
Si Si2 0.687814 0.936481 0.204479
Si Si3 0.994520 0.074461 0.825942
Si Si4 0.814658 0.928739 0.127900
Si Si5 0.207614 0.434567 0.707744
Si Si6 0.826377 0.928143 0.867056
Si Si7 0.903013 0.068793 0.048673
Si Si8 0.508415 0.432005 0.776089
O O1 0.599866 0.750000 0.445031
O O2 0.665741 0.496792 0.414847
O O3 0.498528 0.509967 0.441929
O O4 0.621347 0.529367 0.499363
O O5 0.688600 0.750000 0.204805
O O6 0.740329 0.984493 0.161592
O O7 0.739472 0.981640 0.248524
O O8 0.585228 0.990070 0.205100
O O9 0.963181 0.250000 0.832649
O O10 0.091373 0.060496 0.846817
O O11 0.002349 0.048725 0.775240
O O12 0.923413 0.962613 0.846538
O O13 0.798548 0.750000 0.118934
O O14 0.830706 0.015475 0.083404
O O15 0.207913 0.250000 0.707913
O O16 0.257559 0.492577 0.665426
O O17 0.104949 0.489829 0.709053
O O18 0.808903 0.750000 0.868952
O O19 0.915732 0.250000 0.051235
O O20 0.509405 0.250000 0.784206
#
# Coordination Sequence:
#
# PCOD9461428 Si02
#       8
#     8   8   8   8   8   8   8   8
#     4  10  20  34  50  68  94 128 162 196 239 292
#     4   9  16  27  47  74  98 125 168 206 230 275
#     4  10  17  28  48  70  95 130 168 201 232 276
#     4  10  18  28  47  73 100 133 167 196 235 283
#     4  10  18  31  51  70  93 128 167 203 237 277
#     4  12  23  32  45  70 100 130 162 199 244 289
#     4  10  20  32  48  72  99 125 157 199 243 289
#     4   9  16  28  49  73  95 125 169 210 234 267
#
# _framework density 15.670439999999999
#
# number of rings (size 3 to 8) (size 9 to 14) (size 15 to 20)
#    0.000    2.000    3.750    1.875    0.000    1.500 
#    0.000    1.250    0.000    0.000    0.000    0.875 
#    0.000    0.000    0.000    0.000    0.000    0.000 
#
# Total GULP energy -356870.459362 kJ/mol
# GULP energy per Si atom -5576.100928 kJ/mol
# Density = 1.563477 g / cm^3
# Si number density = 15.670440 Si / 1000 Ang^3
#
#
#
# Elastic Constant Matrix: (Units=GPa)
#
#
# Indices 1 2 3 4 5 6 
#
# 1 90.9976 22.5436 61.6582 0.0000 0.0000 0.0000
# 2 22.5436 23.1228 18.8125 0.0000 0.0000 0.0000
# 3 61.6582 18.8125 94.7413 0.0000 0.0000 0.0000
# 4 0.0000 0.0000 0.0000 19.9174 0.0000 0.0000
# 5 0.0000 0.0000 0.0000 0.0000 22.3655 0.0000
# 6 0.0000 0.0000 0.0000 0.0000 0.0000 4.0652
#
#
#
# Elastic Compliance Matrix: (Units=1/GPa)
#
#
# Indices 1 2 3 4 5 6 
#
# 1 0.022028 -0.011703 -0.012012 0.000000 0.000000 0.000000
# 2 -0.011703 0.057798 -0.003860 0.000000 0.000000 0.000000
# 3 -0.012012 -0.003860 0.019139 0.000000 0.000000 0.000000
# 4 0.000000 0.000000 0.000000 0.050207 0.000000 0.000000
# 5 0.000000 0.000000 0.000000 0.000000 0.044712 0.000000
# 6 0.000000 0.000000 0.000000 0.000000 0.000000 0.245991
#
#
# Mechanical properties :
#
#
# Convention : Reuss Voigt Hill
#
# Bulk Modulus (GPa) = 22.82373 46.09891 34.46132
# Shear Modulus (GPa) = 9.81104 16.32612 13.06858
#
# Velocity S-wave (km/s) = 2.50489 3.23126 2.89098
# Velocity P-wave (km/s) = 4.79191 6.58809 5.76044
#
# Compressibility (1/GPa) = 0.04381405
#
# Stress axis : x y z
#
# Youngs Moduli (GPa) = 45.39766 17.30163 52.24947
#
# Poissons Ratio (x) = 0.20248 0.62761
# Poissons Ratio (y) = 0.53129 0.20170
# Poissons Ratio (z) = 0.54531 0.06679
#
# Static dielectric constant tensor:
#      x y z
#    x 1.520420 0.000000 0.000000 
#    y 0.000000 1.534830 0.000000 
#    z 0.000000 0.000000 1.530680 
# 
# From -- ./inp_files/32712.got.cif
#   From: 2010.05.17/outbox.cif.g08.bks.cpg/sg62_17_cif.got.tgz:32712.got - 2010.06.03 15:25:27.
