data_PCOD9461697
_publ_section_title
;
Structure prediction by ZEFSAII (Michael W. Deem and Ramdas Pophale) SiO2 
 PCOD9461697
Probable space group: P N M A
;
_chemical_formula_sum "Si O2"
_cell_formula_units_Z 64
_cell_length_a 16.987949
_cell_length_b 7.566094
_cell_length_c 20.471565
_cell_angle_alpha 90.000000
_cell_angle_beta 90.000000
_cell_angle_gamma 90.000000
_cell_volume 2631.259770
_symmetry_space_group_name_H-M "P N M A"
_symmetry_group_IT_number 62
_symmetry_cell_setting 'orthorhombic'
loop_
_space_group_symop_operation_xyz
x,y,z
1/2-x,-y,1/2+z
1/2+x,1/2-y,1/2-z
-x,1/2+y,-z
-x,-y,-z
1/2+x,y,1/2-z
1/2-x,1/2+y,1/2+z
x,1/2-y,z
loop_
_atom_site_type_symbol
_atom_site_label
_atom_site_fract_x
_atom_site_fract_y
_atom_site_fract_z
Si Si1 0.017030 0.461922 0.287563
Si Si2 0.147707 0.049842 0.660401
Si Si3 0.909950 0.536537 0.478106
Si Si4 0.391183 0.535203 0.374560
Si Si5 0.145136 0.036542 0.388190
Si Si6 0.256914 0.055515 0.279604
Si Si7 0.092289 0.461799 0.014997
Si Si8 0.072943 0.044607 0.153349
O O1 0.008577 0.250000 0.279208
O O2 0.930662 0.540939 0.294532
O O3 0.060319 0.494302 0.355661
O O4 0.071407 0.527877 0.227202
O O5 0.166441 0.250000 0.645168
O O6 0.121167 0.964723 0.591568
O O7 0.220050 0.990880 0.705856
O O8 0.906015 0.750000 0.475257
O O9 0.855791 0.470719 0.538111
O O10 0.000000 0.500000 0.500000
O O11 0.389393 0.750000 0.369492
O O12 0.337697 0.448729 0.320102
O O13 0.365493 0.480978 0.448184
O O14 0.479982 0.471363 0.363151
O O15 0.157273 0.250000 0.392575
O O16 0.202722 0.959097 0.333111
O O17 0.221802 0.250000 0.274154
O O18 0.100174 0.250000 0.018268
O O19 0.112412 0.532754 0.087417
O O20 0.000000 0.500000 0.000000
O O21 0.096102 0.250000 0.156988
#
# Coordination Sequence:
#
# PCOD9461697 Si02
#       8
#     8   8   8   8   8   8   8   8
#     4  10  18  32  57  83 109 143 188 239 286 343
#     4  11  22  35  57  89 120 148 185 239 298 353
#     4  10  20  37  62  91 120 150 190 246 301 353
#     4  10  18  29  47  71 103 140 181 234 284 329
#     4   9  20  38  58  82 114 151 193 239 286 341
#     4  11  22  37  56  78 111 157 199 235 279 347
#     4   8  15  26  40  64  98 131 167 216 269 321
#     4   9  16  27  47  75 102 135 178 222 275 338
#
# _framework density 24.322949999999999
#
# number of rings (size 3 to 8) (size 9 to 14) (size 15 to 20)
#    0.000    2.250    2.500    1.125    0.000    1.000 
#    0.000    3.750    0.000    1.500    0.000    0.000 
#    0.000    0.000    0.000    0.000    0.000    0.000 
#
# Total GULP energy -356681.128258 kJ/mol
# GULP energy per Si atom -5573.142629 kJ/mol
# Density = 2.426759 g / cm^3
# Si number density = 24.322950 Si / 1000 Ang^3
#
#
#
# Elastic Constant Matrix: (Units=GPa)
#
#
# Indices 1 2 3 4 5 6 
#
# 1 33.7806 1.2576 32.4276 0.0000 0.0000 0.0000
# 2 1.2576 66.0694 13.3707 0.0000 0.0000 0.0000
# 3 32.4276 13.3707 232.9883 0.0000 0.0000 0.0000
# 4 0.0000 0.0000 0.0000 14.6697 0.0000 0.0000
# 5 0.0000 0.0000 0.0000 0.0000 28.0609 0.0000
# 6 0.0000 0.0000 0.0000 0.0000 0.0000 0.9255
#
#
#
# Elastic Compliance Matrix: (Units=1/GPa)
#
#
# Indices 1 2 3 4 5 6 
#
# 1 0.034174 0.000316 -0.004775 0.000000 0.000000 0.000000
# 2 0.000316 0.015316 -0.000923 0.000000 0.000000 0.000000
# 3 -0.004775 -0.000923 0.005010 0.000000 0.000000 0.000000
# 4 0.000000 0.000000 0.000000 0.068168 0.000000 0.000000
# 5 0.000000 0.000000 0.000000 0.000000 0.035637 0.000000
# 6 0.000000 0.000000 0.000000 0.000000 0.000000 1.080454
#
#
# Mechanical properties :
#
#
# Convention : Reuss Voigt Hill
#
# Bulk Modulus (GPa) = 22.86404 47.43891 35.15148
# Shear Modulus (GPa) = 3.95538 27.78339 15.86938
#
# Velocity S-wave (km/s) = 1.27661 3.38342 2.55707
# Velocity P-wave (km/s) = 3.40493 5.89995 4.81679
#
# Compressibility (1/GPa) = 0.04373680
#
# Stress axis : x y z
#
# Youngs Moduli (GPa) = 29.26172 65.28969 199.61855
#
# Poissons Ratio (x) = -0.02061 0.95309
# Poissons Ratio (y) = -0.00924 0.18423
# Poissons Ratio (z) = 0.13971 0.06026
#
# Static dielectric constant tensor:
#      x y z
#    x 1.969070 0.000000 0.000000 
#    y 0.000000 1.904270 0.000000 
#    z 0.000000 0.000000 2.066890 
# 
# From -- ./inp_files/27750.got.cif
#   From: 2010.05.17/outbox.cif.g08.bks.cpg/sg62_14_cif.got.tgz:27750.got - 2010.06.03 15:25:27.
