data_PCOD9461397
_publ_section_title
;
Structure prediction by ZEFSAII (Michael W. Deem and Ramdas Pophale) SiO2 
 PCOD9461397
Probable space group: P N M A
;
_chemical_formula_sum "Si O2"
_cell_formula_units_Z 56
_cell_length_a 18.235009
_cell_length_b 8.952286
_cell_length_c 22.818881
_cell_angle_alpha 90.000000
_cell_angle_beta 90.000000
_cell_angle_gamma 90.000000
_cell_volume 3725.068589
_symmetry_space_group_name_H-M "P N M A"
_symmetry_group_IT_number 62
_symmetry_cell_setting 'orthorhombic'
loop_
_space_group_symop_operation_xyz
x,y,z
1/2-x,-y,1/2+z
1/2+x,1/2-y,1/2-z
-x,1/2+y,-z
-x,-y,-z
1/2+x,y,1/2-z
1/2-x,1/2+y,1/2+z
x,1/2-y,z
loop_
_atom_site_type_symbol
_atom_site_label
_atom_site_fract_x
_atom_site_fract_y
_atom_site_fract_z
Si Si1 0.495950 0.929773 0.063749
Si Si2 0.776926 0.578001 0.821037
Si Si3 0.430833 0.930500 0.719660
Si Si4 0.731619 0.923480 0.683205
Si Si5 0.868895 0.928870 0.349469
Si Si6 0.084678 0.429308 0.783676
Si Si7 0.120152 0.570799 0.342603
O O1 0.491998 0.750000 0.058899
O O2 0.424770 0.981675 0.100661
O O3 0.567163 0.964580 0.103209
O O4 0.500000 0.000000 0.000000
O O5 0.774201 0.750000 0.839800
O O6 0.861258 0.526131 0.820958
O O7 0.755021 0.572660 0.752022
O O8 0.713694 0.488513 0.853859
O O9 0.432123 0.750000 0.723448
O O10 0.508158 0.995459 0.699167
O O11 0.414166 0.998302 0.783934
O O12 0.725744 0.750000 0.666269
O O13 0.653984 0.006910 0.680809
O O14 0.798202 0.005600 0.650652
O O15 0.867224 0.750000 0.351125
O O16 0.900320 0.969178 0.284984
O O17 0.081006 0.250000 0.787876
O O18 0.122565 0.750000 0.334901
#
# Coordination Sequence:
#
# PCOD9461397 Si02
#       7
#     8   8   8   8   8   8   8
#     4  10  21  34  46  64  86 113 153 193 226 264
#     4   8  16  27  39  59  83 110 143 175 212 259
#     4  10  18  27  41  63  90 117 147 181 216 260
#     4   9  17  28  41  62  86 111 146 179 216 265
#     4   9  17  30  43  58  82 111 145 183 219 257
#     4  10  17  27  43  63  88 118 148 178 217 261
#     4  10  18  31  45  59  84 115 149 186 224 265
#
# _framework density 15.03328
#
# number of rings (size 3 to 8) (size 9 to 14) (size 15 to 20)
#    0.000    2.571    1.429    2.571    0.000    6.286 
#    0.000    0.000    0.000    0.000    0.000    0.000 
#    0.000    1.143    0.000    3.714    0.000    5.429 
#
# Total GULP energy -311951.056256 kJ/mol
# GULP energy per Si atom -5570.554576 kJ/mol
# Density = 1.499906 g / cm^3
# Si number density = 15.033280 Si / 1000 Ang^3
#
#
#
# Elastic Constant Matrix: (Units=GPa)
#
#
# Indices 1 2 3 4 5 6 
#
# 1 170.5633 55.4655 43.6277 0.0000 0.0000 0.0000
# 2 55.4655 51.2706 24.4233 0.0000 0.0000 0.0000
# 3 43.6277 24.4233 48.0647 0.0000 0.0000 0.0000
# 4 0.0000 0.0000 0.0000 16.5425 0.0000 0.0000
# 5 0.0000 0.0000 0.0000 0.0000 13.1344 0.0000
# 6 0.0000 0.0000 0.0000 0.0000 0.0000 30.8564
#
#
#
# Elastic Compliance Matrix: (Units=1/GPa)
#
#
# Indices 1 2 3 4 5 6 
#
# 1 0.009762 -0.008365 -0.004611 0.000000 0.000000 0.000000
# 2 -0.008365 0.032900 -0.009125 0.000000 0.000000 0.000000
# 3 -0.004611 -0.009125 0.029627 0.000000 0.000000 0.000000
# 4 0.000000 0.000000 0.000000 0.060450 0.000000 0.000000
# 5 0.000000 0.000000 0.000000 0.000000 0.076136 0.000000
# 6 0.000000 0.000000 0.000000 0.000000 0.000000 0.032408
#
#
# Mechanical properties :
#
#
# Convention : Reuss Voigt Hill
#
# Bulk Modulus (GPa) = 35.60168 57.43684 46.51926
# Shear Modulus (GPa) = 16.95784 21.86547 19.41165
#
# Velocity S-wave (km/s) = 3.36224 3.81789 3.59729
# Velocity P-wave (km/s) = 6.22947 7.59766 6.94733
#
# Compressibility (1/GPa) = 0.02808856
#
# Stress axis : x y z
#
# Youngs Moduli (GPa) = 102.43325 30.39478 33.75264
#
# Poissons Ratio (x) = 0.25425 0.15563
# Poissons Ratio (y) = 0.85683 0.30800
# Poissons Ratio (z) = 0.47230 0.27736
#
# Static dielectric constant tensor:
#      x y z
#    x 1.528500 0.000000 0.000000 
#    y 0.000000 1.504600 0.000000 
#    z 0.000000 0.000000 1.459940 
# 
# From -- ./inp_files/27536.got.cif
#   From: 2010.05.17/outbox.cif.g08.bks.cpg/sg62_14_cif.got.tgz:27536.got - 2010.06.03 15:25:27.
