data_PCOD9461211
_publ_section_title
;
Structure prediction by ZEFSAII (Michael W. Deem and Ramdas Pophale) SiO2 
 PCOD9461211
Probable space group: P B C A
;
_chemical_formula_sum "Si O2"
_cell_formula_units_Z 48
_cell_length_a 9.193990
_cell_length_b 17.250333
_cell_length_c 14.008462
_cell_angle_alpha 90.000000
_cell_angle_beta 90.000000
_cell_angle_gamma 90.000000
_cell_volume 2221.733515
_symmetry_space_group_name_H-M "P B C A"
_symmetry_group_IT_number 61
_symmetry_cell_setting 'orthorhombic'
loop_
_space_group_symop_operation_xyz
x,y,z
1/2-x,-y,1/2+z
1/2+x,1/2-y,-z
-x,1/2+y,1/2-z
-x,-y,-z
1/2+x,y,1/2-z
1/2-x,1/2+y,z
x,1/2-y,1/2+z
loop_
_atom_site_type_symbol
_atom_site_label
_atom_site_fract_x
_atom_site_fract_y
_atom_site_fract_z
Si Si1 0.908415 0.312428 0.427975
Si Si2 0.250991 0.794204 0.440743
Si Si3 0.667585 0.782557 0.741032
Si Si4 0.092167 0.932351 0.549943
Si Si5 0.065313 0.109786 0.252744
Si Si6 0.599915 0.509825 0.905727
O O1 0.802923 0.286350 0.513018
O O2 0.866206 0.254045 0.343143
O O3 0.883736 0.399004 0.392234
O O4 0.077995 0.306912 0.458185
O O5 0.231226 0.782295 0.328138
O O6 0.145311 0.860801 0.482949
O O7 0.516134 0.817233 0.704683
O O8 0.771686 0.857766 0.742549
O O9 0.244126 0.971255 0.578634
O O10 0.000809 0.903963 0.642097
O O11 0.000000 0.000000 0.500000
O O12 0.040697 0.035192 0.186871
O O13 0.500000 0.500000 0.000000
#
# Coordination Sequence:
#
# PCOD9461211 Si02
#       6
#     8   8   8   8   8   8
#     4  12  28  46  75 113 144 199 251 314 375 462
#     4  12  26  49  73 107 152 190 256 307 381 452
#     4  12  26  46  77 107 147 198 247 309 379 448
#     4  12  29  48  75 111 149 202 252 310 382 456
#     4  12  26  51  73 110 153 197 248 311 385 455
#     4  12  27  47  77 106 153 197 251 311 380 452
#
# _framework density 21.604752000000001
#
# number of rings (size 3 to 8) (size 9 to 14) (size 15 to 20)
#    0.000    0.000    6.667    1.000   11.667    1.333 
#    0.000    0.000    0.000    0.000    0.000    0.000 
#    0.000    0.000    0.000    0.000    0.000    0.000 
#
# Total GULP energy -268363.811657 kJ/mol
# GULP energy per Si atom -5590.912743 kJ/mol
# Density = 2.155558 g / cm^3
# Si number density = 21.604752 Si / 1000 Ang^3
#
#
#
# Elastic Constant Matrix: (Units=GPa)
#
#
# Indices 1 2 3 4 5 6 
#
# 1 60.3104 4.7736 29.1048 0.0000 0.0000 0.0000
# 2 4.7736 97.4773 46.4408 0.0000 0.0000 0.0000
# 3 29.1048 46.4408 106.4493 0.0000 0.0000 0.0000
# 4 0.0000 0.0000 0.0000 45.5593 0.0000 0.0000
# 5 0.0000 0.0000 0.0000 0.0000 34.9820 0.0000
# 6 0.0000 0.0000 0.0000 0.0000 0.0000 41.8054
#
#
#
# Elastic Compliance Matrix: (Units=1/GPa)
#
#
# Indices 1 2 3 4 5 6 
#
# 1 0.019403 0.001991 -0.006174 0.000000 0.000000 0.000000
# 2 0.001991 0.013155 -0.006284 0.000000 0.000000 0.000000
# 3 -0.006174 -0.006284 0.013823 0.000000 0.000000 0.000000
# 4 0.000000 0.000000 0.000000 0.021949 0.000000 0.000000
# 5 0.000000 0.000000 0.000000 0.000000 0.028586 0.000000
# 6 0.000000 0.000000 0.000000 0.000000 0.000000 0.023920
#
#
# Mechanical properties :
#
#
# Convention : Reuss Voigt Hill
#
# Bulk Modulus (GPa) = 39.29449 47.20839 43.25144
# Shear Modulus (GPa) = 33.27747 36.73052 35.00399
#
# Velocity S-wave (km/s) = 3.92890 4.12772 4.02954
# Velocity P-wave (km/s) = 6.22969 6.67950 6.45852
#
# Compressibility (1/GPa) = 0.02544886
#
# Stress axis : x y z
#
# Youngs Moduli (GPa) = 51.53959 76.01710 72.34104
#
# Poissons Ratio (x) = -0.15136 0.44660
# Poissons Ratio (y) = -0.10262 0.45456
# Poissons Ratio (z) = 0.31818 0.47765
#
# Static dielectric constant tensor:
#      x y z
#    x 1.780990 0.000000 0.000000 
#    y 0.000000 1.816230 0.000000 
#    z 0.000000 0.000000 1.832280 
# 
# From -- ./inp_files/7055.got.cif
#   From: 2010.05.17/outbox.cif.g08.bks.cpg/sg61_4_cif.got.tgz:7055.got - 2010.06.03 15:17:17.
