data_PCOD9461681
_publ_section_title
;
Structure prediction by ZEFSAII (Michael W. Deem and Ramdas Pophale) SiO2 
 PCOD9461681
Probable space group: P N M A
;
_chemical_formula_sum "Si O2"
_cell_formula_units_Z 48
_cell_length_a 24.552278
_cell_length_b 8.560000
_cell_length_c 14.204771
_cell_angle_alpha 90.000000
_cell_angle_beta 90.000000
_cell_angle_gamma 90.000000
_cell_volume 2985.381205
_symmetry_space_group_name_H-M "P N M A"
_symmetry_group_IT_number 62
_symmetry_cell_setting 'orthorhombic'
loop_
_space_group_symop_operation_xyz
x,y,z
1/2-x,-y,1/2+z
1/2+x,1/2-y,1/2-z
-x,1/2+y,-z
-x,-y,-z
1/2+x,y,1/2-z
1/2-x,1/2+y,1/2+z
x,1/2-y,z
loop_
_atom_site_type_symbol
_atom_site_label
_atom_site_fract_x
_atom_site_fract_y
_atom_site_fract_z
Si Si1 0.058009 0.061387 0.608674
Si Si2 0.274667 0.937625 0.609846
Si Si3 0.939618 0.936660 0.609737
Si Si4 0.667478 0.060729 0.789416
Si Si5 0.165525 0.562987 0.287763
Si Si6 0.225975 0.439799 0.896873
O O1 0.054788 0.250000 0.611043
O O2 0.068228 0.014331 0.499782
O O3 0.108716 0.011120 0.672654
O O4 0.999719 0.993824 0.637871
O O5 0.275212 0.750000 0.611455
O O6 0.284167 0.993104 0.502977
O O7 0.215741 0.996232 0.645134
O O8 0.318112 0.999736 0.685287
O O9 0.937555 0.750000 0.613241
O O10 0.891693 0.004714 0.673107
O O11 0.669781 0.250000 0.793501
O O12 0.682595 0.012557 0.682860
O O13 0.166069 0.750000 0.284855
O O14 0.214629 0.511776 0.357849
O O15 0.225943 0.250000 0.898768
#
# Coordination Sequence:
#
# PCOD9461681 Si02
#       6
#     8   8   8   8   8   8
#     4   9  18  31  48  69  94 124 154 186 227 275
#     4  10  18  29  46  69  94 119 149 185 227 268
#     4  10  19  30  46  70  96 121 152 190 230 271
#     4   9  17  31  48  67  92 122 154 184 221 270
#     4  10  19  32  48  67  93 124 155 186 226 273
#     4   8  16  29  46  67  91 119 148 183 225 267
#
# _framework density 16.078347999999998
#
# number of rings (size 3 to 8) (size 9 to 14) (size 15 to 20)
#    0.000    2.667    0.000    3.500    0.000    1.333 
#    0.000    7.500    0.000    1.000    0.000    0.000 
#    0.000    0.000    0.000    0.000    0.000    0.000 
#
# Total GULP energy -267604.848985 kJ/mol
# GULP energy per Si atom -5575.101021 kJ/mol
# Density = 1.604175 g / cm^3
# Si number density = 16.078348 Si / 1000 Ang^3
#
#
#
# Elastic Constant Matrix: (Units=GPa)
#
#
# Indices 1 2 3 4 5 6 
#
# 1 151.2796 33.1652 98.4315 0.0000 0.0000 0.0000
# 2 33.1652 25.1925 29.5821 0.0000 0.0000 0.0000
# 3 98.4315 29.5821 144.0284 0.0000 0.0000 0.0000
# 4 0.0000 0.0000 0.0000 18.9490 0.0000 0.0000
# 5 0.0000 0.0000 0.0000 0.0000 23.5883 0.0000
# 6 0.0000 0.0000 0.0000 0.0000 0.0000 25.1295
#
#
#
# Elastic Compliance Matrix: (Units=1/GPa)
#
#
# Indices 1 2 3 4 5 6 
#
# 1 0.013291 -0.009002 -0.007234 0.000000 0.000000 0.000000
# 2 -0.009002 0.058408 -0.005844 0.000000 0.000000 0.000000
# 3 -0.007234 -0.005844 0.013087 0.000000 0.000000 0.000000
# 4 0.000000 0.000000 0.000000 0.052773 0.000000 0.000000
# 5 0.000000 0.000000 0.000000 0.000000 0.042394 0.000000
# 6 0.000000 0.000000 0.000000 0.000000 0.000000 0.039794
#
#
# Mechanical properties :
#
#
# Convention : Reuss Voigt Hill
#
# Bulk Modulus (GPa) = 24.61533 71.42868 48.02200
# Shear Modulus (GPa) = 18.02121 24.15480 21.08800
#
# Velocity S-wave (km/s) = 3.35152 3.88018 3.62550
# Velocity P-wave (km/s) = 5.50634 8.03718 6.88898
#
# Compressibility (1/GPa) = 0.04062510
#
# Stress axis : x y z
#
# Youngs Moduli (GPa) = 75.23946 17.12085 76.40929
#
# Poissons Ratio (x) = 0.15413 0.55276
# Poissons Ratio (y) = 0.67733 0.44655
# Poissons Ratio (z) = 0.54430 0.10006
#
# Static dielectric constant tensor:
#      x y z
#    x 1.513960 0.000000 0.000000 
#    y 0.000000 1.542530 0.000000 
#    z 0.000000 0.000000 1.541480 
# 
# From -- ./inp_files/15121.got.cif
#   From: 2010.05.17/outbox.cif.g08.bks.cpg/sg62_8_cif.got.tgz:15121.got - 2010.06.03 15:25:27.
