data_PCOD9461625
_publ_section_title
;
Structure prediction by ZEFSAII (Michael W. Deem and Ramdas Pophale) SiO2 
 PCOD9461625
Probable space group: P N M A
;
_chemical_formula_sum "Si O2"
_cell_formula_units_Z 64
_cell_length_a 20.590321
_cell_length_b 12.852468
_cell_length_c 10.771725
_cell_angle_alpha 90.000000
_cell_angle_beta 90.000000
_cell_angle_gamma 90.000000
_cell_volume 2850.590976
_symmetry_space_group_name_H-M "P N M A"
_symmetry_group_IT_number 62
_symmetry_cell_setting 'orthorhombic'
loop_
_space_group_symop_operation_xyz
x,y,z
1/2-x,-y,1/2+z
1/2+x,1/2-y,1/2-z
-x,1/2+y,-z
-x,-y,-z
1/2+x,y,1/2-z
1/2-x,1/2+y,1/2+z
x,1/2-y,z
loop_
_atom_site_type_symbol
_atom_site_label
_atom_site_fract_x
_atom_site_fract_y
_atom_site_fract_z
Si Si1 0.010848 0.131007 0.856557
Si Si2 0.945014 0.130488 0.321311
Si Si3 0.671070 0.469147 0.851021
Si Si4 0.210555 0.366646 0.162902
Si Si5 0.303645 0.561217 0.403785
Si Si6 0.658823 0.021324 0.113904
Si Si7 0.080151 0.565571 0.944220
Si Si8 0.034631 0.873833 0.410597
O O1 0.029809 0.250000 0.866907
O O2 0.008569 0.100936 0.710683
O O3 0.941255 0.115325 0.926226
O O4 0.055319 0.052777 0.933125
O O5 0.924553 0.250000 0.335896
O O6 0.957263 0.118132 0.173336
O O7 0.989357 0.110949 0.445585
O O8 0.886411 0.051983 0.341072
O O9 0.734238 0.543906 0.841611
O O10 0.671932 0.398875 0.729243
O O11 0.662702 0.416582 0.983766
O O12 0.234108 0.250000 0.191547
O O13 0.160060 0.405379 0.266540
O O14 0.183836 0.370216 0.023690
O O15 0.226693 0.542410 0.389975
O O16 0.342610 0.451086 0.425619
O O17 0.599460 0.941328 0.109567
O O18 0.047829 0.750000 0.397633
#
# Coordination Sequence:
#
# PCOD9461625 Si02
#       8
#     8   8   8   8   8   8   8   8
#     4  10  21  36  52  72 101 136 174 213 249 293
#     4   9  16  29  52  77  96 118 157 206 254 303
#     4   8  16  30  47  68  97 128 160 205 252 292
#     4  10  18  28  45  69  99 135 168 197 240 302
#     4   9  18  31  49  73  99 130 165 204 252 301
#     4   9  17  31  51  74 104 131 161 206 254 307
#     4  10  20  34  52  74 101 133 169 211 258 297
#     4   9  18  33  54  77  99 128 168 212 255 298
#
# _framework density 22.451484000000001
#
# number of rings (size 3 to 8) (size 9 to 14) (size 15 to 20)
#    0.000    2.750    0.000    1.500    0.000    4.000 
#    0.000    1.250    0.000   15.000    0.000    0.000 
#    0.000    0.000    0.000    0.000    0.000    0.000 
#
# Total GULP energy -356349.737000 kJ/mol
# GULP energy per Si atom -5567.964641 kJ/mol
# Density = 2.240038 g / cm^3
# Si number density = 22.451484 Si / 1000 Ang^3
#
#
#
# Elastic Constant Matrix: (Units=GPa)
#
#
# Indices 1 2 3 4 5 6 
#
# 1 45.7625 18.7183 -1.2503 0.0000 0.0000 0.0000
# 2 18.7183 63.7052 40.9363 0.0000 0.0000 0.0000
# 3 -1.2503 40.9363 144.1528 0.0000 0.0000 0.0000
# 4 0.0000 0.0000 0.0000 25.1478 0.0000 0.0000
# 5 0.0000 0.0000 0.0000 0.0000 24.4941 0.0000
# 6 0.0000 0.0000 0.0000 0.0000 0.0000 6.4012
#
#
#
# Elastic Compliance Matrix: (Units=1/GPa)
#
#
# Indices 1 2 3 4 5 6 
#
# 1 0.025796 -0.009447 0.002907 0.000000 0.000000 0.000000
# 2 -0.009447 0.022661 -0.006517 0.000000 0.000000 0.000000
# 3 0.002907 -0.006517 0.008813 0.000000 0.000000 0.000000
# 4 0.000000 0.000000 0.000000 0.039765 0.000000 0.000000
# 5 0.000000 0.000000 0.000000 0.000000 0.040826 0.000000
# 6 0.000000 0.000000 0.000000 0.000000 0.000000 0.156221
#
#
# Mechanical properties :
#
#
# Convention : Reuss Voigt Hill
#
# Bulk Modulus (GPa) = 32.09862 41.15881 36.62871
# Shear Modulus (GPa) = 15.12486 24.22303 19.67395
#
# Velocity S-wave (km/s) = 2.59833 3.28823 2.96343
# Velocity P-wave (km/s) = 4.83008 5.72615 5.29710
#
# Compressibility (1/GPa) = 0.03115399
#
# Stress axis : x y z
#
# Youngs Moduli (GPa) = 38.76641 44.12867 113.46834
#
# Poissons Ratio (x) = 0.41689 -0.32980
# Poissons Ratio (y) = 0.36623 0.73949
# Poissons Ratio (z) = -0.11267 0.28759
#
# Static dielectric constant tensor:
#      x y z
#    x 1.917830 0.000000 0.000000 
#    y 0.000000 1.785200 0.000000 
#    z 0.000000 0.000000 1.964930 
# 
# From -- ./inp_files/15337.got.cif
#   From: 2010.05.17/outbox.cif.g08.bks.cpg/sg62_8_cif.got.tgz:15337.got - 2010.06.03 15:25:27.
