data_PCOD9461753
_publ_section_title
;
Structure prediction by ZEFSAII (Michael W. Deem and Ramdas Pophale) SiO2 
 PCOD9461753
Probable space group: P N M A
;
_chemical_formula_sum "Si O2"
_cell_formula_units_Z 56
_cell_length_a 8.153108
_cell_length_b 30.277198
_cell_length_c 13.419306
_cell_angle_alpha 90.000000
_cell_angle_beta 90.000000
_cell_angle_gamma 90.000000
_cell_volume 3312.599503
_symmetry_space_group_name_H-M "P N M A"
_symmetry_group_IT_number 62
_symmetry_cell_setting 'orthorhombic'
loop_
_space_group_symop_operation_xyz
x,y,z
1/2-x,-y,1/2+z
1/2+x,1/2-y,1/2-z
-x,1/2+y,-z
-x,-y,-z
1/2+x,y,1/2-z
1/2-x,1/2+y,1/2+z
x,1/2-y,z
loop_
_atom_site_type_symbol
_atom_site_label
_atom_site_fract_x
_atom_site_fract_y
_atom_site_fract_z
Si Si1 0.831404 0.153277 0.173553
Si Si2 0.667584 0.520505 0.393932
Si Si3 0.297351 0.519602 0.316392
Si Si4 0.289986 0.847145 0.604211
Si Si5 0.650832 0.750000 0.678770
Si Si6 0.180027 0.564926 0.505017
Si Si7 0.724954 0.250000 0.395229
Si Si8 0.808677 0.566612 0.579819
O O1 0.812987 0.148439 0.292871
O O2 0.773060 0.203159 0.147194
O O3 0.730269 0.114725 0.121311
O O4 0.020385 0.149822 0.139375
O O5 0.483353 0.520592 0.354183
O O6 0.780189 0.530839 0.298898
O O7 0.717308 0.472625 0.436558
O O8 0.695928 0.553828 0.485214
O O9 0.197025 0.551883 0.389514
O O10 0.228348 0.470265 0.336373
O O11 0.247465 0.887095 0.531919
O O12 0.256598 0.798498 0.557739
O O13 0.659644 0.750000 0.798246
O O14 0.462309 0.750000 0.645369
O O15 0.994111 0.561705 0.542762
#
# Coordination Sequence:
#
# PCOD9461753 Si02
#       8
#     8   8   8   8   4   8   4   8
#     4  10  18  30  46  68  95 126 158 193 232 275
#     4  11  21  35  51  69  93 123 155 193 232 273
#     4  11  21  35  51  69  93 123 155 193 232 273
#     4  10  18  30  46  68  95 126 158 193 232 275
#     4   8  16  28  44  64  91 122 155 190 230 274
#     4  11  21  33  48  70  95 124 158 192 228 274
#     4   8  16  28  44  64  91 122 155 190 230 274
#     4  11  21  33  48  70  95 124 158 192 228 274
#
# _framework density 16.905152000000001
#
# number of rings (size 3 to 8) (size 9 to 14) (size 15 to 20)
#    0.000    1.714    0.000    8.571    0.000    1.143 
#    0.000    0.000    0.000    0.000    0.000    1.000 
#    0.000    0.000    0.000    0.000    0.000    0.000 
#
# Total GULP energy -312592.466272 kJ/mol
# GULP energy per Si atom -5582.008326 kJ/mol
# Density = 1.686668 g / cm^3
# Si number density = 16.905152 Si / 1000 Ang^3
#
#
#
# Elastic Constant Matrix: (Units=GPa)
#
#
# Indices 1 2 3 4 5 6 
#
# 1 42.9390 5.3451 -10.5480 0.0000 0.0000 0.0000
# 2 5.3451 127.4935 26.9262 0.0000 0.0000 0.0000
# 3 -10.5480 26.9262 52.0699 0.0000 0.0000 0.0000
# 4 0.0000 0.0000 0.0000 18.9932 0.0000 0.0000
# 5 0.0000 0.0000 0.0000 0.0000 25.2131 0.0000
# 6 0.0000 0.0000 0.0000 0.0000 0.0000 18.0388
#
#
#
# Elastic Compliance Matrix: (Units=1/GPa)
#
#
# Indices 1 2 3 4 5 6 
#
# 1 0.025141 -0.002391 0.006329 0.000000 0.000000 0.000000
# 2 -0.002391 0.009033 -0.005155 0.000000 0.000000 0.000000
# 3 0.006329 -0.005155 0.023153 0.000000 0.000000 0.000000
# 4 0.000000 0.000000 0.000000 0.052651 0.000000 0.000000
# 5 0.000000 0.000000 0.000000 0.000000 0.039662 0.000000
# 6 0.000000 0.000000 0.000000 0.000000 0.000000 0.055436
#
#
# Mechanical properties :
#
#
# Convention : Reuss Voigt Hill
#
# Bulk Modulus (GPa) = 18.21713 29.54988 23.88350
# Shear Modulus (GPa) = 22.14287 25.83429 23.98858
#
# Velocity S-wave (km/s) = 3.62308 3.91345 3.77106
# Velocity P-wave (km/s) = 5.31994 6.15937 5.75498
#
# Compressibility (1/GPa) = 0.05489340
#
# Stress axis : x y z
#
# Youngs Moduli (GPa) = 39.77530 110.71111 43.19107
#
# Poissons Ratio (x) = 0.26468 -0.27337
# Poissons Ratio (y) = 0.09509 0.22266
# Poissons Ratio (z) = -0.25175 0.57073
#
# Static dielectric constant tensor:
#      x y z
#    x 1.611880 0.000000 0.000000 
#    y 0.000000 1.591490 0.000000 
#    z 0.000000 0.000000 1.552880 
# 
# From -- ./inp_files/17426.got.cif
#   From: 2010.05.17/outbox.cif.g08.bks.cpg/sg62_9_cif.got.tgz:17426.got - 2010.06.03 15:25:27.
