data_PCOD9461867
_publ_section_title
;
Structure prediction by ZEFSAII (Michael W. Deem and Ramdas Pophale) SiO2 
 PCOD9461867
Probable space group: P N M A
;
_chemical_formula_sum "Si O2"
_cell_formula_units_Z 64
_cell_length_a 16.970876
_cell_length_b 23.333065
_cell_length_c 7.259875
_cell_angle_alpha 90.000000
_cell_angle_beta 90.000000
_cell_angle_gamma 90.000000
_cell_volume 2874.783836
_symmetry_space_group_name_H-M "P N M A"
_symmetry_group_IT_number 62
_symmetry_cell_setting 'orthorhombic'
loop_
_space_group_symop_operation_xyz
x,y,z
1/2-x,-y,1/2+z
1/2+x,1/2-y,1/2-z
-x,1/2+y,-z
-x,-y,-z
1/2+x,y,1/2-z
1/2-x,1/2+y,1/2+z
x,1/2-y,z
loop_
_atom_site_type_symbol
_atom_site_label
_atom_site_fract_x
_atom_site_fract_y
_atom_site_fract_z
Si Si1 0.663961 0.607285 0.111936
Si Si2 0.814991 0.681909 0.050854
Si Si3 0.984699 0.612616 0.467911
Si Si4 0.871904 0.983448 0.499940
Si Si5 0.445416 0.910271 0.465449
Si Si6 0.907679 0.033990 0.134129
Si Si7 0.846107 0.812667 0.494944
Si Si8 0.731672 0.596261 0.493528
O O1 0.578237 0.621261 0.027926
O O2 0.676229 0.618687 0.329749
O O3 0.734867 0.644387 0.023962
O O4 0.664203 0.537257 0.107609
O O5 0.812843 0.750000 0.997306
O O6 0.887471 0.641647 0.979780
O O7 0.828376 0.683410 0.274671
O O8 0.933531 0.563427 0.575511
O O9 0.966594 0.599661 0.250800
O O10 0.935738 0.668689 0.519814
O O11 0.799707 0.946376 0.419362
O O12 0.920757 0.013386 0.339275
O O13 0.528159 0.920585 0.566957
O O14 0.407843 0.974509 0.481306
O O15 0.822577 0.062069 0.130893
O O16 0.832422 0.750000 0.562309
O O17 0.782710 0.854371 0.584643
#
# Coordination Sequence:
#
# PCOD9461867 Si02
#       8
#     8   8   8   8   8   8   8   8
#     4  11  19  31  50  75 101 125 164 201 245 293
#     4   9  18  32  50  72  97 130 169 209 242 281
#     4   9  17  30  47  71 102 128 155 201 249 293
#     4  10  20  31  46  75 106 131 154 195 250 297
#     4   9  17  32  50  71  99 130 165 202 240 290
#     4  10  18  31  52  75  99 131 162 195 246 299
#     4   8  16  30  48  71  99 124 157 204 250 283
#     4  10  18  31  50  73 101 129 160 199 240 287
#
# _framework density 22.262543000000001
#
# number of rings (size 3 to 8) (size 9 to 14) (size 15 to 20)
#    0.000    2.500    1.250    4.125    0.000    0.500 
#    0.000    0.625    0.000    1.500    0.000    0.000 
#    0.000    0.000    0.000    0.000    0.000    0.000 
#
# Total GULP energy -356585.414439 kJ/mol
# GULP energy per Si atom -5571.647101 kJ/mol
# Density = 2.221187 g / cm^3
# Si number density = 22.262543 Si / 1000 Ang^3
#
#
#
# Elastic Constant Matrix: (Units=GPa)
#
#
# Indices 1 2 3 4 5 6 
#
# 1 154.4875 83.7302 0.7425 0.0000 0.0000 0.0000
# 2 83.7302 131.5589 4.5554 0.0000 0.0000 0.0000
# 3 0.7425 4.5554 27.5654 0.0000 0.0000 0.0000
# 4 0.0000 0.0000 0.0000 10.8921 0.0000 0.0000
# 5 0.0000 0.0000 0.0000 0.0000 26.5692 0.0000
# 6 0.0000 0.0000 0.0000 0.0000 0.0000 22.2838
#
#
#
# Elastic Compliance Matrix: (Units=1/GPa)
#
#
# Indices 1 2 3 4 5 6 
#
# 1 0.009898 -0.006327 0.000779 0.000000 0.000000 0.000000
# 2 -0.006327 0.011689 -0.001761 0.000000 0.000000 0.000000
# 3 0.000779 -0.001761 0.036547 0.000000 0.000000 0.000000
# 4 0.000000 0.000000 0.000000 0.091809 0.000000 0.000000
# 5 0.000000 0.000000 0.000000 0.000000 0.037637 0.000000
# 6 0.000000 0.000000 0.000000 0.000000 0.000000 0.044876
#
#
# Mechanical properties :
#
#
# Convention : Reuss Voigt Hill
#
# Bulk Modulus (GPa) = 22.97985 54.62980 38.80482
# Shear Modulus (GPa) = 19.11458 26.92128 23.01793
#
# Velocity S-wave (km/s) = 2.93336 3.48122 3.21897
# Velocity P-wave (km/s) = 4.67091 6.38363 5.59322
#
# Compressibility (1/GPa) = 0.04351638
#
# Stress axis : x y z
#
# Youngs Moduli (GPa) = 101.02796 85.55242 27.36172
#
# Poissons Ratio (x) = 0.54126 -0.02131
# Poissons Ratio (y) = 0.63917 0.04819
# Poissons Ratio (z) = -0.07869 0.15068
#
# Static dielectric constant tensor:
#      x y z
#    x 1.809820 0.000000 0.000000 
#    y 0.000000 1.875570 0.000000 
#    z 0.000000 0.000000 1.922130 
# 
# From -- ./inp_files/8106.got.cif
#   From: 2010.05.17/outbox.cif.g08.bks.cpg/sg62_5_cif.got.tgz:8106.got - 2010.06.03 15:25:27.
