data_PCOD9461476
_publ_section_title
;
Structure prediction by ZEFSAII (Michael W. Deem and Ramdas Pophale) SiO2 
 PCOD9461476
Probable space group: P N M A
;
_chemical_formula_sum "Si O2"
_cell_formula_units_Z 64
_cell_length_a 22.732989
_cell_length_b 13.285429
_cell_length_c 12.369384
_cell_angle_alpha 90.000000
_cell_angle_beta 90.000000
_cell_angle_gamma 90.000000
_cell_volume 3735.770572
_symmetry_space_group_name_H-M "P N M A"
_symmetry_group_IT_number 62
_symmetry_cell_setting 'orthorhombic'
loop_
_space_group_symop_operation_xyz
x,y,z
1/2-x,-y,1/2+z
1/2+x,1/2-y,1/2-z
-x,1/2+y,-z
-x,-y,-z
1/2+x,y,1/2-z
1/2-x,1/2+y,1/2+z
x,1/2-y,z
loop_
_atom_site_type_symbol
_atom_site_label
_atom_site_fract_x
_atom_site_fract_y
_atom_site_fract_z
Si Si1 0.477664 0.431098 0.643053
Si Si2 0.530590 0.135936 0.857933
Si Si3 0.752120 0.369467 0.944456
Si Si4 0.529072 0.636813 0.595926
Si Si5 0.642891 0.869897 0.283866
Si Si6 0.145218 0.503331 0.634638
Si Si7 0.666186 0.867344 0.652441
Si Si8 0.406700 0.129956 0.946162
O O1 0.504077 0.363808 0.737362
O O2 0.501970 0.543479 0.660251
O O3 0.491707 0.385708 0.526240
O O4 0.407692 0.429209 0.653586
O O5 0.544255 0.250000 0.892840
O O6 0.588810 0.069453 0.853129
O O7 0.474363 0.095898 0.926455
O O8 0.737237 0.250000 0.946386
O O9 0.795732 0.386612 0.842573
O O10 0.696393 0.439227 0.922693
O O11 0.788087 0.390922 0.055512
O O12 0.512266 0.750000 0.629061
O O13 0.599746 0.629949 0.604699
O O14 0.630373 0.750000 0.295120
O O15 0.633220 0.896818 0.158471
O O16 0.166117 0.556067 0.746311
O O17 0.122253 0.588398 0.553298
O O18 0.676491 0.750000 0.685753
O O19 0.409570 0.250000 0.949558
#
# Coordination Sequence:
#
# PCOD9461476 Si02
#       8
#     8   8   8   8   8   8   8   8
#     4  10  17  30  54  80 107 142 178 221 270 317
#     4  10  20  35  54  84 115 143 182 227 279 331
#     4  10  22  38  57  79 109 147 192 234 277 332
#     4  10  18  30  52  82 112 140 177 219 269 327
#     4   9  17  34  57  78 103 143 188 222 261 330
#     4  12  22  35  58  83 112 144 187 235 286 328
#     4  10  21  38  57  82 112 146 185 229 281 339
#     4   9  20  36  57  81 109 145 185 228 275 336
#
# _framework density 17.131672999999999
#
# number of rings (size 3 to 8) (size 9 to 14) (size 15 to 20)
#    0.000    2.000    2.500    3.000    1.750    0.000 
#    0.000    0.000    0.000    4.500    0.000    0.000 
#    0.000    0.000    0.000    0.000    0.000    0.000 
#
# Total GULP energy -356554.495019 kJ/mol
# GULP energy per Si atom -5571.163985 kJ/mol
# Density = 1.709268 g / cm^3
# Si number density = 17.131673 Si / 1000 Ang^3
#
#
#
# Elastic Constant Matrix: (Units=GPa)
#
#
# Indices 1 2 3 4 5 6 
#
# 1 84.8317 37.1972 29.3673 0.0000 0.0000 0.0000
# 2 37.1972 62.7099 30.4233 0.0000 0.0000 0.0000
# 3 29.3673 30.4233 66.1691 0.0000 0.0000 0.0000
# 4 0.0000 0.0000 0.0000 22.9937 0.0000 0.0000
# 5 0.0000 0.0000 0.0000 0.0000 18.7847 0.0000
# 6 0.0000 0.0000 0.0000 0.0000 0.0000 31.1409
#
#
#
# Elastic Compliance Matrix: (Units=1/GPa)
#
#
# Indices 1 2 3 4 5 6 
#
# 1 0.016591 -0.008069 -0.003654 0.000000 0.000000 0.000000
# 2 -0.008069 0.024449 -0.007660 0.000000 0.000000 0.000000
# 3 -0.003654 -0.007660 0.020256 0.000000 0.000000 0.000000
# 4 0.000000 0.000000 0.000000 0.043490 0.000000 0.000000
# 5 0.000000 0.000000 0.000000 0.000000 0.053235 0.000000
# 6 0.000000 0.000000 0.000000 0.000000 0.000000 0.032112
#
#
# Mechanical properties :
#
#
# Convention : Reuss Voigt Hill
#
# Bulk Modulus (GPa) = 44.38254 45.29847 44.84050
# Shear Modulus (GPa) = 21.14994 22.36540 21.75767
#
# Velocity S-wave (km/s) = 3.51743 3.61709 3.56761
# Velocity P-wave (km/s) = 6.51609 6.62897 6.57277
#
# Compressibility (1/GPa) = 0.02253138
#
# Stress axis : x y z
#
# Youngs Moduli (GPa) = 60.27446 40.90213 49.36749
#
# Poissons Ratio (x) = 0.33002 0.18037
# Poissons Ratio (y) = 0.48633 0.37815
# Poissons Ratio (z) = 0.22022 0.31331
#
# Static dielectric constant tensor:
#      x y z
#    x 1.574380 0.000000 0.000000 
#    y 0.000000 1.590460 0.000000 
#    z 0.000000 0.000000 1.589400 
# 
# From -- ./inp_files/14312.got.cif
#   From: 2010.05.17/outbox.cif.g08.bks.cpg/sg62_8_cif.got.tgz:14312.got - 2010.06.03 15:25:27.
