data_PCOD9461787
_publ_section_title
;
Structure prediction by ZEFSAII (Michael W. Deem and Ramdas Pophale) SiO2 
 PCOD9461787
Probable space group: P N M A
;
_chemical_formula_sum "Si O2"
_cell_formula_units_Z 48
_cell_length_a 21.162723
_cell_length_b 7.411318
_cell_length_c 14.751309
_cell_angle_alpha 90.000000
_cell_angle_beta 90.000000
_cell_angle_gamma 90.000000
_cell_volume 2313.649439
_symmetry_space_group_name_H-M "P N M A"
_symmetry_group_IT_number 62
_symmetry_cell_setting 'orthorhombic'
loop_
_space_group_symop_operation_xyz
x,y,z
1/2-x,-y,1/2+z
1/2+x,1/2-y,1/2-z
-x,1/2+y,-z
-x,-y,-z
1/2+x,y,1/2-z
1/2-x,1/2+y,1/2+z
x,1/2-y,z
loop_
_atom_site_type_symbol
_atom_site_label
_atom_site_fract_x
_atom_site_fract_y
_atom_site_fract_z
Si Si1 0.322744 0.028518 0.826963
Si Si2 0.699251 0.465061 0.781185
Si Si3 0.058826 0.958888 0.218255
Si Si4 0.422323 0.528862 0.331037
Si Si5 0.622955 0.468651 0.472571
Si Si6 0.231956 0.964742 0.516682
O O1 0.324159 0.250000 0.824587
O O2 0.265021 0.969381 0.762157
O O3 0.389353 0.964055 0.787194
O O4 0.305361 0.969872 0.928439
O O5 0.699705 0.250000 0.768433
O O6 0.638166 0.531426 0.726941
O O7 0.698731 0.500984 0.887814
O O8 0.050494 0.750000 0.244308
O O9 0.988643 0.036141 0.209297
O O10 0.090115 0.965857 0.118655
O O11 0.423053 0.750000 0.330581
O O12 0.412739 0.476048 0.435731
O O13 0.622997 0.250000 0.469033
O O14 0.695754 0.531734 0.478491
O O15 0.237313 0.750000 0.504894
#
# Coordination Sequence:
#
# PCOD9461787 Si02
#       6
#     8   8   8   8   8   8
#     4   9  17  31  51  70  95 130 164 195 234 289
#     4  10  18  33  53  72  96 129 166 201 236 284
#     4  10  19  32  51  75  98 127 167 203 236 286
#     4   9  18  32  51  73 100 132 162 195 244 297
#     4  10  18  30  49  73 101 129 155 197 254 298
#     4  10  19  32  50  73  98 127 163 202 244 288
#
# _framework density 20.746444
#
# number of rings (size 3 to 8) (size 9 to 14) (size 15 to 20)
#    0.000    2.333    3.333    0.500    0.000    0.000 
#    0.000    4.167    0.000    0.000    0.000    0.000 
#    0.000    0.000    0.000    0.000    0.000    0.000 
#
# Total GULP energy -268095.709032 kJ/mol
# GULP energy per Si atom -5585.327271 kJ/mol
# Density = 2.069922 g / cm^3
# Si number density = 20.746444 Si / 1000 Ang^3
#
#
#
# Elastic Constant Matrix: (Units=GPa)
#
#
# Indices 1 2 3 4 5 6 
#
# 1 47.3921 -5.8274 -11.9416 0.0000 0.0000 0.0000
# 2 -5.8274 66.3580 -15.3850 0.0000 0.0000 0.0000
# 3 -11.9416 -15.3850 75.4512 0.0000 0.0000 0.0000
# 4 0.0000 0.0000 0.0000 -4.2465 0.0000 0.0000
# 5 0.0000 0.0000 0.0000 0.0000 27.0460 0.0000
# 6 0.0000 0.0000 0.0000 0.0000 0.0000 -1.4937
#
#
#
# Elastic Compliance Matrix: (Units=1/GPa)
#
#
# Indices 1 2 3 4 5 6 
#
# 1 0.022511 0.002942 0.004163 0.000000 0.000000 0.000000
# 2 0.002942 0.016202 0.003769 0.000000 0.000000 0.000000
# 3 0.004163 0.003769 0.014681 0.000000 0.000000 0.000000
# 4 0.000000 0.000000 0.000000 -0.235489 0.000000 0.000000
# 5 0.000000 0.000000 0.000000 0.000000 0.036974 0.000000
# 6 0.000000 0.000000 0.000000 0.000000 0.000000 -0.669484
#
#
# Mechanical properties :
#
#
# Convention : Reuss Voigt Hill
#
# Bulk Modulus (GPa) = 13.30807 13.65482 13.48144
# Shear Modulus (GPa) = -6.16291 19.08486 6.46097
#
# Velocity S-wave (km/s) = -1.72541 3.03629 1.76664
# Velocity P-wave (km/s) = 1.56817 4.34605 3.26706
#
# Compressibility (1/GPa) = 0.07514238
#
# Stress axis : x y z
#
# Youngs Moduli (GPa) = 44.42233 61.72058 68.11520
#
# Poissons Ratio (x) = -0.18158 -0.28354
# Poissons Ratio (y) = -0.13069 -0.25675
# Poissons Ratio (z) = -0.18492 -0.23265
#
# Static dielectric constant tensor:
#      x y z
#    x 1.731370 0.000000 0.000000 
#    y 0.000000 1.796460 0.000000 
#    z 0.000000 0.000000 1.711940 
# 
# From -- ./inp_files/14112.got.cif
#   From: 2010.05.17/outbox.cif.g08.bks.cpg/sg62_8_cif.got.tgz:14112.got - 2010.06.03 15:25:27.
