data_PCOD9461696
_publ_section_title
;
Structure prediction by ZEFSAII (Michael W. Deem and Ramdas Pophale) SiO2 
 PCOD9461696
Probable space group: P N M A
;
_chemical_formula_sum "Si O2"
_cell_formula_units_Z 56
_cell_length_a 16.485174
_cell_length_b 7.499677
_cell_length_c 22.521125
_cell_angle_alpha 90.000000
_cell_angle_beta 90.000000
_cell_angle_gamma 90.000000
_cell_volume 2784.365064
_symmetry_space_group_name_H-M "P N M A"
_symmetry_group_IT_number 62
_symmetry_cell_setting 'orthorhombic'
loop_
_space_group_symop_operation_xyz
x,y,z
1/2-x,-y,1/2+z
1/2+x,1/2-y,1/2-z
-x,1/2+y,-z
-x,-y,-z
1/2+x,y,1/2-z
1/2-x,1/2+y,1/2+z
x,1/2-y,z
loop_
_atom_site_type_symbol
_atom_site_label
_atom_site_fract_x
_atom_site_fract_y
_atom_site_fract_z
Si Si1 0.005472 0.458185 0.100372
Si Si2 0.729958 0.546670 0.802488
Si Si3 0.408056 0.969215 0.719449
Si Si4 0.441530 0.038584 0.054134
Si Si5 0.761650 0.546939 0.437551
Si Si6 0.046485 0.967545 0.688087
Si Si7 0.381584 0.466293 0.487603
O O1 0.991980 0.250000 0.114222
O O2 0.051248 0.531594 0.157547
O O3 0.921266 0.532825 0.073665
O O4 0.063964 0.475011 0.043552
O O5 0.724823 0.750000 0.780731
O O6 0.814083 0.469633 0.776338
O O7 0.744118 0.548514 0.874010
O O8 0.638441 0.470348 0.794694
O O9 0.404030 0.750000 0.718580
O O10 0.472183 0.022048 0.770091
O O11 0.429431 0.250000 0.058144
O O12 0.468982 0.979149 0.119801
O O13 0.354183 0.955277 0.043401
O O14 0.500000 0.000000 0.000000
O O15 0.735595 0.750000 0.425261
O O16 0.706828 0.476610 0.491114
O O17 0.049337 0.750000 0.690310
O O18 0.384371 0.250000 0.484068
#
# Coordination Sequence:
#
# PCOD9461696 Si02
#       7
#     8   8   8   8   8   8   8
#     4   9  16  26  43  65  94 126 157 190 230 283
#     4   9  16  28  47  69  91 122 164 202 241 291
#     4   9  15  26  46  70  94 122 158 198 244 289
#     4  10  20  35  54  73  95 123 161 205 254 299
#     4  10  18  29  47  70  98 127 162 200 239 287
#     4   8  16  29  46  71  96 116 150 199 239 285
#     4   9  17  27  40  66  98 125 155 193 234 276
#
# _framework density 20.112304999999999
#
# number of rings (size 3 to 8) (size 9 to 14) (size 15 to 20)
#    0.000    2.857    1.429    1.714    0.000    0.571 
#    0.000    1.429    0.000   15.429    0.000    0.000 
#    0.000    0.000    0.000    0.000    0.000    0.000 
#
# Total GULP energy -311804.914037 kJ/mol
# GULP energy per Si atom -5567.944894 kJ/mol
# Density = 2.006653 g / cm^3
# Si number density = 20.112305 Si / 1000 Ang^3
#
#
#
# Elastic Constant Matrix: (Units=GPa)
#
#
# Indices 1 2 3 4 5 6 
#
# 1 154.4679 -5.6974 75.8674 0.0000 0.0000 0.0000
# 2 -5.6974 54.9465 -6.3468 0.0000 0.0000 0.0000
# 3 75.8674 -6.3468 75.6394 0.0000 0.0000 0.0000
# 4 0.0000 0.0000 0.0000 13.1094 0.0000 0.0000
# 5 0.0000 0.0000 0.0000 0.0000 39.2570 0.0000
# 6 0.0000 0.0000 0.0000 0.0000 0.0000 6.2823
#
#
#
# Elastic Compliance Matrix: (Units=1/GPa)
#
#
# Indices 1 2 3 4 5 6 
#
# 1 0.012761 -0.000157 -0.012813 0.000000 0.000000 0.000000
# 2 -0.000157 0.018380 0.001699 0.000000 0.000000 0.000000
# 3 -0.012813 0.001699 0.026215 0.000000 0.000000 0.000000
# 4 0.000000 0.000000 0.000000 0.076281 0.000000 0.000000
# 5 0.000000 0.000000 0.000000 0.000000 0.025473 0.000000
# 6 0.000000 0.000000 0.000000 0.000000 0.000000 0.159178
#
#
# Mechanical properties :
#
#
# Convention : Reuss Voigt Hill
#
# Bulk Modulus (GPa) = 28.72314 45.85558 37.28936
# Shear Modulus (GPa) = 14.18710 26.47843 20.33276
#
# Velocity S-wave (km/s) = 2.65881 3.63234 3.18301
# Velocity P-wave (km/s) = 4.87217 6.35933 5.66477
#
# Compressibility (1/GPa) = 0.03481514
#
# Stress axis : x y z
#
# Youngs Moduli (GPa) = 78.36348 54.40823 38.14678
#
# Poissons Ratio (x) = 0.00853 0.48876
# Poissons Ratio (y) = 0.01229 -0.06483
# Poissons Ratio (z) = 1.00405 -0.09246
#
# Static dielectric constant tensor:
#      x y z
#    x 1.779580 0.000000 0.000000 
#    y 0.000000 1.707440 0.000000 
#    z 0.000000 0.000000 1.696420 
# 
# From -- ./inp_files/30002.got.cif
#   From: 2010.05.17/outbox.cif.g08.bks.cpg/sg62_16_cif.got.tgz:30002.got - 2010.06.03 15:25:27.
