data_PCOD9461080
_publ_section_title
;
Structure prediction by ZEFSAII (Michael W. Deem and Ramdas Pophale) SiO2 
 PCOD9461080
Probable space group: P B C A
;
_chemical_formula_sum "Si O2"
_cell_formula_units_Z 56
_cell_length_a 14.397696
_cell_length_b 9.315878
_cell_length_c 18.142411
_cell_angle_alpha 90.000000
_cell_angle_beta 90.000000
_cell_angle_gamma 90.000000
_cell_volume 2433.390415
_symmetry_space_group_name_H-M "P B C A"
_symmetry_group_IT_number 61
_symmetry_cell_setting 'orthorhombic'
loop_
_space_group_symop_operation_xyz
x,y,z
1/2-x,-y,1/2+z
1/2+x,1/2-y,-z
-x,1/2+y,1/2-z
-x,-y,-z
1/2+x,y,1/2-z
1/2-x,1/2+y,z
x,1/2-y,1/2+z
loop_
_atom_site_type_symbol
_atom_site_label
_atom_site_fract_x
_atom_site_fract_y
_atom_site_fract_z
Si Si1 0.317222 0.502167 0.926348
Si Si2 0.123557 0.178425 0.250015
Si Si3 0.561622 0.267222 0.586665
Si Si4 0.385006 0.442625 0.454531
Si Si5 0.293492 0.130713 0.723434
Si Si6 0.434891 0.282697 0.834875
Si Si7 0.143693 0.700801 0.563173
O O1 0.356631 0.660942 0.935328
O O2 0.208920 0.514889 0.909786
O O3 0.378663 0.419692 0.865761
O O4 0.326573 0.410327 0.000645
O O5 0.076461 0.178097 0.330361
O O6 0.192625 0.314631 0.248720
O O7 0.038120 0.185379 0.193051
O O8 0.184662 0.037322 0.233464
O O9 0.563100 0.407616 0.535919
O O10 0.465564 0.183244 0.579822
O O11 0.437143 0.329700 0.402437
O O12 0.350756 0.359373 0.527215
O O13 0.372869 0.213127 0.770197
O O14 0.302482 0.176219 0.638251
#
# Coordination Sequence:
#
# PCOD9461080 Si02
#       7
#     8   8   8   8   8   8   8
#     4  11  25  47  75 105 150 199 249 305 377 460
#     4  12  28  46  79 109 153 200 261 319 385 453
#     4  12  23  45  74 107 146 198 249 308 378 453
#     4  11  24  47  73 108 146 196 252 304 371 460
#     4  12  27  49  73 110 152 198 255 325 380 449
#     4  11  25  49  76 109 148 200 252 311 382 453
#     4  11  26  47  69 108 148 192 249 316 381 444
#
# _framework density 23.013157
#
# number of rings (size 3 to 8) (size 9 to 14) (size 15 to 20)
#    0.000    0.571    2.857    5.143    4.000    2.286 
#    5.143    0.000    0.000    0.000    0.000    0.000 
#    0.000    0.000    0.000    0.000    0.000    0.000 
#
# Total GULP energy -313785.305999 kJ/mol
# GULP energy per Si atom -5603.309036 kJ/mol
# Density = 2.296078 g / cm^3
# Si number density = 23.013157 Si / 1000 Ang^3
#
#
#
# Elastic Constant Matrix: (Units=GPa)
#
#
# Indices 1 2 3 4 5 6 
#
# 1 90.0815 4.0997 22.8682 0.0000 0.0000 0.0000
# 2 4.0997 99.4229 46.5954 0.0000 0.0000 0.0000
# 3 22.8682 46.5954 93.0385 0.0000 0.0000 0.0000
# 4 0.0000 0.0000 0.0000 28.9102 0.0000 0.0000
# 5 0.0000 0.0000 0.0000 0.0000 28.5008 0.0000
# 6 0.0000 0.0000 0.0000 0.0000 0.0000 44.9678
#
#
#
# Elastic Compliance Matrix: (Units=1/GPa)
#
#
# Indices 1 2 3 4 5 6 
#
# 1 0.011940 0.001154 -0.003513 0.000000 0.000000 0.000000
# 2 0.001154 0.013254 -0.006922 0.000000 0.000000 0.000000
# 3 -0.003513 -0.006922 0.015078 0.000000 0.000000 0.000000
# 4 0.000000 0.000000 0.000000 0.034590 0.000000 0.000000
# 5 0.000000 0.000000 0.000000 0.000000 0.035087 0.000000
# 6 0.000000 0.000000 0.000000 0.000000 0.000000 0.022238
#
#
# Mechanical properties :
#
#
# Convention : Reuss Voigt Hill
#
# Bulk Modulus (GPa) = 46.05781 47.74104 46.89943
# Shear Modulus (GPa) = 31.64843 34.40775 33.02809
#
# Velocity S-wave (km/s) = 3.71244 3.87089 3.79249
# Velocity P-wave (km/s) = 6.19947 6.38502 6.29293
#
# Compressibility (1/GPa) = 0.02171184
#
# Stress axis : x y z
#
# Youngs Moduli (GPa) = 83.75008 75.44687 66.32122
#
# Poissons Ratio (x) = -0.08706 0.23297
# Poissons Ratio (y) = -0.09664 0.45905
# Poissons Ratio (z) = 0.29419 0.52222
#
# Static dielectric constant tensor:
#      x y z
#    x 1.868400 0.000000 0.000000 
#    y 0.000000 1.852990 0.000000 
#    z 0.000000 0.000000 1.856820 
# 
# From -- ./inp_files/10472.got.cif
#   From: 2010.05.17/outbox.cif.g08.bks.cpg/sg61_6_cif.got.tgz:10472.got - 2010.06.03 15:17:17.
