data_PCOD9461289
_publ_section_title
;
Structure prediction by ZEFSAII (Michael W. Deem and Ramdas Pophale) SiO2 
 PCOD9461289
Probable space group: P B C A
;
_chemical_formula_sum "Si O2"
_cell_formula_units_Z 64
_cell_length_a 30.000000
_cell_length_b 9.000000
_cell_length_c 12.000000
_cell_angle_alpha 90.000000
_cell_angle_beta 90.000000
_cell_angle_gamma 90.000000
_cell_volume 3240.000000
_symmetry_space_group_name_H-M "P B C A"
_symmetry_group_IT_number 61
_symmetry_cell_setting 'orthorhombic'
loop_
_space_group_symop_operation_xyz
x,y,z
1/2-x,-y,1/2+z
1/2+x,1/2-y,-z
-x,1/2+y,1/2-z
-x,-y,-z
1/2+x,y,1/2-z
1/2-x,1/2+y,z
x,1/2-y,1/2+z
loop_
_atom_site_type_symbol
_atom_site_label
_atom_site_fract_x
_atom_site_fract_y
_atom_site_fract_z
Si Si1 0.902108 0.868143 0.476890
Si Si2 0.062799 0.787172 0.928041
Si Si3 0.069110 0.620875 0.171783
Si Si4 0.744628 0.775806 0.959270
Si Si5 0.693761 0.042648 0.078608
Si Si6 0.689205 0.986307 0.343600
Si Si7 0.467832 0.992326 0.831309
Si Si8 0.914800 0.971757 0.906540
O O1 0.853379 0.903962 0.527684
O O2 0.936812 0.912084 0.575932
O O3 0.910315 0.700162 0.439806
O O4 0.908298 0.966679 0.364947
O O5 0.083018 0.821358 0.798524
O O6 0.028275 0.660098 0.884438
O O7 0.077943 0.711439 0.052375
O O8 0.060915 0.948643 0.986587
O O9 0.015792 0.587017 0.178709
O O10 0.782384 0.875620 0.896510
O O11 0.716097 0.663008 0.880948
O O12 0.770258 0.670800 0.048308
O O13 0.711452 0.892889 0.018309
O O14 0.689148 0.010416 0.210175
O O15 0.637442 0.979930 0.385599
O O16 0.443022 0.995074 0.709508
#
# Coordination Sequence:
#
# PCOD9461289 Si02
#       8
#     8   8   8   8   8   8   8   8
#     4  11  25  44  67 105 141 182 228 298 348 411
#     4  11  25  48  68 103 134 188 233 285 347 414
#     4  11  27  47  72 102 142 187 242 287 355 413
#     4  10  24  42  68  99 132 178 222 283 347 420
#     4  11  22  44  68  97 140 177 225 287 346 414
#     4  11  23  43  66 101 133 176 231 275 351 414
#     4  11  26  47  70 100 146 180 240 295 344 415
#     4  12  26  41  73 102 139 184 235 286 355 417
#
# _framework density 19.753086
#
# number of rings (size 3 to 8) (size 9 to 14) (size 15 to 20)
#    0.000    1.000    3.750    2.250    8.750    0.500 
#    0.000    1.250    0.000    0.000    0.000    0.000 
#    0.000    0.000    0.000    0.000    0.000    0.000 
#
# Total GULP energy -356396.342182 kJ/mol
# GULP energy per Si atom -5568.692847 kJ/mol
# Density = 1.970813 g / cm^3
# Si number density = 19.753086 Si / 1000 Ang^3
#
#
#
# Elastic Constant Matrix: (Units=GPa)
#
#
# Indices 1 2 3 4 5 6 
#
# 1 77.8078 19.3048 12.8798 0.0000 0.0000 0.0000
# 2 19.3048 130.1800 40.2153 0.0000 0.0000 0.0000
# 3 12.8798 40.2153 154.2031 0.0000 0.0000 0.0000
# 4 0.0000 0.0000 0.0000 40.6475 0.0000 0.0000
# 5 0.0000 0.0000 0.0000 0.0000 32.0277 0.0000
# 6 0.0000 0.0000 0.0000 0.0000 0.0000 27.3236
#
#
#
# Elastic Compliance Matrix: (Units=1/GPa)
#
#
# Indices 1 2 3 4 5 6 
#
# 1 0.013403 -0.001786 -0.000654 0.000000 0.000000 0.000000
# 2 -0.001786 0.008593 -0.002092 0.000000 0.000000 0.000000
# 3 -0.000654 -0.002092 0.007085 0.000000 0.000000 0.000000
# 4 0.000000 0.000000 0.000000 0.024602 0.000000 0.000000
# 5 0.000000 0.000000 0.000000 0.000000 0.031223 0.000000
# 6 0.000000 0.000000 0.000000 0.000000 0.000000 0.036598
#
#
# Mechanical properties :
#
#
# Convention : Reuss Voigt Hill
#
# Bulk Modulus (GPa) = 49.95335 56.33231 53.14283
# Shear Modulus (GPa) = 36.43261 39.31917 37.87589
#
# Velocity S-wave (km/s) = 4.29931 4.46638 4.38364
# Velocity P-wave (km/s) = 7.07030 7.42820 7.25146
#
# Compressibility (1/GPa) = 0.02001868
#
# Stress axis : x y z
#
# Youngs Moduli (GPa) = 74.60766 116.37837 141.14157
#
# Poissons Ratio (x) = 0.20781 0.09228
# Poissons Ratio (y) = 0.13322 0.29524
# Poissons Ratio (z) = 0.04878 0.24344
#
# Static dielectric constant tensor:
#      x y z
#    x 1.707710 0.000000 0.000000 
#    y 0.000000 1.786350 0.000000 
#    z 0.000000 0.000000 1.694210 
# 
# From -- ./inp_files/2448.got.cif
#   From: 2010.05.17/outbox.ucp.g08.bks.cvg/sg61_2_cif.got.tgz:2448.got - 2010.06.11 16:28:26.
