data_PCOD9461204
_publ_section_title
;
Structure prediction by ZEFSAII (Michael W. Deem and Ramdas Pophale) SiO2 
 PCOD9461204
Probable space group: P B C A
;
_chemical_formula_sum "Si O2"
_cell_formula_units_Z 40
_cell_length_a 9.187551
_cell_length_b 16.117171
_cell_length_c 10.789929
_cell_angle_alpha 90.000000
_cell_angle_beta 90.000000
_cell_angle_gamma 90.000000
_cell_volume 1597.743883
_symmetry_space_group_name_H-M "P B C A"
_symmetry_group_IT_number 61
_symmetry_cell_setting 'orthorhombic'
loop_
_space_group_symop_operation_xyz
x,y,z
1/2-x,-y,1/2+z
1/2+x,1/2-y,-z
-x,1/2+y,1/2-z
-x,-y,-z
1/2+x,y,1/2-z
1/2-x,1/2+y,z
x,1/2-y,1/2+z
loop_
_atom_site_type_symbol
_atom_site_label
_atom_site_fract_x
_atom_site_fract_y
_atom_site_fract_z
Si Si1 0.087333 0.910917 0.724518
Si Si2 0.758355 0.236338 0.177320
Si Si3 0.860577 0.501567 0.361407
Si Si4 0.842436 0.584149 0.020204
Si Si5 0.993257 0.649495 0.779660
O O1 0.160172 0.820248 0.718653
O O2 0.980241 0.931477 0.609793
O O3 0.228776 0.968939 0.727374
O O4 0.981355 0.926795 0.841905
O O5 0.728226 0.168332 0.073048
O O6 0.611932 0.282390 0.217693
O O7 0.874902 0.306295 0.148727
O O8 0.779097 0.486018 0.491398
O O9 0.937632 0.417439 0.314372
O O10 0.900175 0.605227 0.884382
#
# Coordination Sequence:
#
# PCOD9461204 Si02
#       5
#     8   8   8   8   8
#     4  12  25  50  73 111 152 189 255 311 368 451
#     4  12  26  49  72 109 147 196 250 313 365 454
#     4  12  25  48  75 109 147 195 248 311 367 451
#     4  12  27  45  80 103 153 199 246 307 391 427
#     4  12  26  48  73 108 150 191 257 306 369 451
#
# _framework density 25.035302000000001
#
# number of rings (size 3 to 8) (size 9 to 14) (size 15 to 20)
#    0.000    0.000    8.000    0.600    5.600    0.800 
#    0.000    0.000    0.000    0.000    0.000    0.000 
#    0.000    0.000    0.000    0.000    0.000    0.000 
#
# Total GULP energy -223662.555360 kJ/mol
# GULP energy per Si atom -5591.563884 kJ/mol
# Density = 2.497832 g / cm^3
# Si number density = 25.035302 Si / 1000 Ang^3
#
#
#
# Elastic Constant Matrix: (Units=GPa)
#
#
# Indices 1 2 3 4 5 6 
#
# 1 144.5430 23.2333 10.2621 0.0000 0.0000 0.0000
# 2 23.2333 76.0397 -11.4199 0.0000 0.0000 0.0000
# 3 10.2621 -11.4199 41.9707 0.0000 0.0000 0.0000
# 4 0.0000 0.0000 0.0000 35.3502 0.0000 0.0000
# 5 0.0000 0.0000 0.0000 0.0000 59.6793 0.0000
# 6 0.0000 0.0000 0.0000 0.0000 0.0000 67.2085
#
#
#
# Elastic Compliance Matrix: (Units=1/GPa)
#
#
# Indices 1 2 3 4 5 6 
#
# 1 0.007533 -0.002688 -0.002573 0.000000 0.000000 0.000000
# 2 -0.002688 0.014671 0.004649 0.000000 0.000000 0.000000
# 3 -0.002573 0.004649 0.025720 0.000000 0.000000 0.000000
# 4 0.000000 0.000000 0.000000 0.028288 0.000000 0.000000
# 5 0.000000 0.000000 0.000000 0.000000 0.016756 0.000000
# 6 0.000000 0.000000 0.000000 0.000000 0.000000 0.014879
#
#
# Mechanical properties :
#
#
# Convention : Reuss Voigt Hill
#
# Bulk Modulus (GPa) = 21.41367 34.07825 27.74596
# Shear Modulus (GPa) = 40.11586 48.47946 44.29766
#
# Velocity S-wave (km/s) = 4.00731 4.40528 4.21100
# Velocity P-wave (km/s) = 5.47570 6.28625 5.89492
#
# Compressibility (1/GPa) = 0.04669914
#
# Stress axis : x y z
#
# Youngs Moduli (GPa) = 132.74683 68.16363 38.87976
#
# Poissons Ratio (x) = 0.18323 0.10005
# Poissons Ratio (y) = 0.35684 -0.18075
# Poissons Ratio (z) = 0.34160 -0.31690
#
# Static dielectric constant tensor:
#      x y z
#    x 2.019650 0.000000 0.000000 
#    y 0.000000 2.012890 0.000000 
#    z 0.000000 0.000000 2.020110 
# 
# From -- ./inp_files/4797.got.cif
#   From: 2010.05.17/outbox.cif.g08.bks.cpg/sg61_3_cif.got.tgz:4797.got - 2010.06.03 15:17:17.
