data_PCOD9461776
_publ_section_title
;
Structure prediction by ZEFSAII (Michael W. Deem and Ramdas Pophale) SiO2 
 PCOD9461776
Probable space group: P N M A
;
_chemical_formula_sum "Si O2"
_cell_formula_units_Z 56
_cell_length_a 5.151395
_cell_length_b 29.244953
_cell_length_c 26.532307
_cell_angle_alpha 90.000000
_cell_angle_beta 90.000000
_cell_angle_gamma 90.000000
_cell_volume 3997.153197
_symmetry_space_group_name_H-M "P N M A"
_symmetry_group_IT_number 62
_symmetry_cell_setting 'orthorhombic'
loop_
_space_group_symop_operation_xyz
x,y,z
1/2-x,-y,1/2+z
1/2+x,1/2-y,1/2-z
-x,1/2+y,-z
-x,-y,-z
1/2+x,y,1/2-z
1/2-x,1/2+y,1/2+z
x,1/2-y,z
loop_
_atom_site_type_symbol
_atom_site_label
_atom_site_fract_x
_atom_site_fract_y
_atom_site_fract_z
Si Si1 0.747339 0.818169 0.720846
Si Si2 0.727522 0.071431 0.219862
Si Si3 0.418418 0.926883 0.976076
Si Si4 0.774012 0.139745 0.417963
Si Si5 0.201025 0.990166 0.045427
Si Si6 0.970316 0.057464 0.113947
Si Si7 0.717385 0.802061 0.606276
O O1 0.532504 0.803969 0.761536
O O2 0.757121 0.873368 0.718177
O O3 0.663801 0.801731 0.666053
O O4 0.448134 0.056992 0.240176
O O5 0.805183 0.055390 0.164310
O O6 0.616908 0.885266 0.968307
O O7 0.195339 0.923251 0.933703
O O8 0.572124 0.972568 0.959987
O O9 0.307093 0.939990 0.031087
O O10 0.694821 0.096541 0.381879
O O11 0.522106 0.171877 0.420160
O O12 0.015618 0.169676 0.399023
O O13 0.067804 0.007404 0.096639
O O14 0.000000 0.000000 0.000000
O O15 0.745210 0.750000 0.588316
#
# Coordination Sequence:
#
# PCOD9461776 Si02
#       7
#     8   8   8   8   8   8   8
#     4  10  20  32  46  56  70  93 131 179 225 267
#     4  10  21  29  43  61  79 107 145 173 208 260
#     4   9  16  29  48  67  87 103 130 156 216 269
#     4  11  20  33  49  60  79 105 128 169 220 262
#     4   8  16  26  44  73  88 105 123 160 203 273
#     4  10  18  30  49  61  88 107 134 167 218 258
#     4  12  24  35  45  59  75 100 138 175 224 269
#
# _framework density 14.009969999999999
#
# number of rings (size 3 to 8) (size 9 to 14) (size 15 to 20)
#    0.000    2.000    2.857    1.286    8.000    0.571 
#    0.000    0.000    0.000    0.000    0.000    0.000 
#    0.000    0.000    0.000    0.000    0.000    0.000 
#
# Total GULP energy -311841.457346 kJ/mol
# GULP energy per Si atom -5568.597453 kJ/mol
# Density = 1.397808 g / cm^3
# Si number density = 14.009970 Si / 1000 Ang^3
#
#
#
# Elastic Constant Matrix: (Units=GPa)
#
#
# Indices 1 2 3 4 5 6 
#
# 1 64.5082 18.3191 6.6414 0.0000 0.0000 0.0000
# 2 18.3191 44.8731 25.2378 0.0000 0.0000 0.0000
# 3 6.6414 25.2378 26.4130 0.0000 0.0000 0.0000
# 4 0.0000 0.0000 0.0000 10.9700 0.0000 0.0000
# 5 0.0000 0.0000 0.0000 0.0000 16.2913 0.0000
# 6 0.0000 0.0000 0.0000 0.0000 0.0000 2.2151
#
#
#
# Elastic Compliance Matrix: (Units=1/GPa)
#
#
# Indices 1 2 3 4 5 6 
#
# 1 0.017879 -0.010312 0.005358 0.000000 0.000000 0.000000
# 2 -0.010312 0.054122 -0.049121 0.000000 0.000000 0.000000
# 3 0.005358 -0.049121 0.083448 0.000000 0.000000 0.000000
# 4 0.000000 0.000000 0.000000 0.091158 0.000000 0.000000
# 5 0.000000 0.000000 0.000000 0.000000 0.061382 0.000000
# 6 0.000000 0.000000 0.000000 0.000000 0.000000 0.451450
#
#
# Mechanical properties :
#
#
# Convention : Reuss Voigt Hill
#
# Bulk Modulus (GPa) = 21.14233 26.24344 23.69288
# Shear Modulus (GPa) = 5.66024 11.60168 8.63096
#
# Velocity S-wave (km/s) = 2.01219 2.88080 2.48475
# Velocity P-wave (km/s) = 4.53015 5.46241 5.01798
#
# Compressibility (1/GPa) = 0.04729847
#
# Stress axis : x y z
#
# Youngs Moduli (GPa) = 55.93212 18.47687 11.98353
#
# Poissons Ratio (x) = 0.19054 -0.06421
# Poissons Ratio (y) = 0.57680 0.58864
# Poissons Ratio (z) = -0.29969 0.90760
#
# Static dielectric constant tensor:
#      x y z
#    x 1.577700 0.000000 0.000000 
#    y 0.000000 1.484940 0.000000 
#    z 0.000000 0.000000 1.480860 
# 
# From -- ./inp_files/28471.got.cif
#   From: 2010.05.17/outbox.cif.g08.bks.cpg/sg62_15_cif.got.tgz:28471.got - 2010.06.03 15:25:27.
