data_PCOD9461790
_publ_section_title
;
Structure prediction by ZEFSAII (Michael W. Deem and Ramdas Pophale) SiO2 
 PCOD9461790
Probable space group: P N M A
;
_chemical_formula_sum "Si O2"
_cell_formula_units_Z 64
_cell_length_a 17.498331
_cell_length_b 7.419396
_cell_length_c 20.940315
_cell_angle_alpha 90.000000
_cell_angle_beta 90.000000
_cell_angle_gamma 90.000000
_cell_volume 2718.619260
_symmetry_space_group_name_H-M "P N M A"
_symmetry_group_IT_number 62
_symmetry_cell_setting 'orthorhombic'
loop_
_space_group_symop_operation_xyz
x,y,z
1/2-x,-y,1/2+z
1/2+x,1/2-y,1/2-z
-x,1/2+y,-z
-x,-y,-z
1/2+x,y,1/2-z
1/2-x,1/2+y,1/2+z
x,1/2-y,z
loop_
_atom_site_type_symbol
_atom_site_label
_atom_site_fract_x
_atom_site_fract_y
_atom_site_fract_z
Si Si1 0.287423 0.965087 0.026417
Si Si2 0.920760 0.471438 0.255707
Si Si3 0.393240 0.455008 0.660508
Si Si4 0.611674 0.530335 0.615420
Si Si5 0.394375 0.467312 0.523308
Si Si6 0.925993 0.547566 0.699169
Si Si7 0.780188 0.455500 0.335836
Si Si8 0.710154 0.030064 0.113457
O O1 0.295735 0.750000 0.030676
O O2 0.196650 0.004661 0.022077
O O3 0.316019 0.042821 0.093072
O O4 0.317918 0.022710 0.957480
O O5 0.921571 0.250000 0.257182
O O6 0.927546 0.524674 0.181506
O O7 0.839965 0.528398 0.284942
O O8 0.989785 0.536269 0.300596
O O9 0.420183 0.250000 0.666124
O O10 0.420116 0.536085 0.592705
O O11 0.411892 0.555918 0.725053
O O12 0.300779 0.448817 0.658604
O O13 0.610763 0.750000 0.613067
O O14 0.578994 0.467848 0.546483
O O15 0.701338 0.474835 0.621522
O O16 0.403242 0.250000 0.525383
O O17 0.932837 0.750000 0.672754
O O18 0.851768 0.466887 0.665092
O O19 0.762535 0.250000 0.317422
O O20 0.713883 0.250000 0.116174
#
# Coordination Sequence:
#
# PCOD9461790 Si02
#       8
#     8   8   8   8   8   8   8   8
#     4   8  14  27  46  69  91 117 154 195 234 281
#     4   9  18  29  44  68  98 126 158 197 236 277
#     4  10  19  32  49  71  95 122 157 199 241 286
#     4   8  12  23  43  66  87 115 154 192 225 269
#     4   7  12  23  42  64  86 111 146 188 230 273
#     4  10  19  32  48  69  96 128 162 197 234 280
#     4  10  18  30  49  73  97 123 154 196 243 286
#     4   8  14  26  48  70  90 120 160 196 232 282
#
# _framework density 23.541359
#
# number of rings (size 3 to 8) (size 9 to 14) (size 15 to 20)
#    0.000    3.250    0.000    3.750    0.000    2.000 
#    0.000    3.125    0.000    0.000    0.000    6.125 
#    0.000    0.000    0.000    0.000    0.000    0.000 
#
# Total GULP energy -357000.959841 kJ/mol
# GULP energy per Si atom -5578.139998 kJ/mol
# Density = 2.348778 g / cm^3
# Si number density = 23.541359 Si / 1000 Ang^3
#
#
#
# Elastic Constant Matrix: (Units=GPa)
#
#
# Indices 1 2 3 4 5 6 
#
# 1 55.8303 2.5137 22.4239 0.0000 0.0000 0.0000
# 2 2.5137 77.5259 1.0330 0.0000 0.0000 0.0000
# 3 22.4239 1.0330 97.9050 0.0000 0.0000 0.0000
# 4 0.0000 0.0000 0.0000 11.8788 0.0000 0.0000
# 5 0.0000 0.0000 0.0000 0.0000 -5.8605 0.0000
# 6 0.0000 0.0000 0.0000 0.0000 0.0000 3.7844
#
#
#
# Elastic Compliance Matrix: (Units=1/GPa)
#
#
# Indices 1 2 3 4 5 6 
#
# 1 0.019752 -0.000580 -0.004518 0.000000 0.000000 0.000000
# 2 -0.000580 0.012918 -0.000003 0.000000 0.000000 0.000000
# 3 -0.004518 -0.000003 0.011249 0.000000 0.000000 0.000000
# 4 0.000000 0.000000 0.000000 0.084184 0.000000 0.000000
# 5 0.000000 0.000000 0.000000 0.000000 -0.170634 0.000000
# 6 0.000000 0.000000 0.000000 0.000000 0.000000 0.264245
#
#
# Mechanical properties :
#
#
# Convention : Reuss Voigt Hill
#
# Bulk Modulus (GPa) = 29.65978 31.46692 30.56335
# Shear Modulus (GPa) = 20.56302 15.64658 18.10480
#
# Velocity S-wave (km/s) = 2.95868 2.58086 2.77621
# Velocity P-wave (km/s) = 4.92931 4.71983 4.82571
#
# Compressibility (1/GPa) = 0.03371570
#
# Stress axis : x y z
#
# Youngs Moduli (GPa) = 50.62754 77.41269 88.89860
#
# Poissons Ratio (x) = 0.04492 0.40163
# Poissons Ratio (y) = 0.02938 0.00030
# Poissons Ratio (z) = 0.22873 0.00026
#
# Static dielectric constant tensor:
#      x y z
#    x 1.894540 0.000000 0.000000 
#    y 0.000000 1.816420 0.000000 
#    z 0.000000 0.000000 1.915460 
# 
# From -- ./inp_files/27913.got.cif
#   From: 2010.05.17/outbox.cif.g08.bks.cpg/sg62_14_cif.got.tgz:27913.got - 2010.06.03 15:25:27.
