data_PCOD9461736
_publ_section_title
;
Structure prediction by ZEFSAII (Michael W. Deem and Ramdas Pophale) SiO2 
 PCOD9461736
Probable space group: P N M A
;
_chemical_formula_sum "Si O2"
_cell_formula_units_Z 64
_cell_length_a 21.967161
_cell_length_b 7.480049
_cell_length_c 18.088470
_cell_angle_alpha 90.000000
_cell_angle_beta 90.000000
_cell_angle_gamma 90.000000
_cell_volume 2972.214919
_symmetry_space_group_name_H-M "P N M A"
_symmetry_group_IT_number 62
_symmetry_cell_setting 'orthorhombic'
loop_
_space_group_symop_operation_xyz
x,y,z
1/2-x,-y,1/2+z
1/2+x,1/2-y,1/2-z
-x,1/2+y,-z
-x,-y,-z
1/2+x,y,1/2-z
1/2-x,1/2+y,1/2+z
x,1/2-y,z
loop_
_atom_site_type_symbol
_atom_site_label
_atom_site_fract_x
_atom_site_fract_y
_atom_site_fract_z
Si Si1 0.226100 0.466118 0.668402
Si Si2 0.612220 0.033405 0.733659
Si Si3 0.900466 0.529988 0.617480
Si Si4 0.918699 0.543286 0.074613
Si Si5 0.960965 0.459035 0.374144
Si Si6 0.861329 0.539444 0.778296
Si Si7 0.655687 0.454359 0.968696
Si Si8 0.560976 0.031377 0.415661
O O1 0.223497 0.250000 0.665867
O O2 0.173863 0.524730 0.725621
O O3 0.292173 0.518259 0.695831
O O4 0.205458 0.533672 0.587377
O O5 0.611144 0.250000 0.731666
O O6 0.607713 0.964540 0.650126
O O7 0.557074 0.978895 0.787849
O O8 0.900590 0.750000 0.615452
O O9 0.874590 0.469599 0.696379
O O10 0.860799 0.466180 0.547998
O O11 0.971090 0.474582 0.610715
O O12 0.899191 0.750000 0.072575
O O13 0.991685 0.533210 0.084032
O O14 0.907628 0.469975 0.992376
O O15 0.958974 0.250000 0.392853
O O16 0.907371 0.547204 0.421757
O O17 0.875011 0.750000 0.774113
O O18 0.904358 0.467618 0.843087
O O19 0.674538 0.250000 0.982510
O O20 0.559610 0.250000 0.417053
#
# Coordination Sequence:
#
# PCOD9461736 Si02
#       8
#     8   8   8   8   8   8   8   8
#     4   9  19  35  51  67  93 130 170 209 243 284
#     4   9  18  33  51  71  99 137 170 200 244 296
#     4   9  18  32  51  75 102 132 162 197 246 302
#     4   9  17  31  52  76 100 129 167 202 241 301
#     4  10  18  29  51  81 107 127 157 203 249 294
#     4  10  20  35  52  71  99 133 167 205 251 293
#     4   9  18  35  54  71  99 137 167 195 242 300
#     4   9  18  32  50  74 104 132 157 201 258 299
#
# _framework density 21.532762999999999
#
# number of rings (size 3 to 8) (size 9 to 14) (size 15 to 20)
#    0.000    2.750    0.000    2.250    0.000    4.000 
#    2.250    2.500    0.000    0.000    0.000    0.000 
#    0.000    0.000    0.000    0.000    0.000    0.000 
#
# Total GULP energy -357141.645627 kJ/mol
# GULP energy per Si atom -5580.338213 kJ/mol
# Density = 2.148375 g / cm^3
# Si number density = 21.532763 Si / 1000 Ang^3
#
#
#
# Elastic Constant Matrix: (Units=GPa)
#
#
# Indices 1 2 3 4 5 6 
#
# 1 33.2722 -14.8488 22.3770 0.0000 0.0000 0.0000
# 2 -14.8488 63.4252 -3.2247 0.0000 0.0000 0.0000
# 3 22.3770 -3.2247 167.8004 0.0000 0.0000 0.0000
# 4 0.0000 0.0000 0.0000 -6.5163 0.0000 0.0000
# 5 0.0000 0.0000 0.0000 0.0000 1.9156 0.0000
# 6 0.0000 0.0000 0.0000 0.0000 0.0000 21.9911
#
#
#
# Elastic Compliance Matrix: (Units=1/GPa)
#
#
# Indices 1 2 3 4 5 6 
#
# 1 0.037027 0.008426 -0.004776 0.000000 0.000000 0.000000
# 2 0.008426 0.017699 -0.000783 0.000000 0.000000 0.000000
# 3 -0.004776 -0.000783 0.006581 0.000000 0.000000 0.000000
# 4 0.000000 0.000000 0.000000 -0.153461 0.000000 0.000000
# 5 0.000000 0.000000 0.000000 0.000000 0.522029 0.000000
# 6 0.000000 0.000000 0.000000 0.000000 0.000000 0.045473
#
#
# Mechanical properties :
#
#
# Convention : Reuss Voigt Hill
#
# Bulk Modulus (GPa) = 14.91620 30.34496 22.63058
# Shear Modulus (GPa) = 10.16336 20.82437 15.49386
#
# Velocity S-wave (km/s) = 2.17490 3.11320 2.68535
# Velocity P-wave (km/s) = 3.63994 5.20055 4.48859
#
# Compressibility (1/GPa) = 0.06704120
#
# Stress axis : x y z
#
# Youngs Moduli (GPa) = 27.00700 56.49908 151.94590
#
# Poissons Ratio (x) = -0.47605 0.72567
# Poissons Ratio (y) = -0.22756 0.11905
# Poissons Ratio (z) = 0.12898 0.04427
#
# Static dielectric constant tensor:
#      x y z
#    x 1.726910 0.000000 0.000000 
#    y 0.000000 1.829930 0.000000 
#    z 0.000000 0.000000 1.813780 
# 
# From -- ./inp_files/24792.got.cif
#   From: 2010.05.17/outbox.cif.g08.bks.cpg/sg62_13_cif.got.tgz:24792.got - 2010.06.03 15:25:27.
