data_PCOD9461043
_publ_section_title
;
Structure prediction by ZEFSAII (Michael W. Deem and Ramdas Pophale) SiO2 
 PCOD9461043
Probable space group: P B C A
;
_chemical_formula_sum "Si O2"
_cell_formula_units_Z 40
_cell_length_a 4.941178
_cell_length_b 10.104626
_cell_length_c 31.347950
_cell_angle_alpha 90.000000
_cell_angle_beta 90.000000
_cell_angle_gamma 90.000000
_cell_volume 1565.164137
_symmetry_space_group_name_H-M "P B C A"
_symmetry_group_IT_number 61
_symmetry_cell_setting 'orthorhombic'
loop_
_space_group_symop_operation_xyz
x,y,z
1/2-x,-y,1/2+z
1/2+x,1/2-y,-z
-x,1/2+y,1/2-z
-x,-y,-z
1/2+x,y,1/2-z
1/2-x,1/2+y,z
x,1/2-y,1/2+z
loop_
_atom_site_type_symbol
_atom_site_label
_atom_site_fract_x
_atom_site_fract_y
_atom_site_fract_z
Si Si1 0.422767 0.213167 0.024807
Si Si2 0.252274 0.377850 0.104152
Si Si3 0.852791 0.473920 0.218608
Si Si4 0.756249 0.554021 0.087180
Si Si5 0.350993 0.760901 0.837032
O O1 0.272085 0.273722 0.065845
O O2 0.602618 0.092417 0.042673
O O3 0.669236 0.305175 0.006939
O O4 0.466159 0.488520 0.088387
O O5 0.377584 0.314009 0.146909
O O6 0.968382 0.450507 0.107240
O O7 0.580314 0.472873 0.245783
O O8 0.889492 0.607986 0.191366
O O9 0.825680 0.343255 0.189444
O O10 0.737314 0.680625 0.118378
#
# Coordination Sequence:
#
# PCOD9461043 Si02
#       5
#     8   8   8   8   8
#     4  11  24  42  66 104 148 192 246 307 364 430
#     4  11  25  44  72 104 144 199 246 300 369 436
#     4  12  28  48  76 110 148 190 240 302 374 438
#     4  11  25  44  72 104 144 199 246 300 369 436
#     4  11  26  50  76 108 150 192 246 303 362 452
#
# _framework density 25.556424
#
# number of rings (size 3 to 8) (size 9 to 14) (size 15 to 20)
#    0.000    0.800    2.000    3.600    2.800   12.800 
#    0.000    0.000    0.000    0.000    0.000    0.000 
#    0.000    0.000    0.000    0.000    0.000    0.000 
#
# Total GULP energy -224092.888583 kJ/mol
# GULP energy per Si atom -5602.322215 kJ/mol
# Density = 2.549826 g / cm^3
# Si number density = 25.556424 Si / 1000 Ang^3
#
#
#
# Elastic Constant Matrix: (Units=GPa)
#
#
# Indices 1 2 3 4 5 6 
#
# 1 139.3172 16.7511 45.5084 0.0000 0.0000 0.0000
# 2 16.7511 134.6770 32.9922 0.0000 0.0000 0.0000
# 3 45.5084 32.9922 108.4334 0.0000 0.0000 0.0000
# 4 0.0000 0.0000 0.0000 37.1766 0.0000 0.0000
# 5 0.0000 0.0000 0.0000 0.0000 35.7466 0.0000
# 6 0.0000 0.0000 0.0000 0.0000 0.0000 34.8158
#
#
#
# Elastic Compliance Matrix: (Units=1/GPa)
#
#
# Indices 1 2 3 4 5 6 
#
# 1 0.008323 -0.000194 -0.003434 0.000000 0.000000 0.000000
# 2 -0.000194 0.008028 -0.002361 0.000000 0.000000 0.000000
# 3 -0.003434 -0.002361 0.011382 0.000000 0.000000 0.000000
# 4 0.000000 0.000000 0.000000 0.026899 0.000000 0.000000
# 5 0.000000 0.000000 0.000000 0.000000 0.027975 0.000000
# 6 0.000000 0.000000 0.000000 0.000000 0.000000 0.028723
#
#
# Mechanical properties :
#
#
# Convention : Reuss Voigt Hill
#
# Bulk Modulus (GPa) = 63.47484 63.65901 63.56693
# Shear Modulus (GPa) = 38.89291 40.69285 39.79288
#
# Velocity S-wave (km/s) = 3.90532 3.99466 3.95024
# Velocity P-wave (km/s) = 6.72506 6.79998 6.76262
#
# Compressibility (1/GPa) = 0.01575427
#
# Stress axis : x y z
#
# Youngs Moduli (GPa) = 120.15012 124.56849 87.85894
#
# Poissons Ratio (x) = 0.02416 0.30171
# Poissons Ratio (y) = 0.02330 0.20745
# Poissons Ratio (z) = 0.41260 0.29412
#
# Static dielectric constant tensor:
#      x y z
#    x 1.963940 0.000000 0.000000 
#    y 0.000000 2.044000 0.000000 
#    z 0.000000 0.000000 2.145350 
# 
# From -- ./inp_files/11566.got.cif
#   From: 2010.05.17/outbox.cif.g08.bks.cpg/sg61_6_cif.got.tgz:11566.got - 2010.06.03 15:17:17.
