data_PCOD9461665
_publ_section_title
;
Structure prediction by ZEFSAII (Michael W. Deem and Ramdas Pophale) SiO2 
 PCOD9461665
Probable space group: P N M A
;
_chemical_formula_sum "Si O2"
_cell_formula_units_Z 64
_cell_length_a 18.675556
_cell_length_b 9.051827
_cell_length_c 26.773792
_cell_angle_alpha 90.000000
_cell_angle_beta 90.000000
_cell_angle_gamma 90.000000
_cell_volume 4526.053367
_symmetry_space_group_name_H-M "P N M A"
_symmetry_group_IT_number 62
_symmetry_cell_setting 'orthorhombic'
loop_
_space_group_symop_operation_xyz
x,y,z
1/2-x,-y,1/2+z
1/2+x,1/2-y,1/2-z
-x,1/2+y,-z
-x,-y,-z
1/2+x,y,1/2-z
1/2-x,1/2+y,1/2+z
x,1/2-y,z
loop_
_atom_site_type_symbol
_atom_site_label
_atom_site_fract_x
_atom_site_fract_y
_atom_site_fract_z
Si Si1 0.168154 0.424185 0.356296
Si Si2 0.422745 0.926183 0.755084
Si Si3 0.922497 0.928256 0.260950
Si Si4 0.422111 0.073838 0.941160
Si Si5 0.208215 0.080935 0.803283
Si Si6 0.298050 0.420791 0.699354
Si Si7 0.573669 0.926199 0.943376
Si Si8 0.169007 0.573023 0.650341
O O1 0.169009 0.250000 0.365018
O O2 0.116411 0.452657 0.308472
O O3 0.135311 0.506374 0.403643
O O4 0.246611 0.481013 0.340660
O O5 0.431029 0.750000 0.749342
O O6 0.498534 0.007755 0.754904
O O7 0.370093 0.992421 0.713048
O O8 0.922626 0.750000 0.266645
O O9 0.871385 0.963784 0.213499
O O10 0.884953 0.002487 0.308988
O O11 0.423222 0.250000 0.936307
O O12 0.500637 0.009167 0.929121
O O13 0.408056 0.035792 0.999345
O O14 0.207531 0.250000 0.821327
O O15 0.252072 0.079102 0.750930
O O16 0.311517 0.250000 0.686216
O O17 0.246453 0.501616 0.660104
O O18 0.559456 0.750000 0.941378
O O19 0.635957 0.958200 0.903963
O O20 0.172276 0.750000 0.657721
#
# Coordination Sequence:
#
# PCOD9461665 Si02
#       8
#     8   8   8   8   8   8   8   8
#     4  10  19  29  42  60  82 109 141 174 207 245
#     4  10  19  29  42  61  85 113 142 171 207 248
#     4  10  19  29  42  62  86 111 141 174 207 245
#     4  10  19  30  44  60  81 110 142 176 211 244
#     4   8  16  29  42  57  79 107 137 169 204 243
#     4   9  17  29  43  60  82 107 138 173 207 245
#     4   9  19  32  43  59  83 110 141 176 210 244
#     4  10  18  29  44  60  82 111 142 174 209 249
#
# _framework density 14.140355
#
# number of rings (size 3 to 8) (size 9 to 14) (size 15 to 20)
#    0.000    2.500    0.000    3.750    0.000    9.500 
#    0.000    0.000    0.000    0.000    0.000    0.000 
#    0.000    1.000    0.000    3.000    0.000    4.000 
#
# Total GULP energy -356728.427032 kJ/mol
# GULP energy per Si atom -5573.881672 kJ/mol
# Density = 1.410817 g / cm^3
# Si number density = 14.140355 Si / 1000 Ang^3
#
#
#
# Elastic Constant Matrix: (Units=GPa)
#
#
# Indices 1 2 3 4 5 6 
#
# 1 79.3198 42.0257 31.6970 0.0000 0.0000 0.0000
# 2 42.0257 60.4247 37.7500 0.0000 0.0000 0.0000
# 3 31.6970 37.7500 55.9515 0.0000 0.0000 0.0000
# 4 0.0000 0.0000 0.0000 19.6010 0.0000 0.0000
# 5 0.0000 0.0000 0.0000 0.0000 24.0524 0.0000
# 6 0.0000 0.0000 0.0000 0.0000 0.0000 26.8391
#
#
#
# Elastic Compliance Matrix: (Units=1/GPa)
#
#
# Indices 1 2 3 4 5 6 
#
# 1 0.020335 -0.012007 -0.003419 0.000000 0.000000 0.000000
# 2 -0.012007 0.035698 -0.017283 0.000000 0.000000 0.000000
# 3 -0.003419 -0.017283 0.031470 0.000000 0.000000 0.000000
# 4 0.000000 0.000000 0.000000 0.051018 0.000000 0.000000
# 5 0.000000 0.000000 0.000000 0.000000 0.041576 0.000000
# 6 0.000000 0.000000 0.000000 0.000000 0.000000 0.037259
#
#
# Mechanical properties :
#
#
# Convention : Reuss Voigt Hill
#
# Bulk Modulus (GPa) = 45.27930 46.51575 45.89752
# Shear Modulus (GPa) = 17.23328 19.71338 18.47333
#
# Velocity S-wave (km/s) = 3.49482 3.73785 3.61837
# Velocity P-wave (km/s) = 6.95528 7.18302 7.07007
#
# Compressibility (1/GPa) = 0.02208515
#
# Stress axis : x y z
#
# Youngs Moduli (GPa) = 49.17578 28.01264 31.77623
#
# Poissons Ratio (x) = 0.33636 0.10864
# Poissons Ratio (y) = 0.59047 0.54919
# Poissons Ratio (z) = 0.16812 0.48414
#
# Static dielectric constant tensor:
#      x y z
#    x 1.457090 0.000000 0.000000 
#    y 0.000000 1.472660 0.000000 
#    z 0.000000 0.000000 1.452240 
# 
# From -- ./inp_files/30034.got.cif
#   From: 2010.05.17/outbox.cif.g08.bks.cpg/sg62_16_cif.got.tgz:30034.got - 2010.06.03 15:25:27.
