data_PCOD9461394
_publ_section_title
;
Structure prediction by ZEFSAII (Michael W. Deem and Ramdas Pophale) SiO2 
 PCOD9461394
Probable space group: P N M A
;
_chemical_formula_sum "Si O2"
_cell_formula_units_Z 36
_cell_length_a 5.300295
_cell_length_b 20.339096
_cell_length_c 20.467921
_cell_angle_alpha 90.000000
_cell_angle_beta 90.000000
_cell_angle_gamma 90.000000
_cell_volume 2206.507562
_symmetry_space_group_name_H-M "P N M A"
_symmetry_group_IT_number 62
_symmetry_cell_setting 'orthorhombic'
loop_
_space_group_symop_operation_xyz
x,y,z
1/2-x,-y,1/2+z
1/2+x,1/2-y,1/2-z
-x,1/2+y,-z
-x,-y,-z
1/2+x,y,1/2-z
1/2-x,1/2+y,1/2+z
x,1/2-y,z
loop_
_atom_site_type_symbol
_atom_site_label
_atom_site_fract_x
_atom_site_fract_y
_atom_site_fract_z
Si Si1 0.980550 0.095323 0.444318
Si Si2 0.979074 0.049606 0.596594
Si Si3 0.519792 0.671705 0.533910
Si Si4 0.939044 0.750000 0.209126
Si Si5 0.021410 0.625000 0.117657
O O1 0.981587 0.070868 0.520002
O O2 0.227122 0.140116 0.436657
O O3 0.726183 0.136847 0.436110
O O4 0.992151 0.028861 0.402224
O O5 0.216443 0.086890 0.627847
O O6 0.714025 0.075522 0.623545
O O7 0.512668 0.750000 0.540908
O O8 0.520602 0.653516 0.456495
O O9 0.652861 0.750000 0.234991
O O10 0.986352 0.685561 0.165861
#
# Coordination Sequence:
#
# PCOD9461394 Si02
#       5
#     8   8   8   4   8
#     4   9  17  26  41  64  85 110 144 188 210 254
#     4   9  17  29  45  61  82 107 148 187 223 260
#     4  10  17  27  42  62  90 118 150 175 218 261
#     4  12  24  36  48  66  88 114 160 206 242 266
#     4  10  19  32  46  60  80 116 151 190 233 263
#
# _framework density 16.315375
#
# number of rings (size 3 to 8) (size 9 to 14) (size 15 to 20)
#    0.000    2.222    1.111    3.333    0.000    5.333 
#    0.000    0.000    0.000    0.000    0.000    0.000 
#    0.000    0.000    0.000    0.000    0.000  280.000 
#
# Total GULP energy -200790.974429 kJ/mol
# GULP energy per Si atom -5577.527067 kJ/mol
# Density = 1.627824 g / cm^3
# Si number density = 16.315375 Si / 1000 Ang^3
#
#
#
# Elastic Constant Matrix: (Units=GPa)
#
#
# Indices 1 2 3 4 5 6 
#
# 1 89.3263 25.4799 -8.9792 0.0000 0.0000 0.0000
# 2 25.4799 110.6531 0.4674 0.0000 0.0000 0.0000
# 3 -8.9792 0.4674 7.3124 0.0000 0.0000 0.0000
# 4 0.0000 0.0000 0.0000 8.0534 0.0000 0.0000
# 5 0.0000 0.0000 0.0000 0.0000 11.0640 0.0000
# 6 0.0000 0.0000 0.0000 0.0000 0.0000 31.3265
#
#
#
# Elastic Compliance Matrix: (Units=1/GPa)
#
#
# Indices 1 2 3 4 5 6 
#
# 1 0.013857 -0.003264 0.017225 0.000000 0.000000 0.000000
# 2 -0.003264 0.009808 -0.004634 0.000000 0.000000 0.000000
# 3 0.017225 -0.004634 0.158201 0.000000 0.000000 0.000000
# 4 0.000000 0.000000 0.000000 0.124171 0.000000 0.000000
# 5 0.000000 0.000000 0.000000 0.000000 0.090383 0.000000
# 6 0.000000 0.000000 0.000000 0.000000 0.000000 0.031922
#
#
# Mechanical properties :
#
#
# Convention : Reuss Voigt Hill
#
# Bulk Modulus (GPa) = 4.98704 26.80309 15.89507
# Shear Modulus (GPa) = 10.49253 22.77703 16.63478
#
# Velocity S-wave (km/s) = 2.53871 3.74042 3.19655
# Velocity P-wave (km/s) = 3.41418 5.92606 4.83605
#
# Compressibility (1/GPa) = 0.20051975
#
# Stress axis : x y z
#
# Youngs Moduli (GPa) = 72.16418 101.95409 6.32106
#
# Poissons Ratio (x) = 0.33274 -0.10888
# Poissons Ratio (y) = 0.23552 0.02929
# Poissons Ratio (z) = -1.24300 0.47250
#
# Static dielectric constant tensor:
#      x y z
#    x 1.552460 0.000000 0.000000 
#    y 0.000000 1.527380 0.000000 
#    z 0.000000 0.000000 1.520170 
# 
# From -- ./inp_files/25226.got.cif
#   From: 2010.05.17/outbox.cif.g08.bks.cpg/sg62_13_cif.got.tgz:25226.got - 2010.06.03 15:25:27.
