data_PCOD9461448
_publ_section_title
;
Structure prediction by ZEFSAII (Michael W. Deem and Ramdas Pophale) SiO2 
 PCOD9461448
Probable space group: P N M A
;
_chemical_formula_sum "Si O2"
_cell_formula_units_Z 40
_cell_length_a 21.451207
_cell_length_b 8.507517
_cell_length_c 13.125261
_cell_angle_alpha 90.000000
_cell_angle_beta 90.000000
_cell_angle_gamma 90.000000
_cell_volume 2395.314302
_symmetry_space_group_name_H-M "P N M A"
_symmetry_group_IT_number 62
_symmetry_cell_setting 'orthorhombic'
loop_
_space_group_symop_operation_xyz
x,y,z
1/2-x,-y,1/2+z
1/2+x,1/2-y,1/2-z
-x,1/2+y,-z
-x,-y,-z
1/2+x,y,1/2-z
1/2-x,1/2+y,1/2+z
x,1/2-y,z
loop_
_atom_site_type_symbol
_atom_site_label
_atom_site_fract_x
_atom_site_fract_y
_atom_site_fract_z
Si Si1 0.162415 0.439009 0.169891
Si Si2 0.698019 0.059209 0.111653
Si Si3 0.700178 0.438752 0.886777
Si Si4 0.929980 0.438389 0.999590
Si Si5 0.162355 0.560350 0.823311
O O1 0.161801 0.250000 0.166204
O O2 0.159586 0.490277 0.288645
O O3 0.229616 0.497741 0.129960
O O4 0.108455 0.504502 0.098578
O O5 0.697316 0.250000 0.111281
O O6 0.770028 0.012093 0.131684
O O7 0.678394 0.007874 0.999006
O O8 0.702533 0.250000 0.885041
O O9 0.659911 0.497384 0.791457
O O10 0.930267 0.250000 0.000184
O O11 0.891478 0.491970 0.099791
O O12 0.000000 0.500000 0.000000
O O13 0.162178 0.750000 0.819468
#
# Coordination Sequence:
#
# PCOD9461448 Si02
#       5
#     8   8   8   8   8
#     4  10  19  32  49  73 103 136 170 203 253 306
#     4   8  15  29  48  71 103 133 157 201 257 297
#     4  10  17  29  50  76 104 133 165 207 253 302
#     4  11  22  37  54  73 102 136 173 215 255 300
#     4   9  18  33  48  69 103 135 164 205 257 303
#
# _framework density 16.699269999999999
#
# number of rings (size 3 to 8) (size 9 to 14) (size 15 to 20)
#    0.000    2.400    2.000    3.000    0.000    1.600 
#    0.000    3.000    0.000    1.200    0.000    0.000 
#    0.000    0.000    0.000    0.000    0.000    0.000 
#
# Total GULP energy -222953.807540 kJ/mol
# GULP energy per Si atom -5573.845189 kJ/mol
# Density = 1.666126 g / cm^3
# Si number density = 16.699270 Si / 1000 Ang^3
#
#
#
# Elastic Constant Matrix: (Units=GPa)
#
#
# Indices 1 2 3 4 5 6 
#
# 1 95.4069 24.6125 78.3278 0.0000 0.0000 0.0000
# 2 24.6125 34.6184 32.1793 0.0000 0.0000 0.0000
# 3 78.3278 32.1793 204.3039 0.0000 0.0000 0.0000
# 4 0.0000 0.0000 0.0000 27.4318 0.0000 0.0000
# 5 0.0000 0.0000 0.0000 0.0000 20.0171 0.0000
# 6 0.0000 0.0000 0.0000 0.0000 0.0000 8.2100
#
#
#
# Elastic Compliance Matrix: (Units=1/GPa)
#
#
# Indices 1 2 3 4 5 6 
#
# 1 0.016590 -0.006892 -0.005275 0.000000 0.000000 0.000000
# 2 -0.006892 0.036704 -0.003139 0.000000 0.000000 0.000000
# 3 -0.005275 -0.003139 0.007411 0.000000 0.000000 0.000000
# 4 0.000000 0.000000 0.000000 0.036454 0.000000 0.000000
# 5 0.000000 0.000000 0.000000 0.000000 0.049957 0.000000
# 6 0.000000 0.000000 0.000000 0.000000 0.000000 0.121802
#
#
# Mechanical properties :
#
#
# Convention : Reuss Voigt Hill
#
# Bulk Modulus (GPa) = 33.22896 67.17427 50.20162
# Shear Modulus (GPa) = 16.15190 24.41242 20.28216
#
# Velocity S-wave (km/s) = 3.11339 3.82761 3.48883
# Velocity P-wave (km/s) = 5.73288 7.73611 6.80857
#
# Compressibility (1/GPa) = 0.03009423
#
# Stress axis : x y z
#
# Youngs Moduli (GPa) = 60.27758 27.24514 134.92684
#
# Poissons Ratio (x) = 0.18776 0.71173
# Poissons Ratio (y) = 0.41541 0.42353
# Poissons Ratio (z) = 0.31796 0.08552
#
# Static dielectric constant tensor:
#      x y z
#    x 1.519870 0.000000 0.000000 
#    y 0.000000 1.571180 0.000000 
#    z 0.000000 0.000000 1.604900 
# 
# From -- ./inp_files/13866.got.cif
#   From: 2010.05.17/outbox.cif.g08.bks.cpg/sg62_7_cif.got.tgz:13866.got - 2010.06.03 15:25:27.
