data_PCOD9461663
_publ_section_title
;
Structure prediction by ZEFSAII (Michael W. Deem and Ramdas Pophale) SiO2 
 PCOD9461663
Probable space group: P N M A
;
_chemical_formula_sum "Si O2"
_cell_formula_units_Z 64
_cell_length_a 18.807609
_cell_length_b 9.070532
_cell_length_c 27.065659
_cell_angle_alpha 90.000000
_cell_angle_beta 90.000000
_cell_angle_gamma 90.000000
_cell_volume 4617.266619
_symmetry_space_group_name_H-M "P N M A"
_symmetry_group_IT_number 62
_symmetry_cell_setting 'orthorhombic'
loop_
_space_group_symop_operation_xyz
x,y,z
1/2-x,-y,1/2+z
1/2+x,1/2-y,1/2-z
-x,1/2+y,-z
-x,-y,-z
1/2+x,y,1/2-z
1/2-x,1/2+y,1/2+z
x,1/2-y,z
loop_
_atom_site_type_symbol
_atom_site_label
_atom_site_fract_x
_atom_site_fract_y
_atom_site_fract_z
Si Si1 0.673568 0.574050 0.645939
Si Si2 0.841871 0.924947 0.855540
Si Si3 0.292633 0.424400 0.798623
Si Si4 0.577924 0.925625 0.442271
Si Si5 0.713272 0.576139 0.791514
Si Si6 0.576859 0.573409 0.263187
Si Si7 0.574238 0.924442 0.741176
Si Si8 0.573558 0.573171 0.557433
O O1 0.682908 0.750000 0.645442
O O2 0.749355 0.501424 0.657570
O O3 0.619181 0.541518 0.691276
O O4 0.634954 0.528551 0.595496
O O5 0.855365 0.750000 0.857508
O O6 0.759034 0.947332 0.840769
O O7 0.865755 0.000471 0.905940
O O8 0.888385 0.994857 0.811014
O O9 0.288223 0.250000 0.804788
O O10 0.250256 0.475842 0.749698
O O11 0.373575 0.463881 0.784295
O O12 0.577088 0.750000 0.435404
O O13 0.591440 0.957183 0.500214
O O14 0.500208 0.992221 0.430516
O O15 0.723286 0.750000 0.777740
O O16 0.629397 0.549241 0.786307
O O17 0.579609 0.750000 0.270186
O O18 0.497042 0.517519 0.256689
O O19 0.556876 0.750000 0.739725
O O20 0.562650 0.750000 0.562504
#
# Coordination Sequence:
#
# PCOD9461663 Si02
#       8
#     8   8   8   8   8   8   8   8
#     4   9  17  29  43  57  76 105 138 166 194 231
#     4  10  18  29  44  58  77 108 140 167 198 235
#     4   9  17  27  39  57  80 103 129 163 198 233
#     4  10  19  29  42  61  83 106 135 170 203 234
#     4   8  16  29  42  56  75 102 135 166 195 232
#     4  10  19  28  39  59  84 107 133 164 198 237
#     4   9  16  26  41  60  80 103 133 166 197 233
#     4   9  18  31  44  59  81 108 137 169 201 233
#
# _framework density 13.861014000000001
#
# number of rings (size 3 to 8) (size 9 to 14) (size 15 to 20)
#    0.000    2.750    0.000    3.000    0.000    6.000 
#    0.000    0.000    0.000    0.000    0.000    0.000 
#    0.000    1.000    0.000    2.250    0.000    4.000 
#
# Total GULP energy -356320.307572 kJ/mol
# GULP energy per Si atom -5567.504806 kJ/mol
# Density = 1.382947 g / cm^3
# Si number density = 13.861014 Si / 1000 Ang^3
#
#
#
# Elastic Constant Matrix: (Units=GPa)
#
#
# Indices 1 2 3 4 5 6 
#
# 1 73.2081 33.9115 34.2204 0.0000 0.0000 0.0000
# 2 33.9115 35.1717 27.9144 0.0000 0.0000 0.0000
# 3 34.2204 27.9144 59.8929 0.0000 0.0000 0.0000
# 4 0.0000 0.0000 0.0000 19.4665 0.0000 0.0000
# 5 0.0000 0.0000 0.0000 0.0000 26.9886 0.0000
# 6 0.0000 0.0000 0.0000 0.0000 0.0000 18.1256
#
#
#
# Elastic Compliance Matrix: (Units=1/GPa)
#
#
# Indices 1 2 3 4 5 6 
#
# 1 0.025577 -0.020731 -0.004952 0.000000 0.000000 0.000000
# 2 -0.020731 0.061926 -0.017017 0.000000 0.000000 0.000000
# 3 -0.004952 -0.017017 0.027457 0.000000 0.000000 0.000000
# 4 0.000000 0.000000 0.000000 0.051370 0.000000 0.000000
# 5 0.000000 0.000000 0.000000 0.000000 0.037053 0.000000
# 6 0.000000 0.000000 0.000000 0.000000 0.000000 0.055171
#
#
# Mechanical properties :
#
#
# Convention : Reuss Voigt Hill
#
# Bulk Modulus (GPa) = 33.82885 40.04059 36.93472
# Shear Modulus (GPa) = 14.13203 17.73124 15.93164
#
# Velocity S-wave (km/s) = 3.19651 3.58049 3.39394
# Velocity P-wave (km/s) = 6.17108 6.78551 6.48558
#
# Compressibility (1/GPa) = 0.02956057
#
# Stress axis : x y z
#
# Youngs Moduli (GPa) = 39.09713 16.14839 36.42074
#
# Poissons Ratio (x) = 0.33477 0.18035
# Poissons Ratio (y) = 0.81052 0.61977
# Poissons Ratio (z) = 0.19360 0.27480
#
# Static dielectric constant tensor:
#      x y z
#    x 1.461560 0.000000 0.000000 
#    y 0.000000 1.463100 0.000000 
#    z 0.000000 0.000000 1.454640 
# 
# From -- ./inp_files/31346.got.cif
#   From: 2010.05.17/outbox.cif.g08.bks.cpg/sg62_16_cif.got.tgz:31346.got - 2010.06.03 15:25:27.
