data_PCOD9461872
_publ_section_title
;
Structure prediction by ZEFSAII (Michael W. Deem and Ramdas Pophale) SiO2 
 PCOD9461872
Probable space group: P N M A
;
_chemical_formula_sum "Si O2"
_cell_formula_units_Z 64
_cell_length_a 14.974131
_cell_length_b 8.529916
_cell_length_c 31.189710
_cell_angle_alpha 90.000000
_cell_angle_beta 90.000000
_cell_angle_gamma 90.000000
_cell_volume 3983.801762
_symmetry_space_group_name_H-M "P N M A"
_symmetry_group_IT_number 62
_symmetry_cell_setting 'orthorhombic'
loop_
_space_group_symop_operation_xyz
x,y,z
1/2-x,-y,1/2+z
1/2+x,1/2-y,1/2-z
-x,1/2+y,-z
-x,-y,-z
1/2+x,y,1/2-z
1/2-x,1/2+y,1/2+z
x,1/2-y,z
loop_
_atom_site_type_symbol
_atom_site_label
_atom_site_fract_x
_atom_site_fract_y
_atom_site_fract_z
Si Si1 0.310788 0.938152 0.368511
Si Si2 0.317289 0.936048 0.797114
Si Si3 0.327527 0.060488 0.630955
Si Si4 0.211466 0.439886 0.712516
Si Si5 0.896336 0.062435 0.048184
Si Si6 0.492948 0.939517 0.225064
Si Si7 0.992295 0.559773 0.176336
Si Si8 0.102855 0.437649 0.046520
O O1 0.306845 0.750000 0.367550
O O2 0.399872 0.993698 0.343556
O O3 0.230225 0.003874 0.340350
O O4 0.328544 0.993345 0.416887
O O5 0.312542 0.750000 0.795107
O O6 0.265177 0.001177 0.754631
O O7 0.420137 0.990927 0.797307
O O8 0.325498 0.250000 0.628438
O O9 0.256936 0.013091 0.667499
O O10 0.422597 0.007164 0.649998
O O11 0.328981 0.993806 0.583105
O O12 0.215141 0.250000 0.715276
O O13 0.107365 0.486824 0.712079
O O14 0.894165 0.250000 0.050511
O O15 0.999847 0.010515 0.056787
O O16 0.875658 0.006869 0.000089
O O17 0.497726 0.750000 0.222160
O O18 0.501484 0.986881 0.274701
O O19 0.991694 0.750000 0.175413
O O20 0.102548 0.250000 0.044283
#
# Coordination Sequence:
#
# PCOD9461872 Si02
#       8
#     8   8   8   8   8   8   8   8
#     4  11  20  34  53  74 100 138 178 211 253 307
#     4  12  24  34  48  75 107 137 171 214 262 307
#     4  10  18  31  50  75 102 133 173 214 254 298
#     4  10  20  35  55  75  98 136 181 217 254 304
#     4  10  20  33  49  73 103 134 170 214 257 300
#     4  10  19  36  54  71  97 136 181 218 251 297
#     4   9  16  27  50  74  97 130 172 213 248 292
#     4  10  20  32  48  73 104 138 170 204 253 311
#
# _framework density 16.065055999999998
#
# number of rings (size 3 to 8) (size 9 to 14) (size 15 to 20)
#    0.000    1.750    3.750    2.250    0.000    2.000 
#    0.000    0.000    0.000    0.000    0.000    0.875 
#    0.000    0.000    0.000    0.000    0.000    0.000 
#
# Total GULP energy -356929.022134 kJ/mol
# GULP energy per Si atom -5577.015971 kJ/mol
# Density = 1.602849 g / cm^3
# Si number density = 16.065056 Si / 1000 Ang^3
#
#
#
# Elastic Constant Matrix: (Units=GPa)
#
#
# Indices 1 2 3 4 5 6 
#
# 1 76.1109 24.9632 40.9637 0.0000 0.0000 0.0000
# 2 24.9632 39.8026 26.5376 0.0000 0.0000 0.0000
# 3 40.9637 26.5376 109.7024 0.0000 0.0000 0.0000
# 4 0.0000 0.0000 0.0000 23.9992 0.0000 0.0000
# 5 0.0000 0.0000 0.0000 0.0000 22.3430 0.0000
# 6 0.0000 0.0000 0.0000 0.0000 0.0000 11.0099
#
#
#
# Elastic Compliance Matrix: (Units=1/GPa)
#
#
# Indices 1 2 3 4 5 6 
#
# 1 0.018510 -0.008347 -0.004892 0.000000 0.000000 0.000000
# 2 -0.008347 0.033719 -0.005040 0.000000 0.000000 0.000000
# 3 -0.004892 -0.005040 0.012162 0.000000 0.000000 0.000000
# 4 0.000000 0.000000 0.000000 0.041668 0.000000 0.000000
# 5 0.000000 0.000000 0.000000 0.000000 0.044757 0.000000
# 6 0.000000 0.000000 0.000000 0.000000 0.000000 0.090827
#
#
# Mechanical properties :
#
#
# Convention : Reuss Voigt Hill
#
# Bulk Modulus (GPa) = 35.93018 45.61609 40.77314
# Shear Modulus (GPa) = 17.39260 20.34717 18.86989
#
# Velocity S-wave (km/s) = 3.29391 3.56272 3.43095
# Velocity P-wave (km/s) = 6.07293 6.73648 6.41329
#
# Compressibility (1/GPa) = 0.02783175
#
# Stress axis : x y z
#
# Youngs Moduli (GPa) = 54.02625 29.65666 82.22546
#
# Poissons Ratio (x) = 0.24754 0.40229
# Poissons Ratio (y) = 0.45094 0.41443
# Poissons Ratio (z) = 0.26432 0.14947
#
# Static dielectric constant tensor:
#      x y z
#    x 1.542090 0.000000 0.000000 
#    y 0.000000 1.544410 0.000000 
#    z 0.000000 0.000000 1.542020 
# 
# From -- ./inp_files/32705.got.cif
#   From: 2010.05.17/outbox.cif.g08.bks.cpg/sg62_17_cif.got.tgz:32705.got - 2010.06.03 15:25:27.
