data_PCOD9461338
_publ_section_title
;
Structure prediction by ZEFSAII (Michael W. Deem and Ramdas Pophale) SiO2 
 PCOD9461338
Probable space group: P N M A
;
_chemical_formula_sum "Si O2"
_cell_formula_units_Z 52
_cell_length_a 7.441922
_cell_length_b 25.891122
_cell_length_c 9.729766
_cell_angle_alpha 90.000000
_cell_angle_beta 90.000000
_cell_angle_gamma 90.000000
_cell_volume 1874.728495
_symmetry_space_group_name_H-M "P N M A"
_symmetry_group_IT_number 62
_symmetry_cell_setting 'orthorhombic'
loop_
_space_group_symop_operation_xyz
x,y,z
1/2-x,-y,1/2+z
1/2+x,1/2-y,1/2-z
-x,1/2+y,-z
-x,-y,-z
1/2+x,y,1/2-z
1/2-x,1/2+y,1/2+z
x,1/2-y,z
loop_
_atom_site_type_symbol
_atom_site_label
_atom_site_fract_x
_atom_site_fract_y
_atom_site_fract_z
Si Si1 0.382869 0.750000 0.576002
Si Si2 0.973742 0.947026 0.404864
Si Si3 0.313225 0.139232 0.783576
Si Si4 0.703324 0.139802 0.033708
Si Si5 0.884136 0.634884 0.924296
Si Si6 0.190371 0.480204 0.061222
Si Si7 0.301442 0.250000 0.785866
Si Si8 0.699491 0.250000 0.032565
O O1 0.320927 0.807521 0.624441
O O2 0.339932 0.750000 0.411886
O O3 0.597814 0.750000 0.591128
O O4 0.920370 0.910467 0.536281
O O5 0.048098 0.906934 0.294899
O O6 0.151528 0.978260 0.445952
O O7 0.801022 0.977872 0.349927
O O8 0.247452 0.141168 0.628690
O O9 0.180676 0.134179 0.915205
O O10 0.400641 0.195821 0.803192
O O11 0.616878 0.194840 0.072485
O O12 0.900729 0.134320 0.096679
O O13 0.825459 0.577423 0.876635
O O14 0.000000 0.500000 0.000000
O O15 0.228542 0.250000 0.631429
#
# Coordination Sequence:
#
# PCOD9461338 Si02
#       8
#     4   8   8   8   8   8   4   4
#     4   8  14  24  36  56  76 108 150 175 225 269
#     4  10  20  29  46  65  79 115 163 191 232 273
#     4   9  17  26  40  64  90 118 154 191 229 269
#     4  10  16  27  41  64  91 118 155 190 229 268
#     4   9  16  27  42  56  83 116 144 190 227 261
#     4  10  19  34  46  58  82 114 158 203 229 267
#     4   8  14  24  36  54  89 123 147 184 223 258
#     4   8  16  22  36  58  89 121 147 187 220 257
#
# _framework density 27.737348000000001
#
# number of rings (size 3 to 8) (size 9 to 14) (size 15 to 20)
#    0.000    2.769    1.538    0.923    0.000    4.308 
#    0.000    0.769    0.000    0.000    0.000    0.000 
#    0.000    0.000    0.000    1.385    0.615   11.308 
#
# Total GULP energy -290073.727436 kJ/mol
# GULP energy per Si atom -5578.340912 kJ/mol
# Density = 2.767422 g / cm^3
# Si number density = 27.737348 Si / 1000 Ang^3
#
#
#
# Elastic Constant Matrix: (Units=GPa)
#
#
# Indices 1 2 3 4 5 6 
#
# 1 153.7615 74.3845 17.4740 0.0000 0.0000 0.0000
# 2 74.3845 241.8500 10.9815 0.0000 0.0000 0.0000
# 3 17.4740 10.9815 87.3614 0.0000 0.0000 0.0000
# 4 0.0000 0.0000 0.0000 0.6916 0.0000 0.0000
# 5 0.0000 0.0000 0.0000 0.0000 7.2366 0.0000
# 6 0.0000 0.0000 0.0000 0.0000 0.0000 49.5656
#
#
#
# Elastic Compliance Matrix: (Units=1/GPa)
#
#
# Indices 1 2 3 4 5 6 
#
# 1 0.007776 -0.002334 -0.001262 0.000000 0.000000 0.000000
# 2 -0.002334 0.004859 -0.000144 0.000000 0.000000 0.000000
# 3 -0.001262 -0.000144 0.011717 0.000000 0.000000 0.000000
# 4 0.000000 0.000000 0.000000 1.445923 0.000000 0.000000
# 5 0.000000 0.000000 0.000000 0.000000 0.138187 0.000000
# 6 0.000000 0.000000 0.000000 0.000000 0.000000 0.020175
#
#
# Mechanical properties :
#
#
# Convention : Reuss Voigt Hill
#
# Bulk Modulus (GPa) = 59.26889 76.51699 67.89294
# Shear Modulus (GPa) = 3.04554 36.84094 19.94324
#
# Velocity S-wave (km/s) = 1.04899 3.64841 2.68433
# Velocity P-wave (km/s) = 4.78346 6.73751 5.84275
#
# Compressibility (1/GPa) = 0.01687226
#
# Stress axis : x y z
#
# Youngs Moduli (GPa) = 128.59583 205.79051 85.34454
#
# Poissons Ratio (x) = 0.48040 0.10770
# Poissons Ratio (y) = 0.30020 0.01228
# Poissons Ratio (z) = 0.16228 0.02961
#
# Static dielectric constant tensor:
#      x y z
#    x 2.203450 0.000000 0.000000 
#    y 0.000000 2.426090 0.000000 
#    z 0.000000 0.000000 2.205030 
# 
# From -- ./inp_files/22610.got.cif
#   From: 2010.05.17/outbox.cif.g08.bks.cpg/sg62_12_cif.got.tgz:22610.got - 2010.06.03 15:25:27.
