data_PCOD9461981
_publ_section_title
;
Structure prediction by ZEFSAII (Michael W. Deem and Ramdas Pophale) SiO2 
 PCOD9461981
Probable space group: P N M A
;
_chemical_formula_sum "Si O2"
_cell_formula_units_Z 56
_cell_length_a 16.162393
_cell_length_b 19.423458
_cell_length_c 10.898259
_cell_angle_alpha 90.000000
_cell_angle_beta 90.000000
_cell_angle_gamma 90.000000
_cell_volume 3421.285670
_symmetry_space_group_name_H-M "P N M A"
_symmetry_group_IT_number 62
_symmetry_cell_setting 'orthorhombic'
loop_
_space_group_symop_operation_xyz
x,y,z
1/2-x,-y,1/2+z
1/2+x,1/2-y,1/2-z
-x,1/2+y,-z
-x,-y,-z
1/2+x,y,1/2-z
1/2-x,1/2+y,1/2+z
x,1/2-y,z
loop_
_atom_site_type_symbol
_atom_site_label
_atom_site_fract_x
_atom_site_fract_y
_atom_site_fract_z
Si Si1 0.979480 0.328660 0.351118
Si Si2 0.429766 0.957524 0.749698
Si Si3 0.613243 0.327242 0.935356
Si Si4 0.092524 0.456691 0.735448
Si Si5 0.224189 0.410808 0.396045
Si Si6 0.687436 0.908169 0.855838
Si Si7 0.170228 0.032438 0.999329
O O1 0.978019 0.250000 0.305494
O O2 0.888484 0.357540 0.378733
O O3 0.023775 0.383587 0.260697
O O4 0.034204 0.329789 0.474329
O O5 0.356056 0.954664 0.849889
O O6 0.388961 0.969214 0.617421
O O7 0.499418 0.014391 0.774204
O O8 0.622589 0.250000 0.887929
O O9 0.603469 0.385391 0.833825
O O10 0.689951 0.349675 0.021065
O O11 0.149728 0.515829 0.673039
O O12 0.120966 0.449548 0.876194
O O13 0.266901 0.386850 0.270190
O O14 0.286617 0.459342 0.469966
O O15 0.755008 0.916543 0.962421
#
# Coordination Sequence:
#
# PCOD9461981 Si02
#       7
#     8   8   8   8   8   8   8
#     4   9  19  34  52  73 101 134 173 214 255 311
#     4   9  19  32  53  78  98 134 175 214 258 302
#     4  10  20  34  50  72 104 141 174 205 255 319
#     4  10  19  32  52  74 103 138 172 212 250 313
#     4   9  18  31  51  78 103 127 166 220 263 300
#     4   9  18  31  53  78  99 127 172 216 263 294
#     4  10  18  32  51  79 104 127 169 222 265 298
#
# _framework density 16.368117000000002
#
# number of rings (size 3 to 8) (size 9 to 14) (size 15 to 20)
#    0.000    2.571    1.429    0.429    2.000    2.286 
#    0.000    3.571    0.000    2.571    0.000    0.000 
#    0.000    0.000    0.000    0.000    0.000    0.000 
#
# Total GULP energy -312086.616005 kJ/mol
# GULP energy per Si atom -5572.975286 kJ/mol
# Density = 1.633086 g / cm^3
# Si number density = 16.368117 Si / 1000 Ang^3
#
#
#
# Elastic Constant Matrix: (Units=GPa)
#
#
# Indices 1 2 3 4 5 6 
#
# 1 52.7543 24.7701 2.2651 0.0000 0.0000 0.0000
# 2 24.7701 105.6359 33.1336 0.0000 0.0000 0.0000
# 3 2.2651 33.1336 35.6868 0.0000 0.0000 0.0000
# 4 0.0000 0.0000 0.0000 16.7623 0.0000 0.0000
# 5 0.0000 0.0000 0.0000 0.0000 14.2061 0.0000
# 6 0.0000 0.0000 0.0000 0.0000 0.0000 15.0057
#
#
#
# Elastic Compliance Matrix: (Units=1/GPa)
#
#
# Indices 1 2 3 4 5 6 
#
# 1 0.021859 -0.006618 0.004757 0.000000 0.000000 0.000000
# 2 -0.006618 0.015359 -0.013840 0.000000 0.000000 0.000000
# 3 0.004757 -0.013840 0.040570 0.000000 0.000000 0.000000
# 4 0.000000 0.000000 0.000000 0.059658 0.000000 0.000000
# 5 0.000000 0.000000 0.000000 0.000000 0.070392 0.000000
# 6 0.000000 0.000000 0.000000 0.000000 0.000000 0.066641
#
#
# Mechanical properties :
#
#
# Convention : Reuss Voigt Hill
#
# Bulk Modulus (GPa) = 21.55854 34.93494 28.24674
# Shear Modulus (GPa) = 15.55969 18.12206 16.84087
#
# Velocity S-wave (km/s) = 3.08654 3.33101 3.21110
# Velocity P-wave (km/s) = 5.08940 6.01529 5.57161
#
# Compressibility (1/GPa) = 0.04638532
#
# Stress axis : x y z
#
# Youngs Moduli (GPa) = 45.74832 65.10695 24.64888
#
# Poissons Ratio (x) = 0.43085 -0.11725
# Poissons Ratio (y) = 0.30274 0.34115
# Poissons Ratio (z) = -0.21761 0.90111
#
# Static dielectric constant tensor:
#      x y z
#    x 1.566920 0.000000 0.000000 
#    y 0.000000 1.528940 0.000000 
#    z 0.000000 0.000000 1.534840 
# 
# From -- ./inp_files/14368.got.cif
#   From: 2010.05.17/outbox.cif.g08.bks.cpg/sg62_8_cif.got.tgz:14368.got - 2010.06.03 15:25:27.
