data_PCOD9461118
_publ_section_title
;
Structure prediction by ZEFSAII (Michael W. Deem and Ramdas Pophale) SiO2 
 PCOD9461118
Probable space group: P B C A
;
_chemical_formula_sum "Si O2"
_cell_formula_units_Z 40
_cell_length_a 8.528418
_cell_length_b 23.109041
_cell_length_c 7.328174
_cell_angle_alpha 90.000000
_cell_angle_beta 90.000000
_cell_angle_gamma 90.000000
_cell_volume 1444.262629
_symmetry_space_group_name_H-M "P B C A"
_symmetry_group_IT_number 61
_symmetry_cell_setting 'orthorhombic'
loop_
_space_group_symop_operation_xyz
x,y,z
1/2-x,-y,1/2+z
1/2+x,1/2-y,-z
-x,1/2+y,1/2-z
-x,-y,-z
1/2+x,y,1/2-z
1/2-x,1/2+y,z
x,1/2-y,1/2+z
loop_
_atom_site_type_symbol
_atom_site_label
_atom_site_fract_x
_atom_site_fract_y
_atom_site_fract_z
Si Si1 0.980843 0.791512 0.412609
Si Si2 0.075555 0.055501 0.304006
Si Si3 0.885658 0.177695 0.971340
Si Si4 0.214754 0.612340 0.044564
Si Si5 0.293447 0.059557 0.644225
O O1 0.029701 0.724527 0.403744
O O2 0.012024 0.812514 0.209882
O O3 0.111188 0.829324 0.523961
O O4 0.799347 0.803503 0.461446
O O5 0.144854 0.109957 0.189145
O O6 0.152411 0.049153 0.504626
O O7 0.898299 0.067266 0.353166
O O8 0.108906 0.997695 0.189043
O O9 0.882801 0.108688 0.970363
O O10 0.249846 0.588277 0.840781
#
# Coordination Sequence:
#
# PCOD9461118 Si02
#       5
#     8   8   8   8   8
#     4  11  25  48  73 108 150 197 256 321 378 467
#     4  12  25  47  77 108 157 201 253 314 387 455
#     4  11  25  46  75 108 148 198 252 314 388 449
#     4  11  27  47  72 111 151 204 256 309 389 456
#     4  11  25  46  76 112 154 198 255 321 375 463
#
# _framework density 27.695796999999999
#
# number of rings (size 3 to 8) (size 9 to 14) (size 15 to 20)
#    0.000    0.800    4.000    1.800    2.800    4.000 
#    3.600    0.000    0.000    0.000    0.000    0.000 
#    0.000    0.000    0.000    0.000    0.000    0.000 
#
# Total GULP energy -224019.127082 kJ/mol
# GULP energy per Si atom -5600.478177 kJ/mol
# Density = 2.763276 g / cm^3
# Si number density = 27.695797 Si / 1000 Ang^3
#
#
#
# Elastic Constant Matrix: (Units=GPa)
#
#
# Indices 1 2 3 4 5 6 
#
# 1 128.5820 16.1601 36.5096 0.0000 0.0000 0.0000
# 2 16.1601 122.5972 11.6124 0.0000 0.0000 0.0000
# 3 36.5096 11.6124 125.1563 0.0000 0.0000 0.0000
# 4 0.0000 0.0000 0.0000 220.1198 0.0000 0.0000
# 5 0.0000 0.0000 0.0000 0.0000 41.5639 0.0000
# 6 0.0000 0.0000 0.0000 0.0000 0.0000 34.3144
#
#
#
# Elastic Compliance Matrix: (Units=1/GPa)
#
#
# Indices 1 2 3 4 5 6 
#
# 1 0.008577 -0.000902 -0.002418 0.000000 0.000000 0.000000
# 2 -0.000902 0.008324 -0.000509 0.000000 0.000000 0.000000
# 3 -0.002418 -0.000509 0.008743 0.000000 0.000000 0.000000
# 4 0.000000 0.000000 0.000000 0.004543 0.000000 0.000000
# 5 0.000000 0.000000 0.000000 0.000000 0.024059 0.000000
# 6 0.000000 0.000000 0.000000 0.000000 0.000000 0.029142
#
#
# Mechanical properties :
#
#
# Convention : Reuss Voigt Hill
#
# Bulk Modulus (GPa) = 55.60116 56.09994 55.85055
# Shear Modulus (GPa) = 51.52415 80.00321 65.76368
#
# Velocity S-wave (km/s) = 4.31787 5.38044 4.87817
# Velocity P-wave (km/s) = 6.70656 7.67454 7.20682
#
# Compressibility (1/GPa) = 0.01798524
#
# Stress axis : x y z
#
# Youngs Moduli (GPa) = 116.58925 120.13641 114.38063
#
# Poissons Ratio (x) = 0.10831 0.27662
# Poissons Ratio (y) = 0.10511 0.05826
# Poissons Ratio (z) = 0.28196 0.06119
#
# Static dielectric constant tensor:
#      x y z
#    x 2.190420 0.000000 0.000000 
#    y 0.000000 2.541050 0.000000 
#    z 0.000000 0.000000 2.150040 
# 
# From -- ./inp_files/1750.got.cif
#   From: 2010.05.17/outbox.cif.g08.bks.cpg/sg61_1_cif.got.tgz:1750.got - 2010.06.03 15:17:17.
