data_PCOD9461464
_publ_section_title
;
Structure prediction by ZEFSAII (Michael W. Deem and Ramdas Pophale) SiO2 
 PCOD9461464
Probable space group: P N M A
;
_chemical_formula_sum "Si O2"
_cell_formula_units_Z 48
_cell_length_a 6.109214
_cell_length_b 16.310267
_cell_length_c 22.148352
_cell_angle_alpha 90.000000
_cell_angle_beta 90.000000
_cell_angle_gamma 90.000000
_cell_volume 2206.926278
_symmetry_space_group_name_H-M "P N M A"
_symmetry_group_IT_number 62
_symmetry_cell_setting 'orthorhombic'
loop_
_space_group_symop_operation_xyz
x,y,z
1/2-x,-y,1/2+z
1/2+x,1/2-y,1/2-z
-x,1/2+y,-z
-x,-y,-z
1/2+x,y,1/2-z
1/2-x,1/2+y,1/2+z
x,1/2-y,z
loop_
_atom_site_type_symbol
_atom_site_label
_atom_site_fract_x
_atom_site_fract_y
_atom_site_fract_z
Si Si1 0.298489 0.597116 0.608911
Si Si2 0.876586 0.343565 0.863055
Si Si3 0.130843 0.637257 0.728238
Si Si4 0.893364 0.508695 0.191137
Si Si5 0.110465 0.412571 0.982528
Si Si6 0.010223 0.558084 0.394883
O O1 0.161882 0.648992 0.657013
O O2 0.501716 0.560264 0.646626
O O3 0.372379 0.634684 0.545875
O O4 0.153245 0.517117 0.594507
O O5 0.922983 0.250000 0.847800
O O6 0.623334 0.362579 0.874496
O O7 0.961411 0.409443 0.813691
O O8 0.985705 0.368437 0.927536
O O9 0.377620 0.663515 0.754397
O O10 0.136221 0.540756 0.747217
O O11 0.671350 0.533783 0.158846
O O12 0.348317 0.427429 0.954313
O O13 0.000000 0.500000 0.000000
#
# Coordination Sequence:
#
# PCOD9461464 Si02
#       6
#     8   8   8   8   8   8
#     4  10  18  29  48  80 104 133 169 227 283 331
#     4  10  22  35  51  75 108 150 192 231 282 344
#     4  10  19  31  51  79 110 142 175 227 285 328
#     4   9  18  32  51  72 102 142 177 222 275 327
#     4  11  19  31  52  80 103 135 178 234 290 341
#     4  10  17  30  50  72 103 133 179 220 280 331
#
# _framework density 21.749707999999998
#
# number of rings (size 3 to 8) (size 9 to 14) (size 15 to 20)
#    0.000    2.000    6.667    0.500    0.000    2.667 
#    0.000    0.000    0.000    9.000    0.000    0.000 
#    0.000    5.333    0.000    0.000    0.000    0.000 
#
# Total GULP energy -267393.458666 kJ/mol
# GULP energy per Si atom -5570.697056 kJ/mol
# Density = 2.170020 g / cm^3
# Si number density = 21.749708 Si / 1000 Ang^3
#
#
#
# Elastic Constant Matrix: (Units=GPa)
#
#
# Indices 1 2 3 4 5 6 
#
# 1 110.6794 10.8681 18.5004 0.0000 0.0000 0.0000
# 2 10.8681 100.6055 21.2477 0.0000 0.0000 0.0000
# 3 18.5004 21.2477 90.3821 0.0000 0.0000 0.0000
# 4 0.0000 0.0000 0.0000 1.1584 0.0000 0.0000
# 5 0.0000 0.0000 0.0000 0.0000 34.3547 0.0000
# 6 0.0000 0.0000 0.0000 0.0000 0.0000 -423.9284
#
#
#
# Elastic Compliance Matrix: (Units=1/GPa)
#
#
# Indices 1 2 3 4 5 6 
#
# 1 0.009394 -0.000641 -0.001772 0.000000 0.000000 0.000000
# 2 -0.000641 0.010503 -0.002338 0.000000 0.000000 0.000000
# 3 -0.001772 -0.002338 0.011977 0.000000 0.000000 0.000000
# 4 0.000000 0.000000 0.000000 0.863260 0.000000 0.000000
# 5 0.000000 0.000000 0.000000 0.000000 0.029108 0.000000
# 6 0.000000 0.000000 0.000000 0.000000 0.000000 -0.002359
#
#
# Mechanical properties :
#
#
# Convention : Reuss Voigt Hill
#
# Bulk Modulus (GPa) = 44.69885 44.76659 44.73272
# Shear Modulus (GPa) = 5.32571 -60.94635 -27.81032
#
# Velocity S-wave (km/s) = 1.56651 -5.29929 -3.57970
# Velocity P-wave (km/s) = 4.88549 4.10074 1.87776
#
# Compressibility (1/GPa) = 0.02237194
#
# Stress axis : x y z
#
# Youngs Moduli (GPa) = 106.44806 95.21281 83.49656
#
# Poissons Ratio (x) = 0.06099 0.14798
# Poissons Ratio (y) = 0.06818 0.19521
# Poissons Ratio (z) = 0.18866 0.22260
#
# Static dielectric constant tensor:
#      x y z
#    x 1.886080 0.000000 0.000000 
#    y 0.000000 1.791500 0.000000 
#    z 0.000000 0.000000 1.835230 
# 
# From -- ./inp_files/28320.got.cif
#   From: 2010.05.17/outbox.cif.g08.bks.cpg/sg62_15_cif.got.tgz:28320.got - 2010.06.03 15:25:27.
