data_PCOD9461733
_publ_section_title
;
Structure prediction by ZEFSAII (Michael W. Deem and Ramdas Pophale) SiO2 
 PCOD9461733
Probable space group: P N M A
;
_chemical_formula_sum "Si O2"
_cell_formula_units_Z 64
_cell_length_a 34.268476
_cell_length_b 9.083135
_cell_length_c 12.150349
_cell_angle_alpha 90.000000
_cell_angle_beta 90.000000
_cell_angle_gamma 90.000000
_cell_volume 3781.980736
_symmetry_space_group_name_H-M "P N M A"
_symmetry_group_IT_number 62
_symmetry_cell_setting 'orthorhombic'
loop_
_space_group_symop_operation_xyz
x,y,z
1/2-x,-y,1/2+z
1/2+x,1/2-y,1/2-z
-x,1/2+y,-z
-x,-y,-z
1/2+x,y,1/2-z
1/2-x,1/2+y,1/2+z
x,1/2-y,z
loop_
_atom_site_type_symbol
_atom_site_label
_atom_site_fract_x
_atom_site_fract_y
_atom_site_fract_z
Si Si1 0.892623 0.923412 0.731544
Si Si2 0.178788 0.073277 0.117748
Si Si3 0.318390 0.574615 0.360105
Si Si4 0.954005 0.073826 0.389353
Si Si5 0.669491 0.075255 0.036331
Si Si6 0.866545 0.073647 0.324044
Si Si7 0.770651 0.074366 0.697082
Si Si8 0.033216 0.574931 0.353579
O O1 0.901525 0.750000 0.738632
O O2 0.863555 0.963602 0.830916
O O3 0.866424 0.946289 0.621817
O O4 0.932323 0.012721 0.721615
O O5 0.184064 0.250000 0.132363
O O6 0.210706 0.991376 0.192016
O O7 0.181248 0.038618 0.989465
O O8 0.325771 0.750000 0.349234
O O9 0.349608 0.485088 0.290066
O O10 0.275195 0.544644 0.313223
O O11 0.958583 0.250000 0.380320
O O12 0.911904 0.032613 0.341784
O O13 0.955514 0.036514 0.519580
O O14 0.990931 0.995679 0.334117
O O15 0.675620 0.250000 0.023089
O O16 0.706333 0.001088 0.096044
O O17 0.658201 0.000337 0.922122
O O18 0.863515 0.250000 0.331989
O O19 0.776721 0.250000 0.692885
O O20 0.031008 0.750000 0.345255
#
# Coordination Sequence:
#
# PCOD9461733 Si02
#       8
#     8   8   8   8   8   8   8   8
#     4   9  17  31  53  77 103 140 177 216 266 317
#     4   9  20  39  57  76 106 145 184 224 269 322
#     4  10  23  40  56  78 108 144 184 224 272 325
#     4   9  19  33  48  74 112 144 175 216 266 323
#     4  10  20  34  54  79 109 144 181 218 268 327
#     4  11  22  36  55  80 111 146 181 224 274 322
#     4  10  21  36  56  82 108 138 179 229 275 316
#     4  10  18  29  50  79 109 141 174 216 267 319
#
# _framework density 16.922349000000001
#
# number of rings (size 3 to 8) (size 9 to 14) (size 15 to 20)
#    0.000    2.250    1.250    2.250    1.750    5.000 
#    0.000    0.000    0.000    0.750    0.000    0.000 
#    0.000    0.000    0.000    0.000    0.000    0.000 
#
# Total GULP energy -357193.227118 kJ/mol
# GULP energy per Si atom -5581.144174 kJ/mol
# Density = 1.688383 g / cm^3
# Si number density = 16.922349 Si / 1000 Ang^3
#
#
#
# Elastic Constant Matrix: (Units=GPa)
#
#
# Indices 1 2 3 4 5 6 
#
# 1 111.2081 54.0093 58.3105 0.0000 0.0000 0.0000
# 2 54.0093 44.7807 42.2471 0.0000 0.0000 0.0000
# 3 58.3105 42.2471 93.0420 0.0000 0.0000 0.0000
# 4 0.0000 0.0000 0.0000 26.3822 0.0000 0.0000
# 5 0.0000 0.0000 0.0000 0.0000 17.1697 0.0000
# 6 0.0000 0.0000 0.0000 0.0000 0.0000 28.3970
#
#
#
# Elastic Compliance Matrix: (Units=1/GPa)
#
#
# Indices 1 2 3 4 5 6 
#
# 1 0.022197 -0.023875 -0.003070 0.000000 0.000000 0.000000
# 2 -0.023875 0.064746 -0.014436 0.000000 0.000000 0.000000
# 3 -0.003070 -0.014436 0.019227 0.000000 0.000000 0.000000
# 4 0.000000 0.000000 0.000000 0.037904 0.000000 0.000000
# 5 0.000000 0.000000 0.000000 0.000000 0.058242 0.000000
# 6 0.000000 0.000000 0.000000 0.000000 0.000000 0.035215
#
#
# Mechanical properties :
#
#
# Convention : Reuss Voigt Hill
#
# Bulk Modulus (GPa) = 42.72233 62.01828 52.37030
# Shear Modulus (GPa) = 15.23942 20.68736 17.96339
#
# Velocity S-wave (km/s) = 3.00417 3.50020 3.26163
# Velocity P-wave (km/s) = 6.11018 7.28447 6.72301
#
# Compressibility (1/GPa) = 0.02340696
#
# Stress axis : x y z
#
# Youngs Moduli (GPa) = 45.05056 15.44507 52.01032
#
# Poissons Ratio (x) = 0.36875 0.15970
# Poissons Ratio (y) = 1.07559 0.75081
# Poissons Ratio (z) = 0.13833 0.22296
#
# Static dielectric constant tensor:
#      x y z
#    x 1.560220 0.000000 0.000000 
#    y 0.000000 1.563090 0.000000 
#    z 0.000000 0.000000 1.555010 
# 
# From -- ./inp_files/15863.got.cif
#   From: 2010.05.17/outbox.cif.g08.bks.cpg/sg62_8_cif.got.tgz:15863.got - 2010.06.03 15:25:27.
