data_PCOD9461755
_publ_section_title
;
Structure prediction by ZEFSAII (Michael W. Deem and Ramdas Pophale) SiO2 
 PCOD9461755
Probable space group: P N M A
;
_chemical_formula_sum "Si O2"
_cell_formula_units_Z 40
_cell_length_a 7.405669
_cell_length_b 19.320838
_cell_length_c 13.329015
_cell_angle_alpha 90.000000
_cell_angle_beta 90.000000
_cell_angle_gamma 90.000000
_cell_volume 1907.165197
_symmetry_space_group_name_H-M "P N M A"
_symmetry_group_IT_number 62
_symmetry_cell_setting 'orthorhombic'
loop_
_space_group_symop_operation_xyz
x,y,z
1/2-x,-y,1/2+z
1/2+x,1/2-y,1/2-z
-x,1/2+y,-z
-x,-y,-z
1/2+x,y,1/2-z
1/2-x,1/2+y,1/2+z
x,1/2-y,z
loop_
_atom_site_type_symbol
_atom_site_label
_atom_site_fract_x
_atom_site_fract_y
_atom_site_fract_z
Si Si1 0.675256 0.393187 0.590067
Si Si2 0.202942 0.250000 0.596434
Si Si3 0.111798 0.536014 0.817633
Si Si4 0.739184 0.606692 0.492913
Si Si5 0.795237 0.463506 0.400205
Si Si6 0.113150 0.250000 0.820690
O O1 0.691963 0.458813 0.664648
O O2 0.466247 0.392376 0.551696
O O3 0.794105 0.410151 0.492148
O O4 0.708686 0.320361 0.642705
O O5 0.174960 0.179817 0.534459
O O6 0.098574 0.250000 0.701187
O O7 0.413657 0.250000 0.631234
O O8 0.101004 0.553421 0.701090
O O9 0.911921 0.534218 0.862727
O O10 0.218950 0.588653 0.889689
O O11 0.833436 0.540238 0.442017
#
# Coordination Sequence:
#
# PCOD9461755 Si02
#       6
#     8   4   8   8   8   4
#     4   8  16  29  45  63  87 115 142 169 210 261
#     4  10  18  30  47  66  86 112 141 174 213 254
#     4   9  16  29  46  64  85 113 144 175 208 249
#     4   8  16  29  45  63  87 115 142 169 210 261
#     4   9  16  29  46  64  85 113 144 175 208 249
#     4  10  18  30  47  66  86 112 141 174 213 254
#
# _framework density 20.973537
#
# number of rings (size 3 to 8) (size 9 to 14) (size 15 to 20)
#    0.000    3.200    0.000    3.600    0.000    0.000 
#    0.000    7.000    0.000    0.000    0.000    0.000 
#    0.000    0.000    0.000    0.000    0.000    0.000 
#
# Total GULP energy -223354.824382 kJ/mol
# GULP energy per Si atom -5583.870610 kJ/mol
# Density = 2.092580 g / cm^3
# Si number density = 20.973537 Si / 1000 Ang^3
#
#
#
# Elastic Constant Matrix: (Units=GPa)
#
#
# Indices 1 2 3 4 5 6 
#
# 1 14.6892 60.0116 99.2559 0.0000 0.0000 0.0000
# 2 60.0116 113.7369 -12.6746 0.0000 0.0000 0.0000
# 3 99.2559 -12.6746 -48.5116 0.0000 0.0000 0.0000
# 4 0.0000 0.0000 0.0000 18.4311 0.0000 0.0000
# 5 0.0000 0.0000 0.0000 0.0000 25.5699 0.0000
# 6 0.0000 0.0000 0.0000 0.0000 0.0000 14.8228
#
#
#
# Elastic Compliance Matrix: (Units=1/GPa)
#
#
# Indices 1 2 3 4 5 6 
#
# 1 0.004811 -0.001401 0.010210 0.000000 0.000000 0.000000
# 2 -0.001401 0.008951 -0.005205 0.000000 0.000000 0.000000
# 3 0.010210 -0.005205 0.001636 0.000000 0.000000 0.000000
# 4 0.000000 0.000000 0.000000 0.054256 0.000000 0.000000
# 5 0.000000 0.000000 0.000000 0.000000 0.039108 0.000000
# 6 0.000000 0.000000 0.000000 0.000000 0.000000 0.067464
#
#
# Mechanical properties :
#
#
# Convention : Reuss Voigt Hill
#
# Bulk Modulus (GPa) = 44.23401 41.45558 42.84479
# Shear Modulus (GPa) = 28.31997 7.31954 17.81975
#
# Velocity S-wave (km/s) = 3.67859 1.87015 2.91800
# Velocity P-wave (km/s) = 6.25930 4.94690 5.64140
#
# Compressibility (1/GPa) = 0.02260704
#
# Stress axis : x y z
#
# Youngs Moduli (GPa) = 207.84668 111.71525 611.28145
#
# Poissons Ratio (x) = 0.15649 -6.24112
# Poissons Ratio (y) = 0.29115 3.18160
# Poissons Ratio (z) = -2.12209 0.58146
#
# Static dielectric constant tensor:
#      x y z
#    x 1.862580 0.000000 0.000000 
#    y 0.000000 1.713350 0.000000 
#    z 0.000000 0.000000 1.756620 
# 
# From -- ./inp_files/5191.got.cif
#   From: 2010.05.17/outbox.cif.g08.bks.cpg/sg62_3_cif.got.tgz:5191.got - 2010.06.03 15:25:27.
