data_PCOD9461756
_publ_section_title
;
Structure prediction by ZEFSAII (Michael W. Deem and Ramdas Pophale) SiO2 
 PCOD9461756
Probable space group: P N M A
;
_chemical_formula_sum "Si O2"
_cell_formula_units_Z 56
_cell_length_a 18.884583
_cell_length_b 8.471668
_cell_length_c 21.472955
_cell_angle_alpha 90.000000
_cell_angle_beta 90.000000
_cell_angle_gamma 90.000000
_cell_volume 3435.327461
_symmetry_space_group_name_H-M "P N M A"
_symmetry_group_IT_number 62
_symmetry_cell_setting 'orthorhombic'
loop_
_space_group_symop_operation_xyz
x,y,z
1/2-x,-y,1/2+z
1/2+x,1/2-y,1/2-z
-x,1/2+y,-z
-x,-y,-z
1/2+x,y,1/2-z
1/2-x,1/2+y,1/2+z
x,1/2-y,z
loop_
_atom_site_type_symbol
_atom_site_label
_atom_site_fract_x
_atom_site_fract_y
_atom_site_fract_z
Si Si1 0.704118 0.436122 0.684770
Si Si2 0.925414 0.063163 0.250907
Si Si3 0.419715 0.440202 0.002431
Si Si4 0.655388 0.061954 0.873493
Si Si5 0.417032 0.439191 0.746381
Si Si6 0.781716 0.563585 0.806062
Si Si7 0.156965 0.557992 0.375925
O O1 0.691194 0.250000 0.677358
O O2 0.630141 0.522325 0.696000
O O3 0.747072 0.466204 0.748960
O O4 0.761252 0.491995 0.633680
O O5 0.930098 0.250000 0.258393
O O6 0.892394 0.991929 0.314528
O O7 0.002428 0.991811 0.239271
O O8 0.419493 0.250000 0.004143
O O9 0.381332 0.505402 0.063523
O O10 0.500000 0.500000 0.000000
O O11 0.378995 0.493058 0.939785
O O12 0.661319 0.250000 0.872222
O O13 0.732878 0.984905 0.863921
O O14 0.411721 0.250000 0.742844
O O15 0.363653 0.515828 0.696348
O O16 0.388584 0.490133 0.815152
O O17 0.773823 0.750000 0.794563
O O18 0.157531 0.750000 0.375303
#
# Coordination Sequence:
#
# PCOD9461756 Si02
#       7
#     8   8   8   8   8   8   8
#     4   9  16  30  48  66  89 123 158 192 235 286
#     4  11  20  30  46  72  98 123 155 198 242 282
#     4  11  21  34  49  70  97 128 164 201 234 276
#     4  11  21  34  48  66  94 131 166 198 236 284
#     4  10  18  31  49  71  97 127 156 190 236 289
#     4  10  18  30  47  69  93 121 156 198 239 280
#     4   8  17  31  48  66  90 123 160 193 228 273
#
# _framework density 16.301210999999999
#
# number of rings (size 3 to 8) (size 9 to 14) (size 15 to 20)
#    0.000    2.000    0.000    8.571    0.000    1.143 
#    0.000    7.857    0.000    0.000    0.000    1.000 
#    0.000    0.000    0.000    0.000    0.000    0.000 
#
# Total GULP energy -312296.190936 kJ/mol
# GULP energy per Si atom -5576.717695 kJ/mol
# Density = 1.626411 g / cm^3
# Si number density = 16.301211 Si / 1000 Ang^3
#
#
#
# Elastic Constant Matrix: (Units=GPa)
#
#
# Indices 1 2 3 4 5 6 
#
# 1 146.7092 23.6445 62.0998 0.0000 0.0000 0.0000
# 2 23.6445 63.9040 16.6713 0.0000 0.0000 0.0000
# 3 62.0998 16.6713 72.4155 0.0000 0.0000 0.0000
# 4 0.0000 0.0000 0.0000 18.0062 0.0000 0.0000
# 5 0.0000 0.0000 0.0000 0.0000 28.7975 0.0000
# 6 0.0000 0.0000 0.0000 0.0000 0.0000 24.1468
#
#
#
# Elastic Compliance Matrix: (Units=1/GPa)
#
#
# Indices 1 2 3 4 5 6 
#
# 1 0.010869 -0.001692 -0.008932 0.000000 0.000000 0.000000
# 2 -0.001692 0.016912 -0.002443 0.000000 0.000000 0.000000
# 3 -0.008932 -0.002443 0.022031 0.000000 0.000000 0.000000
# 4 0.000000 0.000000 0.000000 0.055536 0.000000 0.000000
# 5 0.000000 0.000000 0.000000 0.000000 0.034725 0.000000
# 6 0.000000 0.000000 0.000000 0.000000 0.000000 0.041413
#
#
# Mechanical properties :
#
#
# Convention : Reuss Voigt Hill
#
# Bulk Modulus (GPa) = 42.22969 54.20666 48.21818
# Shear Modulus (GPa) = 23.20053 26.23096 24.71574
#
# Velocity S-wave (km/s) = 3.77668 4.01576 3.89805
# Velocity P-wave (km/s) = 6.70670 7.40454 7.06424
#
# Compressibility (1/GPa) = 0.02368002
#
# Stress axis : x y z
#
# Youngs Moduli (GPa) = 92.00075 59.13088 45.39084
#
# Poissons Ratio (x) = 0.10003 0.40542
# Poissons Ratio (y) = 0.15563 0.11088
# Poissons Ratio (z) = 0.82172 0.14444
#
# Static dielectric constant tensor:
#      x y z
#    x 1.549690 0.000000 0.000000 
#    y 0.000000 1.544680 0.000000 
#    z 0.000000 0.000000 1.538350 
# 
# From -- ./inp_files/27514.got.cif
#   From: 2010.05.17/outbox.cif.g08.bks.cpg/sg62_14_cif.got.tgz:27514.got - 2010.06.03 15:25:27.
