data_PCOD9461963
_publ_section_title
;
Structure prediction by ZEFSAII (Michael W. Deem and Ramdas Pophale) SiO2 
 PCOD9461963
Probable space group: P N M A
;
_chemical_formula_sum "Si O2"
_cell_formula_units_Z 56
_cell_length_a 4.991832
_cell_length_b 24.644779
_cell_length_c 19.060183
_cell_angle_alpha 90.000000
_cell_angle_beta 90.000000
_cell_angle_gamma 90.000000
_cell_volume 2344.833201
_symmetry_space_group_name_H-M "P N M A"
_symmetry_group_IT_number 62
_symmetry_cell_setting 'orthorhombic'
loop_
_space_group_symop_operation_xyz
x,y,z
1/2-x,-y,1/2+z
1/2+x,1/2-y,1/2-z
-x,1/2+y,-z
-x,-y,-z
1/2+x,y,1/2-z
1/2-x,1/2+y,1/2+z
x,1/2-y,z
loop_
_atom_site_type_symbol
_atom_site_label
_atom_site_fract_x
_atom_site_fract_y
_atom_site_fract_z
Si Si1 0.320863 0.844537 0.080293
Si Si2 0.752530 0.463784 0.913636
Si Si3 0.136120 0.964951 0.295080
Si Si4 0.628641 0.559371 0.573300
Si Si5 0.501152 0.750000 0.480664
Si Si6 0.902137 0.131749 0.429722
Si Si7 0.508248 0.750000 0.926377
Si Si8 0.165478 0.666113 0.290618
O O1 0.191904 0.901235 0.107355
O O2 0.522777 0.819766 0.136810
O O3 0.090813 0.803006 0.060421
O O4 0.482101 0.859572 0.009018
O O5 0.476827 0.475964 0.873430
O O6 0.966854 0.509191 0.893981
O O7 0.762486 0.462103 0.997857
O O8 0.899168 0.984451 0.244110
O O9 0.163824 0.899529 0.292047
O O10 0.389424 0.604418 0.564678
O O11 0.881079 0.591317 0.605366
O O12 0.197565 0.750000 0.504394
O O13 0.698673 0.750000 0.549456
O O14 0.916177 0.191426 0.394576
O O15 0.961581 0.684059 0.229080
#
# Coordination Sequence:
#
# PCOD9461963 Si02
#       8
#     8   8   8   8   4   8   4   8
#     4   9  19  33  49  65  89 121 159 201 239 283
#     4   9  19  33  50  70  99 129 158 197 244 288
#     4   9  18  30  46  66  88 122 163 196 231 279
#     4  10  21  32  48  74 100 127 158 194 239 290
#     4  10  20  32  48  67  84 116 164 201 234 278
#     4  10  20  33  49  71  94 123 158 189 230 283
#     4  10  18  32  50  67  92 122 152 189 224 272
#     4   9  18  30  44  62  83 111 152 199 246 285
#
# _framework density 23.882297999999999
#
# number of rings (size 3 to 8) (size 9 to 14) (size 15 to 20)
#    0.000    2.571    0.000    2.571    0.000   16.571 
#    0.000    0.714    0.000    0.000    0.000    0.000 
#    0.000    0.000    0.000   12.857    0.000    4.857 
#
# Total GULP energy -312827.713332 kJ/mol
# GULP energy per Si atom -5586.209167 kJ/mol
# Density = 2.382794 g / cm^3
# Si number density = 23.882298 Si / 1000 Ang^3
#
#
#
# Elastic Constant Matrix: (Units=GPa)
#
#
# Indices 1 2 3 4 5 6 
#
# 1 121.7137 30.4230 9.2057 0.0000 0.0000 0.0000
# 2 30.4230 133.1586 1.5969 0.0000 0.0000 0.0000
# 3 9.2057 1.5969 23.7280 0.0000 0.0000 0.0000
# 4 0.0000 0.0000 0.0000 8.5828 0.0000 0.0000
# 5 0.0000 0.0000 0.0000 0.0000 29.7972 0.0000
# 6 0.0000 0.0000 0.0000 0.0000 0.0000 25.3171
#
#
#
# Elastic Compliance Matrix: (Units=1/GPa)
#
#
# Indices 1 2 3 4 5 6 
#
# 1 0.008971 -0.002010 -0.003345 0.000000 0.000000 0.000000
# 2 -0.002010 0.007966 0.000244 0.000000 0.000000 0.000000
# 3 -0.003345 0.000244 0.043426 0.000000 0.000000 0.000000
# 4 0.000000 0.000000 0.000000 0.116512 0.000000 0.000000
# 5 0.000000 0.000000 0.000000 0.000000 0.033560 0.000000
# 6 0.000000 0.000000 0.000000 0.000000 0.000000 0.039499
#
#
# Mechanical properties :
#
#
# Convention : Reuss Voigt Hill
#
# Bulk Modulus (GPa) = 19.94398 40.11683 30.03040
# Shear Modulus (GPa) = 18.05897 28.56442 23.31169
#
# Velocity S-wave (km/s) = 2.75283 3.46215 3.12766
# Velocity P-wave (km/s) = 4.29804 5.72854 5.06406
#
# Compressibility (1/GPa) = 0.05014046
#
# Stress axis : x y z
#
# Youngs Moduli (GPa) = 111.46626 125.53271 23.02777
#
# Poissons Ratio (x) = 0.25227 0.07704
# Poissons Ratio (y) = 0.22400 -0.00561
# Poissons Ratio (z) = 0.37289 -0.03057
#
# Static dielectric constant tensor:
#      x y z
#    x 1.932960 0.000000 0.000000 
#    y 0.000000 2.035290 0.000000 
#    z 0.000000 0.000000 1.972390 
# 
# From -- ./inp_files/28439.got.cif
#   From: 2010.05.17/outbox.cif.g08.bks.cpg/sg62_15_cif.got.tgz:28439.got - 2010.06.03 15:25:27.
