data_PCOD9461162
_publ_section_title
;
Structure prediction by ZEFSAII (Michael W. Deem and Ramdas Pophale) SiO2 
 PCOD9461162
Probable space group: P B C A
;
_chemical_formula_sum "Si O2"
_cell_formula_units_Z 40
_cell_length_a 9.788236
_cell_length_b 12.203106
_cell_length_c 13.544181
_cell_angle_alpha 90.000000
_cell_angle_beta 90.000000
_cell_angle_gamma 90.000000
_cell_volume 1617.810182
_symmetry_space_group_name_H-M "P B C A"
_symmetry_group_IT_number 61
_symmetry_cell_setting 'orthorhombic'
loop_
_space_group_symop_operation_xyz
x,y,z
1/2-x,-y,1/2+z
1/2+x,1/2-y,-z
-x,1/2+y,1/2-z
-x,-y,-z
1/2+x,y,1/2-z
1/2-x,1/2+y,z
x,1/2-y,1/2+z
loop_
_atom_site_type_symbol
_atom_site_label
_atom_site_fract_x
_atom_site_fract_y
_atom_site_fract_z
Si Si1 0.050654 0.161299 0.716207
Si Si2 0.629574 0.025223 0.127672
Si Si3 0.836995 0.695042 0.980691
Si Si4 0.113400 0.638534 0.370087
Si Si5 0.617916 0.092886 0.570810
O O1 0.167340 0.161508 0.632482
O O2 0.102697 0.158304 0.826511
O O3 0.966150 0.050486 0.691854
O O4 0.961735 0.270014 0.693138
O O5 0.725460 0.945940 0.061904
O O6 0.572966 0.111972 0.048336
O O7 0.749461 0.090655 0.187364
O O8 0.691315 0.688998 0.034365
O O9 0.901612 0.814840 0.989178
O O10 0.045087 0.523479 0.406079
#
# Coordination Sequence:
#
# PCOD9461162 Si02
#       5
#     8   8   8   8   8
#     4  12  19  37  65  80 112 171 191 225 325 345
#     4   8  19  40  54  82 117 145 191 259 264 354
#     4   9  20  38  58  85 120 149 194 247 290 345
#     4   8  20  38  57  82 120 144 193 257 270 347
#     4   9  21  38  55  88 121 148 199 252 282 349
#
# _framework density 24.724779999999999
#
# number of rings (size 3 to 8) (size 9 to 14) (size 15 to 20)
#    2.400    0.000    2.000    0.600    2.800    0.800 
#    3.600    8.000    0.000    0.000    0.000    0.000 
#    0.000    0.000    0.000    0.000    0.000    0.000 
#
# Total GULP energy -222671.782865 kJ/mol
# GULP energy per Si atom -5566.794572 kJ/mol
# Density = 2.466850 g / cm^3
# Si number density = 24.724780 Si / 1000 Ang^3
#
#
#
# Elastic Constant Matrix: (Units=GPa)
#
#
# Indices 1 2 3 4 5 6 
#
# 1 36.0793 27.8339 -7.3537 0.0000 0.0000 0.0000
# 2 27.8339 135.5516 28.0570 0.0000 0.0000 0.0000
# 3 -7.3537 28.0570 27.1361 0.0000 0.0000 0.0000
# 4 0.0000 0.0000 0.0000 17.7232 0.0000 0.0000
# 5 0.0000 0.0000 0.0000 0.0000 18.0226 0.0000
# 6 0.0000 0.0000 0.0000 0.0000 0.0000 32.5987
#
#
#
# Elastic Compliance Matrix: (Units=1/GPa)
#
#
# Indices 1 2 3 4 5 6 
#
# 1 0.044844 -0.014916 0.027574 0.000000 0.000000 0.000000
# 2 -0.014916 0.014347 -0.018876 0.000000 0.000000 0.000000
# 3 0.027574 -0.018876 0.063840 0.000000 0.000000 0.000000
# 4 0.000000 0.000000 0.000000 0.056423 0.000000 0.000000
# 5 0.000000 0.000000 0.000000 0.000000 0.055486 0.000000
# 6 0.000000 0.000000 0.000000 0.000000 0.000000 0.030676
#
#
# Mechanical properties :
#
#
# Convention : Reuss Voigt Hill
#
# Bulk Modulus (GPa) = 9.04190 32.87128 20.95659
# Shear Modulus (GPa) = 15.87723 23.68420 19.78072
#
# Velocity S-wave (km/s) = 2.53683 3.09838 2.83156
# Velocity P-wave (km/s) = 3.49938 5.11113 4.38003
#
# Compressibility (1/GPa) = 0.11059622
#
# Stress axis : x y z
#
# Youngs Moduli (GPa) = 22.29965 69.70087 15.66411
#
# Poissons Ratio (x) = 1.03963 -0.43192
# Poissons Ratio (y) = 0.33261 0.29567
# Poissons Ratio (z) = -0.61489 1.31567
#
# Static dielectric constant tensor:
#      x y z
#    x 2.059360 0.000000 0.000000 
#    y 0.000000 2.063470 0.000000 
#    z 0.000000 0.000000 1.958170 
# 
# From -- ./inp_files/7353.got.cif
#   From: 2010.05.17/outbox.cif.g08.bks.cpg/sg61_4_cif.got.tgz:7353.got - 2010.06.03 15:17:17.
