data_PCOD9461395
_publ_section_title
;
Structure prediction by ZEFSAII (Michael W. Deem and Ramdas Pophale) SiO2 
 PCOD9461395
Probable space group: P N M A
;
_chemical_formula_sum "Si O2"
_cell_formula_units_Z 56
_cell_length_a 18.308623
_cell_length_b 8.962233
_cell_length_c 22.631340
_cell_angle_alpha 90.000000
_cell_angle_beta 90.000000
_cell_angle_gamma 90.000000
_cell_volume 3713.489342
_symmetry_space_group_name_H-M "P N M A"
_symmetry_group_IT_number 62
_symmetry_cell_setting 'orthorhombic'
loop_
_space_group_symop_operation_xyz
x,y,z
1/2-x,-y,1/2+z
1/2+x,1/2-y,1/2-z
-x,1/2+y,-z
-x,-y,-z
1/2+x,y,1/2-z
1/2-x,1/2+y,1/2+z
x,1/2-y,z
loop_
_atom_site_type_symbol
_atom_site_label
_atom_site_fract_x
_atom_site_fract_y
_atom_site_fract_z
Si Si1 0.770313 0.923195 0.816699
Si Si2 0.375879 0.930875 0.849473
Si Si3 0.281720 0.422634 0.320620
Si Si4 0.912793 0.429532 0.778005
Si Si5 0.576026 0.071597 0.714765
Si Si6 0.006240 0.570373 0.435509
Si Si7 0.874821 0.571405 0.347106
O O1 0.781308 0.750000 0.830906
O O2 0.744070 0.932240 0.748034
O O3 0.846252 0.011859 0.817822
O O4 0.703446 0.993078 0.852905
O O5 0.379961 0.750000 0.847381
O O6 0.290198 0.973610 0.855852
O O7 0.402603 0.997744 0.786827
O O8 0.426375 0.998144 0.900148
O O9 0.294767 0.250000 0.334394
O O10 0.357848 0.508209 0.323896
O O11 0.909265 0.250000 0.772193
O O12 0.993411 0.472497 0.800642
O O13 0.579721 0.250000 0.712718
O O14 0.591182 0.027458 0.783272
O O15 0.013954 0.750000 0.437904
O O16 0.933241 0.536380 0.397554
O O17 0.000000 0.500000 0.500000
O O18 0.864027 0.750000 0.345701
#
# Coordination Sequence:
#
# PCOD9461395 Si02
#       7
#     8   8   8   8   8   8   8
#     4   9  17  27  40  62  85 112 148 181 219 265
#     4  10  19  31  45  62  85 116 151 188 227 265
#     4   8  16  27  39  59  84 111 144 178 217 262
#     4  10  17  27  42  63  90 120 150 181 218 265
#     4   9  16  26  41  62  86 115 149 178 213 262
#     4  11  22  35  49  67  88 116 155 193 231 269
#     4   9  17  31  45  59  83 115 149 184 223 265
#
# _framework density 15.080157
#
# number of rings (size 3 to 8) (size 9 to 14) (size 15 to 20)
#    0.000    2.571    1.429    2.571    0.000    6.286 
#    0.000    0.000    0.000    0.000    0.000    0.000 
#    0.000    1.143    0.000    3.714    0.000    4.571 
#
# Total GULP energy -311894.919274 kJ/mol
# GULP energy per Si atom -5569.552130 kJ/mol
# Density = 1.504583 g / cm^3
# Si number density = 15.080157 Si / 1000 Ang^3
#
#
#
# Elastic Constant Matrix: (Units=GPa)
#
#
# Indices 1 2 3 4 5 6 
#
# 1 173.2250 66.5208 43.2551 0.0000 0.0000 0.0000
# 2 66.5208 56.9226 25.3912 0.0000 0.0000 0.0000
# 3 43.2551 25.3912 45.0090 0.0000 0.0000 0.0000
# 4 0.0000 0.0000 0.0000 15.4980 0.0000 0.0000
# 5 0.0000 0.0000 0.0000 0.0000 12.8670 0.0000
# 6 0.0000 0.0000 0.0000 0.0000 0.0000 23.4919
#
#
#
# Elastic Compliance Matrix: (Units=1/GPa)
#
#
# Indices 1 2 3 4 5 6 
#
# 1 0.011110 -0.010985 -0.004480 0.000000 0.000000 0.000000
# 2 -0.010985 0.034336 -0.008814 0.000000 0.000000 0.000000
# 3 -0.004480 -0.008814 0.031495 0.000000 0.000000 0.000000
# 4 0.000000 0.000000 0.000000 0.064524 0.000000 0.000000
# 5 0.000000 0.000000 0.000000 0.000000 0.077718 0.000000
# 6 0.000000 0.000000 0.000000 0.000000 0.000000 0.042568
#
#
# Mechanical properties :
#
#
# Convention : Reuss Voigt Hill
#
# Bulk Modulus (GPa) = 35.23038 60.61008 47.92023
# Shear Modulus (GPa) = 15.63627 19.70403 17.67015
#
# Velocity S-wave (km/s) = 3.22355 3.61864 3.42679
# Velocity P-wave (km/s) = 6.10474 7.59859 6.89226
#
# Compressibility (1/GPa) = 0.02838460
#
# Stress axis : x y z
#
# Youngs Moduli (GPa) = 90.01058 29.12391 31.75084
#
# Poissons Ratio (x) = 0.31992 0.14224
# Poissons Ratio (y) = 0.98874 0.27984
# Poissons Ratio (z) = 0.40325 0.25668
#
# Static dielectric constant tensor:
#      x y z
#    x 1.528510 0.000000 0.000000 
#    y 0.000000 1.509230 0.000000 
#    z 0.000000 0.000000 1.464480 
# 
# From -- ./inp_files/27548.got.cif
#   From: 2010.05.17/outbox.cif.g08.bks.cpg/sg62_14_cif.got.tgz:27548.got - 2010.06.03 15:25:27.
