data_PCOD9461131
_publ_section_title
;
Structure prediction by ZEFSAII (Michael W. Deem and Ramdas Pophale) SiO2 
 PCOD9461131
Probable space group: P B C A
;
_chemical_formula_sum "Si O2"
_cell_formula_units_Z 32
_cell_length_a 7.427710
_cell_length_b 18.441553
_cell_length_c 8.024969
_cell_angle_alpha 90.000000
_cell_angle_beta 90.000000
_cell_angle_gamma 90.000000
_cell_volume 1099.248277
_symmetry_space_group_name_H-M "P B C A"
_symmetry_group_IT_number 61
_symmetry_cell_setting 'orthorhombic'
loop_
_space_group_symop_operation_xyz
x,y,z
1/2-x,-y,1/2+z
1/2+x,1/2-y,-z
-x,1/2+y,1/2-z
-x,-y,-z
1/2+x,y,1/2-z
1/2-x,1/2+y,z
x,1/2-y,1/2+z
loop_
_atom_site_type_symbol
_atom_site_label
_atom_site_fract_x
_atom_site_fract_y
_atom_site_fract_z
Si Si1 0.043422 0.173905 0.201145
Si Si2 0.224590 0.442437 0.516961
Si Si3 0.677477 0.776346 0.422189
Si Si4 0.602826 0.084790 0.838010
O O1 0.186816 0.210529 0.079513
O O2 0.991587 0.231626 0.343846
O O3 0.121844 0.092930 0.179132
O O4 0.860930 0.183640 0.095040
O O5 0.092630 0.437480 0.357276
O O6 0.287088 0.521752 0.570754
O O7 0.416103 0.408822 0.443792
O O8 0.783181 0.840896 0.330332
#
# Coordination Sequence:
#
# PCOD9461131 Si02
#       4
#     8   8   8   8
#     4  12  26  45  70 103 141 191 244 305 370 442
#     4  11  26  45  73 106 147 194 246 304 374 445
#     4  12  25  44  70 101 144 188 243 303 368 440
#     4  11  25  48  73 108 150 194 245 309 372 448
#
# _framework density 29.110803000000001
#
# number of rings (size 3 to 8) (size 9 to 14) (size 15 to 20)
#    0.000    0.500    0.000    9.000    0.000   12.000 
#    0.000    0.000    0.000    0.000    0.000    0.000 
#    0.000    0.000    0.000    0.000    0.000    0.000 
#
# Total GULP energy -178510.593211 kJ/mol
# GULP energy per Si atom -5578.456038 kJ/mol
# Density = 2.904455 g / cm^3
# Si number density = 29.110803 Si / 1000 Ang^3
#
#
#
# Elastic Constant Matrix: (Units=GPa)
#
#
# Indices 1 2 3 4 5 6 
#
# 1 129.8410 44.6050 18.8855 0.0000 0.0000 0.0000
# 2 44.6050 130.6458 16.8002 0.0000 0.0000 0.0000
# 3 18.8855 16.8002 114.6842 0.0000 0.0000 0.0000
# 4 0.0000 0.0000 0.0000 52.1748 0.0000 0.0000
# 5 0.0000 0.0000 0.0000 0.0000 42.8531 0.0000
# 6 0.0000 0.0000 0.0000 0.0000 0.0000 65.4516
#
#
#
# Elastic Compliance Matrix: (Units=1/GPa)
#
#
# Indices 1 2 3 4 5 6 
#
# 1 0.008844 -0.002886 -0.001033 0.000000 0.000000 0.000000
# 2 -0.002886 0.008743 -0.000805 0.000000 0.000000 0.000000
# 3 -0.001033 -0.000805 0.009008 0.000000 0.000000 0.000000
# 4 0.000000 0.000000 0.000000 0.019166 0.000000 0.000000
# 5 0.000000 0.000000 0.000000 0.000000 0.023336 0.000000
# 6 0.000000 0.000000 0.000000 0.000000 0.000000 0.015278
#
#
# Mechanical properties :
#
#
# Convention : Reuss Voigt Hill
#
# Bulk Modulus (GPa) = 58.32985 59.52804 58.92894
# Shear Modulus (GPa) = 50.23070 51.75458 50.99264
#
# Velocity S-wave (km/s) = 4.15842 4.22103 4.18984
# Velocity P-wave (km/s) = 6.56790 6.65201 6.61009
#
# Compressibility (1/GPa) = 0.01714388
#
# Stress axis : x y z
#
# Youngs Moduli (GPa) = 113.07538 114.37241 111.01510
#
# Poissons Ratio (x) = 0.33014 0.11473
# Poissons Ratio (y) = 0.32639 0.08942
# Poissons Ratio (z) = 0.11686 0.09213
#
# Static dielectric constant tensor:
#      x y z
#    x 2.434250 0.000000 0.000000 
#    y 0.000000 2.233050 0.000000 
#    z 0.000000 0.000000 2.462660 
# 
# From -- ./inp_files/1666.got.cif
#   From: 2010.05.17/outbox.cif.g08.bks.cpg/sg61_1_cif.got.tgz:1666.got - 2010.06.03 15:17:17.
