data_PCOD9461188
_publ_section_title
;
Structure prediction by ZEFSAII (Michael W. Deem and Ramdas Pophale) SiO2 
 PCOD9461188
Probable space group: P B C A
;
_chemical_formula_sum "Si O2"
_cell_formula_units_Z 64
_cell_length_a 23.380294
_cell_length_b 9.651489
_cell_length_c 13.876958
_cell_angle_alpha 90.000000
_cell_angle_beta 90.000000
_cell_angle_gamma 90.000000
_cell_volume 3131.400106
_symmetry_space_group_name_H-M "P B C A"
_symmetry_group_IT_number 61
_symmetry_cell_setting 'orthorhombic'
loop_
_space_group_symop_operation_xyz
x,y,z
1/2-x,-y,1/2+z
1/2+x,1/2-y,-z
-x,1/2+y,1/2-z
-x,-y,-z
1/2+x,y,1/2-z
1/2-x,1/2+y,z
x,1/2-y,1/2+z
loop_
_atom_site_type_symbol
_atom_site_label
_atom_site_fract_x
_atom_site_fract_y
_atom_site_fract_z
Si Si1 0.495021 0.821980 0.154444
Si Si2 0.382426 0.371774 0.434391
Si Si3 0.311263 0.559295 0.744162
Si Si4 0.877946 0.576461 0.556829
Si Si5 0.883962 0.145497 0.910571
Si Si6 0.496292 0.511413 0.848406
Si Si7 0.304590 0.231136 0.764636
Si Si8 0.120864 0.363068 0.049371
O O1 0.557673 0.868312 0.121346
O O2 0.497431 0.654392 0.166886
O O3 0.481020 0.905820 0.251227
O O4 0.446156 0.861216 0.078171
O O5 0.392833 0.288049 0.532992
O O6 0.335144 0.300940 0.366563
O O7 0.366096 0.524555 0.467541
O O8 0.349461 0.583964 0.838963
O O9 0.298223 0.394886 0.745498
O O10 0.254707 0.650775 0.755611
O O11 0.343889 0.602800 0.646235
O O12 0.854845 0.453704 0.489503
O O13 0.944899 0.543005 0.577577
O O14 0.868003 0.713987 0.496076
O O15 0.846732 0.171034 0.816853
O O16 0.943657 0.075201 0.881812
#
# Coordination Sequence:
#
# PCOD9461188 Si02
#       8
#     8   8   8   8   8   8   8   8
#     4  12  25  43  72 109 148 189 231 289 356 428
#     4  12  26  47  73 106 143 189 232 290 359 424
#     4  12  29  51  72 104 143 185 245 302 352 417
#     4  12  26  48  75 106 148 188 236 292 355 428
#     4  12  24  47  75 102 145 189 231 283 365 423
#     4  12  25  42  74 107 150 188 228 290 360 425
#     4  12  29  49  75 103 141 189 243 301 352 416
#     4  12  28  46  74 110 143 188 237 292 356 431
#
# _framework density 20.438143
#
# number of rings (size 3 to 8) (size 9 to 14) (size 15 to 20)
#    0.000    0.000    7.500    1.500    7.000    2.000 
#    0.000    0.000    0.000    0.000    0.000    0.000 
#    0.000    0.000    0.000    0.000    0.000    0.000 
#
# Total GULP energy -358101.261484 kJ/mol
# GULP energy per Si atom -5595.332211 kJ/mol
# Density = 2.039162 g / cm^3
# Si number density = 20.438143 Si / 1000 Ang^3
#
#
#
# Elastic Constant Matrix: (Units=GPa)
#
#
# Indices 1 2 3 4 5 6 
#
# 1 158.8801 63.3466 -29.7792 0.0000 0.0000 0.0000
# 2 63.3466 109.7761 -22.5952 0.0000 0.0000 0.0000
# 3 -29.7792 -22.5952 85.7158 0.0000 0.0000 0.0000
# 4 0.0000 0.0000 0.0000 48.3512 0.0000 0.0000
# 5 0.0000 0.0000 0.0000 0.0000 -5.5781 0.0000
# 6 0.0000 0.0000 0.0000 0.0000 0.0000 9.8409
#
#
#
# Elastic Compliance Matrix: (Units=1/GPa)
#
#
# Indices 1 2 3 4 5 6 
#
# 1 0.008413 -0.004497 0.001737 0.000000 0.000000 0.000000
# 2 -0.004497 0.012036 0.001610 0.000000 0.000000 0.000000
# 3 0.001737 0.001610 0.012695 0.000000 0.000000 0.000000
# 4 0.000000 0.000000 0.000000 0.020682 0.000000 0.000000
# 5 0.000000 0.000000 0.000000 0.000000 -0.179274 0.000000
# 6 0.000000 0.000000 0.000000 0.000000 0.000000 0.101617
#
#
# Mechanical properties :
#
#
# Convention : Reuss Voigt Hill
#
# Bulk Modulus (GPa) = 32.42064 41.81295 37.11679
# Shear Modulus (GPa) = -444.36602 33.41612 -205.47495
#
# Velocity S-wave (km/s) = -14.76116 4.04789 -10.03759
# Velocity P-wave (km/s) = 16.57182 6.50768 10.77672
#
# Compressibility (1/GPa) = 0.03084455
#
# Stress axis : x y z
#
# Youngs Moduli (GPa) = 118.86881 83.08483 78.77401
#
# Poissons Ratio (x) = 0.37363 -0.13685
# Poissons Ratio (y) = 0.53455 -0.12686
# Poissons Ratio (z) = -0.20651 -0.13380
#
# Static dielectric constant tensor:
#      x y z
#    x 1.485190 0.000000 0.000000 
#    y 0.000000 1.699340 0.000000 
#    z 0.000000 0.000000 1.751140 
# 
# From -- ./inp_files/8512.got.cif
#   From: 2010.05.17/outbox.cif.g08.bks.cpg/sg61_5_cif.got.tgz:8512.got - 2010.06.03 15:17:17.
