data_PCOD9461793
_publ_section_title
;
Structure prediction by ZEFSAII (Michael W. Deem and Ramdas Pophale) SiO2 
 PCOD9461793
Probable space group: P N M A
;
_chemical_formula_sum "Si O2"
_cell_formula_units_Z 48
_cell_length_a 15.574890
_cell_length_b 7.576024
_cell_length_c 20.446829
_cell_angle_alpha 90.000000
_cell_angle_beta 90.000000
_cell_angle_gamma 90.000000
_cell_volume 2412.638727
_symmetry_space_group_name_H-M "P N M A"
_symmetry_group_IT_number 62
_symmetry_cell_setting 'orthorhombic'
loop_
_space_group_symop_operation_xyz
x,y,z
1/2-x,-y,1/2+z
1/2+x,1/2-y,1/2-z
-x,1/2+y,-z
-x,-y,-z
1/2+x,y,1/2-z
1/2-x,1/2+y,1/2+z
x,1/2-y,z
loop_
_atom_site_type_symbol
_atom_site_label
_atom_site_fract_x
_atom_site_fract_y
_atom_site_fract_z
Si Si1 0.611457 0.456872 0.191109
Si Si2 0.986165 0.466644 0.196254
Si Si3 0.731057 0.459263 0.511174
Si Si4 0.565545 0.462030 0.441213
Si Si5 0.917156 0.039780 0.542859
Si Si6 0.299366 0.036212 0.338118
O O1 0.620137 0.250000 0.206920
O O2 0.544210 0.529147 0.243470
O O3 0.577846 0.471319 0.116941
O O4 0.708694 0.530418 0.190450
O O5 0.984701 0.250000 0.196835
O O6 0.028594 0.524512 0.127819
O O7 0.886665 0.522826 0.196548
O O8 0.736475 0.250000 0.498522
O O9 0.659156 0.531820 0.462284
O O10 0.828305 0.530006 0.511052
O O11 0.698275 0.485092 0.585450
O O12 0.500000 0.500000 0.500000
O O13 0.571655 0.250000 0.436038
O O14 0.908563 0.250000 0.548282
O O15 0.000000 0.000000 0.500000
O O16 0.297239 0.250000 0.336444
#
# Coordination Sequence:
#
# PCOD9461793 Si02
#       6
#     8   8   8   8   8   8
#     4   9  18  33  51  73  99 132 170 208 250 299
#     4   9  17  30  48  73 101 129 166 208 247 295
#     4   9  18  31  49  74 100 129 164 206 253 298
#     4  10  18  30  49  75 103 130 163 205 251 301
#     4  10  20  36  55  76 100 131 170 211 254 304
#     4   9  16  29  50  71  93 130 169 203 246 296
#
# _framework density 19.895229
#
# number of rings (size 3 to 8) (size 9 to 14) (size 15 to 20)
#    0.000    2.667    1.667    0.500    0.000    0.667 
#    3.000    1.667    0.000    0.000    0.000    0.000 
#    0.000    0.000    0.000    0.000    0.000    0.000 
#
# Total GULP energy -267692.191885 kJ/mol
# GULP energy per Si atom -5576.920664 kJ/mol
# Density = 1.984995 g / cm^3
# Si number density = 19.895229 Si / 1000 Ang^3
#
#
#
# Elastic Constant Matrix: (Units=GPa)
#
#
# Indices 1 2 3 4 5 6 
#
# 1 200.6339 -5.2620 105.4209 0.0000 0.0000 0.0000
# 2 -5.2620 40.9544 -10.4764 0.0000 0.0000 0.0000
# 3 105.4209 -10.4764 98.6420 0.0000 0.0000 0.0000
# 4 0.0000 0.0000 0.0000 17.4726 0.0000 0.0000
# 5 0.0000 0.0000 0.0000 0.0000 38.2853 0.0000
# 6 0.0000 0.0000 0.0000 0.0000 0.0000 5.8167
#
#
#
# Elastic Compliance Matrix: (Units=1/GPa)
#
#
# Indices 1 2 3 4 5 6 
#
# 1 0.011483 -0.001710 -0.012454 0.000000 0.000000 0.000000
# 2 -0.001710 0.025354 0.004521 0.000000 0.000000 0.000000
# 3 -0.012454 0.004521 0.023928 0.000000 0.000000 0.000000
# 4 0.000000 0.000000 0.000000 0.057233 0.000000 0.000000
# 5 0.000000 0.000000 0.000000 0.000000 0.026120 0.000000
# 6 0.000000 0.000000 0.000000 0.000000 0.000000 0.171920
#
#
# Mechanical properties :
#
#
# Convention : Reuss Voigt Hill
#
# Bulk Modulus (GPa) = 24.10942 57.73281 40.92111
# Shear Modulus (GPa) = 14.32051 29.01809 21.66930
#
# Velocity S-wave (km/s) = 2.68581 3.82323 3.30384
# Velocity P-wave (km/s) = 4.66504 6.96928 5.93016
#
# Compressibility (1/GPa) = 0.04147756
#
# Stress axis : x y z
#
# Youngs Moduli (GPa) = 87.08434 39.44138 41.79278
#
# Poissons Ratio (x) = 0.06746 0.52048
# Poissons Ratio (y) = 0.14895 -0.18893
# Poissons Ratio (z) = 1.08454 -0.17830
#
# Static dielectric constant tensor:
#      x y z
#    x 1.723510 0.000000 0.000000 
#    y 0.000000 1.707160 0.000000 
#    z 0.000000 0.000000 1.635050 
# 
# From -- ./inp_files/23861.got.cif
#   From: 2010.05.17/outbox.cif.g08.bks.cpg/sg62_12_cif.got.tgz:23861.got - 2010.06.03 15:25:27.
