data_PCOD9461420
_publ_section_title
;
Structure prediction by ZEFSAII (Michael W. Deem and Ramdas Pophale) SiO2 
 PCOD9461420
Probable space group: P N M A
;
_chemical_formula_sum "Si O2"
_cell_formula_units_Z 52
_cell_length_a 17.013371
_cell_length_b 7.666718
_cell_length_c 14.317823
_cell_angle_alpha 90.000000
_cell_angle_beta 90.000000
_cell_angle_gamma 90.000000
_cell_volume 1867.569837
_symmetry_space_group_name_H-M "P N M A"
_symmetry_group_IT_number 62
_symmetry_cell_setting 'orthorhombic'
loop_
_space_group_symop_operation_xyz
x,y,z
1/2-x,-y,1/2+z
1/2+x,1/2-y,1/2-z
-x,1/2+y,-z
-x,-y,-z
1/2+x,y,1/2-z
1/2-x,1/2+y,1/2+z
x,1/2-y,z
loop_
_atom_site_type_symbol
_atom_site_label
_atom_site_fract_x
_atom_site_fract_y
_atom_site_fract_z
Si Si1 0.101825 0.437312 0.308720
Si Si2 0.471783 0.750000 0.636583
Si Si3 0.904060 0.950863 0.076775
Si Si4 0.295991 0.959078 0.257040
Si Si5 0.067212 0.041847 0.615070
Si Si6 0.813496 0.439949 0.528861
Si Si7 0.818663 0.449103 0.899376
O O1 0.127634 0.250000 0.347715
O O2 0.166723 0.553794 0.360982
O O3 0.075591 0.401458 0.202425
O O4 0.017974 0.484804 0.353114
O O5 0.531435 0.596379 0.595080
O O6 0.927164 0.750000 0.100761
O O7 0.827149 0.999285 0.139080
O O8 0.877502 0.948525 0.968587
O O9 0.291000 0.750000 0.249842
O O10 0.372641 0.013589 0.196724
O O11 0.222646 0.026161 0.194741
O O12 0.068581 0.250000 0.605622
O O13 0.102380 0.957365 0.522405
O O14 0.847400 0.250000 0.881028
O O15 0.757589 0.564276 0.469047
O O16 0.721171 0.750000 0.009663
#
# Coordination Sequence:
#
# PCOD9461420 Si02
#       7
#     8   4   8   8   8   8   8
#     4  10  19  30  43  63  91 128 171 206 248 299
#     4  10  22  34  52  70  98 138 172 218 256 308
#     4  11  20  36  55  76 102 140 176 218 260 306
#     4   8  16  30  49  71 101 135 173 213 254 300
#     4  10  17  28  44  63  93 134 172 210 246 297
#     4  11  21  30  43  66  99 133 172 210 251 308
#     4  10  20  35  53  74 103 142 173 212 262 309
#
# _framework density 27.843672000000002
#
# number of rings (size 3 to 8) (size 9 to 14) (size 15 to 20)
#    0.462    1.538    2.308    4.154    0.000    0.615 
#    1.385    0.000    0.000    0.000    0.000    0.000 
#    0.000    1.231    1.231    0.154    0.000    0.154 
#
# Total GULP energy -289808.172824 kJ/mol
# GULP energy per Si atom -5573.234093 kJ/mol
# Density = 2.778030 g / cm^3
# Si number density = 27.843672 Si / 1000 Ang^3
#
#
#
# Elastic Constant Matrix: (Units=GPa)
#
#
# Indices 1 2 3 4 5 6 
#
# 1 94.7284 0.6132 41.2834 0.0000 0.0000 0.0000
# 2 0.6132 119.9667 -7.1508 0.0000 0.0000 0.0000
# 3 41.2834 -7.1508 206.7878 0.0000 0.0000 0.0000
# 4 0.0000 0.0000 0.0000 31.1985 0.0000 0.0000
# 5 0.0000 0.0000 0.0000 0.0000 -8.0174 0.0000
# 6 0.0000 0.0000 0.0000 0.0000 0.0000 53.7748
#
#
#
# Elastic Compliance Matrix: (Units=1/GPa)
#
#
# Indices 1 2 3 4 5 6 
#
# 1 0.011567 -0.000197 -0.002316 0.000000 0.000000 0.000000
# 2 -0.000197 0.008356 0.000328 0.000000 0.000000 0.000000
# 3 -0.002316 0.000328 0.005310 0.000000 0.000000 0.000000
# 4 0.000000 0.000000 0.000000 0.032053 0.000000 0.000000
# 5 0.000000 0.000000 0.000000 0.000000 -0.124729 0.000000
# 6 0.000000 0.000000 0.000000 0.000000 0.000000 0.018596
#
#
# Mechanical properties :
#
#
# Convention : Reuss Voigt Hill
#
# Bulk Modulus (GPa) = 47.93156 54.55274 51.24215
# Shear Modulus (GPa) = -133.25086 41.17366 -46.03860
#
# Velocity S-wave (km/s) = -6.92536 3.84962 -4.07070
# Velocity P-wave (km/s) = 6.83342 6.27650 1.91066
#
# Compressibility (1/GPa) = 0.02086308
#
# Stress axis : x y z
#
# Youngs Moduli (GPa) = 86.45178 119.67130 188.33752
#
# Poissons Ratio (x) = 0.02360 0.43621
# Poissons Ratio (y) = 0.01705 -0.06184
# Poissons Ratio (z) = 0.20023 -0.03929
#
# Static dielectric constant tensor:
#      x y z
#    x 2.250830 0.000000 0.000000 
#    y 0.000000 1.825880 0.000000 
#    z 0.000000 0.000000 8.635150 
# 
# From -- ./inp_files/20604.got.cif
#   From: 2010.05.17/outbox.cif.g08.bks.cpg/sg62_11_cif.got.tgz:20604.got - 2010.06.03 15:25:27.
