data_PCOD9461288
_publ_section_title
;
Structure prediction by ZEFSAII (Michael W. Deem and Ramdas Pophale) SiO2 
 PCOD9461288
Probable space group: P B C A
;
_chemical_formula_sum "Si O2"
_cell_formula_units_Z 64
_cell_length_a 12.000000
_cell_length_b 30.000000
_cell_length_c 9.000000
_cell_angle_alpha 90.000000
_cell_angle_beta 90.000000
_cell_angle_gamma 90.000000
_cell_volume 3240.000000
_symmetry_space_group_name_H-M "P B C A"
_symmetry_group_IT_number 61
_symmetry_cell_setting 'orthorhombic'
loop_
_space_group_symop_operation_xyz
x,y,z
1/2-x,-y,1/2+z
1/2+x,1/2-y,-z
-x,1/2+y,1/2-z
-x,-y,-z
1/2+x,y,1/2-z
1/2-x,1/2+y,z
x,1/2-y,1/2+z
loop_
_atom_site_type_symbol
_atom_site_label
_atom_site_fract_x
_atom_site_fract_y
_atom_site_fract_z
Si Si1 0.729341 0.053907 0.158916
Si Si2 0.934484 0.791398 0.924660
Si Si3 0.428397 0.028682 0.875191
Si Si4 0.199999 0.799362 0.472919
Si Si5 0.450923 0.614163 0.215216
Si Si6 0.545817 0.548901 0.966730
Si Si7 0.429568 0.235172 0.693148
Si Si8 0.655365 0.603961 0.418776
O O1 0.628977 0.090328 0.162493
O O2 0.777595 0.067910 0.319678
O O3 0.673171 0.005401 0.158059
O O4 0.827231 0.055169 0.033770
O O5 0.913648 0.837772 0.840448
O O6 0.978431 0.756293 0.803689
O O7 0.820421 0.777677 0.003160
O O8 0.021919 0.795632 0.061092
O O9 0.467479 0.046987 0.712659
O O10 0.396979 0.073744 0.956147
O O11 0.500000 0.000000 0.000000
O O12 0.152902 0.789090 0.308876
O O13 0.124994 0.775609 0.599510
O O14 0.206283 0.852144 0.506332
O O15 0.566647 0.621078 0.299159
O O16 0.474032 0.582940 0.070247
O O17 0.500000 0.500000 0.000000
#
# Coordination Sequence:
#
# PCOD9461288 Si02
#       8
#     8   8   8   8   8   8   8   8
#     4  11  22  43  63  92 127 176 217 265 340 393
#     4  11  22  42  69  94 133 174 213 277 341 407
#     4  12  23  41  65  92 131 173 223 280 326 391
#     4  11  22  42  66  97 129 172 220 275 340 409
#     4  11  22  42  63  95 128 176 215 272 336 400
#     4  11  24  41  63  91 129 169 223 270 326 393
#     4  10  24  41  67  98 131 168 222 275 343 409
#     4  11  23  40  65  93 133 170 222 277 330 398
#
# _framework density 19.753086
#
# number of rings (size 3 to 8) (size 9 to 14) (size 15 to 20)
#    0.000    1.000    5.000    2.250    1.750    0.000 
#    0.000    1.250    0.000    0.000    0.000    0.000 
#    0.000    0.000    0.000    0.000    0.000    0.000 
#
# Total GULP energy -356305.149970 kJ/mol
# GULP energy per Si atom -5567.267968 kJ/mol
# Density = 1.970813 g / cm^3
# Si number density = 19.753086 Si / 1000 Ang^3
#
#
#
# Elastic Constant Matrix: (Units=GPa)
#
#
# Indices 1 2 3 4 5 6 
#
# 1 47.7034 -0.3420 2.1541 0.0000 0.0000 0.0000
# 2 -0.3420 61.4307 10.5659 0.0000 0.0000 0.0000
# 3 2.1541 10.5659 85.8563 0.0000 0.0000 0.0000
# 4 0.0000 0.0000 0.0000 20.6850 0.0000 0.0000
# 5 0.0000 0.0000 0.0000 0.0000 30.5744 0.0000
# 6 0.0000 0.0000 0.0000 0.0000 0.0000 13.7311
#
#
#
# Elastic Compliance Matrix: (Units=1/GPa)
#
#
# Indices 1 2 3 4 5 6 
#
# 1 0.020989 0.000212 -0.000553 0.000000 0.000000 0.000000
# 2 0.000212 0.016633 -0.002052 0.000000 0.000000 0.000000
# 3 -0.000553 -0.002052 0.011914 0.000000 0.000000 0.000000
# 4 0.000000 0.000000 0.000000 0.048344 0.000000 0.000000
# 5 0.000000 0.000000 0.000000 0.000000 0.032707 0.000000
# 6 0.000000 0.000000 0.000000 0.000000 0.000000 0.072827
#
#
# Mechanical properties :
#
#
# Convention : Reuss Voigt Hill
#
# Bulk Modulus (GPa) = 22.34647 24.41627 23.38137
# Shear Modulus (GPa) = 22.40975 25.17225 23.79100
#
# Velocity S-wave (km/s) = 3.37188 3.57367 3.47424
# Velocity P-wave (km/s) = 5.14751 5.42363 5.28737
#
# Compressibility (1/GPa) = 0.04474979
#
# Stress axis : x y z
#
# Youngs Moduli (GPa) = 47.64327 60.12271 83.93633
#
# Poissons Ratio (x) = -0.01274 0.04639
# Poissons Ratio (y) = -0.01010 0.17226
# Poissons Ratio (z) = 0.02633 0.12338
#
# Static dielectric constant tensor:
#      x y z
#    x 1.968840 0.000000 0.000000 
#    y 0.000000 1.661540 0.000000 
#    z 0.000000 0.000000 1.704750 
# 
# From -- ./inp_files/2466.got.cif
#   From: 2010.05.17/outbox.ucp.g08.bks.cvg/sg61_2_cif.got.tgz:2466.got - 2010.06.11 16:28:26.
