data_PCOD9461855
_publ_section_title
;
Structure prediction by ZEFSAII (Michael W. Deem and Ramdas Pophale) SiO2 
 PCOD9461855
Probable space group: P N M A
;
_chemical_formula_sum "Si O2"
_cell_formula_units_Z 64
_cell_length_a 8.381232
_cell_length_b 14.604567
_cell_length_c 27.049880
_cell_angle_alpha 90.000000
_cell_angle_beta 90.000000
_cell_angle_gamma 90.000000
_cell_volume 3311.020660
_symmetry_space_group_name_H-M "P N M A"
_symmetry_group_IT_number 62
_symmetry_cell_setting 'orthorhombic'
loop_
_space_group_symop_operation_xyz
x,y,z
1/2-x,-y,1/2+z
1/2+x,1/2-y,1/2-z
-x,1/2+y,-z
-x,-y,-z
1/2+x,y,1/2-z
1/2-x,1/2+y,1/2+z
x,1/2-y,z
loop_
_atom_site_type_symbol
_atom_site_label
_atom_site_fract_x
_atom_site_fract_y
_atom_site_fract_z
Si Si1 0.086520 0.910281 0.476691
Si Si2 0.985222 0.643417 0.726815
Si Si3 0.213979 0.051184 0.413623
Si Si4 0.302071 0.854927 0.091311
Si Si5 0.360114 0.143979 0.324498
Si Si6 0.185852 0.354845 0.060302
Si Si7 0.619044 0.641649 0.502192
Si Si8 0.870737 0.037189 0.360184
O O1 0.169287 0.858226 0.521143
O O2 0.960411 0.857335 0.443186
O O3 0.219840 0.952423 0.439618
O O4 0.000000 0.000000 0.500000
O O5 0.036462 0.750000 0.720307
O O6 0.003771 0.622725 0.784754
O O7 0.094820 0.577538 0.693617
O O8 0.805405 0.637489 0.706656
O O9 0.337913 0.077895 0.370949
O O10 0.241495 0.121869 0.458313
O O11 0.038544 0.055094 0.389294
O O12 0.271455 0.750000 0.106605
O O13 0.330127 0.929914 0.133727
O O14 0.168622 0.890690 0.052250
O O15 0.373887 0.250000 0.341230
O O16 0.150409 0.250000 0.073411
O O17 0.238373 0.408171 0.108940
O O18 0.037284 0.395297 0.029573
O O19 0.597835 0.750000 0.496565
#
# Coordination Sequence:
#
# PCOD9461855 Si02
#       8
#     8   8   8   8   8   8   8   8
#     4  11  18  33  48  71  95 132 170 205 242 288
#     4   9  18  32  49  70  97 124 154 198 246 298
#     4  10  18  31  48  68  94 129 166 202 238 293
#     4  10  19  33  50  69  96 129 166 207 246 292
#     4   9  18  31  48  69  95 126 157 195 245 298
#     4  11  21  31  46  70 102 133 165 203 244 291
#     4  10  20  30  43  69 101 133 162 195 242 290
#     4  10  19  33  50  72  93 125 170 204 245 291
#
# _framework density 19.329388000000002
#
# number of rings (size 3 to 8) (size 9 to 14) (size 15 to 20)
#    0.000    2.000    3.750    1.125    0.000    5.500 
#    0.000    2.500    0.000    0.000    0.000    8.750 
#    0.000    0.000    0.000    0.000    0.000    0.000 
#
# Total GULP energy -357015.388230 kJ/mol
# GULP energy per Si atom -5578.365441 kJ/mol
# Density = 1.928539 g / cm^3
# Si number density = 19.329388 Si / 1000 Ang^3
#
#
#
# Elastic Constant Matrix: (Units=GPa)
#
#
# Indices 1 2 3 4 5 6 
#
# 1 40.6779 5.6008 -0.6500 0.0000 0.0000 0.0000
# 2 5.6008 56.1332 16.4514 0.0000 0.0000 0.0000
# 3 -0.6500 16.4514 53.5217 0.0000 0.0000 0.0000
# 4 0.0000 0.0000 0.0000 19.4456 0.0000 0.0000
# 5 0.0000 0.0000 0.0000 0.0000 31.4739 0.0000
# 6 0.0000 0.0000 0.0000 0.0000 0.0000 14.6849
#
#
#
# Elastic Compliance Matrix: (Units=1/GPa)
#
#
# Indices 1 2 3 4 5 6 
#
# 1 0.024993 -0.002838 0.001176 0.000000 0.000000 0.000000
# 2 -0.002838 0.019901 -0.006152 0.000000 0.000000 0.000000
# 3 0.001176 -0.006152 0.020589 0.000000 0.000000 0.000000
# 4 0.000000 0.000000 0.000000 0.051425 0.000000 0.000000
# 5 0.000000 0.000000 0.000000 0.000000 0.031772 0.000000
# 6 0.000000 0.000000 0.000000 0.000000 0.000000 0.068097
#
#
# Mechanical properties :
#
#
# Convention : Reuss Voigt Hill
#
# Bulk Modulus (GPa) = 20.05814 21.45968 20.75891
# Shear Modulus (GPa) = 20.07835 21.71625 20.89730
#
# Velocity S-wave (km/s) = 3.22646 3.35548 3.29160
# Velocity P-wave (km/s) = 4.92743 5.11258 5.02086
#
# Compressibility (1/GPa) = 0.04985508
#
# Stress axis : x y z
#
# Youngs Moduli (GPa) = 40.01125 50.24910 48.56927
#
# Poissons Ratio (x) = 0.14263 -0.05712
# Poissons Ratio (y) = 0.11357 0.29878
# Poissons Ratio (z) = -0.04705 0.30911
#
# Static dielectric constant tensor:
#      x y z
#    x 1.768230 0.000000 0.000000 
#    y 0.000000 1.670320 0.000000 
#    z 0.000000 0.000000 1.679160 
# 
# From -- ./inp_files/32309.got.cif
#   From: 2010.05.17/outbox.cif.g08.bks.cpg/sg62_17_cif.got.tgz:32309.got - 2010.06.03 15:25:27.
