data_PCOD9461637
_publ_section_title
;
Structure prediction by ZEFSAII (Michael W. Deem and Ramdas Pophale) SiO2 
 PCOD9461637
Probable space group: P N M A
;
_chemical_formula_sum "Si O2"
_cell_formula_units_Z 64
_cell_length_a 17.660941
_cell_length_b 7.469548
_cell_length_c 22.536185
_cell_angle_alpha 90.000000
_cell_angle_beta 90.000000
_cell_angle_gamma 90.000000
_cell_volume 2972.956545
_symmetry_space_group_name_H-M "P N M A"
_symmetry_group_IT_number 62
_symmetry_cell_setting 'orthorhombic'
loop_
_space_group_symop_operation_xyz
x,y,z
1/2-x,-y,1/2+z
1/2+x,1/2-y,1/2-z
-x,1/2+y,-z
-x,-y,-z
1/2+x,y,1/2-z
1/2-x,1/2+y,1/2+z
x,1/2-y,z
loop_
_atom_site_type_symbol
_atom_site_label
_atom_site_fract_x
_atom_site_fract_y
_atom_site_fract_z
Si Si1 0.396847 0.545118 0.943814
Si Si2 0.040153 0.031323 0.121530
Si Si3 0.717343 0.965254 0.882714
Si Si4 0.870282 0.042315 0.112617
Si Si5 0.662966 0.468126 0.285147
Si Si6 0.786895 0.970550 0.656583
Si Si7 0.060074 0.040505 0.572461
Si Si8 0.161125 0.033427 0.022960
O O1 0.373630 0.750000 0.954563
O O2 0.334949 0.466140 0.900096
O O3 0.479341 0.543531 0.912736
O O4 0.411222 0.464523 0.008852
O O5 0.039317 0.250000 0.120224
O O6 0.087435 0.976845 0.179721
O O7 0.089929 0.978458 0.064134
O O8 0.954293 0.964967 0.119701
O O9 0.719248 0.750000 0.883135
O O10 0.766468 0.024330 0.826421
O O11 0.763478 0.024975 0.941573
O O12 0.630366 0.020115 0.883897
O O13 0.876715 0.250000 0.130055
O O14 0.799686 0.968736 0.149629
O O15 0.847094 0.033806 0.043492
O O16 0.662550 0.250000 0.284856
O O17 0.674958 0.526926 0.218032
O O18 0.787586 0.750000 0.655715
O O19 0.044160 0.250000 0.564613
O O20 0.161888 0.250000 0.020561
#
# Coordination Sequence:
#
# PCOD9461637 Si02
#       8
#     8   8   8   8   8   8   8   8
#     4   9  18  32  48  69  98 128 157 196 243 290
#     4   8  15  28  45  67  97 128 156 191 234 278
#     4   9  17  30  49  71  96 126 162 198 232 281
#     4  10  18  28  46  74 100 120 152 199 239 277
#     4   8  15  30  48  68  96 126 158 198 239 277
#     4   9  17  30  47  70  98 123 156 202 243 277
#     4  10  19  31  49  73 100 125 156 199 244 287
#     4   9  17  29  46  69  99 132 157 184 231 288
#
# _framework density 21.527391999999999
#
# number of rings (size 3 to 8) (size 9 to 14) (size 15 to 20)
#    0.000    3.000    0.000    3.000    0.000    2.000 
#    2.250    0.625    0.000    2.250    0.000    0.000 
#    0.000    0.000    0.000    0.000    0.000    0.000 
#
# Total GULP energy -357163.245349 kJ/mol
# GULP energy per Si atom -5580.675709 kJ/mol
# Density = 2.147839 g / cm^3
# Si number density = 21.527392 Si / 1000 Ang^3
#
#
#
# Elastic Constant Matrix: (Units=GPa)
#
#
# Indices 1 2 3 4 5 6 
#
# 1 94.2942 -6.2563 11.1452 0.0000 0.0000 0.0000
# 2 -6.2563 63.5024 -3.5260 0.0000 0.0000 0.0000
# 3 11.1452 -3.5260 50.2723 0.0000 0.0000 0.0000
# 4 0.0000 0.0000 0.0000 2.9217 0.0000 0.0000
# 5 0.0000 0.0000 0.0000 0.0000 12.4338 0.0000
# 6 0.0000 0.0000 0.0000 0.0000 0.0000 2.8222
#
#
#
# Elastic Compliance Matrix: (Units=1/GPa)
#
#
# Indices 1 2 3 4 5 6 
#
# 1 0.010947 0.000947 -0.002360 0.000000 0.000000 0.000000
# 2 0.000947 0.015891 0.000905 0.000000 0.000000 0.000000
# 3 -0.002360 0.000905 0.020478 0.000000 0.000000 0.000000
# 4 0.000000 0.000000 0.000000 0.342266 0.000000 0.000000
# 5 0.000000 0.000000 0.000000 0.000000 0.080426 0.000000
# 6 0.000000 0.000000 0.000000 0.000000 0.000000 0.354334
#
#
# Mechanical properties :
#
#
# Convention : Reuss Voigt Hill
#
# Bulk Modulus (GPa) = 21.59854 23.42162 22.51008
# Shear Modulus (GPa) = 5.94677 17.41594 11.68135
#
# Velocity S-wave (km/s) = 1.66386 2.84740 2.33196
# Velocity P-wave (km/s) = 3.70757 4.65981 4.21069
#
# Compressibility (1/GPa) = 0.04629942
#
# Stress axis : x y z
#
# Youngs Moduli (GPa) = 91.34951 62.92872 48.83190
#
# Poissons Ratio (x) = -0.05962 0.11527
# Poissons Ratio (y) = -0.08655 -0.04417
# Poissons Ratio (z) = 0.21563 -0.05692
#
# Static dielectric constant tensor:
#      x y z
#    x 1.784080 0.000000 0.000000 
#    y 0.000000 1.841560 0.000000 
#    z 0.000000 0.000000 1.746440 
# 
# From -- ./inp_files/30070.got.cif
#   From: 2010.05.17/outbox.cif.g08.bks.cpg/sg62_16_cif.got.tgz:30070.got - 2010.06.03 15:25:27.
