data_PCOD9461752
_publ_section_title
;
Structure prediction by ZEFSAII (Michael W. Deem and Ramdas Pophale) SiO2 
 PCOD9461752
Probable space group: P N M A
;
_chemical_formula_sum "Si O2"
_cell_formula_units_Z 64
_cell_length_a 15.186781
_cell_length_b 7.457532
_cell_length_c 31.388631
_cell_angle_alpha 90.000000
_cell_angle_beta 90.000000
_cell_angle_gamma 90.000000
_cell_volume 3554.947820
_symmetry_space_group_name_H-M "P N M A"
_symmetry_group_IT_number 62
_symmetry_cell_setting 'orthorhombic'
loop_
_space_group_symop_operation_xyz
x,y,z
1/2-x,-y,1/2+z
1/2+x,1/2-y,1/2-z
-x,1/2+y,-z
-x,-y,-z
1/2+x,y,1/2-z
1/2-x,1/2+y,1/2+z
x,1/2-y,z
loop_
_atom_site_type_symbol
_atom_site_label
_atom_site_fract_x
_atom_site_fract_y
_atom_site_fract_z
Si Si1 0.683322 0.457131 0.367456
Si Si2 0.301985 0.470818 0.209581
Si Si3 0.599003 0.032556 0.451477
Si Si4 0.106667 0.037668 0.952983
Si Si5 0.809023 0.961570 0.707636
Si Si6 0.673829 0.033662 0.634710
Si Si7 0.999522 0.043933 0.280113
Si Si8 0.505088 0.966656 0.318588
O O1 0.708989 0.250000 0.373791
O O2 0.752021 0.531583 0.333134
O O3 0.663278 0.534385 0.414224
O O4 0.589204 0.465663 0.344055
O O5 0.301839 0.250000 0.210681
O O6 0.248654 0.530093 0.252085
O O7 0.403175 0.532824 0.209855
O O8 0.602372 0.250000 0.451452
O O9 0.619696 0.966182 0.499205
O O10 0.497037 0.985179 0.442250
O O11 0.123066 0.250000 0.955546
O O12 0.164675 0.967301 0.913825
O O13 0.819892 0.750000 0.716324
O O14 0.907877 0.037564 0.704555
O O15 0.755344 0.981546 0.664075
O O16 0.672546 0.250000 0.633345
O O17 0.585143 0.976430 0.659052
O O18 0.996390 0.250000 0.295337
O O19 0.006934 0.038209 0.229087
O O20 0.508202 0.750000 0.317573
#
# Coordination Sequence:
#
# PCOD9461752 Si02
#       8
#     8   8   8   8   8   8   8   8
#     4  10  18  30  46  67  90 118 153 181 216 261
#     4   9  17  29  46  65  87 113 143 183 221 256
#     4   9  17  27  45  67  88 116 149 183 215 263
#     4   9  17  30  43  62  92 120 145 178 223 264
#     4  10  19  30  47  66  84 113 152 185 217 260
#     4  10  20  31  43  62  92 123 149 179 219 262
#     4  10  19  33  47  62  87 118 148 185 224 256
#     4  11  20  28  42  65  91 121 149 179 215 256
#
# _framework density 18.003077000000001
#
# number of rings (size 3 to 8) (size 9 to 14) (size 15 to 20)
#    0.000    2.250    3.750    0.375    0.000    1.500 
#    0.000    0.625    0.000    0.000    0.000    0.875 
#    0.000    0.000    0.000    0.000    0.000    0.000 
#
# Total GULP energy -356909.849981 kJ/mol
# GULP energy per Si atom -5576.716406 kJ/mol
# Density = 1.796210 g / cm^3
# Si number density = 18.003077 Si / 1000 Ang^3
#
#
#
# Elastic Constant Matrix: (Units=GPa)
#
#
# Indices 1 2 3 4 5 6 
#
# 1 126.0980 1.0887 70.6386 0.0000 0.0000 0.0000
# 2 1.0887 52.9066 -3.6389 0.0000 0.0000 0.0000
# 3 70.6386 -3.6389 142.4044 0.0000 0.0000 0.0000
# 4 0.0000 0.0000 0.0000 -6.2592 0.0000 0.0000
# 5 0.0000 0.0000 0.0000 0.0000 19.9371 0.0000
# 6 0.0000 0.0000 0.0000 0.0000 0.0000 2.1687
#
#
#
# Elastic Compliance Matrix: (Units=1/GPa)
#
#
# Indices 1 2 3 4 5 6 
#
# 1 0.011001 -0.000603 -0.005472 0.000000 0.000000 0.000000
# 2 -0.000603 0.018968 0.000784 0.000000 0.000000 0.000000
# 3 -0.005472 0.000784 0.009757 0.000000 0.000000 0.000000
# 4 0.000000 0.000000 0.000000 -0.159764 0.000000 0.000000
# 5 0.000000 0.000000 0.000000 0.000000 0.050158 0.000000
# 6 0.000000 0.000000 0.000000 0.000000 0.000000 0.461099
#
#
# Mechanical properties :
#
#
# Convention : Reuss Voigt Hill
#
# Bulk Modulus (GPa) = 34.31420 50.84287 42.57854
# Shear Modulus (GPa) = 12.15020 20.05737 16.10378
#
# Velocity S-wave (km/s) = 2.60069 3.34145 2.99407
# Velocity P-wave (km/s) = 5.30280 6.57187 5.97115
#
# Compressibility (1/GPa) = 0.02914246
#
# Stress axis : x y z
#
# Youngs Moduli (GPa) = 90.89966 52.72170 102.49220
#
# Poissons Ratio (x) = 0.03178 0.56088
# Poissons Ratio (y) = 0.05479 -0.08032
# Poissons Ratio (z) = 0.49744 -0.04132
#
# Static dielectric constant tensor:
#      x y z
#    x 1.613840 0.000000 0.000000 
#    y 0.000000 1.681260 0.000000 
#    z 0.000000 0.000000 1.633730 
# 
# From -- ./inp_files/32721.got.cif
#   From: 2010.05.17/outbox.cif.g08.bks.cpg/sg62_17_cif.got.tgz:32721.got - 2010.06.03 15:25:27.
