data_PCOD9461991
_publ_section_title
;
Structure prediction by ZEFSAII (Michael W. Deem and Ramdas Pophale) SiO2 
 PCOD9461991
Probable space group: P N M A
;
_chemical_formula_sum "Si O2"
_cell_formula_units_Z 64
_cell_length_a 12.300284
_cell_length_b 8.701284
_cell_length_c 30.048105
_cell_angle_alpha 90.000000
_cell_angle_beta 90.000000
_cell_angle_gamma 90.000000
_cell_volume 3215.996526
_symmetry_space_group_name_H-M "P N M A"
_symmetry_group_IT_number 62
_symmetry_cell_setting 'orthorhombic'
loop_
_space_group_symop_operation_xyz
x,y,z
1/2-x,-y,1/2+z
1/2+x,1/2-y,1/2-z
-x,1/2+y,-z
-x,-y,-z
1/2+x,y,1/2-z
1/2-x,1/2+y,1/2+z
x,1/2-y,z
loop_
_atom_site_type_symbol
_atom_site_label
_atom_site_fract_x
_atom_site_fract_y
_atom_site_fract_z
Si Si1 0.734855 0.432875 0.978058
Si Si2 0.474664 0.065627 0.276352
Si Si3 0.467452 0.435800 0.816332
Si Si4 0.451822 0.571545 0.562483
Si Si5 0.344931 0.571178 0.657372
Si Si6 0.723297 0.435583 0.666412
Si Si7 0.634559 0.065559 0.887959
Si Si8 0.811694 0.566563 0.063843
O O1 0.725421 0.250000 0.982218
O O2 0.854760 0.476996 0.959875
O O3 0.655554 0.490349 0.938428
O O4 0.728218 0.508310 0.026462
O O5 0.475010 0.250000 0.276534
O O6 0.586658 0.013163 0.300608
O O7 0.472753 0.002750 0.226558
O O8 0.373331 0.007179 0.305072
O O9 0.471858 0.250000 0.814611
O O10 0.341713 0.482493 0.816130
O O11 0.527755 0.485669 0.861639
O O12 0.445779 0.750000 0.548419
O O13 0.426921 0.565382 0.615265
O O14 0.569700 0.503275 0.553698
O O15 0.315349 0.750000 0.664304
O O16 0.238037 0.481947 0.642086
O O17 0.714617 0.250000 0.668916
O O18 0.716060 0.478474 0.614343
O O19 0.632467 0.250000 0.890614
O O20 0.817665 0.750000 0.061709
#
# Coordination Sequence:
#
# PCOD9461991 Si02
#       8
#     8   8   8   8   8   8   8   8
#     4  10  20  34  54  82 114 152 194 239 292 347
#     4  11  23  39  60  89 120 150 188 239 297 354
#     4  10  23  43  63  85 114 153 200 245 290 342
#     4  10  18  32  52  78 114 153 187 231 284 339
#     4   9  19  34  54  82 116 149 182 229 287 341
#     4  10  23  42  63  86 117 156 198 242 288 349
#     4   9  20  38  60  83 112 151 197 242 282 339
#     4  11  21  34  54  82 114 152 194 239 290 344
#
# _framework density 19.900517000000001
#
# number of rings (size 3 to 8) (size 9 to 14) (size 15 to 20)
#    0.000    2.000    1.250    1.875    1.750    3.500 
#    0.000    0.625    0.000    0.000    0.000    0.000 
#    0.000    0.000    0.000    0.000    0.000    0.000 
#
# Total GULP energy -357368.292821 kJ/mol
# GULP energy per Si atom -5583.879575 kJ/mol
# Density = 1.985522 g / cm^3
# Si number density = 19.900517 Si / 1000 Ang^3
#
#
#
# Elastic Constant Matrix: (Units=GPa)
#
#
# Indices 1 2 3 4 5 6 
#
# 1 39.4765 1.6743 13.7850 0.0000 0.0000 0.0000
# 2 1.6743 14.7402 6.4740 0.0000 0.0000 0.0000
# 3 13.7850 6.4740 88.2475 0.0000 0.0000 0.0000
# 4 0.0000 0.0000 0.0000 26.7961 0.0000 0.0000
# 5 0.0000 0.0000 0.0000 0.0000 14.8678 0.0000
# 6 0.0000 0.0000 0.0000 0.0000 0.0000 10.2011
#
#
#
# Elastic Compliance Matrix: (Units=1/GPa)
#
#
# Indices 1 2 3 4 5 6 
#
# 1 0.026815 -0.001246 -0.004097 0.000000 0.000000 0.000000
# 2 -0.001246 0.070158 -0.004952 0.000000 0.000000 0.000000
# 3 -0.004097 -0.004952 0.012335 0.000000 0.000000 0.000000
# 4 0.000000 0.000000 0.000000 0.037319 0.000000 0.000000
# 5 0.000000 0.000000 0.000000 0.000000 0.067259 0.000000
# 6 0.000000 0.000000 0.000000 0.000000 0.000000 0.098029
#
#
# Mechanical properties :
#
#
# Convention : Reuss Voigt Hill
#
# Bulk Modulus (GPa) = 11.27182 20.70341 15.98761
# Shear Modulus (GPa) = 13.80912 18.40839 16.10875
#
# Velocity S-wave (km/s) = 2.63707 3.04471 2.84819
# Velocity P-wave (km/s) = 3.86634 4.77351 4.34367
#
# Compressibility (1/GPa) = 0.08871686
#
# Stress axis : x y z
#
# Youngs Moduli (GPa) = 37.29238 14.25347 81.06941
#
# Poissons Ratio (x) = 0.01776 0.33217
# Poissons Ratio (y) = 0.04648 0.40148
# Poissons Ratio (z) = 0.15280 0.07059
#
# Static dielectric constant tensor:
#      x y z
#    x 1.677420 0.000000 0.000000 
#    y 0.000000 1.672530 0.000000 
#    z 0.000000 0.000000 1.733880 
# 
# From -- ./inp_files/32493.got.cif
#   From: 2010.05.17/outbox.cif.g08.bks.cpg/sg62_17_cif.got.tgz:32493.got - 2010.06.03 15:25:27.
