data_PCOD9461431
_publ_section_title
;
Structure prediction by ZEFSAII (Michael W. Deem and Ramdas Pophale) SiO2 
 PCOD9461431
Probable space group: P N M A
;
_chemical_formula_sum "Si O2"
_cell_formula_units_Z 40
_cell_length_a 21.480478
_cell_length_b 8.494938
_cell_length_c 13.094601
_cell_angle_alpha 90.000000
_cell_angle_beta 90.000000
_cell_angle_gamma 90.000000
_cell_volume 2389.441623
_symmetry_space_group_name_H-M "P N M A"
_symmetry_group_IT_number 62
_symmetry_cell_setting 'orthorhombic'
loop_
_space_group_symop_operation_xyz
x,y,z
1/2-x,-y,1/2+z
1/2+x,1/2-y,1/2-z
-x,1/2+y,-z
-x,-y,-z
1/2+x,y,1/2-z
1/2-x,1/2+y,1/2+z
x,1/2-y,z
loop_
_atom_site_type_symbol
_atom_site_label
_atom_site_fract_x
_atom_site_fract_y
_atom_site_fract_z
Si Si1 0.196110 0.938627 0.611712
Si Si2 0.299916 0.441140 0.886581
Si Si3 0.166822 0.941008 0.166389
Si Si4 0.569817 0.561968 0.504401
Si Si5 0.660274 0.061855 0.675501
O O1 0.191945 0.750000 0.617051
O O2 0.177627 0.993293 0.497870
O O3 0.268043 0.989272 0.626808
O O4 0.158802 0.010326 0.706574
O O5 0.299280 0.250000 0.888732
O O6 0.337973 0.487666 0.785602
O O7 0.228135 0.491155 0.867376
O O8 0.171635 0.750000 0.162389
O O9 0.110935 0.991628 0.093160
O O10 0.500000 0.500000 0.500000
O O11 0.568536 0.750000 0.502735
O O12 0.606426 0.506744 0.605079
O O13 0.658634 0.250000 0.669795
#
# Coordination Sequence:
#
# PCOD9461431 Si02
#       5
#     8   8   8   8   8
#     4  10  17  28  49  76 103 130 160 201 252 303
#     4   8  15  28  48  72 101 130 156 199 253 298
#     4   9  18  32  48  71 101 133 167 204 250 304
#     4  11  22  35  53  74 101 136 175 213 253 302
#     4  10  19  33  49  71 103 135 169 207 252 299
#
# _framework density 16.740313
#
# number of rings (size 3 to 8) (size 9 to 14) (size 15 to 20)
#    0.000    2.400    2.000    3.000    0.000    0.800 
#    0.000    1.000    0.000    1.200    0.000    0.000 
#    0.000    0.000    0.000    0.000    0.000    0.000 
#
# Total GULP energy -222964.052634 kJ/mol
# GULP energy per Si atom -5574.101316 kJ/mol
# Density = 1.670221 g / cm^3
# Si number density = 16.740313 Si / 1000 Ang^3
#
#
#
# Elastic Constant Matrix: (Units=GPa)
#
#
# Indices 1 2 3 4 5 6 
#
# 1 92.3628 22.7519 68.3751 0.0000 0.0000 0.0000
# 2 22.7519 29.0546 23.9030 0.0000 0.0000 0.0000
# 3 68.3751 23.9030 174.8405 0.0000 0.0000 0.0000
# 4 0.0000 0.0000 0.0000 19.2609 0.0000 0.0000
# 5 0.0000 0.0000 0.0000 0.0000 19.2693 0.0000
# 6 0.0000 0.0000 0.0000 0.0000 0.0000 22.4190
#
#
#
# Elastic Compliance Matrix: (Units=1/GPa)
#
#
# Indices 1 2 3 4 5 6 
#
# 1 0.017049 -0.008862 -0.005456 0.000000 0.000000 0.000000
# 2 -0.008862 0.043386 -0.002466 0.000000 0.000000 0.000000
# 3 -0.005456 -0.002466 0.008190 0.000000 0.000000 0.000000
# 4 0.000000 0.000000 0.000000 0.051919 0.000000 0.000000
# 5 0.000000 0.000000 0.000000 0.000000 0.051896 0.000000
# 6 0.000000 0.000000 0.000000 0.000000 0.000000 0.044605
#
#
# Mechanical properties :
#
#
# Convention : Reuss Voigt Hill
#
# Bulk Modulus (GPa) = 28.52412 58.47976 43.50194
# Shear Modulus (GPa) = 19.06233 24.27172 21.66703
#
# Velocity S-wave (km/s) = 3.37814 3.81188 3.60154
# Velocity P-wave (km/s) = 5.68260 7.37450 6.58313
#
# Compressibility (1/GPa) = 0.03505805
#
# Stress axis : x y z
#
# Youngs Moduli (GPa) = 58.65562 23.04878 122.09777
#
# Poissons Ratio (x) = 0.20426 0.66613
# Poissons Ratio (y) = 0.51981 0.30106
# Poissons Ratio (z) = 0.32001 0.05683
#
# Static dielectric constant tensor:
#      x y z
#    x 1.523170 0.000000 0.000000 
#    y 0.000000 1.565910 0.000000 
#    z 0.000000 0.000000 1.606990 
# 
# From -- ./inp_files/13867.got.cif
#   From: 2010.05.17/outbox.cif.g08.bks.cpg/sg62_7_cif.got.tgz:13867.got - 2010.06.03 15:25:27.
