data_PCOD9461425
_publ_section_title
;
Structure prediction by ZEFSAII (Michael W. Deem and Ramdas Pophale) SiO2 
 PCOD9461425
Probable space group: P N M A
;
_chemical_formula_sum "Si O2"
_cell_formula_units_Z 56
_cell_length_a 12.299678
_cell_length_b 20.598969
_cell_length_c 13.158465
_cell_angle_alpha 90.000000
_cell_angle_beta 90.000000
_cell_angle_gamma 90.000000
_cell_volume 3333.837717
_symmetry_space_group_name_H-M "P N M A"
_symmetry_group_IT_number 62
_symmetry_cell_setting 'orthorhombic'
loop_
_space_group_symop_operation_xyz
x,y,z
1/2-x,-y,1/2+z
1/2+x,1/2-y,1/2-z
-x,1/2+y,-z
-x,-y,-z
1/2+x,y,1/2-z
1/2-x,1/2+y,1/2+z
x,1/2-y,z
loop_
_atom_site_type_symbol
_atom_site_label
_atom_site_fract_x
_atom_site_fract_y
_atom_site_fract_z
Si Si1 0.922129 0.082603 0.927741
Si Si2 0.165090 0.464248 0.938405
Si Si3 0.733967 0.597695 0.873170
Si Si4 0.164582 0.519834 0.256803
Si Si5 0.995588 0.912665 0.701476
Si Si6 0.430753 0.174982 0.392126
Si Si7 0.309074 0.821566 0.803996
O O1 0.860213 0.079000 0.819953
O O2 0.043754 0.056197 0.907332
O O3 0.938006 0.147150 0.994202
O O4 0.857380 0.032179 0.002074
O O5 0.252701 0.469037 0.848790
O O6 0.214270 0.412441 0.017673
O O7 0.778383 0.536765 0.808737
O O8 0.604320 0.594124 0.863537
O O9 0.776851 0.659683 0.811444
O O10 0.050389 0.485427 0.288058
O O11 0.895922 0.872360 0.655424
O O12 0.017623 0.876560 0.810909
O O13 0.469281 0.250000 0.381394
O O14 0.303522 0.175176 0.363527
O O15 0.355613 0.750000 0.809682
#
# Coordination Sequence:
#
# PCOD9461425 Si02
#       7
#     8   8   8   8   8   8   8
#     4  10  18  32  52  69  95 128 158 197 239 284
#     4  10  19  32  49  72  97 126 160 194 240 292
#     4   9  18  29  45  69  97 126 160 198 234 286
#     4  10  19  30  47  70  97 125 157 196 242 289
#     4  10  17  28  45  71 102 125 151 194 243 287
#     4  10  19  31  50  73  95 126 165 199 238 289
#     4   9  17  29  46  70 100 130 159 195 242 293
#
# _framework density 16.797457000000001
#
# number of rings (size 3 to 8) (size 9 to 14) (size 15 to 20)
#    0.000    2.286    0.000    7.286    0.000    1.143 
#    0.000    1.429    0.000    1.714    0.000    0.000 
#    0.000    0.000    0.000    0.000    0.000    0.000 
#
# Total GULP energy -311809.025599 kJ/mol
# GULP energy per Si atom -5568.018314 kJ/mol
# Density = 1.675923 g / cm^3
# Si number density = 16.797457 Si / 1000 Ang^3
#
#
#
# Elastic Constant Matrix: (Units=GPa)
#
#
# Indices 1 2 3 4 5 6 
#
# 1 78.9464 -1.2750 29.8052 0.0000 0.0000 0.0000
# 2 -1.2750 27.4603 10.5171 0.0000 0.0000 0.0000
# 3 29.8052 10.5171 60.9426 0.0000 0.0000 0.0000
# 4 0.0000 0.0000 0.0000 11.9560 0.0000 0.0000
# 5 0.0000 0.0000 0.0000 0.0000 17.7721 0.0000
# 6 0.0000 0.0000 0.0000 0.0000 0.0000 17.8585
#
#
#
# Elastic Compliance Matrix: (Units=1/GPa)
#
#
# Indices 1 2 3 4 5 6 
#
# 1 0.015933 0.003988 -0.008481 0.000000 0.000000 0.000000
# 2 0.003988 0.039991 -0.008852 0.000000 0.000000 0.000000
# 3 -0.008481 -0.008852 0.022084 0.000000 0.000000 0.000000
# 4 0.000000 0.000000 0.000000 0.083640 0.000000 0.000000
# 5 0.000000 0.000000 0.000000 0.000000 0.056268 0.000000
# 6 0.000000 0.000000 0.000000 0.000000 0.000000 0.055996
#
#
# Mechanical properties :
#
#
# Convention : Reuss Voigt Hill
#
# Bulk Modulus (GPa) = 19.48582 27.27155 23.37869
# Shear Modulus (GPa) = 15.73774 18.07078 16.90426
#
# Velocity S-wave (km/s) = 3.06422 3.28350 3.17576
# Velocity P-wave (km/s) = 4.91375 5.53588 5.23407
#
# Compressibility (1/GPa) = 0.05131937
#
# Stress axis : x y z
#
# Youngs Moduli (GPa) = 62.76306 25.00533 45.28159
#
# Poissons Ratio (x) = -0.09971 0.38401
# Poissons Ratio (y) = -0.25028 0.40082
# Poissons Ratio (z) = 0.53226 0.22134
#
# Static dielectric constant tensor:
#      x y z
#    x 1.596640 0.000000 0.000000 
#    y 0.000000 1.603410 0.000000 
#    z 0.000000 0.000000 1.587980 
# 
# From -- ./inp_files/12406.got.cif
#   From: 2010.05.17/outbox.cif.g08.bks.cpg/sg62_7_cif.got.tgz:12406.got - 2010.06.03 15:25:27.
