data_PCOD9461684
_publ_section_title
;
Structure prediction by ZEFSAII (Michael W. Deem and Ramdas Pophale) SiO2 
 PCOD9461684
Probable space group: P N M A
;
_chemical_formula_sum "Si O2"
_cell_formula_units_Z 64
_cell_length_a 9.488321
_cell_length_b 17.872914
_cell_length_c 24.980313
_cell_angle_alpha 90.000000
_cell_angle_beta 90.000000
_cell_angle_gamma 90.000000
_cell_volume 4236.260032
_symmetry_space_group_name_H-M "P N M A"
_symmetry_group_IT_number 62
_symmetry_cell_setting 'orthorhombic'
loop_
_space_group_symop_operation_xyz
x,y,z
1/2-x,-y,1/2+z
1/2+x,1/2-y,1/2-z
-x,1/2+y,-z
-x,-y,-z
1/2+x,y,1/2-z
1/2-x,1/2+y,1/2+z
x,1/2-y,z
loop_
_atom_site_type_symbol
_atom_site_label
_atom_site_fract_x
_atom_site_fract_y
_atom_site_fract_z
Si Si1 0.633056 0.161433 0.301197
Si Si2 0.938494 0.663995 0.011010
Si Si3 0.172781 0.014043 0.550579
Si Si4 0.820956 0.524482 0.062803
Si Si5 0.720730 0.336670 0.994735
Si Si6 0.589352 0.426555 0.406193
Si Si7 0.091848 0.073415 0.408751
Si Si8 0.468080 0.161153 0.191931
O O1 0.612350 0.250000 0.311580
O O2 0.570401 0.114256 0.350141
O O3 0.555922 0.144129 0.245560
O O4 0.801407 0.147972 0.299213
O O5 0.900980 0.750000 0.019092
O O6 0.871081 0.609396 0.055430
O O7 0.109146 0.657502 0.010220
O O8 0.887072 0.635170 0.952759
O O9 0.252999 0.995354 0.494988
O O10 0.278867 0.983001 0.595268
O O11 0.032043 0.966661 0.557731
O O12 0.155650 0.103373 0.547022
O O13 0.703142 0.493217 0.103160
O O14 0.957714 0.475004 0.074119
O O15 0.681836 0.250000 0.987000
O O16 0.669001 0.365683 0.053047
O O17 0.027509 0.113409 0.357332
O O18 0.485294 0.250000 0.180525
#
# Coordination Sequence:
#
# PCOD9461684 Si02
#       8
#     8   8   8   8   8   8   8   8
#     4  10  22  36  51  71  99 131 167 211 249 286
#     4  10  18  29  46  71 100 129 166 200 233 285
#     4  10  18  33  47  68  99 130 163 206 241 288
#     4  10  19  31  48  71  96 131 171 201 239 290
#     4  10  18  29  46  71  99 130 166 198 236 290
#     4  11  17  33  50  69  97 133 171 196 241 293
#     4  11  20  33  50  69  99 135 166 202 248 292
#     4  10  22  38  51  72 100 130 169 210 250 289
#
# _framework density 15.107666
#
# number of rings (size 3 to 8) (size 9 to 14) (size 15 to 20)
#    0.000    1.750    5.000    3.000    1.750    0.000 
#    0.000    3.750    0.000    0.000    0.000    0.000 
#    0.000    6.000    0.000    0.000    0.000    0.000 
#
# Total GULP energy -356478.445656 kJ/mol
# GULP energy per Si atom -5569.975713 kJ/mol
# Density = 1.507328 g / cm^3
# Si number density = 15.107666 Si / 1000 Ang^3
#
#
#
# Elastic Constant Matrix: (Units=GPa)
#
#
# Indices 1 2 3 4 5 6 
#
# 1 68.4062 43.8798 20.7978 0.0000 0.0000 0.0000
# 2 43.8798 123.7782 47.6225 0.0000 0.0000 0.0000
# 3 20.7978 47.6225 61.0691 0.0000 0.0000 0.0000
# 4 0.0000 0.0000 0.0000 23.2292 0.0000 0.0000
# 5 0.0000 0.0000 0.0000 0.0000 21.1586 0.0000
# 6 0.0000 0.0000 0.0000 0.0000 0.0000 22.0452
#
#
#
# Elastic Compliance Matrix: (Units=1/GPa)
#
#
# Indices 1 2 3 4 5 6 
#
# 1 0.019051 -0.006082 -0.001745 0.000000 0.000000 0.000000
# 2 -0.006082 0.013484 -0.008443 0.000000 0.000000 0.000000
# 3 -0.001745 -0.008443 0.023553 0.000000 0.000000 0.000000
# 4 0.000000 0.000000 0.000000 0.043049 0.000000 0.000000
# 5 0.000000 0.000000 0.000000 0.000000 0.047262 0.000000
# 6 0.000000 0.000000 0.000000 0.000000 0.000000 0.045361
#
#
# Mechanical properties :
#
#
# Convention : Reuss Voigt Hill
#
# Bulk Modulus (GPa) = 42.46888 53.09486 47.78187
# Shear Modulus (GPa) = 21.53779 22.68348 22.11064
#
# Velocity S-wave (km/s) = 3.77983 3.87907 3.82977
# Velocity P-wave (km/s) = 6.87178 7.43529 7.15908
#
# Compressibility (1/GPa) = 0.02354665
#
# Stress axis : x y z
#
# Youngs Moduli (GPa) = 52.49201 74.16414 42.45665
#
# Poissons Ratio (x) = 0.45107 0.07409
# Poissons Ratio (y) = 0.31926 0.35848
# Poissons Ratio (z) = 0.09160 0.62620
#
# Static dielectric constant tensor:
#      x y z
#    x 1.547410 0.000000 0.000000 
#    y 0.000000 1.521570 0.000000 
#    z 0.000000 0.000000 1.485070 
# 
# From -- ./inp_files/29055.got.cif
#   From: 2010.05.17/outbox.cif.g08.bks.cpg/sg62_15_cif.got.tgz:29055.got - 2010.06.03 15:25:27.
