data_PCOD9461989
_publ_section_title
;
Structure prediction by ZEFSAII (Michael W. Deem and Ramdas Pophale) SiO2 
 PCOD9461989
Probable space group: P N M A
;
_chemical_formula_sum "Si O2"
_cell_formula_units_Z 60
_cell_length_a 9.885220
_cell_length_b 16.684933
_cell_length_c 14.172176
_cell_angle_alpha 90.000000
_cell_angle_beta 90.000000
_cell_angle_gamma 90.000000
_cell_volume 2337.476984
_symmetry_space_group_name_H-M "P N M A"
_symmetry_group_IT_number 62
_symmetry_cell_setting 'orthorhombic'
loop_
_space_group_symop_operation_xyz
x,y,z
1/2-x,-y,1/2+z
1/2+x,1/2-y,1/2-z
-x,1/2+y,-z
-x,-y,-z
1/2+x,y,1/2-z
1/2-x,1/2+y,1/2+z
x,1/2-y,z
loop_
_atom_site_type_symbol
_atom_site_label
_atom_site_fract_x
_atom_site_fract_y
_atom_site_fract_z
Si Si1 0.434302 0.847279 0.399894
Si Si2 0.711263 0.099325 0.777725
Si Si3 0.202986 0.845735 0.552696
Si Si4 0.505286 0.107133 0.926023
Si Si5 0.914932 0.839725 0.797286
Si Si6 0.148528 0.462198 0.340969
Si Si7 0.621592 0.750000 0.203476
Si Si8 0.845749 0.341978 0.049741
O O1 0.428444 0.750000 0.385102
O O2 0.411151 0.886415 0.298755
O O3 0.306893 0.869851 0.467249
O O4 0.570351 0.866232 0.455938
O O5 0.654223 0.096331 0.883726
O O6 0.800346 0.178820 0.763276
O O7 0.778315 0.019598 0.736531
O O8 0.207316 0.750000 0.551184
O O9 0.051670 0.871574 0.528858
O O10 0.277570 0.866498 0.649284
O O11 0.446127 0.180456 0.864276
O O12 0.431377 0.024848 0.903044
O O13 0.894409 0.750000 0.758650
O O14 0.945337 0.903505 0.718782
O O15 0.032509 0.835845 0.873979
O O16 0.245588 0.406744 0.405229
O O17 0.791490 0.250000 0.037536
#
# Coordination Sequence:
#
# PCOD9461989 Si02
#       8
#     8   8   8   8   8   8   4   8
#     4   9  15  31  52  79 104 127 170 217 264 315
#     4  11  20  31  52  77 110 144 168 214 266 322
#     4   9  15  32  54  76  99 132 181 220 253 303
#     4  11  20  32  51  79 108 140 175 214 266 325
#     4   9  19  35  58  76  98 136 183 226 260 311
#     4  11  21  34  46  80 112 135 171 216 272 317
#     4  10  18  32  52  76 106 138 174 222 250 314
#     4   9  19  34  57  78 100 136 177 223 272 318
#
# _framework density 25.668700000000001
#
# number of rings (size 3 to 8) (size 9 to 14) (size 15 to 20)
#    0.000    2.133    4.000    3.200    0.000    0.533 
#    2.400    0.667    0.000    0.000    0.000    0.000 
#    0.000    0.000    0.000    0.000    0.000    0.000 
#
# Total GULP energy -334758.348392 kJ/mol
# GULP energy per Si atom -5579.305807 kJ/mol
# Density = 2.561028 g / cm^3
# Si number density = 25.668700 Si / 1000 Ang^3
#
#
#
# Elastic Constant Matrix: (Units=GPa)
#
#
# Indices 1 2 3 4 5 6 
#
# 1 81.8167 40.5745 32.0632 0.0000 0.0000 0.0000
# 2 40.5745 123.6711 46.6151 0.0000 0.0000 0.0000
# 3 32.0632 46.6151 56.9245 0.0000 0.0000 0.0000
# 4 0.0000 0.0000 0.0000 6.6489 0.0000 0.0000
# 5 0.0000 0.0000 0.0000 0.0000 44.2488 0.0000
# 6 0.0000 0.0000 0.0000 0.0000 0.0000 22.0070
#
#
#
# Elastic Compliance Matrix: (Units=1/GPa)
#
#
# Indices 1 2 3 4 5 6 
#
# 1 0.016298 -0.002729 -0.006945 0.000000 0.000000 0.000000
# 2 -0.002729 0.012153 -0.008415 0.000000 0.000000 0.000000
# 3 -0.006945 -0.008415 0.028370 0.000000 0.000000 0.000000
# 4 0.000000 0.000000 0.000000 0.150400 0.000000 0.000000
# 5 0.000000 0.000000 0.000000 0.000000 0.022599 0.000000
# 6 0.000000 0.000000 0.000000 0.000000 0.000000 0.045440
#
#
# Mechanical properties :
#
#
# Convention : Reuss Voigt Hill
#
# Bulk Modulus (GPa) = 48.44341 55.65753 52.05047
# Shear Modulus (GPa) = 15.70751 24.12490 19.91620
#
# Velocity S-wave (km/s) = 2.47641 3.06903 2.78851
# Velocity P-wave (km/s) = 5.20484 5.85566 5.53981
#
# Compressibility (1/GPa) = 0.02064264
#
# Stress axis : x y z
#
# Youngs Moduli (GPa) = 61.35897 82.28280 35.24887
#
# Poissons Ratio (x) = 0.22458 0.24479
# Poissons Ratio (y) = 0.16747 0.29661
# Poissons Ratio (z) = 0.42612 0.69240
#
# Static dielectric constant tensor:
#      x y z
#    x 2.129550 0.000000 0.000000 
#    y 0.000000 1.920570 0.000000 
#    z 0.000000 0.000000 2.055920 
# 
# From -- ./inp_files/23182.got.cif
#   From: 2010.05.17/outbox.cif.g08.bks.cpg/sg62_12_cif.got.tgz:23182.got - 2010.06.03 15:25:27.
