data_PCOD9461569
_publ_section_title
;
Structure prediction by ZEFSAII (Michael W. Deem and Ramdas Pophale) SiO2 
 PCOD9461569
Probable space group: P N M A
;
_chemical_formula_sum "Si O2"
_cell_formula_units_Z 64
_cell_length_a 27.441840
_cell_length_b 8.028862
_cell_length_c 19.038842
_cell_angle_alpha 90.000000
_cell_angle_beta 90.000000
_cell_angle_gamma 90.000000
_cell_volume 4194.766113
_symmetry_space_group_name_H-M "P N M A"
_symmetry_group_IT_number 62
_symmetry_cell_setting 'orthorhombic'
loop_
_space_group_symop_operation_xyz
x,y,z
1/2-x,-y,1/2+z
1/2+x,1/2-y,1/2-z
-x,1/2+y,-z
-x,-y,-z
1/2+x,y,1/2-z
1/2-x,1/2+y,1/2+z
x,1/2-y,z
loop_
_atom_site_type_symbol
_atom_site_label
_atom_site_fract_x
_atom_site_fract_y
_atom_site_fract_z
Si Si1 0.855746 0.454909 0.826442
Si Si2 0.555380 0.054726 0.566640
Si Si3 0.304759 0.057655 0.807127
Si Si4 0.355191 0.445908 0.345835
Si Si5 0.210969 0.947940 0.724048
Si Si6 0.741618 0.949406 0.410132
Si Si7 0.241148 0.050402 0.928994
Si Si8 0.447209 0.446402 0.587861
O O1 0.855622 0.250000 0.825450
O O2 0.844523 0.513748 0.746939
O O3 0.810186 0.504393 0.876054
O O4 0.906057 0.514986 0.860304
O O5 0.549283 0.250000 0.550680
O O6 0.502552 0.987265 0.591043
O O7 0.597554 0.033532 0.623271
O O8 0.569129 0.969609 0.492938
O O9 0.318115 0.250000 0.819258
O O10 0.286503 0.986073 0.881330
O O11 0.255330 0.046313 0.760666
O O12 0.365438 0.250000 0.345788
O O13 0.337019 0.495504 0.267881
O O14 0.308766 0.478695 0.396431
O O15 0.218577 0.750000 0.735733
O O16 0.216346 0.984948 0.642021
O O17 0.742439 0.750000 0.409061
O O18 0.745880 0.008766 0.489627
O O19 0.238826 0.250000 0.920281
O O20 0.450040 0.250000 0.603007
#
# Coordination Sequence:
#
# PCOD9461569 Si02
#       8
#     8   8   8   8   8   8   8   8
#     4   8  14  26  42  56  73 102 136 162 190 232
#     4  10  19  28  40  59  81 106 137 173 207 237
#     4   8  15  27  41  57  78 104 131 163 202 238
#     4  10  19  30  43  57  78 110 141 169 205 244
#     4   9  17  28  41  57  77 103 136 170 200 234
#     4  10  18  27  41  60  83 110 135 161 198 241
#     4  10  18  27  41  61  83 105 134 169 199 236
#     4   9  17  29  43  58  79 107 138 171 203 238
#
# _framework density 15.257108000000001
#
# number of rings (size 3 to 8) (size 9 to 14) (size 15 to 20)
#    0.000    2.750    0.000    3.375    0.000    3.500 
#    0.000    2.500    0.000    0.000    0.000    0.000 
#    0.000    1.000    0.000    2.000    0.000    2.625 
#
# Total GULP energy -356281.985134 kJ/mol
# GULP energy per Si atom -5566.906018 kJ/mol
# Density = 1.522238 g / cm^3
# Si number density = 15.257108 Si / 1000 Ang^3
#
#
#
# Elastic Constant Matrix: (Units=GPa)
#
#
# Indices 1 2 3 4 5 6 
#
# 1 67.4738 -1.2490 39.6499 0.0000 0.0000 0.0000
# 2 -1.2490 13.3168 -4.4194 0.0000 0.0000 0.0000
# 3 39.6499 -4.4194 95.6901 0.0000 0.0000 0.0000
# 4 0.0000 0.0000 0.0000 16.2234 0.0000 0.0000
# 5 0.0000 0.0000 0.0000 0.0000 27.9081 0.0000
# 6 0.0000 0.0000 0.0000 0.0000 0.0000 8.7949
#
#
#
# Elastic Compliance Matrix: (Units=1/GPa)
#
#
# Indices 1 2 3 4 5 6 
#
# 1 0.019601 -0.000870 -0.008162 0.000000 0.000000 0.000000
# 2 -0.000870 0.076301 0.003885 0.000000 0.000000 0.000000
# 3 -0.008162 0.003885 0.014012 0.000000 0.000000 0.000000
# 4 0.000000 0.000000 0.000000 0.061640 0.000000 0.000000
# 5 0.000000 0.000000 0.000000 0.000000 0.035832 0.000000
# 6 0.000000 0.000000 0.000000 0.000000 0.000000 0.113702
#
#
# Mechanical properties :
#
#
# Convention : Reuss Voigt Hill
#
# Bulk Modulus (GPa) = 10.03836 27.16038 18.59937
# Shear Modulus (GPa) = 13.71413 20.08523 16.89968
#
# Velocity S-wave (km/s) = 3.00137 3.63223 3.33176
# Velocity P-wave (km/s) = 4.31331 5.95241 5.19788
#
# Compressibility (1/GPa) = 0.09961788
#
# Stress axis : x y z
#
# Youngs Moduli (GPa) = 51.01875 13.10605 71.36875
#
# Poissons Ratio (x) = 0.01141 0.58250
# Poissons Ratio (y) = 0.04440 -0.27723
# Poissons Ratio (z) = 0.41641 -0.05091
#
# Static dielectric constant tensor:
#      x y z
#    x 1.513000 0.000000 0.000000 
#    y 0.000000 1.549630 0.000000 
#    z 0.000000 0.000000 1.528260 
# 
# From -- ./inp_files/25001.got.cif
#   From: 2010.05.17/outbox.cif.g08.bks.cpg/sg62_13_cif.got.tgz:25001.got - 2010.06.03 15:25:27.
