data_PCOD9461060
_publ_section_title
;
Structure prediction by ZEFSAII (Michael W. Deem and Ramdas Pophale) SiO2 
 PCOD9461060
Probable space group: P B C A
;
_chemical_formula_sum "Si O2"
_cell_formula_units_Z 40
_cell_length_a 16.328643
_cell_length_b 7.491766
_cell_length_c 13.899740
_cell_angle_alpha 90.000000
_cell_angle_beta 90.000000
_cell_angle_gamma 90.000000
_cell_volume 1700.360371
_symmetry_space_group_name_H-M "P B C A"
_symmetry_group_IT_number 61
_symmetry_cell_setting 'orthorhombic'
loop_
_space_group_symop_operation_xyz
x,y,z
1/2-x,-y,1/2+z
1/2+x,1/2-y,-z
-x,1/2+y,1/2-z
-x,-y,-z
1/2+x,y,1/2-z
1/2-x,1/2+y,z
x,1/2-y,1/2+z
loop_
_atom_site_type_symbol
_atom_site_label
_atom_site_fract_x
_atom_site_fract_y
_atom_site_fract_z
Si Si1 0.767721 0.427437 0.883955
Si Si2 0.398131 0.632077 0.531366
Si Si3 0.681728 0.087350 0.585815
Si Si4 0.321608 0.375733 0.252427
Si Si5 0.428682 0.274622 0.419246
O O1 0.823395 0.606122 0.894618
O O2 0.818019 0.293844 0.817765
O O3 0.686372 0.467605 0.823418
O O4 0.742222 0.402356 0.994183
O O5 0.372822 0.738536 0.434801
O O6 0.415417 0.424968 0.502324
O O7 0.473696 0.740315 0.575901
O O8 0.741294 0.104365 0.677606
O O9 0.626298 0.907198 0.577160
O O10 0.398811 0.363831 0.320606
#
# Coordination Sequence:
#
# PCOD9461060 Si02
#       5
#     8   8   8   8   8
#     4  12  23  42  72 103 138 182 243 293 352 429
#     4  11  24  44  67 102 142 180 232 296 362 421
#     4  12  23  46  74 100 136 191 240 292 348 441
#     4  12  23  42  72 101 136 186 240 290 356 428
#     4  11  24  44  68 100 142 184 229 296 363 419
#
# _framework density 23.524422999999999
#
# number of rings (size 3 to 8) (size 9 to 14) (size 15 to 20)
#    0.000    0.400    6.000    4.200    0.000    0.000 
#    3.600    2.000    0.000    0.000    0.000    0.000 
#    0.000    0.000    0.000    0.000    0.000    0.000 
#
# Total GULP energy -223088.590013 kJ/mol
# GULP energy per Si atom -5577.214750 kJ/mol
# Density = 2.347088 g / cm^3
# Si number density = 23.524423 Si / 1000 Ang^3
#
#
#
# Elastic Constant Matrix: (Units=GPa)
#
#
# Indices 1 2 3 4 5 6 
#
# 1 67.0980 9.9212 15.9690 0.0000 0.0000 0.0000
# 2 9.9212 114.2269 30.3859 0.0000 0.0000 0.0000
# 3 15.9690 30.3859 110.2330 0.0000 0.0000 0.0000
# 4 0.0000 0.0000 0.0000 34.4848 0.0000 0.0000
# 5 0.0000 0.0000 0.0000 0.0000 19.3904 0.0000
# 6 0.0000 0.0000 0.0000 0.0000 0.0000 26.3280
#
#
#
# Elastic Compliance Matrix: (Units=1/GPa)
#
#
# Indices 1 2 3 4 5 6 
#
# 1 0.015505 -0.000808 -0.002023 0.000000 0.000000 0.000000
# 2 -0.000808 0.009489 -0.002499 0.000000 0.000000 0.000000
# 3 -0.002023 -0.002499 0.010054 0.000000 0.000000 0.000000
# 4 0.000000 0.000000 0.000000 0.028998 0.000000 0.000000
# 5 0.000000 0.000000 0.000000 0.000000 0.051572 0.000000
# 6 0.000000 0.000000 0.000000 0.000000 0.000000 0.037982
#
#
# Mechanical properties :
#
#
# Convention : Reuss Voigt Hill
#
# Bulk Modulus (GPa) = 41.00562 44.90112 42.95337
# Shear Modulus (GPa) = 29.00405 31.72610 30.36508
#
# Velocity S-wave (km/s) = 3.51512 3.67637 3.59665
# Velocity P-wave (km/s) = 5.82612 6.09503 5.96210
#
# Compressibility (1/GPa) = 0.02438690
#
# Stress axis : x y z
#
# Youngs Moduli (GPa) = 64.49687 105.38077 99.46736
#
# Poissons Ratio (x) = 0.08519 0.20125
# Poissons Ratio (y) = 0.05214 0.24853
# Poissons Ratio (z) = 0.13049 0.26331
#
# Static dielectric constant tensor:
#      x y z
#    x 2.039980 0.000000 0.000000 
#    y 0.000000 2.047200 0.000000 
#    z 0.000000 0.000000 1.835050 
# 
# From -- ./inp_files/2657.got.cif
#   From: 2010.05.17/outbox.cif.g08.bks.cpg/sg61_2_cif.got.tgz:2657.got - 2010.06.03 15:17:17.
