data_PCOD9461584
_publ_section_title
;
Structure prediction by ZEFSAII (Michael W. Deem and Ramdas Pophale) SiO2 
 PCOD9461584
Probable space group: P N M A
;
_chemical_formula_sum "Si O2"
_cell_formula_units_Z 64
_cell_length_a 31.622283
_cell_length_b 7.603811
_cell_length_c 14.888779
_cell_angle_alpha 90.000000
_cell_angle_beta 90.000000
_cell_angle_gamma 90.000000
_cell_volume 3580.004876
_symmetry_space_group_name_H-M "P N M A"
_symmetry_group_IT_number 62
_symmetry_cell_setting 'orthorhombic'
loop_
_space_group_symop_operation_xyz
x,y,z
1/2-x,-y,1/2+z
1/2+x,1/2-y,1/2-z
-x,1/2+y,-z
-x,-y,-z
1/2+x,y,1/2-z
1/2-x,1/2+y,1/2+z
x,1/2-y,z
loop_
_atom_site_type_symbol
_atom_site_label
_atom_site_fract_x
_atom_site_fract_y
_atom_site_fract_z
Si Si1 0.228819 0.538652 0.523015
Si Si2 0.544737 0.957108 0.596644
Si Si3 0.326262 0.963679 0.532829
Si Si4 0.133781 0.461713 0.844323
Si Si5 0.549415 0.543919 0.393776
Si Si6 0.796599 0.466369 0.673980
Si Si7 0.789076 0.541138 0.275297
Si Si8 0.373782 0.450791 0.712058
O O1 0.228743 0.750000 0.519581
O O2 0.277666 0.482396 0.524964
O O3 0.208532 0.478781 0.429482
O O4 0.209383 0.486989 0.618296
O O5 0.538011 0.750000 0.585999
O O6 0.553879 0.030322 0.495517
O O7 0.584886 0.985591 0.660061
O O8 0.499964 0.030566 0.629198
O O9 0.328175 0.750000 0.540626
O O10 0.350131 0.016967 0.442627
O O11 0.347301 0.045981 0.619639
O O12 0.134479 0.250000 0.841484
O O13 0.168724 0.527629 0.773754
O O14 0.560803 0.750000 0.399857
O O15 0.581618 0.467681 0.319982
O O16 0.796892 0.250000 0.677843
O O17 0.755142 0.524693 0.731305
O O18 0.840647 0.529426 0.717013
O O19 0.788255 0.750000 0.258451
O O20 0.381819 0.250000 0.742166
#
# Coordination Sequence:
#
# PCOD9461584 Si02
#       8
#     8   8   8   8   8   8   8   8
#     4  10  19  32  46  66  95 126 159 196 231 268
#     4  10  19  30  46  68  94 123 155 193 235 279
#     4  10  18  27  43  66  94 125 156 191 229 267
#     4  10  19  31  47  67  94 129 161 190 231 280
#     4   9  18  30  44  67  95 122 155 191 232 281
#     4   9  17  30  48  67  92 125 159 190 228 275
#     4  10  19  32  49  68  92 127 163 193 230 276
#     4  10  18  30  48  68  91 125 162 193 224 271
#
# _framework density 17.877071000000001
#
# number of rings (size 3 to 8) (size 9 to 14) (size 15 to 20)
#    0.000    2.250    3.750    0.375    0.000    1.500 
#    0.000    1.250    0.000    0.000    0.000    0.875 
#    0.000    0.000    0.000    0.000    0.000    0.000 
#
# Total GULP energy -356839.850795 kJ/mol
# GULP energy per Si atom -5575.622669 kJ/mol
# Density = 1.783638 g / cm^3
# Si number density = 17.877071 Si / 1000 Ang^3
#
#
#
# Elastic Constant Matrix: (Units=GPa)
#
#
# Indices 1 2 3 4 5 6 
#
# 1 111.6595 -6.3384 29.3926 0.0000 0.0000 0.0000
# 2 -6.3384 35.7295 -7.9100 0.0000 0.0000 0.0000
# 3 29.3926 -7.9100 64.4427 0.0000 0.0000 0.0000
# 4 0.0000 0.0000 0.0000 15.1165 0.0000 0.0000
# 5 0.0000 0.0000 0.0000 0.0000 26.7617 0.0000
# 6 0.0000 0.0000 0.0000 0.0000 0.0000 12.6523
#
#
#
# Elastic Compliance Matrix: (Units=1/GPa)
#
#
# Indices 1 2 3 4 5 6 
#
# 1 0.010200 0.000801 -0.004554 0.000000 0.000000 0.000000
# 2 0.000801 0.028833 0.003174 0.000000 0.000000 0.000000
# 3 -0.004554 0.003174 0.017984 0.000000 0.000000 0.000000
# 4 0.000000 0.000000 0.000000 0.066153 0.000000 0.000000
# 5 0.000000 0.000000 0.000000 0.000000 0.037367 0.000000
# 6 0.000000 0.000000 0.000000 0.000000 0.000000 0.079037
#
#
# Mechanical properties :
#
#
# Convention : Reuss Voigt Hill
#
# Bulk Modulus (GPa) = 17.90222 26.90225 22.40224
# Shear Modulus (GPa) = 19.27888 24.01862 21.64875
#
# Velocity S-wave (km/s) = 3.28748 3.66941 3.48369
# Velocity P-wave (km/s) = 4.94428 5.74752 5.36096
#
# Compressibility (1/GPa) = 0.05585898
#
# Stress axis : x y z
#
# Youngs Moduli (GPa) = 98.03886 34.68275 55.60421
#
# Poissons Ratio (x) = -0.02779 0.25322
# Poissons Ratio (y) = -0.07856 -0.17646
# Poissons Ratio (z) = 0.44646 -0.11007
#
# Static dielectric constant tensor:
#      x y z
#    x 1.642330 0.000000 0.000000 
#    y 0.000000 1.679790 0.000000 
#    z 0.000000 0.000000 1.600030 
# 
# From -- ./inp_files/15588.got.cif
#   From: 2010.05.17/outbox.cif.g08.bks.cpg/sg62_8_cif.got.tgz:15588.got - 2010.06.03 15:25:27.
