data_PCOD9461047
_publ_section_title
;
Structure prediction by ZEFSAII (Michael W. Deem and Ramdas Pophale) SiO2 
 PCOD9461047
Probable space group: P B C A
;
_chemical_formula_sum "Si O2"
_cell_formula_units_Z 64
_cell_length_a 11.991534
_cell_length_b 22.268173
_cell_length_c 9.005816
_cell_angle_alpha 90.000000
_cell_angle_beta 90.000000
_cell_angle_gamma 90.000000
_cell_volume 2404.819027
_symmetry_space_group_name_H-M "P B C A"
_symmetry_group_IT_number 61
_symmetry_cell_setting 'orthorhombic'
loop_
_space_group_symop_operation_xyz
x,y,z
1/2-x,-y,1/2+z
1/2+x,1/2-y,-z
-x,1/2+y,1/2-z
-x,-y,-z
1/2+x,y,1/2-z
1/2-x,1/2+y,z
x,1/2-y,1/2+z
loop_
_atom_site_type_symbol
_atom_site_label
_atom_site_fract_x
_atom_site_fract_y
_atom_site_fract_z
Si Si1 0.360691 0.017383 0.359971
Si Si2 0.761638 0.829909 0.448833
Si Si3 0.343492 0.138941 0.986617
Si Si4 0.022652 0.865869 0.769177
Si Si5 0.694836 0.242114 0.676567
Si Si6 0.447735 0.911377 0.192710
Si Si7 0.325327 0.950324 0.658513
Si Si8 0.495723 0.321265 0.068740
O O1 0.432910 0.979872 0.239789
O O2 0.370783 0.993677 0.527474
O O3 0.392946 0.086750 0.348581
O O4 0.238373 0.013275 0.286937
O O5 0.800282 0.773226 0.348816
O O6 0.769904 0.806875 0.617263
O O7 0.843223 0.884232 0.401760
O O8 0.633407 0.832312 0.402130
O O9 0.420829 0.159697 0.123670
O O10 0.259247 0.091948 0.063729
O O11 0.275454 0.191930 0.904064
O O12 0.435855 0.105923 0.883691
O O13 0.914522 0.908267 0.759664
O O14 0.993871 0.818190 0.893323
O O15 0.566545 0.232633 0.632845
O O16 0.443768 0.877146 0.351134
#
# Coordination Sequence:
#
# PCOD9461047 Si02
#       8
#     8   8   8   8   8   8   8   8
#     4  11  26  39  69  96 141 179 233 286 344 419
#     4  11  27  43  74 103 137 182 233 280 353 419
#     4  11  25  44  68  95 142 171 229 287 344 409
#     4  11  25  41  66 102 131 185 230 288 342 412
#     4  11  25  48  67 105 135 180 227 287 350 411
#     4  11  25  45  68 101 139 189 223 288 346 419
#     4  11  24  43  62 100 132 181 226 285 343 414
#     4  11  24  46  72  96 144 178 232 282 348 415
#
# _framework density 26.613230000000001
#
# number of rings (size 3 to 8) (size 9 to 14) (size 15 to 20)
#    0.000    1.000    3.750    1.125    8.750    3.000 
#    0.000    0.000    0.000    0.000    0.000    0.000 
#    0.000    0.000    0.000    0.000    0.000    0.000 
#
# Total GULP energy -358349.715775 kJ/mol
# GULP energy per Si atom -5599.214309 kJ/mol
# Density = 2.655266 g / cm^3
# Si number density = 26.613230 Si / 1000 Ang^3
#
#
#
# Elastic Constant Matrix: (Units=GPa)
#
#
# Indices 1 2 3 4 5 6 
#
# 1 133.0611 45.8478 15.2503 0.0000 0.0000 0.0000
# 2 45.8478 67.2536 19.3788 0.0000 0.0000 0.0000
# 3 15.2503 19.3788 99.5998 0.0000 0.0000 0.0000
# 4 0.0000 0.0000 0.0000 33.8226 0.0000 0.0000
# 5 0.0000 0.0000 0.0000 0.0000 36.0332 0.0000
# 6 0.0000 0.0000 0.0000 0.0000 0.0000 41.2896
#
#
#
# Elastic Compliance Matrix: (Units=1/GPa)
#
#
# Indices 1 2 3 4 5 6 
#
# 1 0.009827 -0.006638 -0.000213 0.000000 0.000000 0.000000
# 2 -0.006638 0.020236 -0.002921 0.000000 0.000000 0.000000
# 3 -0.000213 -0.002921 0.010641 0.000000 0.000000 0.000000
# 4 0.000000 0.000000 0.000000 0.029566 0.000000 0.000000
# 5 0.000000 0.000000 0.000000 0.000000 0.027752 0.000000
# 6 0.000000 0.000000 0.000000 0.000000 0.000000 0.024219
#
#
# Mechanical properties :
#
#
# Convention : Reuss Voigt Hill
#
# Bulk Modulus (GPa) = 47.25839 51.20759 49.23299
# Shear Modulus (GPa) = 33.59356 36.85827 35.22591
#
# Velocity S-wave (km/s) = 3.55672 3.72554 3.64211
# Velocity P-wave (km/s) = 5.88754 6.14731 6.01882
#
# Compressibility (1/GPa) = 0.02116026
#
# Stress axis : x y z
#
# Youngs Moduli (GPa) = 101.76161 49.41741 93.97501
#
# Poissons Ratio (x) = 0.32802 0.02003
# Poissons Ratio (y) = 0.67547 0.27449
# Poissons Ratio (z) = 0.02169 0.14434
#
# Static dielectric constant tensor:
#      x y z
#    x 2.132940 0.000000 0.000000 
#    y 0.000000 2.043750 0.000000 
#    z 0.000000 0.000000 2.066980 
# 
# From -- ./inp_files/2436.got.cif
#   From: 2010.05.17/outbox.cif.g08.bks.cpg/sg61_2_cif.got.tgz:2436.got - 2010.06.03 15:17:17.
