data_PCOD9461515
_publ_section_title
;
Structure prediction by ZEFSAII (Michael W. Deem and Ramdas Pophale) SiO2 
 PCOD9461515
Probable space group: P N M A
;
_chemical_formula_sum "Si O2"
_cell_formula_units_Z 56
_cell_length_a 8.375217
_cell_length_b 20.147752
_cell_length_c 17.497965
_cell_angle_alpha 90.000000
_cell_angle_beta 90.000000
_cell_angle_gamma 90.000000
_cell_volume 2952.638024
_symmetry_space_group_name_H-M "P N M A"
_symmetry_group_IT_number 62
_symmetry_cell_setting 'orthorhombic'
loop_
_space_group_symop_operation_xyz
x,y,z
1/2-x,-y,1/2+z
1/2+x,1/2-y,1/2-z
-x,1/2+y,-z
-x,-y,-z
1/2+x,y,1/2-z
1/2-x,1/2+y,1/2+z
x,1/2-y,z
loop_
_atom_site_type_symbol
_atom_site_label
_atom_site_fract_x
_atom_site_fract_y
_atom_site_fract_z
Si Si1 0.347013 0.401440 0.394970
Si Si2 0.403983 0.549858 0.339197
Si Si3 0.147620 0.451542 0.516150
Si Si4 0.025180 0.327667 0.226289
Si Si5 0.285262 0.547625 0.175484
Si Si6 0.163017 0.082107 0.006051
Si Si7 0.834205 0.392673 0.350562
O O1 0.353212 0.472895 0.352433
O O2 0.189776 0.402884 0.447182
O O3 0.380215 0.345821 0.332010
O O4 0.496898 0.399409 0.453849
O O5 0.334125 0.572910 0.258478
O O6 0.594862 0.550651 0.332387
O O7 0.346211 0.589129 0.414910
O O8 0.139039 0.419548 0.599640
O O9 0.297170 0.503820 0.518164
O O10 0.000000 0.500000 0.500000
O O11 0.056269 0.250000 0.227045
O O12 0.976036 0.354789 0.308976
O O13 0.174140 0.366933 0.191393
O O14 0.344937 0.471068 0.167604
O O15 0.298491 0.116230 0.059078
#
# Coordination Sequence:
#
# PCOD9461515 Si02
#       7
#     8   8   8   8   8   8   8
#     4  10  17  34  48  57  99 135 157 202 246 284
#     4  11  18  30  46  68  93 125 168 191 245 296
#     4  10  19  28  44  70  93 125 169 196 237 302
#     4  11  21  32  50  72  94 128 175 209 236 279
#     4  11  19  29  47  68  95 130 162 200 240 302
#     4   9  18  33  47  60  91 136 157 189 248 303
#     4  10  19  34  48  65  96 133 162 202 250 284
#
# _framework density 18.966090000000001
#
# number of rings (size 3 to 8) (size 9 to 14) (size 15 to 20)
#    0.000    1.714    7.143    1.286    4.000    2.286 
#    0.000    0.000    0.000    0.000    0.000    0.000 
#    0.000    5.714    0.000    0.000    0.000    0.000 
#
# Total GULP energy -312245.686857 kJ/mol
# GULP energy per Si atom -5575.815837 kJ/mol
# Density = 1.892292 g / cm^3
# Si number density = 18.966090 Si / 1000 Ang^3
#
#
#
# Elastic Constant Matrix: (Units=GPa)
#
#
# Indices 1 2 3 4 5 6 
#
# 1 38.2432 -6.1545 25.7529 0.0000 0.0000 0.0000
# 2 -6.1545 16.0614 -3.5508 0.0000 0.0000 0.0000
# 3 25.7529 -3.5508 166.6969 0.0000 0.0000 0.0000
# 4 0.0000 0.0000 0.0000 10.7230 0.0000 0.0000
# 5 0.0000 0.0000 0.0000 0.0000 38.2717 0.0000
# 6 0.0000 0.0000 0.0000 0.0000 0.0000 1.1787
#
#
#
# Elastic Compliance Matrix: (Units=1/GPa)
#
#
# Indices 1 2 3 4 5 6 
#
# 1 0.030961 0.010858 -0.004552 0.000000 0.000000 0.000000
# 2 0.010858 0.066363 -0.000264 0.000000 0.000000 0.000000
# 3 -0.004552 -0.000264 0.006697 0.000000 0.000000 0.000000
# 4 0.000000 0.000000 0.000000 0.093258 0.000000 0.000000
# 5 0.000000 0.000000 0.000000 0.000000 0.026129 0.000000
# 6 0.000000 0.000000 0.000000 0.000000 0.000000 0.848411
#
#
# Mechanical properties :
#
#
# Convention : Reuss Voigt Hill
#
# Bulk Modulus (GPa) = 8.61295 28.12185 18.36740
# Shear Modulus (GPa) = 4.55193 23.69827 14.12510
#
# Velocity S-wave (km/s) = 1.55089 3.53867 2.73198
# Velocity P-wave (km/s) = 2.78533 5.61746 4.43362
#
# Compressibility (1/GPa) = 0.11610429
#
# Stress axis : x y z
#
# Youngs Moduli (GPa) = 32.29876 15.06862 149.33157
#
# Poissons Ratio (x) = -0.16361 0.67974
# Poissons Ratio (y) = -0.35069 0.03939
# Poissons Ratio (z) = 0.14702 0.00398
#
# Static dielectric constant tensor:
#      x y z
#    x 1.761720 0.000000 0.000000 
#    y 0.000000 1.626680 0.000000 
#    z 0.000000 0.000000 1.780970 
# 
# From -- ./inp_files/22507.got.cif
#   From: 2010.05.17/outbox.cif.g08.bks.cpg/sg62_12_cif.got.tgz:22507.got - 2010.06.03 15:25:27.
