data_PCOD9461185
_publ_section_title
;
Structure prediction by ZEFSAII (Michael W. Deem and Ramdas Pophale) SiO2 
 PCOD9461185
Probable space group: P B C A
;
_chemical_formula_sum "Si O2"
_cell_formula_units_Z 48
_cell_length_a 8.064775
_cell_length_b 13.566650
_cell_length_c 16.583008
_cell_angle_alpha 90.000000
_cell_angle_beta 90.000000
_cell_angle_gamma 90.000000
_cell_volume 1814.379736
_symmetry_space_group_name_H-M "P B C A"
_symmetry_group_IT_number 61
_symmetry_cell_setting 'orthorhombic'
loop_
_space_group_symop_operation_xyz
x,y,z
1/2-x,-y,1/2+z
1/2+x,1/2-y,-z
-x,1/2+y,1/2-z
-x,-y,-z
1/2+x,y,1/2-z
1/2-x,1/2+y,z
x,1/2-y,1/2+z
loop_
_atom_site_type_symbol
_atom_site_label
_atom_site_fract_x
_atom_site_fract_y
_atom_site_fract_z
Si Si1 0.891302 0.608863 0.358597
Si Si2 0.302825 0.087249 0.983820
Si Si3 0.383708 0.825064 0.097064
Si Si4 0.247791 0.374394 0.933808
Si Si5 0.308623 0.080670 0.721978
Si Si6 0.114015 0.317155 0.358825
O O1 0.746822 0.585510 0.423238
O O2 0.880632 0.726200 0.349614
O O3 0.847864 0.909065 0.338218
O O4 0.074301 0.597572 0.397054
O O5 0.446859 0.158948 0.952205
O O6 0.133894 0.128293 0.943862
O O7 0.340696 0.978393 0.950945
O O8 0.128978 0.031572 0.214220
O O9 0.251087 0.826622 0.023872
O O10 0.156115 0.296634 0.875393
O O11 0.443553 0.153693 0.682501
O O12 0.252836 0.126727 0.805452
#
# Coordination Sequence:
#
# PCOD9461185 Si02
#       6
#     8   8   8   8   8   8
#     4  12  24  46  78 110 149 199 241 314 371 444
#     4  12  24  45  77 115 150 189 253 305 372 448
#     4  12  25  44  77 118 148 194 251 308 369 457
#     4  12  25  45  77 110 150 200 246 306 377 439
#     4  12  29  50  73 104 155 195 252 312 380 451
#     4  12  27  49  72 105 149 198 251 312 372 453
#
# _framework density 26.455321999999999
#
# number of rings (size 3 to 8) (size 9 to 14) (size 15 to 20)
#    0.000    0.000    6.667    3.000    2.333    1.333 
#    0.000    0.000    0.000    0.000    0.000    0.000 
#    0.000    0.000    0.000    0.000    0.000    0.000 
#
# Total GULP energy -268838.672191 kJ/mol
# GULP energy per Si atom -5600.805671 kJ/mol
# Density = 2.639511 g / cm^3
# Si number density = 26.455322 Si / 1000 Ang^3
#
#
#
# Elastic Constant Matrix: (Units=GPa)
#
#
# Indices 1 2 3 4 5 6 
#
# 1 83.1153 20.9324 8.3562 0.0000 0.0000 0.0000
# 2 20.9324 177.3640 26.3631 0.0000 0.0000 0.0000
# 3 8.3562 26.3631 65.2472 0.0000 0.0000 0.0000
# 4 0.0000 0.0000 0.0000 46.8755 0.0000 0.0000
# 5 0.0000 0.0000 0.0000 0.0000 38.8863 0.0000
# 6 0.0000 0.0000 0.0000 0.0000 0.0000 41.2829
#
#
#
# Elastic Compliance Matrix: (Units=1/GPa)
#
#
# Indices 1 2 3 4 5 6 
#
# 1 0.012469 -0.001313 -0.001066 0.000000 0.000000 0.000000
# 2 -0.001313 0.006137 -0.002311 0.000000 0.000000 0.000000
# 3 -0.001066 -0.002311 0.016397 0.000000 0.000000 0.000000
# 4 0.000000 0.000000 0.000000 0.021333 0.000000 0.000000
# 5 0.000000 0.000000 0.000000 0.000000 0.025716 0.000000
# 6 0.000000 0.000000 0.000000 0.000000 0.000000 0.024223
#
#
# Mechanical properties :
#
#
# Convention : Reuss Voigt Hill
#
# Bulk Modulus (GPa) = 39.03028 48.55889 43.79458
# Shear Modulus (GPa) = 40.25858 43.41392 41.83625
#
# Velocity S-wave (km/s) = 3.90520 4.05535 3.98099
# Velocity P-wave (km/s) = 5.92617 6.35002 6.14175
#
# Compressibility (1/GPa) = 0.02562114
#
# Stress axis : x y z
#
# Youngs Moduli (GPa) = 80.19634 162.95530 60.98757
#
# Poissons Ratio (x) = 0.21398 0.06504
# Poissons Ratio (y) = 0.10531 0.14096
# Poissons Ratio (z) = 0.08552 0.37664
#
# Static dielectric constant tensor:
#      x y z
#    x 2.162320 0.000000 0.000000 
#    y 0.000000 2.081920 0.000000 
#    z 0.000000 0.000000 2.066600 
# 
# From -- ./inp_files/8928.got.cif
#   From: 2010.05.17/outbox.cif.g08.bks.cpg/sg61_5_cif.got.tgz:8928.got - 2010.06.03 15:17:17.
