data_PCOD9461042
_publ_section_title
;
Structure prediction by ZEFSAII (Michael W. Deem and Ramdas Pophale) SiO2 
 PCOD9461042
Probable space group: P B C A
;
_chemical_formula_sum "Si O2"
_cell_formula_units_Z 32
_cell_length_a 8.204757
_cell_length_b 7.890152
_cell_length_c 19.677232
_cell_angle_alpha 90.000000
_cell_angle_beta 90.000000
_cell_angle_gamma 90.000000
_cell_volume 1273.840636
_symmetry_space_group_name_H-M "P B C A"
_symmetry_group_IT_number 61
_symmetry_cell_setting 'orthorhombic'
loop_
_space_group_symop_operation_xyz
x,y,z
1/2-x,-y,1/2+z
1/2+x,1/2-y,-z
-x,1/2+y,1/2-z
-x,-y,-z
1/2+x,y,1/2-z
1/2-x,1/2+y,z
x,1/2-y,1/2+z
loop_
_atom_site_type_symbol
_atom_site_label
_atom_site_fract_x
_atom_site_fract_y
_atom_site_fract_z
Si Si1 0.349754 0.402570 0.831135
Si Si2 0.509193 0.269723 0.703395
Si Si3 0.486001 0.767489 0.543665
Si Si4 0.848005 0.098360 0.421054
O O1 0.449427 0.280821 0.780203
O O2 0.426558 0.586267 0.818489
O O3 0.161898 0.392706 0.810521
O O4 0.373613 0.339864 0.907882
O O5 0.362807 0.332108 0.655039
O O6 0.420577 0.588664 0.573054
O O7 0.333978 0.893414 0.549948
O O8 0.546242 0.722100 0.468991
#
# Coordination Sequence:
#
# PCOD9461042 Si02
#       4
#     8   8   8   8
#     4  12  25  43  66  93 127 165 209 258 312 371
#     4  12  25  43  66  93 127 165 209 258 312 371
#     4  11  24  42  65  94 128 166 209 257 311 370
#     4  11  24  42  65  94 128 166 209 257 311 370
#
# _framework density 25.120882999999999
#
# number of rings (size 3 to 8) (size 9 to 14) (size 15 to 20)
#    0.000    0.500    0.000    9.000    0.000    8.000 
#    0.000    0.000    0.000    0.000    0.000    0.000 
#    0.000    0.000    0.000    0.000    0.000    0.000 
#
# Total GULP energy -179650.327799 kJ/mol
# GULP energy per Si atom -5614.072744 kJ/mol
# Density = 2.506371 g / cm^3
# Si number density = 25.120883 Si / 1000 Ang^3
#
#
#
# Elastic Constant Matrix: (Units=GPa)
#
#
# Indices 1 2 3 4 5 6 
#
# 1 74.1324 -20.8129 -2.6342 0.0000 0.0000 0.0000
# 2 -20.8129 114.4230 17.3434 0.0000 0.0000 0.0000
# 3 -2.6342 17.3434 71.2705 0.0000 0.0000 0.0000
# 4 0.0000 0.0000 0.0000 28.7980 0.0000 0.0000
# 5 0.0000 0.0000 0.0000 0.0000 36.7568 0.0000
# 6 0.0000 0.0000 0.0000 0.0000 0.0000 25.6568
#
#
#
# Elastic Compliance Matrix: (Units=1/GPa)
#
#
# Indices 1 2 3 4 5 6 
#
# 1 0.014216 0.002602 -0.000108 0.000000 0.000000 0.000000
# 2 0.002602 0.009551 -0.002228 0.000000 0.000000 0.000000
# 3 -0.000108 -0.002228 0.014569 0.000000 0.000000 0.000000
# 4 0.000000 0.000000 0.000000 0.034725 0.000000 0.000000
# 5 0.000000 0.000000 0.000000 0.000000 0.027206 0.000000
# 6 0.000000 0.000000 0.000000 0.000000 0.000000 0.038976
#
#
# Mechanical properties :
#
#
# Convention : Reuss Voigt Hill
#
# Bulk Modulus (GPa) = 25.72756 27.51315 26.62035
# Shear Modulus (GPa) = 32.96725 35.97095 34.46910
#
# Velocity S-wave (km/s) = 3.62656 3.78817 3.70824
# Velocity P-wave (km/s) = 5.27254 5.48723 5.38096
#
# Compressibility (1/GPa) = 0.03886883
#
# Stress axis : x y z
#
# Youngs Moduli (GPa) = 70.34265 104.70640 68.63787
#
# Poissons Ratio (x) = -0.27246 0.00740
# Poissons Ratio (y) = -0.18304 0.15292
# Poissons Ratio (z) = 0.00758 0.23328
#
# Static dielectric constant tensor:
#      x y z
#    x 1.951720 0.000000 0.000000 
#    y 0.000000 1.973780 0.000000 
#    z 0.000000 0.000000 1.885380 
# 
# From -- ./inp_files/1652.got.cif
#   From: 2010.05.17/outbox.cif.g08.bks.cpg/sg61_1_cif.got.tgz:1652.got - 2010.06.03 15:17:17.
