data_PCOD9461182
_publ_section_title
;
Structure prediction by ZEFSAII (Michael W. Deem and Ramdas Pophale) SiO2 
 PCOD9461182
Probable space group: P B C A
;
_chemical_formula_sum "Si O2"
_cell_formula_units_Z 36
_cell_length_a 9.626392
_cell_length_b 8.767938
_cell_length_c 16.797764
_cell_angle_alpha 90.000000
_cell_angle_beta 90.000000
_cell_angle_gamma 90.000000
_cell_volume 1417.791892
_symmetry_space_group_name_H-M "P B C A"
_symmetry_group_IT_number 61
_symmetry_cell_setting 'orthorhombic'
loop_
_space_group_symop_operation_xyz
x,y,z
1/2-x,-y,1/2+z
1/2+x,1/2-y,-z
-x,1/2+y,1/2-z
-x,-y,-z
1/2+x,y,1/2-z
1/2-x,1/2+y,z
x,1/2-y,1/2+z
loop_
_atom_site_type_symbol
_atom_site_label
_atom_site_fract_x
_atom_site_fract_y
_atom_site_fract_z
Si Si1 0.634853 0.939187 0.794345
Si Si2 0.157503 0.505850 0.845556
Si Si3 0.358909 0.124259 0.615841
Si Si4 0.729161 0.249671 0.540204
Si Si5 0.500000 0.500000 0.000000
O O1 0.722548 0.956530 0.714779
O O2 0.481898 0.007644 0.794123
O O3 0.625814 0.767179 0.827080
O O4 0.723725 0.034415 0.858491
O O5 0.188757 0.660643 0.891464
O O6 0.143929 0.381929 0.916107
O O7 0.339688 0.172122 0.521096
O O8 0.492937 0.022918 0.598950
O O9 0.627354 0.134194 0.495611
#
# Coordination Sequence:
#
# PCOD9461182 Si02
#       5
#     8   8   8   8   4
#     4  12  29  47  72 107 148 194 241 300 364 435
#     4  12  29  47  72 107 148 194 241 300 364 435
#     4  12  26  46  76 106 144 187 245 300 364 429
#     4  12  26  46  76 106 144 187 245 300 364 429
#     4  12  24  44  76 108 140 180 244 302 358 430
#
# _framework density 25.391597999999998
#
# number of rings (size 3 to 8) (size 9 to 14) (size 15 to 20)
#    0.000    0.000    6.667    1.333    6.222    7.111 
#    0.000    0.000    0.000    0.000    0.000    0.000 
#    0.000    0.000    0.000    0.000    0.000    0.000 
#
# Total GULP energy -201031.484732 kJ/mol
# GULP energy per Si atom -5584.207909 kJ/mol
# Density = 2.533381 g / cm^3
# Si number density = 25.391598 Si / 1000 Ang^3
#
#
#
# Elastic Constant Matrix: (Units=GPa)
#
#
# Indices 1 2 3 4 5 6 
#
# 1 101.7072 12.8746 39.4324 0.0000 0.0000 0.0000
# 2 12.8746 88.9506 30.6621 0.0000 0.0000 0.0000
# 3 39.4324 30.6621 129.8025 0.0000 0.0000 0.0000
# 4 0.0000 0.0000 0.0000 59.7082 0.0000 0.0000
# 5 0.0000 0.0000 0.0000 0.0000 53.4861 0.0000
# 6 0.0000 0.0000 0.0000 0.0000 0.0000 19.0635
#
#
#
# Elastic Compliance Matrix: (Units=1/GPa)
#
#
# Indices 1 2 3 4 5 6 
#
# 1 0.011164 -0.000486 -0.003277 0.000000 0.000000 0.000000
# 2 -0.000486 0.012260 -0.002748 0.000000 0.000000 0.000000
# 3 -0.003277 -0.002748 0.009349 0.000000 0.000000 0.000000
# 4 0.000000 0.000000 0.000000 0.016748 0.000000 0.000000
# 5 0.000000 0.000000 0.000000 0.000000 0.018696 0.000000
# 6 0.000000 0.000000 0.000000 0.000000 0.000000 0.052456
#
#
# Mechanical properties :
#
#
# Convention : Reuss Voigt Hill
#
# Bulk Modulus (GPa) = 50.63283 54.04428 52.33855
# Shear Modulus (GPa) = 35.64314 42.28431 38.96372
#
# Velocity S-wave (km/s) = 3.75071 4.08522 3.92153
# Velocity P-wave (km/s) = 6.22424 6.60171 6.41575
#
# Compressibility (1/GPa) = 0.01975003
#
# Stress axis : x y z
#
# Youngs Moduli (GPa) = 89.57302 81.56630 106.96769
#
# Poissons Ratio (x) = 0.03967 0.35049
# Poissons Ratio (y) = 0.04357 0.29398
# Poissons Ratio (z) = 0.29350 0.22417
#
# Static dielectric constant tensor:
#      x y z
#    x 1.363350 0.000000 0.000000 
#    y 0.000000 1.837760 0.000000 
#    z 0.000000 0.000000 1.958790 
# 
# From -- ./inp_files/3271.got.cif
#   From: 2010.05.17/outbox.cif.g08.bks.cpg/sg61_2_cif.got.tgz:3271.got - 2010.06.03 15:17:17.
