data_PCOD9461345
_publ_section_title
;
Structure prediction by ZEFSAII (Michael W. Deem and Ramdas Pophale) SiO2 
 PCOD9461345
Probable space group: P N M A
;
_chemical_formula_sum "Si O2"
_cell_formula_units_Z 52
_cell_length_a 14.304727
_cell_length_b 21.889598
_cell_length_c 6.859805
_cell_angle_alpha 90.000000
_cell_angle_beta 90.000000
_cell_angle_gamma 90.000000
_cell_volume 2147.974544
_symmetry_space_group_name_H-M "P N M A"
_symmetry_group_IT_number 62
_symmetry_cell_setting 'orthorhombic'
loop_
_space_group_symop_operation_xyz
x,y,z
1/2-x,-y,1/2+z
1/2+x,1/2-y,1/2-z
-x,1/2+y,-z
-x,-y,-z
1/2+x,y,1/2-z
1/2-x,1/2+y,1/2+z
x,1/2-y,z
loop_
_atom_site_type_symbol
_atom_site_label
_atom_site_fract_x
_atom_site_fract_y
_atom_site_fract_z
Si Si1 0.003163 0.417614 0.824768
Si Si2 0.136492 0.819928 0.215157
Si Si3 0.650419 0.320593 0.706330
Si Si4 0.592194 0.851973 0.832826
Si Si5 0.807310 0.646309 0.748891
Si Si6 0.941404 0.750000 0.688120
Si Si7 0.052531 0.045900 0.247252
O O1 0.921218 0.372116 0.892204
O O2 0.077287 0.371804 0.727739
O O3 0.960423 0.474653 0.709492
O O4 0.052762 0.446611 0.012151
O O5 0.112724 0.750000 0.165724
O O6 0.247229 0.827567 0.204225
O O7 0.109106 0.831498 0.442061
O O8 0.616701 0.250000 0.722157
O O9 0.666071 0.332906 0.472886
O O10 0.695659 0.851630 0.741450
O O11 0.518421 0.802852 0.756323
O O12 0.537584 0.915880 0.817463
O O13 0.864064 0.697092 0.632356
O O14 0.852372 0.580868 0.696130
#
# Coordination Sequence:
#
# PCOD9461345 Si02
#       7
#     8   8   8   8   8   4   8
#     4  10  20  37  55  76 111 145 183 229 265 327
#     4  10  20  35  55  80 107 139 179 229 276 326
#     4   9  17  32  55  77 101 146 186 208 275 345
#     4  10  19  34  55  80 107 139 182 224 269 328
#     4   9  17  31  53  78 107 140 179 222 268 328
#     4  10  16  28  52  78 102 132 174 222 258 310
#     4   9  21  36  54  80 106 146 189 220 270 327
#
# _framework density 24.208853999999999
#
# number of rings (size 3 to 8) (size 9 to 14) (size 15 to 20)
#    0.000    2.462    1.538    0.923    0.000    1.846 
#    1.385    3.077    3.385    0.000    0.000    0.000 
#    0.000    0.000    0.000    0.000    0.000    0.000 
#
# Total GULP energy -289842.278618 kJ/mol
# GULP energy per Si atom -5573.889973 kJ/mol
# Density = 2.415375 g / cm^3
# Si number density = 24.208854 Si / 1000 Ang^3
#
#
#
# Elastic Constant Matrix: (Units=GPa)
#
#
# Indices 1 2 3 4 5 6 
#
# 1 175.2962 59.0052 5.8127 0.0000 0.0000 0.0000
# 2 59.0052 148.0803 -0.8069 0.0000 0.0000 0.0000
# 3 5.8127 -0.8069 60.8813 0.0000 0.0000 0.0000
# 4 0.0000 0.0000 0.0000 5.8055 0.0000 0.0000
# 5 0.0000 0.0000 0.0000 0.0000 3.8391 0.0000
# 6 0.0000 0.0000 0.0000 0.0000 0.0000 12.1261
#
#
#
# Elastic Compliance Matrix: (Units=1/GPa)
#
#
# Indices 1 2 3 4 5 6 
#
# 1 0.006615 -0.002640 -0.000667 0.000000 0.000000 0.000000
# 2 -0.002640 0.007807 0.000355 0.000000 0.000000 0.000000
# 3 -0.000667 0.000355 0.016494 0.000000 0.000000 0.000000
# 4 0.000000 0.000000 0.000000 0.172250 0.000000 0.000000
# 5 0.000000 0.000000 0.000000 0.000000 0.260481 0.000000
# 6 0.000000 0.000000 0.000000 0.000000 0.000000 0.082467
#
#
# Mechanical properties :
#
#
# Convention : Reuss Voigt Hill
#
# Bulk Modulus (GPa) = 39.97691 56.91997 48.44844
# Shear Modulus (GPa) = 8.92295 25.70392 17.31343
#
# Velocity S-wave (km/s) = 1.92193 3.26200 2.67717
# Velocity P-wave (km/s) = 4.63404 6.14415 5.44173
#
# Compressibility (1/GPa) = 0.02501444
#
# Stress axis : x y z
#
# Youngs Moduli (GPa) = 151.16640 128.09310 60.62903
#
# Poissons Ratio (x) = 0.33811 0.04041
# Poissons Ratio (y) = 0.39902 -0.02155
# Poissons Ratio (z) = 0.10076 -0.04554
#
# Static dielectric constant tensor:
#      x y z
#    x 1.862400 0.000000 0.000000 
#    y 0.000000 1.888570 0.000000 
#    z 0.000000 0.000000 2.217050 
# 
# From -- ./inp_files/13488.got.cif
#   From: 2010.05.17/outbox.cif.g08.bks.cpg/sg62_7_cif.got.tgz:13488.got - 2010.06.03 15:25:27.
