data_PCOD9461006
_publ_section_title
;
Structure prediction by ZEFSAII (Michael W. Deem and Ramdas Pophale) SiO2 
 PCOD9461006
Probable space group: P B C A
;
_chemical_formula_sum "Si O2"
_cell_formula_units_Z 64
_cell_length_a 17.793552
_cell_length_b 13.318540
_cell_length_c 13.590143
_cell_angle_alpha 90.000000
_cell_angle_beta 90.000000
_cell_angle_gamma 90.000000
_cell_volume 3220.648271
_symmetry_space_group_name_H-M "P B C A"
_symmetry_group_IT_number 61
_symmetry_cell_setting 'orthorhombic'
loop_
_space_group_symop_operation_xyz
x,y,z
1/2-x,-y,1/2+z
1/2+x,1/2-y,-z
-x,1/2+y,1/2-z
-x,-y,-z
1/2+x,y,1/2-z
1/2-x,1/2+y,z
x,1/2-y,1/2+z
loop_
_atom_site_type_symbol
_atom_site_label
_atom_site_fract_x
_atom_site_fract_y
_atom_site_fract_z
Si Si1 0.843945 0.733531 0.253603
Si Si2 0.089674 0.747326 0.373454
Si Si3 0.254759 0.735652 0.939998
Si Si4 0.010645 0.751970 0.679311
Si Si5 0.938202 0.421825 0.463709
Si Si6 0.477817 0.614541 0.511327
Si Si7 0.307655 0.609749 0.590081
Si Si8 0.800924 0.566238 0.412387
O O1 0.806582 0.726016 0.147726
O O2 0.932623 0.746470 0.238733
O O3 0.812632 0.832700 0.306897
O O4 0.822728 0.639053 0.322098
O O5 0.172912 0.786193 0.396673
O O6 0.078398 0.651637 0.444406
O O7 0.074775 0.723257 0.259229
O O8 0.028929 0.829911 0.407582
O O9 0.253056 0.823625 0.021225
O O10 0.289915 0.639390 0.994191
O O11 0.997594 0.829830 0.590650
O O12 0.031019 0.647780 0.625017
O O13 0.867056 0.486762 0.429969
O O14 0.000000 0.500000 0.500000
O O15 0.500000 0.500000 0.500000
O O16 0.390305 0.618667 0.541570
O O17 0.274897 0.498562 0.600950
#
# Coordination Sequence:
#
# PCOD9461006 Si02
#       8
#     8   8   8   8   8   8   8   8
#     4  11  24  44  70  97 136 178 222 288 338 406
#     4  11  24  43  68 100 133 175 222 284 337 411
#     4  11  24  44  68  94 139 177 224 282 347 402
#     4  11  24  44  68  99 136 176 227 282 344 401
#     4  11  24  43  68  98 136 178 225 276 341 414
#     4  11  24  43  68  93 136 176 221 275 342 407
#     4  11  23  45  66  99 133 178 224 276 343 410
#     4  11  25  44  70  97 137 179 229 278 345 416
#
# _framework density 19.871776000000001
#
# number of rings (size 3 to 8) (size 9 to 14) (size 15 to 20)
#    0.000    1.000    3.750    2.250    5.250    5.000 
#    4.500    0.000    0.000    0.000    0.000    0.000 
#    0.000    0.000    0.000    0.000    0.000    0.000 
#
# Total GULP energy -357702.410340 kJ/mol
# GULP energy per Si atom -5589.100162 kJ/mol
# Density = 1.982655 g / cm^3
# Si number density = 19.871776 Si / 1000 Ang^3
#
#
#
# Elastic Constant Matrix: (Units=GPa)
#
#
# Indices 1 2 3 4 5 6 
#
# 1 95.4613 36.8145 12.3341 0.0000 0.0000 0.0000
# 2 36.8145 114.7201 26.2273 0.0000 0.0000 0.0000
# 3 12.3341 26.2273 67.7847 0.0000 0.0000 0.0000
# 4 0.0000 0.0000 0.0000 10.4797 0.0000 0.0000
# 5 0.0000 0.0000 0.0000 0.0000 18.5921 0.0000
# 6 0.0000 0.0000 0.0000 0.0000 0.0000 41.3942
#
#
#
# Elastic Compliance Matrix: (Units=1/GPa)
#
#
# Indices 1 2 3 4 5 6 
#
# 1 0.011991 -0.003674 -0.000760 0.000000 0.000000 0.000000
# 2 -0.003674 0.010689 -0.003467 0.000000 0.000000 0.000000
# 3 -0.000760 -0.003467 0.016232 0.000000 0.000000 0.000000
# 4 0.000000 0.000000 0.000000 0.095422 0.000000 0.000000
# 5 0.000000 0.000000 0.000000 0.000000 0.053786 0.000000
# 6 0.000000 0.000000 0.000000 0.000000 0.000000 0.024158
#
#
# Mechanical properties :
#
#
# Convention : Reuss Voigt Hill
#
# Bulk Modulus (GPa) = 43.27362 47.63532 45.45447
# Shear Modulus (GPa) = 21.20585 27.59920 24.40253
#
# Velocity S-wave (km/s) = 3.27025 3.73079 3.50808
# Velocity P-wave (km/s) = 6.00692 6.52547 6.27156
#
# Compressibility (1/GPa) = 0.02310876
#
# Stress axis : x y z
#
# Youngs Moduli (GPa) = 83.39884 93.55814 61.60517
#
# Poissons Ratio (x) = 0.34374 0.04684
# Poissons Ratio (y) = 0.30641 0.21359
# Poissons Ratio (z) = 0.06340 0.32437
#
# Static dielectric constant tensor:
#      x y z
#    x 1.762700 0.000000 0.000000 
#    y 0.000000 1.664910 0.000000 
#    z 0.000000 0.000000 1.704520 
# 
# From -- ./inp_files/8201.got.cif
#   From: 2010.05.17/outbox.cif.g08.bks.cpg/sg61_5_cif.got.tgz:8201.got - 2010.06.03 15:17:17.
