data_PCOD9461358
_publ_section_title
;
Structure prediction by ZEFSAII (Michael W. Deem and Ramdas Pophale) SiO2 
 PCOD9461358
Probable space group: P N M A
;
_chemical_formula_sum "Si O2"
_cell_formula_units_Z 56
_cell_length_a 9.507425
_cell_length_b 18.182536
_cell_length_c 17.556281
_cell_angle_alpha 90.000000
_cell_angle_beta 90.000000
_cell_angle_gamma 90.000000
_cell_volume 3034.938449
_symmetry_space_group_name_H-M "P N M A"
_symmetry_group_IT_number 62
_symmetry_cell_setting 'orthorhombic'
loop_
_space_group_symop_operation_xyz
x,y,z
1/2-x,-y,1/2+z
1/2+x,1/2-y,1/2-z
-x,1/2+y,-z
-x,-y,-z
1/2+x,y,1/2-z
1/2-x,1/2+y,1/2+z
x,1/2-y,z
loop_
_atom_site_type_symbol
_atom_site_label
_atom_site_fract_x
_atom_site_fract_y
_atom_site_fract_z
Si Si1 0.152291 0.596129 0.729360
Si Si2 0.252114 0.581311 0.564948
Si Si3 0.312024 0.992100 0.925298
Si Si4 0.738235 0.832265 0.617102
Si Si5 0.989035 0.462781 0.887688
Si Si6 0.599185 0.501927 0.233664
Si Si7 0.010729 0.331358 0.998019
O O1 0.178016 0.611121 0.640708
O O2 0.203387 0.651903 0.794140
O O3 0.243108 0.522176 0.745826
O O4 0.992179 0.572835 0.741965
O O5 0.161904 0.532233 0.505604
O O6 0.379663 0.526901 0.590371
O O7 0.331740 0.646612 0.521735
O O8 0.321184 0.903209 0.916898
O O9 0.401441 0.024084 0.854480
O O10 0.146924 0.010297 0.906522
O O11 0.800034 0.750000 0.608304
O O12 0.591120 0.832918 0.571123
O O13 0.962361 0.446508 0.798894
O O14 0.959725 0.392780 0.939461
O O15 0.005169 0.250000 0.965148
#
# Coordination Sequence:
#
# PCOD9461358 Si02
#       7
#     8   8   8   8   8   8   8
#     4  10  20  32  47  75 106 138 169 207 255 309
#     4  10  18  31  52  72 105 134 173 213 255 301
#     4  10  17  31  51  74  99 135 175 213 256 306
#     4  10  17  29  47  73 106 135 167 208 253 309
#     4  10  16  32  51  73 101 135 168 219 252 298
#     4  10  18  31  52  74 102 130 173 212 257 300
#     4  10  18  29  52  78 101 130 175 214 256 304
#
# _framework density 18.451774
#
# number of rings (size 3 to 8) (size 9 to 14) (size 15 to 20)
#    0.000    2.000    5.714    1.714    0.000    1.143 
#    0.000    4.286    0.000    3.429    0.000    1.000 
#    0.000    0.000    0.000    0.000    0.000    0.000 
#
# Total GULP energy -311896.349079 kJ/mol
# GULP energy per Si atom -5569.577662 kJ/mol
# Density = 1.840978 g / cm^3
# Si number density = 18.451774 Si / 1000 Ang^3
#
#
#
# Elastic Constant Matrix: (Units=GPa)
#
#
# Indices 1 2 3 4 5 6 
#
# 1 25.8524 4.5848 0.0965 0.0000 0.0000 0.0000
# 2 4.5848 78.8213 33.1676 0.0000 0.0000 0.0000
# 3 0.0965 33.1676 102.6060 0.0000 0.0000 0.0000
# 4 0.0000 0.0000 0.0000 20.2629 0.0000 0.0000
# 5 0.0000 0.0000 0.0000 0.0000 28.4720 0.0000
# 6 0.0000 0.0000 0.0000 0.0000 0.0000 10.3248
#
#
#
# Elastic Compliance Matrix: (Units=1/GPa)
#
#
# Indices 1 2 3 4 5 6 
#
# 1 0.039142 -0.002617 0.000809 0.000000 0.000000 0.000000
# 2 -0.002617 0.014859 -0.004801 0.000000 0.000000 0.000000
# 3 0.000809 -0.004801 0.011297 0.000000 0.000000 0.000000
# 4 0.000000 0.000000 0.000000 0.049351 0.000000 0.000000
# 5 0.000000 0.000000 0.000000 0.000000 0.035122 0.000000
# 6 0.000000 0.000000 0.000000 0.000000 0.000000 0.096854
#
#
# Mechanical properties :
#
#
# Convention : Reuss Voigt Hill
#
# Bulk Modulus (GPa) = 19.20089 31.44194 25.32142
# Shear Modulus (GPa) = 18.03721 23.10733 20.57227
#
# Velocity S-wave (km/s) = 3.12994 3.54264 3.34267
# Velocity P-wave (km/s) = 4.84671 5.81470 5.35263
#
# Compressibility (1/GPa) = 0.05208091
#
# Stress axis : x y z
#
# Youngs Moduli (GPa) = 25.54782 67.29780 88.51799
#
# Poissons Ratio (x) = 0.17614 -0.07163
# Poissons Ratio (y) = 0.06687 0.42496
# Poissons Ratio (z) = -0.02067 0.32309
#
# Static dielectric constant tensor:
#      x y z
#    x 1.659300 0.000000 0.000000 
#    y 0.000000 1.620670 0.000000 
#    z 0.000000 0.000000 1.722430 
# 
# From -- ./inp_files/23279.got.cif
#   From: 2010.05.17/outbox.cif.g08.bks.cpg/sg62_12_cif.got.tgz:23279.got - 2010.06.03 15:25:27.
