data_PCOD9461134
_publ_section_title
;
Structure prediction by ZEFSAII (Michael W. Deem and Ramdas Pophale) SiO2 
 PCOD9461134
Probable space group: P B C A
;
_chemical_formula_sum "Si O2"
_cell_formula_units_Z 40
_cell_length_a 9.587296
_cell_length_b 23.042190
_cell_length_c 7.461519
_cell_angle_alpha 90.000000
_cell_angle_beta 90.000000
_cell_angle_gamma 90.000000
_cell_volume 1648.341294
_symmetry_space_group_name_H-M "P B C A"
_symmetry_group_IT_number 61
_symmetry_cell_setting 'orthorhombic'
loop_
_space_group_symop_operation_xyz
x,y,z
1/2-x,-y,1/2+z
1/2+x,1/2-y,-z
-x,1/2+y,1/2-z
-x,-y,-z
1/2+x,y,1/2-z
1/2-x,1/2+y,z
x,1/2-y,1/2+z
loop_
_atom_site_type_symbol
_atom_site_label
_atom_site_fract_x
_atom_site_fract_y
_atom_site_fract_z
Si Si1 0.303799 0.704938 0.165746
Si Si2 0.181358 0.047079 0.889764
Si Si3 0.513129 0.648410 0.439991
Si Si4 0.363319 0.672706 0.785137
Si Si5 0.563403 0.028627 0.222664
O O1 0.281104 0.772946 0.202067
O O2 0.157277 0.674150 0.130501
O O3 0.386821 0.821687 0.831603
O O4 0.395645 0.693090 0.987294
O O5 0.208878 0.109932 0.804164
O O6 0.312911 0.004943 0.876378
O O7 0.130235 0.054091 0.093894
O O8 0.055465 0.015741 0.785327
O O9 0.489699 0.662006 0.648509
O O10 0.499169 0.580818 0.392526
#
# Coordination Sequence:
#
# PCOD9461134 Si02
#       5
#     8   8   8   8   8
#     4  12  29  49  78 114 155 208 260 319 393 456
#     4  11  26  45  79 111 158 195 259 314 389 463
#     4  12  28  50  82 111 162 199 259 326 384 470
#     4  12  28  49  75 114 153 207 258 319 388 464
#     4  11  25  49  75 118 150 202 251 320 387 464
#
# _framework density 24.266817
#
# number of rings (size 3 to 8) (size 9 to 14) (size 15 to 20)
#    0.000    0.400    4.000    2.400    5.600    4.800 
#    0.000    0.000    0.000    0.000    0.000    0.000 
#    0.000    0.000    0.000    0.000    0.000    0.000 
#
# Total GULP energy -224313.192708 kJ/mol
# GULP energy per Si atom -5607.829818 kJ/mol
# Density = 2.421159 g / cm^3
# Si number density = 24.266817 Si / 1000 Ang^3
#
#
#
# Elastic Constant Matrix: (Units=GPa)
#
#
# Indices 1 2 3 4 5 6 
#
# 1 96.9197 57.3926 21.6719 0.0000 0.0000 0.0000
# 2 57.3926 170.0786 42.1898 0.0000 0.0000 0.0000
# 3 21.6719 42.1898 116.0555 0.0000 0.0000 0.0000
# 4 0.0000 0.0000 0.0000 48.2781 0.0000 0.0000
# 5 0.0000 0.0000 0.0000 0.0000 25.5116 0.0000
# 6 0.0000 0.0000 0.0000 0.0000 0.0000 32.4991
#
#
#
# Elastic Compliance Matrix: (Units=1/GPa)
#
#
# Indices 1 2 3 4 5 6 
#
# 1 0.012982 -0.004154 -0.000914 0.000000 0.000000 0.000000
# 2 -0.004154 0.007792 -0.002057 0.000000 0.000000 0.000000
# 3 -0.000914 -0.002057 0.009535 0.000000 0.000000 0.000000
# 4 0.000000 0.000000 0.000000 0.020713 0.000000 0.000000
# 5 0.000000 0.000000 0.000000 0.000000 0.039198 0.000000
# 6 0.000000 0.000000 0.000000 0.000000 0.000000 0.030770
#
#
# Mechanical properties :
#
#
# Convention : Reuss Voigt Hill
#
# Bulk Modulus (GPa) = 62.27106 69.50693 65.88899
# Shear Modulus (GPa) = 35.56372 38.71107 37.13739
#
# Velocity S-wave (km/s) = 3.83238 3.99836 3.91625
# Velocity P-wave (km/s) = 6.73049 7.07254 6.90363
#
# Compressibility (1/GPa) = 0.01605883
#
# Stress axis : x y z
#
# Youngs Moduli (GPa) = 77.02912 128.34321 104.87709
#
# Poissons Ratio (x) = 0.53314 0.09587
# Poissons Ratio (y) = 0.31998 0.21571
# Poissons Ratio (z) = 0.07041 0.26397
#
# Static dielectric constant tensor:
#      x y z
#    x 1.878220 0.000000 0.000000 
#    y 0.000000 1.920330 0.000000 
#    z 0.000000 0.000000 1.933560 
# 
# From -- ./inp_files/1762.got.cif
#   From: 2010.05.17/outbox.cif.g08.bks.cpg/sg61_1_cif.got.tgz:1762.got - 2010.06.03 15:17:17.
