data_PCOD9461017
_publ_section_title
;
Structure prediction by ZEFSAII (Michael W. Deem and Ramdas Pophale) SiO2 
 PCOD9461017
Probable space group: P B C A
;
_chemical_formula_sum "Si O2"
_cell_formula_units_Z 64
_cell_length_a 10.728827
_cell_length_b 29.892592
_cell_length_c 9.477549
_cell_angle_alpha 90.000000
_cell_angle_beta 90.000000
_cell_angle_gamma 90.000000
_cell_volume 3039.567942
_symmetry_space_group_name_H-M "P B C A"
_symmetry_group_IT_number 61
_symmetry_cell_setting 'orthorhombic'
loop_
_space_group_symop_operation_xyz
x,y,z
1/2-x,-y,1/2+z
1/2+x,1/2-y,-z
-x,1/2+y,1/2-z
-x,-y,-z
1/2+x,y,1/2-z
1/2-x,1/2+y,z
x,1/2-y,1/2+z
loop_
_atom_site_type_symbol
_atom_site_label
_atom_site_fract_x
_atom_site_fract_y
_atom_site_fract_z
Si Si1 0.633872 0.088158 0.868732
Si Si2 0.303701 0.180770 0.220972
Si Si3 0.249897 0.176767 0.536565
Si Si4 0.387618 0.548800 0.321105
Si Si5 0.446596 0.273114 0.161852
Si Si6 0.343912 0.414915 0.641111
Si Si7 0.603460 0.258486 0.895947
Si Si8 0.865950 0.056882 0.680462
O O1 0.653680 0.139132 0.917975
O O2 0.752187 0.074737 0.774275
O O3 0.500846 0.079896 0.794906
O O4 0.633645 0.059126 0.012893
O O5 0.301459 0.164679 0.382554
O O6 0.384099 0.225577 0.200383
O O7 0.349963 0.138885 0.131700
O O8 0.168628 0.198085 0.169007
O O9 0.351521 0.185773 0.658941
O O10 0.195938 0.226846 0.515814
O O11 0.277950 0.571745 0.230767
O O12 0.526816 0.567380 0.291241
O O13 0.382488 0.495958 0.295700
O O14 0.557891 0.274233 0.272061
O O15 0.496141 0.270816 0.003444
O O16 0.335660 0.434797 0.484311
#
# Coordination Sequence:
#
# PCOD9461017 Si02
#       8
#     8   8   8   8   8   8   8   8
#     4  11  25  44  71  99 140 182 226 289 342 417
#     4  11  24  43  64  99 129 174 230 275 339 401
#     4  11  24  42  62  98 129 176 226 272 338 400
#     4  11  23  46  71 102 138 182 226 286 356 416
#     4  11  24  40  67  91 133 173 219 277 333 398
#     4  11  25  41  75 100 136 183 230 283 344 418
#     4  11  24  40  68  90 133 174 216 279 331 401
#     4  11  25  46  68 104 140 178 229 291 351 411
#
# _framework density 21.055624000000002
#
# number of rings (size 3 to 8) (size 9 to 14) (size 15 to 20)
#    0.000    1.000    3.750    3.000    7.000    2.000 
#    0.000    2.500    0.000    0.000    0.000    0.000 
#    0.000    0.000    0.000    0.000    0.000    0.000 
#
# Total GULP energy -357472.426881 kJ/mol
# GULP energy per Si atom -5585.506670 kJ/mol
# Density = 2.100770 g / cm^3
# Si number density = 21.055624 Si / 1000 Ang^3
#
#
#
# Elastic Constant Matrix: (Units=GPa)
#
#
# Indices 1 2 3 4 5 6 
#
# 1 97.3533 -0.1034 26.6541 0.0000 0.0000 0.0000
# 2 -0.1034 64.7490 -4.2712 0.0000 0.0000 0.0000
# 3 26.6541 -4.2712 41.3404 0.0000 0.0000 0.0000
# 4 0.0000 0.0000 0.0000 10.5863 0.0000 0.0000
# 5 0.0000 0.0000 0.0000 0.0000 39.2268 0.0000
# 6 0.0000 0.0000 0.0000 0.0000 0.0000 37.7836
#
#
#
# Elastic Compliance Matrix: (Units=1/GPa)
#
#
# Indices 1 2 3 4 5 6 
#
# 1 0.012491 -0.000515 -0.008107 0.000000 0.000000 0.000000
# 2 -0.000515 0.015571 0.001941 0.000000 0.000000 0.000000
# 3 -0.008107 0.001941 0.029617 0.000000 0.000000 0.000000
# 4 0.000000 0.000000 0.000000 0.094462 0.000000 0.000000
# 5 0.000000 0.000000 0.000000 0.000000 0.025493 0.000000
# 6 0.000000 0.000000 0.000000 0.000000 0.000000 0.026467
#
#
# Mechanical properties :
#
#
# Convention : Reuss Voigt Hill
#
# Bulk Modulus (GPa) = 22.56444 27.55576 25.06010
# Shear Modulus (GPa) = 21.53003 29.59687 25.56345
#
# Velocity S-wave (km/s) = 3.20117 3.75327 3.48816
# Velocity P-wave (km/s) = 4.93996 5.64785 5.30573
#
# Compressibility (1/GPa) = 0.04431751
#
# Stress axis : x y z
#
# Youngs Moduli (GPa) = 80.05892 64.22004 33.76485
#
# Poissons Ratio (x) = 0.03306 0.27372
# Poissons Ratio (y) = 0.04122 -0.06553
# Poissons Ratio (z) = 0.64901 -0.12463
#
# Static dielectric constant tensor:
#      x y z
#    x 1.880000 0.000000 0.000000 
#    y 0.000000 1.711910 0.000000 
#    z 0.000000 0.000000 1.756140 
# 
# From -- ./inp_files/2457.got.cif
#   From: 2010.05.17/outbox.cif.g08.bks.cpg/sg61_2_cif.got.tgz:2457.got - 2010.06.03 15:17:17.
