data_PCOD9461826
_publ_section_title
;
Structure prediction by ZEFSAII (Michael W. Deem and Ramdas Pophale) SiO2 
 PCOD9461826
Probable space group: P N M A
;
_chemical_formula_sum "Si O2"
_cell_formula_units_Z 64
_cell_length_a 11.061370
_cell_length_b 18.734072
_cell_length_c 13.477429
_cell_angle_alpha 90.000000
_cell_angle_beta 90.000000
_cell_angle_gamma 90.000000
_cell_volume 2792.853513
_symmetry_space_group_name_H-M "P N M A"
_symmetry_group_IT_number 62
_symmetry_cell_setting 'orthorhombic'
loop_
_space_group_symop_operation_xyz
x,y,z
1/2-x,-y,1/2+z
1/2+x,1/2-y,1/2-z
-x,1/2+y,-z
-x,-y,-z
1/2+x,y,1/2-z
1/2-x,1/2+y,1/2+z
x,1/2-y,z
loop_
_atom_site_type_symbol
_atom_site_label
_atom_site_fract_x
_atom_site_fract_y
_atom_site_fract_z
Si Si1 0.156374 0.519586 0.907254
Si Si2 0.292191 0.595809 0.548461
Si Si3 0.363036 0.828851 0.736865
Si Si4 0.565291 0.832043 0.022972
Si Si5 0.435451 0.556392 0.878743
Si Si6 0.177287 0.326400 0.619554
Si Si7 0.172299 0.673488 0.915289
Si Si8 0.653059 0.020939 0.819213
O O1 0.302963 0.533390 0.914244
O O2 0.103951 0.598793 0.923641
O O3 0.136924 0.494871 0.795754
O O4 0.126188 0.457128 0.983418
O O5 0.336903 0.657477 0.622075
O O6 0.197023 0.632800 0.472735
O O7 0.229145 0.540711 0.626502
O O8 0.418261 0.750000 0.753090
O O9 0.430756 0.899207 0.776134
O O10 0.245948 0.829077 0.810948
O O11 0.575691 0.750000 0.986567
O O12 0.496688 0.884583 0.947646
O O13 0.468958 0.827902 0.112179
O O14 0.521570 0.488494 0.869503
O O15 0.213289 0.250000 0.665907
O O16 0.234784 0.325247 0.508623
O O17 0.211572 0.401691 0.666483
O O18 0.107434 0.750000 0.919185
#
# Coordination Sequence:
#
# PCOD9461826 Si02
#       8
#     8   8   8   8   8   8   8   8
#     4  11  20  35  52  80 110 139 180 225 264 319
#     4  11  20  31  52  79 108 142 177 221 271 324
#     4  10  18  33  50  74 110 145 171 210 274 322
#     4  10  18  30  51  83 111 134 170 220 279 328
#     4  10  19  33  53  80 109 142 169 226 271 324
#     4  10  18  32  53  77 107 140 173 222 273 321
#     4   9  16  28  48  73 101 135 169 207 263 317
#     4  11  21  34  54  81 106 141 186 217 271 324
#
# _framework density 22.91563
#
# number of rings (size 3 to 8) (size 9 to 14) (size 15 to 20)
#    0.000    1.750    6.250    1.500    0.000    2.000 
#    0.000    2.500    0.000    0.750    0.000    0.000 
#    0.000    0.000    0.000    0.000    0.000    0.000 
#
# Total GULP energy -356910.229767 kJ/mol
# GULP energy per Si atom -5576.722340 kJ/mol
# Density = 2.286347 g / cm^3
# Si number density = 22.915630 Si / 1000 Ang^3
#
#
#
# Elastic Constant Matrix: (Units=GPa)
#
#
# Indices 1 2 3 4 5 6 
#
# 1 34.7220 20.5729 0.9604 0.0000 0.0000 0.0000
# 2 20.5729 171.9825 35.4054 0.0000 0.0000 0.0000
# 3 0.9604 35.4054 47.1263 0.0000 0.0000 0.0000
# 4 0.0000 0.0000 0.0000 -13.3162 0.0000 0.0000
# 5 0.0000 0.0000 0.0000 0.0000 14.3571 0.0000
# 6 0.0000 0.0000 0.0000 0.0000 0.0000 11.9392
#
#
#
# Elastic Compliance Matrix: (Units=1/GPa)
#
#
# Indices 1 2 3 4 5 6 
#
# 1 0.031258 -0.004268 0.002570 0.000000 0.000000 0.000000
# 2 -0.004268 0.007461 -0.005519 0.000000 0.000000 0.000000
# 3 0.002570 -0.005519 0.025313 0.000000 0.000000 0.000000
# 4 0.000000 0.000000 0.000000 -0.075096 0.000000 0.000000
# 5 0.000000 0.000000 0.000000 0.000000 0.069652 0.000000
# 6 0.000000 0.000000 0.000000 0.000000 0.000000 0.083758
#
#
# Mechanical properties :
#
#
# Convention : Reuss Voigt Hill
#
# Bulk Modulus (GPa) = 20.16200 40.85646 30.50923
# Shear Modulus (GPa) = 28.84960 15.72215 22.28588
#
# Velocity S-wave (km/s) = 3.55202 2.62217 3.12191
# Velocity P-wave (km/s) = 5.06358 5.19957 5.13203
#
# Compressibility (1/GPa) = 0.04959826
#
# Stress axis : x y z
#
# Youngs Moduli (GPa) = 31.99183 134.02689 39.50508
#
# Poissons Ratio (x) = 0.57204 -0.10151
# Poissons Ratio (y) = 0.13655 0.21801
# Poissons Ratio (z) = -0.08221 0.73963
#
# Static dielectric constant tensor:
#      x y z
#    x 1.924290 0.000000 0.000000 
#    y 0.000000 1.873300 0.000000 
#    z 0.000000 0.000000 1.858520 
# 
# From -- ./inp_files/18273.got.cif
#   From: 2010.05.17/outbox.cif.g08.bks.cpg/sg62_10_cif.got.tgz:18273.got - 2010.06.03 15:25:27.
