data_PCOD9461972
_publ_section_title
;
Structure prediction by ZEFSAII (Michael W. Deem and Ramdas Pophale) SiO2 
 PCOD9461972
Probable space group: P N M A
;
_chemical_formula_sum "Si O2"
_cell_formula_units_Z 56
_cell_length_a 25.154764
_cell_length_b 23.677943
_cell_length_c 5.000610
_cell_angle_alpha 90.000000
_cell_angle_beta 90.000000
_cell_angle_gamma 90.000000
_cell_volume 2978.428665
_symmetry_space_group_name_H-M "P N M A"
_symmetry_group_IT_number 62
_symmetry_cell_setting 'orthorhombic'
loop_
_space_group_symop_operation_xyz
x,y,z
1/2-x,-y,1/2+z
1/2+x,1/2-y,1/2-z
-x,1/2+y,-z
-x,-y,-z
1/2+x,y,1/2-z
1/2-x,1/2+y,1/2+z
x,1/2-y,z
loop_
_atom_site_type_symbol
_atom_site_label
_atom_site_fract_x
_atom_site_fract_y
_atom_site_fract_z
Si Si1 0.715911 0.687330 0.637403
Si Si2 0.562975 0.818337 0.920871
Si Si3 0.745317 0.961829 0.314088
Si Si4 0.829702 0.369775 0.632382
Si Si5 0.004226 0.317762 0.919011
Si Si6 0.319521 0.646768 0.133889
Si Si7 0.617167 0.317634 0.352715
O O1 0.702546 0.750000 0.726544
O O2 0.677562 0.667805 0.398370
O O3 0.773582 0.684177 0.503931
O O4 0.710719 0.648218 0.895586
O O5 0.573714 0.750000 0.939956
O O6 0.613356 0.854948 0.009799
O O7 0.514556 0.832016 0.122432
O O8 0.542855 0.831846 0.624819
O O9 0.690683 0.931071 0.223456
O O10 0.790666 0.913526 0.330508
O O11 0.739618 0.991069 0.599325
O O12 0.009034 0.250000 0.923469
O O13 0.060809 0.337900 0.027567
O O14 0.339906 0.670590 0.414640
O O15 0.366630 0.650125 0.917113
O O16 0.614846 0.250000 0.296895
#
# Coordination Sequence:
#
# PCOD9461972 Si02
#       7
#     8   8   8   8   8   8   8
#     4  11  20  32  48  78 115 142 165 206 257 325
#     4  10  18  32  50  77 110 142 174 209 249 310
#     4  11  23  41  57  76 103 134 181 237 274 317
#     4  11  22  34  54  79 104 143 183 214 266 320
#     4   9  19  31  49  75 111 148 177 205 245 299
#     4  11  22  34  54  79 104 143 182 213 267 321
#     4  11  20  34  53  82 116 146 175 210 252 316
#
# _framework density 18.801860000000001
#
# number of rings (size 3 to 8) (size 9 to 14) (size 15 to 20)
#    0.000    1.429    0.000    8.571    0.000    3.429 
#    0.000    0.000    0.000    0.000    0.000   20.000 
#    0.000    0.000    0.000    0.000    0.000    0.000 
#
# Total GULP energy -312668.390998 kJ/mol
# GULP energy per Si atom -5583.364125 kJ/mol
# Density = 1.875907 g / cm^3
# Si number density = 18.801860 Si / 1000 Ang^3
#
#
#
# Elastic Constant Matrix: (Units=GPa)
#
#
# Indices 1 2 3 4 5 6 
#
# 1 60.2328 8.5916 -9.7846 0.0000 0.0000 0.0000
# 2 8.5916 48.5212 -3.8718 0.0000 0.0000 0.0000
# 3 -9.7846 -3.8718 58.3778 0.0000 0.0000 0.0000
# 4 0.0000 0.0000 0.0000 35.0200 0.0000 0.0000
# 5 0.0000 0.0000 0.0000 0.0000 23.6321 0.0000
# 6 0.0000 0.0000 0.0000 0.0000 0.0000 17.8212
#
#
#
# Elastic Compliance Matrix: (Units=1/GPa)
#
#
# Indices 1 2 3 4 5 6 
#
# 1 0.017456 -0.002873 0.002735 0.000000 0.000000 0.000000
# 2 -0.002873 0.021192 0.000924 0.000000 0.000000 0.000000
# 3 0.002735 0.000924 0.017650 0.000000 0.000000 0.000000
# 4 0.000000 0.000000 0.000000 0.028555 0.000000 0.000000
# 5 0.000000 0.000000 0.000000 0.000000 0.042315 0.000000
# 6 0.000000 0.000000 0.000000 0.000000 0.000000 0.056113
#
#
# Mechanical properties :
#
#
# Convention : Reuss Voigt Hill
#
# Bulk Modulus (GPa) = 17.27981 17.44470 17.36225
# Shear Modulus (GPa) = 24.87585 26.77445 25.82515
#
# Velocity S-wave (km/s) = 3.64132 3.77773 3.71015
# Velocity P-wave (km/s) = 5.18550 5.32228 5.25433
#
# Compressibility (1/GPa) = 0.05787102
#
# Stress axis : x y z
#
# Youngs Moduli (GPa) = 57.28571 47.18772 56.65872
#
# Poissons Ratio (x) = 0.13556 -0.15498
# Poissons Ratio (y) = 0.16457 -0.05235
# Poissons Ratio (z) = -0.15669 -0.04360
#
# Static dielectric constant tensor:
#      x y z
#    x 1.709020 0.000000 0.000000 
#    y 0.000000 1.628020 0.000000 
#    z 0.000000 0.000000 1.660060 
# 
# From -- ./inp_files/2813.got.cif
#   From: 2010.05.17/outbox.cif.g08.bks.cpg/sg62_2_cif.got.tgz:2813.got - 2010.06.03 15:25:27.
