data_PCOD9461564
_publ_section_title
;
Structure prediction by ZEFSAII (Michael W. Deem and Ramdas Pophale) SiO2 
 PCOD9461564
Probable space group: P N M A
;
_chemical_formula_sum "Si O2"
_cell_formula_units_Z 64
_cell_length_a 17.969692
_cell_length_b 8.043641
_cell_length_c 23.275901
_cell_angle_alpha 90.000000
_cell_angle_beta 90.000000
_cell_angle_gamma 90.000000
_cell_volume 3364.339494
_symmetry_space_group_name_H-M "P N M A"
_symmetry_group_IT_number 62
_symmetry_cell_setting 'orthorhombic'
loop_
_space_group_symop_operation_xyz
x,y,z
1/2-x,-y,1/2+z
1/2+x,1/2-y,1/2-z
-x,1/2+y,-z
-x,-y,-z
1/2+x,y,1/2-z
1/2-x,1/2+y,1/2+z
x,1/2-y,z
loop_
_atom_site_type_symbol
_atom_site_label
_atom_site_fract_x
_atom_site_fract_y
_atom_site_fract_z
Si Si1 0.293852 0.446880 0.104248
Si Si2 0.417981 0.050578 0.774251
Si Si3 0.073713 0.448646 0.033255
Si Si4 0.823457 0.060672 0.619329
Si Si5 0.063811 0.938296 0.665802
Si Si6 0.958354 0.562480 0.555429
Si Si7 0.233160 0.045914 0.984023
Si Si8 0.364696 0.052688 0.650147
O O1 0.310396 0.250000 0.099223
O O2 0.358190 0.518565 0.145670
O O3 0.213412 0.469948 0.132922
O O4 0.284459 0.509413 0.038388
O O5 0.410666 0.250000 0.775962
O O6 0.360348 0.983672 0.823201
O O7 0.395663 0.991600 0.711099
O O8 0.503556 0.014377 0.790758
O O9 0.076756 0.250000 0.037518
O O10 0.079604 0.519703 0.097487
O O11 0.149102 0.502629 0.000154
O O12 0.000000 0.500000 0.000000
O O13 0.801585 0.250000 0.633386
O O14 0.759358 0.985813 0.578749
O O15 0.892742 0.057232 0.575250
O O16 0.078454 0.750000 0.686087
O O17 0.017694 0.933285 0.606613
O O18 0.929083 0.750000 0.547858
O O19 0.000000 0.500000 0.500000
O O20 0.236495 0.250000 0.983077
O O21 0.351869 0.250000 0.654314
#
# Coordination Sequence:
#
# PCOD9461564 Si02
#       8
#     8   8   8   8   8   8   8   8
#     4   9  17  31  50  73  97 127 167 209 253 305
#     4   9  19  33  50  72 100 133 170 207 249 300
#     4  10  20  36  57  80 102 129 166 212 264 314
#     4   9  16  30  49  68  93 127 161 196 238 290
#     4   9  18  31  48  69  97 131 168 206 247 296
#     4  10  18  27  40  63  94 128 161 195 234 280
#     4   8  15  29  51  74  99 129 160 196 248 306
#     4  10  20  35  53  75 102 134 170 211 256 307
#
# _framework density 19.023052
#
# number of rings (size 3 to 8) (size 9 to 14) (size 15 to 20)
#    0.000    2.750    0.000    2.625    0.000    4.000 
#    0.000    6.875    0.000    3.000    0.000    0.000 
#    0.000    0.000    0.000    0.000    0.000    0.000 
#
# Total GULP energy -356394.603011 kJ/mol
# GULP energy per Si atom -5568.665672 kJ/mol
# Density = 1.897975 g / cm^3
# Si number density = 19.023052 Si / 1000 Ang^3
#
#
#
# Elastic Constant Matrix: (Units=GPa)
#
#
# Indices 1 2 3 4 5 6 
#
# 1 85.8789 -1.6444 61.8630 0.0000 0.0000 0.0000
# 2 -1.6444 23.1324 -0.6568 0.0000 0.0000 0.0000
# 3 61.8630 -0.6568 120.1735 0.0000 0.0000 0.0000
# 4 0.0000 0.0000 0.0000 12.2736 0.0000 0.0000
# 5 0.0000 0.0000 0.0000 0.0000 24.7580 0.0000
# 6 0.0000 0.0000 0.0000 0.0000 0.0000 20.7727
#
#
#
# Elastic Compliance Matrix: (Units=1/GPa)
#
#
# Indices 1 2 3 4 5 6 
#
# 1 0.018532 0.001047 -0.009534 0.000000 0.000000 0.000000
# 2 0.001047 0.043295 -0.000302 0.000000 0.000000 0.000000
# 3 -0.009534 -0.000302 0.013228 0.000000 0.000000 0.000000
# 4 0.000000 0.000000 0.000000 0.081476 0.000000 0.000000
# 5 0.000000 0.000000 0.000000 0.000000 0.040391 0.000000
# 6 0.000000 0.000000 0.000000 0.000000 0.000000 0.048140
#
#
# Mechanical properties :
#
#
# Convention : Reuss Voigt Hill
#
# Bulk Modulus (GPa) = 17.39868 38.70092 28.04980
# Shear Modulus (GPa) = 17.74304 22.86907 20.30605
#
# Velocity S-wave (km/s) = 3.05735 3.47100 3.27072
# Velocity P-wave (km/s) = 4.65071 6.03757 5.38894
#
# Compressibility (1/GPa) = 0.05747564
#
# Stress axis : x y z
#
# Youngs Moduli (GPa) = 53.95932 23.09724 75.59839
#
# Poissons Ratio (x) = -0.02418 0.72079
# Poissons Ratio (y) = -0.05648 0.02284
# Poissons Ratio (z) = 0.51447 0.00698
#
# Static dielectric constant tensor:
#      x y z
#    x 1.687350 0.000000 0.000000 
#    y 0.000000 1.715110 0.000000 
#    z 0.000000 0.000000 1.686540 
# 
# From -- ./inp_files/30072.got.cif
#   From: 2010.05.17/outbox.cif.g08.bks.cpg/sg62_16_cif.got.tgz:30072.got - 2010.06.03 15:25:27.
