data_PCOD9461758
_publ_section_title
;
Structure prediction by ZEFSAII (Michael W. Deem and Ramdas Pophale) SiO2 
 PCOD9461758
Probable space group: P N M A
;
_chemical_formula_sum "Si O2"
_cell_formula_units_Z 56
_cell_length_a 8.149302
_cell_length_b 17.496856
_cell_length_c 16.544422
_cell_angle_alpha 90.000000
_cell_angle_beta 90.000000
_cell_angle_gamma 90.000000
_cell_volume 2359.022206
_symmetry_space_group_name_H-M "P N M A"
_symmetry_group_IT_number 62
_symmetry_cell_setting 'orthorhombic'
loop_
_space_group_symop_operation_xyz
x,y,z
1/2-x,-y,1/2+z
1/2+x,1/2-y,1/2-z
-x,1/2+y,-z
-x,-y,-z
1/2+x,y,1/2-z
1/2-x,1/2+y,1/2+z
x,1/2-y,z
loop_
_atom_site_type_symbol
_atom_site_label
_atom_site_fract_x
_atom_site_fract_y
_atom_site_fract_z
Si Si1 0.213532 0.250000 0.123591
Si Si2 0.807832 0.081001 0.945477
Si Si3 0.605314 0.077665 0.670212
Si Si4 0.974909 0.409034 0.647908
Si Si5 0.039211 0.750000 0.748039
Si Si6 0.800336 0.092441 0.224888
Si Si7 0.403142 0.919928 0.911198
Si Si8 0.252491 0.908276 0.584175
O O1 0.405653 0.250000 0.153209
O O2 0.162052 0.173224 0.078611
O O3 0.141793 0.250000 0.214343
O O4 0.648766 0.111869 0.895132
O O5 0.974820 0.099346 0.898979
O O6 0.813630 0.987640 0.949838
O O7 0.754459 0.101338 0.036163
O O8 0.631914 0.984821 0.682010
O O9 0.526754 0.094669 0.757792
O O10 0.782257 0.116535 0.651667
O O11 0.943923 0.491045 0.603960
O O12 0.103935 0.670382 0.785174
O O13 0.629103 0.107056 0.179250
O O14 0.768733 0.076275 0.319206
O O15 0.570749 0.891417 0.950052
#
# Coordination Sequence:
#
# PCOD9461758 Si02
#       8
#     4   8   8   8   4   8   8   8
#     4  10  22  30  50  76  94 138 176 225 258 287
#     4  11  20  34  51  73 103 140 181 222 263 315
#     4  11  18  30  51  69  97 137 182 211 257 308
#     4  10  18  30  47  70  93 133 179 210 255 306
#     4  10  22  30  46  74 102 126 184 225 246 303
#     4  10  20  31  50  71 101 141 180 215 260 302
#     4  10  21  33  49  73  98 143 177 219 269 307
#     4  10  19  32  52  69 105 135 183 216 256 311
#
# _framework density 23.738651000000001
#
# number of rings (size 3 to 8) (size 9 to 14) (size 15 to 20)
#    0.000    1.714    4.286    3.429    8.000    2.286 
#    0.000    1.429    0.000    0.000    0.000    0.000 
#    0.000    0.000    0.000   34.714    0.000    0.500 
#
# Total GULP energy -311736.295933 kJ/mol
# GULP energy per Si atom -5566.719570 kJ/mol
# Density = 2.368462 g / cm^3
# Si number density = 23.738651 Si / 1000 Ang^3
#
#
#
# Elastic Constant Matrix: (Units=GPa)
#
#
# Indices 1 2 3 4 5 6 
#
# 1 123.1730 -1.1264 19.5032 0.0000 0.0000 0.0000
# 2 -1.1264 13.0569 3.5268 0.0000 0.0000 0.0000
# 3 19.5032 3.5268 62.9168 0.0000 0.0000 0.0000
# 4 0.0000 0.0000 0.0000 9.8249 0.0000 0.0000
# 5 0.0000 0.0000 0.0000 0.0000 45.4316 0.0000
# 6 0.0000 0.0000 0.0000 0.0000 0.0000 11.9226
#
#
#
# Elastic Compliance Matrix: (Units=1/GPa)
#
#
# Indices 1 2 3 4 5 6 
#
# 1 0.008566 0.001479 -0.002738 0.000000 0.000000 0.000000
# 2 0.001479 0.078020 -0.004832 0.000000 0.000000 0.000000
# 3 -0.002738 -0.004832 0.017014 0.000000 0.000000 0.000000
# 4 0.000000 0.000000 0.000000 0.101782 0.000000 0.000000
# 5 0.000000 0.000000 0.000000 0.000000 0.022011 0.000000
# 6 0.000000 0.000000 0.000000 0.000000 0.000000 0.083875
#
#
# Mechanical properties :
#
#
# Convention : Reuss Voigt Hill
#
# Bulk Modulus (GPa) = 10.93887 26.99488 18.96687
# Shear Modulus (GPa) = 14.12740 25.25202 19.68971
#
# Velocity S-wave (km/s) = 2.44216 3.26506 2.88312
# Velocity P-wave (km/s) = 3.54545 5.06068 4.36925
#
# Compressibility (1/GPa) = 0.09141712
#
# Stress axis : x y z
#
# Youngs Moduli (GPa) = 116.74416 12.81717 58.77638
#
# Poissons Ratio (x) = -0.01895 0.16094
# Poissons Ratio (y) = -0.17261 0.28399
# Poissons Ratio (z) = 0.31966 0.06193
#
# Static dielectric constant tensor:
#      x y z
#    x 2.100360 0.000000 0.000000 
#    y 0.000000 1.944240 0.000000 
#    z 0.000000 0.000000 1.939050 
# 
# From -- ./inp_files/22615.got.cif
#   From: 2010.05.17/outbox.cif.g08.bks.cpg/sg62_12_cif.got.tgz:22615.got - 2010.06.03 15:25:27.
