data_PCOD9461084
_publ_section_title
;
Structure prediction by ZEFSAII (Michael W. Deem and Ramdas Pophale) SiO2 
 PCOD9461084
Probable space group: P B C A
;
_chemical_formula_sum "Si O2"
_cell_formula_units_Z 40
_cell_length_a 15.308477
_cell_length_b 7.486286
_cell_length_c 12.798173
_cell_angle_alpha 90.000000
_cell_angle_beta 90.000000
_cell_angle_gamma 90.000000
_cell_volume 1466.717173
_symmetry_space_group_name_H-M "P B C A"
_symmetry_group_IT_number 61
_symmetry_cell_setting 'orthorhombic'
loop_
_space_group_symop_operation_xyz
x,y,z
1/2-x,-y,1/2+z
1/2+x,1/2-y,-z
-x,1/2+y,1/2-z
-x,-y,-z
1/2+x,y,1/2-z
1/2-x,1/2+y,z
x,1/2-y,1/2+z
loop_
_atom_site_type_symbol
_atom_site_label
_atom_site_fract_x
_atom_site_fract_y
_atom_site_fract_z
Si Si1 0.653286 0.993259 0.976188
Si Si2 0.185774 0.200358 0.183114
Si Si3 0.662448 0.927749 0.507939
Si Si4 0.617383 0.666850 0.224267
Si Si5 0.947761 0.937624 0.661654
O O1 0.739258 0.032702 0.046770
O O2 0.574461 0.079999 0.039979
O O3 0.651259 0.778348 0.972526
O O4 0.843555 0.942429 0.907629
O O5 0.282067 0.182202 0.235417
O O6 0.113337 0.191092 0.271461
O O7 0.178476 0.386324 0.122479
O O8 0.608066 0.942065 0.614763
O O9 0.547088 0.595598 0.307583
O O10 0.584560 0.865444 0.194523
#
# Coordination Sequence:
#
# PCOD9461084 Si02
#       5
#     8   8   8   8   8
#     4  11  24  48  76 115 153 206 266 327 397 479
#     4  12  26  53  85 110 160 219 269 333 412 481
#     4  11  24  47  78 115 154 203 272 323 402 488
#     4  11  28  52  80 122 163 215 268 337 419 479
#     4  11  28  52  79 119 166 207 269 344 403 489
#
# _framework density 27.271785999999999
#
# number of rings (size 3 to 8) (size 9 to 14) (size 15 to 20)
#    0.000    0.800    4.000    1.200    2.800    4.000 
#    3.600    3.000    0.000    0.000    0.000    0.000 
#    0.000    0.000    0.000    0.000    0.000    0.000 
#
# Total GULP energy -224026.187357 kJ/mol
# GULP energy per Si atom -5600.654684 kJ/mol
# Density = 2.720971 g / cm^3
# Si number density = 27.271786 Si / 1000 Ang^3
#
#
#
# Elastic Constant Matrix: (Units=GPa)
#
#
# Indices 1 2 3 4 5 6 
#
# 1 143.4357 32.6729 47.2640 0.0000 0.0000 0.0000
# 2 32.6729 160.3300 51.8856 0.0000 0.0000 0.0000
# 3 47.2640 51.8856 83.3284 0.0000 0.0000 0.0000
# 4 0.0000 0.0000 0.0000 50.8608 0.0000 0.0000
# 5 0.0000 0.0000 0.0000 0.0000 60.7258 0.0000
# 6 0.0000 0.0000 0.0000 0.0000 0.0000 38.2909
#
#
#
# Elastic Compliance Matrix: (Units=1/GPa)
#
#
# Indices 1 2 3 4 5 6 
#
# 1 0.008580 -0.000217 -0.004731 0.000000 0.000000 0.000000
# 2 -0.000217 0.007817 -0.004744 0.000000 0.000000 0.000000
# 3 -0.004731 -0.004744 0.017638 0.000000 0.000000 0.000000
# 4 0.000000 0.000000 0.000000 0.019662 0.000000 0.000000
# 5 0.000000 0.000000 0.000000 0.000000 0.016467 0.000000
# 6 0.000000 0.000000 0.000000 0.000000 0.000000 0.026116
#
#
# Mechanical properties :
#
#
# Convention : Reuss Voigt Hill
#
# Bulk Modulus (GPa) = 68.25993 72.30434 70.28214
# Shear Modulus (GPa) = 41.47704 46.99361 44.23533
#
# Velocity S-wave (km/s) = 3.90407 4.15560 4.03180
# Velocity P-wave (km/s) = 6.73841 7.04240 6.89208
#
# Compressibility (1/GPa) = 0.01464988
#
# Stress axis : x y z
#
# Youngs Moduli (GPa) = 116.54529 127.93249 56.69512
#
# Poissons Ratio (x) = 0.02781 0.26825
# Poissons Ratio (y) = 0.02533 0.26895
# Poissons Ratio (z) = 0.55143 0.60689
#
# Static dielectric constant tensor:
#      x y z
#    x 2.122120 0.000000 0.000000 
#    y 0.000000 2.120030 0.000000 
#    z 0.000000 0.000000 2.220200 
# 
# From -- ./inp_files/7714.got.cif
#   From: 2010.05.17/outbox.cif.g08.bks.cpg/sg61_4_cif.got.tgz:7714.got - 2010.06.03 15:17:17.
