data_PCOD9461186
_publ_section_title
;
Structure prediction by ZEFSAII (Michael W. Deem and Ramdas Pophale) SiO2 
 PCOD9461186
Probable space group: P B C A
;
_chemical_formula_sum "Si O2"
_cell_formula_units_Z 64
_cell_length_a 17.796091
_cell_length_b 8.424161
_cell_length_c 19.077812
_cell_angle_alpha 90.000000
_cell_angle_beta 90.000000
_cell_angle_gamma 90.000000
_cell_volume 2860.090932
_symmetry_space_group_name_H-M "P B C A"
_symmetry_group_IT_number 61
_symmetry_cell_setting 'orthorhombic'
loop_
_space_group_symop_operation_xyz
x,y,z
1/2-x,-y,1/2+z
1/2+x,1/2-y,-z
-x,1/2+y,1/2-z
-x,-y,-z
1/2+x,y,1/2-z
1/2-x,1/2+y,z
x,1/2-y,1/2+z
loop_
_atom_site_type_symbol
_atom_site_label
_atom_site_fract_x
_atom_site_fract_y
_atom_site_fract_z
Si Si1 0.559309 0.674865 0.216050
Si Si2 0.356423 0.396806 0.182359
Si Si3 0.069070 0.123665 0.686672
Si Si4 0.712398 0.274471 0.785772
Si Si5 0.339153 0.398487 0.915850
Si Si6 0.475811 0.927140 0.924863
Si Si7 0.440780 0.391576 0.043245
Si Si8 0.177822 0.235191 0.379524
O O1 0.583999 0.822306 0.264385
O O2 0.471916 0.711348 0.204936
O O3 0.570848 0.506412 0.252339
O O4 0.609807 0.670099 0.146929
O O5 0.294289 0.256121 0.182590
O O6 0.308832 0.542266 0.211095
O O7 0.394830 0.452256 0.110432
O O8 0.153762 0.170035 0.669550
O O9 0.017268 0.043017 0.628773
O O10 0.696278 0.236850 0.703417
O O11 0.339752 0.590492 0.910735
O O12 0.254774 0.336642 0.909476
O O13 0.378647 0.343238 0.986729
O O14 0.514565 0.755771 0.925343
O O15 0.390604 0.885380 0.899774
O O16 0.500000 0.000000 0.000000
O O17 0.500000 0.500000 0.000000
#
# Coordination Sequence:
#
# PCOD9461186 Si02
#       8
#     8   8   8   8   8   8   8   8
#     4  12  24  46  72 113 142 201 249 322 375 452
#     4  12  27  47  75 107 159 191 255 311 387 455
#     4  12  26  42  75 107 145 192 251 312 380 448
#     4  12  26  47  77 114 148 194 252 325 381 447
#     4  12  28  46  78 103 153 193 250 307 380 452
#     4  12  28  48  74 105 151 193 258 302 375 466
#     4  12  29  51  71 107 150 206 243 308 379 461
#     4  12  26  50  74 112 143 197 250 313 377 453
#
# _framework density 22.376911
#
# number of rings (size 3 to 8) (size 9 to 14) (size 15 to 20)
#    0.000    0.000    5.000    4.500    8.750    2.000 
#    0.000    0.000    0.000    0.000    0.000    0.000 
#    0.000    0.000    0.000    0.000    0.000    0.000 
#
# Total GULP energy -357846.292486 kJ/mol
# GULP energy per Si atom -5591.348320 kJ/mol
# Density = 2.232598 g / cm^3
# Si number density = 22.376911 Si / 1000 Ang^3
#
#
#
# Elastic Constant Matrix: (Units=GPa)
#
#
# Indices 1 2 3 4 5 6 
#
# 1 75.4065 16.9871 10.6890 0.0000 0.0000 0.0000
# 2 16.9871 51.2872 10.7530 0.0000 0.0000 0.0000
# 3 10.6890 10.7530 75.6761 0.0000 0.0000 0.0000
# 4 0.0000 0.0000 0.0000 29.3862 0.0000 0.0000
# 5 0.0000 0.0000 0.0000 0.0000 23.5001 0.0000
# 6 0.0000 0.0000 0.0000 0.0000 0.0000 49.7802
#
#
#
# Elastic Compliance Matrix: (Units=1/GPa)
#
#
# Indices 1 2 3 4 5 6 
#
# 1 0.014474 -0.004499 -0.001405 0.000000 0.000000 0.000000
# 2 -0.004499 0.021495 -0.002419 0.000000 0.000000 0.000000
# 3 -0.001405 -0.002419 0.013756 0.000000 0.000000 0.000000
# 4 0.000000 0.000000 0.000000 0.034030 0.000000 0.000000
# 5 0.000000 0.000000 0.000000 0.000000 0.042553 0.000000
# 6 0.000000 0.000000 0.000000 0.000000 0.000000 0.020088
#
#
# Mechanical properties :
#
#
# Convention : Reuss Voigt Hill
#
# Bulk Modulus (GPa) = 30.23040 31.02535 30.62787
# Shear Modulus (GPa) = 28.72404 31.46268 30.09336
#
# Velocity S-wave (km/s) = 3.58669 3.75378 3.67118
# Velocity P-wave (km/s) = 5.53998 5.71689 5.62913
#
# Compressibility (1/GPa) = 0.03307929
#
# Stress axis : x y z
#
# Youngs Moduli (GPa) = 69.08816 46.52140 72.69361
#
# Poissons Ratio (x) = 0.20932 0.10214
# Poissons Ratio (y) = 0.31086 0.17583
# Poissons Ratio (z) = 0.09708 0.11253
#
# Static dielectric constant tensor:
#      x y z
#    x 1.910440 0.000000 0.000000 
#    y 0.000000 1.807980 0.000000 
#    z 0.000000 0.000000 1.874570 
# 
# From -- ./inp_files/10536.got.cif
#   From: 2010.05.17/outbox.cif.g08.bks.cpg/sg61_6_cif.got.tgz:10536.got - 2010.06.03 15:17:17.
