data_PCOD9461437
_publ_section_title
;
Structure prediction by ZEFSAII (Michael W. Deem and Ramdas Pophale) SiO2 
 PCOD9461437
Probable space group: P N M A
;
_chemical_formula_sum "Si O2"
_cell_formula_units_Z 52
_cell_length_a 17.136650
_cell_length_b 8.312542
_cell_length_c 14.481184
_cell_angle_alpha 90.000000
_cell_angle_beta 90.000000
_cell_angle_gamma 90.000000
_cell_volume 2062.831959
_symmetry_space_group_name_H-M "P N M A"
_symmetry_group_IT_number 62
_symmetry_cell_setting 'orthorhombic'
loop_
_space_group_symop_operation_xyz
x,y,z
1/2-x,-y,1/2+z
1/2+x,1/2-y,1/2-z
-x,1/2+y,-z
-x,-y,-z
1/2+x,y,1/2-z
1/2-x,1/2+y,1/2+z
x,1/2-y,z
loop_
_atom_site_type_symbol
_atom_site_label
_atom_site_fract_x
_atom_site_fract_y
_atom_site_fract_z
Si Si1 0.439314 0.430046 0.836668
Si Si2 0.116570 0.066318 0.968770
Si Si3 0.988369 0.565701 0.852008
Si Si4 0.736982 0.560359 0.219832
Si Si5 0.161137 0.750000 0.767529
Si Si6 0.742978 0.069710 0.939959
Si Si7 0.914146 0.079060 0.404525
O O1 0.457584 0.250000 0.863563
O O2 0.469414 0.452950 0.731983
O O3 0.347289 0.454608 0.828447
O O4 0.495144 0.538797 0.899038
O O5 0.099068 0.250000 0.942028
O O6 0.070371 0.032984 0.064009
O O7 0.206430 0.045638 0.995111
O O8 0.074499 0.951675 0.895215
O O9 0.977350 0.750000 0.822273
O O10 0.764318 0.750000 0.204843
O O11 0.783709 0.398514 0.193701
O O12 0.731394 0.546046 0.332494
O O13 0.113869 0.613866 0.701107
O O14 0.764320 0.250000 0.965855
O O15 0.650310 0.041860 0.943157
O O16 0.899858 0.250000 0.452253
#
# Coordination Sequence:
#
# PCOD9461437 Si02
#       7
#     8   8   8   8   4   8   8
#     4  11  20  30  44  64  92 120 156 194 236 276
#     4  10  19  29  43  62  84 114 155 193 224 260
#     4  10  20  29  42  60  86 116 155 193 224 263
#     4   9  18  28  45  65  83 116 154 191 229 268
#     4   8  18  30  46  58  86 112 158 186 228 270
#     4  10  17  29  45  60  84 113 152 189 223 269
#     4   9  19  30  41  63  83 117 154 180 232 279
#
# _framework density 25.208065000000001
#
# number of rings (size 3 to 8) (size 9 to 14) (size 15 to 20)
#    0.462    1.846    1.538    2.308    3.231    1.846 
#    0.000    0.000    0.000    0.000    0.000    0.000 
#    0.000    0.000    0.000    5.538   20.000    2.308 
#
# Total GULP energy -289598.279486 kJ/mol
# GULP energy per Si atom -5569.197682 kJ/mol
# Density = 2.515069 g / cm^3
# Si number density = 25.208065 Si / 1000 Ang^3
#
#
#
# Elastic Constant Matrix: (Units=GPa)
#
#
# Indices 1 2 3 4 5 6 
#
# 1 108.6863 36.2595 26.1261 0.0000 0.0000 0.0000
# 2 36.2595 69.3664 2.1996 0.0000 0.0000 0.0000
# 3 26.1261 2.1996 82.1728 0.0000 0.0000 0.0000
# 4 0.0000 0.0000 0.0000 -28.5985 0.0000 0.0000
# 5 0.0000 0.0000 0.0000 0.0000 33.8619 0.0000
# 6 0.0000 0.0000 0.0000 0.0000 0.0000 194.9368
#
#
#
# Elastic Compliance Matrix: (Units=1/GPa)
#
#
# Indices 1 2 3 4 5 6 
#
# 1 0.012175 -0.006247 -0.003704 0.000000 0.000000 0.000000
# 2 -0.006247 0.017634 0.001514 0.000000 0.000000 0.000000
# 3 -0.003704 0.001514 0.013307 0.000000 0.000000 0.000000
# 4 0.000000 0.000000 0.000000 -0.034967 0.000000 0.000000
# 5 0.000000 0.000000 0.000000 0.000000 0.029532 0.000000
# 6 0.000000 0.000000 0.000000 0.000000 0.000000 0.005130
#
#
# Mechanical properties :
#
#
# Convention : Reuss Voigt Hill
#
# Bulk Modulus (GPa) = 38.10641 43.26620 40.68630
# Shear Modulus (GPa) = 73.06705 53.08272 63.07489
#
# Velocity S-wave (km/s) = 5.38967 4.59386 5.00760
# Velocity P-wave (km/s) = 7.34036 6.73342 7.04343
#
# Compressibility (1/GPa) = 0.02624230
#
# Stress axis : x y z
#
# Youngs Moduli (GPa) = 82.13462 56.71008 75.15106
#
# Poissons Ratio (x) = 0.35426 0.27834
# Poissons Ratio (y) = 0.51308 -0.11379
# Poissons Ratio (z) = 0.30421 -0.08586
#
# Static dielectric constant tensor:
#      x y z
#    x 2.005340 0.000000 0.000000 
#    y 0.000000 1.885780 0.000000 
#    z 0.000000 0.000000 2.035670 
# 
# From -- ./inp_files/29608.got.cif
#   From: 2010.05.17/outbox.cif.g08.bks.cpg/sg62_15_cif.got.tgz:29608.got - 2010.06.03 15:25:27.
