data_PCOD9461903
_publ_section_title
;
Structure prediction by ZEFSAII (Michael W. Deem and Ramdas Pophale) SiO2 
 PCOD9461903
Probable space group: P N M A
;
_chemical_formula_sum "Si O2"
_cell_formula_units_Z 64
_cell_length_a 18.548645
_cell_length_b 16.656422
_cell_length_c 12.055564
_cell_angle_alpha 90.000000
_cell_angle_beta 90.000000
_cell_angle_gamma 90.000000
_cell_volume 3724.615427
_symmetry_space_group_name_H-M "P N M A"
_symmetry_group_IT_number 62
_symmetry_cell_setting 'orthorhombic'
loop_
_space_group_symop_operation_xyz
x,y,z
1/2-x,-y,1/2+z
1/2+x,1/2-y,1/2-z
-x,1/2+y,-z
-x,-y,-z
1/2+x,y,1/2-z
1/2-x,1/2+y,1/2+z
x,1/2-y,z
loop_
_atom_site_type_symbol
_atom_site_label
_atom_site_fract_x
_atom_site_fract_y
_atom_site_fract_z
Si Si1 0.856912 0.159781 0.830856
Si Si2 0.064087 0.967670 0.843079
Si Si3 0.654050 0.435293 0.811616
Si Si4 0.246803 0.844949 0.365521
Si Si5 0.215095 0.158893 0.510136
Si Si6 0.408571 0.989261 0.594476
Si Si7 0.308617 0.157416 0.315416
Si Si8 0.753152 0.916468 0.890704
O O1 0.888503 0.250000 0.843218
O O2 0.826657 0.149491 0.706402
O O3 0.784637 0.158683 0.907494
O O4 0.902501 0.082693 0.867261
O O5 0.118090 0.892627 0.828735
O O6 0.083323 0.026575 0.741737
O O7 0.083835 0.008288 0.961111
O O8 0.979655 0.950492 0.852612
O O9 0.693152 0.386609 0.712533
O O10 0.651179 0.381371 0.921304
O O11 0.706107 0.506993 0.852839
O O12 0.262725 0.750000 0.379338
O O13 0.242311 0.889088 0.482999
O O14 0.194864 0.250000 0.485201
O O15 0.248238 0.121017 0.399079
O O16 0.335842 0.942730 0.624428
O O17 0.321077 0.250000 0.346471
O O18 0.275133 0.150741 0.193695
#
# Coordination Sequence:
#
# PCOD9461903 Si02
#       8
#     8   8   8   8   8   8   8   8
#     4   9  17  31  53  74 101 139 175 220 267 315
#     4  10  21  32  51  77 110 144 166 213 273 325
#     4  10  18  31  52  76 101 136 172 218 267 309
#     4  10  19  32  50  79 107 134 174 226 276 308
#     4   9  16  29  52  76  97 129 177 222 259 303
#     4  11  19  33  51  78 110 138 177 212 266 325
#     4  10  20  35  54  77 103 139 181 218 265 321
#     4  11  20  31  55  78 105 134 178 224 262 312
#
# _framework density 17.182983
#
# number of rings (size 3 to 8) (size 9 to 14) (size 15 to 20)
#    0.000    2.000    5.000    1.500    1.750    0.000 
#    0.000    2.500    0.000    6.750    0.000    3.500 
#    0.000    0.000    0.000    0.000    0.000    0.000 
#
# Total GULP energy -356406.210519 kJ/mol
# GULP energy per Si atom -5568.847039 kJ/mol
# Density = 1.714387 g / cm^3
# Si number density = 17.182983 Si / 1000 Ang^3
#
#
#
# Elastic Constant Matrix: (Units=GPa)
#
#
# Indices 1 2 3 4 5 6 
#
# 1 26.3067 -1.0580 4.7622 0.0000 0.0000 0.0000
# 2 -1.0580 53.0345 9.7802 0.0000 0.0000 0.0000
# 3 4.7622 9.7802 64.5365 0.0000 0.0000 0.0000
# 4 0.0000 0.0000 0.0000 19.1923 0.0000 0.0000
# 5 0.0000 0.0000 0.0000 0.0000 19.6381 0.0000
# 6 0.0000 0.0000 0.0000 0.0000 0.0000 11.3480
#
#
#
# Elastic Compliance Matrix: (Units=1/GPa)
#
#
# Indices 1 2 3 4 5 6 
#
# 1 0.038619 0.001333 -0.003052 0.000000 0.000000 0.000000
# 2 0.001333 0.019444 -0.003045 0.000000 0.000000 0.000000
# 3 -0.003052 -0.003045 0.016182 0.000000 0.000000 0.000000
# 4 0.000000 0.000000 0.000000 0.052104 0.000000 0.000000
# 5 0.000000 0.000000 0.000000 0.000000 0.050922 0.000000
# 6 0.000000 0.000000 0.000000 0.000000 0.000000 0.088121
#
#
# Mechanical properties :
#
#
# Convention : Reuss Voigt Hill
#
# Bulk Modulus (GPa) = 15.45173 18.98295 17.21734
# Shear Modulus (GPa) = 16.86388 18.72855 17.79621
#
# Velocity S-wave (km/s) = 3.13618 3.30502 3.22170
# Velocity P-wave (km/s) = 4.70384 5.06317 4.88681
#
# Compressibility (1/GPa) = 0.06471765
#
# Stress axis : x y z
#
# Youngs Moduli (GPa) = 25.89383 51.43030 61.79801
#
# Poissons Ratio (x) = -0.06857 0.18859
# Poissons Ratio (y) = -0.03452 0.18818
# Poissons Ratio (z) = 0.07902 0.15661
#
# Static dielectric constant tensor:
#      x y z
#    x 1.560830 0.000000 0.000000 
#    y 0.000000 1.661780 0.000000 
#    z 0.000000 0.000000 1.607770 
# 
# From -- ./inp_files/14448.got.cif
#   From: 2010.05.17/outbox.cif.g08.bks.cpg/sg62_8_cif.got.tgz:14448.got - 2010.06.03 15:25:27.
