data_PCOD9461216
_publ_section_title
;
Structure prediction by ZEFSAII (Michael W. Deem and Ramdas Pophale) SiO2 
 PCOD9461216
Probable space group: P B C A
;
_chemical_formula_sum "Si O2"
_cell_formula_units_Z 32
_cell_length_a 14.338092
_cell_length_b 8.525753
_cell_length_c 10.664101
_cell_angle_alpha 90.000000
_cell_angle_beta 90.000000
_cell_angle_gamma 90.000000
_cell_volume 1303.612028
_symmetry_space_group_name_H-M "P B C A"
_symmetry_group_IT_number 61
_symmetry_cell_setting 'orthorhombic'
loop_
_space_group_symop_operation_xyz
x,y,z
1/2-x,-y,1/2+z
1/2+x,1/2-y,-z
-x,1/2+y,1/2-z
-x,-y,-z
1/2+x,y,1/2-z
1/2-x,1/2+y,z
x,1/2-y,1/2+z
loop_
_atom_site_type_symbol
_atom_site_label
_atom_site_fract_x
_atom_site_fract_y
_atom_site_fract_z
Si Si1 0.797427 0.909642 0.318309
Si Si2 0.355405 0.736608 0.940863
Si Si3 0.470091 0.147374 0.171498
Si Si4 0.597440 0.499421 0.866858
O O1 0.811295 0.807485 0.192461
O O2 0.793316 0.809812 0.448001
O O3 0.700378 0.999746 0.307042
O O4 0.884954 0.027128 0.332958
O O5 0.442398 0.855521 0.923939
O O6 0.390624 0.569279 0.994778
O O7 0.434750 0.323733 0.154756
O O8 0.524299 0.116299 0.301070
#
# Coordination Sequence:
#
# PCOD9461216 Si02
#       4
#     8   8   8   8
#     4  12  29  51  83 114 159 205 260 324 389 461
#     4  12  26  53  75 118 151 206 261 318 392 456
#     4  12  26  50  79 112 159 204 260 319 386 461
#     4  12  27  50  77 115 157 206 258 318 387 463
#
# _framework density 24.547179
#
# number of rings (size 3 to 8) (size 9 to 14) (size 15 to 20)
#    0.000    0.000    5.000    3.000    3.500    0.000 
#    4.500    0.000    0.000    0.000    0.000    0.000 
#    0.000    0.000    0.000    0.000    0.000    0.000 
#
# Total GULP energy -179012.830863 kJ/mol
# GULP energy per Si atom -5594.150964 kJ/mol
# Density = 2.449131 g / cm^3
# Si number density = 24.547179 Si / 1000 Ang^3
#
#
#
# Elastic Constant Matrix: (Units=GPa)
#
#
# Indices 1 2 3 4 5 6 
#
# 1 106.8600 1.9023 40.6202 0.0000 0.0000 0.0000
# 2 1.9023 70.0201 65.8991 0.0000 0.0000 0.0000
# 3 40.6202 65.8991 128.9379 0.0000 0.0000 0.0000
# 4 0.0000 0.0000 0.0000 46.0000 0.0000 0.0000
# 5 0.0000 0.0000 0.0000 0.0000 25.4423 0.0000
# 6 0.0000 0.0000 0.0000 0.0000 0.0000 43.5347
#
#
#
# Elastic Compliance Matrix: (Units=1/GPa)
#
#
# Indices 1 2 3 4 5 6 
#
# 1 0.011866 0.006158 -0.006885 0.000000 0.000000 0.000000
# 2 0.006158 0.030714 -0.017637 0.000000 0.000000 0.000000
# 3 -0.006885 -0.017637 0.018939 0.000000 0.000000 0.000000
# 4 0.000000 0.000000 0.000000 0.021739 0.000000 0.000000
# 5 0.000000 0.000000 0.000000 0.000000 0.039305 0.000000
# 6 0.000000 0.000000 0.000000 0.000000 0.000000 0.022970
#
#
# Mechanical properties :
#
#
# Convention : Reuss Voigt Hill
#
# Bulk Modulus (GPa) = 40.34133 58.07345 49.20739
# Shear Modulus (GPa) = 26.24326 36.15518 31.19922
#
# Velocity S-wave (km/s) = 3.27325 3.84198 3.56896
# Velocity P-wave (km/s) = 5.54576 6.58714 6.08875
#
# Compressibility (1/GPa) = 0.02478848
#
# Stress axis : x y z
#
# Youngs Moduli (GPa) = 84.27671 32.55880 52.80084
#
# Poissons Ratio (x) = -0.20049 0.36355
# Poissons Ratio (y) = -0.51895 0.93127
# Poissons Ratio (z) = 0.58027 0.57425
#
# Static dielectric constant tensor:
#      x y z
#    x 1.963030 0.000000 0.000000 
#    y 0.000000 1.970580 0.000000 
#    z 0.000000 0.000000 1.939800 
# 
# From -- ./inp_files/5516.got.cif
#   From: 2010.05.17/outbox.cif.g08.bks.cpg/sg61_3_cif.got.tgz:5516.got - 2010.06.03 15:17:17.
