data_PCOD9461816
_publ_section_title
;
Structure prediction by ZEFSAII (Michael W. Deem and Ramdas Pophale) SiO2 
 PCOD9461816
Probable space group: P N M A
;
_chemical_formula_sum "Si O2"
_cell_formula_units_Z 56
_cell_length_a 14.999618
_cell_length_b 7.385090
_cell_length_c 22.329694
_cell_angle_alpha 90.000000
_cell_angle_beta 90.000000
_cell_angle_gamma 90.000000
_cell_volume 2473.539004
_symmetry_space_group_name_H-M "P N M A"
_symmetry_group_IT_number 62
_symmetry_cell_setting 'orthorhombic'
loop_
_space_group_symop_operation_xyz
x,y,z
1/2-x,-y,1/2+z
1/2+x,1/2-y,1/2-z
-x,1/2+y,-z
-x,-y,-z
1/2+x,y,1/2-z
1/2-x,1/2+y,1/2+z
x,1/2-y,z
loop_
_atom_site_type_symbol
_atom_site_label
_atom_site_fract_x
_atom_site_fract_y
_atom_site_fract_z
Si Si1 0.605095 0.971590 0.340758
Si Si2 0.701278 0.027912 0.813249
Si Si3 0.101119 0.458618 0.570773
Si Si4 0.899677 0.034244 0.977584
Si Si5 0.290992 0.031013 0.408429
Si Si6 0.416314 0.961267 0.296066
Si Si7 0.402598 0.530548 0.934363
O O1 0.601701 0.750000 0.342130
O O2 0.695717 0.024281 0.307703
O O3 0.610452 0.032932 0.409964
O O4 0.513658 0.036965 0.311066
O O5 0.699171 0.250000 0.813292
O O6 0.662421 0.965515 0.877064
O O7 0.638712 0.962826 0.759656
O O8 0.129126 0.250000 0.563881
O O9 0.104622 0.534558 0.503593
O O10 0.997463 0.466001 0.590028
O O11 0.886333 0.250000 0.974713
O O12 0.831580 0.966774 0.028159
O O13 0.000000 0.000000 0.000000
O O14 0.291944 0.250000 0.409297
O O15 0.188177 0.974444 0.401922
O O16 0.355168 0.973110 0.355040
O O17 0.430489 0.750000 0.282330
O O18 0.406917 0.750000 0.934530
#
# Coordination Sequence:
#
# PCOD9461816 Si02
#       7
#     8   8   8   8   8   8   8
#     4   9  17  31  50  74 103 132 163 206 258 302
#     4   9  18  32  52  75 101 134 171 209 253 305
#     4   9  17  32  53  76  99 129 171 211 248 295
#     4  10  18  30  51  75 101 132 165 206 255 304
#     4  10  20  33  50  73 103 138 169 200 254 317
#     4  10  20  33  51  75 100 129 170 215 249 288
#     4   9  18  32  51  75 104 134 164 203 254 306
#
# _framework density 22.639626
#
# number of rings (size 3 to 8) (size 9 to 14) (size 15 to 20)
#    0.000    2.571    1.429    0.857    0.000    5.143 
#    0.000    3.571    0.000    5.143    0.000    0.000 
#    0.000    0.000    0.000    0.000    0.000    0.000 
#
# Total GULP energy -312834.045241 kJ/mol
# GULP energy per Si atom -5586.322236 kJ/mol
# Density = 2.258810 g / cm^3
# Si number density = 22.639626 Si / 1000 Ang^3
#
#
#
# Elastic Constant Matrix: (Units=GPa)
#
#
# Indices 1 2 3 4 5 6 
#
# 1 158.1709 -10.2403 49.2218 0.0000 0.0000 0.0000
# 2 -10.2403 78.1450 0.1178 0.0000 0.0000 0.0000
# 3 49.2218 0.1178 71.9047 0.0000 0.0000 0.0000
# 4 0.0000 0.0000 0.0000 5.7459 0.0000 0.0000
# 5 0.0000 0.0000 0.0000 0.0000 24.7344 0.0000
# 6 0.0000 0.0000 0.0000 0.0000 0.0000 -11.3050
#
#
#
# Elastic Compliance Matrix: (Units=1/GPa)
#
#
# Indices 1 2 3 4 5 6 
#
# 1 0.008123 0.001073 -0.005562 0.000000 0.000000 0.000000
# 2 0.001073 0.012938 -0.000756 0.000000 0.000000 0.000000
# 3 -0.005562 -0.000756 0.017716 0.000000 0.000000 0.000000
# 4 0.000000 0.000000 0.000000 0.174038 0.000000 0.000000
# 5 0.000000 0.000000 0.000000 0.000000 0.040430 0.000000
# 6 0.000000 0.000000 0.000000 0.000000 0.000000 -0.088457
#
#
# Mechanical properties :
#
#
# Convention : Reuss Voigt Hill
#
# Bulk Modulus (GPa) = 35.35141 42.93546 39.14343
# Shear Modulus (GPa) = 27.06993 21.77648 24.42321
#
# Velocity S-wave (km/s) = 3.46162 3.10477 3.28804
# Velocity P-wave (km/s) = 5.62369 5.64436 5.63403
#
# Compressibility (1/GPa) = 0.02828741
#
# Stress axis : x y z
#
# Youngs Moduli (GPa) = 123.11336 77.28905 56.44623
#
# Poissons Ratio (x) = -0.08292 0.31395
# Poissons Ratio (y) = -0.13208 0.04265
# Poissons Ratio (z) = 0.68476 0.05840
#
# Static dielectric constant tensor:
#      x y z
#    x 1.811810 0.000000 0.000000 
#    y 0.000000 1.900970 0.000000 
#    z 0.000000 0.000000 1.798160 
# 
# From -- ./inp_files/27279.got.cif
#   From: 2010.05.17/outbox.cif.g08.bks.cpg/sg62_14_cif.got.tgz:27279.got - 2010.06.03 15:25:27.
