data_PCOD9461063
_publ_section_title
;
Structure prediction by ZEFSAII (Michael W. Deem and Ramdas Pophale) SiO2 
 PCOD9461063
Probable space group: P B C A
;
_chemical_formula_sum "Si O2"
_cell_formula_units_Z 48
_cell_length_a 16.805027
_cell_length_b 8.656308
_cell_length_c 13.776218
_cell_angle_alpha 90.000000
_cell_angle_beta 90.000000
_cell_angle_gamma 90.000000
_cell_volume 2004.019402
_symmetry_space_group_name_H-M "P B C A"
_symmetry_group_IT_number 61
_symmetry_cell_setting 'orthorhombic'
loop_
_space_group_symop_operation_xyz
x,y,z
1/2-x,-y,1/2+z
1/2+x,1/2-y,-z
-x,1/2+y,1/2-z
-x,-y,-z
1/2+x,y,1/2-z
1/2-x,1/2+y,z
x,1/2-y,1/2+z
loop_
_atom_site_type_symbol
_atom_site_label
_atom_site_fract_x
_atom_site_fract_y
_atom_site_fract_z
Si Si1 0.300878 0.712923 0.717528
Si Si2 0.673257 0.827683 0.125086
Si Si3 0.944321 0.942308 0.726220
Si Si4 0.715770 0.945774 0.914448
Si Si5 0.493700 0.837923 0.391089
Si Si6 0.629195 0.961961 0.525007
O O1 0.253182 0.651424 0.811374
O O2 0.373731 0.826352 0.739756
O O3 0.328489 0.576797 0.646238
O O4 0.234052 0.806963 0.657981
O O5 0.600766 0.917414 0.173598
O O6 0.680622 0.894318 0.016564
O O7 0.660238 0.645658 0.111255
O O8 0.995673 0.829959 0.657401
O O9 0.991286 0.025198 0.812833
O O10 0.802130 0.009195 0.947610
O O11 0.559461 0.865403 0.472780
O O12 0.408772 0.877847 0.439039
#
# Coordination Sequence:
#
# PCOD9461063 Si02
#       6
#     8   8   8   8   8   8
#     4  12  25  45  72 107 140 177 230 296 354 414
#     4  12  26  44  73 105 138 179 233 294 357 412
#     4  12  26  46  68 103 141 185 241 279 356 419
#     4  12  25  43  74 106 141 178 228 299 361 412
#     4  11  26  43  69  93 142 190 229 286 336 426
#     4  11  24  45  65  99 139 181 236 284 347 416
#
# _framework density 23.951861999999998
#
# number of rings (size 3 to 8) (size 9 to 14) (size 15 to 20)
#    0.000    0.333    5.000    3.000    4.667    2.000 
#    0.000    0.000    0.000    0.000    0.000    0.000 
#    0.000    0.000    0.000    0.000    0.000    0.000 
#
# Total GULP energy -268881.543607 kJ/mol
# GULP energy per Si atom -5601.698825 kJ/mol
# Density = 2.389735 g / cm^3
# Si number density = 23.951862 Si / 1000 Ang^3
#
#
#
# Elastic Constant Matrix: (Units=GPa)
#
#
# Indices 1 2 3 4 5 6 
#
# 1 32.9536 1.2172 16.6532 0.0000 0.0000 0.0000
# 2 1.2172 87.6204 22.5124 0.0000 0.0000 0.0000
# 3 16.6532 22.5124 87.2380 0.0000 0.0000 0.0000
# 4 0.0000 0.0000 0.0000 51.1543 0.0000 0.0000
# 5 0.0000 0.0000 0.0000 0.0000 25.3406 0.0000
# 6 0.0000 0.0000 0.0000 0.0000 0.0000 36.5632
#
#
#
# Elastic Compliance Matrix: (Units=1/GPa)
#
#
# Indices 1 2 3 4 5 6 
#
# 1 0.033717 0.001269 -0.006764 0.000000 0.000000 0.000000
# 2 0.001269 0.012271 -0.003409 0.000000 0.000000 0.000000
# 3 -0.006764 -0.003409 0.013634 0.000000 0.000000 0.000000
# 4 0.000000 0.000000 0.000000 0.019549 0.000000 0.000000
# 5 0.000000 0.000000 0.000000 0.000000 0.039462 0.000000
# 6 0.000000 0.000000 0.000000 0.000000 0.000000 0.027350
#
#
# Mechanical properties :
#
#
# Convention : Reuss Voigt Hill
#
# Bulk Modulus (GPa) = 23.91490 32.06417 27.98954
# Shear Modulus (GPa) = 28.13290 33.77359 30.95324
#
# Velocity S-wave (km/s) = 3.43090 3.75915 3.59877
# Velocity P-wave (km/s) = 5.06962 5.67958 5.38325
#
# Compressibility (1/GPa) = 0.04181494
#
# Stress axis : x y z
#
# Youngs Moduli (GPa) = 29.65869 81.49230 73.34715
#
# Poissons Ratio (x) = -0.10345 0.49612
# Poissons Ratio (y) = -0.03765 0.25004
# Poissons Ratio (z) = 0.20061 0.27781
#
# Static dielectric constant tensor:
#      x y z
#    x 1.926270 0.000000 0.000000 
#    y 0.000000 1.918200 0.000000 
#    z 0.000000 0.000000 1.921620 
# 
# From -- ./inp_files/8113.got.cif
#   From: 2010.05.17/outbox.cif.g08.bks.cpg/sg61_5_cif.got.tgz:8113.got - 2010.06.03 15:17:17.
