data_PCOD9461893
_publ_section_title
;
Structure prediction by ZEFSAII (Michael W. Deem and Ramdas Pophale) SiO2 
 PCOD9461893
Probable space group: P N M A
;
_chemical_formula_sum "Si O2"
_cell_formula_units_Z 64
_cell_length_a 16.913015
_cell_length_b 7.405749
_cell_length_c 20.286201
_cell_angle_alpha 90.000000
_cell_angle_beta 90.000000
_cell_angle_gamma 90.000000
_cell_volume 2540.918568
_symmetry_space_group_name_H-M "P N M A"
_symmetry_group_IT_number 62
_symmetry_cell_setting 'orthorhombic'
loop_
_space_group_symop_operation_xyz
x,y,z
1/2-x,-y,1/2+z
1/2+x,1/2-y,1/2-z
-x,1/2+y,-z
-x,-y,-z
1/2+x,y,1/2-z
1/2-x,1/2+y,1/2+z
x,1/2-y,z
loop_
_atom_site_type_symbol
_atom_site_label
_atom_site_fract_x
_atom_site_fract_y
_atom_site_fract_z
Si Si1 0.977949 0.530928 0.131055
Si Si2 0.657786 0.035558 0.735669
Si Si3 0.126167 0.454307 0.981614
Si Si4 0.566795 0.028772 0.146899
Si Si5 0.127157 0.455981 0.213070
Si Si6 0.227962 0.473695 0.099544
Si Si7 0.236748 0.037600 0.383007
Si Si8 0.894501 0.454082 0.381163
O O1 0.982701 0.750000 0.128759
O O2 0.911962 0.482233 0.185085
O O3 0.945414 0.465572 0.060687
O O4 0.059114 0.455685 0.157603
O O5 0.654526 0.250000 0.745089
O O6 0.736254 0.992072 0.693115
O O7 0.635649 0.948543 0.805128
O O8 0.104103 0.250000 0.998719
O O9 0.199168 0.446703 0.929617
O O10 0.165024 0.539010 0.045837
O O11 0.561917 0.250000 0.148534
O O12 0.586263 0.966146 0.221653
O O13 0.646259 0.978745 0.107924
O O14 0.482140 0.963667 0.120786
O O15 0.148204 0.250000 0.229601
O O16 0.200239 0.535933 0.172124
O O17 0.228161 0.250000 0.099385
O O18 0.317190 0.533949 0.083633
O O19 0.241480 0.250000 0.395877
O O20 0.903578 0.250000 0.406285
#
# Coordination Sequence:
#
# PCOD9461893 Si02
#       8
#     8   8   8   8   8   8   8   8
#     4   9  18  31  48  71 102 137 166 206 257 304
#     4  10  19  32  50  76 108 138 168 207 263 317
#     4   9  19  37  53  71 103 140 180 217 256 308
#     4   9  18  31  51  81 108 128 164 219 263 306
#     4  10  18  31  51  78 105 131 167 209 256 311
#     4   9  19  34  54  75 101 140 178 214 259 312
#     4  10  19  33  54  77 101 134 176 218 258 304
#     4  10  18  33  56  77 101 137 176 214 259 313
#
# _framework density 25.187740999999999
#
# number of rings (size 3 to 8) (size 9 to 14) (size 15 to 20)
#    0.000    2.500    1.250    2.250    0.000    4.500 
#    0.000    6.250    0.000    0.000    0.000    0.000 
#    0.000    0.000    0.000    0.000    0.000    0.000 
#
# Total GULP energy -357569.045681 kJ/mol
# GULP energy per Si atom -5587.016339 kJ/mol
# Density = 2.513041 g / cm^3
# Si number density = 25.187741 Si / 1000 Ang^3
#
#
#
# Elastic Constant Matrix: (Units=GPa)
#
#
# Indices 1 2 3 4 5 6 
#
# 1 80.8911 5.2553 -32.3597 0.0000 0.0000 0.0000
# 2 5.2553 96.0702 -1.6302 0.0000 0.0000 0.0000
# 3 -32.3597 -1.6302 39.0051 0.0000 0.0000 0.0000
# 4 0.0000 0.0000 0.0000 4.9501 0.0000 0.0000
# 5 0.0000 0.0000 0.0000 0.0000 37.9167 0.0000
# 6 0.0000 0.0000 0.0000 0.0000 0.0000 5.0453
#
#
#
# Elastic Compliance Matrix: (Units=1/GPa)
#
#
# Indices 1 2 3 4 5 6 
#
# 1 0.018558 -0.000754 0.015364 0.000000 0.000000 0.000000
# 2 -0.000754 0.010447 -0.000189 0.000000 0.000000 0.000000
# 3 0.015364 -0.000189 0.038377 0.000000 0.000000 0.000000
# 4 0.000000 0.000000 0.000000 0.202015 0.000000 0.000000
# 5 0.000000 0.000000 0.000000 0.000000 0.026374 0.000000
# 6 0.000000 0.000000 0.000000 0.000000 0.000000 0.198203
#
#
# Mechanical properties :
#
#
# Convention : Reuss Voigt Hill
#
# Bulk Modulus (GPa) = 10.39254 17.61079 14.00167
# Shear Modulus (GPa) = 10.05619 25.89582 17.97601
#
# Velocity S-wave (km/s) = 2.00029 3.20990 2.67438
# Velocity P-wave (km/s) = 3.07732 4.55466 3.88682
#
# Compressibility (1/GPa) = 0.09622287
#
# Stress axis : x y z
#
# Youngs Moduli (GPa) = 53.88591 95.72022 26.05760
#
# Poissons Ratio (x) = 0.07222 -0.40036
# Poissons Ratio (y) = 0.04065 0.00493
# Poissons Ratio (z) = -0.82793 0.01812
#
# Static dielectric constant tensor:
#      x y z
#    x 2.020850 0.000000 0.000000 
#    y 0.000000 1.905950 0.000000 
#    z 0.000000 0.000000 1.994980 
# 
# From -- ./inp_files/29825.got.cif
#   From: 2010.05.17/outbox.cif.g08.bks.cpg/sg62_15_cif.got.tgz:29825.got - 2010.06.03 15:25:27.
