data_PCOD9461624
_publ_section_title
;
Structure prediction by ZEFSAII (Michael W. Deem and Ramdas Pophale) SiO2 
 PCOD9461624
Probable space group: P N M A
;
_chemical_formula_sum "Si O2"
_cell_formula_units_Z 64
_cell_length_a 30.959257
_cell_length_b 8.976044
_cell_length_c 14.895479
_cell_angle_alpha 90.000000
_cell_angle_beta 90.000000
_cell_angle_gamma 90.000000
_cell_volume 4139.329282
_symmetry_space_group_name_H-M "P N M A"
_symmetry_group_IT_number 62
_symmetry_cell_setting 'orthorhombic'
loop_
_space_group_symop_operation_xyz
x,y,z
1/2-x,-y,1/2+z
1/2+x,1/2-y,1/2-z
-x,1/2+y,-z
-x,-y,-z
1/2+x,y,1/2-z
1/2-x,1/2+y,1/2+z
x,1/2-y,z
loop_
_atom_site_type_symbol
_atom_site_label
_atom_site_fract_x
_atom_site_fract_y
_atom_site_fract_z
Si Si1 0.371856 0.574429 0.184881
Si Si2 0.049522 0.927442 0.597739
Si Si3 0.673373 0.080393 0.007429
Si Si4 0.209333 0.568252 0.202847
Si Si5 0.049974 0.072569 0.402084
Si Si6 0.223346 0.924488 0.000427
Si Si7 0.131014 0.573841 0.328355
Si Si8 0.204793 0.070004 0.813258
O O1 0.381048 0.750000 0.198184
O O2 0.416140 0.487045 0.169373
O O3 0.338701 0.522855 0.261475
O O4 0.345856 0.560604 0.091258
O O5 0.053599 0.750000 0.587174
O O6 0.999750 0.962582 0.621595
O O7 0.058121 0.003947 0.501115
O O8 0.662488 0.250000 0.037079
O O9 0.653989 0.965067 0.077397
O O10 0.724709 0.067357 0.003100
O O11 0.210842 0.750000 0.202326
O O12 0.210186 0.519756 0.099297
O O13 0.165518 0.523466 0.253519
O O14 0.252106 0.520170 0.258367
O O15 0.054390 0.250000 0.408254
O O16 0.085048 0.007098 0.333987
O O17 0.211246 0.750000 0.993258
O O18 0.206090 0.011244 0.914342
O O19 0.124594 0.750000 0.319731
O O20 0.205600 0.250000 0.812691
#
# Coordination Sequence:
#
# PCOD9461624 Si02
#       8
#     8   8   8   8   8   8   8   8
#     4  10  19  31  49  69  96 134 163 193 242 288
#     4  10  20  32  48  70  96 126 161 198 235 285
#     4  10  18  28  45  68  95 129 163 194 235 282
#     4   9  18  32  48  67  96 129 161 196 239 281
#     4  10  20  33  47  67  99 130 155 194 245 290
#     4  10  19  33  49  67  95 132 167 200 236 280
#     4  11  20  30  48  71  94 128 167 202 234 279
#     4  10  19  33  49  69  97 130 163 198 240 284
#
# _framework density 15.461442999999999
#
# number of rings (size 3 to 8) (size 9 to 14) (size 15 to 20)
#    0.000    2.000    3.750    1.125    0.000    2.000 
#    0.000    1.875    0.000    0.000    0.000    0.875 
#    0.000    0.000    0.000    0.000    0.000    0.000 
#
# Total GULP energy -356905.304608 kJ/mol
# GULP energy per Si atom -5576.645384 kJ/mol
# Density = 1.542625 g / cm^3
# Si number density = 15.461443 Si / 1000 Ang^3
#
#
#
# Elastic Constant Matrix: (Units=GPa)
#
#
# Indices 1 2 3 4 5 6 
#
# 1 119.7125 37.2941 58.4838 0.0000 0.0000 0.0000
# 2 37.2941 30.2526 25.5590 0.0000 0.0000 0.0000
# 3 58.4838 25.5590 91.1320 0.0000 0.0000 0.0000
# 4 0.0000 0.0000 0.0000 22.4495 0.0000 0.0000
# 5 0.0000 0.0000 0.0000 0.0000 24.0832 0.0000
# 6 0.0000 0.0000 0.0000 0.0000 0.0000 25.9393
#
#
#
# Elastic Compliance Matrix: (Units=1/GPa)
#
#
# Indices 1 2 3 4 5 6 
#
# 1 0.015804 -0.014303 -0.006131 0.000000 0.000000 0.000000
# 2 -0.014303 0.056264 -0.006601 0.000000 0.000000 0.000000
# 3 -0.006131 -0.006601 0.016759 0.000000 0.000000 0.000000
# 4 0.000000 0.000000 0.000000 0.044544 0.000000 0.000000
# 5 0.000000 0.000000 0.000000 0.000000 0.041523 0.000000
# 6 0.000000 0.000000 0.000000 0.000000 0.000000 0.038552
#
#
# Mechanical properties :
#
#
# Convention : Reuss Voigt Hill
#
# Bulk Modulus (GPa) = 28.77083 53.75233 41.26158
# Shear Modulus (GPa) = 17.91459 22.47841 20.19650
#
# Velocity S-wave (km/s) = 3.40761 3.81706 3.61813
# Velocity P-wave (km/s) = 5.84216 7.36664 6.64824
#
# Compressibility (1/GPa) = 0.03475742
#
# Stress axis : x y z
#
# Youngs Moduli (GPa) = 63.27337 17.77330 59.66979
#
# Poissons Ratio (x) = 0.25422 0.36583
# Poissons Ratio (y) = 0.90502 0.39387
# Poissons Ratio (z) = 0.38793 0.11732
#
# Static dielectric constant tensor:
#      x y z
#    x 1.530790 0.000000 0.000000 
#    y 0.000000 1.528620 0.000000 
#    z 0.000000 0.000000 1.493920 
# 
# From -- ./inp_files/21237.got.cif
#   From: 2010.05.17/outbox.cif.g08.bks.cpg/sg62_11_cif.got.tgz:21237.got - 2010.06.03 15:25:27.
