data_PCOD9461834
_publ_section_title
;
Structure prediction by ZEFSAII (Michael W. Deem and Ramdas Pophale) SiO2 
 PCOD9461834
Probable space group: P N M A
;
_chemical_formula_sum "Si O2"
_cell_formula_units_Z 64
_cell_length_a 34.413801
_cell_length_b 8.958716
_cell_length_c 12.052574
_cell_angle_alpha 90.000000
_cell_angle_beta 90.000000
_cell_angle_gamma 90.000000
_cell_volume 3715.850382
_symmetry_space_group_name_H-M "P N M A"
_symmetry_group_IT_number 62
_symmetry_cell_setting 'orthorhombic'
loop_
_space_group_symop_operation_xyz
x,y,z
1/2-x,-y,1/2+z
1/2+x,1/2-y,1/2-z
-x,1/2+y,-z
-x,-y,-z
1/2+x,y,1/2-z
1/2-x,1/2+y,1/2+z
x,1/2-y,z
loop_
_atom_site_type_symbol
_atom_site_label
_atom_site_fract_x
_atom_site_fract_y
_atom_site_fract_z
Si Si1 0.168182 0.574464 0.469939
Si Si2 0.389201 0.074063 0.761117
Si Si3 0.317779 0.071521 0.371201
Si Si4 0.035749 0.427465 0.353010
Si Si5 0.044724 0.071671 0.615115
Si Si6 0.631243 0.428892 0.814862
Si Si7 0.269813 0.928484 0.815426
Si Si8 0.325024 0.928613 0.611925
O O1 0.172432 0.750000 0.493467
O O2 0.134798 0.554901 0.376266
O O3 0.155364 0.489202 0.579930
O O4 0.206994 0.510590 0.413459
O O5 0.390167 0.250000 0.736129
O O6 0.431883 0.008863 0.780036
O O7 0.364514 0.986719 0.669137
O O8 0.322015 0.250000 0.373432
O O9 0.275552 0.035670 0.319008
O O10 0.350706 0.999004 0.295121
O O11 0.318922 0.006646 0.494741
O O12 0.037826 0.250000 0.337364
O O13 0.045255 0.459847 0.482881
O O14 0.992274 0.487323 0.334914
O O15 0.039275 0.250000 0.627446
O O16 0.086143 0.029311 0.666218
O O17 0.633569 0.250000 0.811565
O O18 0.274353 0.750000 0.830657
O O19 0.290781 0.967496 0.699576
O O20 0.325923 0.750000 0.599473
#
# Coordination Sequence:
#
# PCOD9461834 Si02
#       8
#     8   8   8   8   8   8   8   8
#     4  10  20  33  54  82 111 143 183 227 274 328
#     4  10  19  33  55  82 112 146 183 227 278 329
#     4  11  24  40  57  82 111 145 188 232 281 332
#     4  10  18  30  52  82 114 148 184 226 276 329
#     4   9  19  33  50  77 115 150 185 226 272 330
#     4  11  22  37  56  80 113 153 188 226 279 333
#     4   9  21  39  58  80 109 143 181 230 278 327
#     4  10  21  39  59  80 109 146 189 232 276 329
#
# _framework density 17.223513000000001
#
# number of rings (size 3 to 8) (size 9 to 14) (size 15 to 20)
#    0.000    2.000    1.250    2.250    1.750    4.000 
#    0.000    0.000    0.000    0.750    0.000    0.000 
#    0.000    0.000    0.000    0.000    0.000    0.000 
#
# Total GULP energy -357394.585351 kJ/mol
# GULP energy per Si atom -5584.290396 kJ/mol
# Density = 1.718431 g / cm^3
# Si number density = 17.223513 Si / 1000 Ang^3
#
#
#
# Elastic Constant Matrix: (Units=GPa)
#
#
# Indices 1 2 3 4 5 6 
#
# 1 124.7658 53.5125 58.0566 0.0000 0.0000 0.0000
# 2 53.5125 55.2764 44.3883 0.0000 0.0000 0.0000
# 3 58.0566 44.3883 89.1974 0.0000 0.0000 0.0000
# 4 0.0000 0.0000 0.0000 30.4496 0.0000 0.0000
# 5 0.0000 0.0000 0.0000 0.0000 18.9214 0.0000
# 6 0.0000 0.0000 0.0000 0.0000 0.0000 29.9085
#
#
#
# Elastic Compliance Matrix: (Units=1/GPa)
#
#
# Indices 1 2 3 4 5 6 
#
# 1 0.014554 -0.010797 -0.004099 0.000000 0.000000 0.000000
# 2 -0.010797 0.038143 -0.011954 0.000000 0.000000 0.000000
# 3 -0.004099 -0.011954 0.019828 0.000000 0.000000 0.000000
# 4 0.000000 0.000000 0.000000 0.032841 0.000000 0.000000
# 5 0.000000 0.000000 0.000000 0.000000 0.052850 0.000000
# 6 0.000000 0.000000 0.000000 0.000000 0.000000 0.033435
#
#
# Mechanical properties :
#
#
# Convention : Reuss Voigt Hill
#
# Bulk Modulus (GPa) = 53.12511 64.57272 58.84892
# Shear Modulus (GPa) = 19.87075 23.40804 21.63939
#
# Velocity S-wave (km/s) = 3.40030 3.69056 3.54840
# Velocity P-wave (km/s) = 6.80643 7.46544 7.14354
#
# Compressibility (1/GPa) = 0.01882349
#
# Stress axis : x y z
#
# Youngs Moduli (GPa) = 68.71190 26.21737 50.43367
#
# Poissons Ratio (x) = 0.28307 0.20675
# Poissons Ratio (y) = 0.74189 0.60287
# Poissons Ratio (z) = 0.28168 0.31340
#
# Static dielectric constant tensor:
#      x y z
#    x 1.573870 0.000000 0.000000 
#    y 0.000000 1.568240 0.000000 
#    z 0.000000 0.000000 1.555410 
# 
# From -- ./inp_files/15902.got.cif
#   From: 2010.05.17/outbox.cif.g08.bks.cpg/sg62_8_cif.got.tgz:15902.got - 2010.06.03 15:25:27.
