data_PCOD9461556
_publ_section_title
;
Structure prediction by ZEFSAII (Michael W. Deem and Ramdas Pophale) SiO2 
 PCOD9461556
Probable space group: P N M A
;
_chemical_formula_sum "Si O2"
_cell_formula_units_Z 64
_cell_length_a 27.644887
_cell_length_b 7.853242
_cell_length_c 19.113746
_cell_angle_alpha 90.000000
_cell_angle_beta 90.000000
_cell_angle_gamma 90.000000
_cell_volume 4149.632248
_symmetry_space_group_name_H-M "P N M A"
_symmetry_group_IT_number 62
_symmetry_cell_setting 'orthorhombic'
loop_
_space_group_symop_operation_xyz
x,y,z
1/2-x,-y,1/2+z
1/2+x,1/2-y,1/2-z
-x,1/2+y,-z
-x,-y,-z
1/2+x,y,1/2-z
1/2-x,1/2+y,1/2+z
x,1/2-y,z
loop_
_atom_site_type_symbol
_atom_site_label
_atom_site_fract_x
_atom_site_fract_y
_atom_site_fract_z
Si Si1 0.242838 0.952796 0.413850
Si Si2 0.212521 0.554136 0.778475
Si Si3 0.805363 0.055653 0.801609
Si Si4 0.350673 0.955771 0.158745
Si Si5 0.944824 0.544883 0.420409
Si Si6 0.946346 0.455366 0.581242
Si Si7 0.354152 0.040803 0.833397
Si Si8 0.755327 0.544843 0.424875
O O1 0.243416 0.750000 0.408975
O O2 0.190904 0.012107 0.382708
O O3 0.283539 0.021647 0.360835
O O4 0.248615 0.001764 0.494174
O O5 0.224770 0.750000 0.764999
O O6 0.255035 0.444065 0.742534
O O7 0.163919 0.511517 0.736725
O O8 0.820854 0.250000 0.814827
O O9 0.842866 0.980249 0.745616
O O10 0.788236 0.978398 0.875283
O O11 0.351216 0.750000 0.157236
O O12 0.401706 0.018199 0.128920
O O13 0.306474 0.013951 0.108315
O O14 0.945879 0.750000 0.414887
O O15 0.934223 0.501591 0.501205
O O16 0.999110 0.481472 0.404336
O O17 0.947212 0.250000 0.585514
O O18 0.904448 0.516161 0.633086
O O19 0.353854 0.250000 0.831982
O O20 0.754970 0.750000 0.418211
#
# Coordination Sequence:
#
# PCOD9461556 Si02
#       8
#     8   8   8   8   8   8   8   8
#     4  10  18  27  39  55  78 105 129 156 193 232
#     4  10  18  27  40  57  75  97 130 166 194 227
#     4   8  15  28  41  54  77 105 128 156 196 233
#     4   9  17  29  41  54  78 109 135 160 197 236
#     4   9  17  27  39  56  79 106 133 164 199 228
#     4   9  16  26  40  58  79 103 135 169 193 221
#     4   8  14  25  40  55  73 102 134 158 185 223
#     4   9  16  25  38  55  75 100 130 160 187 224
#
# _framework density 15.423052999999999
#
# number of rings (size 3 to 8) (size 9 to 14) (size 15 to 20)
#    0.000    3.000    0.000    3.750    0.000    2.500 
#    0.000    2.500    0.000    0.000    0.000    0.000 
#    0.000    1.000    0.000    1.750    0.000    2.500 
#
# Total GULP energy -356299.290359 kJ/mol
# GULP energy per Si atom -5567.176412 kJ/mol
# Density = 1.538795 g / cm^3
# Si number density = 15.423053 Si / 1000 Ang^3
#
#
#
# Elastic Constant Matrix: (Units=GPa)
#
#
# Indices 1 2 3 4 5 6 
#
# 1 99.6846 8.6636 68.2194 0.0000 0.0000 0.0000
# 2 8.6636 24.6394 7.0342 0.0000 0.0000 0.0000
# 3 68.2194 7.0342 123.7113 0.0000 0.0000 0.0000
# 4 0.0000 0.0000 0.0000 19.0088 0.0000 0.0000
# 5 0.0000 0.0000 0.0000 0.0000 29.8434 0.0000
# 6 0.0000 0.0000 0.0000 0.0000 0.0000 3.2754
#
#
#
# Elastic Compliance Matrix: (Units=1/GPa)
#
#
# Indices 1 2 3 4 5 6 
#
# 1 0.016361 -0.003230 -0.008838 0.000000 0.000000 0.000000
# 2 -0.003230 0.041893 -0.000601 0.000000 0.000000 0.000000
# 3 -0.008838 -0.000601 0.012991 0.000000 0.000000 0.000000
# 4 0.000000 0.000000 0.000000 0.052607 0.000000 0.000000
# 5 0.000000 0.000000 0.000000 0.000000 0.033508 0.000000
# 6 0.000000 0.000000 0.000000 0.000000 0.000000 0.305303
#
#
# Mechanical properties :
#
#
# Convention : Reuss Voigt Hill
#
# Bulk Modulus (GPa) = 21.78329 46.20775 33.99552
# Shear Modulus (GPa) = 9.93435 21.36671 15.65053
#
# Velocity S-wave (km/s) = 2.54071 3.72610 3.18897
# Velocity P-wave (km/s) = 4.77090 6.96685 5.97070
#
# Compressibility (1/GPa) = 0.04590674
#
# Stress axis : x y z
#
# Youngs Moduli (GPa) = 61.12118 23.87056 76.97401
#
# Poissons Ratio (x) = 0.07709 0.68033
# Poissons Ratio (y) = 0.19739 0.04627
# Poissons Ratio (z) = 0.54022 0.01435
#
# Static dielectric constant tensor:
#      x y z
#    x 1.521550 0.000000 0.000000 
#    y 0.000000 1.560510 0.000000 
#    z 0.000000 0.000000 1.527910 
# 
# From -- ./inp_files/24995.got.cif
#   From: 2010.05.17/outbox.cif.g08.bks.cpg/sg62_13_cif.got.tgz:24995.got - 2010.06.03 15:25:27.
