data_PCOD9461575
_publ_section_title
;
Structure prediction by ZEFSAII (Michael W. Deem and Ramdas Pophale) SiO2 
 PCOD9461575
Probable space group: P N M A
;
_chemical_formula_sum "Si O2"
_cell_formula_units_Z 64
_cell_length_a 26.200957
_cell_length_b 9.066884
_cell_length_c 18.847240
_cell_angle_alpha 90.000000
_cell_angle_beta 90.000000
_cell_angle_gamma 90.000000
_cell_volume 4477.369894
_symmetry_space_group_name_H-M "P N M A"
_symmetry_group_IT_number 62
_symmetry_cell_setting 'orthorhombic'
loop_
_space_group_symop_operation_xyz
x,y,z
1/2-x,-y,1/2+z
1/2+x,1/2-y,1/2-z
-x,1/2+y,-z
-x,-y,-z
1/2+x,y,1/2-z
1/2-x,1/2+y,1/2+z
x,1/2-y,z
loop_
_atom_site_type_symbol
_atom_site_label
_atom_site_fract_x
_atom_site_fract_y
_atom_site_fract_z
Si Si1 0.060361 0.423999 0.926297
Si Si2 0.760565 0.072028 0.920674
Si Si3 0.305434 0.919001 0.207139
Si Si4 0.858159 0.075502 0.169514
Si Si5 0.302578 0.419519 0.791874
Si Si6 0.247130 0.925591 0.914302
Si Si7 0.353483 0.573863 0.664413
Si Si8 0.560669 0.924173 0.423421
O O1 0.069985 0.250000 0.935879
O O2 0.094673 0.488762 0.863794
O O3 0.999978 0.443734 0.912593
O O4 0.073008 0.509794 0.999014
O O5 0.768868 0.250000 0.914401
O O6 0.711303 0.036601 0.872029
O O7 0.809018 0.989619 0.887140
O O8 0.753352 0.035510 0.002921
O O9 0.323941 0.750000 0.207173
O O10 0.251363 0.920984 0.249203
O O11 0.342950 0.020783 0.252068
O O12 0.867381 0.250000 0.168463
O O13 0.808580 0.044705 0.119869
O O14 0.319127 0.250000 0.797422
O O15 0.288784 0.489544 0.867441
O O16 0.340428 0.512843 0.742664
O O17 0.255810 0.750000 0.907673
O O18 0.352997 0.750000 0.663488
O O19 0.405970 0.508947 0.634283
O O20 0.572416 0.750000 0.422197
#
# Coordination Sequence:
#
# PCOD9461575 Si02
#       8
#     8   8   8   8   8   8   8   8
#     4  10  20  32  46  63  83 109 142 178 212 249
#     4   9  17  29  44  62  87 116 143 175 212 249
#     4   8  15  27  41  57  80 111 144 175 207 246
#     4  10  18  27  42  61  84 114 143 175 212 249
#     4   9  17  29  43  59  82 111 141 174 210 246
#     4   9  17  28  42  62  86 112 142 173 208 248
#     4  11  20  29  44  63  84 112 145 177 209 250
#     4  10  20  33  46  61  84 111 140 176 214 249
#
# _framework density 14.294105999999999
#
# number of rings (size 3 to 8) (size 9 to 14) (size 15 to 20)
#    0.000    2.500    0.000    4.125    0.000    6.500 
#    0.000    0.000    0.000    0.000    0.000    0.000 
#    0.000    1.000    0.000    3.000    0.000    4.000 
#
# Total GULP energy -356772.943060 kJ/mol
# GULP energy per Si atom -5574.577235 kJ/mol
# Density = 1.426157 g / cm^3
# Si number density = 14.294106 Si / 1000 Ang^3
#
#
#
# Elastic Constant Matrix: (Units=GPa)
#
#
# Indices 1 2 3 4 5 6 
#
# 1 37.0934 39.0536 26.5606 0.0000 0.0000 0.0000
# 2 39.0536 80.9820 45.1335 0.0000 0.0000 0.0000
# 3 26.5606 45.1335 89.9387 0.0000 0.0000 0.0000
# 4 0.0000 0.0000 0.0000 24.1625 0.0000 0.0000
# 5 0.0000 0.0000 0.0000 0.0000 24.7865 0.0000
# 6 0.0000 0.0000 0.0000 0.0000 0.0000 19.8567
#
#
#
# Elastic Compliance Matrix: (Units=1/GPa)
#
#
# Indices 1 2 3 4 5 6 
#
# 1 0.055851 -0.024630 -0.004134 0.000000 0.000000 0.000000
# 2 -0.024630 0.028005 -0.006780 0.000000 0.000000 0.000000
# 3 -0.004134 -0.006780 0.015742 0.000000 0.000000 0.000000
# 4 0.000000 0.000000 0.000000 0.041387 0.000000 0.000000
# 5 0.000000 0.000000 0.000000 0.000000 0.040345 0.000000
# 6 0.000000 0.000000 0.000000 0.000000 0.000000 0.050361
#
#
# Mechanical properties :
#
#
# Convention : Reuss Voigt Hill
#
# Bulk Modulus (GPa) = 35.07552 47.72327 41.39939
# Shear Modulus (GPa) = 16.01126 20.24555 18.12841
#
# Velocity S-wave (km/s) = 3.35047 3.76753 3.56510
# Velocity P-wave (km/s) = 6.28961 7.23774 6.78027
#
# Compressibility (1/GPa) = 0.02850991
#
# Stress axis : x y z
#
# Youngs Moduli (GPa) = 17.90486 35.70798 63.52549
#
# Poissons Ratio (x) = 0.87950 0.26260
# Poissons Ratio (y) = 0.44100 0.43069
# Poissons Ratio (z) = 0.07401 0.24209
#
# Static dielectric constant tensor:
#      x y z
#    x 1.453840 0.000000 0.000000 
#    y 0.000000 1.477480 0.000000 
#    z 0.000000 0.000000 1.471570 
# 
# From -- ./inp_files/24782.got.cif
#   From: 2010.05.17/outbox.cif.g08.bks.cpg/sg62_13_cif.got.tgz:24782.got - 2010.06.03 15:25:27.
