data_PCOD9461754
_publ_section_title
;
Structure prediction by ZEFSAII (Michael W. Deem and Ramdas Pophale) SiO2 
 PCOD9461754
Probable space group: P N M A
;
_chemical_formula_sum "Si O2"
_cell_formula_units_Z 56
_cell_length_a 16.395593
_cell_length_b 8.809828
_cell_length_c 22.198539
_cell_angle_alpha 90.000000
_cell_angle_beta 90.000000
_cell_angle_gamma 90.000000
_cell_volume 3206.409235
_symmetry_space_group_name_H-M "P N M A"
_symmetry_group_IT_number 62
_symmetry_cell_setting 'orthorhombic'
loop_
_space_group_symop_operation_xyz
x,y,z
1/2-x,-y,1/2+z
1/2+x,1/2-y,1/2-z
-x,1/2+y,-z
-x,-y,-z
1/2+x,y,1/2-z
1/2-x,1/2+y,1/2+z
x,1/2-y,z
loop_
_atom_site_type_symbol
_atom_site_label
_atom_site_fract_x
_atom_site_fract_y
_atom_site_fract_z
Si Si1 0.998620 0.575087 0.096109
Si Si2 0.744253 0.066114 0.814417
Si Si3 0.419439 0.065103 0.721714
Si Si4 0.437389 0.931898 0.047119
Si Si5 0.764239 0.071535 0.446260
Si Si6 0.058909 0.065753 0.686756
Si Si7 0.374331 0.421976 0.484842
O O1 0.972215 0.750000 0.105049
O O2 0.923516 0.474703 0.073747
O O3 0.043064 0.523048 0.156694
O O4 0.062734 0.574705 0.041099
O O5 0.743917 0.250000 0.816075
O O6 0.824166 0.017264 0.776479
O O7 0.651992 0.017664 0.796090
O O8 0.757317 0.007606 0.882575
O O9 0.418147 0.250000 0.724173
O O10 0.484298 0.011685 0.771695
O O11 0.436565 0.750000 0.043936
O O12 0.454836 0.974845 0.116850
O O13 0.348777 0.998426 0.033565
O O14 0.500000 0.000000 0.000000
O O15 0.772275 0.250000 0.436633
O O16 0.696655 0.034317 0.495743
O O17 0.059226 0.250000 0.690345
O O18 0.343996 0.250000 0.479064
#
# Coordination Sequence:
#
# PCOD9461754 Si02
#       7
#     8   8   8   8   8   8   8
#     4   9  17  28  45  69 101 136 169 205 247 299
#     4   9  16  30  50  72  98 131 169 211 259 307
#     4   9  15  28  49  73 101 133 171 212 255 302
#     4  10  20  36  56  78 104 133 170 213 263 308
#     4  11  20  31  51  76 101 131 174 217 256 305
#     4   8  16  29  50  77 101 128 168 213 253 303
#     4  10  18  30  46  70 102 135 167 206 253 297
#
# _framework density 17.465019999999999
#
# number of rings (size 3 to 8) (size 9 to 14) (size 15 to 20)
#    0.000    2.571    1.429    3.000    0.000    0.571 
#    0.000    1.429    0.000   13.714    0.000    0.000 
#    0.000    0.000    0.000    0.000    0.000    0.000 
#
# Total GULP energy -311934.664541 kJ/mol
# GULP energy per Si atom -5570.261867 kJ/mol
# Density = 1.742527 g / cm^3
# Si number density = 17.465020 Si / 1000 Ang^3
#
#
#
# Elastic Constant Matrix: (Units=GPa)
#
#
# Indices 1 2 3 4 5 6 
#
# 1 136.9775 20.9480 58.6891 0.0000 0.0000 0.0000
# 2 20.9480 30.9189 11.2025 0.0000 0.0000 0.0000
# 3 58.6891 11.2025 50.1681 0.0000 0.0000 0.0000
# 4 0.0000 0.0000 0.0000 16.9249 0.0000 0.0000
# 5 0.0000 0.0000 0.0000 0.0000 31.2048 0.0000
# 6 0.0000 0.0000 0.0000 0.0000 0.0000 21.2549
#
#
#
# Elastic Compliance Matrix: (Units=1/GPa)
#
#
# Indices 1 2 3 4 5 6 
#
# 1 0.015116 -0.004172 -0.016752 0.000000 0.000000 0.000000
# 2 -0.004172 0.036341 -0.003235 0.000000 0.000000 0.000000
# 3 -0.016752 -0.003235 0.040252 0.000000 0.000000 0.000000
# 4 0.000000 0.000000 0.000000 0.059085 0.000000 0.000000
# 5 0.000000 0.000000 0.000000 0.000000 0.032046 0.000000
# 6 0.000000 0.000000 0.000000 0.000000 0.000000 0.047048
#
#
# Mechanical properties :
#
#
# Convention : Reuss Voigt Hill
#
# Bulk Modulus (GPa) = 23.04520 44.41596 33.73058
# Shear Modulus (GPa) = 17.08416 22.35857 19.72137
#
# Velocity S-wave (km/s) = 3.13100 3.58186 3.36399
# Velocity P-wave (km/s) = 5.12783 6.52632 5.86888
#
# Compressibility (1/GPa) = 0.04339298
#
# Stress axis : x y z
#
# Youngs Moduli (GPa) = 66.15564 27.51711 24.84329
#
# Poissons Ratio (x) = 0.11479 0.41617
# Poissons Ratio (y) = 0.27598 0.08036
# Poissons Ratio (z) = 1.10822 0.08901
#
# Static dielectric constant tensor:
#      x y z
#    x 1.605050 0.000000 0.000000 
#    y 0.000000 1.589940 0.000000 
#    z 0.000000 0.000000 1.574160 
# 
# From -- ./inp_files/30000.got.cif
#   From: 2010.05.17/outbox.cif.g08.bks.cpg/sg62_15_cif.got.tgz:30000.got - 2010.06.03 15:25:27.
