data_PCOD9461101
_publ_section_title
;
Structure prediction by ZEFSAII (Michael W. Deem and Ramdas Pophale) SiO2 
 PCOD9461101
Probable space group: P B C A
;
_chemical_formula_sum "Si O2"
_cell_formula_units_Z 24
_cell_length_a 7.227295
_cell_length_b 14.014989
_cell_length_c 10.418323
_cell_angle_alpha 90.000000
_cell_angle_beta 90.000000
_cell_angle_gamma 90.000000
_cell_volume 1055.276728
_symmetry_space_group_name_H-M "P B C A"
_symmetry_group_IT_number 61
_symmetry_cell_setting 'orthorhombic'
loop_
_space_group_symop_operation_xyz
x,y,z
1/2-x,-y,1/2+z
1/2+x,1/2-y,-z
-x,1/2+y,1/2-z
-x,-y,-z
1/2+x,y,1/2-z
1/2-x,1/2+y,z
x,1/2-y,1/2+z
loop_
_atom_site_type_symbol
_atom_site_label
_atom_site_fract_x
_atom_site_fract_y
_atom_site_fract_z
Si Si1 0.615469 0.638385 0.575034
Si Si2 0.941268 0.830471 0.886712
Si Si3 0.312534 0.929824 0.868142
O O1 0.521800 0.726429 0.647221
O O2 0.797795 0.676145 0.502949
O O3 0.667862 0.543177 0.651489
O O4 0.470253 0.604317 0.466178
O O5 0.839662 0.876756 0.766036
O O6 0.113229 0.898829 0.920850
#
# Coordination Sequence:
#
# PCOD9461101 Si02
#       3
#     8   8   8
#     4  11  25  45  70 102 143 181 235 290 345 417
#     4  12  23  47  72 102 139 189 232 287 353 411
#     4  11  25  44  68 106 139 183 233 286 352 412
#
# _framework density 22.742850000000001
#
# number of rings (size 3 to 8) (size 9 to 14) (size 15 to 20)
#    0.000    0.667    6.667    1.000    0.000    2.667 
#    6.000    0.000    0.000    0.000    0.000    0.000 
#    0.000    0.000    0.000    0.000    0.000    0.000 
#
# Total GULP energy -134420.134894 kJ/mol
# GULP energy per Si atom -5600.838954 kJ/mol
# Density = 2.269109 g / cm^3
# Si number density = 22.742850 Si / 1000 Ang^3
#
#
#
# Elastic Constant Matrix: (Units=GPa)
#
#
# Indices 1 2 3 4 5 6 
#
# 1 75.9777 -28.8831 -8.1827 0.0000 0.0000 0.0000
# 2 -28.8831 112.7969 16.0757 0.0000 0.0000 0.0000
# 3 -8.1827 16.0757 35.0364 0.0000 0.0000 0.0000
# 4 0.0000 0.0000 0.0000 28.1511 0.0000 0.0000
# 5 0.0000 0.0000 0.0000 0.0000 13.3478 0.0000
# 6 0.0000 0.0000 0.0000 0.0000 0.0000 38.0281
#
#
#
# Elastic Compliance Matrix: (Units=1/GPa)
#
#
# Indices 1 2 3 4 5 6 
#
# 1 0.014689 0.003501 0.001824 0.000000 0.000000 0.000000
# 2 0.003501 0.010320 -0.003918 0.000000 0.000000 0.000000
# 3 0.001824 -0.003918 0.030765 0.000000 0.000000 0.000000
# 4 0.000000 0.000000 0.000000 0.035523 0.000000 0.000000
# 5 0.000000 0.000000 0.000000 0.000000 0.074919 0.000000
# 6 0.000000 0.000000 0.000000 0.000000 0.000000 0.026296
#
#
# Mechanical properties :
#
#
# Convention : Reuss Voigt Hill
#
# Bulk Modulus (GPa) = 17.06751 20.20342 18.63546
# Shear Modulus (GPa) = 23.89750 32.22547 28.06149
#
# Velocity S-wave (km/s) = 3.24507 3.76832 3.51644
# Velocity P-wave (km/s) = 4.64344 5.27602 4.96980
#
# Compressibility (1/GPa) = 0.05859087
#
# Stress axis : x y z
#
# Youngs Moduli (GPa) = 68.07681 96.89546 32.50424
#
# Poissons Ratio (x) = -0.33927 -0.05929
# Poissons Ratio (y) = -0.23837 0.12734
# Poissons Ratio (z) = -0.12418 0.37959
#
# Static dielectric constant tensor:
#      x y z
#    x 1.829930 0.000000 0.000000 
#    y 0.000000 1.849830 0.000000 
#    z 0.000000 0.000000 1.790800 
# 
# From -- ./inp_files/128.got.cif
#   From: 2010.05.17/outbox.cif.g08.bks.cpg/sg61_1_cif.got.tgz:128.got - 2010.06.03 15:17:17.
