data_PCOD9461749
_publ_section_title
;
Structure prediction by ZEFSAII (Michael W. Deem and Ramdas Pophale) SiO2 
 PCOD9461749
Probable space group: P N M A
;
_chemical_formula_sum "Si O2"
_cell_formula_units_Z 48
_cell_length_a 9.160370
_cell_length_b 14.786027
_cell_length_c 22.358367
_cell_angle_alpha 90.000000
_cell_angle_beta 90.000000
_cell_angle_gamma 90.000000
_cell_volume 3028.339709
_symmetry_space_group_name_H-M "P N M A"
_symmetry_group_IT_number 62
_symmetry_cell_setting 'orthorhombic'
loop_
_space_group_symop_operation_xyz
x,y,z
1/2-x,-y,1/2+z
1/2+x,1/2-y,1/2-z
-x,1/2+y,-z
-x,-y,-z
1/2+x,y,1/2-z
1/2-x,1/2+y,1/2+z
x,1/2-y,z
loop_
_atom_site_type_symbol
_atom_site_label
_atom_site_fract_x
_atom_site_fract_y
_atom_site_fract_z
Si Si1 0.420884 0.644651 0.891014
Si Si2 0.782761 0.354107 0.990005
Si Si3 0.134436 0.523415 0.542634
Si Si4 0.108911 0.142301 0.032661
Si Si5 0.218453 0.859743 0.779453
Si Si6 0.093250 0.360053 0.171699
O O1 0.467186 0.750000 0.885834
O O2 0.559204 0.582362 0.905583
O O3 0.335525 0.618334 0.831085
O O4 0.305857 0.640160 0.946648
O O5 0.769742 0.250000 0.970056
O O6 0.713835 0.428152 0.946052
O O7 0.952513 0.374652 0.002730
O O8 0.254236 0.585663 0.509258
O O9 0.000000 0.500000 0.500000
O O10 0.136039 0.250000 0.029499
O O11 0.100110 0.114298 0.102528
O O12 0.211799 0.750000 0.778175
O O13 0.276576 0.889859 0.715107
O O14 0.059044 0.890986 0.799106
O O15 0.092226 0.250000 0.171840
#
# Coordination Sequence:
#
# PCOD9461749 Si02
#       6
#     8   8   8   8   8   8
#     4   9  16  28  43  61  90 121 145 177 216 257
#     4   9  17  31  46  58  81 116 152 188 225 256
#     4  10  20  29  42  64  85 113 154 190 221 256
#     4  10  18  30  46  64  88 121 151 177 217 267
#     4   9  16  26  39  59  89 122 150 174 203 248
#     4   9  17  26  40  62  88 120 151 173 202 250
#
# _framework density 15.850269000000001
#
# number of rings (size 3 to 8) (size 9 to 14) (size 15 to 20)
#    0.000    2.667    1.667    1.000    2.333    0.667 
#    0.000    0.000    0.000    0.000    0.000    0.000 
#    0.000    1.333    0.000    1.000    0.000    0.333 
#
# Total GULP energy -267344.868490 kJ/mol
# GULP energy per Si atom -5569.684760 kJ/mol
# Density = 1.581419 g / cm^3
# Si number density = 15.850269 Si / 1000 Ang^3
#
#
#
# Elastic Constant Matrix: (Units=GPa)
#
#
# Indices 1 2 3 4 5 6 
#
# 1 98.6885 45.3587 15.4351 0.0000 0.0000 0.0000
# 2 45.3587 49.8087 12.0634 0.0000 0.0000 0.0000
# 3 15.4351 12.0634 27.5688 0.0000 0.0000 0.0000
# 4 0.0000 0.0000 0.0000 4.9876 0.0000 0.0000
# 5 0.0000 0.0000 0.0000 0.0000 22.3643 0.0000
# 6 0.0000 0.0000 0.0000 0.0000 0.0000 31.1047
#
#
#
# Elastic Compliance Matrix: (Units=1/GPa)
#
#
# Indices 1 2 3 4 5 6 
#
# 1 0.017674 -0.015323 -0.003191 0.000000 0.000000 0.000000
# 2 -0.015323 0.035740 -0.007060 0.000000 0.000000 0.000000
# 3 -0.003191 -0.007060 0.041149 0.000000 0.000000 0.000000
# 4 0.000000 0.000000 0.000000 0.200498 0.000000 0.000000
# 5 0.000000 0.000000 0.000000 0.000000 0.044714 0.000000
# 6 0.000000 0.000000 0.000000 0.000000 0.000000 0.032150
#
#
# Mechanical properties :
#
#
# Convention : Reuss Voigt Hill
#
# Bulk Modulus (GPa) = 23.03282 35.75339 29.39311
# Shear Modulus (GPa) = 11.42741 18.57191 14.99966
#
# Velocity S-wave (km/s) = 2.68798 3.42674 3.07959
# Velocity P-wave (km/s) = 4.91902 6.18568 5.58835
#
# Compressibility (1/GPa) = 0.04341630
#
# Stress axis : x y z
#
# Youngs Moduli (GPa) = 56.57891 27.97954 24.30211
#
# Poissons Ratio (x) = 0.42872 0.07754
# Poissons Ratio (y) = 0.86694 0.17158
# Poissons Ratio (z) = 0.18053 0.19754
#
# Static dielectric constant tensor:
#      x y z
#    x 1.573940 0.000000 0.000000 
#    y 0.000000 1.539740 0.000000 
#    z 0.000000 0.000000 1.530630 
# 
# From -- ./inp_files/25851.got.cif
#   From: 2010.05.17/outbox.cif.g08.bks.cpg/sg62_13_cif.got.tgz:25851.got - 2010.06.03 15:25:27.
