data_PCOD9461682
_publ_section_title
;
Structure prediction by ZEFSAII (Michael W. Deem and Ramdas Pophale) SiO2 
 PCOD9461682
Probable space group: P N M A
;
_chemical_formula_sum "Si O2"
_cell_formula_units_Z 56
_cell_length_a 19.365885
_cell_length_b 9.147996
_cell_length_c 18.281262
_cell_angle_alpha 90.000000
_cell_angle_beta 90.000000
_cell_angle_gamma 90.000000
_cell_volume 3238.690799
_symmetry_space_group_name_H-M "P N M A"
_symmetry_group_IT_number 62
_symmetry_cell_setting 'orthorhombic'
loop_
_space_group_symop_operation_xyz
x,y,z
1/2-x,-y,1/2+z
1/2+x,1/2-y,1/2-z
-x,1/2+y,-z
-x,-y,-z
1/2+x,y,1/2-z
1/2-x,1/2+y,1/2+z
x,1/2-y,z
loop_
_atom_site_type_symbol
_atom_site_label
_atom_site_fract_x
_atom_site_fract_y
_atom_site_fract_z
Si Si1 0.688915 0.927293 0.808266
Si Si2 0.578871 0.917562 0.079700
Si Si3 0.426574 0.926249 0.483231
Si Si4 0.349974 0.081795 0.352369
Si Si5 0.209210 0.073942 0.072896
Si Si6 0.288902 0.585005 0.945413
Si Si7 0.943091 0.418930 0.404337
O O1 0.692969 0.750000 0.802366
O O2 0.666579 0.979292 0.728106
O O3 0.760306 0.973561 0.848124
O O4 0.625776 0.963404 0.862230
O O5 0.589258 0.750000 0.100477
O O6 0.645892 0.013943 0.094039
O O7 0.509156 0.982959 0.112862
O O8 0.569761 0.924808 0.991383
O O9 0.432178 0.750000 0.481955
O O10 0.367416 0.966704 0.544075
O O11 0.500000 0.000000 0.500000
O O12 0.398164 0.986817 0.405610
O O13 0.376864 0.250000 0.347210
O O14 0.276092 0.089575 0.391887
O O15 0.212511 0.250000 0.070295
O O16 0.262649 0.010516 0.013475
O O17 0.305891 0.750000 0.969346
O O18 0.958097 0.250000 0.385727
#
# Coordination Sequence:
#
# PCOD9461682 Si02
#       7
#     8   8   8   8   8   8   8
#     4   9  16  32  54  75  99 129 170 215 258 311
#     4  10  18  29  46  69  98 130 165 204 244 295
#     4  10  20  35  57  80 107 139 179 225 264 315
#     4   9  19  34  54  77 102 131 167 215 266 311
#     4   9  17  32  54  77  97 129 172 214 260 306
#     4  10  18  29  47  73 101 129 164 206 249 300
#     4   9  17  29  47  70  96 128 164 205 246 293
#
# _framework density 17.290938000000001
#
# number of rings (size 3 to 8) (size 9 to 14) (size 15 to 20)
#    0.000    2.571    1.429    1.286    0.000    1.714 
#    0.000    2.857    0.000    5.143    0.000    0.000 
#    0.000    0.000    0.000    0.000    0.000    0.000 
#
# Total GULP energy -311816.431294 kJ/mol
# GULP energy per Si atom -5568.150559 kJ/mol
# Density = 1.725158 g / cm^3
# Si number density = 17.290938 Si / 1000 Ang^3
#
#
#
# Elastic Constant Matrix: (Units=GPa)
#
#
# Indices 1 2 3 4 5 6 
#
# 1 115.4856 45.5483 43.3653 0.0000 0.0000 0.0000
# 2 45.5483 41.4470 17.5143 0.0000 0.0000 0.0000
# 3 43.3653 17.5143 88.6888 0.0000 0.0000 0.0000
# 4 0.0000 0.0000 0.0000 15.9517 0.0000 0.0000
# 5 0.0000 0.0000 0.0000 0.0000 13.1011 0.0000
# 6 0.0000 0.0000 0.0000 0.0000 0.0000 27.1860
#
#
#
# Elastic Compliance Matrix: (Units=1/GPa)
#
#
# Indices 1 2 3 4 5 6 
#
# 1 0.017160 -0.016707 -0.005091 0.000000 0.000000 0.000000
# 2 -0.016707 0.042589 -0.000242 0.000000 0.000000 0.000000
# 3 -0.005091 -0.000242 0.013813 0.000000 0.000000 0.000000
# 4 0.000000 0.000000 0.000000 0.062689 0.000000 0.000000
# 5 0.000000 0.000000 0.000000 0.000000 0.076330 0.000000
# 6 0.000000 0.000000 0.000000 0.000000 0.000000 0.036784
#
#
# Mechanical properties :
#
#
# Convention : Reuss Voigt Hill
#
# Bulk Modulus (GPa) = 33.91839 50.94193 42.43016
# Shear Modulus (GPa) = 16.48685 20.52730 18.50708
#
# Velocity S-wave (km/s) = 3.09122 3.44927 3.27514
# Velocity P-wave (km/s) = 5.69208 6.73713 6.23653
#
# Compressibility (1/GPa) = 0.02948253
#
# Stress axis : x y z
#
# Youngs Moduli (GPa) = 58.27434 23.48004 72.39779
#
# Poissons Ratio (x) = 0.39228 0.36861
# Poissons Ratio (y) = 0.97358 0.01749
# Poissons Ratio (z) = 0.29670 0.00567
#
# Static dielectric constant tensor:
#      x y z
#    x 1.588440 0.000000 0.000000 
#    y 0.000000 1.600530 0.000000 
#    z 0.000000 0.000000 1.596540 
# 
# From -- ./inp_files/24561.got.cif
#   From: 2010.05.17/outbox.cif.g08.bks.cpg/sg62_13_cif.got.tgz:24561.got - 2010.06.03 15:25:27.
