data_PCOD9461438
_publ_section_title
;
Structure prediction by ZEFSAII (Michael W. Deem and Ramdas Pophale) SiO2 
 PCOD9461438
Probable space group: P N M A
;
_chemical_formula_sum "Si O2"
_cell_formula_units_Z 44
_cell_length_a 8.614366
_cell_length_b 21.409784
_cell_length_c 9.836946
_cell_angle_alpha 90.000000
_cell_angle_beta 90.000000
_cell_angle_gamma 90.000000
_cell_volume 1814.244825
_symmetry_space_group_name_H-M "P N M A"
_symmetry_group_IT_number 62
_symmetry_cell_setting 'orthorhombic'
loop_
_space_group_symop_operation_xyz
x,y,z
1/2-x,-y,1/2+z
1/2+x,1/2-y,1/2-z
-x,1/2+y,-z
-x,-y,-z
1/2+x,y,1/2-z
1/2-x,1/2+y,1/2+z
x,1/2-y,z
loop_
_atom_site_type_symbol
_atom_site_label
_atom_site_fract_x
_atom_site_fract_y
_atom_site_fract_z
Si Si1 0.848155 0.484920 0.084762
Si Si2 0.854941 0.750000 0.488420
Si Si3 0.367048 0.614834 0.004588
Si Si4 0.228236 0.612846 0.428943
Si Si5 0.574586 0.250000 0.307160
Si Si6 0.219243 0.750000 0.431050
Si Si7 0.550348 0.116990 0.308681
O O1 0.732112 0.448063 0.983788
O O2 0.918774 0.435158 0.188641
O O3 0.781332 0.549205 0.143674
O O4 0.000000 0.500000 0.000000
O O5 0.792960 0.818848 0.448357
O O6 0.870457 0.750000 0.652148
O O7 0.033443 0.750000 0.435805
O O8 0.542503 0.610150 0.058623
O O9 0.384465 0.618312 0.841615
O O10 0.270661 0.682320 0.374206
O O11 0.318253 0.608477 0.574935
O O12 0.717582 0.250000 0.413242
O O13 0.483233 0.186346 0.333878
#
# Coordination Sequence:
#
# PCOD9461438 Si02
#       7
#     8   4   8   8   4   4   8
#     4  10  20  30  41  63  93 121 151 184 217 260
#     4   8  16  24  40  66  88 112 148 178 208 265
#     4  10  17  29  46  65  91 123 150 180 220 267
#     4   9  17  29  43  62  88 119 151 186 226 265
#     4   8  14  24  40  62  90 119 141 173 216 260
#     4   8  14  26  40  56  82 115 149 181 222 269
#     4   9  17  28  44  66  92 120 152 182 215 264
#
# _framework density 24.252516
#
# number of rings (size 3 to 8) (size 9 to 14) (size 15 to 20)
#    0.000    2.909    0.000    1.636    0.000    5.091 
#    0.000    0.909    0.000    0.000    0.000    1.273 
#    0.000   11.636    0.000    1.091    0.000    0.000 
#
# Total GULP energy -245290.370224 kJ/mol
# GULP energy per Si atom -5574.781141 kJ/mol
# Density = 2.419732 g / cm^3
# Si number density = 24.252516 Si / 1000 Ang^3
#
#
#
# Elastic Constant Matrix: (Units=GPa)
#
#
# Indices 1 2 3 4 5 6 
#
# 1 73.0644 63.3029 1.9358 0.0000 0.0000 0.0000
# 2 63.3029 234.0761 5.3879 0.0000 0.0000 0.0000
# 3 1.9358 5.3879 52.5194 0.0000 0.0000 0.0000
# 4 0.0000 0.0000 0.0000 2.2754 0.0000 0.0000
# 5 0.0000 0.0000 0.0000 0.0000 9.6488 0.0000
# 6 0.0000 0.0000 0.0000 0.0000 0.0000 -4.1881
#
#
#
# Elastic Compliance Matrix: (Units=1/GPa)
#
#
# Indices 1 2 3 4 5 6 
#
# 1 0.017876 -0.004831 -0.000163 0.000000 0.000000 0.000000
# 2 -0.004831 0.005588 -0.000395 0.000000 0.000000 0.000000
# 3 -0.000163 -0.000395 0.019087 0.000000 0.000000 0.000000
# 4 0.000000 0.000000 0.000000 0.439484 0.000000 0.000000
# 5 0.000000 0.000000 0.000000 0.000000 0.103639 0.000000
# 6 0.000000 0.000000 0.000000 0.000000 0.000000 -0.238774
#
#
# Mechanical properties :
#
#
# Convention : Reuss Voigt Hill
#
# Bulk Modulus (GPa) = 31.47365 55.65704 43.56535
# Shear Modulus (GPa) = 13.57701 20.81612 17.19657
#
# Velocity S-wave (km/s) = 2.36862 2.93287 2.66571
# Velocity P-wave (km/s) = 4.52616 5.87092 5.24184
#
# Compressibility (1/GPa) = 0.03177261
#
# Stress axis : x y z
#
# Youngs Moduli (GPa) = 55.94058 178.96813 52.39133
#
# Poissons Ratio (x) = 0.86452 0.00856
# Poissons Ratio (y) = 0.27023 0.02070
# Poissons Ratio (z) = 0.00914 0.07072
#
# Static dielectric constant tensor:
#      x y z
#    x 1.919930 0.000000 0.000000 
#    y 0.000000 2.121060 0.000000 
#    z 0.000000 0.000000 1.915690 
# 
# From -- ./inp_files/11265.got.cif
#   From: 2010.05.17/outbox.cif.g08.bks.cpg/sg62_6_cif.got.tgz:11265.got - 2010.06.03 15:25:27.
