data_PCOD9461828
_publ_section_title
;
Structure prediction by ZEFSAII (Michael W. Deem and Ramdas Pophale) SiO2 
 PCOD9461828
Probable space group: P N M A
;
_chemical_formula_sum "Si O2"
_cell_formula_units_Z 48
_cell_length_a 7.479110
_cell_length_b 24.866818
_cell_length_c 11.804731
_cell_angle_alpha 90.000000
_cell_angle_beta 90.000000
_cell_angle_gamma 90.000000
_cell_volume 2195.463552
_symmetry_space_group_name_H-M "P N M A"
_symmetry_group_IT_number 62
_symmetry_cell_setting 'orthorhombic'
loop_
_space_group_symop_operation_xyz
x,y,z
1/2-x,-y,1/2+z
1/2+x,1/2-y,1/2-z
-x,1/2+y,-z
-x,-y,-z
1/2+x,y,1/2-z
1/2-x,1/2+y,1/2+z
x,1/2-y,z
loop_
_atom_site_type_symbol
_atom_site_label
_atom_site_fract_x
_atom_site_fract_y
_atom_site_fract_z
Si Si1 0.977216 0.561990 0.204233
Si Si2 0.727056 0.920985 0.896465
Si Si3 0.302370 0.250000 0.763717
Si Si4 0.268416 0.843662 0.418543
Si Si5 0.862668 0.441857 0.145264
Si Si6 0.997027 0.250000 0.924632
Si Si7 0.655365 0.456106 0.930687
O O1 0.872414 0.612615 0.155903
O O2 0.881666 0.505567 0.171835
O O3 0.991818 0.563203 0.340586
O O4 0.166908 0.558062 0.143055
O O5 0.676410 0.914810 0.765443
O O6 0.943493 0.925363 0.901962
O O7 0.651961 0.978787 0.937045
O O8 0.670988 0.873503 0.979269
O O9 0.341621 0.195356 0.835404
O O10 0.301696 0.250000 0.626172
O O11 0.080117 0.250000 0.794316
O O12 0.418557 0.803445 0.473832
O O13 0.706624 0.433771 0.053824
#
# Coordination Sequence:
#
# PCOD9461828 Si02
#       7
#     8   8   4   8   8   4   8
#     4  10  18  30  52  76 108 144 173 225 266 318
#     4  10  18  35  52  71 109 155 176 217 263 314
#     4   8  20  32  54  82 100 132 178 224 278 320
#     4   9  18  32  56  71 108 137 172 214 292 298
#     4  10  19  33  48  76 112 144 189 209 250 329
#     4   8  20  34  54  80 104 126 180 230 268 324
#     4  10  19  32  48  80 112 141 187 213 259 325
#
# _framework density 21.863264000000001
#
# number of rings (size 3 to 8) (size 9 to 14) (size 15 to 20)
#    1.000    1.333    3.333    1.000    2.333    0.000 
#    3.000    3.333    0.000    4.000    0.000    0.000 
#    0.000    0.000    0.000    0.000    0.000    0.000 
#
# Total GULP energy -267721.898581 kJ/mol
# GULP energy per Si atom -5577.539554 kJ/mol
# Density = 2.181350 g / cm^3
# Si number density = 21.863264 Si / 1000 Ang^3
#
#
#
# Elastic Constant Matrix: (Units=GPa)
#
#
# Indices 1 2 3 4 5 6 
#
# 1 45.9847 13.7995 8.9083 0.0000 0.0000 0.0000
# 2 13.7995 108.4784 45.0208 0.0000 0.0000 0.0000
# 3 8.9083 45.0208 123.6708 0.0000 0.0000 0.0000
# 4 0.0000 0.0000 0.0000 33.4086 0.0000 0.0000
# 5 0.0000 0.0000 0.0000 0.0000 30.1848 0.0000
# 6 0.0000 0.0000 0.0000 0.0000 0.0000 16.1552
#
#
#
# Elastic Compliance Matrix: (Units=1/GPa)
#
#
# Indices 1 2 3 4 5 6 
#
# 1 0.022659 -0.002597 -0.000687 0.000000 0.000000 0.000000
# 2 -0.002597 0.011157 -0.003874 0.000000 0.000000 0.000000
# 3 -0.000687 -0.003874 0.009546 0.000000 0.000000 0.000000
# 4 0.000000 0.000000 0.000000 0.029932 0.000000 0.000000
# 5 0.000000 0.000000 0.000000 0.000000 0.033129 0.000000
# 6 0.000000 0.000000 0.000000 0.000000 0.000000 0.061900
#
#
# Mechanical properties :
#
#
# Convention : Reuss Voigt Hill
#
# Bulk Modulus (GPa) = 34.42981 45.95456 40.19218
# Shear Modulus (GPa) = 25.99818 29.97674 27.98746
#
# Velocity S-wave (km/s) = 3.45211 3.70685 3.58175
# Velocity P-wave (km/s) = 5.62774 6.27581 5.96058
#
# Compressibility (1/GPa) = 0.02904460
#
# Stress axis : x y z
#
# Youngs Moduli (GPa) = 44.13288 89.63148 104.75740
#
# Poissons Ratio (x) = 0.23281 0.07193
# Poissons Ratio (y) = 0.11463 0.40587
# Poissons Ratio (z) = 0.03030 0.34727
#
# Static dielectric constant tensor:
#      x y z
#    x 2.043380 0.000000 0.000000 
#    y 0.000000 1.787860 0.000000 
#    z 0.000000 0.000000 1.691830 
# 
# From -- ./inp_files/12488.got.cif
#   From: 2010.05.17/outbox.cif.g08.bks.cpg/sg62_7_cif.got.tgz:12488.got - 2010.06.03 15:25:27.
