data_PCOD9461526
_publ_section_title
;
Structure prediction by ZEFSAII (Michael W. Deem and Ramdas Pophale) SiO2 
 PCOD9461526
Probable space group: P N M A
;
_chemical_formula_sum "Si O2"
_cell_formula_units_Z 36
_cell_length_a 13.894458
_cell_length_b 10.705838
_cell_length_c 9.754520
_cell_angle_alpha 90.000000
_cell_angle_beta 90.000000
_cell_angle_gamma 90.000000
_cell_volume 1451.002569
_symmetry_space_group_name_H-M "P N M A"
_symmetry_group_IT_number 62
_symmetry_cell_setting 'orthorhombic'
loop_
_space_group_symop_operation_xyz
x,y,z
1/2-x,-y,1/2+z
1/2+x,1/2-y,1/2-z
-x,1/2+y,-z
-x,-y,-z
1/2+x,y,1/2-z
1/2-x,1/2+y,1/2+z
x,1/2-y,z
loop_
_atom_site_type_symbol
_atom_site_label
_atom_site_fract_x
_atom_site_fract_y
_atom_site_fract_z
Si Si1 0.565187 0.750000 0.980536
Si Si2 0.196833 0.750000 0.854867
Si Si3 0.105012 0.250000 0.698674
Si Si4 0.051946 0.492052 0.148564
Si Si5 0.568593 0.750000 0.386078
Si Si6 0.633137 0.973418 0.832640
Si Si7 0.893156 0.750000 0.730497
O O1 0.622418 0.882192 0.966003
O O2 0.495349 0.750000 0.846391
O O3 0.489731 0.750000 0.102125
O O4 0.185417 0.621446 0.770504
O O5 0.310533 0.750000 0.884804
O O6 0.107584 0.750000 0.958770
O O7 0.161654 0.380024 0.668575
O O8 0.046770 0.250000 0.847619
O O9 0.108450 0.620117 0.168212
O O10 0.112678 0.369359 0.171491
O O11 0.972276 0.490073 0.266153
O O12 0.000000 0.500000 0.000000
#
# Coordination Sequence:
#
# PCOD9461526 Si02
#       7
#     4   4   4   8   4   8   4
#     4   9  18  37  56  82 114 156 206 248 306 372
#     4  11  20  40  51  87 124 170 188 237 330 387
#     4  10  19  32  57  94 108 148 212 270 286 344
#     4  10  17  35  61  90 111 155 216 256 292 358
#     4  10  20  33  64  86 116 152 200 262 299 353
#     4   9  19  33  60  83 118 154 203 253 308 365
#     4  10  23  36  58  85 124 164 200 255 325 378
#
# _framework density 24.810428999999999
#
# number of rings (size 3 to 8) (size 9 to 14) (size 15 to 20)
#    0.000    2.222    2.222    2.000    0.000    0.000 
#    4.000    0.000    0.000    0.000    0.000    0.000 
#    0.000    0.000    0.000    0.000    0.000    0.000 
#
# Total GULP energy -200415.850467 kJ/mol
# GULP energy per Si atom -5567.106957 kJ/mol
# Density = 2.475396 g / cm^3
# Si number density = 24.810429 Si / 1000 Ang^3
#
#
#
# Elastic Constant Matrix: (Units=GPa)
#
#
# Indices 1 2 3 4 5 6 
#
# 1 58.3887 35.2381 2.9132 0.0000 0.0000 0.0000
# 2 35.2381 291.5247 33.5167 0.0000 0.0000 0.0000
# 3 2.9132 33.5167 68.7368 0.0000 0.0000 0.0000
# 4 0.0000 0.0000 0.0000 16.8765 0.0000 0.0000
# 5 0.0000 0.0000 0.0000 0.0000 4.3570 0.0000
# 6 0.0000 0.0000 0.0000 0.0000 0.0000 -9.7286
#
#
#
# Elastic Compliance Matrix: (Units=1/GPa)
#
#
# Indices 1 2 3 4 5 6 
#
# 1 0.018481 -0.002271 0.000324 0.000000 0.000000 0.000000
# 2 -0.002271 0.003913 -0.001812 0.000000 0.000000 0.000000
# 3 0.000324 -0.001812 0.015418 0.000000 0.000000 0.000000
# 4 0.000000 0.000000 0.000000 0.059254 0.000000 0.000000
# 5 0.000000 0.000000 0.000000 0.000000 0.229516 0.000000
# 6 0.000000 0.000000 0.000000 0.000000 0.000000 -0.102790
#
#
# Mechanical properties :
#
#
# Convention : Reuss Voigt Hill
#
# Bulk Modulus (GPa) = 33.00923 62.44292 47.72607
# Shear Modulus (GPa) = 20.71181 25.43313 23.07247
#
# Velocity S-wave (km/s) = 2.89243 3.20519 3.05282
# Velocity P-wave (km/s) = 4.94857 6.23861 5.63066
#
# Compressibility (1/GPa) = 0.03029456
#
# Stress axis : x y z
#
# Youngs Moduli (GPa) = 54.10931 255.55367 64.85945
#
# Poissons Ratio (x) = 0.58041 -0.02103
# Poissons Ratio (y) = 0.12289 0.11751
# Poissons Ratio (z) = -0.01754 0.46301
#
# Static dielectric constant tensor:
#      x y z
#    x 1.985720 0.000000 0.000000 
#    y 0.000000 2.113620 0.000000 
#    z 0.000000 0.000000 2.043890 
# 
# From -- ./inp_files/12968.got.cif
#   From: 2010.05.17/outbox.cif.g08.bks.cpg/sg62_7_cif.got.tgz:12968.got - 2010.06.03 15:25:27.
