data_PCOD9461837
_publ_section_title
;
Structure prediction by ZEFSAII (Michael W. Deem and Ramdas Pophale) SiO2 
 PCOD9461837
Probable space group: P N M A
;
_chemical_formula_sum "Si O2"
_cell_formula_units_Z 32
_cell_length_a 35.502381
_cell_length_b 5.490410
_cell_length_c 8.402884
_cell_angle_alpha 90.000000
_cell_angle_beta 90.000000
_cell_angle_gamma 90.000000
_cell_volume 1637.912229
_symmetry_space_group_name_H-M "P N M A"
_symmetry_group_IT_number 62
_symmetry_cell_setting 'orthorhombic'
loop_
_space_group_symop_operation_xyz
x,y,z
1/2-x,-y,1/2+z
1/2+x,1/2-y,1/2-z
-x,1/2+y,-z
-x,-y,-z
1/2+x,y,1/2-z
1/2-x,1/2+y,1/2+z
x,1/2-y,z
loop_
_atom_site_type_symbol
_atom_site_label
_atom_site_fract_x
_atom_site_fract_y
_atom_site_fract_z
Si Si1 0.591162 0.250000 0.912892
Si Si2 0.590996 0.750000 0.717087
Si Si3 0.216326 0.750000 0.579623
Si Si4 0.675393 0.750000 0.584663
Si Si5 0.984788 0.250000 0.071502
Si Si6 0.320196 0.750000 0.080096
Si Si7 0.802018 0.750000 0.036227
Si Si8 0.515637 0.250000 0.075354
O O1 0.584455 0.499464 0.813951
O O2 0.635412 0.250000 0.950669
O O3 0.560724 0.250000 0.053258
O O4 0.634543 0.750000 0.665594
O O5 0.560592 0.750000 0.576286
O O6 0.206961 0.750000 0.771657
O O7 0.197707 0.500192 0.518597
O O8 0.259227 0.750000 0.522823
O O9 0.680308 0.505202 0.484547
O O10 0.000312 0.250000 0.248863
O O11 0.000000 0.500000 0.000000
O O12 0.310960 0.750000 0.271781
O O13 0.500000 0.500000 0.000000
#
# Coordination Sequence:
#
# PCOD9461837 Si02
#       8
#     4   4   4   4   4   4   4   4
#     4  12  19  37  64  93 119 155 216 283 300 368
#     4  12  20  38  66  88 120 164 214 265 316 385
#     4  10  18  31  51  80 113 144 185 254 299 353
#     4  10  19  34  53  86 104 149 213 237 300 371
#     4  12  26  43  64  96 139 175 209 271 350 402
#     4  10  19  33  52  85 110 147 203 243 318 354
#     4  10  18  30  53  77 116 141 180 246 309 361
#     4  12  23  40  67 101 127 167 230 273 314 386
#
# _framework density 19.537065999999999
#
# number of rings (size 3 to 8) (size 9 to 14) (size 15 to 20)
#    0.000    1.000    7.500    2.250    0.000    0.000 
#    0.000    0.000    0.000   18.000    0.000    0.000 
#    0.000    0.000    0.000    0.000    0.000    0.000 
#
# Total GULP energy -178423.793456 kJ/mol
# GULP energy per Si atom -5575.743545 kJ/mol
# Density = 1.949260 g / cm^3
# Si number density = 19.537066 Si / 1000 Ang^3
#
#
#
# Elastic Constant Matrix: (Units=GPa)
#
#
# Indices 1 2 3 4 5 6 
#
# 1 66.7262 14.5123 11.4101 0.0000 0.0000 0.0000
# 2 14.5123 209.9892 22.4582 0.0000 0.0000 0.0000
# 3 11.4101 22.4582 39.4026 0.0000 0.0000 0.0000
# 4 0.0000 0.0000 0.0000 22.9473 0.0000 0.0000
# 5 0.0000 0.0000 0.0000 0.0000 37.6807 0.0000
# 6 0.0000 0.0000 0.0000 0.0000 0.0000 25.0742
#
#
#
# Elastic Compliance Matrix: (Units=1/GPa)
#
#
# Indices 1 2 3 4 5 6 
#
# 1 0.015849 -0.000644 -0.004223 0.000000 0.000000 0.000000
# 2 -0.000644 0.005097 -0.002719 0.000000 0.000000 0.000000
# 3 -0.004223 -0.002719 0.028152 0.000000 0.000000 0.000000
# 4 0.000000 0.000000 0.000000 0.043578 0.000000 0.000000
# 5 0.000000 0.000000 0.000000 0.000000 0.026539 0.000000
# 6 0.000000 0.000000 0.000000 0.000000 0.000000 0.039882
#
#
# Mechanical properties :
#
#
# Convention : Reuss Voigt Hill
#
# Bulk Modulus (GPa) = 29.47485 45.87547 37.67516
# Shear Modulus (GPa) = 26.94320 34.98959 30.96640
#
# Velocity S-wave (km/s) = 3.71763 4.23653 3.98553
# Velocity P-wave (km/s) = 5.79198 6.88935 6.36436
#
# Compressibility (1/GPa) = 0.03392722
#
# Stress axis : x y z
#
# Youngs Moduli (GPa) = 63.09677 196.17739 35.52206
#
# Poissons Ratio (x) = 0.12628 0.14999
# Poissons Ratio (y) = 0.04062 0.09658
# Poissons Ratio (z) = 0.26643 0.53340
#
# Static dielectric constant tensor:
#      x y z
#    x 1.673970 0.000000 0.000000 
#    y 0.000000 1.319280 0.000000 
#    z 0.000000 0.000000 1.666330 
# 
# From -- ./inp_files/9985.got.cif
#   From: 2010.05.17/outbox.cif.g08.bks.cpg/sg62_5_cif.got.tgz:9985.got - 2010.06.03 15:25:27.
