data_PCOD9461914
_publ_section_title
;
Structure prediction by ZEFSAII (Michael W. Deem and Ramdas Pophale) SiO2 
 PCOD9461914
Probable space group: P N M A
;
_chemical_formula_sum "Si O2"
_cell_formula_units_Z 48
_cell_length_a 12.168816
_cell_length_b 14.086920
_cell_length_c 12.137601
_cell_angle_alpha 90.000000
_cell_angle_beta 90.000000
_cell_angle_gamma 90.000000
_cell_volume 2080.641370
_symmetry_space_group_name_H-M "P N M A"
_symmetry_group_IT_number 62
_symmetry_cell_setting 'orthorhombic'
loop_
_space_group_symop_operation_xyz
x,y,z
1/2-x,-y,1/2+z
1/2+x,1/2-y,1/2-z
-x,1/2+y,-z
-x,-y,-z
1/2+x,y,1/2-z
1/2-x,1/2+y,1/2+z
x,1/2-y,z
loop_
_atom_site_type_symbol
_atom_site_label
_atom_site_fract_x
_atom_site_fract_y
_atom_site_fract_z
Si Si1 0.404341 0.856716 0.140306
Si Si2 0.029819 0.482341 0.846896
Si Si3 0.163548 0.639530 0.168784
Si Si4 0.568820 0.358833 0.225623
Si Si5 0.402900 0.145807 0.036005
Si Si6 0.279886 0.012217 0.885277
O O1 0.408049 0.750000 0.190851
O O2 0.441447 0.935017 0.227435
O O3 0.278486 0.869593 0.104719
O O4 0.489805 0.857529 0.041807
O O5 0.149411 0.494870 0.896856
O O6 0.940600 0.407282 0.890350
O O7 0.962094 0.579140 0.831561
O O8 0.142820 0.750000 0.190247
O O9 0.189225 0.586591 0.285353
O O10 0.600469 0.250000 0.244193
O O11 0.660463 0.416775 0.156768
O O12 0.454799 0.360135 0.156312
O O13 0.349898 0.250000 0.021558
O O14 0.329440 0.059965 0.994629
#
# Coordination Sequence:
#
# PCOD9461914 Si02
#       6
#     8   8   8   8   8   8
#     4   9  16  26  45  72 100 127 155 198 251 305
#     4  10  19  30  47  72 102 131 168 202 250 304
#     4   9  16  27  44  71 102 128 157 195 251 312
#     4  10  21  34  50  72  98 134 174 213 251 290
#     4  10  18  31  52  79 102 125 163 210 263 305
#     4  10  19  30  48  73 102 129 164 211 252 296
#
# _framework density 23.069811000000001
#
# number of rings (size 3 to 8) (size 9 to 14) (size 15 to 20)
#    0.000    2.333    3.333    1.500    0.000    2.667 
#    0.000    0.000    0.000    1.000    0.000    0.000 
#    0.000    0.000    0.000    0.000    0.000    0.000 
#
# Total GULP energy -268197.521283 kJ/mol
# GULP energy per Si atom -5587.448360 kJ/mol
# Density = 2.301730 g / cm^3
# Si number density = 23.069811 Si / 1000 Ang^3
#
#
#
# Elastic Constant Matrix: (Units=GPa)
#
#
# Indices 1 2 3 4 5 6 
#
# 1 110.5433 47.2705 2.4148 0.0000 0.0000 0.0000
# 2 47.2705 197.7874 12.8495 0.0000 0.0000 0.0000
# 3 2.4148 12.8495 20.5345 0.0000 0.0000 0.0000
# 4 0.0000 0.0000 0.0000 12.2877 0.0000 0.0000
# 5 0.0000 0.0000 0.0000 0.0000 10.5978 0.0000
# 6 0.0000 0.0000 0.0000 0.0000 0.0000 27.3305
#
#
#
# Elastic Compliance Matrix: (Units=1/GPa)
#
#
# Indices 1 2 3 4 5 6 
#
# 1 0.010078 -0.002430 0.000336 0.000000 0.000000 0.000000
# 2 -0.002430 0.005856 -0.003379 0.000000 0.000000 0.000000
# 3 0.000336 -0.003379 0.050773 0.000000 0.000000 0.000000
# 4 0.000000 0.000000 0.000000 0.081382 0.000000 0.000000
# 5 0.000000 0.000000 0.000000 0.000000 0.094360 0.000000
# 6 0.000000 0.000000 0.000000 0.000000 0.000000 0.036589
#
#
# Mechanical properties :
#
#
# Convention : Reuss Voigt Hill
#
# Bulk Modulus (GPa) = 17.93374 50.43719 34.18546
# Shear Modulus (GPa) = 16.20361 27.79854 22.00108
#
# Velocity S-wave (km/s) = 2.65311 3.47504 3.09151
# Velocity P-wave (km/s) = 4.14438 6.16535 5.25297
#
# Compressibility (1/GPa) = 0.05576082
#
# Stress axis : x y z
#
# Youngs Moduli (GPa) = 99.22398 170.75584 19.69535
#
# Poissons Ratio (x) = 0.41502 -0.00661
# Poissons Ratio (y) = 0.24116 0.06655
# Poissons Ratio (z) = -0.03331 0.57695
#
# Static dielectric constant tensor:
#      x y z
#    x 1.860010 0.000000 0.000000 
#    y 0.000000 1.909020 0.000000 
#    z 0.000000 0.000000 1.923710 
# 
# From -- ./inp_files/23087.got.cif
#   From: 2010.05.17/outbox.cif.g08.bks.cpg/sg62_12_cif.got.tgz:23087.got - 2010.06.03 15:25:27.
