data_PCOD9461576
_publ_section_title
;
Structure prediction by ZEFSAII (Michael W. Deem and Ramdas Pophale) SiO2 
 PCOD9461576
Probable space group: P N M A
;
_chemical_formula_sum "Si O2"
_cell_formula_units_Z 64
_cell_length_a 27.151849
_cell_length_b 8.767879
_cell_length_c 19.005684
_cell_angle_alpha 90.000000
_cell_angle_beta 90.000000
_cell_angle_gamma 90.000000
_cell_volume 4524.571563
_symmetry_space_group_name_H-M "P N M A"
_symmetry_group_IT_number 62
_symmetry_cell_setting 'orthorhombic'
loop_
_space_group_symop_operation_xyz
x,y,z
1/2-x,-y,1/2+z
1/2+x,1/2-y,1/2-z
-x,1/2+y,-z
-x,-y,-z
1/2+x,y,1/2-z
1/2-x,1/2+y,1/2+z
x,1/2-y,z
loop_
_atom_site_type_symbol
_atom_site_label
_atom_site_fract_x
_atom_site_fract_y
_atom_site_fract_z
Si Si1 0.348269 0.567413 0.660130
Si Si2 0.694966 0.425802 0.802244
Si Si3 0.944098 0.432057 0.081716
Si Si4 0.738775 0.567523 0.589341
Si Si5 0.356052 0.566074 0.332509
Si Si6 0.703325 0.925546 0.211817
Si Si7 0.942490 0.933316 0.928381
Si Si8 0.742925 0.935396 0.426480
O O1 0.343923 0.750000 0.661773
O O2 0.336481 0.502323 0.737297
O O3 0.401523 0.525959 0.628967
O O4 0.306847 0.501478 0.607389
O O5 0.680558 0.250000 0.814645
O O6 0.655703 0.491394 0.747034
O O7 0.745978 0.426851 0.757629
O O8 0.711632 0.490927 0.877384
O O9 0.938898 0.250000 0.085734
O O10 0.907223 0.509574 0.136187
O O11 0.001577 0.472628 0.092847
O O12 0.931461 0.487502 0.002823
O O13 0.734530 0.750000 0.593956
O O14 0.688174 0.494593 0.618179
O O15 0.782335 0.511133 0.640439
O O16 0.746984 0.524659 0.508152
O O17 0.353820 0.750000 0.332181
O O18 0.690980 0.750000 0.197910
O O19 0.940673 0.750000 0.939083
O O20 0.740812 0.750000 0.420670
#
# Coordination Sequence:
#
# PCOD9461576 Si02
#       8
#     8   8   8   8   8   8   8   8
#     4  10  18  28  43  60  79 106 141 174 204 243
#     4   7  13  26  40  53  73 103 133 160 192 232
#     4  10  19  30  43  59  81 108 139 175 210 245
#     4  10  18  27  42  63  84 108 140 172 201 241
#     4  10  18  28  42  58  80 111 142 170 204 244
#     4   9  17  29  42  57  81 109 135 166 205 245
#     4   9  19  32  43  58  81 108 138 174 212 246
#     4   9  17  28  41  59  83 109 136 166 202 242
#
# _framework density 14.144985999999999
#
# number of rings (size 3 to 8) (size 9 to 14) (size 15 to 20)
#    0.000    2.750    0.000    4.125    0.000    4.500 
#    0.000    0.625    0.000    0.000    0.000    0.000 
#    0.000    1.000    0.000    2.000    0.000    2.750 
#
# Total GULP energy -356382.272932 kJ/mol
# GULP energy per Si atom -5568.473015 kJ/mol
# Density = 1.411279 g / cm^3
# Si number density = 14.144986 Si / 1000 Ang^3
#
#
#
# Elastic Constant Matrix: (Units=GPa)
#
#
# Indices 1 2 3 4 5 6 
#
# 1 70.9698 24.5874 49.2172 0.0000 0.0000 0.0000
# 2 24.5874 34.5122 29.9750 0.0000 0.0000 0.0000
# 3 49.2172 29.9750 102.8501 0.0000 0.0000 0.0000
# 4 0.0000 0.0000 0.0000 20.3138 0.0000 0.0000
# 5 0.0000 0.0000 0.0000 0.0000 27.7261 0.0000
# 6 0.0000 0.0000 0.0000 0.0000 0.0000 16.7863
#
#
#
# Elastic Compliance Matrix: (Units=1/GPa)
#
#
# Indices 1 2 3 4 5 6 
#
# 1 0.023070 -0.009168 -0.008368 0.000000 0.000000 0.000000
# 2 -0.009168 0.042439 -0.007981 0.000000 0.000000 0.000000
# 3 -0.008368 -0.007981 0.016053 0.000000 0.000000 0.000000
# 4 0.000000 0.000000 0.000000 0.049228 0.000000 0.000000
# 5 0.000000 0.000000 0.000000 0.000000 0.036067 0.000000
# 6 0.000000 0.000000 0.000000 0.000000 0.000000 0.059573
#
#
# Mechanical properties :
#
#
# Convention : Reuss Voigt Hill
#
# Bulk Modulus (GPa) = 32.75703 46.21016 39.48360
# Shear Modulus (GPa) = 17.38293 19.93541 18.65917
#
# Velocity S-wave (km/s) = 3.50939 3.75822 3.63593
# Velocity P-wave (km/s) = 6.29519 7.18137 6.75283
#
# Compressibility (1/GPa) = 0.03052780
#
# Stress axis : x y z
#
# Youngs Moduli (GPa) = 43.34706 23.56338 62.29278
#
# Poissons Ratio (x) = 0.21602 0.52125
# Poissons Ratio (y) = 0.39740 0.49718
# Poissons Ratio (z) = 0.36271 0.18807
#
# Static dielectric constant tensor:
#      x y z
#    x 1.456420 0.000000 0.000000 
#    y 0.000000 1.480560 0.000000 
#    z 0.000000 0.000000 1.476370 
# 
# From -- ./inp_files/25013.got.cif
#   From: 2010.05.17/outbox.cif.g08.bks.cpg/sg62_13_cif.got.tgz:25013.got - 2010.06.03 15:25:27.
