data_PCOD9461586
_publ_section_title
;
Structure prediction by ZEFSAII (Michael W. Deem and Ramdas Pophale) SiO2 
 PCOD9461586
Probable space group: P N M A
;
_chemical_formula_sum "Si O2"
_cell_formula_units_Z 56
_cell_length_a 18.471034
_cell_length_b 7.593476
_cell_length_c 19.889401
_cell_angle_alpha 90.000000
_cell_angle_beta 90.000000
_cell_angle_gamma 90.000000
_cell_volume 2789.674523
_symmetry_space_group_name_H-M "P N M A"
_symmetry_group_IT_number 62
_symmetry_cell_setting 'orthorhombic'
loop_
_space_group_symop_operation_xyz
x,y,z
1/2-x,-y,1/2+z
1/2+x,1/2-y,1/2-z
-x,1/2+y,-z
-x,-y,-z
1/2+x,y,1/2-z
1/2-x,1/2+y,1/2+z
x,1/2-y,z
loop_
_atom_site_type_symbol
_atom_site_label
_atom_site_fract_x
_atom_site_fract_y
_atom_site_fract_z
Si Si1 0.191350 0.534212 0.389853
Si Si2 0.164784 0.033990 0.964064
Si Si3 0.655400 0.956346 0.253090
Si Si4 0.392834 0.953978 0.606501
Si Si5 0.469591 0.461462 0.926934
Si Si6 0.485931 0.958741 0.211898
Si Si7 0.946771 0.545495 0.147383
O O1 0.190757 0.750000 0.388166
O O2 0.257109 0.478746 0.436743
O O3 0.198924 0.476321 0.311793
O O4 0.113099 0.476341 0.417295
O O5 0.164810 0.250000 0.965456
O O6 0.104993 0.972409 0.910122
O O7 0.143993 0.975783 0.038990
O O8 0.671357 0.750000 0.260680
O O9 0.571308 0.973185 0.230164
O O10 0.657628 0.034532 0.327470
O O11 0.410626 0.750000 0.595249
O O12 0.469877 0.041385 0.623105
O O13 0.467284 0.250000 0.919401
O O14 0.517880 0.529187 0.864024
O O15 0.500000 0.500000 0.000000
O O16 0.468729 0.750000 0.209784
O O17 0.445243 0.033768 0.277235
O O18 0.925596 0.750000 0.154344
#
# Coordination Sequence:
#
# PCOD9461586 Si02
#       7
#     8   8   8   8   8   8   8
#     4   8  15  30  49  66  86 117 156 190 222 265
#     4   9  17  28  45  69  93 119 151 186 225 268
#     4   8  14  28  49  65  79 109 152 187 214 255
#     4  10  18  27  43  69  97 120 145 182 227 270
#     4   9  16  28  47  67  87 112 144 184 227 267
#     4   7  12  24  42  62  81 104 137 177 215 248
#     4   9  16  29  48  66  87 119 158 190 214 255
#
# _framework density 20.074027000000001
#
# number of rings (size 3 to 8) (size 9 to 14) (size 15 to 20)
#    0.000    3.429    0.000    3.429    0.000    0.000 
#    0.000    8.571    0.000    6.857    0.000    0.000 
#    0.000    0.000    0.000    0.000    0.000    0.000 
#
# Total GULP energy -311775.223539 kJ/mol
# GULP energy per Si atom -5567.414706 kJ/mol
# Density = 2.002834 g / cm^3
# Si number density = 20.074027 Si / 1000 Ang^3
#
#
#
# Elastic Constant Matrix: (Units=GPa)
#
#
# Indices 1 2 3 4 5 6 
#
# 1 49.4560 -9.5684 73.3165 0.0000 0.0000 0.0000
# 2 -9.5684 33.5395 4.8965 0.0000 0.0000 0.0000
# 3 73.3165 4.8965 226.7099 0.0000 0.0000 0.0000
# 4 0.0000 0.0000 0.0000 19.0891 0.0000 0.0000
# 5 0.0000 0.0000 0.0000 0.0000 15.2952 0.0000
# 6 0.0000 0.0000 0.0000 0.0000 0.0000 4.7586
#
#
#
# Elastic Compliance Matrix: (Units=1/GPa)
#
#
# Indices 1 2 3 4 5 6 
#
# 1 0.045401 0.015143 -0.015009 0.000000 0.000000 0.000000
# 2 0.015143 0.034961 -0.005652 0.000000 0.000000 0.000000
# 3 -0.015009 -0.005652 0.009387 0.000000 0.000000 0.000000
# 4 0.000000 0.000000 0.000000 0.052386 0.000000 0.000000
# 5 0.000000 0.000000 0.000000 0.000000 0.065380 0.000000
# 6 0.000000 0.000000 0.000000 0.000000 0.000000 0.210148
#
#
# Mechanical properties :
#
#
# Convention : Reuss Voigt Hill
#
# Bulk Modulus (GPa) = 12.70454 49.66606 31.18530
# Shear Modulus (GPa) = 10.99055 23.89928 17.44492
#
# Velocity S-wave (km/s) = 2.34241 3.45419 2.95113
# Velocity P-wave (km/s) = 3.69573 6.37995 5.21355
#
# Compressibility (1/GPa) = 0.07871200
#
# Stress axis : x y z
#
# Youngs Moduli (GPa) = 22.02616 28.60327 106.53132
#
# Poissons Ratio (x) = -0.43315 1.59896
# Poissons Ratio (y) = -0.33355 0.60215
# Poissons Ratio (z) = 0.33060 0.16168
#
# Static dielectric constant tensor:
#      x y z
#    x 1.676440 0.000000 0.000000 
#    y 0.000000 1.760010 0.000000 
#    z 0.000000 0.000000 1.760800 
# 
# From -- ./inp_files/27547.got.cif
#   From: 2010.05.17/outbox.cif.g08.bks.cpg/sg62_14_cif.got.tgz:27547.got - 2010.06.03 15:25:27.
