data_PCOD9461698
_publ_section_title
;
Structure prediction by ZEFSAII (Michael W. Deem and Ramdas Pophale) SiO2 
 PCOD9461698
Probable space group: P N M A
;
_chemical_formula_sum "Si O2"
_cell_formula_units_Z 56
_cell_length_a 14.976485
_cell_length_b 7.362834
_cell_length_c 22.088271
_cell_angle_alpha 90.000000
_cell_angle_beta 90.000000
_cell_angle_gamma 90.000000
_cell_volume 2435.659793
_symmetry_space_group_name_H-M "P N M A"
_symmetry_group_IT_number 62
_symmetry_cell_setting 'orthorhombic'
loop_
_space_group_symop_operation_xyz
x,y,z
1/2-x,-y,1/2+z
1/2+x,1/2-y,1/2-z
-x,1/2+y,-z
-x,-y,-z
1/2+x,y,1/2-z
1/2-x,1/2+y,1/2+z
x,1/2-y,z
loop_
_atom_site_type_symbol
_atom_site_label
_atom_site_fract_x
_atom_site_fract_y
_atom_site_fract_z
Si Si1 0.667974 0.028620 0.632792
Si Si2 0.986650 0.032937 0.928626
Si Si3 0.793954 0.030436 0.884117
Si Si4 0.321633 0.972149 0.229370
Si Si5 0.646258 0.972692 0.085182
Si Si6 0.115979 0.538859 0.547094
Si Si7 0.506728 0.047543 0.837390
O O1 0.665922 0.250000 0.632367
O O2 0.573191 0.964770 0.607619
O O3 0.688775 0.973745 0.701507
O O4 0.751419 0.972938 0.591842
O O5 0.984766 0.250000 0.920437
O O6 0.891938 0.964775 0.902950
O O7 0.000000 0.000000 0.000000
O O8 0.795782 0.250000 0.883245
O O9 0.753790 0.971375 0.818939
O O10 0.719398 0.974940 0.932966
O O11 0.323355 0.750000 0.227000
O O12 0.419130 0.036052 0.206119
O O13 0.642960 0.750000 0.085357
O O14 0.586814 0.035040 0.142003
O O15 0.607298 0.031624 0.020821
O O16 0.090593 0.750000 0.549003
O O17 0.059595 0.441591 0.598721
O O18 0.487589 0.250000 0.813481
#
# Coordination Sequence:
#
# PCOD9461698 Si02
#       7
#     8   8   8   8   8   8   8
#     4   9  17  29  46  71  97 122 157 202 239 277
#     4  10  20  33  51  74 101 131 166 204 245 290
#     4   9  18  32  49  71  97 126 157 196 241 284
#     4   8  15  28  46  68  94 121 155 196 239 281
#     4   9  17  27  42  66  96 123 149 185 231 274
#     4  10  18  29  47  71  95 123 155 188 228 280
#     4   9  17  30  47  69  95 122 150 187 232 278
#
# _framework density 22.991717000000001
#
# number of rings (size 3 to 8) (size 9 to 14) (size 15 to 20)
#    0.000    2.857    0.000    2.571    0.000    2.857 
#    0.000    6.429    0.000    4.286    0.000    8.000 
#    0.000    0.000    0.000    0.000    0.000    0.000 
#
# Total GULP energy -312693.600831 kJ/mol
# GULP energy per Si atom -5583.814301 kJ/mol
# Density = 2.293939 g / cm^3
# Si number density = 22.991717 Si / 1000 Ang^3
#
#
#
# Elastic Constant Matrix: (Units=GPa)
#
#
# Indices 1 2 3 4 5 6 
#
# 1 125.8606 -0.4602 9.8518 0.0000 0.0000 0.0000
# 2 -0.4602 92.1420 -5.0884 0.0000 0.0000 0.0000
# 3 9.8518 -5.0884 83.9613 0.0000 0.0000 0.0000
# 4 0.0000 0.0000 0.0000 7.9356 0.0000 0.0000
# 5 0.0000 0.0000 0.0000 0.0000 20.1232 0.0000
# 6 0.0000 0.0000 0.0000 0.0000 0.0000 3.9335
#
#
#
# Elastic Compliance Matrix: (Units=1/GPa)
#
#
# Indices 1 2 3 4 5 6 
#
# 1 0.008019 -0.000012 -0.000942 0.000000 0.000000 0.000000
# 2 -0.000012 0.010889 0.000661 0.000000 0.000000 0.000000
# 3 -0.000942 0.000661 0.012061 0.000000 0.000000 0.000000
# 4 0.000000 0.000000 0.000000 0.126015 0.000000 0.000000
# 5 0.000000 0.000000 0.000000 0.000000 0.049694 0.000000
# 6 0.000000 0.000000 0.000000 0.000000 0.000000 0.254230
#
#
# Mechanical properties :
#
#
# Convention : Reuss Voigt Hill
#
# Bulk Modulus (GPa) = 32.91146 34.50779 33.70963
# Shear Modulus (GPa) = 10.60176 26.24250 18.42213
#
# Velocity S-wave (km/s) = 2.14968 3.38211 2.83371
# Velocity P-wave (km/s) = 4.52847 5.50390 5.03984
#
# Compressibility (1/GPa) = 0.03038455
#
# Stress axis : x y z
#
# Youngs Moduli (GPa) = 124.70439 91.83343 82.91309
#
# Poissons Ratio (x) = 0.00110 0.07807
# Poissons Ratio (y) = 0.00149 -0.05483
# Poissons Ratio (z) = 0.11743 -0.06073
#
# Static dielectric constant tensor:
#      x y z
#    x 1.873330 0.000000 0.000000 
#    y 0.000000 1.949170 0.000000 
#    z 0.000000 0.000000 1.811550 
# 
# From -- ./inp_files/27081.got.cif
#   From: 2010.05.17/outbox.cif.g08.bks.cpg/sg62_14_cif.got.tgz:27081.got - 2010.06.03 15:25:27.
