data_PCOD9461251
_publ_section_title
;
Structure prediction by ZEFSAII (Michael W. Deem and Ramdas Pophale) SiO2 
 PCOD9461251
Probable space group: P B C A
;
_chemical_formula_sum "Si O2"
_cell_formula_units_Z 64
_cell_length_a 24.000000
_cell_length_b 9.000000
_cell_length_c 15.000000
_cell_angle_alpha 90.000000
_cell_angle_beta 90.000000
_cell_angle_gamma 90.000000
_cell_volume 3240.000000
_symmetry_space_group_name_H-M "P B C A"
_symmetry_group_IT_number 61
_symmetry_cell_setting 'orthorhombic'
loop_
_space_group_symop_operation_xyz
x,y,z
1/2-x,-y,1/2+z
1/2+x,1/2-y,-z
-x,1/2+y,1/2-z
-x,-y,-z
1/2+x,y,1/2-z
1/2-x,1/2+y,z
x,1/2-y,1/2+z
loop_
_atom_site_type_symbol
_atom_site_label
_atom_site_fract_x
_atom_site_fract_y
_atom_site_fract_z
Si Si1 0.046450 0.398125 0.750616
Si Si2 0.235904 0.415531 0.565298
Si Si3 0.855880 0.383550 0.604648
Si Si4 0.073825 0.049217 0.752111
Si Si5 0.124271 0.542272 0.898855
Si Si6 0.270144 0.652933 0.435901
Si Si7 0.876420 0.452673 0.394370
Si Si8 0.140220 0.882461 0.607144
O O1 0.055501 0.220774 0.752939
O O2 0.076582 0.467108 0.838839
O O3 0.076046 0.461385 0.660403
O O4 0.982223 0.449465 0.750272
O O5 0.258628 0.571539 0.529361
O O6 0.222147 0.319555 0.474889
O O7 0.180797 0.452757 0.621109
O O8 0.292583 0.359336 0.610778
O O9 0.887993 0.501200 0.664642
O O10 0.872302 0.214569 0.630716
O O11 0.788594 0.371494 0.613553
O O12 0.872898 0.426502 0.502415
O O13 0.113513 0.006250 0.669542
O O14 0.178588 0.433303 0.890287
O O15 0.122119 0.569500 0.006527
O O16 0.880485 0.280996 0.364279
#
# Coordination Sequence:
#
# PCOD9461251 Si02
#       8
#     8   8   8   8   8   8   8   8
#     4  12  28  45  64  93 124 173 221 281 315 392
#     4  10  18  35  64  99 133 164 202 255 316 388
#     4  10  21  42  67  96 130 175 207 270 322 384
#     4  12  28  45  66  89 130 167 227 273 325 382
#     4  10  22  40  69  95 133 169 215 263 327 381
#     4  10  18  35  64  99 133 164 202 255 316 388
#     4  10  22  40  69  95 133 169 215 263 327 381
#     4  10  21  42  67  96 130 175 207 270 322 384
#
# _framework density 19.753086
#
# number of rings (size 3 to 8) (size 9 to 14) (size 15 to 20)
#    0.000    1.500    5.000    2.250    7.000    2.000 
#    0.000    0.000    0.000    0.000    0.000    0.000 
#    0.000    0.000    0.000    0.000    0.000    0.000 
#
# Total GULP energy -356369.045672 kJ/mol
# GULP energy per Si atom -5568.266339 kJ/mol
# Density = 1.970813 g / cm^3
# Si number density = 19.753086 Si / 1000 Ang^3
#
#
#
# Elastic Constant Matrix: (Units=GPa)
#
#
# Indices 1 2 3 4 5 6 
#
# 1 77.2107 20.6775 19.7772 0.0000 0.0000 0.0000
# 2 20.6775 136.9835 20.5591 0.0000 0.0000 0.0000
# 3 19.7772 20.5591 59.8503 0.0000 0.0000 0.0000
# 4 0.0000 0.0000 0.0000 35.9616 0.0000 0.0000
# 5 0.0000 0.0000 0.0000 0.0000 2.5617 0.0000
# 6 0.0000 0.0000 0.0000 0.0000 0.0000 31.6685
#
#
#
# Elastic Compliance Matrix: (Units=1/GPa)
#
#
# Indices 1 2 3 4 5 6 
#
# 1 0.014453 -0.001544 -0.004245 0.000000 0.000000 0.000000
# 2 -0.001544 0.007862 -0.002190 0.000000 0.000000 0.000000
# 3 -0.004245 -0.002190 0.018864 0.000000 0.000000 0.000000
# 4 0.000000 0.000000 0.000000 0.027807 0.000000 0.000000
# 5 0.000000 0.000000 0.000000 0.000000 0.390365 0.000000
# 6 0.000000 0.000000 0.000000 0.000000 0.000000 0.031577
#
#
# Mechanical properties :
#
#
# Convention : Reuss Voigt Hill
#
# Bulk Modulus (GPa) = 39.65396 44.00798 41.83097
# Shear Modulus (GPa) = 9.70320 28.24040 18.97180
#
# Velocity S-wave (km/s) = 2.21876 3.78520 3.10247
# Velocity P-wave (km/s) = 5.16549 6.43670 5.83581
#
# Compressibility (1/GPa) = 0.02521816
#
# Stress axis : x y z
#
# Youngs Moduli (GPa) = 69.19176 127.19382 53.01224
#
# Poissons Ratio (x) = 0.19645 0.22505
# Poissons Ratio (y) = 0.10686 0.11611
# Poissons Ratio (z) = 0.29374 0.27859
#
# Static dielectric constant tensor:
#      x y z
#    x 1.704690 0.000000 0.000000 
#    y 0.000000 1.719850 0.000000 
#    z 0.000000 0.000000 1.707800 
# 
# From -- ./inp_files/8537.got.cif
#   From: 2010.05.17/outbox.ucp.g08.bks.cvg/sg61_5_cif.got.tgz:8537.got - 2010.06.11 16:28:26.
