data_PCOD9461725
_publ_section_title
;
Structure prediction by ZEFSAII (Michael W. Deem and Ramdas Pophale) SiO2 
 PCOD9461725
Probable space group: P N M A
;
_chemical_formula_sum "Si O2"
_cell_formula_units_Z 48
_cell_length_a 6.923940
_cell_length_b 7.779036
_cell_length_c 35.516684
_cell_angle_alpha 90.000000
_cell_angle_beta 90.000000
_cell_angle_gamma 90.000000
_cell_volume 1912.984664
_symmetry_space_group_name_H-M "P N M A"
_symmetry_group_IT_number 62
_symmetry_cell_setting 'orthorhombic'
loop_
_space_group_symop_operation_xyz
x,y,z
1/2-x,-y,1/2+z
1/2+x,1/2-y,1/2-z
-x,1/2+y,-z
-x,-y,-z
1/2+x,y,1/2-z
1/2-x,1/2+y,1/2+z
x,1/2-y,z
loop_
_atom_site_type_symbol
_atom_site_label
_atom_site_fract_x
_atom_site_fract_y
_atom_site_fract_z
Si Si1 0.394730 0.457923 0.088397
Si Si2 0.223825 0.542969 0.509993
Si Si3 0.797763 0.564461 0.326927
Si Si4 0.133705 0.055833 0.851780
Si Si5 0.833345 0.951296 0.067500
Si Si6 0.274519 0.250000 0.305492
Si Si7 0.278831 0.750000 0.718806
O O1 0.398676 0.250000 0.088909
O O2 0.351820 0.523624 0.129966
O O3 0.605362 0.527557 0.077218
O O4 0.254585 0.513534 0.053544
O O5 0.241088 0.750000 0.509414
O O6 0.346208 0.470521 0.474527
O O7 0.000000 0.500000 0.500000
O O8 0.875506 0.750000 0.315415
O O9 0.564801 0.574730 0.329489
O O10 0.832159 0.415259 0.297160
O O11 0.213166 0.250000 0.856038
O O12 0.080668 0.981388 0.893267
O O13 0.265857 0.919911 0.830122
O O14 0.882998 0.750000 0.064970
O O15 0.199143 0.250000 0.263325
O O16 0.507870 0.250000 0.299442
#
# Coordination Sequence:
#
# PCOD9461725 Si02
#       7
#     8   8   8   8   8   4   4
#     4  10  18  29  49  78 107 140 183 224 266 313
#     4   8  15  27  44  68 104 140 174 223 267 304
#     4  10  20  37  57  77 107 143 175 213 264 319
#     4   9  20  37  57  79 106 142 177 213 264 320
#     4   9  17  31  50  75 105 141 184 224 266 312
#     4  10  22  38  60  80 112 136 172 218 270 318
#     4  10  22  40  56  84 106 138 172 218 266 324
#
# _framework density 25.09168
#
# number of rings (size 3 to 8) (size 9 to 14) (size 15 to 20)
#    0.000    2.667    0.833    0.500    1.167    2.667 
#    0.000    0.833    0.000    0.000    0.000    0.000 
#    0.000    0.000    0.000    0.000    0.000    0.000 
#
# Total GULP energy -268142.406462 kJ/mol
# GULP energy per Si atom -5586.300135 kJ/mol
# Density = 2.503457 g / cm^3
# Si number density = 25.091680 Si / 1000 Ang^3
#
#
#
# Elastic Constant Matrix: (Units=GPa)
#
#
# Indices 1 2 3 4 5 6 
#
# 1 46.9486 11.3717 6.2508 0.0000 0.0000 0.0000
# 2 11.3717 138.8130 83.2116 0.0000 0.0000 0.0000
# 3 6.2508 83.2116 184.5666 0.0000 0.0000 0.0000
# 4 0.0000 0.0000 0.0000 22.0068 0.0000 0.0000
# 5 0.0000 0.0000 0.0000 0.0000 39.1065 0.0000
# 6 0.0000 0.0000 0.0000 0.0000 0.0000 12.3623
#
#
#
# Elastic Compliance Matrix: (Units=1/GPa)
#
#
# Indices 1 2 3 4 5 6 
#
# 1 0.021732 -0.001835 0.000091 0.000000 0.000000 0.000000
# 2 -0.001835 0.010027 -0.004458 0.000000 0.000000 0.000000
# 3 0.000091 -0.004458 0.007425 0.000000 0.000000 0.000000
# 4 0.000000 0.000000 0.000000 0.045440 0.000000 0.000000
# 5 0.000000 0.000000 0.000000 0.000000 0.025571 0.000000
# 6 0.000000 0.000000 0.000000 0.000000 0.000000 0.080891
#
#
# Mechanical properties :
#
#
# Convention : Reuss Voigt Hill
#
# Bulk Modulus (GPa) = 37.34158 63.55515 50.44837
# Shear Modulus (GPa) = 23.53853 32.66142 28.09998
#
# Velocity S-wave (km/s) = 3.06617 3.61180 3.35011
# Velocity P-wave (km/s) = 5.23923 6.54046 5.92567
#
# Compressibility (1/GPa) = 0.02677980
#
# Stress axis : x y z
#
# Youngs Moduli (GPa) = 46.01463 99.73182 134.67846
#
# Poissons Ratio (x) = 0.18301 -0.01230
# Poissons Ratio (y) = 0.08444 0.60046
# Poissons Ratio (z) = -0.00420 0.44465
#
# Static dielectric constant tensor:
#      x y z
#    x 2.080960 0.000000 0.000000 
#    y 0.000000 1.967060 0.000000 
#    z 0.000000 0.000000 1.986860 
# 
# From -- ./inp_files/32071.got.cif
#   From: 2010.05.17/outbox.cif.g08.bks.cpg/sg62_17_cif.got.tgz:32071.got - 2010.06.03 15:25:27.
