data_PCOD9461391
_publ_section_title
;
Structure prediction by ZEFSAII (Michael W. Deem and Ramdas Pophale) SiO2 
 PCOD9461391
Probable space group: P N M A
;
_chemical_formula_sum "Si O2"
_cell_formula_units_Z 48
_cell_length_a 15.710449
_cell_length_b 9.300698
_cell_length_c 14.098341
_cell_angle_alpha 90.000000
_cell_angle_beta 90.000000
_cell_angle_gamma 90.000000
_cell_volume 2060.023386
_symmetry_space_group_name_H-M "P N M A"
_symmetry_group_IT_number 62
_symmetry_cell_setting 'orthorhombic'
loop_
_space_group_symop_operation_xyz
x,y,z
1/2-x,-y,1/2+z
1/2+x,1/2-y,1/2-z
-x,1/2+y,-z
-x,-y,-z
1/2+x,y,1/2-z
1/2-x,1/2+y,1/2+z
x,1/2-y,z
loop_
_atom_site_type_symbol
_atom_site_label
_atom_site_fract_x
_atom_site_fract_y
_atom_site_fract_z
Si Si1 0.194341 0.914452 0.700665
Si Si2 0.399061 0.084871 0.017927
Si Si3 0.031647 0.080475 0.689787
Si Si4 0.453365 0.584011 0.642840
Si Si5 0.804210 0.584513 0.633237
Si Si6 0.627105 0.912831 0.519537
O O1 0.166814 0.750000 0.728453
O O2 0.185494 0.915945 0.587323
O O3 0.124906 0.033265 0.729418
O O4 0.280588 0.939884 0.756929
O O5 0.428063 0.250000 0.013908
O O6 0.459964 0.986302 0.083907
O O7 0.366895 0.022927 0.919219
O O8 0.020920 0.250000 0.688177
O O9 0.966916 0.003189 0.760373
O O10 0.435796 0.750000 0.663650
O O11 0.387252 0.519322 0.567792
O O12 0.544446 0.575612 0.587335
O O13 0.833374 0.750000 0.620384
O O14 0.712907 0.570117 0.579888
O O15 0.627722 0.750000 0.480704
#
# Coordination Sequence:
#
# PCOD9461391 Si02
#       6
#     8   8   8   8   8   8
#     4   8  16  30  42  57  83 113 137 172 216 247
#     4   9  18  30  42  60  83 110 143 178 214 250
#     4  10  17  27  42  58  77 108 144 173 207 247
#     4  10  17  27  40  56  81 112 143 175 208 245
#     4  10  17  29  45  61  86 115 143 174 214 252
#     4   9  17  27  38  57  83 112 142 171 206 250
#
# _framework density 23.300705000000001
#
# number of rings (size 3 to 8) (size 9 to 14) (size 15 to 20)
#    1.000    1.667    1.667    2.000    0.000    2.000 
#    0.000    0.000    0.000    0.000    0.000    0.000 
#    0.000    1.333    0.000    4.000    0.000    6.333 
#
# Total GULP energy -268053.524236 kJ/mol
# GULP energy per Si atom -5584.448422 kJ/mol
# Density = 2.324767 g / cm^3
# Si number density = 23.300705 Si / 1000 Ang^3
#
#
#
# Elastic Constant Matrix: (Units=GPa)
#
#
# Indices 1 2 3 4 5 6 
#
# 1 79.7796 34.2240 19.4257 0.0000 0.0000 0.0000
# 2 34.2240 143.4599 72.3399 0.0000 0.0000 0.0000
# 3 19.4257 72.3399 137.7997 0.0000 0.0000 0.0000
# 4 0.0000 0.0000 0.0000 26.4170 0.0000 0.0000
# 5 0.0000 0.0000 0.0000 0.0000 43.6549 0.0000
# 6 0.0000 0.0000 0.0000 0.0000 0.0000 17.3964
#
#
#
# Elastic Compliance Matrix: (Units=1/GPa)
#
#
# Indices 1 2 3 4 5 6 
#
# 1 0.013973 -0.003183 -0.000299 0.000000 0.000000 0.000000
# 2 -0.003183 0.010205 -0.004909 0.000000 0.000000 0.000000
# 3 -0.000299 -0.004909 0.009876 0.000000 0.000000 0.000000
# 4 0.000000 0.000000 0.000000 0.037854 0.000000 0.000000
# 5 0.000000 0.000000 0.000000 0.000000 0.022907 0.000000
# 6 0.000000 0.000000 0.000000 0.000000 0.000000 0.057483
#
#
# Mechanical properties :
#
#
# Convention : Reuss Voigt Hill
#
# Bulk Modulus (GPa) = 57.89325 68.11315 63.00320
# Shear Modulus (GPa) = 28.59822 33.16364 30.88093
#
# Velocity S-wave (km/s) = 3.50716 3.77674 3.64445
# Velocity P-wave (km/s) = 6.42653 6.95083 6.69382
#
# Compressibility (1/GPa) = 0.01727317
#
# Stress axis : x y z
#
# Youngs Moduli (GPa) = 71.56871 97.99118 101.25657
#
# Poissons Ratio (x) = 0.31186 0.03028
# Poissons Ratio (y) = 0.22777 0.49703
# Poissons Ratio (z) = 0.02140 0.48100
#
# Static dielectric constant tensor:
#      x y z
#    x 1.946880 0.000000 0.000000 
#    y 0.000000 1.800190 0.000000 
#    z 0.000000 0.000000 1.911900 
# 
# From -- ./inp_files/24518.got.cif
#   From: 2010.05.17/outbox.cif.g08.bks.cpg/sg62_13_cif.got.tgz:24518.got - 2010.06.03 15:25:27.
