data_PCOD9461193
_publ_section_title
;
Structure prediction by ZEFSAII (Michael W. Deem and Ramdas Pophale) SiO2 
 PCOD9461193
Probable space group: P B C A
;
_chemical_formula_sum "Si O2"
_cell_formula_units_Z 56
_cell_length_a 11.746925
_cell_length_b 14.332255
_cell_length_c 14.183687
_cell_angle_alpha 90.000000
_cell_angle_beta 90.000000
_cell_angle_gamma 90.000000
_cell_volume 2387.964473
_symmetry_space_group_name_H-M "P B C A"
_symmetry_group_IT_number 61
_symmetry_cell_setting 'orthorhombic'
loop_
_space_group_symop_operation_xyz
x,y,z
1/2-x,-y,1/2+z
1/2+x,1/2-y,-z
-x,1/2+y,1/2-z
-x,-y,-z
1/2+x,y,1/2-z
1/2-x,1/2+y,z
x,1/2-y,1/2+z
loop_
_atom_site_type_symbol
_atom_site_label
_atom_site_fract_x
_atom_site_fract_y
_atom_site_fract_z
Si Si1 0.295025 0.226550 0.429037
Si Si2 0.867631 0.158233 0.399041
Si Si3 0.479522 0.254244 0.279624
Si Si4 0.365365 0.586949 0.168337
Si Si5 0.217101 0.026599 0.371541
Si Si6 0.000000 0.500000 0.000000
Si Si7 0.102065 0.138175 0.871064
Si Si8 0.000000 0.500000 0.500000
O O1 0.325930 0.258256 0.533723
O O2 0.390765 0.272563 0.362275
O O3 0.287437 0.116016 0.411056
O O4 0.174383 0.269961 0.397597
O O5 0.757197 0.095008 0.380438
O O6 0.910605 0.197057 0.299565
O O7 0.967403 0.097786 0.444494
O O8 0.579350 0.188972 0.319239
O O9 0.532432 0.340917 0.223664
O O10 0.342811 0.549032 0.273003
O O11 0.446051 0.523960 0.104552
O O12 0.124236 0.997337 0.447349
O O13 0.307925 0.944803 0.357221
O O14 0.032201 0.105646 0.962033
#
# Coordination Sequence:
#
# PCOD9461193 Si02
#       8
#     8   8   8   8   8   4   8   4
#     4  12  26  52  79 114 160 210 273 338 399 494
#     4  12  26  49  80 114 156 211 272 328 405 489
#     4  12  27  49  80 111 160 216 264 334 415 486
#     4  12  26  51  77 116 161 211 265 346 403 491
#     4  12  26  50  81 117 166 203 278 338 403 499
#     4  12  24  48  82 116 154 216 262 338 410 490
#     4  12  27  50  73 119 155 211 268 332 407 491
#     4  12  28  46  78 116 162 202 274 342 420 474
#
# _framework density 23.450935000000001
#
# number of rings (size 3 to 8) (size 9 to 14) (size 15 to 20)
#    0.000    0.000    7.143    0.857    6.000    2.286 
#    0.000    1.429    0.000    0.000    0.000    0.000 
#    0.000    0.000    0.000    0.000    0.000    0.000 
#
# Total GULP energy -311948.449438 kJ/mol
# GULP energy per Si atom -5570.508026 kJ/mol
# Density = 2.339756 g / cm^3
# Si number density = 23.450935 Si / 1000 Ang^3
#
#
#
# Elastic Constant Matrix: (Units=GPa)
#
#
# Indices 1 2 3 4 5 6 
#
# 1 73.9058 21.7990 26.3724 0.0000 0.0000 0.0000
# 2 21.7990 46.9457 5.8121 0.0000 0.0000 0.0000
# 3 26.3724 5.8121 83.6416 0.0000 0.0000 0.0000
# 4 0.0000 0.0000 0.0000 44.5457 0.0000 0.0000
# 5 0.0000 0.0000 0.0000 0.0000 34.2686 0.0000
# 6 0.0000 0.0000 0.0000 0.0000 0.0000 43.5124
#
#
#
# Elastic Compliance Matrix: (Units=1/GPa)
#
#
# Indices 1 2 3 4 5 6 
#
# 1 0.017536 -0.007523 -0.005006 0.000000 0.000000 0.000000
# 2 -0.007523 0.024713 0.000655 0.000000 0.000000 0.000000
# 3 -0.005006 0.000655 0.013489 0.000000 0.000000 0.000000
# 4 0.000000 0.000000 0.000000 0.022449 0.000000 0.000000
# 5 0.000000 0.000000 0.000000 0.000000 0.029181 0.000000
# 6 0.000000 0.000000 0.000000 0.000000 0.000000 0.022982
#
#
# Mechanical properties :
#
#
# Convention : Reuss Voigt Hill
#
# Bulk Modulus (GPa) = 31.26076 34.71778 32.98927
# Shear Modulus (GPa) = 30.34663 34.49931 32.42297
#
# Velocity S-wave (km/s) = 3.60119 3.83969 3.72235
# Velocity P-wave (km/s) = 5.53630 5.87317 5.70722
#
# Compressibility (1/GPa) = 0.03198899
#
# Stress axis : x y z
#
# Youngs Moduli (GPa) = 57.02488 40.46382 74.13552
#
# Poissons Ratio (x) = 0.30441 0.37115
# Poissons Ratio (y) = 0.42900 -0.04854
# Poissons Ratio (z) = 0.28549 -0.02649
#
# Static dielectric constant tensor:
#      x y z
#    x 1.932650 0.000000 0.000000 
#    y 0.000000 1.849560 0.000000 
#    z 0.000000 0.000000 1.850140 
# 
# From -- ./inp_files/7542.got.cif
#   From: 2010.05.17/outbox.cif.g08.bks.cpg/sg61_4_cif.got.tgz:7542.got - 2010.06.03 15:17:17.
