data_PCOD9461688
_publ_section_title
;
Structure prediction by ZEFSAII (Michael W. Deem and Ramdas Pophale) SiO2 
 PCOD9461688
Probable space group: P N M A
;
_chemical_formula_sum "Si O2"
_cell_formula_units_Z 56
_cell_length_a 22.138297
_cell_length_b 7.337433
_cell_length_c 14.640691
_cell_angle_alpha 90.000000
_cell_angle_beta 90.000000
_cell_angle_gamma 90.000000
_cell_volume 2378.208532
_symmetry_space_group_name_H-M "P N M A"
_symmetry_group_IT_number 62
_symmetry_cell_setting 'orthorhombic'
loop_
_space_group_symop_operation_xyz
x,y,z
1/2-x,-y,1/2+z
1/2+x,1/2-y,1/2-z
-x,1/2+y,-z
-x,-y,-z
1/2+x,y,1/2-z
1/2-x,1/2+y,1/2+z
x,1/2-y,z
loop_
_atom_site_type_symbol
_atom_site_label
_atom_site_fract_x
_atom_site_fract_y
_atom_site_fract_z
Si Si1 0.637198 0.970872 0.572436
Si Si2 0.261494 0.968722 0.990794
Si Si3 0.021679 0.526239 0.278773
Si Si4 0.050464 0.965702 0.075985
Si Si5 0.891421 0.956039 0.267842
Si Si6 0.349353 0.462434 0.838335
Si Si7 0.744251 0.473146 0.799769
O O1 0.633436 0.750000 0.577823
O O2 0.706406 0.030679 0.573346
O O3 0.610438 0.029618 0.475273
O O4 0.600899 0.047107 0.657914
O O5 0.260073 0.750000 0.992174
O O6 0.322378 0.022570 0.939804
O O7 0.249329 0.026150 0.094156
O O8 0.017742 0.750000 0.280674
O O9 0.034788 0.463004 0.175033
O O10 0.082105 0.467765 0.331683
O O11 0.954041 0.464093 0.305798
O O12 0.057387 0.750000 0.088454
O O13 0.000000 0.000000 0.000000
O O14 0.886463 0.750000 0.303984
O O15 0.824310 0.037094 0.277437
O O16 0.354207 0.250000 0.813912
O O17 0.298717 0.536768 0.766638
O O18 0.744491 0.250000 0.794094
#
# Coordination Sequence:
#
# PCOD9461688 Si02
#       7
#     8   8   8   8   8   8   8
#     4  10  19  30  48  73 103 133 163 209 266 309
#     4  10  20  35  53  76 104 136 174 220 266 308
#     4   9  18  31  50  74 104 134 167 212 258 302
#     4  10  18  29  46  72 103 135 166 203 254 314
#     4  10  18  32  53  76  99 132 174 211 246 302
#     4  10  19  35  56  78 102 136 177 216 256 309
#     4   9  18  33  55  76 100 137 179 211 252 312
#
# _framework density 23.547136999999999
#
# number of rings (size 3 to 8) (size 9 to 14) (size 15 to 20)
#    0.000    2.286    2.857    0.857    0.000    3.429 
#    0.000    3.571    0.000    1.714    0.000    0.000 
#    0.000    0.000    0.000    0.000    0.000    0.000 
#
# Total GULP energy -312426.478813 kJ/mol
# GULP energy per Si atom -5579.044265 kJ/mol
# Density = 2.349354 g / cm^3
# Si number density = 23.547137 Si / 1000 Ang^3
#
#
#
# Elastic Constant Matrix: (Units=GPa)
#
#
# Indices 1 2 3 4 5 6 
#
# 1 137.6473 8.2982 4.7643 0.0000 0.0000 0.0000
# 2 8.2982 90.4798 -6.1713 0.0000 0.0000 0.0000
# 3 4.7643 -6.1713 32.1928 0.0000 0.0000 0.0000
# 4 0.0000 0.0000 0.0000 9.1314 0.0000 0.0000
# 5 0.0000 0.0000 0.0000 0.0000 35.8829 0.0000
# 6 0.0000 0.0000 0.0000 0.0000 0.0000 0.0824
#
#
#
# Elastic Compliance Matrix: (Units=1/GPa)
#
#
# Indices 1 2 3 4 5 6 
#
# 1 0.007353 -0.000759 -0.001234 0.000000 0.000000 0.000000
# 2 -0.000759 0.011277 0.002274 0.000000 0.000000 0.000000
# 3 -0.001234 0.002274 0.031681 0.000000 0.000000 0.000000
# 4 0.000000 0.000000 0.000000 0.109512 0.000000 0.000000
# 5 0.000000 0.000000 0.000000 0.000000 0.027868 0.000000
# 6 0.000000 0.000000 0.000000 0.000000 0.000000 12.143005
#
#
# Mechanical properties :
#
#
# Convention : Reuss Voigt Hill
#
# Bulk Modulus (GPa) = 19.65592 30.45577 25.05585
# Shear Modulus (GPa) = 0.40495 25.91458 13.15976
#
# Velocity S-wave (km/s) = 0.41515 3.32104 2.36661
# Velocity P-wave (km/s) = 2.93179 5.26002 4.25812
#
# Compressibility (1/GPa) = 0.05087525
#
# Stress axis : x y z
#
# Youngs Moduli (GPa) = 135.99198 88.67712 31.56433
#
# Poissons Ratio (x) = 0.06727 0.03894
# Poissons Ratio (y) = 0.10316 -0.07178
# Poissons Ratio (z) = 0.16777 -0.20165
#
# Static dielectric constant tensor:
#      x y z
#    x 1.960170 0.000000 0.000000 
#    y 0.000000 1.877380 0.000000 
#    z 0.000000 0.000000 1.864360 
# 
# From -- ./inp_files/20228.got.cif
#   From: 2010.05.17/outbox.cif.g08.bks.cpg/sg62_11_cif.got.tgz:20228.got - 2010.06.03 15:25:27.
