data_PCOD9461645
_publ_section_title
;
Structure prediction by ZEFSAII (Michael W. Deem and Ramdas Pophale) SiO2 
 PCOD9461645
Probable space group: P N M A
;
_chemical_formula_sum "Si O2"
_cell_formula_units_Z 64
_cell_length_a 14.890809
_cell_length_b 7.869429
_cell_length_c 31.553174
_cell_angle_alpha 90.000000
_cell_angle_beta 90.000000
_cell_angle_gamma 90.000000
_cell_volume 3697.469216
_symmetry_space_group_name_H-M "P N M A"
_symmetry_group_IT_number 62
_symmetry_cell_setting 'orthorhombic'
loop_
_space_group_symop_operation_xyz
x,y,z
1/2-x,-y,1/2+z
1/2+x,1/2-y,1/2-z
-x,1/2+y,-z
-x,-y,-z
1/2+x,y,1/2-z
1/2-x,1/2+y,1/2+z
x,1/2-y,z
loop_
_atom_site_type_symbol
_atom_site_label
_atom_site_fract_x
_atom_site_fract_y
_atom_site_fract_z
Si Si1 0.319987 0.454327 0.368640
Si Si2 0.507480 0.454523 0.327658
Si Si3 0.710762 0.050430 0.787200
Si Si4 0.601573 0.953148 0.449822
Si Si5 0.102539 0.047674 0.954702
Si Si6 0.684381 0.046758 0.201539
Si Si7 0.991893 0.454265 0.272003
Si Si8 0.310308 0.055158 0.631525
O O1 0.318048 0.250000 0.365905
O O2 0.413692 0.510609 0.347680
O O3 0.328381 0.500902 0.417772
O O4 0.239850 0.519863 0.338878
O O5 0.518112 0.250000 0.333870
O O6 0.505017 0.487098 0.277812
O O7 0.590157 0.549017 0.348661
O O8 0.732461 0.250000 0.787052
O O9 0.749302 0.976041 0.831377
O O10 0.759272 0.979877 0.745010
O O11 0.604072 0.026363 0.785258
O O12 0.597925 0.750000 0.443042
O O13 0.498812 0.019733 0.444355
O O14 0.671369 0.022382 0.414965
O O15 0.626719 0.984925 0.498457
O O16 0.095828 0.250000 0.956692
O O17 0.676781 0.250000 0.196830
O O18 0.582746 0.980845 0.205824
O O19 0.986374 0.250000 0.277286
O O20 0.279024 0.250000 0.625689
#
# Coordination Sequence:
#
# PCOD9461645 Si02
#       8
#     8   8   8   8   8   8   8   8
#     4  10  19  31  47  70  97 128 164 197 238 286
#     4  10  18  28  48  71  94 128 166 203 236 275
#     4  11  22  32  48  73 101 130 163 204 247 292
#     4   9  18  32  47  65  95 129 159 194 235 287
#     4  10  19  30  47  71  96 125 158 195 240 288
#     4  10  20  35  52  70  95 131 173 206 237 285
#     4  10  20  35  51  68  96 133 171 209 241 279
#     4  10  20  33  47  69  99 132 164 196 241 290
#
# _framework density 17.309137
#
# number of rings (size 3 to 8) (size 9 to 14) (size 15 to 20)
#    0.000    2.000    3.750    0.750    0.000    3.000 
#    0.000    0.000    0.000    0.000    0.000    0.875 
#    0.000    0.000    0.000    0.000    0.000    0.000 
#
# Total GULP energy -356853.112189 kJ/mol
# GULP energy per Si atom -5575.829878 kJ/mol
# Density = 1.726974 g / cm^3
# Si number density = 17.309137 Si / 1000 Ang^3
#
#
#
# Elastic Constant Matrix: (Units=GPa)
#
#
# Indices 1 2 3 4 5 6 
#
# 1 64.2583 -3.9182 29.1804 0.0000 0.0000 0.0000
# 2 -3.9182 12.1403 0.1337 0.0000 0.0000 0.0000
# 3 29.1804 0.1337 108.2047 0.0000 0.0000 0.0000
# 4 0.0000 0.0000 0.0000 13.5588 0.0000 0.0000
# 5 0.0000 0.0000 0.0000 0.0000 25.1012 0.0000
# 6 0.0000 0.0000 0.0000 0.0000 0.0000 -8.0218
#
#
#
# Elastic Compliance Matrix: (Units=1/GPa)
#
#
# Indices 1 2 3 4 5 6 
#
# 1 0.018148 0.005911 -0.004902 0.000000 0.000000 0.000000
# 2 0.005911 0.084296 -0.001698 0.000000 0.000000 0.000000
# 3 -0.004902 -0.001698 0.010566 0.000000 0.000000 0.000000
# 4 0.000000 0.000000 0.000000 0.073753 0.000000 0.000000
# 5 0.000000 0.000000 0.000000 0.000000 0.039839 0.000000
# 6 0.000000 0.000000 0.000000 0.000000 0.000000 -0.124660
#
#
# Mechanical properties :
#
#
# Convention : Reuss Voigt Hill
#
# Bulk Modulus (GPa) = 8.95789 26.15502 17.55646
# Shear Modulus (GPa) = 35.57943 16.74147 26.16045
#
# Velocity S-wave (km/s) = 4.53871 3.11336 3.89185
# Velocity P-wave (km/s) = 5.71428 5.29787 5.51001
#
# Compressibility (1/GPa) = 0.11163342
#
# Stress axis : x y z
#
# Youngs Moduli (GPa) = 55.10102 11.86289 94.64609
#
# Poissons Ratio (x) = -0.07012 0.46391
# Poissons Ratio (y) = -0.32571 0.16073
# Poissons Ratio (z) = 0.27008 0.02015
#
# Static dielectric constant tensor:
#      x y z
#    x 1.585760 0.000000 0.000000 
#    y 0.000000 1.640870 0.000000 
#    z 0.000000 0.000000 1.619510 
# 
# From -- ./inp_files/32680.got.cif
#   From: 2010.05.17/outbox.cif.g08.bks.cpg/sg62_17_cif.got.tgz:32680.got - 2010.06.03 15:25:27.
