data_PCOD9461068
_publ_section_title
;
Structure prediction by ZEFSAII (Michael W. Deem and Ramdas Pophale) SiO2 
 PCOD9461068
Probable space group: P B C A
;
_chemical_formula_sum "Si O2"
_cell_formula_units_Z 48
_cell_length_a 8.485821
_cell_length_b 22.658648
_cell_length_c 11.441811
_cell_angle_alpha 90.000000
_cell_angle_beta 90.000000
_cell_angle_gamma 90.000000
_cell_volume 2199.999737
_symmetry_space_group_name_H-M "P B C A"
_symmetry_group_IT_number 61
_symmetry_cell_setting 'orthorhombic'
loop_
_space_group_symop_operation_xyz
x,y,z
1/2-x,-y,1/2+z
1/2+x,1/2-y,-z
-x,1/2+y,1/2-z
-x,-y,-z
1/2+x,y,1/2-z
1/2-x,1/2+y,z
x,1/2-y,1/2+z
loop_
_atom_site_type_symbol
_atom_site_label
_atom_site_fract_x
_atom_site_fract_y
_atom_site_fract_z
Si Si1 0.210441 0.321434 0.023740
Si Si2 0.060217 0.421955 0.178805
Si Si3 0.936866 0.803933 0.947106
Si Si4 0.708008 0.096097 0.583655
Si Si5 0.565419 0.377442 0.706030
Si Si6 0.726452 0.546525 0.351590
O O1 0.394956 0.308532 0.010640
O O2 0.152347 0.342466 0.895915
O O3 0.164924 0.373367 0.112193
O O4 0.120019 0.262732 0.063762
O O5 0.079487 0.412596 0.316595
O O6 0.135721 0.485518 0.153790
O O7 0.881162 0.415254 0.135918
O O8 0.948763 0.837302 0.822074
O O9 0.813433 0.839314 0.028187
O O10 0.685153 0.052333 0.474523
O O11 0.657253 0.436934 0.746221
O O12 0.400343 0.400403 0.656585
#
# Coordination Sequence:
#
# PCOD9461068 Si02
#       6
#     8   8   8   8   8   8
#     4  12  26  45  72 104 141 191 233 300 353 426
#     4  12  25  43  73 103 146 184 242 294 357 424
#     4  11  27  46  72 103 145 186 244 292 360 427
#     4  11  25  45  67 105 139 188 233 295 357 422
#     4  11  24  46  73 102 140 186 235 290 365 422
#     4  11  24  45  73 103 143 186 235 294 358 435
#
# _framework density 21.818186000000001
#
# number of rings (size 3 to 8) (size 9 to 14) (size 15 to 20)
#    0.000    0.667    3.333    3.500    7.000    0.000 
#    0.000    4.167    0.000    0.000    0.000    0.000 
#    0.000    0.000    0.000    0.000    0.000    0.000 
#
# Total GULP energy -268692.391312 kJ/mol
# GULP energy per Si atom -5597.758152 kJ/mol
# Density = 2.176853 g / cm^3
# Si number density = 21.818186 Si / 1000 Ang^3
#
#
#
# Elastic Constant Matrix: (Units=GPa)
#
#
# Indices 1 2 3 4 5 6 
#
# 1 44.0747 4.1083 -9.3401 0.0000 0.0000 0.0000
# 2 4.1083 115.0594 30.2651 0.0000 0.0000 0.0000
# 3 -9.3401 30.2651 86.8008 0.0000 0.0000 0.0000
# 4 0.0000 0.0000 0.0000 23.0734 0.0000 0.0000
# 5 0.0000 0.0000 0.0000 0.0000 40.5458 0.0000
# 6 0.0000 0.0000 0.0000 0.0000 0.0000 31.0984
#
#
#
# Elastic Compliance Matrix: (Units=1/GPa)
#
#
# Indices 1 2 3 4 5 6 
#
# 1 0.023501 -0.001656 0.003106 0.000000 0.000000 0.000000
# 2 -0.001656 0.009685 -0.003555 0.000000 0.000000 0.000000
# 3 0.003106 -0.003555 0.013095 0.000000 0.000000 0.000000
# 4 0.000000 0.000000 0.000000 0.043340 0.000000 0.000000
# 5 0.000000 0.000000 0.000000 0.000000 0.024663 0.000000
# 6 0.000000 0.000000 0.000000 0.000000 0.000000 0.032156
#
#
# Mechanical properties :
#
#
# Convention : Reuss Voigt Hill
#
# Bulk Modulus (GPa) = 23.76932 32.88907 28.32919
# Shear Modulus (GPa) = 30.36285 33.67028 32.01656
#
# Velocity S-wave (km/s) = 3.73450 3.93265 3.83485
# Velocity P-wave (km/s) = 5.43261 5.97728 5.71144
#
# Compressibility (1/GPa) = 0.04207103
#
# Stress axis : x y z
#
# Youngs Moduli (GPa) = 42.55061 103.24734 76.36787
#
# Poissons Ratio (x) = 0.17100 -0.23722
# Poissons Ratio (y) = 0.07047 0.27151
# Poissons Ratio (z) = -0.13218 0.36707
#
# Static dielectric constant tensor:
#      x y z
#    x 1.807670 0.000000 0.000000 
#    y 0.000000 1.775180 0.000000 
#    z 0.000000 0.000000 1.787700 
# 
# From -- ./inp_files/4241.got.cif
#   From: 2010.05.17/outbox.cif.g08.bks.cpg/sg61_3_cif.got.tgz:4241.got - 2010.06.03 15:17:17.
