data_PCOD9461409
_publ_section_title
;
Structure prediction by ZEFSAII (Michael W. Deem and Ramdas Pophale) SiO2 
 PCOD9461409
Probable space group: P N M A
;
_chemical_formula_sum "Si O2"
_cell_formula_units_Z 48
_cell_length_a 8.809868
_cell_length_b 13.863307
_cell_length_c 16.226687
_cell_angle_alpha 90.000000
_cell_angle_beta 90.000000
_cell_angle_gamma 90.000000
_cell_volume 1981.828644
_symmetry_space_group_name_H-M "P N M A"
_symmetry_group_IT_number 62
_symmetry_cell_setting 'orthorhombic'
loop_
_space_group_symop_operation_xyz
x,y,z
1/2-x,-y,1/2+z
1/2+x,1/2-y,1/2-z
-x,1/2+y,-z
-x,-y,-z
1/2+x,y,1/2-z
1/2-x,1/2+y,1/2+z
x,1/2-y,z
loop_
_atom_site_type_symbol
_atom_site_label
_atom_site_fract_x
_atom_site_fract_y
_atom_site_fract_z
Si Si1 0.380631 0.634037 0.108236
Si Si2 0.855072 0.541425 0.703891
Si Si3 0.629583 0.644372 0.602068
Si Si4 0.346526 0.640076 0.301560
Si Si5 0.528262 0.357567 0.057289
Si Si6 0.418414 0.016431 0.614615
O O1 0.346842 0.750000 0.100307
O O2 0.404669 0.625978 0.207338
O O3 0.244259 0.557959 0.092948
O O4 0.507406 0.614307 0.036850
O O5 0.710241 0.611310 0.687442
O O6 0.785854 0.436671 0.684854
O O7 0.982178 0.575115 0.637780
O O8 0.901077 0.539823 0.797868
O O9 0.560386 0.750000 0.606441
O O10 0.786915 0.649026 0.551575
O O11 0.516293 0.564196 0.567149
O O12 0.297899 0.750000 0.311730
O O13 0.478854 0.609204 0.363645
O O14 0.468385 0.250000 0.074720
#
# Coordination Sequence:
#
# PCOD9461409 Si02
#       6
#     8   8   8   8   8   8
#     4   9  17  29  47  65  89 120 144 174 218 260
#     4   8  16  29  43  61  87 114 142 178 215 256
#     4   8  16  28  42  63  88 110 142 178 210 255
#     4   9  17  29  43  66  91 113 146 181 214 260
#     4   8  15  30  46  63  88 117 146 175 214 262
#     4  10  17  27  46  68  86 112 149 181 218 250
#
# _framework density 24.220054000000001
#
# number of rings (size 3 to 8) (size 9 to 14) (size 15 to 20)
#    1.000    2.333    0.000    0.500    0.000    2.667 
#    0.000    0.833    0.000    0.000    0.000    0.000 
#    0.000    0.000    0.000    0.000    0.000    0.000 
#
# Total GULP energy -267230.317774 kJ/mol
# GULP energy per Si atom -5567.298287 kJ/mol
# Density = 2.416493 g / cm^3
# Si number density = 24.220054 Si / 1000 Ang^3
#
#
#
# Elastic Constant Matrix: (Units=GPa)
#
#
# Indices 1 2 3 4 5 6 
#
# 1 27.1775 -3.8488 -12.2669 0.0000 0.0000 0.0000
# 2 -3.8488 95.8889 17.4733 0.0000 0.0000 0.0000
# 3 -12.2669 17.4733 55.7293 0.0000 0.0000 0.0000
# 4 0.0000 0.0000 0.0000 40.8704 0.0000 0.0000
# 5 0.0000 0.0000 0.0000 0.0000 18.9967 0.0000
# 6 0.0000 0.0000 0.0000 0.0000 0.0000 14.6900
#
#
#
# Elastic Compliance Matrix: (Units=1/GPa)
#
#
# Indices 1 2 3 4 5 6 
#
# 1 0.040854 0.000001 0.008992 0.000000 0.000000 0.000000
# 2 0.000001 0.011061 -0.003468 0.000000 0.000000 0.000000
# 3 0.008992 -0.003468 0.021010 0.000000 0.000000 0.000000
# 4 0.000000 0.000000 0.000000 0.024468 0.000000 0.000000
# 5 0.000000 0.000000 0.000000 0.000000 0.052641 0.000000
# 6 0.000000 0.000000 0.000000 0.000000 0.000000 0.068074
#
#
# Mechanical properties :
#
#
# Convention : Reuss Voigt Hill
#
# Bulk Modulus (GPa) = 11.90805 20.16788 16.03796
# Shear Modulus (GPa) = 21.27226 26.74064 24.00645
#
# Velocity S-wave (km/s) = 2.96681 3.32636 3.15172
# Velocity P-wave (km/s) = 4.08206 4.80603 4.45876
#
# Compressibility (1/GPa) = 0.08397682
#
# Stress axis : x y z
#
# Youngs Moduli (GPa) = 24.47735 90.41033 47.59531
#
# Poissons Ratio (x) = -0.00011 -0.42799
# Poissons Ratio (y) = -0.00003 0.16505
# Poissons Ratio (z) = -0.22011 0.31352
#
# Static dielectric constant tensor:
#      x y z
#    x 2.012600 0.000000 0.000000 
#    y 0.000000 1.953100 0.000000 
#    z 0.000000 0.000000 2.017930 
# 
# From -- ./inp_files/23838.got.cif
#   From: 2010.05.17/outbox.cif.g08.bks.cpg/sg62_12_cif.got.tgz:23838.got - 2010.06.03 15:25:27.
