data_PCOD9461805
_publ_section_title
;
Structure prediction by ZEFSAII (Michael W. Deem and Ramdas Pophale) SiO2 
 PCOD9461805
Probable space group: P N M A
;
_chemical_formula_sum "Si O2"
_cell_formula_units_Z 64
_cell_length_a 30.900541
_cell_length_b 7.359613
_cell_length_c 11.955325
_cell_angle_alpha 90.000000
_cell_angle_beta 90.000000
_cell_angle_gamma 90.000000
_cell_volume 2718.832468
_symmetry_space_group_name_H-M "P N M A"
_symmetry_group_IT_number 62
_symmetry_cell_setting 'orthorhombic'
loop_
_space_group_symop_operation_xyz
x,y,z
1/2-x,-y,1/2+z
1/2+x,1/2-y,1/2-z
-x,1/2+y,-z
-x,-y,-z
1/2+x,y,1/2-z
1/2-x,1/2+y,1/2+z
x,1/2-y,z
loop_
_atom_site_type_symbol
_atom_site_label
_atom_site_fract_x
_atom_site_fract_y
_atom_site_fract_z
Si Si1 0.025735 0.472076 0.266410
Si Si2 0.681581 0.029271 0.953040
Si Si3 0.613153 0.028819 0.128339
Si Si4 0.839566 0.460173 0.205168
Si Si5 0.727145 0.540996 0.527719
Si Si6 0.568173 0.469002 0.467925
Si Si7 0.842642 0.531340 0.859339
Si Si8 0.435026 0.043418 0.282123
O O1 0.024767 0.250000 0.267195
O O2 0.063727 0.529561 0.350764
O O3 0.042167 0.525501 0.142405
O O4 0.976572 0.536349 0.280953
O O5 0.682301 0.250000 0.951804
O O6 0.724974 0.964846 0.015119
O O7 0.681606 0.965642 0.826409
O O8 0.638364 0.971031 0.018024
O O9 0.612474 0.250000 0.129197
O O10 0.641744 0.973834 0.236509
O O11 0.846809 0.250000 0.170579
O O12 0.887498 0.543264 0.219101
O O13 0.806559 0.542707 0.115611
O O14 0.733219 0.750000 0.563498
O O15 0.702205 0.537032 0.409107
O O16 0.566031 0.250000 0.474750
O O17 0.618061 0.519945 0.442739
O O18 0.553167 0.545540 0.585816
O O19 0.840416 0.750000 0.857546
O O20 0.430193 0.250000 0.240777
#
# Coordination Sequence:
#
# PCOD9461805 Si02
#       8
#     8   8   8   8   8   8   8   8
#     4   8  15  28  49  76 103 134 175 213 254 309
#     4  10  22  38  57  76  99 136 180 220 256 303
#     4   8  16  33  54  76 102 133 174 219 256 298
#     4  10  22  38  54  76 109 141 169 210 264 315
#     4  10  21  36  53  77 106 134 169 212 262 315
#     4   9  16  27  45  75 109 136 168 211 252 300
#     4   9  17  30  53  79 103 136 171 207 255 308
#     4  10  18  30  50  74 103 141 174 207 259 314
#
# _framework density 23.539518000000001
#
# number of rings (size 3 to 8) (size 9 to 14) (size 15 to 20)
#    0.000    2.750    1.250    1.875    1.750    1.500 
#    0.000    1.250    0.000    1.500    0.000    0.000 
#    0.000    0.000    0.000    0.000    0.000    0.000 
#
# Total GULP energy -357376.576059 kJ/mol
# GULP energy per Si atom -5584.009001 kJ/mol
# Density = 2.348594 g / cm^3
# Si number density = 23.539518 Si / 1000 Ang^3
#
#
#
# Elastic Constant Matrix: (Units=GPa)
#
#
# Indices 1 2 3 4 5 6 
#
# 1 142.0054 7.5194 11.6061 0.0000 0.0000 0.0000
# 2 7.5194 91.2828 -0.5706 0.0000 0.0000 0.0000
# 3 11.6061 -0.5706 39.3642 0.0000 0.0000 0.0000
# 4 0.0000 0.0000 0.0000 5.2163 0.0000 0.0000
# 5 0.0000 0.0000 0.0000 0.0000 14.9996 0.0000
# 6 0.0000 0.0000 0.0000 0.0000 0.0000 2.3920
#
#
#
# Elastic Compliance Matrix: (Units=1/GPa)
#
#
# Indices 1 2 3 4 5 6 
#
# 1 0.007250 -0.000611 -0.002146 0.000000 0.000000 0.000000
# 2 -0.000611 0.011007 0.000340 0.000000 0.000000 0.000000
# 3 -0.002146 0.000340 0.026042 0.000000 0.000000 0.000000
# 4 0.000000 0.000000 0.000000 0.191708 0.000000 0.000000
# 5 0.000000 0.000000 0.000000 0.000000 0.066668 0.000000
# 6 0.000000 0.000000 0.000000 0.000000 0.000000 0.418062
#
#
# Mechanical properties :
#
#
# Convention : Reuss Voigt Hill
#
# Bulk Modulus (GPa) = 25.33962 34.41804 29.87883
# Shear Modulus (GPa) = 6.76841 21.46141 14.11491
#
# Velocity S-wave (km/s) = 1.69752 3.02274 2.45138
# Velocity P-wave (km/s) = 3.82494 5.18032 4.55335
#
# Compressibility (1/GPa) = 0.03946388
#
# Stress axis : x y z
#
# Youngs Moduli (GPa) = 137.93595 90.84811 38.40018
#
# Poissons Ratio (x) = 0.05547 0.08242
# Poissons Ratio (y) = 0.08423 -0.01304
# Poissons Ratio (z) = 0.29606 -0.03085
#
# Static dielectric constant tensor:
#      x y z
#    x 1.919260 0.000000 0.000000 
#    y 0.000000 1.856700 0.000000 
#    z 0.000000 0.000000 1.836550 
# 
# From -- ./inp_files/15777.got.cif
#   From: 2010.05.17/outbox.cif.g08.bks.cpg/sg62_8_cif.got.tgz:15777.got - 2010.06.03 15:25:27.
