data_PCOD9461988
_publ_section_title
;
Structure prediction by ZEFSAII (Michael W. Deem and Ramdas Pophale) SiO2 
 PCOD9461988
Probable space group: P N M A
;
_chemical_formula_sum "Si O2"
_cell_formula_units_Z 48
_cell_length_a 16.864243
_cell_length_b 16.502137
_cell_length_c 9.294933
_cell_angle_alpha 90.000000
_cell_angle_beta 90.000000
_cell_angle_gamma 90.000000
_cell_volume 2586.743124
_symmetry_space_group_name_H-M "P N M A"
_symmetry_group_IT_number 62
_symmetry_cell_setting 'orthorhombic'
loop_
_space_group_symop_operation_xyz
x,y,z
1/2-x,-y,1/2+z
1/2+x,1/2-y,1/2-z
-x,1/2+y,-z
-x,-y,-z
1/2+x,y,1/2-z
1/2-x,1/2+y,1/2+z
x,1/2-y,z
loop_
_atom_site_type_symbol
_atom_site_label
_atom_site_fract_x
_atom_site_fract_y
_atom_site_fract_z
Si Si1 0.307676 0.658581 0.609173
Si Si2 0.370394 0.655722 0.140377
Si Si3 0.219603 0.878495 0.342085
Si Si4 0.867384 0.154095 0.932613
Si Si5 0.223118 0.068872 0.403268
Si Si6 0.454874 0.651393 0.416661
O O1 0.327024 0.750000 0.653692
O O2 0.235079 0.660539 0.496446
O O3 0.285952 0.608476 0.747941
O O4 0.383934 0.624331 0.521906
O O5 0.382352 0.750000 0.097944
O O6 0.292798 0.651435 0.243034
O O7 0.437805 0.626746 0.251399
O O8 0.348469 0.599832 0.005741
O O9 0.146456 0.857781 0.238953
O O10 0.223867 0.973513 0.376460
O O11 0.855649 0.250000 0.964754
O O12 0.957385 0.129725 0.966923
O O13 0.802826 0.101361 0.018456
O O14 0.450203 0.750000 0.413582
#
# Coordination Sequence:
#
# PCOD9461988 Si02
#       6
#     8   8   8   8   8   8
#     4  10  18  32  52  76 102 133 166 206 255 304
#     4   9  17  34  54  71  95 137 175 201 242 309
#     4  10  19  32  49  73 102 134 168 203 242 296
#     4  10  19  36  57  76  97 133 175 209 241 292
#     4  11  20  31  50  79 106 130 163 209 256 297
#     4   8  17  33  55  75  95 127 174 212 242 292
#
# _framework density 18.556152999999998
#
# number of rings (size 3 to 8) (size 9 to 14) (size 15 to 20)
#    0.000    2.333    0.000    7.000    0.000    0.000 
#    0.000   10.000    0.000    4.000    0.000    0.000 
#    0.000    0.000    0.000    0.000    0.000    0.000 
#
# Total GULP energy -267446.343754 kJ/mol
# GULP energy per Si atom -5571.798828 kJ/mol
# Density = 1.851392 g / cm^3
# Si number density = 18.556153 Si / 1000 Ang^3
#
#
#
# Elastic Constant Matrix: (Units=GPa)
#
#
# Indices 1 2 3 4 5 6 
#
# 1 66.0116 9.9522 21.4118 0.0000 0.0000 0.0000
# 2 9.9522 80.8594 15.5149 0.0000 0.0000 0.0000
# 3 21.4118 15.5149 93.2676 0.0000 0.0000 0.0000
# 4 0.0000 0.0000 0.0000 25.1428 0.0000 0.0000
# 5 0.0000 0.0000 0.0000 0.0000 19.1145 0.0000
# 6 0.0000 0.0000 0.0000 0.0000 0.0000 -6.7392
#
#
#
# Elastic Compliance Matrix: (Units=1/GPa)
#
#
# Indices 1 2 3 4 5 6 
#
# 1 0.016509 -0.001348 -0.003566 0.000000 0.000000 0.000000
# 2 -0.001348 0.012885 -0.001834 0.000000 0.000000 0.000000
# 3 -0.003566 -0.001834 0.011846 0.000000 0.000000 0.000000
# 4 0.000000 0.000000 0.000000 0.039773 0.000000 0.000000
# 5 0.000000 0.000000 0.000000 0.000000 0.052316 0.000000
# 6 0.000000 0.000000 0.000000 0.000000 0.000000 -0.148386
#
#
# Mechanical properties :
#
#
# Convention : Reuss Voigt Hill
#
# Bulk Modulus (GPa) = 36.04361 37.09961 36.57161
# Shear Modulus (GPa) = 650.63902 20.38761 335.51332
#
# Velocity S-wave (km/s) = 18.74550 3.31826 13.46114
# Velocity P-wave (km/s) = 22.09052 5.89217 16.16646
#
# Compressibility (1/GPa) = 0.02774417
#
# Stress axis : x y z
#
# Youngs Moduli (GPa) = 60.57433 77.61007 84.42011
#
# Poissons Ratio (x) = 0.10460 0.30102
# Poissons Ratio (y) = 0.08164 0.15483
# Poissons Ratio (z) = 0.21599 0.14234
#
# Static dielectric constant tensor:
#      x y z
#    x 1.680420 0.000000 0.000000 
#    y 0.000000 1.494600 0.000000 
#    z 0.000000 0.000000 1.644150 
# 
# From -- ./inp_files/7605.got.cif
#   From: 2010.05.17/outbox.cif.g08.bks.cpg/sg62_4_cif.got.tgz:7605.got - 2010.06.03 15:25:27.
