data_PCOD9461851
_publ_section_title
;
Structure prediction by ZEFSAII (Michael W. Deem and Ramdas Pophale) SiO2 
 PCOD9461851
Probable space group: P N M A
;
_chemical_formula_sum "Si O2"
_cell_formula_units_Z 56
_cell_length_a 22.614057
_cell_length_b 8.501897
_cell_length_c 18.595370
_cell_angle_alpha 90.000000
_cell_angle_beta 90.000000
_cell_angle_gamma 90.000000
_cell_volume 3575.190156
_symmetry_space_group_name_H-M "P N M A"
_symmetry_group_IT_number 62
_symmetry_cell_setting 'orthorhombic'
loop_
_space_group_symop_operation_xyz
x,y,z
1/2-x,-y,1/2+z
1/2+x,1/2-y,1/2-z
-x,1/2+y,-z
-x,-y,-z
1/2+x,y,1/2-z
1/2-x,1/2+y,1/2+z
x,1/2-y,z
loop_
_atom_site_type_symbol
_atom_site_label
_atom_site_fract_x
_atom_site_fract_y
_atom_site_fract_z
Si Si1 0.848852 0.438109 0.626453
Si Si2 0.215323 0.058287 0.918306
Si Si3 0.311779 0.561170 0.730298
Si Si4 0.215551 0.059304 0.076948
Si Si5 0.149923 0.937394 0.619164
Si Si6 0.318664 0.562859 0.266909
Si Si7 0.933719 0.563730 0.503334
O O1 0.848532 0.250000 0.631380
O O2 0.783836 0.487391 0.596399
O O3 0.855225 0.508998 0.706349
O O4 0.897982 0.491927 0.570500
O O5 0.214552 0.250000 0.917935
O O6 0.175873 0.008942 0.849921
O O7 0.197833 0.002601 0.997799
O O8 0.303792 0.750000 0.733217
O O9 0.322733 0.515750 0.647107
O O10 0.249681 0.478095 0.749421
O O11 0.215215 0.250000 0.074236
O O12 0.283911 0.014314 0.092993
O O13 0.146071 0.750000 0.610729
O O14 0.145137 0.981941 0.703103
O O15 0.101961 0.016634 0.568425
O O16 0.327436 0.750000 0.262938
O O17 0.934598 0.750000 0.510709
O O18 0.000000 0.500000 0.500000
#
# Coordination Sequence:
#
# PCOD9461851 Si02
#       7
#     8   8   8   8   8   8   8
#     4  10  18  31  47  61  86 119 151 188 231 269
#     4   8  13  23  41  63  88 119 150 181 219 263
#     4   9  16  25  40  62  87 117 153 187 224 270
#     4   8  13  23  41  63  88 119 150 181 219 263
#     4  10  18  31  47  61  86 119 151 188 231 269
#     4   9  16  25  40  62  87 117 153 187 224 270
#     4  12  24  36  50  68  88 114 154 194 231 274
#
# _framework density 15.663501999999999
#
# number of rings (size 3 to 8) (size 9 to 14) (size 15 to 20)
#    0.000    2.571    1.429    4.714    0.000    0.000 
#    0.000    0.000    0.000    0.000    0.000    0.000 
#    0.000    1.143    0.000    3.143    0.000    4.571 
#
# Total GULP energy -311757.187813 kJ/mol
# GULP energy per Si atom -5567.092640 kJ/mol
# Density = 1.562785 g / cm^3
# Si number density = 15.663502 Si / 1000 Ang^3
#
#
#
# Elastic Constant Matrix: (Units=GPa)
#
#
# Indices 1 2 3 4 5 6 
#
# 1 33.3237 -0.4930 27.2342 0.0000 0.0000 0.0000
# 2 -0.4930 23.6533 3.5955 0.0000 0.0000 0.0000
# 3 27.2342 3.5955 157.2626 0.0000 0.0000 0.0000
# 4 0.0000 0.0000 0.0000 23.2386 0.0000 0.0000
# 5 0.0000 0.0000 0.0000 0.0000 11.6142 0.0000
# 6 0.0000 0.0000 0.0000 0.0000 0.0000 15.6757
#
#
#
# Elastic Compliance Matrix: (Units=1/GPa)
#
#
# Indices 1 2 3 4 5 6 
#
# 1 0.035021 0.001658 -0.006103 0.000000 0.000000 0.000000
# 2 0.001658 0.042503 -0.001259 0.000000 0.000000 0.000000
# 3 -0.006103 -0.001259 0.007444 0.000000 0.000000 0.000000
# 4 0.000000 0.000000 0.000000 0.043032 0.000000 0.000000
# 5 0.000000 0.000000 0.000000 0.000000 0.086102 0.000000
# 6 0.000000 0.000000 0.000000 0.000000 0.000000 0.063793
#
#
# Mechanical properties :
#
#
# Convention : Reuss Voigt Hill
#
# Bulk Modulus (GPa) = 13.59424 30.54589 22.07007
# Shear Modulus (GPa) = 15.93255 22.36588 19.14921
#
# Velocity S-wave (km/s) = 3.19278 3.78285 3.50027
# Velocity P-wave (km/s) = 4.72118 6.21479 5.51875
#
# Compressibility (1/GPa) = 0.07356057
#
# Stress axis : x y z
#
# Youngs Moduli (GPa) = 28.55453 23.52760 134.32901
#
# Poissons Ratio (x) = -0.03900 0.81976
# Poissons Ratio (y) = -0.04733 0.16909
# Poissons Ratio (z) = 0.17426 0.02962
#
# Static dielectric constant tensor:
#      x y z
#    x 1.480370 0.000000 0.000000 
#    y 0.000000 1.527160 0.000000 
#    z 0.000000 0.000000 1.595140 
# 
# From -- ./inp_files/24600.got.cif
#   From: 2010.05.17/outbox.cif.g08.bks.cpg/sg62_13_cif.got.tgz:24600.got - 2010.06.03 15:25:27.
