data_PCOD9461777
_publ_section_title
;
Structure prediction by ZEFSAII (Michael W. Deem and Ramdas Pophale) SiO2 
 PCOD9461777
Probable space group: P N M A
;
_chemical_formula_sum "Si O2"
_cell_formula_units_Z 64
_cell_length_a 31.547945
_cell_length_b 7.733042
_cell_length_c 15.095387
_cell_angle_alpha 90.000000
_cell_angle_beta 90.000000
_cell_angle_gamma 90.000000
_cell_volume 3682.694519
_symmetry_space_group_name_H-M "P N M A"
_symmetry_group_IT_number 62
_symmetry_cell_setting 'orthorhombic'
loop_
_space_group_symop_operation_xyz
x,y,z
1/2-x,-y,1/2+z
1/2+x,1/2-y,1/2-z
-x,1/2+y,-z
-x,-y,-z
1/2+x,y,1/2-z
1/2-x,1/2+y,1/2+z
x,1/2-y,z
loop_
_atom_site_type_symbol
_atom_site_label
_atom_site_fract_x
_atom_site_fract_y
_atom_site_fract_z
Si Si1 0.225932 0.041342 0.511203
Si Si2 0.454527 0.453008 0.612108
Si Si3 0.209691 0.543442 0.710985
Si Si4 0.369901 0.041223 0.690102
Si Si5 0.366459 0.041174 0.332630
Si Si6 0.951291 0.545003 0.087702
Si Si7 0.294350 0.957487 0.816034
Si Si8 0.676952 0.539078 0.486183
O O1 0.225160 0.250000 0.509252
O O2 0.207016 0.979453 0.417693
O O3 0.274680 0.983379 0.511507
O O4 0.207842 0.989759 0.606371
O O5 0.458417 0.250000 0.632579
O O6 0.418062 0.523627 0.676933
O O7 0.502240 0.525555 0.614237
O O8 0.439929 0.468111 0.509101
O O9 0.210561 0.750000 0.724098
O O10 0.166844 0.478930 0.758870
O O11 0.253561 0.477727 0.757810
O O12 0.371776 0.250000 0.686660
O O13 0.345241 0.978857 0.602732
O O14 0.339294 0.996228 0.770850
O O15 0.366459 0.250000 0.330157
O O16 0.346767 0.982415 0.425990
O O17 0.415322 0.986936 0.339320
O O18 0.954914 0.750000 0.073197
O O19 0.289886 0.750000 0.818430
O O20 0.676533 0.750000 0.486051
#
# Coordination Sequence:
#
# PCOD9461777 Si02
#       8
#     8   8   8   8   8   8   8   8
#     4  10  19  33  48  64  93 129 159 192 234 273
#     4   9  18  32  47  65  95 131 158 186 235 289
#     4  10  20  32  48  69  93 124 162 197 229 274
#     4  10  18  30  49  68  90 127 165 189 222 280
#     4  10  18  32  49  65  93 132 162 187 232 286
#     4  10  19  29  45  71  97 121 157 200 233 272
#     4  10  20  32  47  69  96 124 156 197 238 272
#     4   9  15  26  46  66  88 125 163 184 216 277
#
# _framework density 17.378578999999998
#
# number of rings (size 3 to 8) (size 9 to 14) (size 15 to 20)
#    0.000    2.250    3.750    0.375    0.000    2.000 
#    0.000    0.625    0.000    0.000    0.000    0.875 
#    0.000    0.000    0.000    0.000    0.000    0.000 
#
# Total GULP energy -356666.386793 kJ/mol
# GULP energy per Si atom -5572.912294 kJ/mol
# Density = 1.733902 g / cm^3
# Si number density = 17.378579 Si / 1000 Ang^3
#
#
#
# Elastic Constant Matrix: (Units=GPa)
#
#
# Indices 1 2 3 4 5 6 
#
# 1 131.8631 0.8028 64.0914 0.0000 0.0000 0.0000
# 2 0.8028 23.2084 -1.9186 0.0000 0.0000 0.0000
# 3 64.0914 -1.9186 103.1033 0.0000 0.0000 0.0000
# 4 0.0000 0.0000 0.0000 18.8075 0.0000 0.0000
# 5 0.0000 0.0000 0.0000 0.0000 21.8472 0.0000
# 6 0.0000 0.0000 0.0000 0.0000 0.0000 -39.1610
#
#
#
# Elastic Compliance Matrix: (Units=1/GPa)
#
#
# Indices 1 2 3 4 5 6 
#
# 1 0.010887 -0.000937 -0.006785 0.000000 0.000000 0.000000
# 2 -0.000937 0.043235 0.001387 0.000000 0.000000 0.000000
# 3 -0.006785 0.001387 0.013943 0.000000 0.000000 0.000000
# 4 0.000000 0.000000 0.000000 0.053170 0.000000 0.000000
# 5 0.000000 0.000000 0.000000 0.000000 0.045772 0.000000
# 6 0.000000 0.000000 0.000000 0.000000 0.000000 -0.025536
#
#
# Mechanical properties :
#
#
# Convention : Reuss Voigt Hill
#
# Bulk Modulus (GPa) = 18.05250 42.68067 30.36658
# Shear Modulus (GPa) = 28.96747 13.31203 21.13975
#
# Velocity S-wave (km/s) = 4.08714 2.77068 3.49151
# Velocity P-wave (km/s) = 5.71693 5.90324 5.81083
#
# Compressibility (1/GPa) = 0.05539398
#
# Stress axis : x y z
#
# Youngs Moduli (GPa) = 91.85068 23.12947 71.72235
#
# Poissons Ratio (x) = 0.02168 0.48665
# Poissons Ratio (y) = 0.08611 -0.09950
# Poissons Ratio (z) = 0.62322 -0.03209
#
# Static dielectric constant tensor:
#      x y z
#    x 1.632110 0.000000 0.000000 
#    y 0.000000 1.651250 0.000000 
#    z 0.000000 0.000000 1.583930 
# 
# From -- ./inp_files/21227.got.cif
#   From: 2010.05.17/outbox.cif.g08.bks.cpg/sg62_11_cif.got.tgz:21227.got - 2010.06.03 15:25:27.
