data_PCOD9461505
_publ_section_title
;
Structure prediction by ZEFSAII (Michael W. Deem and Ramdas Pophale) SiO2 
 PCOD9461505
Probable space group: P N M A
;
_chemical_formula_sum "Si O2"
_cell_formula_units_Z 56
_cell_length_a 20.108390
_cell_length_b 16.053104
_cell_length_c 6.933262
_cell_angle_alpha 90.000000
_cell_angle_beta 90.000000
_cell_angle_gamma 90.000000
_cell_volume 2238.071367
_symmetry_space_group_name_H-M "P N M A"
_symmetry_group_IT_number 62
_symmetry_cell_setting 'orthorhombic'
loop_
_space_group_symop_operation_xyz
x,y,z
1/2-x,-y,1/2+z
1/2+x,1/2-y,1/2-z
-x,1/2+y,-z
-x,-y,-z
1/2+x,y,1/2-z
1/2-x,1/2+y,1/2+z
x,1/2-y,z
loop_
_atom_site_type_symbol
_atom_site_label
_atom_site_fract_x
_atom_site_fract_y
_atom_site_fract_z
Si Si1 0.161157 0.028114 0.220292
Si Si2 0.698022 0.657816 0.189399
Si Si3 0.197713 0.588634 0.728844
Si Si4 0.485673 0.658238 0.232363
Si Si5 0.513836 0.479509 0.266599
Si Si6 0.573027 0.840510 0.625370
Si Si7 0.161372 0.090880 0.779393
O O1 0.163547 0.928798 0.249504
O O2 0.087025 0.055719 0.272450
O O3 0.227947 0.069616 0.303273
O O4 0.166200 0.054011 0.996029
O O5 0.671501 0.750000 0.240528
O O6 0.774428 0.647229 0.256461
O O7 0.699312 0.647703 0.956956
O O8 0.149525 0.632059 0.881773
O O9 0.168665 0.497252 0.666893
O O10 0.493573 0.750000 0.140353
O O11 0.505743 0.566646 0.157812
O O12 0.530739 0.662512 0.427829
O O13 0.406888 0.641492 0.265155
O O14 0.500000 0.500000 0.500000
O O15 0.460339 0.408486 0.238741
O O16 0.569329 0.750000 0.713204
#
# Coordination Sequence:
#
# PCOD9461505 Si02
#       7
#     8   8   8   8   8   8   8
#     4  10  20  35  59  83 116 160 192 249 302 352
#     4  10  22  36  53  84 123 158 198 242 299 369
#     4  10  20  35  57  82 119 160 195 239 297 365
#     4  10  18  29  57  90 114 145 195 254 302 336
#     4  10  17  33  54  83 120 140 191 254 297 336
#     4  10  18  30  52  81 113 149 188 240 292 341
#     4  10  17  36  60  84 112 153 205 248 294 351
#
# _framework density 25.021543999999999
#
# number of rings (size 3 to 8) (size 9 to 14) (size 15 to 20)
#    0.000    2.000    4.286    1.714    0.000    0.571 
#    0.000    4.286    0.000    0.000    0.000    7.000 
#    0.000    0.000    0.000    0.000    0.000    0.000 
#
# Total GULP energy -312654.747022 kJ/mol
# GULP energy per Si atom -5583.120483 kJ/mol
# Density = 2.496459 g / cm^3
# Si number density = 25.021544 Si / 1000 Ang^3
#
#
#
# Elastic Constant Matrix: (Units=GPa)
#
#
# Indices 1 2 3 4 5 6 
#
# 1 163.5006 18.1027 6.5212 0.0000 0.0000 0.0000
# 2 18.1027 178.1388 9.1746 0.0000 0.0000 0.0000
# 3 6.5212 9.1746 62.7437 0.0000 0.0000 0.0000
# 4 0.0000 0.0000 0.0000 17.4172 0.0000 0.0000
# 5 0.0000 0.0000 0.0000 0.0000 16.5357 0.0000
# 6 0.0000 0.0000 0.0000 0.0000 0.0000 23.2646
#
#
#
# Elastic Compliance Matrix: (Units=1/GPa)
#
#
# Indices 1 2 3 4 5 6 
#
# 1 0.006205 -0.000602 -0.000557 0.000000 0.000000 0.000000
# 2 -0.000602 0.005715 -0.000773 0.000000 0.000000 0.000000
# 3 -0.000557 -0.000773 0.016109 0.000000 0.000000 0.000000
# 4 0.000000 0.000000 0.000000 0.057414 0.000000 0.000000
# 5 0.000000 0.000000 0.000000 0.000000 0.060475 0.000000
# 6 0.000000 0.000000 0.000000 0.000000 0.000000 0.042984
#
#
# Mechanical properties :
#
#
# Convention : Reuss Voigt Hill
#
# Bulk Modulus (GPa) = 41.38261 52.44221 46.91241
# Shear Modulus (GPa) = 24.89785 36.14914 30.52349
#
# Velocity S-wave (km/s) = 3.15787 3.80507 3.49648
# Velocity P-wave (km/s) = 5.46543 6.34894 5.92368
#
# Compressibility (1/GPa) = 0.02416474
#
# Stress axis : x y z
#
# Youngs Moduli (GPa) = 161.15940 174.99101 62.07793
#
# Poissons Ratio (x) = 0.10532 0.03457
# Poissons Ratio (y) = 0.09700 0.04799
# Poissons Ratio (z) = 0.08975 0.13528
#
# Static dielectric constant tensor:
#      x y z
#    x 1.969340 0.000000 0.000000 
#    y 0.000000 1.903000 0.000000 
#    z 0.000000 0.000000 2.122370 
# 
# From -- ./inp_files/8823.got.cif
#   From: 2010.05.17/outbox.cif.g08.bks.cpg/sg62_5_cif.got.tgz:8823.got - 2010.06.03 15:25:27.
