data_PCOD9461853
_publ_section_title
;
Structure prediction by ZEFSAII (Michael W. Deem and Ramdas Pophale) SiO2 
 PCOD9461853
Probable space group: P N M A
;
_chemical_formula_sum "Si O2"
_cell_formula_units_Z 64
_cell_length_a 11.870861
_cell_length_b 17.025435
_cell_length_c 12.981036
_cell_angle_alpha 90.000000
_cell_angle_beta 90.000000
_cell_angle_gamma 90.000000
_cell_volume 2623.552692
_symmetry_space_group_name_H-M "P N M A"
_symmetry_group_IT_number 62
_symmetry_cell_setting 'orthorhombic'
loop_
_space_group_symop_operation_xyz
x,y,z
1/2-x,-y,1/2+z
1/2+x,1/2-y,1/2-z
-x,1/2+y,-z
-x,-y,-z
1/2+x,y,1/2-z
1/2-x,1/2+y,1/2+z
x,1/2-y,z
loop_
_atom_site_type_symbol
_atom_site_label
_atom_site_fract_x
_atom_site_fract_y
_atom_site_fract_z
Si Si1 0.870801 0.660591 0.541863
Si Si2 0.589819 0.073874 0.351565
Si Si3 0.554751 0.602831 0.821661
Si Si4 0.466137 0.583272 0.356141
Si Si5 0.726282 0.660596 0.977148
Si Si6 0.040023 0.840180 0.357734
Si Si7 0.723076 0.032401 0.769348
Si Si8 0.668205 0.841425 0.425060
O O1 0.882196 0.750000 0.583697
O O2 0.947596 0.601410 0.603723
O O3 0.740171 0.641127 0.527835
O O4 0.929906 0.661760 0.429808
O O5 0.501763 0.125982 0.286953
O O6 0.666472 0.110692 0.440483
O O7 0.515307 0.000767 0.386802
O O8 0.678928 0.033301 0.271088
O O9 0.644323 0.659216 0.876411
O O10 0.618998 0.519646 0.814358
O O11 0.513872 0.612209 0.244367
O O12 0.334509 0.571807 0.330943
O O13 0.535132 0.642287 0.429527
O O14 0.759518 0.750000 0.000885
O O15 0.641842 0.632946 0.068064
O O16 0.064817 0.750000 0.327684
O O17 0.774767 0.100343 0.841414
O O18 0.688367 0.750000 0.401307
#
# Coordination Sequence:
#
# PCOD9461853 Si02
#       8
#     8   8   8   8   8   8   8   8
#     4   9  17  29  46  75 104 123 161 207 250 300
#     4   9  19  33  45  75 102 129 165 200 240 301
#     4   9  17  31  50  72 100 129 161 202 254 294
#     4  10  18  31  47  72 100 133 165 198 244 302
#     4   9  18  32  51  78 103 127 164 210 258 303
#     4   9  16  29  50  74 101 128 161 210 259 299
#     4   9  18  32  47  67  99 126 164 199 239 296
#     4  10  19  29  45  72 100 130 164 201 247 296
#
# _framework density 24.394401999999999
#
# number of rings (size 3 to 8) (size 9 to 14) (size 15 to 20)
#    0.000    2.750    1.250    1.500    0.000    2.000 
#   11.250    0.000    0.000    0.750    9.750    0.000 
#    0.000    0.000    0.000    0.000    0.000    0.000 
#
# Total GULP energy -356746.634742 kJ/mol
# GULP energy per Si atom -5574.166168 kJ/mol
# Density = 2.433888 g / cm^3
# Si number density = 24.394402 Si / 1000 Ang^3
#
#
#
# Elastic Constant Matrix: (Units=GPa)
#
#
# Indices 1 2 3 4 5 6 
#
# 1 105.9205 32.2175 28.7504 0.0000 0.0000 0.0000
# 2 32.2175 44.9180 5.3534 0.0000 0.0000 0.0000
# 3 28.7504 5.3534 53.1316 0.0000 0.0000 0.0000
# 4 0.0000 0.0000 0.0000 9.3936 0.0000 0.0000
# 5 0.0000 0.0000 0.0000 0.0000 51.7995 0.0000
# 6 0.0000 0.0000 0.0000 0.0000 0.0000 25.0296
#
#
#
# Elastic Compliance Matrix: (Units=1/GPa)
#
#
# Indices 1 2 3 4 5 6 
#
# 1 0.014086 -0.009307 -0.006685 0.000000 0.000000 0.000000
# 2 -0.009307 0.028682 0.002146 0.000000 0.000000 0.000000
# 3 -0.006685 0.002146 0.022222 0.000000 0.000000 0.000000
# 4 0.000000 0.000000 0.000000 0.106455 0.000000 0.000000
# 5 0.000000 0.000000 0.000000 0.000000 0.019305 0.000000
# 6 0.000000 0.000000 0.000000 0.000000 0.000000 0.039953
#
#
# Mechanical properties :
#
#
# Convention : Reuss Voigt Hill
#
# Bulk Modulus (GPa) = 26.80953 37.40141 32.10547
# Shear Modulus (GPa) = 18.46192 26.42114 22.44153
#
# Velocity S-wave (km/s) = 2.75400 3.29459 3.03635
# Velocity P-wave (km/s) = 4.59637 5.46239 5.04798
#
# Compressibility (1/GPa) = 0.03730017
#
# Stress axis : x y z
#
# Youngs Moduli (GPa) = 70.99122 34.86480 45.00026
#
# Poissons Ratio (x) = 0.32448 0.30081
# Poissons Ratio (y) = 0.66069 -0.09657
# Poissons Ratio (z) = 0.47455 -0.07482
#
# Static dielectric constant tensor:
#      x y z
#    x 2.007710 0.000000 0.000000 
#    y 0.000000 1.919390 0.000000 
#    z 0.000000 0.000000 2.030680 
# 
# From -- ./inp_files/18256.got.cif
#   From: 2010.05.17/outbox.cif.g08.bks.cpg/sg62_10_cif.got.tgz:18256.got - 2010.06.03 15:25:27.
