data_PCOD9461731
_publ_section_title
;
Structure prediction by ZEFSAII (Michael W. Deem and Ramdas Pophale) SiO2 
 PCOD9461731
Probable space group: P N M A
;
_chemical_formula_sum "Si O2"
_cell_formula_units_Z 64
_cell_length_a 21.042527
_cell_length_b 7.643354
_cell_length_c 20.461285
_cell_angle_alpha 90.000000
_cell_angle_beta 90.000000
_cell_angle_gamma 90.000000
_cell_volume 3290.900654
_symmetry_space_group_name_H-M "P N M A"
_symmetry_group_IT_number 62
_symmetry_cell_setting 'orthorhombic'
loop_
_space_group_symop_operation_xyz
x,y,z
1/2-x,-y,1/2+z
1/2+x,1/2-y,1/2-z
-x,1/2+y,-z
-x,-y,-z
1/2+x,y,1/2-z
1/2-x,1/2+y,1/2+z
x,1/2-y,z
loop_
_atom_site_type_symbol
_atom_site_label
_atom_site_fract_x
_atom_site_fract_y
_atom_site_fract_z
Si Si1 0.926214 0.455547 0.210552
Si Si2 0.896541 0.450741 0.069413
Si Si3 0.613748 0.536593 0.427285
Si Si4 0.737510 0.038937 0.934325
Si Si5 0.192670 0.043195 0.701676
Si Si6 0.566912 0.538787 0.287384
Si Si7 0.748749 0.453710 0.576940
Si Si8 0.690370 0.535784 0.209798
O O1 0.913835 0.250000 0.204006
O O2 0.920682 0.533254 0.136950
O O3 0.872444 0.521511 0.259458
O O4 0.997226 0.485442 0.234956
O O5 0.919139 0.250000 0.067503
O O6 0.819566 0.452388 0.074633
O O7 0.911009 0.528451 0.997766
O O8 0.611068 0.750000 0.428950
O O9 0.688476 0.491268 0.421821
O O10 0.578744 0.476736 0.361942
O O11 0.734764 0.250000 0.938600
O O12 0.696982 0.975722 0.872422
O O13 0.720329 0.970349 0.005782
O O14 0.204488 0.250000 0.696013
O O15 0.251196 0.974850 0.744950
O O16 0.569537 0.750000 0.288945
O O17 0.624082 0.477582 0.240984
O O18 0.733775 0.250000 0.589385
O O19 0.792677 0.517120 0.636051
O O20 0.689166 0.750000 0.210686
#
# Coordination Sequence:
#
# PCOD9461731 Si02
#       8
#     8   8   8   8   8   8   8   8
#     4  11  23  35  47  73 111 141 168 214 265 306
#     4   9  18  32  48  69 103 142 174 204 249 303
#     4   8  14  28  50  72  95 131 172 206 239 288
#     4   9  17  31  53  78 104 132 167 210 257 307
#     4  10  18  34  58  78  98 134 179 215 249 306
#     4  10  19  34  54  73  97 136 180 215 249 301
#     4  10  18  29  50  79 108 130 162 213 259 303
#     4   9  17  31  54  80 100 127 173 219 253 293
#
# _framework density 19.447562999999999
#
# number of rings (size 3 to 8) (size 9 to 14) (size 15 to 20)
#    0.000    2.500    2.500    1.500    0.000    1.500 
#    0.000    4.375    0.000    0.750    0.000    0.000 
#    0.000    0.000    0.000    0.000    0.000    0.000 
#
# Total GULP energy -357029.724221 kJ/mol
# GULP energy per Si atom -5578.589441 kJ/mol
# Density = 1.940330 g / cm^3
# Si number density = 19.447563 Si / 1000 Ang^3
#
#
#
# Elastic Constant Matrix: (Units=GPa)
#
#
# Indices 1 2 3 4 5 6 
#
# 1 85.7448 -13.9289 52.0354 0.0000 0.0000 0.0000
# 2 -13.9289 36.3487 -3.5000 0.0000 0.0000 0.0000
# 3 52.0354 -3.5000 120.9409 0.0000 0.0000 0.0000
# 4 0.0000 0.0000 0.0000 14.4267 0.0000 0.0000
# 5 0.0000 0.0000 0.0000 0.0000 22.6606 0.0000
# 6 0.0000 0.0000 0.0000 0.0000 0.0000 1.1524
#
#
#
# Elastic Compliance Matrix: (Units=1/GPa)
#
#
# Indices 1 2 3 4 5 6 
#
# 1 0.016921 0.005799 -0.007112 0.000000 0.000000 0.000000
# 2 0.005799 0.029576 -0.001639 0.000000 0.000000 0.000000
# 3 -0.007112 -0.001639 0.011281 0.000000 0.000000 0.000000
# 4 0.000000 0.000000 0.000000 0.069316 0.000000 0.000000
# 5 0.000000 0.000000 0.000000 0.000000 0.044129 0.000000
# 6 0.000000 0.000000 0.000000 0.000000 0.000000 0.867743
#
#
# Mechanical properties :
#
#
# Convention : Reuss Voigt Hill
#
# Bulk Modulus (GPa) = 19.27788 34.69418 26.98603
# Shear Modulus (GPa) = 4.70738 21.54313 13.12526
#
# Velocity S-wave (km/s) = 1.55750 3.33191 2.60071
# Velocity P-wave (km/s) = 3.62887 5.71671 4.78797
#
# Compressibility (1/GPa) = 0.05187292
#
# Stress axis : x y z
#
# Youngs Moduli (GPa) = 59.09865 33.81150 88.64284
#
# Poissons Ratio (x) = -0.19608 0.63047
# Poissons Ratio (y) = -0.34273 0.14531
# Poissons Ratio (z) = 0.42034 0.05543
#
# Static dielectric constant tensor:
#      x y z
#    x 1.642450 0.000000 0.000000 
#    y 0.000000 1.738030 0.000000 
#    z 0.000000 0.000000 1.721620 
# 
# From -- ./inp_files/27622.got.cif
#   From: 2010.05.17/outbox.cif.g08.bks.cpg/sg62_14_cif.got.tgz:27622.got - 2010.06.03 15:25:27.
