data_PCOD9461124
_publ_section_title
;
Structure prediction by ZEFSAII (Michael W. Deem and Ramdas Pophale) SiO2 
 PCOD9461124
Probable space group: P B C A
;
_chemical_formula_sum "Si O2"
_cell_formula_units_Z 40
_cell_length_a 11.496048
_cell_length_b 15.742727
_cell_length_c 9.061627
_cell_angle_alpha 90.000000
_cell_angle_beta 90.000000
_cell_angle_gamma 90.000000
_cell_volume 1639.965509
_symmetry_space_group_name_H-M "P B C A"
_symmetry_group_IT_number 61
_symmetry_cell_setting 'orthorhombic'
loop_
_space_group_symop_operation_xyz
x,y,z
1/2-x,-y,1/2+z
1/2+x,1/2-y,-z
-x,1/2+y,1/2-z
-x,-y,-z
1/2+x,y,1/2-z
1/2-x,1/2+y,z
x,1/2-y,1/2+z
loop_
_atom_site_type_symbol
_atom_site_label
_atom_site_fract_x
_atom_site_fract_y
_atom_site_fract_z
Si Si1 0.985788 0.391011 0.621917
Si Si2 0.695160 0.410774 0.087336
Si Si3 0.645768 0.983605 0.860571
Si Si4 0.232932 0.360271 0.973628
Si Si5 0.853072 0.754364 0.780083
O O1 0.961571 0.444725 0.770520
O O2 0.867099 0.386399 0.528601
O O3 0.087292 0.428948 0.521250
O O4 0.025369 0.295284 0.668073
O O5 0.717674 0.478529 0.218826
O O6 0.653664 0.326080 0.171386
O O7 0.802224 0.414679 0.973894
O O8 0.646399 0.068030 0.962280
O O9 0.215121 0.279398 0.078820
O O10 0.204868 0.331113 0.808840
#
# Coordination Sequence:
#
# PCOD9461124 Si02
#       5
#     8   8   8   8   8
#     4  12  25  46  80 107 149 204 245 319 380 455
#     4  11  25  49  71 114 147 197 256 308 379 456
#     4  11  25  47  76 106 153 196 249 319 371 447
#     4  11  26  47  72 110 153 196 253 321 367 460
#     4  11  26  47  74 110 152 193 260 308 383 451
#
# _framework density 24.390757000000001
#
# number of rings (size 3 to 8) (size 9 to 14) (size 15 to 20)
#    0.000    0.800    4.000    1.800    2.800    0.800 
#    0.000    0.000    0.000    0.000    0.000    0.000 
#    0.000    0.000    0.000    0.000    0.000    0.000 
#
# Total GULP energy -223214.966188 kJ/mol
# GULP energy per Si atom -5580.374155 kJ/mol
# Density = 2.433524 g / cm^3
# Si number density = 24.390757 Si / 1000 Ang^3
#
#
#
# Elastic Constant Matrix: (Units=GPa)
#
#
# Indices 1 2 3 4 5 6 
#
# 1 39.6103 17.1580 21.3666 0.0000 0.0000 0.0000
# 2 17.1580 138.5669 50.5746 0.0000 0.0000 0.0000
# 3 21.3666 50.5746 145.0139 0.0000 0.0000 0.0000
# 4 0.0000 0.0000 0.0000 65.6646 0.0000 0.0000
# 5 0.0000 0.0000 0.0000 0.0000 44.1691 0.0000
# 6 0.0000 0.0000 0.0000 0.0000 0.0000 33.8450
#
#
#
# Elastic Compliance Matrix: (Units=1/GPa)
#
#
# Indices 1 2 3 4 5 6 
#
# 1 0.028025 -0.002249 -0.003345 0.000000 0.000000 0.000000
# 2 -0.002249 0.008450 -0.002616 0.000000 0.000000 0.000000
# 3 -0.003345 -0.002616 0.008301 0.000000 0.000000 0.000000
# 4 0.000000 0.000000 0.000000 0.015229 0.000000 0.000000
# 5 0.000000 0.000000 0.000000 0.000000 0.022640 0.000000
# 6 0.000000 0.000000 0.000000 0.000000 0.000000 0.029546
#
#
# Mechanical properties :
#
#
# Convention : Reuss Voigt Hill
#
# Bulk Modulus (GPa) = 35.26581 55.70994 45.48788
# Shear Modulus (GPa) = 36.21558 44.34187 40.27872
#
# Velocity S-wave (km/s) = 3.85750 4.26840 4.06814
# Velocity P-wave (km/s) = 5.85922 6.86895 6.38408
#
# Compressibility (1/GPa) = 0.02835608
#
# Stress axis : x y z
#
# Youngs Moduli (GPa) = 35.68306 118.34484 120.46900
#
# Poissons Ratio (x) = 0.26620 0.40293
# Poissons Ratio (y) = 0.08026 0.31509
# Poissons Ratio (z) = 0.11935 0.30953
#
# Static dielectric constant tensor:
#      x y z
#    x 1.948180 0.000000 0.000000 
#    y 0.000000 2.065430 0.000000 
#    z 0.000000 0.000000 1.933130 
# 
# From -- ./inp_files/2145.got.cif
#   From: 2010.05.17/outbox.cif.g08.bks.cpg/sg61_2_cif.got.tgz:2145.got - 2010.06.03 15:17:17.
