data_PCOD9461367
_publ_section_title
;
Structure prediction by ZEFSAII (Michael W. Deem and Ramdas Pophale) SiO2 
 PCOD9461367
Probable space group: P N M A
;
_chemical_formula_sum "Si O2"
_cell_formula_units_Z 52
_cell_length_a 10.153137
_cell_length_b 8.438914
_cell_length_c 27.450677
_cell_angle_alpha 90.000000
_cell_angle_beta 90.000000
_cell_angle_gamma 90.000000
_cell_volume 2352.013808
_symmetry_space_group_name_H-M "P N M A"
_symmetry_group_IT_number 62
_symmetry_cell_setting 'orthorhombic'
loop_
_space_group_symop_operation_xyz
x,y,z
1/2-x,-y,1/2+z
1/2+x,1/2-y,1/2-z
-x,1/2+y,-z
-x,-y,-z
1/2+x,y,1/2-z
1/2-x,1/2+y,1/2+z
x,1/2-y,z
loop_
_atom_site_type_symbol
_atom_site_label
_atom_site_fract_x
_atom_site_fract_y
_atom_site_fract_z
Si Si1 0.867709 0.561718 0.945977
Si Si2 0.506880 0.085078 0.287667
Si Si3 0.733586 0.075004 0.151796
Si Si4 0.343656 0.563753 0.443261
Si Si5 0.775672 0.250000 0.692812
Si Si6 0.220139 0.573411 0.651438
Si Si7 0.290321 0.750000 0.191480
Si Si8 0.007419 0.750000 0.202963
O O1 0.902013 0.750000 0.946745
O O2 0.758925 0.542386 0.904461
O O3 0.001360 0.468690 0.933877
O O4 0.822617 0.517230 0.000272
O O5 0.504906 0.250000 0.258806
O O6 0.375977 0.085901 0.320780
O O7 0.640225 0.086482 0.319354
O O8 0.506592 0.910168 0.265807
O O9 0.673353 0.250000 0.157701
O O10 0.761815 0.036290 0.095598
O O11 0.668546 0.917573 0.174932
O O12 0.313776 0.750000 0.438636
O O13 0.742683 0.250000 0.750627
O O14 0.624768 0.250000 0.671414
O O15 0.159868 0.750000 0.655695
O O16 0.152894 0.416862 0.673452
O O17 0.138665 0.750000 0.170933
#
# Coordination Sequence:
#
# PCOD9461367 Si02
#       8
#     8   8   8   8   4   8   4   4
#     4   9  17  25  34  56  85 116 151 183 209 248
#     4   8  13  21  36  53  70 100 138 163 199 239
#     4  10  17  27  41  54  79 111 140 179 217 248
#     4  10  17  23  36  57  85 115 151 185 208 245
#     4  10  20  32  44  64  82 106 152 188 213 261
#     4   9  16  27  40  54  80 109 140 179 211 246
#     4  10  20  30  46  64  78 110 152 182 219 257
#     4   8  16  28  42  56  78 104 128 180 216 244
#
# _framework density 22.108712000000001
#
# number of rings (size 3 to 8) (size 9 to 14) (size 15 to 20)
#    0.000    2.769    2.308    0.462    1.077    1.231 
#    0.000    0.000    0.000    0.000    0.000    0.000 
#    0.000    0.000    0.000    1.385    0.615    0.000 
#
# Total GULP energy -289678.617219 kJ/mol
# GULP energy per Si atom -5570.742639 kJ/mol
# Density = 2.205839 g / cm^3
# Si number density = 22.108712 Si / 1000 Ang^3
#
#
#
# Elastic Constant Matrix: (Units=GPa)
#
#
# Indices 1 2 3 4 5 6 
#
# 1 39.7200 1.9931 10.5535 0.0000 0.0000 0.0000
# 2 1.9931 250.4218 57.7163 0.0000 0.0000 0.0000
# 3 10.5535 57.7163 121.9079 0.0000 0.0000 0.0000
# 4 0.0000 0.0000 0.0000 165.0230 0.0000 0.0000
# 5 0.0000 0.0000 0.0000 0.0000 23.9730 0.0000
# 6 0.0000 0.0000 0.0000 0.0000 0.0000 -32.7752
#
#
#
# Elastic Compliance Matrix: (Units=1/GPa)
#
#
# Indices 1 2 3 4 5 6 
#
# 1 0.025796 0.000347 -0.002398 0.000000 0.000000 0.000000
# 2 0.000347 0.004487 -0.002154 0.000000 0.000000 0.000000
# 3 -0.002398 -0.002154 0.009430 0.000000 0.000000 0.000000
# 4 0.000000 0.000000 0.000000 0.006060 0.000000 0.000000
# 5 0.000000 0.000000 0.000000 0.000000 0.041714 0.000000
# 6 0.000000 0.000000 0.000000 0.000000 0.000000 -0.030511
#
#
# Mechanical properties :
#
#
# Convention : Reuss Voigt Hill
#
# Bulk Modulus (GPa) = 31.94487 61.39728 46.67108
# Shear Modulus (GPa) = 65.94593 54.02995 59.98794
#
# Velocity S-wave (km/s) = 5.46743 4.94887 5.21460
# Velocity P-wave (km/s) = 7.37139 7.77728 7.57705
#
# Compressibility (1/GPa) = 0.03130393
#
# Stress axis : x y z
#
# Youngs Moduli (GPa) = 38.76601 222.86404 106.03942
#
# Poissons Ratio (x) = -0.07739 0.25423
# Poissons Ratio (y) = -0.01346 0.22845
# Poissons Ratio (z) = 0.09294 0.48014
#
# Static dielectric constant tensor:
#      x y z
#    x 1.862350 0.000000 0.000000 
#    y 0.000000 1.918680 0.000000 
#    z 0.000000 0.000000 1.791310 
# 
# From -- ./inp_files/27032.got.cif
#   From: 2010.05.17/outbox.cif.g08.bks.cpg/sg62_14_cif.got.tgz:27032.got - 2010.06.03 15:25:27.
