data_PCOD9461518
_publ_section_title
;
Structure prediction by ZEFSAII (Michael W. Deem and Ramdas Pophale) SiO2 
 PCOD9461518
Probable space group: P N M A
;
_chemical_formula_sum "Si O2"
_cell_formula_units_Z 64
_cell_length_a 9.671305
_cell_length_b 19.227391
_cell_length_c 19.378196
_cell_angle_alpha 90.000000
_cell_angle_beta 90.000000
_cell_angle_gamma 90.000000
_cell_volume 3603.452336
_symmetry_space_group_name_H-M "P N M A"
_symmetry_group_IT_number 62
_symmetry_cell_setting 'orthorhombic'
loop_
_space_group_symop_operation_xyz
x,y,z
1/2-x,-y,1/2+z
1/2+x,1/2-y,1/2-z
-x,1/2+y,-z
-x,-y,-z
1/2+x,y,1/2-z
1/2-x,1/2+y,1/2+z
x,1/2-y,z
loop_
_atom_site_type_symbol
_atom_site_label
_atom_site_fract_x
_atom_site_fract_y
_atom_site_fract_z
Si Si1 0.346286 0.830295 0.874017
Si Si2 0.630913 0.920292 0.702569
Si Si3 0.891839 0.969845 0.091624
Si Si4 0.919252 0.673087 0.036404
Si Si5 0.629356 0.905261 0.860726
Si Si6 0.784324 0.023209 0.946720
Si Si7 0.401306 0.669782 0.626292
Si Si8 0.245362 0.674245 0.029112
O O1 0.372466 0.750000 0.854708
O O2 0.258611 0.869938 0.816133
O O3 0.487512 0.871826 0.886282
O O4 0.262256 0.829805 0.946127
O O5 0.611033 0.932439 0.783023
O O6 0.499493 0.880576 0.669474
O O7 0.650998 0.991535 0.660760
O O8 0.859641 0.888434 0.082503
O O9 0.059184 0.976662 0.084242
O O10 0.816441 0.007217 0.027134
O O11 0.858895 0.750000 0.046350
O O12 0.083518 0.676907 0.047713
O O13 0.908939 0.653808 0.955528
O O14 0.743533 0.844593 0.855033
O O15 0.693054 0.964484 0.909974
O O16 0.712293 0.099070 0.941493
O O17 0.442440 0.750000 0.636096
O O18 0.307064 0.750000 0.049605
#
# Coordination Sequence:
#
# PCOD9461518 Si02
#       8
#     8   8   8   8   8   8   8   8
#     4  11  23  37  51  76 114 151 180 212 262 326
#     4  12  22  37  54  76 106 151 189 221 261 321
#     4  10  17  34  59  79 102 139 181 230 269 305
#     4   9  16  30  58  86 102 128 178 229 267 308
#     4  12  25  34  50  80 114 144 183 223 269 319
#     4  10  18  35  57  80 105 137 181 230 268 310
#     4  11  20  35  55  76 106 146 185 217 258 314
#     4   9  17  33  57  80 103 135 178 219 265 320
#
# _framework density 17.760746000000001
#
# number of rings (size 3 to 8) (size 9 to 14) (size 15 to 20)
#    0.000    1.500    5.000    2.250    0.000    3.500 
#    0.000    0.000    0.000    0.750    0.000    0.000 
#    0.000    0.000    0.000    0.000    0.000    0.000 
#
# Total GULP energy -356906.401007 kJ/mol
# GULP energy per Si atom -5576.662516 kJ/mol
# Density = 1.772032 g / cm^3
# Si number density = 17.760746 Si / 1000 Ang^3
#
#
#
# Elastic Constant Matrix: (Units=GPa)
#
#
# Indices 1 2 3 4 5 6 
#
# 1 32.2486 27.6673 -2.4817 0.0000 0.0000 0.0000
# 2 27.6673 120.2963 34.4747 0.0000 0.0000 0.0000
# 3 -2.4817 34.4747 46.1380 0.0000 0.0000 0.0000
# 4 0.0000 0.0000 0.0000 6.3023 0.0000 0.0000
# 5 0.0000 0.0000 0.0000 0.0000 7.3697 0.0000
# 6 0.0000 0.0000 0.0000 0.0000 0.0000 22.4994
#
#
#
# Elastic Compliance Matrix: (Units=1/GPa)
#
#
# Indices 1 2 3 4 5 6 
#
# 1 0.043675 -0.013639 0.012540 0.000000 0.000000 0.000000
# 2 -0.013639 0.014837 -0.011820 0.000000 0.000000 0.000000
# 3 0.012540 -0.011820 0.031181 0.000000 0.000000 0.000000
# 4 0.000000 0.000000 0.000000 0.158673 0.000000 0.000000
# 5 0.000000 0.000000 0.000000 0.000000 0.135691 0.000000
# 6 0.000000 0.000000 0.000000 0.000000 0.000000 0.044446
#
#
# Mechanical properties :
#
#
# Convention : Reuss Voigt Hill
#
# Bulk Modulus (GPa) = 15.66022 35.33371 25.49697
# Shear Modulus (GPa) = 10.51248 16.50244 13.50746
#
# Velocity S-wave (km/s) = 2.43553 3.05151 2.76075
# Velocity P-wave (km/s) = 4.09213 5.68797 4.95472
#
# Compressibility (1/GPa) = 0.06385605
#
# Stress axis : x y z
#
# Youngs Moduli (GPa) = 22.89618 67.39896 32.07120
#
# Poissons Ratio (x) = 0.91924 -0.40218
# Poissons Ratio (y) = 0.31228 0.37908
# Poissons Ratio (z) = -0.28713 0.79665
#
# Static dielectric constant tensor:
#      x y z
#    x 1.617100 0.000000 0.000000 
#    y 0.000000 1.668000 0.000000 
#    z 0.000000 0.000000 1.588620 
# 
# From -- ./inp_files/22574.got.cif
#   From: 2010.05.17/outbox.cif.g08.bks.cpg/sg62_12_cif.got.tgz:22574.got - 2010.06.03 15:25:27.
