data_PCOD9461380
_publ_section_title
;
Structure prediction by ZEFSAII (Michael W. Deem and Ramdas Pophale) SiO2 
 PCOD9461380
Probable space group: P N M A
;
_chemical_formula_sum "Si O2"
_cell_formula_units_Z 48
_cell_length_a 6.798593
_cell_length_b 8.263788
_cell_length_c 33.067266
_cell_angle_alpha 90.000000
_cell_angle_beta 90.000000
_cell_angle_gamma 90.000000
_cell_volume 1857.789479
_symmetry_space_group_name_H-M "P N M A"
_symmetry_group_IT_number 62
_symmetry_cell_setting 'orthorhombic'
loop_
_space_group_symop_operation_xyz
x,y,z
1/2-x,-y,1/2+z
1/2+x,1/2-y,1/2-z
-x,1/2+y,-z
-x,-y,-z
1/2+x,y,1/2-z
1/2-x,1/2+y,1/2+z
x,1/2-y,z
loop_
_atom_site_type_symbol
_atom_site_label
_atom_site_fract_x
_atom_site_fract_y
_atom_site_fract_z
Si Si1 0.851333 0.941333 0.117881
Si Si2 0.904245 0.440594 0.364596
Si Si3 0.788341 0.060591 0.032948
Si Si4 0.847632 0.556471 0.449963
Si Si5 0.086838 0.936217 0.802599
Si Si6 0.489697 0.066715 0.780677
O O1 0.843407 0.750000 0.124048
O O2 0.636320 0.021551 0.125905
O O3 0.888254 0.971265 0.070568
O O4 0.987357 0.021843 0.152492
O O5 0.870297 0.250000 0.366177
O O6 0.801055 0.524813 0.403017
O O7 0.883113 0.499020 0.318056
O O8 0.836053 0.250000 0.035543
O O9 0.553368 0.035018 0.041549
O O10 0.798771 0.003752 0.986164
O O11 0.877769 0.750000 0.454679
O O12 0.151459 0.750000 0.803368
O O13 0.268466 0.057512 0.796739
O O14 0.975458 0.965132 0.760642
O O15 0.550517 0.250000 0.772505
#
# Coordination Sequence:
#
# PCOD9461380 Si02
#       6
#     8   8   8   8   8   8
#     4  10  17  26  40  59  84 116 151 188 231 278
#     4  10  17  26  40  59  84 116 151 188 231 278
#     4   9  15  22  33  51  77 110 146 183 224 272
#     4   9  15  22  33  51  77 110 146 183 224 272
#     4  11  21  35  52  72  97 127 162 200 242 287
#     4  11  21  35  52  72  97 127 162 200 242 287
#
# _framework density 25.837159
#
# number of rings (size 3 to 8) (size 9 to 14) (size 15 to 20)
#    0.000    2.000    0.000   11.000    0.000    2.000 
#    0.000    0.000    0.000    0.000    0.000    0.000 
#    0.000    1.333    0.000    5.000    0.000   19.333 
#
# Total GULP energy -268330.428413 kJ/mol
# GULP energy per Si atom -5590.217259 kJ/mol
# Density = 2.577835 g / cm^3
# Si number density = 25.837159 Si / 1000 Ang^3
#
#
#
# Elastic Constant Matrix: (Units=GPa)
#
#
# Indices 1 2 3 4 5 6 
#
# 1 46.4812 -13.0902 38.0199 0.0000 0.0000 0.0000
# 2 -13.0902 157.1870 43.0055 0.0000 0.0000 0.0000
# 3 38.0199 43.0055 259.6751 0.0000 0.0000 0.0000
# 4 0.0000 0.0000 0.0000 52.5419 0.0000 0.0000
# 5 0.0000 0.0000 0.0000 0.0000 63.4633 0.0000
# 6 0.0000 0.0000 0.0000 0.0000 0.0000 6.1151
#
#
#
# Elastic Compliance Matrix: (Units=1/GPa)
#
#
# Indices 1 2 3 4 5 6 
#
# 1 0.026035 0.003363 -0.004369 0.000000 0.000000 0.000000
# 2 0.003363 0.007098 -0.001668 0.000000 0.000000 0.000000
# 3 -0.004369 -0.001668 0.004767 0.000000 0.000000 0.000000
# 4 0.000000 0.000000 0.000000 0.019032 0.000000 0.000000
# 5 0.000000 0.000000 0.000000 0.000000 0.015757 0.000000
# 6 0.000000 0.000000 0.000000 0.000000 0.000000 0.163530
#
#
# Mechanical properties :
#
#
# Convention : Reuss Voigt Hill
#
# Bulk Modulus (GPa) = 30.71899 66.57929 48.64914
# Shear Modulus (GPa) = 19.80845 50.78460 35.29652
#
# Velocity S-wave (km/s) = 2.77188 4.43828 3.70011
# Velocity P-wave (km/s) = 4.70741 7.21728 6.09298
#
# Compressibility (1/GPa) = 0.03255316
#
# Stress axis : x y z
#
# Youngs Moduli (GPa) = 38.40997 140.87851 209.78091
#
# Poissons Ratio (x) = -0.47384 0.91651
# Poissons Ratio (y) = -0.12919 0.34992
# Poissons Ratio (z) = 0.16781 0.23499
#
# Static dielectric constant tensor:
#      x y z
#    x 2.164550 0.000000 0.000000 
#    y 0.000000 1.832730 0.000000 
#    z 0.000000 0.000000 2.190970 
# 
# From -- ./inp_files/32345.got.cif
#   From: 2010.05.17/outbox.cif.g08.bks.cpg/sg62_17_cif.got.tgz:32345.got - 2010.06.03 15:25:27.
