data_PCOD9461552
_publ_section_title
;
Structure prediction by ZEFSAII (Michael W. Deem and Ramdas Pophale) SiO2 
 PCOD9461552
Probable space group: P N M A
;
_chemical_formula_sum "Si O2"
_cell_formula_units_Z 56
_cell_length_a 30.457815
_cell_length_b 8.686414
_cell_length_c 13.993377
_cell_angle_alpha 90.000000
_cell_angle_beta 90.000000
_cell_angle_gamma 90.000000
_cell_volume 3702.216427
_symmetry_space_group_name_H-M "P N M A"
_symmetry_group_IT_number 62
_symmetry_cell_setting 'orthorhombic'
loop_
_space_group_symop_operation_xyz
x,y,z
1/2-x,-y,1/2+z
1/2+x,1/2-y,1/2-z
-x,1/2+y,-z
-x,-y,-z
1/2+x,y,1/2-z
1/2-x,1/2+y,1/2+z
x,1/2-y,z
loop_
_atom_site_type_symbol
_atom_site_label
_atom_site_fract_x
_atom_site_fract_y
_atom_site_fract_z
Si Si1 0.315576 0.435099 0.289239
Si Si2 0.095915 0.936167 0.893258
Si Si3 0.271201 0.565288 0.104061
Si Si4 0.231806 0.934762 0.396208
Si Si5 0.999981 0.564512 0.892538
Si Si6 0.681001 0.565292 0.292611
Si Si7 0.096059 0.434368 0.108517
O O1 0.313899 0.250000 0.285386
O O2 0.363081 0.483831 0.328594
O O3 0.303419 0.502906 0.185994
O O4 0.277965 0.494444 0.361332
O O5 0.096997 0.750000 0.899908
O O6 0.047759 0.982500 0.853063
O O7 0.100622 0.000645 0.000713
O O8 0.273385 0.750000 0.101463
O O9 0.221849 0.521836 0.138642
O O10 0.279820 0.496146 0.000359
O O11 0.235714 0.750000 0.396805
O O12 0.196523 0.976962 0.314224
O O13 0.999931 0.750000 0.895148
O O14 0.952361 0.517306 0.852526
O O15 0.000000 0.500000 0.000000
O O16 0.676871 0.750000 0.296883
O O17 0.636092 0.492359 0.327889
O O18 0.097258 0.250000 0.103414
#
# Coordination Sequence:
#
# PCOD9461552 Si02
#       7
#     8   8   8   8   8   8   8
#     4  10  19  30  46  67  88 116 150 179 213 258
#     4   9  17  29  44  61  88 121 146 172 212 259
#     4  10  20  33  47  64  88 117 146 181 220 258
#     4  10  20  33  47  64  88 117 147 182 218 256
#     4   8  15  27  40  59  86 114 143 174 210 253
#     4   9  19  32  44  61  87 117 145 171 211 261
#     4  10  18  26  42  66  89 114 146 181 213 247
#
# _framework density 15.126075
#
# number of rings (size 3 to 8) (size 9 to 14) (size 15 to 20)
#    0.000    2.571    0.000    3.429    0.000    8.571 
#    0.000    0.000    0.000    0.000    0.000    1.000 
#    0.000    0.000    0.000    0.000    0.000    0.000 
#
# Total GULP energy -311971.094887 kJ/mol
# GULP energy per Si atom -5570.912409 kJ/mol
# Density = 1.509165 g / cm^3
# Si number density = 15.126075 Si / 1000 Ang^3
#
#
#
# Elastic Constant Matrix: (Units=GPa)
#
#
# Indices 1 2 3 4 5 6 
#
# 1 164.9290 33.6792 64.7229 0.0000 0.0000 0.0000
# 2 33.6792 26.0679 23.6096 0.0000 0.0000 0.0000
# 3 64.7229 23.6096 87.8653 0.0000 0.0000 0.0000
# 4 0.0000 0.0000 0.0000 23.5621 0.0000 0.0000
# 5 0.0000 0.0000 0.0000 0.0000 21.2853 0.0000
# 6 0.0000 0.0000 0.0000 0.0000 0.0000 18.0508
#
#
#
# Elastic Compliance Matrix: (Units=1/GPa)
#
#
# Indices 1 2 3 4 5 6 
#
# 1 0.009634 -0.007955 -0.004959 0.000000 0.000000 0.000000
# 2 -0.007955 0.057269 -0.009528 0.000000 0.000000 0.000000
# 3 -0.004959 -0.009528 0.017594 0.000000 0.000000 0.000000
# 4 0.000000 0.000000 0.000000 0.042441 0.000000 0.000000
# 5 0.000000 0.000000 0.000000 0.000000 0.046981 0.000000
# 6 0.000000 0.000000 0.000000 0.000000 0.000000 0.055399
#
#
# Mechanical properties :
#
#
# Convention : Reuss Voigt Hill
#
# Bulk Modulus (GPa) = 25.24478 58.09838 41.67158
# Shear Modulus (GPa) = 17.39695 23.03635 20.21665
#
# Velocity S-wave (km/s) = 3.39504 3.90674 3.65984
# Velocity P-wave (km/s) = 5.66517 7.67092 6.74304
#
# Compressibility (1/GPa) = 0.03961215
#
# Stress axis : x y z
#
# Youngs Moduli (GPa) = 103.80253 17.46136 56.83773
#
# Poissons Ratio (x) = 0.13891 0.28184
# Poissons Ratio (y) = 0.82580 0.54157
# Poissons Ratio (z) = 0.51472 0.16638
#
# Static dielectric constant tensor:
#      x y z
#    x 1.533130 0.000000 0.000000 
#    y 0.000000 1.509840 0.000000 
#    z 0.000000 0.000000 1.469310 
# 
# From -- ./inp_files/21171.got.cif
#   From: 2010.05.17/outbox.cif.g08.bks.cpg/sg62_11_cif.got.tgz:21171.got - 2010.06.03 15:25:27.
