data_PCOD9461256
_publ_section_title
;
Structure prediction by ZEFSAII (Michael W. Deem and Ramdas Pophale) SiO2 
 PCOD9461256
Probable space group: P B C A
;
_chemical_formula_sum "Si O2"
_cell_formula_units_Z 64
_cell_length_a 24.000000
_cell_length_b 15.000000
_cell_length_c 9.000000
_cell_angle_alpha 90.000000
_cell_angle_beta 90.000000
_cell_angle_gamma 90.000000
_cell_volume 3240.000000
_symmetry_space_group_name_H-M "P B C A"
_symmetry_group_IT_number 61
_symmetry_cell_setting 'orthorhombic'
loop_
_space_group_symop_operation_xyz
x,y,z
1/2-x,-y,1/2+z
1/2+x,1/2-y,-z
-x,1/2+y,1/2-z
-x,-y,-z
1/2+x,y,1/2-z
1/2-x,1/2+y,z
x,1/2-y,1/2+z
loop_
_atom_site_type_symbol
_atom_site_label
_atom_site_fract_x
_atom_site_fract_y
_atom_site_fract_z
Si Si1 0.966124 0.624996 0.837412
Si Si2 0.174583 0.331825 0.769518
Si Si3 0.953066 0.798555 0.664017
Si Si4 0.590143 0.862814 0.127112
Si Si5 0.132814 0.002256 0.736931
Si Si6 0.808355 0.482521 0.073544
Si Si7 0.799773 0.858146 0.076433
Si Si8 0.577531 0.673526 0.277538
O O1 0.955566 0.693793 0.703361
O O2 0.922854 0.545173 0.833588
O O3 0.030028 0.595247 0.836615
O O4 0.957093 0.680534 0.989281
O O5 0.107076 0.332896 0.783798
O O6 0.198230 0.418806 0.856411
O O7 0.190162 0.338393 0.596833
O O8 0.195494 0.237026 0.837929
O O9 0.010216 0.836243 0.737805
O O10 0.638846 0.933497 0.148866
O O11 0.594003 0.770819 0.218372
O O12 0.589729 0.835542 0.953196
O O13 0.155453 0.072472 0.855804
O O14 0.176673 0.993024 0.601570
O O15 0.113507 0.905702 0.795523
O O16 0.757484 0.413921 0.092445
#
# Coordination Sequence:
#
# PCOD9461256 Si02
#       8
#     8   8   8   8   8   8   8   8
#     4  10  19  35  63  90 127 156 207 260 313 375
#     4  12  24  43  66  92 124 164 210 261 306 372
#     4  10  19  36  62  93 121 162 201 254 315 371
#     4   9  21  38  61  92 122 166 205 258 320 366
#     4  11  22  41  63  94 126 166 210 257 317 369
#     4  11  25  43  66  90 123 166 217 253 309 375
#     4  12  27  43  63  94 125 169 209 261 309 363
#     4   9  21  37  64  90 129 160 202 257 319 378
#
# _framework density 19.753086
#
# number of rings (size 3 to 8) (size 9 to 14) (size 15 to 20)
#    0.000    1.500    2.500    2.250    1.750    5.500 
#    0.000    0.625    0.000    0.000    0.000    0.000 
#    0.000    0.000    0.000    0.000    0.000    0.000 
#
# Total GULP energy -357508.915360 kJ/mol
# GULP energy per Si atom -5586.076802 kJ/mol
# Density = 1.970813 g / cm^3
# Si number density = 19.753086 Si / 1000 Ang^3
#
#
#
# Elastic Constant Matrix: (Units=GPa)
#
#
# Indices 1 2 3 4 5 6 
#
# 1 83.0203 52.1621 22.4233 0.0000 0.0000 0.0000
# 2 52.1621 119.7314 30.5820 0.0000 0.0000 0.0000
# 3 22.4233 30.5820 45.1610 0.0000 0.0000 0.0000
# 4 0.0000 0.0000 0.0000 32.2965 0.0000 0.0000
# 5 0.0000 0.0000 0.0000 0.0000 18.8536 0.0000
# 6 0.0000 0.0000 0.0000 0.0000 0.0000 36.7798
#
#
#
# Elastic Compliance Matrix: (Units=1/GPa)
#
#
# Indices 1 2 3 4 5 6 
#
# 1 0.017218 -0.006430 -0.004195 0.000000 0.000000 0.000000
# 2 -0.006430 0.012500 -0.005272 0.000000 0.000000 0.000000
# 3 -0.004195 -0.005272 0.027796 0.000000 0.000000 0.000000
# 4 0.000000 0.000000 0.000000 0.030963 0.000000 0.000000
# 5 0.000000 0.000000 0.000000 0.000000 0.053040 0.000000
# 6 0.000000 0.000000 0.000000 0.000000 0.000000 0.027189
#
#
# Mechanical properties :
#
#
# Convention : Reuss Voigt Hill
#
# Bulk Modulus (GPa) = 38.87990 50.91639 44.89814
# Shear Modulus (GPa) = 23.91504 27.10233 25.50869
#
# Velocity S-wave (km/s) = 3.48328 3.70815 3.59747
# Velocity P-wave (km/s) = 5.99194 6.64576 6.32730
#
# Compressibility (1/GPa) = 0.02572023
#
# Stress axis : x y z
#
# Youngs Moduli (GPa) = 58.07828 80.00124 35.97628
#
# Poissons Ratio (x) = 0.51439 0.15092
# Poissons Ratio (y) = 0.37343 0.18967
# Poissons Ratio (z) = 0.24364 0.42177
#
# Static dielectric constant tensor:
#      x y z
#    x 1.732390 0.000000 0.000000 
#    y 0.000000 1.677780 0.000000 
#    z 0.000000 0.000000 1.683030 
# 
# From -- ./inp_files/4322.got.cif
#   From: 2010.05.17/outbox.ucp.g08.bks.cvg/sg61_3_cif.got.tgz:4322.got - 2010.06.11 16:28:26.
