data_PCOD9461332
_publ_section_title
;
Structure prediction by ZEFSAII (Michael W. Deem and Ramdas Pophale) SiO2 
 PCOD9461332
Probable space group: P N M A
;
_chemical_formula_sum "Si O2"
_cell_formula_units_Z 44
_cell_length_a 13.803925
_cell_length_b 8.770617
_cell_length_c 14.284426
_cell_angle_alpha 90.000000
_cell_angle_beta 90.000000
_cell_angle_gamma 90.000000
_cell_volume 1729.400304
_symmetry_space_group_name_H-M "P N M A"
_symmetry_group_IT_number 62
_symmetry_cell_setting 'orthorhombic'
loop_
_space_group_symop_operation_xyz
x,y,z
1/2-x,-y,1/2+z
1/2+x,1/2-y,1/2-z
-x,1/2+y,-z
-x,-y,-z
1/2+x,y,1/2-z
1/2-x,1/2+y,1/2+z
x,1/2-y,z
loop_
_atom_site_type_symbol
_atom_site_label
_atom_site_fract_x
_atom_site_fract_y
_atom_site_fract_z
Si Si1 0.368361 0.909564 0.971067
Si Si2 0.750132 0.750000 0.254101
Si Si3 0.466156 0.004553 0.160015
Si Si4 0.686779 0.420625 0.484132
Si Si5 0.746040 0.914519 0.772190
Si Si6 0.869408 0.250000 0.949991
Si Si7 0.521564 0.250000 0.705062
O O1 0.312297 0.750000 0.969939
O O2 0.424609 0.914699 0.069919
O O3 0.294785 0.049204 0.976469
O O4 0.446064 0.909036 0.888813
O O5 0.727701 0.575140 0.223961
O O6 0.709978 0.750000 0.362397
O O7 0.864446 0.750000 0.229063
O O8 0.511281 0.899216 0.239365
O O9 0.369635 0.080080 0.203308
O O10 0.654991 0.250000 0.513755
O O11 0.699253 0.414759 0.371835
O O12 0.634053 0.583938 0.502405
O O13 0.765222 0.750000 0.726938
O O14 0.971135 0.250000 0.893988
#
# Coordination Sequence:
#
# PCOD9461332 Si02
#       7
#     8   4   8   8   8   4   4
#     4  10  16  25  42  62  94 127 154 185 224 284
#     4   8  16  28  42  60  82 114 156 189 212 266
#     4   9  17  23  37  63  94 123 153 184 221 274
#     4   9  17  27  41  61  81 116 160 191 225 261
#     4   8  13  23  37  54  82 114 147 176 210 258
#     4  10  18  32  48  60  90 128 157 197 231 261
#     4  10  18  30  44  66  96 130 161 190 227 283
#
# _framework density 25.442343000000001
#
# number of rings (size 3 to 8) (size 9 to 14) (size 15 to 20)
#    0.000    2.909    1.818    1.636    3.818    2.182 
#    0.000    4.545    0.000    0.000    0.000    0.000 
#    0.000    1.455    0.000    0.000    0.000    0.364 
#
# Total GULP energy -245058.582560 kJ/mol
# GULP energy per Si atom -5569.513240 kJ/mol
# Density = 2.538444 g / cm^3
# Si number density = 25.442343 Si / 1000 Ang^3
#
#
#
# Elastic Constant Matrix: (Units=GPa)
#
#
# Indices 1 2 3 4 5 6 
#
# 1 97.2305 30.9178 25.0986 0.0000 0.0000 0.0000
# 2 30.9178 251.8253 27.7950 0.0000 0.0000 0.0000
# 3 25.0986 27.7950 37.8159 0.0000 0.0000 0.0000
# 4 0.0000 0.0000 0.0000 -14.6943 0.0000 0.0000
# 5 0.0000 0.0000 0.0000 0.0000 30.9068 0.0000
# 6 0.0000 0.0000 0.0000 0.0000 0.0000 -148.7120
#
#
#
# Elastic Compliance Matrix: (Units=1/GPa)
#
#
# Indices 1 2 3 4 5 6 
#
# 1 0.012516 -0.000674 -0.007811 0.000000 0.000000 0.000000
# 2 -0.000674 0.004358 -0.002755 0.000000 0.000000 0.000000
# 3 -0.007811 -0.002755 0.033653 0.000000 0.000000 0.000000
# 4 0.000000 0.000000 0.000000 -0.068054 0.000000 0.000000
# 5 0.000000 0.000000 0.000000 0.000000 0.032355 0.000000
# 6 0.000000 0.000000 0.000000 0.000000 0.000000 -0.006724
#
#
# Mechanical properties :
#
#
# Convention : Reuss Voigt Hill
#
# Bulk Modulus (GPa) = 35.65682 61.61053 48.63368
# Shear Modulus (GPa) = 125.20584 -6.29588 59.45498
#
# Velocity S-wave (km/s) = 7.02271 -1.57478 4.83934
# Velocity P-wave (km/s) = 8.93326 4.57840 7.09806
#
# Compressibility (1/GPa) = 0.02804512
#
# Stress axis : x y z
#
# Youngs Moduli (GPa) = 79.90044 229.46579 29.71476
#
# Poissons Ratio (x) = 0.15477 0.23210
# Poissons Ratio (y) = 0.05389 0.08188
# Poissons Ratio (z) = 0.62409 0.63229
#
# Static dielectric constant tensor:
#      x y z
#    x 2.015700 0.000000 0.000000 
#    y 0.000000 2.057710 0.000000 
#    z 0.000000 0.000000 1.948380 
# 
# From -- ./inp_files/23613.got.cif
#   From: 2010.05.17/outbox.cif.g08.bks.cpg/sg62_12_cif.got.tgz:23613.got - 2010.06.03 15:25:27.
