data_PCOD9461662
_publ_section_title
;
Structure prediction by ZEFSAII (Michael W. Deem and Ramdas Pophale) SiO2 
 PCOD9461662
Probable space group: P N M A
;
_chemical_formula_sum "Si O2"
_cell_formula_units_Z 40
_cell_length_a 13.174467
_cell_length_b 8.598561
_cell_length_c 14.331016
_cell_angle_alpha 90.000000
_cell_angle_beta 90.000000
_cell_angle_gamma 90.000000
_cell_volume 1623.438389
_symmetry_space_group_name_H-M "P N M A"
_symmetry_group_IT_number 62
_symmetry_cell_setting 'orthorhombic'
loop_
_space_group_symop_operation_xyz
x,y,z
1/2-x,-y,1/2+z
1/2+x,1/2-y,1/2-z
-x,1/2+y,-z
-x,-y,-z
1/2+x,y,1/2-z
1/2-x,1/2+y,1/2+z
x,1/2-y,z
loop_
_atom_site_type_symbol
_atom_site_label
_atom_site_fract_x
_atom_site_fract_y
_atom_site_fract_z
Si Si1 0.935204 0.068365 0.599152
Si Si2 0.304142 0.438797 0.066415
Si Si3 0.470806 0.429556 0.274112
Si Si4 0.682054 0.930635 0.278759
Si Si5 0.397222 0.934124 0.454993
O O1 0.964240 0.250000 0.591977
O O2 0.896163 0.005092 0.500415
O O3 0.834121 0.066398 0.667005
O O4 0.013317 0.978961 0.666387
O O5 0.310221 0.250000 0.068991
O O6 0.202902 0.489053 0.009029
O O7 0.279693 0.503209 0.169308
O O8 0.445471 0.250000 0.279843
O O9 0.586235 0.464110 0.309833
O O10 0.401447 0.522853 0.345562
O O11 0.667415 0.750000 0.305701
O O12 0.399433 0.750000 0.463487
O O13 0.500000 0.000000 0.500000
#
# Coordination Sequence:
#
# PCOD9461662 Si02
#       5
#     8   8   8   8   8
#     4   8  17  32  45  62  89 120 153 188 222 269
#     4  10  19  30  47  69  93 121 153 184 227 277
#     4  10  18  29  43  60  89 123 150 182 221 264
#     4   9  17  29  45  63  89 118 149 186 222 262
#     4  11  19  27  43  67  94 123 149 182 228 281
#
# _framework density 24.639061999999999
#
# number of rings (size 3 to 8) (size 9 to 14) (size 15 to 20)
#    1.200    1.200    2.000    2.400    0.000    1.600 
#    0.000    0.000    0.000    0.000    0.000    1.400 
#    0.000    0.000    0.000    0.000    0.000    0.000 
#
# Total GULP energy -223355.616595 kJ/mol
# GULP energy per Si atom -5583.890415 kJ/mol
# Density = 2.458298 g / cm^3
# Si number density = 24.639062 Si / 1000 Ang^3
#
#
#
# Elastic Constant Matrix: (Units=GPa)
#
#
# Indices 1 2 3 4 5 6 
#
# 1 80.3007 -10.6127 8.7479 0.0000 0.0000 0.0000
# 2 -10.6127 44.0866 -7.2250 0.0000 0.0000 0.0000
# 3 8.7479 -7.2250 134.4612 0.0000 0.0000 0.0000
# 4 0.0000 0.0000 0.0000 25.1780 0.0000 0.0000
# 5 0.0000 0.0000 0.0000 0.0000 42.0765 0.0000
# 6 0.0000 0.0000 0.0000 0.0000 0.0000 12.2715
#
#
#
# Elastic Compliance Matrix: (Units=1/GPa)
#
#
# Indices 1 2 3 4 5 6 
#
# 1 0.012924 0.003000 -0.000680 0.000000 0.000000 0.000000
# 2 0.003000 0.023580 0.001072 0.000000 0.000000 0.000000
# 3 -0.000680 0.001072 0.007539 0.000000 0.000000 0.000000
# 4 0.000000 0.000000 0.000000 0.039717 0.000000 0.000000
# 5 0.000000 0.000000 0.000000 0.000000 0.023766 0.000000
# 6 0.000000 0.000000 0.000000 0.000000 0.000000 0.081490
#
#
# Mechanical properties :
#
#
# Convention : Reuss Voigt Hill
#
# Bulk Modulus (GPa) = 19.67467 26.74100 23.20783
# Shear Modulus (GPa) = 25.10360 33.76774 29.43567
#
# Velocity S-wave (km/s) = 3.19541 3.70604 3.46016
# Velocity P-wave (km/s) = 4.64938 5.40274 5.04015
#
# Compressibility (1/GPa) = 0.05082678
#
# Stress axis : x y z
#
# Youngs Moduli (GPa) = 77.37741 42.40814 132.64536
#
# Poissons Ratio (x) = -0.12721 0.09015
# Poissons Ratio (y) = -0.23211 -0.14218
# Poissons Ratio (z) = 0.05259 -0.04546
#
# Static dielectric constant tensor:
#      x y z
#    x 2.130800 0.000000 0.000000 
#    y 0.000000 1.823300 0.000000 
#    z 0.000000 0.000000 2.068800 
# 
# From -- ./inp_files/23465.got.cif
#   From: 2010.05.17/outbox.cif.g08.bks.cpg/sg62_12_cif.got.tgz:23465.got - 2010.06.03 15:25:27.
