data_PCOD9461312
_publ_section_title
;
Structure prediction by ZEFSAII (Michael W. Deem and Ramdas Pophale) SiO2 
 PCOD9461312
Probable space group: P N M A
;
_chemical_formula_sum "Si O2"
_cell_formula_units_Z 32
_cell_length_a 29.858081
_cell_length_b 5.527347
_cell_length_c 6.999851
_cell_angle_alpha 90.000000
_cell_angle_beta 90.000000
_cell_angle_gamma 90.000000
_cell_volume 1155.227231
_symmetry_space_group_name_H-M "P N M A"
_symmetry_group_IT_number 62
_symmetry_cell_setting 'orthorhombic'
loop_
_space_group_symop_operation_xyz
x,y,z
1/2-x,-y,1/2+z
1/2+x,1/2-y,1/2-z
-x,1/2+y,-z
-x,-y,-z
1/2+x,y,1/2-z
1/2-x,1/2+y,1/2+z
x,1/2-y,z
loop_
_atom_site_type_symbol
_atom_site_label
_atom_site_fract_x
_atom_site_fract_y
_atom_site_fract_z
Si Si1 0.557003 0.750000 0.569643
Si Si2 0.163775 0.750000 0.900219
Si Si3 0.560066 0.250000 0.916831
Si Si4 0.290404 0.750000 0.410403
Si Si5 0.161494 0.250000 0.295113
Si Si6 0.315005 0.250000 0.850211
Si Si7 0.074725 0.250000 0.023850
Si Si8 0.457770 0.250000 0.996847
O O1 0.610289 0.750000 0.624106
O O2 0.549768 0.504737 0.452885
O O3 0.532815 0.750000 0.772931
O O4 0.187108 0.499843 0.837923
O O5 0.170424 0.750000 0.128825
O O6 0.581990 0.250000 0.708340
O O7 0.568251 0.499067 0.028120
O O8 0.505747 0.250000 0.896418
O O9 0.297596 0.750000 0.641443
O O10 0.238125 0.750000 0.368137
O O11 0.165918 0.493100 0.417630
O O12 0.119201 0.250000 0.150244
#
# Coordination Sequence:
#
# PCOD9461312 Si02
#       8
#     4   4   4   4   4   4   4   4
#     4  10  14  23  36  46  66  90 110 146 170 189
#     4  10  17  28  38  53  70  89 119 148 174 209
#     4   8  14  20  29  45  62  83 111 138 161 187
#     4  10  18  27  39  52  68  88 113 150 183 209
#     4  10  17  28  38  53  70  89 119 148 174 209
#     4  10  18  27  39  52  68  88 113 150 183 209
#     4  10  14  23  36  46  66  90 110 146 170 189
#     4   8  14  20  29  45  62  83 111 138 161 187
#
# _framework density 27.700178000000001
#
# number of rings (size 3 to 8) (size 9 to 14) (size 15 to 20)
#    0.000    2.500    5.000    0.750    0.000    0.000 
#    0.000    0.000    0.000    0.000    0.000    0.000 
#    0.000    0.000    0.000    0.000    0.000    0.000 
#
# Total GULP energy -179131.812368 kJ/mol
# GULP energy per Si atom -5597.869137 kJ/mol
# Density = 2.763713 g / cm^3
# Si number density = 27.700178 Si / 1000 Ang^3
#
#
#
# Elastic Constant Matrix: (Units=GPa)
#
#
# Indices 1 2 3 4 5 6 
#
# 1 165.4652 55.4213 18.7377 0.0000 0.0000 0.0000
# 2 55.4213 332.4359 4.8346 0.0000 0.0000 0.0000
# 3 18.7377 4.8346 92.4611 0.0000 0.0000 0.0000
# 4 0.0000 0.0000 0.0000 -66.2427 0.0000 0.0000
# 5 0.0000 0.0000 0.0000 0.0000 27.4995 0.0000
# 6 0.0000 0.0000 0.0000 0.0000 0.0000 24.8640
#
#
#
# Elastic Compliance Matrix: (Units=1/GPa)
#
#
# Indices 1 2 3 4 5 6 
#
# 1 0.006547 -0.001073 -0.001271 0.000000 0.000000 0.000000
# 2 -0.001073 0.003186 0.000051 0.000000 0.000000 0.000000
# 3 -0.001271 0.000051 0.011070 0.000000 0.000000 0.000000
# 4 0.000000 0.000000 0.000000 -0.015096 0.000000 0.000000
# 5 0.000000 0.000000 0.000000 0.000000 0.036364 0.000000
# 6 0.000000 0.000000 0.000000 0.000000 0.000000 0.040219
#
#
# Mechanical properties :
#
#
# Convention : Reuss Voigt Hill
#
# Bulk Modulus (GPa) = 61.66089 83.14995 72.40542
# Shear Modulus (GPa) = 54.18190 31.31541 42.74866
#
# Velocity S-wave (km/s) = 4.42748 3.36596 3.93270
# Velocity P-wave (km/s) = 6.96026 6.72229 6.84231
#
# Compressibility (1/GPa) = 0.01621774
#
# Stress axis : x y z
#
# Youngs Moduli (GPa) = 152.74544 313.84996 90.33259
#
# Poissons Ratio (x) = 0.33675 0.11478
# Poissons Ratio (y) = 0.16389 -0.00459
# Poissons Ratio (z) = 0.19409 -0.01596
#
# Static dielectric constant tensor:
#      x y z
#    x 2.036170 0.000000 0.000000 
#    y 0.000000 2.346440 0.000000 
#    z 0.000000 0.000000 2.051200 
# 
# From -- ./inp_files/9979.got.cif
#   From: 2010.05.17/outbox.cif.g08.bks.cpg/sg62_5_cif.got.tgz:9979.got - 2010.06.03 15:25:27.
