data_PCOD9461113
_publ_section_title
;
Structure prediction by ZEFSAII (Michael W. Deem and Ramdas Pophale) SiO2 
 PCOD9461113
Probable space group: P B C A
;
_chemical_formula_sum "Si O2"
_cell_formula_units_Z 40
_cell_length_a 10.156323
_cell_length_b 9.794992
_cell_length_c 17.473974
_cell_angle_alpha 90.000000
_cell_angle_beta 90.000000
_cell_angle_gamma 90.000000
_cell_volume 1738.330199
_symmetry_space_group_name_H-M "P B C A"
_symmetry_group_IT_number 61
_symmetry_cell_setting 'orthorhombic'
loop_
_space_group_symop_operation_xyz
x,y,z
1/2-x,-y,1/2+z
1/2+x,1/2-y,-z
-x,1/2+y,1/2-z
-x,-y,-z
1/2+x,y,1/2-z
1/2-x,1/2+y,z
x,1/2-y,1/2+z
loop_
_atom_site_type_symbol
_atom_site_label
_atom_site_fract_x
_atom_site_fract_y
_atom_site_fract_z
Si Si1 0.807326 0.054644 0.516144
Si Si2 0.930877 0.949259 0.659649
Si Si3 0.070650 0.142163 0.885496
Si Si4 0.691280 0.041100 0.768488
Si Si5 0.720228 0.677917 0.914935
O O1 0.906241 0.054704 0.588940
O O2 0.667320 0.067150 0.557468
O O3 0.807013 0.178979 0.456335
O O4 0.810280 0.915034 0.469095
O O5 0.823699 0.980581 0.727553
O O6 0.081764 0.947259 0.689056
O O7 0.903248 0.803756 0.620683
O O8 0.105408 0.094777 0.801136
O O9 0.922797 0.110378 0.907738
O O10 0.724904 0.161607 0.828817
#
# Coordination Sequence:
#
# PCOD9461113 Si02
#       5
#     8   8   8   8   8
#     4  11  26  46  72 105 146 186 239 299 357 422
#     4  11  25  48  72 106 146 188 240 294 360 426
#     4  11  25  46  70 105 142 190 238 292 359 424
#     4  11  26  44  71 107 142 189 235 298 351 432
#     4  12  25  46  72 106 140 191 239 295 357 424
#
# _framework density 23.010587999999998
#
# number of rings (size 3 to 8) (size 9 to 14) (size 15 to 20)
#    0.000    0.800    4.000    1.800    8.400    1.600 
#    0.000    0.000    0.000    0.000    0.000    0.000 
#    0.000    0.000    0.000    0.000    0.000    0.000 
#
# Total GULP energy -223302.999513 kJ/mol
# GULP energy per Si atom -5582.574988 kJ/mol
# Density = 2.295822 g / cm^3
# Si number density = 23.010588 Si / 1000 Ang^3
#
#
#
# Elastic Constant Matrix: (Units=GPa)
#
#
# Indices 1 2 3 4 5 6 
#
# 1 106.2191 -7.2014 42.7069 0.0000 0.0000 0.0000
# 2 -7.2014 51.7361 28.2517 0.0000 0.0000 0.0000
# 3 42.7069 28.2517 161.1383 0.0000 0.0000 0.0000
# 4 0.0000 0.0000 0.0000 24.6444 0.0000 0.0000
# 5 0.0000 0.0000 0.0000 0.0000 20.9363 0.0000
# 6 0.0000 0.0000 0.0000 0.0000 0.0000 24.5594
#
#
#
# Elastic Compliance Matrix: (Units=1/GPa)
#
#
# Indices 1 2 3 4 5 6 
#
# 1 0.011076 0.003478 -0.003545 0.000000 0.000000 0.000000
# 2 0.003478 0.022467 -0.004861 0.000000 0.000000 0.000000
# 3 -0.003545 -0.004861 0.007998 0.000000 0.000000 0.000000
# 4 0.000000 0.000000 0.000000 0.040577 0.000000 0.000000
# 5 0.000000 0.000000 0.000000 0.000000 0.047764 0.000000
# 6 0.000000 0.000000 0.000000 0.000000 0.000000 0.040718
#
#
# Mechanical properties :
#
#
# Convention : Reuss Voigt Hill
#
# Bulk Modulus (GPa) = 31.56177 49.62312 40.59244
# Shear Modulus (GPa) = 26.17567 31.05044 28.61305
#
# Velocity S-wave (km/s) = 3.37642 3.67740 3.53012
# Velocity P-wave (km/s) = 5.38017 6.29628 5.85617
#
# Compressibility (1/GPa) = 0.03168390
#
# Stress axis : x y z
#
# Youngs Moduli (GPa) = 90.28825 44.50924 125.03688
#
# Poissons Ratio (x) = -0.15478 0.44327
# Poissons Ratio (y) = -0.31398 0.60777
# Poissons Ratio (z) = 0.32008 0.21635
#
# Static dielectric constant tensor:
#      x y z
#    x 1.845640 0.000000 0.000000 
#    y 0.000000 1.897890 0.000000 
#    z 0.000000 0.000000 1.893310 
# 
# From -- ./inp_files/3291.got.cif
#   From: 2010.05.17/outbox.cif.g08.bks.cpg/sg61_2_cif.got.tgz:3291.got - 2010.06.03 15:17:17.
