data_PCOD9461117
_publ_section_title
;
Structure prediction by ZEFSAII (Michael W. Deem and Ramdas Pophale) SiO2 
 PCOD9461117
Probable space group: P B C A
;
_chemical_formula_sum "Si O2"
_cell_formula_units_Z 40
_cell_length_a 22.096382
_cell_length_b 7.631631
_cell_length_c 8.653009
_cell_angle_alpha 90.000000
_cell_angle_beta 90.000000
_cell_angle_gamma 90.000000
_cell_volume 1459.169315
_symmetry_space_group_name_H-M "P B C A"
_symmetry_group_IT_number 61
_symmetry_cell_setting 'orthorhombic'
loop_
_space_group_symop_operation_xyz
x,y,z
1/2-x,-y,1/2+z
1/2+x,1/2-y,-z
-x,1/2+y,1/2-z
-x,-y,-z
1/2+x,y,1/2-z
1/2-x,1/2+y,z
x,1/2-y,1/2+z
loop_
_atom_site_type_symbol
_atom_site_label
_atom_site_fract_x
_atom_site_fract_y
_atom_site_fract_z
Si Si1 0.557408 0.905111 0.346585
Si Si2 0.479344 0.715409 0.575837
Si Si3 0.287154 0.672531 0.922303
Si Si4 0.874173 0.487716 0.062445
Si Si5 0.202601 0.865005 0.703251
O O1 0.540052 0.783743 0.490613
O O2 0.498595 0.865994 0.238714
O O3 0.557801 0.105851 0.400375
O O4 0.612647 0.896806 0.226563
O O5 0.437384 0.581494 0.484656
O O6 0.327257 0.847506 0.931105
O O7 0.228757 0.720076 0.818293
O O8 0.316514 0.519442 0.821654
O O9 0.262012 0.610666 0.088408
O O10 0.849382 0.366339 0.925162
#
# Coordination Sequence:
#
# PCOD9461117 Si02
#       5
#     8   8   8   8   8
#     4  11  25  46  74 107 141 188 244 296 357 439
#     4  11  25  48  74 105 145 187 244 298 357 440
#     4  12  25  48  72 108 145 190 244 302 356 444
#     4  12  25  46  79 102 147 194 237 299 383 402
#     4  12  25  46  75 104 146 188 246 298 360 436
#
# _framework density 27.412858
#
# number of rings (size 3 to 8) (size 9 to 14) (size 15 to 20)
#    0.000    0.400    6.000    1.800    0.000    1.600 
#    0.000    0.000    0.000    0.000    0.000    0.000 
#    0.000    0.000    0.000    0.000    0.000    0.000 
#
# Total GULP energy -223984.460429 kJ/mol
# GULP energy per Si atom -5599.611511 kJ/mol
# Density = 2.735046 g / cm^3
# Si number density = 27.412858 Si / 1000 Ang^3
#
#
#
# Elastic Constant Matrix: (Units=GPa)
#
#
# Indices 1 2 3 4 5 6 
#
# 1 63.8145 -11.4757 -19.0996 0.0000 0.0000 0.0000
# 2 -11.4757 88.3800 44.1366 0.0000 0.0000 0.0000
# 3 -19.0996 44.1366 121.2781 0.0000 0.0000 0.0000
# 4 0.0000 0.0000 0.0000 72.5078 0.0000 0.0000
# 5 0.0000 0.0000 0.0000 0.0000 30.2095 0.0000
# 6 0.0000 0.0000 0.0000 0.0000 0.0000 31.9801
#
#
#
# Elastic Compliance Matrix: (Units=1/GPa)
#
#
# Indices 1 2 3 4 5 6 
#
# 1 0.016523 0.001034 0.002226 0.000000 0.000000 0.000000
# 2 0.001034 0.013893 -0.004893 0.000000 0.000000 0.000000
# 3 0.002226 -0.004893 0.010377 0.000000 0.000000 0.000000
# 4 0.000000 0.000000 0.000000 0.013792 0.000000 0.000000
# 5 0.000000 0.000000 0.000000 0.000000 0.033102 0.000000
# 6 0.000000 0.000000 0.000000 0.000000 0.000000 0.031269
#
#
# Mechanical properties :
#
#
# Convention : Reuss Voigt Hill
#
# Bulk Modulus (GPa) = 26.64894 33.39946 30.02420
# Shear Modulus (GPa) = 37.11114 44.26691 40.68903
#
# Velocity S-wave (km/s) = 3.68337 4.02285 3.85685
# Velocity P-wave (km/s) = 5.27561 5.81275 5.55068
#
# Compressibility (1/GPa) = 0.03752495
#
# Stress axis : x y z
#
# Youngs Moduli (GPa) = 60.52350 71.98072 96.36887
#
# Poissons Ratio (x) = -0.07441 -0.21450
# Poissons Ratio (y) = -0.06257 0.47154
# Poissons Ratio (z) = -0.13472 0.35221
#
# Static dielectric constant tensor:
#      x y z
#    x 2.218220 0.000000 0.000000 
#    y 0.000000 2.151750 0.000000 
#    z 0.000000 0.000000 2.025790 
# 
# From -- ./inp_files/1744.got.cif
#   From: 2010.05.17/outbox.cif.g08.bks.cpg/sg61_1_cif.got.tgz:1744.got - 2010.06.03 15:17:17.
