data_PCOD9461651
_publ_section_title
;
Structure prediction by ZEFSAII (Michael W. Deem and Ramdas Pophale) SiO2 
 PCOD9461651
Probable space group: P N M A
;
_chemical_formula_sum "Si O2"
_cell_formula_units_Z 40
_cell_length_a 13.997078
_cell_length_b 7.469392
_cell_length_c 18.738596
_cell_angle_alpha 90.000000
_cell_angle_beta 90.000000
_cell_angle_gamma 90.000000
_cell_volume 1959.113886
_symmetry_space_group_name_H-M "P N M A"
_symmetry_group_IT_number 62
_symmetry_cell_setting 'orthorhombic'
loop_
_space_group_symop_operation_xyz
x,y,z
1/2-x,-y,1/2+z
1/2+x,1/2-y,1/2-z
-x,1/2+y,-z
-x,-y,-z
1/2+x,y,1/2-z
1/2-x,1/2+y,1/2+z
x,1/2-y,z
loop_
_atom_site_type_symbol
_atom_site_label
_atom_site_fract_x
_atom_site_fract_y
_atom_site_fract_z
Si Si1 0.801318 0.466411 0.531049
Si Si2 0.414060 0.959443 0.826719
Si Si3 0.396649 0.963587 0.531714
Si Si4 0.680873 0.468876 0.317905
Si Si5 0.117319 0.968548 0.620069
O O1 0.802114 0.250000 0.532483
O O2 0.845718 0.527982 0.604898
O O3 0.692815 0.528037 0.515809
O O4 0.863065 0.523275 0.461864
O O5 0.430762 0.750000 0.811559
O O6 0.363957 0.033914 0.755939
O O7 0.517360 0.034628 0.848755
O O8 0.386180 0.750000 0.534613
O O9 0.379927 0.026560 0.612815
O O10 0.500000 0.000000 0.500000
O O11 0.681645 0.250000 0.316369
O O12 0.790217 0.522144 0.333783
O O13 0.115511 0.750000 0.619139
#
# Coordination Sequence:
#
# PCOD9461651 Si02
#       5
#     8   8   8   8   8
#     4   9  18  32  47  65  95 128 151 181 234 286
#     4  10  18  28  49  75  91 114 158 199 225 263
#     4   9  18  33  51  69  93 127 160 191 233 281
#     4   8  16  30  46  68  97 123 149 189 238 277
#     4   8  15  29  46  65  93 124 150 182 228 277
#
# _framework density 20.417393000000001
#
# number of rings (size 3 to 8) (size 9 to 14) (size 15 to 20)
#    0.000    3.200    0.000    3.000    0.000    2.400 
#    0.000    5.000    0.000    3.600    0.000    0.000 
#    0.000    0.000    0.000    0.000    0.000    0.000 
#
# Total GULP energy -223130.524540 kJ/mol
# GULP energy per Si atom -5578.263114 kJ/mol
# Density = 2.037092 g / cm^3
# Si number density = 20.417393 Si / 1000 Ang^3
#
#
#
# Elastic Constant Matrix: (Units=GPa)
#
#
# Indices 1 2 3 4 5 6 
#
# 1 173.7012 -6.0295 136.0024 0.0000 0.0000 0.0000
# 2 -6.0295 53.1999 -5.0222 0.0000 0.0000 0.0000
# 3 136.0024 -5.0222 177.5869 0.0000 0.0000 0.0000
# 4 0.0000 0.0000 0.0000 13.3932 0.0000 0.0000
# 5 0.0000 0.0000 0.0000 0.0000 25.9360 0.0000
# 6 0.0000 0.0000 0.0000 0.0000 0.0000 11.6920
#
#
#
# Elastic Compliance Matrix: (Units=1/GPa)
#
#
# Indices 1 2 3 4 5 6 
#
# 1 0.014398 0.000592 -0.011009 0.000000 0.000000 0.000000
# 2 0.000592 0.018872 0.000080 0.000000 0.000000 0.000000
# 3 -0.011009 0.000080 0.014065 0.000000 0.000000 0.000000
# 4 0.000000 0.000000 0.000000 0.074665 0.000000 0.000000
# 5 0.000000 0.000000 0.000000 0.000000 0.038556 0.000000
# 6 0.000000 0.000000 0.000000 0.000000 0.000000 0.085528
#
#
# Mechanical properties :
#
#
# Convention : Reuss Voigt Hill
#
# Bulk Modulus (GPa) = 37.50932 72.70993 55.10963
# Shear Modulus (GPa) = 18.13931 28.84006 23.48969
#
# Velocity S-wave (km/s) = 2.98388 3.76243 3.39554
# Velocity P-wave (km/s) = 5.50296 7.38672 6.51330
#
# Compressibility (1/GPa) = 0.02666004
#
# Stress axis : x y z
#
# Youngs Moduli (GPa) = 69.45582 52.98931 71.09966
#
# Poissons Ratio (x) = -0.03139 0.78277
# Poissons Ratio (y) = -0.04115 -0.00569
# Poissons Ratio (z) = 0.76467 -0.00424
#
# Static dielectric constant tensor:
#      x y z
#    x 1.719140 0.000000 0.000000 
#    y 0.000000 1.797830 0.000000 
#    z 0.000000 0.000000 1.693760 
# 
# From -- ./inp_files/17791.got.cif
#   From: 2010.05.17/outbox.cif.g08.bks.cpg/sg62_9_cif.got.tgz:17791.got - 2010.06.03 15:25:27.
