data_PCOD9461728
_publ_section_title
;
Structure prediction by ZEFSAII (Michael W. Deem and Ramdas Pophale) SiO2 
 PCOD9461728
Probable space group: P N M A
;
_chemical_formula_sum "Si O2"
_cell_formula_units_Z 40
_cell_length_a 21.605425
_cell_length_b 8.530633
_cell_length_c 13.011196
_cell_angle_alpha 90.000000
_cell_angle_beta 90.000000
_cell_angle_gamma 90.000000
_cell_volume 2398.066881
_symmetry_space_group_name_H-M "P N M A"
_symmetry_group_IT_number 62
_symmetry_cell_setting 'orthorhombic'
loop_
_space_group_symop_operation_xyz
x,y,z
1/2-x,-y,1/2+z
1/2+x,1/2-y,1/2-z
-x,1/2+y,-z
-x,-y,-z
1/2+x,y,1/2-z
1/2-x,1/2+y,1/2+z
x,1/2-y,z
loop_
_atom_site_type_symbol
_atom_site_label
_atom_site_fract_x
_atom_site_fract_y
_atom_site_fract_z
Si Si1 0.069335 0.439224 0.505007
Si Si2 0.301188 0.437185 0.621651
Si Si3 0.697849 0.062631 0.598617
Si Si4 0.661464 0.059502 0.819471
Si Si5 0.831807 0.937402 0.664550
O O1 0.067893 0.250000 0.507629
O O2 0.106948 0.494648 0.606045
O O3 0.110617 0.485144 0.406314
O O4 0.000000 0.500000 0.500000
O O5 0.303798 0.250000 0.631583
O O6 0.321872 0.488234 0.508852
O O7 0.228863 0.485916 0.635837
O O8 0.337239 0.513219 0.716829
O O9 0.694231 0.250000 0.591008
O O10 0.660320 0.010391 0.700344
O O11 0.768874 0.014854 0.621978
O O12 0.660618 0.250000 0.820389
O O13 0.824541 0.750000 0.656523
#
# Coordination Sequence:
#
# PCOD9461728 Si02
#       5
#     8   8   8   8   8
#     4  10  20  35  52  71 101 136 169 209 250 296
#     4  10  18  31  50  73 104 133 162 206 256 304
#     4  10  18  29  50  76 102 132 164 202 255 310
#     4   8  16  31  47  68 100 132 160 198 251 297
#     4  10  19  32  49  72 103 134 167 208 254 300
#
# _framework density 16.680102000000002
#
# number of rings (size 3 to 8) (size 9 to 14) (size 15 to 20)
#    0.000    2.400    2.000    3.000    0.000    1.600 
#    0.000    2.000    0.000    1.200    0.000    0.000 
#    0.000    0.000    0.000    0.000    0.000    0.000 
#
# Total GULP energy -223005.642113 kJ/mol
# GULP energy per Si atom -5575.141053 kJ/mol
# Density = 1.664214 g / cm^3
# Si number density = 16.680102 Si / 1000 Ang^3
#
#
#
# Elastic Constant Matrix: (Units=GPa)
#
#
# Indices 1 2 3 4 5 6 
#
# 1 88.0992 8.6329 57.0267 0.0000 0.0000 0.0000
# 2 8.6329 17.5393 7.7343 0.0000 0.0000 0.0000
# 3 57.0267 7.7343 147.1414 0.0000 0.0000 0.0000
# 4 0.0000 0.0000 0.0000 27.1896 0.0000 0.0000
# 5 0.0000 0.0000 0.0000 0.0000 19.6868 0.0000
# 6 0.0000 0.0000 0.0000 0.0000 0.0000 21.8327
#
#
#
# Elastic Compliance Matrix: (Units=1/GPa)
#
#
# Indices 1 2 3 4 5 6 
#
# 1 0.015590 -0.005128 -0.005773 0.000000 0.000000 0.000000
# 2 -0.005128 0.060054 -0.001169 0.000000 0.000000 0.000000
# 3 -0.005773 -0.001169 0.009095 0.000000 0.000000 0.000000
# 4 0.000000 0.000000 0.000000 0.036779 0.000000 0.000000
# 5 0.000000 0.000000 0.000000 0.000000 0.050795 0.000000
# 6 0.000000 0.000000 0.000000 0.000000 0.000000 0.045803
#
#
# Mechanical properties :
#
#
# Convention : Reuss Voigt Hill
#
# Bulk Modulus (GPa) = 16.50171 44.39641 30.44906
# Shear Modulus (GPa) = 19.05086 25.70091 22.37589
#
# Velocity S-wave (km/s) = 3.38321 3.92958 3.66658
# Velocity P-wave (km/s) = 5.01757 6.87480 6.01826
#
# Compressibility (1/GPa) = 0.06059976
#
# Stress axis : x y z
#
# Youngs Moduli (GPa) = 64.14413 16.65157 109.95204
#
# Poissons Ratio (x) = 0.08539 0.63470
# Poissons Ratio (y) = 0.32892 0.12857
# Poissons Ratio (z) = 0.37027 0.01947
#
# Static dielectric constant tensor:
#      x y z
#    x 1.525480 0.000000 0.000000 
#    y 0.000000 1.569810 0.000000 
#    z 0.000000 0.000000 1.594460 
# 
# From -- ./inp_files/13863.got.cif
#   From: 2010.05.17/outbox.cif.g08.bks.cpg/sg62_7_cif.got.tgz:13863.got - 2010.06.03 15:25:27.
