data_PCOD9461026
_publ_section_title
;
Structure prediction by ZEFSAII (Michael W. Deem and Ramdas Pophale) SiO2 
 PCOD9461026
Probable space group: P B C A
;
_chemical_formula_sum "Si O2"
_cell_formula_units_Z 48
_cell_length_a 16.098962
_cell_length_b 14.582454
_cell_length_c 9.247298
_cell_angle_alpha 90.000000
_cell_angle_beta 90.000000
_cell_angle_gamma 90.000000
_cell_volume 2170.917621
_symmetry_space_group_name_H-M "P B C A"
_symmetry_group_IT_number 61
_symmetry_cell_setting 'orthorhombic'
loop_
_space_group_symop_operation_xyz
x,y,z
1/2-x,-y,1/2+z
1/2+x,1/2-y,-z
-x,1/2+y,1/2-z
-x,-y,-z
1/2+x,y,1/2-z
1/2-x,1/2+y,z
x,1/2-y,1/2+z
loop_
_atom_site_type_symbol
_atom_site_label
_atom_site_fract_x
_atom_site_fract_y
_atom_site_fract_z
Si Si1 0.993691 0.070074 0.866216
Si Si2 0.465054 0.739731 0.497366
Si Si3 0.239892 0.948082 0.593245
Si Si4 0.566453 0.931915 0.072560
Si Si5 0.320323 0.907262 0.299694
Si Si6 0.843472 0.799519 0.747623
O O1 0.988369 0.174176 0.924553
O O2 0.082094 0.072466 0.782121
O O3 0.927021 0.043912 0.743451
O O4 0.000000 0.000000 0.000000
O O5 0.528877 0.670134 0.567017
O O6 0.407282 0.683314 0.384060
O O7 0.402101 0.781854 0.614102
O O8 0.150554 0.929770 0.519422
O O9 0.299936 0.947251 0.456393
O O10 0.274901 0.873356 0.707271
O O11 0.230400 0.042852 0.676254
O O12 0.500000 0.000000 0.000000
O O13 0.304754 0.798970 0.293979
#
# Coordination Sequence:
#
# PCOD9461026 Si02
#       6
#     8   8   8   8   8   8
#     4  11  25  46  71 102 137 183 231 282 357 416
#     4  11  23  47  71  94 142 185 225 284 345 415
#     4  12  27  43  73 103 137 183 232 289 344 418
#     4  12  26  45  69 105 141 180 236 289 346 412
#     4  11  26  47  67 106 137 182 231 286 350 409
#     4  11  23  47  70  97 137 186 230 273 354 412
#
# _framework density 22.110468000000001
#
# number of rings (size 3 to 8) (size 9 to 14) (size 15 to 20)
#    0.000    0.667    8.333    0.000    9.333    1.333 
#    3.000    0.000    0.000    0.000    0.000    0.000 
#    0.000    0.000    0.000    0.000    0.000    0.000 
#
# Total GULP energy -268407.448656 kJ/mol
# GULP energy per Si atom -5591.821847 kJ/mol
# Density = 2.206014 g / cm^3
# Si number density = 22.110468 Si / 1000 Ang^3
#
#
#
# Elastic Constant Matrix: (Units=GPa)
#
#
# Indices 1 2 3 4 5 6 
#
# 1 61.2033 8.4753 -3.5638 0.0000 0.0000 0.0000
# 2 8.4753 66.8057 7.6804 0.0000 0.0000 0.0000
# 3 -3.5638 7.6804 90.0482 0.0000 0.0000 0.0000
# 4 0.0000 0.0000 0.0000 42.7370 0.0000 0.0000
# 5 0.0000 0.0000 0.0000 0.0000 42.2995 0.0000
# 6 0.0000 0.0000 0.0000 0.0000 0.0000 25.6112
#
#
#
# Elastic Compliance Matrix: (Units=1/GPa)
#
#
# Indices 1 2 3 4 5 6 
#
# 1 0.016695 -0.002216 0.000850 0.000000 0.000000 0.000000
# 2 -0.002216 0.015411 -0.001402 0.000000 0.000000 0.000000
# 3 0.000850 -0.001402 0.011258 0.000000 0.000000 0.000000
# 4 0.000000 0.000000 0.000000 0.023399 0.000000 0.000000
# 5 0.000000 0.000000 0.000000 0.000000 0.023641 0.000000
# 6 0.000000 0.000000 0.000000 0.000000 0.000000 0.039045
#
#
# Mechanical properties :
#
#
# Convention : Reuss Voigt Hill
#
# Bulk Modulus (GPa) = 26.43509 27.02675 26.73092
# Shear Modulus (GPa) = 33.87631 35.82723 34.85177
#
# Velocity S-wave (km/s) = 3.91850 4.02975 3.97452
# Velocity P-wave (km/s) = 5.69691 5.82254 5.76006
#
# Compressibility (1/GPa) = 0.03782851
#
# Stress axis : x y z
#
# Youngs Moduli (GPa) = 59.89712 64.88843 88.82267
#
# Poissons Ratio (x) = 0.14377 -0.07548
# Poissons Ratio (y) = 0.13272 0.12454
# Poissons Ratio (z) = -0.05090 0.09098
#
# Static dielectric constant tensor:
#      x y z
#    x 1.845250 0.000000 0.000000 
#    y 0.000000 1.809240 0.000000 
#    z 0.000000 0.000000 1.843070 
# 
# From -- ./inp_files/3447.got.cif
#   From: 2010.05.17/outbox.cif.g08.bks.cpg/sg61_2_cif.got.tgz:3447.got - 2010.06.03 15:17:17.
