data_PCOD9461933
_publ_section_title
;
Structure prediction by ZEFSAII (Michael W. Deem and Ramdas Pophale) SiO2 
 PCOD9461933
Probable space group: P N M A
;
_chemical_formula_sum "Si O2"
_cell_formula_units_Z 40
_cell_length_a 26.673773
_cell_length_b 8.682849
_cell_length_c 9.198352
_cell_angle_alpha 90.000000
_cell_angle_beta 90.000000
_cell_angle_gamma 90.000000
_cell_volume 2130.378274
_symmetry_space_group_name_H-M "P N M A"
_symmetry_group_IT_number 62
_symmetry_cell_setting 'orthorhombic'
loop_
_space_group_symop_operation_xyz
x,y,z
1/2-x,-y,1/2+z
1/2+x,1/2-y,1/2-z
-x,1/2+y,-z
-x,-y,-z
1/2+x,y,1/2-z
1/2-x,1/2+y,1/2+z
x,1/2-y,z
loop_
_atom_site_type_symbol
_atom_site_label
_atom_site_fract_x
_atom_site_fract_y
_atom_site_fract_z
Si Si1 0.394106 0.933212 0.651343
Si Si2 0.601081 0.934530 0.674815
Si Si3 0.297374 0.065180 0.156854
Si Si4 0.002434 0.933865 0.164660
Si Si5 0.299045 0.066550 0.816456
O O1 0.398712 0.750000 0.641487
O O2 0.390221 0.001305 0.487969
O O3 0.444821 0.002341 0.722102
O O4 0.345271 0.982111 0.739714
O O5 0.595920 0.750000 0.666612
O O6 0.649074 0.973305 0.772208
O O7 0.549047 0.005135 0.733610
O O8 0.290350 0.250000 0.171223
O O9 0.252469 0.981898 0.239808
O O10 0.296639 0.026828 0.986688
O O11 0.003014 0.750000 0.161402
O O12 0.000000 0.000000 0.000000
O O13 0.306426 0.250000 0.803086
#
# Coordination Sequence:
#
# PCOD9461933 Si02
#       5
#     8   8   8   8   8
#     4  11  21  35  56  83 113 146 186 227 272 324
#     4  10  19  35  58  84 114 147 184 226 273 322
#     4  10  23  40  58  82 111 144 182 225 274 329
#     4  10  18  31  53  82 113 146 185 225 270 321
#     4  11  23  39  58  81 110 143 182 227 274 326
#
# _framework density 18.776008999999998
#
# number of rings (size 3 to 8) (size 9 to 14) (size 15 to 20)
#    0.000    1.600    0.000    8.400    0.000    6.400 
#    0.000    1.000    0.000    0.000    0.000    0.000 
#    0.000    0.000    0.000    0.000    0.000    0.000 
#
# Total GULP energy -223484.167467 kJ/mol
# GULP energy per Si atom -5587.104187 kJ/mol
# Density = 1.873327 g / cm^3
# Si number density = 18.776009 Si / 1000 Ang^3
#
#
#
# Elastic Constant Matrix: (Units=GPa)
#
#
# Indices 1 2 3 4 5 6 
#
# 1 210.0034 102.2449 80.2350 0.0000 0.0000 0.0000
# 2 102.2449 132.3956 57.2182 0.0000 0.0000 0.0000
# 3 80.2350 57.2182 88.6283 0.0000 0.0000 0.0000
# 4 0.0000 0.0000 0.0000 20.4611 0.0000 0.0000
# 5 0.0000 0.0000 0.0000 0.0000 27.0908 0.0000
# 6 0.0000 0.0000 0.0000 0.0000 0.0000 16.1923
#
#
#
# Elastic Compliance Matrix: (Units=1/GPa)
#
#
# Indices 1 2 3 4 5 6 
#
# 1 0.009033 -0.004774 -0.005096 0.000000 0.000000 0.000000
# 2 -0.004774 0.012999 -0.004070 0.000000 0.000000 0.000000
# 3 -0.005096 -0.004070 0.018524 0.000000 0.000000 0.000000
# 4 0.000000 0.000000 0.000000 0.048873 0.000000 0.000000
# 5 0.000000 0.000000 0.000000 0.000000 0.036913 0.000000
# 6 0.000000 0.000000 0.000000 0.000000 0.000000 0.061758
#
#
# Mechanical properties :
#
#
# Convention : Reuss Voigt Hill
#
# Bulk Modulus (GPa) = 78.88727 101.15817 90.02272
# Shear Modulus (GPa) = 22.70623 25.50412 24.10518
#
# Velocity S-wave (km/s) = 3.48130 3.68956 3.58694
# Velocity P-wave (km/s) = 7.63318 8.49375 8.07493
#
# Compressibility (1/GPa) = 0.01267632
#
# Stress axis : x y z
#
# Youngs Moduli (GPa) = 110.70804 76.93058 53.98410
#
# Poissons Ratio (x) = 0.36723 0.27508
# Poissons Ratio (y) = 0.52847 0.21974
# Poissons Ratio (z) = 0.56412 0.31314
#
# Static dielectric constant tensor:
#      x y z
#    x 1.669380 0.000000 0.000000 
#    y 0.000000 1.613050 0.000000 
#    z 0.000000 0.000000 1.631600 
# 
# From -- ./inp_files/9111.got.cif
#   From: 2010.05.17/outbox.cif.g08.bks.cpg/sg62_5_cif.got.tgz:9111.got - 2010.06.03 15:25:27.
