data_PCOD9461434
_publ_section_title
;
Structure prediction by ZEFSAII (Michael W. Deem and Ramdas Pophale) SiO2 
 PCOD9461434
Probable space group: P N M A
;
_chemical_formula_sum "Si O2"
_cell_formula_units_Z 64
_cell_length_a 17.436180
_cell_length_b 16.847901
_cell_length_c 9.457631
_cell_angle_alpha 90.000000
_cell_angle_beta 90.000000
_cell_angle_gamma 90.000000
_cell_volume 2778.302381
_symmetry_space_group_name_H-M "P N M A"
_symmetry_group_IT_number 62
_symmetry_cell_setting 'orthorhombic'
loop_
_space_group_symop_operation_xyz
x,y,z
1/2-x,-y,1/2+z
1/2+x,1/2-y,1/2-z
-x,1/2+y,-z
-x,-y,-z
1/2+x,y,1/2-z
1/2-x,1/2+y,1/2+z
x,1/2-y,z
loop_
_atom_site_type_symbol
_atom_site_label
_atom_site_fract_x
_atom_site_fract_y
_atom_site_fract_z
Si Si1 0.527395 0.335981 0.324548
Si Si2 0.442628 0.495987 0.658295
Si Si3 0.552329 0.114810 0.803209
Si Si4 0.210116 0.337254 0.146683
Si Si5 0.724471 0.984935 0.372115
Si Si6 0.437154 0.167500 0.028834
Si Si7 0.216982 0.337720 0.806713
Si Si8 0.372677 0.001303 0.972653
O O1 0.506826 0.250000 0.393121
O O2 0.513759 0.423851 0.386261
O O3 0.619908 0.334914 0.312362
O O4 0.484410 0.337194 0.174123
O O5 0.500414 0.424449 0.683131
O O6 0.363445 0.482461 0.575496
O O7 0.407843 0.510909 0.818094
O O8 0.628816 0.154148 0.744728
O O9 0.578232 0.045227 0.910609
O O10 0.497680 0.166440 0.901424
O O11 0.241134 0.250000 0.194841
O O12 0.238891 0.425540 0.189679
O O13 0.214981 0.340507 0.976111
O O14 0.738817 0.912300 0.263161
O O15 0.786317 0.974821 0.496348
O O16 0.393027 0.250000 0.026474
O O17 0.383006 0.093471 0.007096
O O18 0.246233 0.250000 0.763242
#
# Coordination Sequence:
#
# PCOD9461434 Si02
#       8
#     8   8   8   8   8   8   8   8
#     4   9  16  28  50  78 104 135 177 226 280 339
#     4  10  17  33  52  75 107 143 180 233 280 331
#     4  10  18  32  53  79 106 136 184 235 288 334
#     4   9  19  36  56  79 111 153 195 228 283 351
#     4  10  21  33  55  79 113 153 192 230 284 341
#     4  10  17  28  50  81 106 132 177 235 288 331
#     4  10  21  38  57  81 114 153 194 240 290 352
#     4  10  18  31  48  73 107 140 172 226 281 332
#
# _framework density 23.03565
#
# number of rings (size 3 to 8) (size 9 to 14) (size 15 to 20)
#    0.000    2.250    2.500    1.875    0.000    0.500 
#    0.000    6.875    2.750    0.000    0.000    0.000 
#    0.000    0.000    0.000    0.000    0.000    0.000 
#
# Total GULP energy -357169.461873 kJ/mol
# GULP energy per Si atom -5580.772842 kJ/mol
# Density = 2.298322 g / cm^3
# Si number density = 23.035650 Si / 1000 Ang^3
#
#
#
# Elastic Constant Matrix: (Units=GPa)
#
#
# Indices 1 2 3 4 5 6 
#
# 1 60.2031 0.0410 13.1138 0.0000 0.0000 0.0000
# 2 0.0410 129.3078 10.8760 0.0000 0.0000 0.0000
# 3 13.1138 10.8760 81.2047 0.0000 0.0000 0.0000
# 4 0.0000 0.0000 0.0000 22.2447 0.0000 0.0000
# 5 0.0000 0.0000 0.0000 0.0000 29.6854 0.0000
# 6 0.0000 0.0000 0.0000 0.0000 0.0000 12.7887
#
#
#
# Elastic Compliance Matrix: (Units=1/GPa)
#
#
# Indices 1 2 3 4 5 6 
#
# 1 0.017223 0.000231 -0.002812 0.000000 0.000000 0.000000
# 2 0.000231 0.007825 -0.001085 0.000000 0.000000 0.000000
# 3 -0.002812 -0.001085 0.012914 0.000000 0.000000 0.000000
# 4 0.000000 0.000000 0.000000 0.044955 0.000000 0.000000
# 5 0.000000 0.000000 0.000000 0.000000 0.033687 0.000000
# 6 0.000000 0.000000 0.000000 0.000000 0.000000 0.078194
#
#
# Mechanical properties :
#
#
# Convention : Reuss Voigt Hill
#
# Bulk Modulus (GPa) = 32.64920 35.41970 34.03445
# Shear Modulus (GPa) = 23.54719 29.38940 26.46829
#
# Velocity S-wave (km/s) = 3.20066 3.57574 3.39339
# Velocity P-wave (km/s) = 5.27855 5.69713 5.49183
#
# Compressibility (1/GPa) = 0.03062862
#
# Stress axis : x y z
#
# Youngs Moduli (GPa) = 58.06236 127.80050 77.43492
#
# Poissons Ratio (x) = -0.02953 0.21777
# Poissons Ratio (y) = -0.01342 0.08404
# Poissons Ratio (z) = 0.16329 0.13870
#
# Static dielectric constant tensor:
#      x y z
#    x 1.878020 0.000000 0.000000 
#    y 0.000000 2.102710 0.000000 
#    z 0.000000 0.000000 1.858680 
# 
# From -- ./inp_files/14427.got.cif
#   From: 2010.05.17/outbox.cif.g08.bks.cpg/sg62_8_cif.got.tgz:14427.got - 2010.06.03 15:25:27.
