data_PCOD9461528
_publ_section_title
;
Structure prediction by ZEFSAII (Michael W. Deem and Ramdas Pophale) SiO2 
 PCOD9461528
Probable space group: P N M A
;
_chemical_formula_sum "Si O2"
_cell_formula_units_Z 64
_cell_length_a 15.516427
_cell_length_b 23.036976
_cell_length_c 8.980325
_cell_angle_alpha 90.000000
_cell_angle_beta 90.000000
_cell_angle_gamma 90.000000
_cell_volume 3210.031148
_symmetry_space_group_name_H-M "P N M A"
_symmetry_group_IT_number 62
_symmetry_cell_setting 'orthorhombic'
loop_
_space_group_symop_operation_xyz
x,y,z
1/2-x,-y,1/2+z
1/2+x,1/2-y,1/2-z
-x,1/2+y,-z
-x,-y,-z
1/2+x,y,1/2-z
1/2-x,1/2+y,1/2+z
x,1/2-y,z
loop_
_atom_site_type_symbol
_atom_site_label
_atom_site_fract_x
_atom_site_fract_y
_atom_site_fract_z
Si Si1 0.566438 0.011483 0.805851
Si Si2 0.905545 0.383789 0.002488
Si Si3 0.816168 0.422584 0.475978
Si Si4 0.559912 0.079723 0.269692
Si Si5 0.468282 0.687860 0.905862
Si Si6 0.528554 0.626260 0.173884
Si Si7 0.156211 0.489707 0.995337
Si Si8 0.162058 0.816075 0.731589
O O1 0.542299 0.075905 0.847580
O O2 0.643170 0.974232 0.875559
O O3 0.484897 0.969609 0.830085
O O4 0.583392 0.017092 0.629613
O O5 0.849890 0.338256 0.098866
O O6 0.986477 0.400503 0.110492
O O7 0.944823 0.364007 0.844730
O O8 0.847420 0.441535 0.976111
O O9 0.886870 0.397525 0.588838
O O10 0.740327 0.456091 0.561005
O O11 0.794766 0.367512 0.367581
O O12 0.582085 0.134985 0.170322
O O13 0.633150 0.046469 0.358026
O O14 0.427712 0.750000 0.876539
O O15 0.563689 0.686185 0.831655
O O16 0.489107 0.678638 0.079392
O O17 0.196436 0.750000 0.719990
#
# Coordination Sequence:
#
# PCOD9461528 Si02
#       8
#     8   8   8   8   8   8   8   8
#     4  11  19  36  54  83 115 144 183 230 294 348
#     4  10  18  32  56  82 109 147 185 231 277 341
#     4  11  23  34  54  88 114 149 189 229 287 344
#     4  10  17  36  56  75 106 151 180 226 288 333
#     4   9  19  34  54  81 108 142 196 234 262 335
#     4  11  20  33  57  82 117 147 184 236 295 332
#     4  11  21  33  55  84 120 141 182 242 287 333
#     4   9  18  37  57  77 111 152 190 226 267 335
#
# _framework density 19.937501000000001
#
# number of rings (size 3 to 8) (size 9 to 14) (size 15 to 20)
#    0.000    1.750    7.500    1.125    1.750    0.500 
#    0.000    0.625    0.000    0.750    0.000    0.000 
#    0.000    0.000    0.000    0.000    0.000    0.000 
#
# Total GULP energy -356503.091020 kJ/mol
# GULP energy per Si atom -5570.360797 kJ/mol
# Density = 1.989212 g / cm^3
# Si number density = 19.937501 Si / 1000 Ang^3
#
#
#
# Elastic Constant Matrix: (Units=GPa)
#
#
# Indices 1 2 3 4 5 6 
#
# 1 4.6352 12.2078 -8.8715 0.0000 0.0000 0.0000
# 2 12.2078 119.0107 35.7016 0.0000 0.0000 0.0000
# 3 -8.8715 35.7016 83.2538 0.0000 0.0000 0.0000
# 4 0.0000 0.0000 0.0000 19.9502 0.0000 0.0000
# 5 0.0000 0.0000 0.0000 0.0000 7.4328 0.0000
# 6 0.0000 0.0000 0.0000 0.0000 0.0000 12.1526
#
#
#
# Elastic Compliance Matrix: (Units=1/GPa)
#
#
# Indices 1 2 3 4 5 6 
#
# 1 0.821419 -0.126833 0.141920 0.000000 0.000000 0.000000
# 2 -0.126833 0.029227 -0.026049 0.000000 0.000000 0.000000
# 3 0.141920 -0.026049 0.038305 0.000000 0.000000 0.000000
# 4 0.000000 0.000000 0.000000 0.050125 0.000000 0.000000
# 5 0.000000 0.000000 0.000000 0.000000 0.134539 0.000000
# 6 0.000000 0.000000 0.000000 0.000000 0.000000 0.082287
#
#
# Mechanical properties :
#
#
# Convention : Reuss Voigt Hill
#
# Bulk Modulus (GPa) = 1.15337 31.66394 16.40865
# Shear Modulus (GPa) = 3.40870 19.09791 11.25331
#
# Velocity S-wave (km/s) = 1.30897 3.09834 2.37835
# Velocity P-wave (km/s) = 1.69242 5.35870 3.97366
#
# Compressibility (1/GPa) = 0.86702700
#
# Stress axis : x y z
#
# Youngs Moduli (GPa) = 1.21741 34.21482 26.10630
#
# Poissons Ratio (x) = 4.33957 -3.70501
# Poissons Ratio (y) = 0.15441 0.68004
# Poissons Ratio (z) = -0.17277 0.89125
#
# Static dielectric constant tensor:
#      x y z
#    x 1.806170 0.000000 0.000000 
#    y 0.000000 1.723870 0.000000 
#    z 0.000000 0.000000 1.745320 
# 
# From -- ./inp_files/6945.got.cif
#   From: 2010.05.17/outbox.cif.g08.bks.cpg/sg62_4_cif.got.tgz:6945.got - 2010.06.03 15:25:27.
