data_PCOD9461189
_publ_section_title
;
Structure prediction by ZEFSAII (Michael W. Deem and Ramdas Pophale) SiO2 
 PCOD9461189
Probable space group: P B C A
;
_chemical_formula_sum "Si O2"
_cell_formula_units_Z 44
_cell_length_a 7.927268
_cell_length_b 13.707254
_cell_length_c 14.838416
_cell_angle_alpha 90.000000
_cell_angle_beta 90.000000
_cell_angle_gamma 90.000000
_cell_volume 1612.358249
_symmetry_space_group_name_H-M "P B C A"
_symmetry_group_IT_number 61
_symmetry_cell_setting 'orthorhombic'
loop_
_space_group_symop_operation_xyz
x,y,z
1/2-x,-y,1/2+z
1/2+x,1/2-y,-z
-x,1/2+y,1/2-z
-x,-y,-z
1/2+x,y,1/2-z
1/2-x,1/2+y,z
x,1/2-y,1/2+z
loop_
_atom_site_type_symbol
_atom_site_label
_atom_site_fract_x
_atom_site_fract_y
_atom_site_fract_z
Si Si1 0.081880 0.828303 0.555739
Si Si2 0.976015 0.509923 0.342141
Si Si3 0.360639 0.910664 0.177505
Si Si4 0.500000 0.000000 0.000000
Si Si5 0.300833 0.154672 0.430638
Si Si6 0.719290 0.301150 0.772583
O O1 0.123225 0.736128 0.495772
O O2 0.122159 0.807302 0.658493
O O3 0.169209 0.925988 0.522827
O O4 0.891332 0.873473 0.539198
O O5 0.830277 0.430645 0.355722
O O6 0.884044 0.601559 0.293911
O O7 0.107688 0.462816 0.272530
O O8 0.079955 0.562871 0.420038
O O9 0.376406 0.795547 0.194402
O O10 0.488982 0.956055 0.106567
O O11 0.269455 0.199950 0.331496
#
# Coordination Sequence:
#
# PCOD9461189 Si02
#       6
#     8   8   8   4   8   8
#     4  12  28  48  77 114 155 218 262 339 411 480
#     4  12  26  49  77 115 155 210 265 330 404 487
#     4  12  29  46  85 116 154 216 267 331 418 483
#     4  12  24  48  72 110 154 190 272 326 392 482
#     4  12  26  49  77 106 165 205 267 338 403 485
#     4  12  27  54  77 117 160 209 272 337 410 490
#
# _framework density 27.289221999999999
#
# number of rings (size 3 to 8) (size 9 to 14) (size 15 to 20)
#    0.000    0.000    3.636    5.455    7.636    0.000 
#    0.000    1.818    0.000    0.000    0.000    0.000 
#    0.000    0.000    0.000    0.000    0.000    0.000 
#
# Total GULP energy -246179.089214 kJ/mol
# GULP energy per Si atom -5594.979300 kJ/mol
# Density = 2.722711 g / cm^3
# Si number density = 27.289222 Si / 1000 Ang^3
#
#
#
# Elastic Constant Matrix: (Units=GPa)
#
#
# Indices 1 2 3 4 5 6 
#
# 1 113.5123 19.2982 17.3020 0.0000 0.0000 0.0000
# 2 19.2982 158.6195 34.8665 0.0000 0.0000 0.0000
# 3 17.3020 34.8665 130.0434 0.0000 0.0000 0.0000
# 4 0.0000 0.0000 0.0000 60.9174 0.0000 0.0000
# 5 0.0000 0.0000 0.0000 0.0000 41.0128 0.0000
# 6 0.0000 0.0000 0.0000 0.0000 0.0000 53.0594
#
#
#
# Elastic Compliance Matrix: (Units=1/GPa)
#
#
# Indices 1 2 3 4 5 6 
#
# 1 0.009110 -0.000895 -0.000972 0.000000 0.000000 0.000000
# 2 -0.000895 0.006787 -0.001701 0.000000 0.000000 0.000000
# 3 -0.000972 -0.001701 0.008275 0.000000 0.000000 0.000000
# 4 0.000000 0.000000 0.000000 0.016416 0.000000 0.000000
# 5 0.000000 0.000000 0.000000 0.000000 0.024383 0.000000
# 6 0.000000 0.000000 0.000000 0.000000 0.000000 0.018847
#
#
# Mechanical properties :
#
#
# Convention : Reuss Voigt Hill
#
# Bulk Modulus (GPa) = 58.69575 60.56764 59.63169
# Shear Modulus (GPa) = 51.74312 53.04513 52.39413
#
# Velocity S-wave (km/s) = 4.35915 4.41365 4.38648
# Velocity P-wave (km/s) = 6.84775 6.94382 6.89595
#
# Compressibility (1/GPa) = 0.01703701
#
# Stress axis : x y z
#
# Youngs Moduli (GPa) = 109.77065 147.33897 120.84496
#
# Poissons Ratio (x) = 0.13182 0.11748
# Poissons Ratio (y) = 0.09821 0.20552
# Poissons Ratio (z) = 0.10672 0.25058
#
# Static dielectric constant tensor:
#      x y z
#    x 2.467510 0.000000 0.000000 
#    y 0.000000 7.699920 0.000000 
#    z 0.000000 0.000000 7.634550 
# 
# From -- ./inp_files/7733.got.cif
#   From: 2010.05.17/outbox.cif.g08.bks.cpg/sg61_4_cif.got.tgz:7733.got - 2010.06.03 15:17:17.
