data_PCOD9461705
_publ_section_title
;
Structure prediction by ZEFSAII (Michael W. Deem and Ramdas Pophale) SiO2 
 PCOD9461705
Probable space group: P N M A
;
_chemical_formula_sum "Si O2"
_cell_formula_units_Z 64
_cell_length_a 30.959696
_cell_length_b 9.057150
_cell_length_c 14.807871
_cell_angle_alpha 90.000000
_cell_angle_beta 90.000000
_cell_angle_gamma 90.000000
_cell_volume 4152.224918
_symmetry_space_group_name_H-M "P N M A"
_symmetry_group_IT_number 62
_symmetry_cell_setting 'orthorhombic'
loop_
_space_group_symop_operation_xyz
x,y,z
1/2-x,-y,1/2+z
1/2+x,1/2-y,1/2-z
-x,1/2+y,-z
-x,-y,-z
1/2+x,y,1/2-z
1/2-x,1/2+y,1/2+z
x,1/2-y,z
loop_
_atom_site_type_symbol
_atom_site_label
_atom_site_fract_x
_atom_site_fract_y
_atom_site_fract_z
Si Si1 0.791252 0.570297 0.298159
Si Si2 0.727095 0.074994 0.002351
Si Si3 0.795041 0.426803 0.687218
Si Si4 0.871734 0.576774 0.180412
Si Si5 0.450815 0.425606 0.399435
Si Si6 0.550009 0.427309 0.404800
Si Si7 0.135248 0.422007 0.189898
Si Si8 0.315511 0.916950 0.499440
O O1 0.791028 0.750000 0.295137
O O2 0.788126 0.526022 0.402650
O O3 0.748631 0.524054 0.241536
O O4 0.835771 0.522049 0.251264
O O5 0.720509 0.250000 0.010323
O O6 0.777680 0.034720 0.005894
O O7 0.706153 0.992937 0.087023
O O8 0.794472 0.250000 0.684209
O O9 0.836726 0.484016 0.740923
O O10 0.880304 0.750000 0.197749
O O11 0.916320 0.490590 0.170306
O O12 0.848038 0.566300 0.083450
O O13 0.445941 0.250000 0.405990
O O14 0.500816 0.458682 0.376079
O O15 0.442983 0.496278 0.498361
O O16 0.554495 0.250000 0.417995
O O17 0.586516 0.471486 0.332935
O O18 0.134637 0.250000 0.218598
O O19 0.159612 0.428461 0.093473
O O20 0.296791 0.750000 0.492286
#
# Coordination Sequence:
#
# PCOD9461705 Si02
#       8
#     8   8   8   8   8   8   8   8
#     4   9  19  33  49  67  93 129 165 195 234 288
#     4  11  21  34  49  70  97 128 167 206 239 280
#     4  11  21  35  50  70  98 129 163 202 245 286
#     4  10  18  33  50  66  95 136 167 193 239 293
#     4  10  19  29  46  73 100 126 162 204 240 283
#     4   9  18  33  48  66  99 135 161 193 243 296
#     4  10  19  32  49  71  96 131 169 197 236 290
#     4  10  18  29  48  70  97 131 165 197 238 283
#
# _framework density 15.413423999999999
#
# number of rings (size 3 to 8) (size 9 to 14) (size 15 to 20)
#    0.000    2.000    3.750    1.125    0.000    1.500 
#    0.000    1.250    0.000    0.000    0.000    0.875 
#    0.000    0.000    0.000    0.000    0.000    0.000 
#
# Total GULP energy -356889.554632 kJ/mol
# GULP energy per Si atom -5576.399291 kJ/mol
# Density = 1.537834 g / cm^3
# Si number density = 15.413424 Si / 1000 Ang^3
#
#
#
# Elastic Constant Matrix: (Units=GPa)
#
#
# Indices 1 2 3 4 5 6 
#
# 1 119.2892 42.4393 48.5361 0.0000 0.0000 0.0000
# 2 42.4393 40.1351 35.5528 0.0000 0.0000 0.0000
# 3 48.5361 35.5528 88.6655 0.0000 0.0000 0.0000
# 4 0.0000 0.0000 0.0000 20.6172 0.0000 0.0000
# 5 0.0000 0.0000 0.0000 0.0000 21.9807 0.0000
# 6 0.0000 0.0000 0.0000 0.0000 0.0000 25.9939
#
#
#
# Elastic Compliance Matrix: (Units=1/GPa)
#
#
# Indices 1 2 3 4 5 6 
#
# 1 0.013828 -0.012277 -0.002646 0.000000 0.000000 0.000000
# 2 -0.012277 0.049541 -0.013144 0.000000 0.000000 0.000000
# 3 -0.002646 -0.013144 0.017998 0.000000 0.000000 0.000000
# 4 0.000000 0.000000 0.000000 0.048503 0.000000 0.000000
# 5 0.000000 0.000000 0.000000 0.000000 0.045494 0.000000
# 6 0.000000 0.000000 0.000000 0.000000 0.000000 0.038471
#
#
# Mechanical properties :
#
#
# Convention : Reuss Voigt Hill
#
# Bulk Modulus (GPa) = 39.63422 55.68291 47.65857
# Shear Modulus (GPa) = 17.96098 21.82245 19.89172
#
# Velocity S-wave (km/s) = 3.41733 3.76680 3.59631
# Velocity P-wave (km/s) = 6.42968 7.42449 6.94492
#
# Compressibility (1/GPa) = 0.02523072
#
# Stress axis : x y z
#
# Youngs Moduli (GPa) = 72.31909 20.18512 55.56286
#
# Poissons Ratio (x) = 0.24782 0.14705
# Poissons Ratio (y) = 0.88787 0.73034
# Poissons Ratio (z) = 0.19139 0.26532
#
# Static dielectric constant tensor:
#      x y z
#    x 1.522920 0.000000 0.000000 
#    y 0.000000 1.524400 0.000000 
#    z 0.000000 0.000000 1.500070 
# 
# From -- ./inp_files/21209.got.cif
#   From: 2010.05.17/outbox.cif.g08.bks.cpg/sg62_11_cif.got.tgz:21209.got - 2010.06.03 15:25:27.
