data_PCOD9461969
_publ_section_title
;
Structure prediction by ZEFSAII (Michael W. Deem and Ramdas Pophale) SiO2 
 PCOD9461969
Probable space group: P N M A
;
_chemical_formula_sum "Si O2"
_cell_formula_units_Z 48
_cell_length_a 7.459559
_cell_length_b 11.433185
_cell_length_c 23.941299
_cell_angle_alpha 90.000000
_cell_angle_beta 90.000000
_cell_angle_gamma 90.000000
_cell_volume 2041.870030
_symmetry_space_group_name_H-M "P N M A"
_symmetry_group_IT_number 62
_symmetry_cell_setting 'orthorhombic'
loop_
_space_group_symop_operation_xyz
x,y,z
1/2-x,-y,1/2+z
1/2+x,1/2-y,1/2-z
-x,1/2+y,-z
-x,-y,-z
1/2+x,y,1/2-z
1/2-x,1/2+y,1/2+z
x,1/2-y,z
loop_
_atom_site_type_symbol
_atom_site_label
_atom_site_fract_x
_atom_site_fract_y
_atom_site_fract_z
Si Si1 0.394350 0.881493 0.666194
Si Si2 0.135765 0.387016 0.487346
Si Si3 0.997235 0.883284 0.718954
Si Si4 0.696399 0.250000 0.804212
Si Si5 0.754160 0.428408 0.896421
Si Si6 0.666549 0.516122 0.121469
Si Si7 0.230682 0.750000 0.327423
O O1 0.453855 0.750000 0.654265
O O2 0.500549 0.933059 0.718854
O O3 0.190107 0.880820 0.690071
O O4 0.375815 0.958554 0.611626
O O5 0.064168 0.250000 0.481590
O O6 0.267667 0.381613 0.540807
O O7 0.000000 0.500000 0.500000
O O8 0.779999 0.570061 0.571274
O O9 0.935282 0.750000 0.725525
O O10 0.861474 0.947854 0.678910
O O11 0.784840 0.355852 0.839207
O O12 0.485499 0.250000 0.818744
O O13 0.705410 0.250000 0.737151
O O14 0.539734 0.448800 0.892274
O O15 0.772350 0.634581 0.135975
#
# Coordination Sequence:
#
# PCOD9461969 Si02
#       7
#     8   8   8   4   8   8   4
#     4   9  17  28  44  68  95 126 161 202 249 302
#     4  10  19  30  48  71 103 141 172 214 264 317
#     4   9  16  28  44  66  94 125 160 202 247 305
#     4  10  18  32  50  72 106 128 179 204 270 300
#     4   9  17  29  45  66  98 129 163 208 248 309
#     4   9  18  29  45  67 101 127 170 199 267 295
#     4  10  20  32  50  78 102 144 161 228 250 330
#
# _framework density 23.507864000000001
#
# number of rings (size 3 to 8) (size 9 to 14) (size 15 to 20)
#    0.000    2.667    0.833    1.500    3.500    4.000 
#    0.000    0.000    0.000    0.000    0.000    4.667 
#    0.000    0.000    0.000    0.000    0.000    0.000 
#
# Total GULP energy -267205.748504 kJ/mol
# GULP energy per Si atom -5566.786427 kJ/mol
# Density = 2.345436 g / cm^3
# Si number density = 23.507864 Si / 1000 Ang^3
#
#
#
# Elastic Constant Matrix: (Units=GPa)
#
#
# Indices 1 2 3 4 5 6 
#
# 1 -369.1808 138.0442 487.5274 0.0000 0.0000 0.0000
# 2 138.0442 87.7452 -64.0859 0.0000 0.0000 0.0000
# 3 487.5274 -64.0859 -405.4866 0.0000 0.0000 0.0000
# 4 0.0000 0.0000 0.0000 28.7534 0.0000 0.0000
# 5 0.0000 0.0000 0.0000 0.0000 15.6318 0.0000
# 6 0.0000 0.0000 0.0000 0.0000 0.0000 8.4831
#
#
#
# Elastic Compliance Matrix: (Units=1/GPa)
#
#
# Indices 1 2 3 4 5 6 
#
# 1 0.005587 -0.003482 0.007268 0.000000 0.000000 0.000000
# 2 -0.003482 0.012387 -0.006144 0.000000 0.000000 0.000000
# 3 0.007268 -0.006144 0.007243 0.000000 0.000000 0.000000
# 4 0.000000 0.000000 0.000000 0.034779 0.000000 0.000000
# 5 0.000000 0.000000 0.000000 0.000000 0.063972 0.000000
# 6 0.000000 0.000000 0.000000 0.000000 0.000000 0.117882
#
#
# Mechanical properties :
#
#
# Convention : Reuss Voigt Hill
#
# Bulk Modulus (GPa) = 48.77557 48.44990 48.61273
# Shear Modulus (GPa) = 19.73169 -72.65353 -26.46092
#
# Velocity S-wave (km/s) = 2.90032 -5.56535 -3.35867
# Velocity P-wave (km/s) = 5.65769 4.54342 2.38399
#
# Compressibility (1/GPa) = 0.02050207
#
# Stress axis : x y z
#
# Youngs Moduli (GPa) = 178.97801 80.72975 138.05649
#
# Poissons Ratio (x) = 0.28109 -1.00340
# Poissons Ratio (y) = 0.62317 0.84822
# Poissons Ratio (z) = -1.30082 0.49600
#
# Static dielectric constant tensor:
#      x y z
#    x 1.931140 0.000000 0.000000 
#    y 0.000000 2.144840 0.000000 
#    z 0.000000 0.000000 1.913010 
# 
# From -- ./inp_files/29373.got.cif
#   From: 2010.05.17/outbox.cif.g08.bks.cpg/sg62_15_cif.got.tgz:29373.got - 2010.06.03 15:25:27.
