data_PCOD9461260
_publ_section_title
;
Structure prediction by ZEFSAII (Michael W. Deem and Ramdas Pophale) SiO2 
 PCOD9461260
Probable space group: P B C A
;
_chemical_formula_sum "Si O2"
_cell_formula_units_Z 64
_cell_length_a 12.000000
_cell_length_b 15.000000
_cell_length_c 18.000000
_cell_angle_alpha 90.000000
_cell_angle_beta 90.000000
_cell_angle_gamma 90.000000
_cell_volume 3240.000000
_symmetry_space_group_name_H-M "P B C A"
_symmetry_group_IT_number 61
_symmetry_cell_setting 'orthorhombic'
loop_
_space_group_symop_operation_xyz
x,y,z
1/2-x,-y,1/2+z
1/2+x,1/2-y,-z
-x,1/2+y,1/2-z
-x,-y,-z
1/2+x,y,1/2-z
1/2-x,1/2+y,z
x,1/2-y,1/2+z
loop_
_atom_site_type_symbol
_atom_site_label
_atom_site_fract_x
_atom_site_fract_y
_atom_site_fract_z
Si Si1 0.210363 0.365989 0.888657
Si Si2 0.546434 0.703665 0.726178
Si Si3 0.575013 0.996902 0.197571
Si Si4 0.381824 0.016886 0.093638
Si Si5 0.852108 0.575984 0.354398
Si Si6 0.547363 0.672489 0.087221
Si Si7 0.520386 0.352361 0.495067
Si Si8 0.289998 0.747048 0.238439
O O1 0.168886 0.460000 0.855190
O O2 0.330634 0.366918 0.926684
O O3 0.114415 0.333920 0.943648
O O4 0.214624 0.300946 0.818201
O O5 0.571262 0.608632 0.689541
O O6 0.548986 0.787772 0.671134
O O7 0.663347 0.714037 0.774192
O O8 0.411055 0.700334 0.744731
O O9 0.457060 0.033710 0.167116
O O10 0.599091 0.025383 0.282038
O O11 0.252536 0.024119 0.111870
O O12 0.421858 0.090539 0.033730
O O13 0.419750 0.921004 0.061820
O O14 0.806934 0.671127 0.323814
O O15 0.949730 0.599729 0.412075
O O16 0.520756 0.759790 0.038779
#
# Coordination Sequence:
#
# PCOD9461260 Si02
#       8
#     8   8   8   8   8   8   8   8
#     4   9  21  38  59  83 119 156 200 244 307 355
#     4  10  20  35  58  87 119 154 196 245 298 365
#     4  10  21  36  60  86 119 156 187 248 303 360
#     4  10  22  39  59  88 114 158 202 238 301 366
#     4  10  23  34  61  85 121 147 195 248 305 356
#     4  10  21  39  56  88 114 156 199 247 294 358
#     4  10  21  39  62  81 115 161 203 242 289 365
#     4   9  21  36  57  88 120 153 195 248 306 359
#
# _framework density 19.753086
#
# number of rings (size 3 to 8) (size 9 to 14) (size 15 to 20)
#    0.000    2.250    1.250    0.000   14.000    0.000 
#    0.000    1.875    0.000    0.000    0.000    0.000 
#    0.000    0.000    0.000    0.000    0.000    0.000 
#
# Total GULP energy -356381.134468 kJ/mol
# GULP energy per Si atom -5568.455226 kJ/mol
# Density = 1.970813 g / cm^3
# Si number density = 19.753086 Si / 1000 Ang^3
#
#
#
# Elastic Constant Matrix: (Units=GPa)
#
#
# Indices 1 2 3 4 5 6 
#
# 1 67.6972 16.5424 -13.3694 0.0000 0.0000 0.0000
# 2 16.5424 38.7123 -6.1162 0.0000 0.0000 0.0000
# 3 -13.3694 -6.1162 14.9317 0.0000 0.0000 0.0000
# 4 0.0000 0.0000 0.0000 8.0048 0.0000 0.0000
# 5 0.0000 0.0000 0.0000 0.0000 16.8854 0.0000
# 6 0.0000 0.0000 0.0000 0.0000 0.0000 20.2427
#
#
#
# Elastic Compliance Matrix: (Units=1/GPa)
#
#
# Indices 1 2 3 4 5 6 
#
# 1 0.019104 -0.005839 0.014714 0.000000 0.000000 0.000000
# 2 -0.005839 0.029404 0.006816 0.000000 0.000000 0.000000
# 3 0.014714 0.006816 0.082937 0.000000 0.000000 0.000000
# 4 0.000000 0.000000 0.000000 0.124925 0.000000 0.000000
# 5 0.000000 0.000000 0.000000 0.000000 0.059223 0.000000
# 6 0.000000 0.000000 0.000000 0.000000 0.000000 0.049401
#
#
# Mechanical properties :
#
#
# Convention : Reuss Voigt Hill
#
# Bulk Modulus (GPa) = 6.14151 12.82833 9.48492
# Shear Modulus (GPa) = 12.89034 17.31220 15.10127
#
# Velocity S-wave (km/s) = 2.55732 2.96367 2.76796
# Velocity P-wave (km/s) = 3.44031 4.26844 3.87655
#
# Compressibility (1/GPa) = 0.16282644
#
# Stress axis : x y z
#
# Youngs Moduli (GPa) = 52.34449 34.00955 12.05728
#
# Poissons Ratio (x) = 0.19858 -0.17741
# Poissons Ratio (y) = 0.30564 -0.08218
# Poissons Ratio (z) = -0.77018 -0.23181
#
# Static dielectric constant tensor:
#      x y z
#    x 1.749240 0.000000 0.000000 
#    y 0.000000 1.680130 0.000000 
#    z 0.000000 0.000000 1.735930 
# 
# From -- ./inp_files/9297.got.cif
#   From: 2010.05.17/outbox.ucp.g08.bks.cvg/sg61_5_cif.got.tgz:9297.got - 2010.06.11 16:28:26.
