data_PCOD9461411
_publ_section_title
;
Structure prediction by ZEFSAII (Michael W. Deem and Ramdas Pophale) SiO2 
 PCOD9461411
Probable space group: P N M A
;
_chemical_formula_sum "Si O2"
_cell_formula_units_Z 48
_cell_length_a 11.947931
_cell_length_b 14.261032
_cell_length_c 12.597499
_cell_angle_alpha 90.000000
_cell_angle_beta 90.000000
_cell_angle_gamma 90.000000
_cell_volume 2146.485667
_symmetry_space_group_name_H-M "P N M A"
_symmetry_group_IT_number 62
_symmetry_cell_setting 'orthorhombic'
loop_
_space_group_symop_operation_xyz
x,y,z
1/2-x,-y,1/2+z
1/2+x,1/2-y,1/2-z
-x,1/2+y,-z
-x,-y,-z
1/2+x,y,1/2-z
1/2-x,1/2+y,1/2+z
x,1/2-y,z
loop_
_atom_site_type_symbol
_atom_site_label
_atom_site_fract_x
_atom_site_fract_y
_atom_site_fract_z
Si Si1 0.002884 0.488173 0.656503
Si Si2 0.912386 0.140816 0.204298
Si Si3 0.749743 0.982970 0.110859
Si Si4 0.572693 0.092224 0.474397
Si Si5 0.195622 0.140387 0.677021
Si Si6 0.562237 0.650267 0.340590
O O1 0.883286 0.495268 0.601009
O O2 0.970045 0.436061 0.767459
O O3 0.059226 0.586619 0.686586
O O4 0.097457 0.415519 0.618673
O O5 0.882645 0.250000 0.213859
O O6 0.816823 0.077726 0.145527
O O7 0.027952 0.131767 0.135734
O O8 0.802288 0.936671 0.004870
O O9 0.776754 0.911936 0.210646
O O10 0.526917 0.157083 0.567505
O O11 0.500000 0.000000 0.500000
O O12 0.168577 0.250000 0.693281
O O13 0.313193 0.135910 0.615349
O O14 0.567792 0.750000 0.280628
#
# Coordination Sequence:
#
# PCOD9461411 Si02
#       6
#     8   8   8   8   8   8
#     4  10  18  32  48  74 105 130 168 209 252 306
#     4  10  20  33  51  74 100 134 174 215 253 296
#     4   9  19  31  49  72 106 132 164 211 257 301
#     4  10  17  32  49  74 100 126 167 209 256 295
#     4   9  17  28  45  72  99 129 164 197 251 309
#     4  10  17  27  47  71  99 130 158 202 252 302
#
# _framework density 22.362134000000001
#
# number of rings (size 3 to 8) (size 9 to 14) (size 15 to 20)
#    0.000    2.333    5.000    1.000    0.000    2.000 
#    0.000    0.000    0.000    4.000    0.000    0.000 
#    0.000    0.000    0.000    0.000    0.000    0.000 
#
# Total GULP energy -267524.748000 kJ/mol
# GULP energy per Si atom -5573.432250 kJ/mol
# Density = 2.231124 g / cm^3
# Si number density = 22.362134 Si / 1000 Ang^3
#
#
#
# Elastic Constant Matrix: (Units=GPa)
#
#
# Indices 1 2 3 4 5 6 
#
# 1 110.0558 23.7893 -12.2888 0.0000 0.0000 0.0000
# 2 23.7893 173.6894 17.3322 0.0000 0.0000 0.0000
# 3 -12.2888 17.3322 24.8189 0.0000 0.0000 0.0000
# 4 0.0000 0.0000 0.0000 10.2809 0.0000 0.0000
# 5 0.0000 0.0000 0.0000 0.0000 16.4104 0.0000
# 6 0.0000 0.0000 0.0000 0.0000 0.0000 16.4561
#
#
#
# Elastic Compliance Matrix: (Units=1/GPa)
#
#
# Indices 1 2 3 4 5 6 
#
# 1 0.010258 -0.002055 0.006514 0.000000 0.000000 0.000000
# 2 -0.002055 0.006600 -0.005627 0.000000 0.000000 0.000000
# 3 0.006514 -0.005627 0.047447 0.000000 0.000000 0.000000
# 4 0.000000 0.000000 0.000000 0.097267 0.000000 0.000000
# 5 0.000000 0.000000 0.000000 0.000000 0.060937 0.000000
# 6 0.000000 0.000000 0.000000 0.000000 0.000000 0.060768
#
#
# Mechanical properties :
#
#
# Convention : Reuss Voigt Hill
#
# Bulk Modulus (GPa) = 16.13690 40.69216 28.41453
# Shear Modulus (GPa) = 16.32552 27.27825 21.80189
#
# Velocity S-wave (km/s) = 2.70488 3.49641 3.12580
# Velocity P-wave (km/s) = 4.12153 5.87676 5.07559
#
# Compressibility (1/GPa) = 0.06196979
#
# Stress axis : x y z
#
# Youngs Moduli (GPa) = 97.48605 151.50678 21.07620
#
# Poissons Ratio (x) = 0.31135 -0.13729
# Poissons Ratio (y) = 0.20033 0.11859
# Poissons Ratio (z) = -0.63504 0.85251
#
# Static dielectric constant tensor:
#      x y z
#    x 1.889500 0.000000 0.000000 
#    y 0.000000 1.856680 0.000000 
#    z 0.000000 0.000000 1.918310 
# 
# From -- ./inp_files/23092.got.cif
#   From: 2010.05.17/outbox.cif.g08.bks.cpg/sg62_12_cif.got.tgz:23092.got - 2010.06.03 15:25:27.
