data_PCOD9461523
_publ_section_title
;
Structure prediction by ZEFSAII (Michael W. Deem and Ramdas Pophale) SiO2 
 PCOD9461523
Probable space group: P N M A
;
_chemical_formula_sum "Si O2"
_cell_formula_units_Z 64
_cell_length_a 18.005365
_cell_length_b 27.101356
_cell_length_c 5.375639
_cell_angle_alpha 90.000000
_cell_angle_beta 90.000000
_cell_angle_gamma 90.000000
_cell_volume 2623.149524
_symmetry_space_group_name_H-M "P N M A"
_symmetry_group_IT_number 62
_symmetry_cell_setting 'orthorhombic'
loop_
_space_group_symop_operation_xyz
x,y,z
1/2-x,-y,1/2+z
1/2+x,1/2-y,1/2-z
-x,1/2+y,-z
-x,-y,-z
1/2+x,y,1/2-z
1/2-x,1/2+y,1/2+z
x,1/2-y,z
loop_
_atom_site_type_symbol
_atom_site_label
_atom_site_fract_x
_atom_site_fract_y
_atom_site_fract_z
Si Si1 0.808934 0.400190 0.951335
Si Si2 0.701052 0.135282 0.601273
Si Si3 0.422141 0.462618 0.805331
Si Si4 0.988166 0.805788 0.409467
Si Si5 0.169890 0.194521 0.390446
Si Si6 0.575532 0.876001 0.799954
Si Si7 0.546162 0.403788 0.585874
Si Si8 0.787847 0.522244 0.633188
O O1 0.779403 0.387629 0.678380
O O2 0.871279 0.442214 0.918794
O O3 0.858068 0.363296 0.109723
O O4 0.738531 0.421832 0.096416
O O5 0.696287 0.168261 0.358554
O O6 0.635006 0.094832 0.578588
O O7 0.689161 0.168183 0.850176
O O8 0.410558 0.423596 0.027064
O O9 0.376678 0.512421 0.862717
O O10 0.506142 0.451401 0.714291
O O11 0.994432 0.750000 0.304733
O O12 0.969785 0.852000 0.230159
O O13 0.919770 0.803988 0.602976
O O14 0.060221 0.826606 0.545460
O O15 0.198372 0.250000 0.396894
O O16 0.498917 0.893006 0.665033
O O17 0.746044 0.503315 0.882605
#
# Coordination Sequence:
#
# PCOD9461523 Si02
#       8
#     8   8   8   8   8   8   8   8
#     4  10  22  34  58  84 115 147 190 236 288 345
#     4  11  22  37  59  87 116 150 191 236 290 345
#     4   9  19  35  58  82 112 148 193 237 282 335
#     4   9  18  32  55  83 109 143 193 236 274 329
#     4  10  21  38  60  82 110 153 197 233 273 340
#     4  10  17  35  56  80 109 147 187 235 287 329
#     4   9  19  34  54  82 112 152 188 237 287 336
#     4  10  19  35  57  86 111 150 197 235 272 341
#
# _framework density 24.398150000000001
#
# number of rings (size 3 to 8) (size 9 to 14) (size 15 to 20)
#    0.000    2.250    2.500    0.375    1.750    1.000 
#    0.000    1.875    0.000    1.500    0.000    0.000 
#    0.000    0.000    0.000    0.000    0.000    0.000 
#
# Total GULP energy -356995.653846 kJ/mol
# GULP energy per Si atom -5578.057091 kJ/mol
# Density = 2.434262 g / cm^3
# Si number density = 24.398150 Si / 1000 Ang^3
#
#
#
# Elastic Constant Matrix: (Units=GPa)
#
#
# Indices 1 2 3 4 5 6 
#
# 1 66.5537 13.3166 16.1292 0.0000 0.0000 0.0000
# 2 13.3166 49.1267 25.2396 0.0000 0.0000 0.0000
# 3 16.1292 25.2396 104.1046 0.0000 0.0000 0.0000
# 4 0.0000 0.0000 0.0000 26.9735 0.0000 0.0000
# 5 0.0000 0.0000 0.0000 0.0000 43.9508 0.0000
# 6 0.0000 0.0000 0.0000 0.0000 0.0000 21.0855
#
#
#
# Elastic Compliance Matrix: (Units=1/GPa)
#
#
# Indices 1 2 3 4 5 6 
#
# 1 0.016130 -0.003528 -0.001644 0.000000 0.000000 0.000000
# 2 -0.003528 0.024023 -0.005278 0.000000 0.000000 0.000000
# 3 -0.001644 -0.005278 0.011140 0.000000 0.000000 0.000000
# 4 0.000000 0.000000 0.000000 0.037073 0.000000 0.000000
# 5 0.000000 0.000000 0.000000 0.000000 0.022753 0.000000
# 6 0.000000 0.000000 0.000000 0.000000 0.000000 0.047426
#
#
# Mechanical properties :
#
#
# Convention : Reuss Voigt Hill
#
# Bulk Modulus (GPa) = 32.90067 36.57285 34.73676
# Shear Modulus (GPa) = 26.37480 29.40862 27.89171
#
# Velocity S-wave (km/s) = 3.29145 3.47560 3.38478
# Velocity P-wave (km/s) = 5.28763 5.57933 5.43544
#
# Compressibility (1/GPa) = 0.03039452
#
# Stress axis : x y z
#
# Youngs Moduli (GPa) = 61.99760 41.62621 89.76694
#
# Poissons Ratio (x) = 0.14685 0.14755
# Poissons Ratio (y) = 0.21871 0.47377
# Poissons Ratio (z) = 0.10191 0.21969
#
# Static dielectric constant tensor:
#      x y z
#    x 2.060140 0.000000 0.000000 
#    y 0.000000 1.999710 0.000000 
#    z 0.000000 0.000000 2.018420 
# 
# From -- ./inp_files/2412.got.cif
#   From: 2010.05.17/outbox.cif.g08.bks.cpg/sg62_2_cif.got.tgz:2412.got - 2010.06.03 15:25:27.
