data_PCOD9461180
_publ_section_title
;
Structure prediction by ZEFSAII (Michael W. Deem and Ramdas Pophale) SiO2 
 PCOD9461180
Probable space group: P B C A
;
_chemical_formula_sum "Si O2"
_cell_formula_units_Z 40
_cell_length_a 13.977290
_cell_length_b 16.241792
_cell_length_c 7.627192
_cell_angle_alpha 90.000000
_cell_angle_beta 90.000000
_cell_angle_gamma 90.000000
_cell_volume 1731.496426
_symmetry_space_group_name_H-M "P B C A"
_symmetry_group_IT_number 61
_symmetry_cell_setting 'orthorhombic'
loop_
_space_group_symop_operation_xyz
x,y,z
1/2-x,-y,1/2+z
1/2+x,1/2-y,-z
-x,1/2+y,1/2-z
-x,-y,-z
1/2+x,y,1/2-z
1/2-x,1/2+y,z
x,1/2-y,1/2+z
loop_
_atom_site_type_symbol
_atom_site_label
_atom_site_fract_x
_atom_site_fract_y
_atom_site_fract_z
Si Si1 0.002843 0.673574 0.368817
Si Si2 0.663979 0.816048 0.111011
Si Si3 0.226043 0.101650 0.595051
Si Si4 0.336836 0.071553 0.241035
Si Si5 0.631369 0.236512 0.075846
O O1 0.076689 0.751648 0.375967
O O2 0.063829 0.592554 0.337387
O O3 0.933374 0.684523 0.532589
O O4 0.928796 0.684255 0.211470
O O5 0.683510 0.871802 0.283033
O O6 0.760565 0.762749 0.108690
O O7 0.663759 0.868056 0.929946
O O8 0.259388 0.087507 0.394406
O O9 0.147768 0.174624 0.588605
O O10 0.180314 0.019532 0.671743
#
# Coordination Sequence:
#
# PCOD9461180 Si02
#       5
#     8   8   8   8   8
#     4  12  24  44  73 106 137 187 247 294 354 429
#     4  12  24  48  74 101 144 191 242 303 351 433
#     4  12  25  45  72 104 146 191 235 297 370 425
#     4  12  25  45  72 106 147 189 238 297 367 430
#     4  12  24  44  74 105 138 187 245 296 357 427
#
# _framework density 23.101405
#
# number of rings (size 3 to 8) (size 9 to 14) (size 15 to 20)
#    0.000    0.000    8.000    3.600    0.000    0.800 
#    0.000    1.000    0.000    0.000    0.000    0.000 
#    0.000    0.000    0.000    0.000    0.000    0.000 
#
# Total GULP energy -223507.276742 kJ/mol
# GULP energy per Si atom -5587.681919 kJ/mol
# Density = 2.304883 g / cm^3
# Si number density = 23.101405 Si / 1000 Ang^3
#
#
#
# Elastic Constant Matrix: (Units=GPa)
#
#
# Indices 1 2 3 4 5 6 
#
# 1 103.1000 6.7772 18.0693 0.0000 0.0000 0.0000
# 2 6.7772 58.0607 13.3021 0.0000 0.0000 0.0000
# 3 18.0693 13.3021 103.5582 0.0000 0.0000 0.0000
# 4 0.0000 0.0000 0.0000 17.1675 0.0000 0.0000
# 5 0.0000 0.0000 0.0000 0.0000 36.2499 0.0000
# 6 0.0000 0.0000 0.0000 0.0000 0.0000 15.5910
#
#
#
# Elastic Compliance Matrix: (Units=1/GPa)
#
#
# Indices 1 2 3 4 5 6 
#
# 1 0.010041 -0.000794 -0.001650 0.000000 0.000000 0.000000
# 2 -0.000794 0.017808 -0.002149 0.000000 0.000000 0.000000
# 3 -0.001650 -0.002149 0.010220 0.000000 0.000000 0.000000
# 4 0.000000 0.000000 0.000000 0.058250 0.000000 0.000000
# 5 0.000000 0.000000 0.000000 0.000000 0.027586 0.000000
# 6 0.000000 0.000000 0.000000 0.000000 0.000000 0.064140
#
#
# Mechanical properties :
#
#
# Convention : Reuss Voigt Hill
#
# Bulk Modulus (GPa) = 34.62176 37.89069 36.25622
# Shear Modulus (GPa) = 24.17110 28.90636 26.53873
#
# Velocity S-wave (km/s) = 3.23817 3.54118 3.39306
# Velocity P-wave (km/s) = 5.38520 5.75825 5.57485
#
# Compressibility (1/GPa) = 0.02888357
#
# Stress axis : x y z
#
# Youngs Moduli (GPa) = 99.59480 56.15341 97.84417
#
# Poissons Ratio (x) = 0.04459 0.16144
# Poissons Ratio (y) = 0.07908 0.21026
# Poissons Ratio (z) = 0.16433 0.12067
#
# Static dielectric constant tensor:
#      x y z
#    x 1.837010 0.000000 0.000000 
#    y 0.000000 1.896070 0.000000 
#    z 0.000000 0.000000 2.005130 
# 
# From -- ./inp_files/2673.got.cif
#   From: 2010.05.17/outbox.cif.g08.bks.cpg/sg61_2_cif.got.tgz:2673.got - 2010.06.03 15:17:17.
