data_PCOD9461016
_publ_section_title
;
Structure prediction by ZEFSAII (Michael W. Deem and Ramdas Pophale) SiO2 
 PCOD9461016
Probable space group: P B C A
;
_chemical_formula_sum "Si O2"
_cell_formula_units_Z 48
_cell_length_a 16.171025
_cell_length_b 13.922365
_cell_length_c 10.003532
_cell_angle_alpha 90.000000
_cell_angle_beta 90.000000
_cell_angle_gamma 90.000000
_cell_volume 2252.184315
_symmetry_space_group_name_H-M "P B C A"
_symmetry_group_IT_number 61
_symmetry_cell_setting 'orthorhombic'
loop_
_space_group_symop_operation_xyz
x,y,z
1/2-x,-y,1/2+z
1/2+x,1/2-y,-z
-x,1/2+y,1/2-z
-x,-y,-z
1/2+x,y,1/2-z
1/2-x,1/2+y,z
x,1/2-y,1/2+z
loop_
_atom_site_type_symbol
_atom_site_label
_atom_site_fract_x
_atom_site_fract_y
_atom_site_fract_z
Si Si1 0.422619 0.835933 0.225216
Si Si2 0.622617 0.661521 0.100458
Si Si3 0.823277 0.013372 0.889766
Si Si4 0.859566 0.042085 0.366331
Si Si5 0.610182 0.873949 0.143910
Si Si6 0.430452 0.836463 0.532158
O O1 0.521411 0.851801 0.209764
O O2 0.403920 0.818044 0.380162
O O3 0.399860 0.746355 0.132011
O O4 0.381418 0.934170 0.176480
O O5 0.617716 0.612480 0.245370
O O6 0.651599 0.770983 0.114725
O O7 0.530012 0.663977 0.040349
O O8 0.676456 0.595860 0.002427
O O9 0.838234 0.062233 0.746684
O O10 0.738316 0.955523 0.891323
O O11 0.896716 0.939571 0.922611
O O12 0.902842 0.073036 0.503367
#
# Coordination Sequence:
#
# PCOD9461016 Si02
#       6
#     8   8   8   8   8   8
#     4  11  25  45  69 102 133 176 230 275 328 390
#     4  11  23  46  70  95 135 177 230 273 335 392
#     4  12  24  46  66 100 137 180 219 274 344 394
#     4  12  26  43  67 102 138 175 222 276 336 406
#     4  11  25  41  71  99 130 180 227 276 330 399
#     4  11  25  44  73  97 135 179 225 279 326 393
#
# _framework density 21.312643000000001
#
# number of rings (size 3 to 8) (size 9 to 14) (size 15 to 20)
#    0.000    0.667    3.333    4.000    9.333    2.667 
#    0.000    0.000    0.000    0.000    0.000    0.000 
#    0.000    0.000    0.000    0.000    0.000    0.000 
#
# Total GULP energy -268753.211251 kJ/mol
# GULP energy per Si atom -5599.025234 kJ/mol
# Density = 2.126413 g / cm^3
# Si number density = 21.312643 Si / 1000 Ang^3
#
#
#
# Elastic Constant Matrix: (Units=GPa)
#
#
# Indices 1 2 3 4 5 6 
#
# 1 10.6392 0.6581 -6.0734 0.0000 0.0000 0.0000
# 2 0.6581 98.9684 78.2973 0.0000 0.0000 0.0000
# 3 -6.0734 78.2973 180.7355 0.0000 0.0000 0.0000
# 4 0.0000 0.0000 0.0000 13.4527 0.0000 0.0000
# 5 0.0000 0.0000 0.0000 0.0000 5.5775 0.0000
# 6 0.0000 0.0000 0.0000 0.0000 0.0000 2.0302
#
#
#
# Elastic Compliance Matrix: (Units=1/GPa)
#
#
# Indices 1 2 3 4 5 6 
#
# 1 0.097383 -0.004924 0.005406 0.000000 0.000000 0.000000
# 2 -0.004924 0.015622 -0.006933 0.000000 0.000000 0.000000
# 3 0.005406 -0.006933 0.008718 0.000000 0.000000 0.000000
# 4 0.000000 0.000000 0.000000 0.074335 0.000000 0.000000
# 5 0.000000 0.000000 0.000000 0.000000 0.179290 0.000000
# 6 0.000000 0.000000 0.000000 0.000000 0.000000 0.492564
#
#
# Mechanical properties :
#
#
# Convention : Reuss Voigt Hill
#
# Bulk Modulus (GPa) = 9.18953 48.45634 28.82293
# Shear Modulus (GPa) = 5.45204 18.70948 12.08076
#
# Velocity S-wave (km/s) = 1.60115 2.96608 2.38341
# Velocity P-wave (km/s) = 2.78197 5.87499 4.59646
#
# Compressibility (1/GPa) = 0.10881952
#
# Stress axis : x y z
#
# Youngs Moduli (GPa) = 10.26877 64.01213 114.70329
#
# Poissons Ratio (x) = 0.31520 -0.62004
# Poissons Ratio (y) = 0.05056 0.79526
# Poissons Ratio (z) = -0.05551 0.44381
#
# Static dielectric constant tensor:
#      x y z
#    x 1.778110 0.000000 0.000000 
#    y 0.000000 1.740850 0.000000 
#    z 0.000000 0.000000 1.737480 
# 
# From -- ./inp_files/3413.got.cif
#   From: 2010.05.17/outbox.cif.g08.bks.cpg/sg61_2_cif.got.tgz:3413.got - 2010.06.03 15:17:17.
