data_PCOD9461435
_publ_section_title
;
Structure prediction by ZEFSAII (Michael W. Deem and Ramdas Pophale) SiO2 
 PCOD9461435
Probable space group: P N M A
;
_chemical_formula_sum "Si O2"
_cell_formula_units_Z 56
_cell_length_a 5.495332
_cell_length_b 25.170076
_cell_length_c 16.378476
_cell_angle_alpha 90.000000
_cell_angle_beta 90.000000
_cell_angle_gamma 90.000000
_cell_volume 2265.436800
_symmetry_space_group_name_H-M "P N M A"
_symmetry_group_IT_number 62
_symmetry_cell_setting 'orthorhombic'
loop_
_space_group_symop_operation_xyz
x,y,z
1/2-x,-y,1/2+z
1/2+x,1/2-y,1/2-z
-x,1/2+y,-z
-x,-y,-z
1/2+x,y,1/2-z
1/2-x,1/2+y,1/2+z
x,1/2-y,z
loop_
_atom_site_type_symbol
_atom_site_label
_atom_site_fract_x
_atom_site_fract_y
_atom_site_fract_z
Si Si1 0.962106 0.250000 0.890272
Si Si2 0.976938 0.367518 0.948232
Si Si3 0.023003 0.855133 0.520163
Si Si4 0.860094 0.985179 0.419186
Si Si5 0.866779 0.052701 0.270151
Si Si6 0.645181 0.047905 0.646361
Si Si7 0.073991 0.187300 0.299873
Si Si8 0.536931 0.750000 0.094844
O O1 0.961091 0.303961 0.943309
O O2 0.701479 0.250000 0.849903
O O3 0.223543 0.250000 0.850663
O O4 0.043000 0.391710 0.858193
O O5 0.716974 0.385456 0.985344
O O6 0.212205 0.380966 0.003403
O O7 0.036059 0.801300 0.464795
O O8 0.973252 0.842384 0.614256
O O9 0.873513 0.037544 0.363273
O O10 0.068188 0.948912 0.374101
O O11 0.570659 0.972773 0.415502
O O12 0.000000 0.000000 0.500000
O O13 0.115302 0.080441 0.248225
O O14 0.866934 0.996627 0.217610
O O15 0.341830 0.179589 0.260281
O O16 0.066197 0.250000 0.321837
#
# Coordination Sequence:
#
# PCOD9461435 Si02
#       8
#     4   8   8   8   8   8   8   4
#     4   8  16  26  40  63  92 131 172 210 258 302
#     4  10  19  29  48  70 100 139 175 221 271 315
#     4  10  17  29  42  63  91 128 167 221 275 320
#     4  10  19  33  55  83 111 139 168 218 266 323
#     4   8  16  30  50  76 108 139 164 204 258 310
#     4  10  19  33  51  82 113 139 177 218 267 317
#     4  10  19  28  41  62  85 116 166 226 286 341
#     4   8  14  24  38  55  84 117 156 210 266 308
#
# _framework density 24.719294000000001
#
# number of rings (size 3 to 8) (size 9 to 14) (size 15 to 20)
#    0.000    2.571    0.714    2.143    0.000    0.000 
#    0.000    0.000    0.000    0.000    0.000   69.000 
#    0.000    0.000    0.000    0.000    0.000    0.000 
#
# Total GULP energy -311775.603613 kJ/mol
# GULP energy per Si atom -5567.421493 kJ/mol
# Density = 2.466303 g / cm^3
# Si number density = 24.719294 Si / 1000 Ang^3
#
#
#
# Elastic Constant Matrix: (Units=GPa)
#
#
# Indices 1 2 3 4 5 6 
#
# 1 257.9199 21.5643 26.9920 0.0000 0.0000 0.0000
# 2 21.5643 63.9900 16.9428 0.0000 0.0000 0.0000
# 3 26.9920 16.9428 66.9476 0.0000 0.0000 0.0000
# 4 0.0000 0.0000 0.0000 -121.3772 0.0000 0.0000
# 5 0.0000 0.0000 0.0000 0.0000 26.2396 0.0000
# 6 0.0000 0.0000 0.0000 0.0000 0.0000 36.0096
#
#
#
# Elastic Compliance Matrix: (Units=1/GPa)
#
#
# Indices 1 2 3 4 5 6 
#
# 1 0.004108 -0.001014 -0.001400 0.000000 0.000000 0.000000
# 2 -0.001014 0.017000 -0.003894 0.000000 0.000000 0.000000
# 3 -0.001400 -0.003894 0.016487 0.000000 0.000000 0.000000
# 4 0.000000 0.000000 0.000000 -0.008239 0.000000 0.000000
# 5 0.000000 0.000000 0.000000 0.000000 0.038110 0.000000
# 6 0.000000 0.000000 0.000000 0.000000 0.000000 0.027770
#
#
# Mechanical properties :
#
#
# Convention : Reuss Voigt Hill
#
# Bulk Modulus (GPa) = 40.03080 57.76174 48.89627
# Shear Modulus (GPa) = 43.03713 9.73160 26.38436
#
# Velocity S-wave (km/s) = 4.17710 1.98630 3.27059
# Velocity P-wave (km/s) = 6.28438 5.35521 5.83831
#
# Compressibility (1/GPa) = 0.02498076
#
# Stress axis : x y z
#
# Youngs Moduli (GPa) = 243.40137 58.82345 60.65452
#
# Poissons Ratio (x) = 0.05964 0.08491
# Poissons Ratio (y) = 0.24678 0.23616
# Poissons Ratio (z) = 0.34073 0.22903
#
# Static dielectric constant tensor:
#      x y z
#    x 2.023530 0.000000 0.000000 
#    y 0.000000 2.124140 0.000000 
#    z 0.000000 0.000000 1.999320 
# 
# From -- ./inp_files/16309.got.cif
#   From: 2010.05.17/outbox.cif.g08.bks.cpg/sg62_9_cif.got.tgz:16309.got - 2010.06.03 15:25:27.
