data_PCOD9461709
_publ_section_title
;
Structure prediction by ZEFSAII (Michael W. Deem and Ramdas Pophale) SiO2 
 PCOD9461709
Probable space group: P N M A
;
_chemical_formula_sum "Si O2"
_cell_formula_units_Z 64
_cell_length_a 16.025924
_cell_length_b 7.580035
_cell_length_c 24.273406
_cell_angle_alpha 90.000000
_cell_angle_beta 90.000000
_cell_angle_gamma 90.000000
_cell_volume 2948.662114
_symmetry_space_group_name_H-M "P N M A"
_symmetry_group_IT_number 62
_symmetry_cell_setting 'orthorhombic'
loop_
_space_group_symop_operation_xyz
x,y,z
1/2-x,-y,1/2+z
1/2+x,1/2-y,1/2-z
-x,1/2+y,-z
-x,-y,-z
1/2+x,y,1/2-z
1/2-x,1/2+y,1/2+z
x,1/2-y,z
loop_
_atom_site_type_symbol
_atom_site_label
_atom_site_fract_x
_atom_site_fract_y
_atom_site_fract_z
Si Si1 0.187192 0.453395 0.700718
Si Si2 0.963198 0.463241 0.600013
Si Si3 0.431468 0.545090 0.577433
Si Si4 0.491420 0.966189 0.224190
Si Si5 0.868481 0.043523 0.805178
Si Si6 0.853247 0.044707 0.422401
Si Si7 0.110872 0.036184 0.954430
Si Si8 0.704773 0.965763 0.040393
O O1 0.191411 0.250000 0.719071
O O2 0.103833 0.531585 0.727468
O O3 0.278141 0.534917 0.709069
O O4 0.169850 0.453800 0.634892
O O5 0.965045 0.250000 0.597104
O O6 0.876056 0.524219 0.574404
O O7 0.973407 0.513844 0.663959
O O8 0.046858 0.528812 0.569850
O O9 0.409085 0.750000 0.577471
O O10 0.386719 0.465598 0.630042
O O11 0.531672 0.525290 0.580593
O O12 0.405358 0.474065 0.517444
O O13 0.487401 0.750000 0.225617
O O14 0.553752 0.030046 0.271135
O O15 0.864360 0.250000 0.790480
O O16 0.831754 0.250000 0.415345
O O17 0.807490 0.978315 0.476919
O O18 0.107830 0.250000 0.954156
O O19 0.204099 0.981075 0.938135
O O20 0.703411 0.750000 0.040264
#
# Coordination Sequence:
#
# PCOD9461709 Si02
#       8
#     8   8   8   8   8   8   8   8
#     4   9  18  33  52  74 100 129 168 214 257 297
#     4   9  17  32  50  70 100 132 166 208 254 296
#     4  10  20  34  52  74 103 134 164 205 253 300
#     4   8  16  32  50  72  99 126 162 213 254 290
#     4  10  19  33  54  77  98 128 172 213 255 302
#     4  10  18  29  48  74 104 134 167 203 246 300
#     4   9  18  34  52  73 102 134 168 206 249 299
#     4   9  17  29  48  75 101 130 168 207 248 299
#
# _framework density 21.704757000000001
#
# number of rings (size 3 to 8) (size 9 to 14) (size 15 to 20)
#    0.000    2.750    0.000    2.625    0.000    2.000 
#    2.250    5.000    0.000    0.000    0.000    0.000 
#    0.000    0.000    0.000    0.000    0.000    0.000 
#
# Total GULP energy -357184.555233 kJ/mol
# GULP energy per Si atom -5581.008676 kJ/mol
# Density = 2.165536 g / cm^3
# Si number density = 21.704757 Si / 1000 Ang^3
#
#
#
# Elastic Constant Matrix: (Units=GPa)
#
#
# Indices 1 2 3 4 5 6 
#
# 1 172.2737 -1.3145 32.0330 0.0000 0.0000 0.0000
# 2 -1.3145 50.0063 -0.7625 0.0000 0.0000 0.0000
# 3 32.0330 -0.7625 23.1767 0.0000 0.0000 0.0000
# 4 0.0000 0.0000 0.0000 -5.2528 0.0000 0.0000
# 5 0.0000 0.0000 0.0000 0.0000 19.6584 0.0000
# 6 0.0000 0.0000 0.0000 0.0000 0.0000 8.0202
#
#
#
# Elastic Compliance Matrix: (Units=1/GPa)
#
#
# Indices 1 2 3 4 5 6 
#
# 1 0.007813 0.000041 -0.010797 0.000000 0.000000 0.000000
# 2 0.000041 0.020008 0.000602 0.000000 0.000000 0.000000
# 3 -0.010797 0.000602 0.058089 0.000000 0.000000 0.000000
# 4 0.000000 0.000000 0.000000 -0.190376 0.000000 0.000000
# 5 0.000000 0.000000 0.000000 0.000000 0.050869 0.000000
# 6 0.000000 0.000000 0.000000 0.000000 0.000000 0.124686
#
#
# Mechanical properties :
#
#
# Convention : Reuss Voigt Hill
#
# Bulk Modulus (GPa) = 15.24361 33.92985 24.58673
# Shear Modulus (GPa) = 44.14542 18.85189 31.49865
#
# Velocity S-wave (km/s) = 4.51478 2.95033 3.81364
# Velocity P-wave (km/s) = 5.84945 5.22229 5.54474
#
# Compressibility (1/GPa) = 0.06560124
#
# Stress axis : x y z
#
# Youngs Moduli (GPa) = 127.99899 49.98066 17.21508
#
# Poissons Ratio (x) = -0.00204 0.18586
# Poissons Ratio (y) = -0.00521 -0.01036
# Poissons Ratio (z) = 1.38195 -0.03009
#
# Static dielectric constant tensor:
#      x y z
#    x 1.826340 0.000000 0.000000 
#    y 0.000000 1.824110 0.000000 
#    z 0.000000 0.000000 1.748640 
# 
# From -- ./inp_files/29940.got.cif
#   From: 2010.05.17/outbox.cif.g08.bks.cpg/sg62_15_cif.got.tgz:29940.got - 2010.06.03 15:25:27.
