data_PCOD9461794
_publ_section_title
;
Structure prediction by ZEFSAII (Michael W. Deem and Ramdas Pophale) SiO2 
 PCOD9461794
Probable space group: P N M A
;
_chemical_formula_sum "Si O2"
_cell_formula_units_Z 56
_cell_length_a 21.753947
_cell_length_b 7.610729
_cell_length_c 15.238969
_cell_angle_alpha 90.000000
_cell_angle_beta 90.000000
_cell_angle_gamma 90.000000
_cell_volume 2523.015448
_symmetry_space_group_name_H-M "P N M A"
_symmetry_group_IT_number 62
_symmetry_cell_setting 'orthorhombic'
loop_
_space_group_symop_operation_xyz
x,y,z
1/2-x,-y,1/2+z
1/2+x,1/2-y,1/2-z
-x,1/2+y,-z
-x,-y,-z
1/2+x,y,1/2-z
1/2-x,1/2+y,1/2+z
x,1/2-y,z
loop_
_atom_site_type_symbol
_atom_site_label
_atom_site_fract_x
_atom_site_fract_y
_atom_site_fract_z
Si Si1 0.247902 0.045126 0.191729
Si Si2 0.230681 0.461550 0.994492
Si Si3 0.887167 0.458388 0.744140
Si Si4 0.452740 0.040049 0.077574
Si Si5 0.348709 0.040730 0.334624
Si Si6 0.520212 0.961983 0.728777
Si Si7 0.139452 0.963888 0.443484
O O1 0.265034 0.250000 0.180741
O O2 0.298308 0.972745 0.261989
O O3 0.177647 0.035588 0.225422
O O4 0.241634 0.969516 0.092945
O O5 0.229810 0.250000 0.000281
O O6 0.173695 0.511180 0.933937
O O7 0.290233 0.516750 0.938717
O O8 0.877838 0.250000 0.742229
O O9 0.895602 0.523715 0.643549
O O10 0.950161 0.491849 0.796400
O O11 0.448990 0.250000 0.087971
O O12 0.469781 0.968491 0.171880
O O13 0.389249 0.976121 0.035063
O O14 0.500000 0.000000 0.000000
O O15 0.350333 0.250000 0.321212
O O16 0.418527 0.975594 0.321069
O O17 0.521339 0.750000 0.728109
O O18 0.136530 0.750000 0.444703
#
# Coordination Sequence:
#
# PCOD9461794 Si02
#       7
#     8   8   8   8   8   8   8
#     4  10  21  38  61  86 115 152 193 233 286 345
#     4  10  20  37  60  84 111 148 190 235 284 339
#     4  11  21  35  57  83 114 149 187 233 281 333
#     4  10  18  30  49  75 108 143 178 217 269 335
#     4  10  21  38  59  85 116 150 188 236 286 337
#     4  10  21  36  55  80 115 153 188 231 284 342
#     4   9  17  31  52  78 109 143 178 222 278 332
#
# _framework density 22.195661000000001
#
# number of rings (size 3 to 8) (size 9 to 14) (size 15 to 20)
#    0.000    2.000    2.857    1.286    0.000    4.571 
#    0.000    1.429    0.000    3.429    0.000    0.000 
#    0.000    0.000    0.000    0.000    0.000    0.000 
#
# Total GULP energy -312215.708691 kJ/mol
# GULP energy per Si atom -5575.280512 kJ/mol
# Density = 2.214514 g / cm^3
# Si number density = 22.195661 Si / 1000 Ang^3
#
#
#
# Elastic Constant Matrix: (Units=GPa)
#
#
# Indices 1 2 3 4 5 6 
#
# 1 79.3822 -10.2311 6.3633 0.0000 0.0000 0.0000
# 2 -10.2311 48.2836 -0.5833 0.0000 0.0000 0.0000
# 3 6.3633 -0.5833 54.4010 0.0000 0.0000 0.0000
# 4 0.0000 0.0000 0.0000 12.3807 0.0000 0.0000
# 5 0.0000 0.0000 0.0000 0.0000 32.5157 0.0000
# 6 0.0000 0.0000 0.0000 0.0000 0.0000 12.9881
#
#
#
# Elastic Compliance Matrix: (Units=1/GPa)
#
#
# Indices 1 2 3 4 5 6 
#
# 1 0.013072 0.002752 -0.001500 0.000000 0.000000 0.000000
# 2 0.002752 0.021293 -0.000094 0.000000 0.000000 0.000000
# 3 -0.001500 -0.000094 0.018556 0.000000 0.000000 0.000000
# 4 0.000000 0.000000 0.000000 0.080771 0.000000 0.000000
# 5 0.000000 0.000000 0.000000 0.000000 0.030754 0.000000
# 6 0.000000 0.000000 0.000000 0.000000 0.000000 0.076993
#
#
# Mechanical properties :
#
#
# Convention : Reuss Voigt Hill
#
# Bulk Modulus (GPa) = 18.10318 19.24050 18.67184
# Shear Modulus (GPa) = 19.41478 24.01144 21.71311
#
# Velocity S-wave (km/s) = 2.96076 3.29265 3.13111
# Velocity P-wave (km/s) = 4.45668 4.81070 4.63707
#
# Compressibility (1/GPa) = 0.05523892
#
# Stress axis : x y z
#
# Youngs Moduli (GPa) = 76.49852 46.96392 53.88976
#
# Poissons Ratio (x) = -0.12924 0.08081
# Poissons Ratio (y) = -0.21051 0.00504
# Poissons Ratio (z) = 0.11471 0.00439
#
# Static dielectric constant tensor:
#      x y z
#    x 1.879800 0.000000 0.000000 
#    y 0.000000 1.823320 0.000000 
#    z 0.000000 0.000000 1.829180 
# 
# From -- ./inp_files/20403.got.cif
#   From: 2010.05.17/outbox.cif.g08.bks.cpg/sg62_11_cif.got.tgz:20403.got - 2010.06.03 15:25:27.
