data_PCOD9461693
_publ_section_title
;
Structure prediction by ZEFSAII (Michael W. Deem and Ramdas Pophale) SiO2 
 PCOD9461693
Probable space group: P N M A
;
_chemical_formula_sum "Si O2"
_cell_formula_units_Z 48
_cell_length_a 9.718601
_cell_length_b 7.935044
_cell_length_c 32.929007
_cell_angle_alpha 90.000000
_cell_angle_beta 90.000000
_cell_angle_gamma 90.000000
_cell_volume 2539.403572
_symmetry_space_group_name_H-M "P N M A"
_symmetry_group_IT_number 62
_symmetry_cell_setting 'orthorhombic'
loop_
_space_group_symop_operation_xyz
x,y,z
1/2-x,-y,1/2+z
1/2+x,1/2-y,1/2-z
-x,1/2+y,-z
-x,-y,-z
1/2+x,y,1/2-z
1/2-x,1/2+y,1/2+z
x,1/2-y,z
loop_
_atom_site_type_symbol
_atom_site_label
_atom_site_fract_x
_atom_site_fract_y
_atom_site_fract_z
Si Si1 0.922958 0.943457 0.374280
Si Si2 0.092320 0.453498 0.538091
Si Si3 0.408049 0.450976 0.538077
Si Si4 0.921294 0.453431 0.789473
Si Si5 0.114586 0.444438 0.124316
Si Si6 0.897507 0.543167 0.286321
O O1 0.971206 0.750000 0.373809
O O2 0.962116 0.018486 0.418049
O O3 0.955982 0.017016 0.329978
O O4 0.755374 0.947044 0.375363
O O5 0.095879 0.250000 0.540975
O O6 0.250153 0.512045 0.532679
O O7 0.000000 0.500000 0.500000
O O8 0.500000 0.500000 0.500000
O O9 0.405730 0.250000 0.540997
O O10 0.458234 0.520066 0.581605
O O11 0.924024 0.250000 0.789612
O O12 0.964343 0.513460 0.834307
O O13 0.762431 0.506922 0.783353
O O14 0.015706 0.512144 0.752459
O O15 0.156585 0.250000 0.125467
O O16 0.899711 0.750000 0.287334
#
# Coordination Sequence:
#
# PCOD9461693 Si02
#       6
#     8   8   8   8   8   8
#     4   8  15  30  48  67  91 123 161 199 232 276
#     4   9  18  31  49  72 100 128 158 196 239 285
#     4  10  20  35  53  74  98 127 163 204 243 285
#     4   9  16  29  47  68  91 119 154 194 235 281
#     4  10  18  29  47  70  94 125 159 192 233 287
#     4   8  14  26  47  67  87 116 154 193 230 272
#
# _framework density 18.902077999999999
#
# number of rings (size 3 to 8) (size 9 to 14) (size 15 to 20)
#    0.000    3.000    0.000    4.000    0.000    3.333 
#    0.000    5.000    0.000    4.000    0.000    0.000 
#    0.000    0.000    0.000    0.000    0.000    0.000 
#
# Total GULP energy -267290.859950 kJ/mol
# GULP energy per Si atom -5568.559582 kJ/mol
# Density = 1.885906 g / cm^3
# Si number density = 18.902078 Si / 1000 Ang^3
#
#
#
# Elastic Constant Matrix: (Units=GPa)
#
#
# Indices 1 2 3 4 5 6 
#
# 1 44.6137 7.4508 71.7115 0.0000 0.0000 0.0000
# 2 7.4508 35.5241 12.8576 0.0000 0.0000 0.0000
# 3 71.7115 12.8576 242.5969 0.0000 0.0000 0.0000
# 4 0.0000 0.0000 0.0000 23.1166 0.0000 0.0000
# 5 0.0000 0.0000 0.0000 0.0000 35.2521 0.0000
# 6 0.0000 0.0000 0.0000 0.0000 0.0000 12.0161
#
#
#
# Elastic Compliance Matrix: (Units=1/GPa)
#
#
# Indices 1 2 3 4 5 6 
#
# 1 0.043415 -0.004548 -0.012592 0.000000 0.000000 0.000000
# 2 -0.004548 0.029177 -0.000202 0.000000 0.000000 0.000000
# 3 -0.012592 -0.000202 0.007855 0.000000 0.000000 0.000000
# 4 0.000000 0.000000 0.000000 0.043259 0.000000 0.000000
# 5 0.000000 0.000000 0.000000 0.000000 0.028367 0.000000
# 6 0.000000 0.000000 0.000000 0.000000 0.000000 0.083222
#
#
# Mechanical properties :
#
#
# Convention : Reuss Voigt Hill
#
# Bulk Modulus (GPa) = 21.85215 56.30827 39.08021
# Shear Modulus (GPa) = 17.52944 29.45792 23.49368
#
# Velocity S-wave (km/s) = 3.04860 3.95200 3.52932
# Velocity P-wave (km/s) = 4.89671 7.11889 6.10968
#
# Compressibility (1/GPa) = 0.04576210
#
# Stress axis : x y z
#
# Youngs Moduli (GPa) = 23.03342 34.27363 127.30604
#
# Poissons Ratio (x) = 0.15588 1.60309
# Poissons Ratio (y) = 0.10476 0.02571
# Poissons Ratio (z) = 0.29005 0.00692
#
# Static dielectric constant tensor:
#      x y z
#    x 1.626850 0.000000 0.000000 
#    y 0.000000 1.700830 0.000000 
#    z 0.000000 0.000000 1.713180 
# 
# From -- ./inp_files/30991.got.cif
#   From: 2010.05.17/outbox.cif.g08.bks.cpg/sg62_16_cif.got.tgz:30991.got - 2010.06.03 15:25:27.
