data_PCOD9461248
_publ_section_title
;
Structure prediction by ZEFSAII (Michael W. Deem and Ramdas Pophale) SiO2 
 PCOD9461248
Probable space group: P B C A
;
_chemical_formula_sum "Si O2"
_cell_formula_units_Z 48
_cell_length_a 8.525086
_cell_length_b 14.239839
_cell_length_c 17.465524
_cell_angle_alpha 90.000000
_cell_angle_beta 90.000000
_cell_angle_gamma 90.000000
_cell_volume 2120.242168
_symmetry_space_group_name_H-M "P B C A"
_symmetry_group_IT_number 61
_symmetry_cell_setting 'orthorhombic'
loop_
_space_group_symop_operation_xyz
x,y,z
1/2-x,-y,1/2+z
1/2+x,1/2-y,-z
-x,1/2+y,1/2-z
-x,-y,-z
1/2+x,y,1/2-z
1/2-x,1/2+y,z
x,1/2-y,1/2+z
loop_
_atom_site_type_symbol
_atom_site_label
_atom_site_fract_x
_atom_site_fract_y
_atom_site_fract_z
Si Si1 0.163237 0.914681 0.486015
Si Si2 0.851966 0.295410 0.540371
Si Si3 0.403643 0.132032 0.221366
Si Si4 0.700690 0.441571 0.646830
Si Si5 0.885012 0.743322 0.340261
Si Si6 0.687853 0.084061 0.926264
O O1 0.208924 0.807235 0.480130
O O2 0.972699 0.909387 0.477503
O O3 0.220947 0.972347 0.411158
O O4 0.220960 0.974105 0.559563
O O5 0.742170 0.346347 0.601944
O O6 0.831367 0.360280 0.466068
O O7 0.017228 0.286424 0.583999
O O8 0.312304 0.063536 0.279799
O O9 0.523502 0.069023 0.173961
O O10 0.277941 0.190254 0.172875
O O11 0.506030 0.207714 0.270288
O O12 0.853472 0.855075 0.351315
#
# Coordination Sequence:
#
# PCOD9461248 Si02
#       6
#     8   8   8   8   8   8
#     4   9  18  34  55  82 113 145 182 227 288 341
#     4   9  18  34  58  83 111 146 185 233 287 340
#     4   9  18  34  57  82 113 152 191 232 275 330
#     4   9  18  35  58  81 111 151 188 231 283 334
#     4   9  18  33  56  82 111 150 189 226 279 334
#     4   9  18  32  56  82 109 144 181 227 282 335
#
# _framework density 22.638922000000001
#
# number of rings (size 3 to 8) (size 9 to 14) (size 15 to 20)
#    0.000    3.000    0.000    0.000    0.000    6.667 
#    0.000   15.000    0.000   65.000    0.000    0.000 
#    0.000    0.000    0.000    0.000    0.000    0.000 
#
# Total GULP energy -267678.059021 kJ/mol
# GULP energy per Si atom -5576.626230 kJ/mol
# Density = 2.258739 g / cm^3
# Si number density = 22.638922 Si / 1000 Ang^3
#
#
#
# Elastic Constant Matrix: (Units=GPa)
#
#
# Indices 1 2 3 4 5 6 
#
# 1 70.4346 27.5402 31.4468 0.0000 0.0000 0.0000
# 2 27.5402 91.1613 25.3412 0.0000 0.0000 0.0000
# 3 31.4468 25.3412 60.0552 0.0000 0.0000 0.0000
# 4 0.0000 0.0000 0.0000 33.5815 0.0000 0.0000
# 5 0.0000 0.0000 0.0000 0.0000 32.9871 0.0000
# 6 0.0000 0.0000 0.0000 0.0000 0.0000 19.3499
#
#
#
# Elastic Compliance Matrix: (Units=1/GPa)
#
#
# Indices 1 2 3 4 5 6 
#
# 1 0.019441 -0.003448 -0.008725 0.000000 0.000000 0.000000
# 2 -0.003448 0.013039 -0.003697 0.000000 0.000000 0.000000
# 3 -0.008725 -0.003697 0.022780 0.000000 0.000000 0.000000
# 4 0.000000 0.000000 0.000000 0.029778 0.000000 0.000000
# 5 0.000000 0.000000 0.000000 0.000000 0.030315 0.000000
# 6 0.000000 0.000000 0.000000 0.000000 0.000000 0.051680
#
#
# Mechanical properties :
#
#
# Convention : Reuss Voigt Hill
#
# Bulk Modulus (GPa) = 42.51546 43.36751 42.94149
# Shear Modulus (GPa) = 24.19993 26.33856 25.26925
#
# Velocity S-wave (km/s) = 3.27303 3.41459 3.34456
# Velocity P-wave (km/s) = 5.75363 5.89438 5.82443
#
# Compressibility (1/GPa) = 0.02352085
#
# Stress axis : x y z
#
# Youngs Moduli (GPa) = 51.43718 76.69459 43.89833
#
# Poissons Ratio (x) = 0.26443 0.38302
# Poissons Ratio (y) = 0.17735 0.16227
# Poissons Ratio (z) = 0.44880 0.28350
#
# Static dielectric constant tensor:
#      x y z
#    x 1.856600 0.000000 0.000000 
#    y 0.000000 1.899500 0.000000 
#    z 0.000000 0.000000 1.909640 
# 
# From -- ./inp_files/2914.got.cif
#   From: 2010.05.17/outbox.cif.g08.bks.cpg/sg61_2_cif.got.tgz:2914.got - 2010.06.03 15:17:17.
