data_PCOD9461000
_publ_section_title
;
Structure prediction by ZEFSAII (Michael W. Deem and Ramdas Pophale) SiO2 
 PCOD9461000
Probable space group: P B C A
;
_chemical_formula_sum "Si O2"
_cell_formula_units_Z 48
_cell_length_a 8.759188
_cell_length_b 8.790309
_cell_length_c 28.835978
_cell_angle_alpha 90.000000
_cell_angle_beta 90.000000
_cell_angle_gamma 90.000000
_cell_volume 2220.254071
_symmetry_space_group_name_H-M "P B C A"
_symmetry_group_IT_number 61
_symmetry_cell_setting 'orthorhombic'
loop_
_space_group_symop_operation_xyz
x,y,z
1/2-x,-y,1/2+z
1/2+x,1/2-y,-z
-x,1/2+y,1/2-z
-x,-y,-z
1/2+x,y,1/2-z
1/2-x,1/2+y,z
x,1/2-y,1/2+z
loop_
_atom_site_type_symbol
_atom_site_label
_atom_site_fract_x
_atom_site_fract_y
_atom_site_fract_z
Si Si1 0.623919 0.478043 0.300482
Si Si2 0.447343 0.612854 0.960575
Si Si3 0.091271 0.647042 0.984285
Si Si4 0.449290 0.165000 0.717189
Si Si5 0.368258 0.999382 0.362276
Si Si6 0.949136 0.340960 0.120924
O O1 0.796777 0.434774 0.288870
O O2 0.586521 0.656275 0.291457
O O3 0.517699 0.374267 0.267328
O O4 0.587206 0.420312 0.352247
O O5 0.270612 0.645768 0.972902
O O6 0.454528 0.554064 0.908745
O O7 0.500000 0.500000 0.000000
O O8 0.558976 0.749992 0.971273
O O9 0.023322 0.689658 0.933600
O O10 0.000000 0.500000 0.000000
O O11 0.570946 0.098971 0.680422
O O12 0.191916 0.958405 0.372165
O O13 0.398651 0.178837 0.357363
#
# Coordination Sequence:
#
# PCOD9461000 Si02
#       6
#     8   8   8   8   8   8
#     4  12  26  46  71 100 136 171 223 269 339 394
#     4  11  23  44  64  97 134 180 228 282 340 407
#     4  11  25  40  68  95 136 180 230 282 345 402
#     4  12  26  46  71 101 134 175 217 277 329 404
#     4  11  24  43  69  95 136 176 225 273 337 397
#     4  11  24  44  67  98 132 179 223 276 334 402
#
# _framework density 21.619149
#
# number of rings (size 3 to 8) (size 9 to 14) (size 15 to 20)
#    0.000    0.667    1.667    6.000    9.333    2.667 
#    0.000    0.000    0.000    0.000    0.000    0.000 
#    0.000    0.000    0.000    0.000    0.000    0.000 
#
# Total GULP energy -268168.866858 kJ/mol
# GULP energy per Si atom -5586.851393 kJ/mol
# Density = 2.156994 g / cm^3
# Si number density = 21.619149 Si / 1000 Ang^3
#
#
#
# Elastic Constant Matrix: (Units=GPa)
#
#
# Indices 1 2 3 4 5 6 
#
# 1 38.7801 -27.6024 8.2616 0.0000 0.0000 0.0000
# 2 -27.6024 86.3290 -8.0674 0.0000 0.0000 0.0000
# 3 8.2616 -8.0674 82.0027 0.0000 0.0000 0.0000
# 4 0.0000 0.0000 0.0000 35.4377 0.0000 0.0000
# 5 0.0000 0.0000 0.0000 0.0000 32.9464 0.0000
# 6 0.0000 0.0000 0.0000 0.0000 0.0000 30.5269
#
#
#
# Elastic Compliance Matrix: (Units=1/GPa)
#
#
# Indices 1 2 3 4 5 6 
#
# 1 0.033833 0.010596 -0.002366 0.000000 0.000000 0.000000
# 2 0.010596 0.015010 0.000409 0.000000 0.000000 0.000000
# 3 -0.002366 0.000409 0.012473 0.000000 0.000000 0.000000
# 4 0.000000 0.000000 0.000000 0.028219 0.000000 0.000000
# 5 0.000000 0.000000 0.000000 0.000000 0.030352 0.000000
# 6 0.000000 0.000000 0.000000 0.000000 0.000000 0.032758
#
#
# Mechanical properties :
#
#
# Convention : Reuss Voigt Hill
#
# Bulk Modulus (GPa) = 12.72351 16.92169 14.82260
# Shear Modulus (GPa) = 30.94746 35.41686 33.18216
#
# Velocity S-wave (km/s) = 3.78760 4.05188 3.92197
# Velocity P-wave (km/s) = 5.00260 5.45293 5.23261
#
# Compressibility (1/GPa) = 0.07859465
#
# Stress axis : x y z
#
# Youngs Moduli (GPa) = 29.55726 66.62286 80.17092
#
# Poissons Ratio (x) = -0.70596 0.18969
# Poissons Ratio (y) = -0.31320 -0.03280
# Poissons Ratio (z) = 0.06993 -0.02726
#
# Static dielectric constant tensor:
#      x y z
#    x 1.766380 0.000000 0.000000 
#    y 0.000000 1.732720 0.000000 
#    z 0.000000 0.000000 1.741090 
# 
# From -- ./inp_files/11678.got.cif
#   From: 2010.05.17/outbox.cif.g08.bks.cpg/sg61_6_cif.got.tgz:11678.got - 2010.06.03 15:17:17.
