data_PCOD9461983
_publ_section_title
;
Structure prediction by ZEFSAII (Michael W. Deem and Ramdas Pophale) SiO2 
 PCOD9461983
Probable space group: P N M A
;
_chemical_formula_sum "Si O2"
_cell_formula_units_Z 56
_cell_length_a 19.058458
_cell_length_b 13.040578
_cell_length_c 12.239354
_cell_angle_alpha 90.000000
_cell_angle_beta 90.000000
_cell_angle_gamma 90.000000
_cell_volume 3041.887139
_symmetry_space_group_name_H-M "P N M A"
_symmetry_group_IT_number 62
_symmetry_cell_setting 'orthorhombic'
loop_
_space_group_symop_operation_xyz
x,y,z
1/2-x,-y,1/2+z
1/2+x,1/2-y,1/2-z
-x,1/2+y,-z
-x,-y,-z
1/2+x,y,1/2-z
1/2-x,1/2+y,1/2+z
x,1/2-y,z
loop_
_atom_site_type_symbol
_atom_site_label
_atom_site_fract_x
_atom_site_fract_y
_atom_site_fract_z
Si Si1 0.141320 0.454049 0.651520
Si Si2 0.664134 0.627685 0.505130
Si Si3 0.497206 0.137195 0.913881
Si Si4 0.450275 0.581753 0.849109
Si Si5 0.808291 0.965634 0.588471
Si Si6 0.073551 0.630103 0.797071
Si Si7 0.288467 0.129832 0.727730
O O1 0.074618 0.380221 0.636226
O O2 0.162042 0.492445 0.531022
O O3 0.118243 0.550424 0.724368
O O4 0.207616 0.392322 0.695797
O O5 0.673221 0.750000 0.500336
O O6 0.732289 0.583586 0.567575
O O7 0.595419 0.606689 0.577909
O O8 0.666883 0.593533 0.378753
O O9 0.469647 0.250000 0.888844
O O10 0.454791 0.041269 0.866717
O O11 0.508163 0.125118 0.044730
O O12 0.368333 0.607995 0.859263
O O13 0.493522 0.613351 0.742496
O O14 0.801742 0.061977 0.666953
O O15 0.091076 0.750000 0.777430
O O16 0.300005 0.250000 0.745782
#
# Coordination Sequence:
#
# PCOD9461983 Si02
#       7
#     8   8   8   8   8   8   8
#     4   9  18  31  49  74 100 127 161 201 250 298
#     4   9  19  34  52  70  95 132 168 200 240 294
#     4   9  16  29  46  68 101 131 156 195 250 305
#     4   9  19  28  44  74 100 125 162 204 248 290
#     4  10  19  32  48  73 102 127 161 204 248 290
#     4  10  18  32  52  73  98 129 163 200 246 296
#     4  10  19  32  50  72  97 130 171 204 239 289
#
# _framework density 18.409624000000001
#
# number of rings (size 3 to 8) (size 9 to 14) (size 15 to 20)
#    0.000    2.571    1.429    1.714    0.000    5.143 
#    0.000    0.714    0.000    0.000    0.000    0.000 
#    0.000    0.000    0.000    0.000    0.000    0.000 
#
# Total GULP energy -312012.232910 kJ/mol
# GULP energy per Si atom -5571.647016 kJ/mol
# Density = 1.836772 g / cm^3
# Si number density = 18.409624 Si / 1000 Ang^3
#
#
#
# Elastic Constant Matrix: (Units=GPa)
#
#
# Indices 1 2 3 4 5 6 
#
# 1 21.5723 -13.2469 -1.9200 0.0000 0.0000 0.0000
# 2 -13.2469 65.1087 16.5197 0.0000 0.0000 0.0000
# 3 -1.9200 16.5197 42.2852 0.0000 0.0000 0.0000
# 4 0.0000 0.0000 0.0000 18.8361 0.0000 0.0000
# 5 0.0000 0.0000 0.0000 0.0000 25.2079 0.0000
# 6 0.0000 0.0000 0.0000 0.0000 0.0000 8.0068
#
#
#
# Elastic Compliance Matrix: (Units=1/GPa)
#
#
# Indices 1 2 3 4 5 6 
#
# 1 0.053128 0.011319 -0.002010 0.000000 0.000000 0.000000
# 2 0.011319 0.019461 -0.007089 0.000000 0.000000 0.000000
# 3 -0.002010 -0.007089 0.026327 0.000000 0.000000 0.000000
# 4 0.000000 0.000000 0.000000 0.053090 0.000000 0.000000
# 5 0.000000 0.000000 0.000000 0.000000 0.039670 0.000000
# 6 0.000000 0.000000 0.000000 0.000000 0.000000 0.124893
#
#
# Mechanical properties :
#
#
# Convention : Reuss Voigt Hill
#
# Bulk Modulus (GPa) = 9.67523 14.63020 12.15271
# Shear Modulus (GPa) = 14.42671 18.91771 16.67221
#
# Velocity S-wave (km/s) = 2.80241 3.20910 3.01262
# Velocity P-wave (km/s) = 3.96715 4.65783 4.32629
#
# Compressibility (1/GPa) = 0.10335667
#
# Stress axis : x y z
#
# Youngs Moduli (GPa) = 18.82255 51.38604 37.98376
#
# Poissons Ratio (x) = -0.58165 0.07634
# Poissons Ratio (y) = -0.21306 0.26926
# Poissons Ratio (z) = 0.03783 0.36426
#
# Static dielectric constant tensor:
#      x y z
#    x 1.684710 0.000000 0.000000 
#    y 0.000000 1.622990 0.000000 
#    z 0.000000 0.000000 1.644800 
# 
# From -- ./inp_files/14783.got.cif
#   From: 2010.05.17/outbox.cif.g08.bks.cpg/sg62_8_cif.got.tgz:14783.got - 2010.06.03 15:25:27.
