data_PCOD9461977
_publ_section_title
;
Structure prediction by ZEFSAII (Michael W. Deem and Ramdas Pophale) SiO2 
 PCOD9461977
Probable space group: P N M A
;
_chemical_formula_sum "Si O2"
_cell_formula_units_Z 56
_cell_length_a 21.911496
_cell_length_b 7.439260
_cell_length_c 14.500072
_cell_angle_alpha 90.000000
_cell_angle_beta 90.000000
_cell_angle_gamma 90.000000
_cell_volume 2363.588815
_symmetry_space_group_name_H-M "P N M A"
_symmetry_group_IT_number 62
_symmetry_cell_setting 'orthorhombic'
loop_
_space_group_symop_operation_xyz
x,y,z
1/2-x,-y,1/2+z
1/2+x,1/2-y,1/2-z
-x,1/2+y,-z
-x,-y,-z
1/2+x,y,1/2-z
1/2-x,1/2+y,1/2+z
x,1/2-y,z
loop_
_atom_site_type_symbol
_atom_site_label
_atom_site_fract_x
_atom_site_fract_y
_atom_site_fract_z
Si Si1 0.633513 0.034884 0.952446
Si Si2 0.253773 0.957146 0.274794
Si Si3 0.260316 0.034113 0.484310
Si Si4 0.108887 0.030950 0.748270
Si Si5 0.520757 0.529765 0.293487
Si Si6 0.148933 0.530072 0.133235
Si Si7 0.460939 0.450732 0.910614
O O1 0.628051 0.250000 0.958937
O O2 0.599440 0.979171 0.859267
O O3 0.704484 0.989450 0.947393
O O4 0.606063 0.959192 0.046154
O O5 0.259701 0.750000 0.243248
O O6 0.322696 0.035308 0.268337
O O7 0.196557 0.027835 0.214715
O O8 0.243873 0.961309 0.384325
O O9 0.262440 0.250000 0.475305
O O10 0.321539 0.974553 0.535707
O O11 0.110268 0.250000 0.752946
O O12 0.050012 0.974076 0.807574
O O13 0.521258 0.750000 0.299089
O O14 0.579272 0.470389 0.352243
O O15 0.535352 0.463375 0.189078
O O16 0.148315 0.750000 0.135739
O O17 0.480490 0.250000 0.890570
O O18 0.500000 0.500000 0.000000
#
# Coordination Sequence:
#
# PCOD9461977 Si02
#       7
#     8   8   8   8   8   8   8
#     4  10  18  32  51  72 101 137 171 210 262 317
#     4  10  19  34  56  77 101 137 181 217 255 316
#     4  10  20  34  54  78 105 135 171 220 273 312
#     4   9  16  30  51  73  98 133 173 210 251 308
#     4   9  17  29  49  74  99 130 175 217 249 303
#     4   9  17  32  53  76 101 135 176 215 256 316
#     4  11  20  30  48  77 107 136 170 212 261 316
#
# _framework density 23.692782000000001
#
# number of rings (size 3 to 8) (size 9 to 14) (size 15 to 20)
#    0.000    2.286    2.857    1.286    0.000    1.714 
#    0.000    2.143    0.000    1.714    0.000    0.000 
#    0.000    0.000    0.000    0.000    0.000    0.000 
#
# Total GULP energy -312201.844114 kJ/mol
# GULP energy per Si atom -5575.032931 kJ/mol
# Density = 2.363886 g / cm^3
# Si number density = 23.692782 Si / 1000 Ang^3
#
#
#
# Elastic Constant Matrix: (Units=GPa)
#
#
# Indices 1 2 3 4 5 6 
#
# 1 113.2019 -1.2813 -9.3985 0.0000 0.0000 0.0000
# 2 -1.2813 59.7782 -9.9714 0.0000 0.0000 0.0000
# 3 -9.3985 -9.9714 20.1882 0.0000 0.0000 0.0000
# 4 0.0000 0.0000 0.0000 13.2720 0.0000 0.0000
# 5 0.0000 0.0000 0.0000 0.0000 38.7720 0.0000
# 6 0.0000 0.0000 0.0000 0.0000 0.0000 -0.4374
#
#
#
# Elastic Compliance Matrix: (Units=1/GPa)
#
#
# Indices 1 2 3 4 5 6 
#
# 1 0.009243 0.000998 0.004796 0.000000 0.000000 0.000000
# 2 0.000998 0.018338 0.009522 0.000000 0.000000 0.000000
# 3 0.004796 0.009522 0.056470 0.000000 0.000000 0.000000
# 4 0.000000 0.000000 0.000000 0.075347 0.000000 0.000000
# 5 0.000000 0.000000 0.000000 0.000000 0.025792 0.000000
# 6 0.000000 0.000000 0.000000 0.000000 0.000000 -2.286089
#
#
# Mechanical properties :
#
#
# Convention : Reuss Voigt Hill
#
# Bulk Modulus (GPa) = 8.71955 16.87400 12.79678
# Shear Modulus (GPa) = -2.38857 24.57594 11.09369
#
# Velocity S-wave (km/s) = -1.00515 3.22417 2.16621
# Velocity P-wave (km/s) = 1.53008 4.58234 3.41606
#
# Compressibility (1/GPa) = 0.11468482
#
# Stress axis : x y z
#
# Youngs Moduli (GPa) = 108.18687 54.53071 17.70854
#
# Poissons Ratio (x) = -0.05443 -0.08493
# Poissons Ratio (y) = -0.10799 -0.16863
# Poissons Ratio (z) = -0.51888 -0.51926
#
# Static dielectric constant tensor:
#      x y z
#    x 2.001050 0.000000 0.000000 
#    y 0.000000 1.919320 0.000000 
#    z 0.000000 0.000000 1.925140 
# 
# From -- ./inp_files/20371.got.cif
#   From: 2010.05.17/outbox.cif.g08.bks.cpg/sg62_11_cif.got.tgz:20371.got - 2010.06.03 15:25:27.
