data_PCOD9461632
_publ_section_title
;
Structure prediction by ZEFSAII (Michael W. Deem and Ramdas Pophale) SiO2 
 PCOD9461632
Probable space group: P N M A
;
_chemical_formula_sum "Si O2"
_cell_formula_units_Z 40
_cell_length_a 7.442889
_cell_length_b 10.367723
_cell_length_c 21.225050
_cell_angle_alpha 90.000000
_cell_angle_beta 90.000000
_cell_angle_gamma 90.000000
_cell_volume 1637.848207
_symmetry_space_group_name_H-M "P N M A"
_symmetry_group_IT_number 62
_symmetry_cell_setting 'orthorhombic'
loop_
_space_group_symop_operation_xyz
x,y,z
1/2-x,-y,1/2+z
1/2+x,1/2-y,1/2-z
-x,1/2+y,-z
-x,-y,-z
1/2+x,y,1/2-z
1/2-x,1/2+y,1/2+z
x,1/2-y,z
loop_
_atom_site_type_symbol
_atom_site_label
_atom_site_fract_x
_atom_site_fract_y
_atom_site_fract_z
Si Si1 0.846368 0.595930 0.972838
Si Si2 0.494952 0.480304 0.346535
Si Si3 0.530900 0.750000 0.154895
Si Si4 0.442880 0.750000 0.296031
Si Si5 0.359075 0.250000 0.269046
Si Si6 0.110555 0.507052 0.419070
Si Si7 0.995137 0.750000 0.642433
O O1 0.873448 0.750000 0.985692
O O2 0.868436 0.572374 0.898600
O O3 0.673144 0.546910 0.011066
O O4 0.000000 0.500000 0.000000
O O5 0.539398 0.620396 0.319451
O O6 0.462889 0.378748 0.291001
O O7 0.302402 0.494985 0.381781
O O8 0.429955 0.750000 0.220880
O O9 0.502974 0.876321 0.112983
O O10 0.742362 0.750000 0.175082
O O11 0.347525 0.250000 0.193900
O O12 0.178586 0.250000 0.310830
O O13 0.018989 0.372507 0.402554
#
# Coordination Sequence:
#
# PCOD9461632 Si02
#       7
#     8   8   4   4   4   8   4
#     4  10  18  28  46  70  99 127 156 198 252 292
#     4   9  18  29  46  69  98 124 158 197 242 284
#     4  10  18  33  47  71  97 130 161 194 238 284
#     4  10  20  31  49  71  99 130 159 198 234 286
#     4  10  18  33  47  71  97 130 161 194 238 284
#     4   9  18  29  46  69  98 124 158 197 242 284
#     4  10  20  31  49  71  99 130 159 198 234 286
#
# _framework density 24.422288000000002
#
# number of rings (size 3 to 8) (size 9 to 14) (size 15 to 20)
#    0.000    2.400    2.000    1.200    8.400    0.000 
#    0.000    0.000    0.000    0.000    0.000    8.400 
#    0.000    0.000    0.000    0.000    0.000    0.000 
#
# Total GULP energy -223788.734707 kJ/mol
# GULP energy per Si atom -5594.718368 kJ/mol
# Density = 2.436670 g / cm^3
# Si number density = 24.422288 Si / 1000 Ang^3
#
#
#
# Elastic Constant Matrix: (Units=GPa)
#
#
# Indices 1 2 3 4 5 6 
#
# 1 74.0257 48.0769 25.2206 0.0000 0.0000 0.0000
# 2 48.0769 211.3071 56.8356 0.0000 0.0000 0.0000
# 3 25.2206 56.8356 125.4290 0.0000 0.0000 0.0000
# 4 0.0000 0.0000 0.0000 47.7601 0.0000 0.0000
# 5 0.0000 0.0000 0.0000 0.0000 16.9286 0.0000
# 6 0.0000 0.0000 0.0000 0.0000 0.0000 7.6568
#
#
#
# Elastic Compliance Matrix: (Units=1/GPa)
#
#
# Indices 1 2 3 4 5 6 
#
# 1 0.016203 -0.003200 -0.001808 0.000000 0.000000 0.000000
# 2 -0.003200 0.006021 -0.002085 0.000000 0.000000 0.000000
# 3 -0.001808 -0.002085 0.009281 0.000000 0.000000 0.000000
# 4 0.000000 0.000000 0.000000 0.020938 0.000000 0.000000
# 5 0.000000 0.000000 0.000000 0.000000 0.059072 0.000000
# 6 0.000000 0.000000 0.000000 0.000000 0.000000 0.130602
#
#
# Mechanical properties :
#
#
# Convention : Reuss Voigt Hill
#
# Bulk Modulus (GPa) = 57.73943 74.55866 66.14904
# Shear Modulus (GPa) = 19.07837 33.17769 26.12803
#
# Velocity S-wave (km/s) = 2.79800 3.68978 3.27439
# Velocity P-wave (km/s) = 5.84225 6.98197 6.43738
#
# Compressibility (1/GPa) = 0.01731919
#
# Stress axis : x y z
#
# Youngs Moduli (GPa) = 61.71603 166.07478 107.74796
#
# Poissons Ratio (x) = 0.53149 0.19480
# Poissons Ratio (y) = 0.19751 0.22465
# Poissons Ratio (z) = 0.11158 0.34626
#
# Static dielectric constant tensor:
#      x y z
#    x 2.001560 0.000000 0.000000 
#    y 0.000000 1.987870 0.000000 
#    z 0.000000 0.000000 1.915180 
# 
# From -- ./inp_files/4335.got.cif
#   From: 2010.05.17/outbox.cif.g08.bks.cpg/sg62_3_cif.got.tgz:4335.got - 2010.06.03 15:25:27.
