data_PCOD9461773
_publ_section_title
;
Structure prediction by ZEFSAII (Michael W. Deem and Ramdas Pophale) SiO2 
 PCOD9461773
Probable space group: P N M A
;
_chemical_formula_sum "Si O2"
_cell_formula_units_Z 56
_cell_length_a 13.989805
_cell_length_b 17.825256
_cell_length_c 10.133251
_cell_angle_alpha 90.000000
_cell_angle_beta 90.000000
_cell_angle_gamma 90.000000
_cell_volume 2526.947604
_symmetry_space_group_name_H-M "P N M A"
_symmetry_group_IT_number 62
_symmetry_cell_setting 'orthorhombic'
loop_
_space_group_symop_operation_xyz
x,y,z
1/2-x,-y,1/2+z
1/2+x,1/2-y,1/2-z
-x,1/2+y,-z
-x,-y,-z
1/2+x,y,1/2-z
1/2-x,1/2+y,1/2+z
x,1/2-y,z
loop_
_atom_site_type_symbol
_atom_site_label
_atom_site_fract_x
_atom_site_fract_y
_atom_site_fract_z
Si Si1 0.680775 0.618405 0.770607
Si Si2 0.605506 0.360594 0.305919
Si Si3 0.269869 0.984130 0.919948
Si Si4 0.440498 0.423321 0.978349
Si Si5 0.888264 0.833963 0.510227
Si Si6 0.567153 0.668248 0.509957
Si Si7 0.909260 0.486325 0.905932
O O1 0.780909 0.654493 0.817274
O O2 0.714443 0.538219 0.712450
O O3 0.607010 0.607019 0.887035
O O4 0.632560 0.656083 0.641828
O O5 0.580244 0.328115 0.163792
O O6 0.539713 0.335899 0.427242
O O7 0.583049 0.450295 0.295021
O O8 0.315888 0.905827 0.978361
O O9 0.187873 0.008870 0.019836
O O10 0.347288 0.048902 0.900001
O O11 0.518658 0.363088 0.931041
O O12 0.500000 0.500000 0.000000
O O13 0.854911 0.750000 0.470652
O O14 0.585024 0.750000 0.455225
O O15 0.588805 0.603606 0.403543
O O16 0.000000 0.500000 0.000000
#
# Coordination Sequence:
#
# PCOD9461773 Si02
#       7
#     8   8   8   8   8   8   8
#     4  10  19  31  52  77 108 142 182 229 276 329
#     4  10  18  30  48  73 108 141 178 218 275 330
#     4   9  19  33  52  77 111 148 190 222 275 337
#     4  10  19  34  54  80 114 144 188 225 278 339
#     4  10  20  33  53  85 117 141 175 232 296 344
#     4  10  20  32  47  74 109 144 176 222 284 333
#     4   9  18  31  47  67 103 147 186 218 260 329
#
# _framework density 22.161124000000001
#
# number of rings (size 3 to 8) (size 9 to 14) (size 15 to 20)
#    0.000    2.286    2.857    0.429    0.000    5.714 
#    0.000    0.000    0.000    0.000    0.000   20.000 
#    0.000   11.429    0.000    0.000    0.000    0.000 
#
# Total GULP energy -311834.210137 kJ/mol
# GULP energy per Si atom -5568.468038 kJ/mol
# Density = 2.211068 g / cm^3
# Si number density = 22.161124 Si / 1000 Ang^3
#
#
#
# Elastic Constant Matrix: (Units=GPa)
#
#
# Indices 1 2 3 4 5 6 
#
# 1 120.3159 16.6275 9.0245 0.0000 0.0000 0.0000
# 2 16.6275 126.3897 14.7468 0.0000 0.0000 0.0000
# 3 9.0245 14.7468 16.0175 0.0000 0.0000 0.0000
# 4 0.0000 0.0000 0.0000 19.6017 0.0000 0.0000
# 5 0.0000 0.0000 0.0000 0.0000 24.9720 0.0000
# 6 0.0000 0.0000 0.0000 0.0000 0.0000 7.6172
#
#
#
# Elastic Compliance Matrix: (Units=1/GPa)
#
#
# Indices 1 2 3 4 5 6 
#
# 1 0.008725 -0.000643 -0.004323 0.000000 0.000000 0.000000
# 2 -0.000643 0.008912 -0.007842 0.000000 0.000000 0.000000
# 3 -0.004323 -0.007842 0.072088 0.000000 0.000000 0.000000
# 4 0.000000 0.000000 0.000000 0.051016 0.000000 0.000000
# 5 0.000000 0.000000 0.000000 0.000000 0.040045 0.000000
# 6 0.000000 0.000000 0.000000 0.000000 0.000000 0.131282
#
#
# Mechanical properties :
#
#
# Convention : Reuss Voigt Hill
#
# Bulk Modulus (GPa) = 15.59911 38.16897 26.88404
# Shear Modulus (GPa) = 13.92552 25.25981 19.59266
#
# Velocity S-wave (km/s) = 2.50946 3.37979 2.97661
# Velocity P-wave (km/s) = 3.93075 5.70013 4.89603
#
# Compressibility (1/GPa) = 0.06410623
#
# Stress axis : x y z
#
# Youngs Moduli (GPa) = 114.61789 112.21222 13.87201
#
# Poissons Ratio (x) = 0.07219 0.05997
# Poissons Ratio (y) = 0.07374 0.10879
# Poissons Ratio (z) = 0.49552 0.87999
#
# Static dielectric constant tensor:
#      x y z
#    x 1.889310 0.000000 0.000000 
#    y 0.000000 1.869490 0.000000 
#    z 0.000000 0.000000 1.839810 
# 
# From -- ./inp_files/19207.got.cif
#   From: 2010.05.17/outbox.cif.g08.bks.cpg/sg62_10_cif.got.tgz:19207.got - 2010.06.03 15:25:27.
