data_PCOD9461899
_publ_section_title
;
Structure prediction by ZEFSAII (Michael W. Deem and Ramdas Pophale) SiO2 
 PCOD9461899
Probable space group: P N M A
;
_chemical_formula_sum "Si O2"
_cell_formula_units_Z 48
_cell_length_a 18.814758
_cell_length_b 8.680863
_cell_length_c 16.634954
_cell_angle_alpha 90.000000
_cell_angle_beta 90.000000
_cell_angle_gamma 90.000000
_cell_volume 2716.959366
_symmetry_space_group_name_H-M "P N M A"
_symmetry_group_IT_number 62
_symmetry_cell_setting 'orthorhombic'
loop_
_space_group_symop_operation_xyz
x,y,z
1/2-x,-y,1/2+z
1/2+x,1/2-y,1/2-z
-x,1/2+y,-z
-x,-y,-z
1/2+x,y,1/2-z
1/2-x,1/2+y,1/2+z
x,1/2-y,z
loop_
_atom_site_type_symbol
_atom_site_label
_atom_site_fract_x
_atom_site_fract_y
_atom_site_fract_z
Si Si1 0.338606 0.931795 0.658890
Si Si2 0.421031 0.434068 0.505525
Si Si3 0.659110 0.933305 0.172327
Si Si4 0.791861 0.567562 0.419547
Si Si5 0.078825 0.934516 0.494245
Si Si6 0.791230 0.934220 0.072433
O O1 0.342109 0.750000 0.645698
O O2 0.385520 0.013634 0.590021
O O3 0.362318 0.977265 0.748039
O O4 0.257256 0.989343 0.647656
O O5 0.500000 0.500000 0.500000
O O6 0.420679 0.250000 0.500447
O O7 0.371074 0.505205 0.435259
O O8 0.651564 0.750000 0.186015
O O9 0.613407 0.973247 0.092919
O O10 0.741885 0.963052 0.149466
O O11 0.793008 0.750000 0.408404
O O12 0.870209 0.503222 0.436559
O O13 0.749508 0.521391 0.500642
O O14 0.079234 0.750000 0.500682
O O15 0.000000 0.000000 0.500000
O O16 0.789396 0.750000 0.057350
#
# Coordination Sequence:
#
# PCOD9461899 Si02
#       6
#     8   8   8   8   8   8
#     4  11  21  34  54  79 106 136 175 220 262 308
#     4  11  21  35  55  78 107 140 176 215 261 316
#     4   9  19  35  54  77 106 138 171 214 265 311
#     4  10  18  31  52  75 101 134 172 210 252 304
#     4  10  20  35  55  79 108 140 176 216 261 315
#     4   9  17  32  53  76 102 132 170 211 253 304
#
# _framework density 17.666808
#
# number of rings (size 3 to 8) (size 9 to 14) (size 15 to 20)
#    0.000    2.000    0.000    8.500    0.000    4.000 
#    0.000    1.667    0.000   10.000    0.000    0.000 
#    0.000    0.000    0.000    0.000    0.000    0.000 
#
# Total GULP energy -267661.717656 kJ/mol
# GULP energy per Si atom -5576.285785 kJ/mol
# Density = 1.762660 g / cm^3
# Si number density = 17.666808 Si / 1000 Ang^3
#
#
#
# Elastic Constant Matrix: (Units=GPa)
#
#
# Indices 1 2 3 4 5 6 
#
# 1 130.9058 33.0816 21.3270 0.0000 0.0000 0.0000
# 2 33.0816 92.9016 24.8296 0.0000 0.0000 0.0000
# 3 21.3270 24.8296 60.0837 0.0000 0.0000 0.0000
# 4 0.0000 0.0000 0.0000 25.3415 0.0000 0.0000
# 5 0.0000 0.0000 0.0000 0.0000 14.7937 0.0000
# 6 0.0000 0.0000 0.0000 0.0000 0.0000 33.7394
#
#
#
# Elastic Compliance Matrix: (Units=1/GPa)
#
#
# Indices 1 2 3 4 5 6 
#
# 1 0.008605 -0.002527 -0.002010 0.000000 0.000000 0.000000
# 2 -0.002527 0.012843 -0.004410 0.000000 0.000000 0.000000
# 3 -0.002010 -0.004410 0.019180 0.000000 0.000000 0.000000
# 4 0.000000 0.000000 0.000000 0.039461 0.000000 0.000000
# 5 0.000000 0.000000 0.000000 0.000000 0.067596 0.000000
# 6 0.000000 0.000000 0.000000 0.000000 0.000000 0.029639
#
#
# Mechanical properties :
#
#
# Convention : Reuss Voigt Hill
#
# Bulk Modulus (GPa) = 43.98990 49.15194 46.57092
# Shear Modulus (GPa) = 24.65531 28.41844 26.53688
#
# Velocity S-wave (km/s) = 3.73979 4.01506 3.87987
# Velocity P-wave (km/s) = 6.60317 7.02683 6.81829
#
# Compressibility (1/GPa) = 0.02273249
#
# Stress axis : x y z
#
# Youngs Moduli (GPa) = 116.20915 77.86561 52.13899
#
# Poissons Ratio (x) = 0.19677 0.10481
# Poissons Ratio (y) = 0.29366 0.22995
# Poissons Ratio (z) = 0.23360 0.34341
#
# Static dielectric constant tensor:
#      x y z
#    x 1.637310 0.000000 0.000000 
#    y 0.000000 1.587220 0.000000 
#    z 0.000000 0.000000 1.623080 
# 
# From -- ./inp_files/24230.got.cif
#   From: 2010.05.17/outbox.cif.g08.bks.cpg/sg62_13_cif.got.tgz:24230.got - 2010.06.03 15:25:27.
