data_PCOD9461233
_publ_section_title
;
Structure prediction by ZEFSAII (Michael W. Deem and Ramdas Pophale) SiO2 
 PCOD9461233
Probable space group: P B C A
;
_chemical_formula_sum "Si O2"
_cell_formula_units_Z 24
_cell_length_a 9.758650
_cell_length_b 5.390065
_cell_length_c 15.189627
_cell_angle_alpha 90.000000
_cell_angle_beta 90.000000
_cell_angle_gamma 90.000000
_cell_volume 798.970701
_symmetry_space_group_name_H-M "P B C A"
_symmetry_group_IT_number 61
_symmetry_cell_setting 'orthorhombic'
loop_
_space_group_symop_operation_xyz
x,y,z
1/2-x,-y,1/2+z
1/2+x,1/2-y,-z
-x,1/2+y,1/2-z
-x,-y,-z
1/2+x,y,1/2-z
1/2-x,1/2+y,z
x,1/2-y,1/2+z
loop_
_atom_site_type_symbol
_atom_site_label
_atom_site_fract_x
_atom_site_fract_y
_atom_site_fract_z
Si Si1 0.342832 0.510999 0.756118
Si Si2 0.949894 0.207304 0.893436
Si Si3 0.709048 0.324356 0.520558
O O1 0.240666 0.271196 0.758667
O O2 0.422918 0.450604 0.665173
O O3 0.464149 0.529279 0.828943
O O4 0.050530 0.258540 0.975393
O O5 0.805093 0.129093 0.935379
O O6 0.722060 0.588758 0.566966
#
# Coordination Sequence:
#
# PCOD9461233 Si02
#       3
#     8   8   8
#     4  12  28  50  82 126 172 226 288 362 434 522
#     4  12  28  54  86 126 172 230 296 366 444 526
#     4  12  28  50  82 124 170 226 288 362 438 526
#
# _framework density 30.038650000000001
#
# number of rings (size 3 to 8) (size 9 to 14) (size 15 to 20)
#    0.000    0.000    0.000    8.000    0.000   10.667 
#    0.000    0.000    0.000    4.000    0.000    0.000 
#    0.000    0.000    0.000    0.000    0.000    0.000 
#
# Total GULP energy -134368.295062 kJ/mol
# GULP energy per Si atom -5598.678961 kJ/mol
# Density = 2.997028 g / cm^3
# Si number density = 30.038650 Si / 1000 Ang^3
#
#
#
# Elastic Constant Matrix: (Units=GPa)
#
#
# Indices 1 2 3 4 5 6 
#
# 1 221.5625 76.7618 135.3519 0.0000 0.0000 0.0000
# 2 76.7618 242.4976 48.0197 0.0000 0.0000 0.0000
# 3 135.3519 48.0197 164.3284 0.0000 0.0000 0.0000
# 4 0.0000 0.0000 0.0000 51.9346 0.0000 0.0000
# 5 0.0000 0.0000 0.0000 0.0000 92.6420 0.0000
# 6 0.0000 0.0000 0.0000 0.0000 0.0000 86.7470
#
#
#
# Elastic Compliance Matrix: (Units=1/GPa)
#
#
# Indices 1 2 3 4 5 6 
#
# 1 0.009614 -0.001566 -0.007461 0.000000 0.000000 0.000000
# 2 -0.001566 0.004632 -0.000064 0.000000 0.000000 0.000000
# 3 -0.007461 -0.000064 0.012249 0.000000 0.000000 0.000000
# 4 0.000000 0.000000 0.000000 0.019255 0.000000 0.000000
# 5 0.000000 0.000000 0.000000 0.000000 0.010794 0.000000
# 6 0.000000 0.000000 0.000000 0.000000 0.000000 0.011528
#
#
# Mechanical properties :
#
#
# Convention : Reuss Voigt Hill
#
# Bulk Modulus (GPa) = 120.28031 127.62837 123.95434
# Shear Modulus (GPa) = 56.16402 70.81504 63.48953
#
# Velocity S-wave (km/s) = 4.32872 4.86064 4.60237
# Velocity P-wave (km/s) = 8.06924 8.60705 8.34248
#
# Compressibility (1/GPa) = 0.00831391
#
# Stress axis : x y z
#
# Youngs Moduli (GPa) = 104.01728 215.88750 81.63636
#
# Poissons Ratio (x) = 0.33803 0.60909
# Poissons Ratio (y) = 0.16287 0.00522
# Poissons Ratio (z) = 0.77607 0.01379
#
# Static dielectric constant tensor:
#      x y z
#    x 2.240370 0.000000 0.000000 
#    y 0.000000 2.401350 0.000000 
#    z 0.000000 0.000000 2.434310 
# 
# From -- ./inp_files/7299.got.cif
#   From: 2010.05.17/outbox.cif.g08.bks.cpg/sg61_4_cif.got.tgz:7299.got - 2010.06.03 15:17:17.
