data_PCOD9461996
_publ_section_title
;
Structure prediction by ZEFSAII (Michael W. Deem and Ramdas Pophale) SiO2 
 PCOD9461996
Probable space group: P N M A
;
_chemical_formula_sum "Si O2"
_cell_formula_units_Z 24
_cell_length_a 9.441263
_cell_length_b 11.238184
_cell_length_c 8.055816
_cell_angle_alpha 90.000000
_cell_angle_beta 90.000000
_cell_angle_gamma 90.000000
_cell_volume 854.743432
_symmetry_space_group_name_H-M "P N M A"
_symmetry_group_IT_number 62
_symmetry_cell_setting 'orthorhombic'
loop_
_space_group_symop_operation_xyz
x,y,z
1/2-x,-y,1/2+z
1/2+x,1/2-y,1/2-z
-x,1/2+y,-z
-x,-y,-z
1/2+x,y,1/2-z
1/2-x,1/2+y,1/2+z
x,1/2-y,z
loop_
_atom_site_type_symbol
_atom_site_label
_atom_site_fract_x
_atom_site_fract_y
_atom_site_fract_z
Si Si1 0.679899 0.122347 0.036405
Si Si2 0.922118 0.071809 0.252466
Si Si3 0.652382 0.116539 0.529321
O O1 0.706045 0.250000 0.952899
O O2 0.518468 0.109750 0.094669
O O3 0.772712 0.129387 0.207286
O O4 0.740639 0.992903 0.980524
O O5 0.019302 0.113025 0.093760
O O6 0.905149 0.930638 0.210096
O O7 0.708989 0.250000 0.542602
#
# Coordination Sequence:
#
# PCOD9461996 Si02
#       3
#     8   8   8
#     4  10  18  32  53  76  98 131 171 203 243 297
#     4   9  20  32  56  73 101 132 169 200 247 299
#     4   9  19  34  53  74 102 134 166 202 251 298
#
# _framework density 28.078600999999999
#
# number of rings (size 3 to 8) (size 9 to 14) (size 15 to 20)
#    2.000    0.667    0.000    3.000    0.000    1.333 
#    0.000    1.667    0.000    0.000    0.000    0.000 
#    0.000    0.000    0.000    0.000    0.000    0.000 
#
# Total GULP energy -133807.657252 kJ/mol
# GULP energy per Si atom -5575.319052 kJ/mol
# Density = 2.801469 g / cm^3
# Si number density = 28.078601 Si / 1000 Ang^3
#
#
#
# Elastic Constant Matrix: (Units=GPa)
#
#
# Indices 1 2 3 4 5 6 
#
# 1 150.1342 34.4000 -23.1864 0.0000 0.0000 0.0000
# 2 34.4000 309.7718 40.2805 0.0000 0.0000 0.0000
# 3 -23.1864 40.2805 22.3056 0.0000 0.0000 0.0000
# 4 0.0000 0.0000 0.0000 42.7289 0.0000 0.0000
# 5 0.0000 0.0000 0.0000 0.0000 34.6839 0.0000
# 6 0.0000 0.0000 0.0000 0.0000 0.0000 31.7644
#
#
#
# Elastic Compliance Matrix: (Units=1/GPa)
#
#
# Indices 1 2 3 4 5 6 
#
# 1 0.009853 -0.003171 0.015968 0.000000 0.000000 0.000000
# 2 -0.003171 0.005239 -0.012757 0.000000 0.000000 0.000000
# 3 0.015968 -0.012757 0.084467 0.000000 0.000000 0.000000
# 4 0.000000 0.000000 0.000000 0.023403 0.000000 0.000000
# 5 0.000000 0.000000 0.000000 0.000000 0.028832 0.000000
# 6 0.000000 0.000000 0.000000 0.000000 0.000000 0.031482
#
#
# Mechanical properties :
#
#
# Convention : Reuss Voigt Hill
#
# Bulk Modulus (GPa) = 10.03614 65.02221 37.52918
# Shear Modulus (GPa) = 23.10452 50.54994 36.82723
#
# Velocity S-wave (km/s) = 2.87165 4.24760 3.62550
# Velocity P-wave (km/s) = 3.81801 6.87485 5.56061
#
# Compressibility (1/GPa) = 0.09963990
#
# Stress axis : x y z
#
# Youngs Moduli (GPa) = 101.49005 190.87434 11.83901
#
# Poissons Ratio (x) = 0.60517 -0.18904
# Poissons Ratio (y) = 0.32178 0.15103
# Poissons Ratio (z) = -1.62056 2.43491
#
# Static dielectric constant tensor:
#      x y z
#    x 2.231670 0.000000 0.000000 
#    y 0.000000 2.260110 0.000000 
#    z 0.000000 0.000000 2.582110 
# 
# From -- ./inp_files/4709.got.cif
#   From: 2010.05.17/outbox.cif.g08.bks.cpg/sg62_3_cif.got.tgz:4709.got - 2010.06.03 15:25:27.
