data_PCOD9461509
_publ_section_title
;
Structure prediction by ZEFSAII (Michael W. Deem and Ramdas Pophale) SiO2 
 PCOD9461509
Probable space group: P N M A
;
_chemical_formula_sum "Si O2"
_cell_formula_units_Z 36
_cell_length_a 12.521277
_cell_length_b 21.209092
_cell_length_c 4.599812
_cell_angle_alpha 90.000000
_cell_angle_beta 90.000000
_cell_angle_gamma 90.000000
_cell_volume 1221.548687
_symmetry_space_group_name_H-M "P N M A"
_symmetry_group_IT_number 62
_symmetry_cell_setting 'orthorhombic'
loop_
_space_group_symop_operation_xyz
x,y,z
1/2-x,-y,1/2+z
1/2+x,1/2-y,1/2-z
-x,1/2+y,-z
-x,-y,-z
1/2+x,y,1/2-z
1/2-x,1/2+y,1/2+z
x,1/2-y,z
loop_
_atom_site_type_symbol
_atom_site_label
_atom_site_fract_x
_atom_site_fract_y
_atom_site_fract_z
Si Si1 0.167470 0.145999 0.627944
Si Si2 0.017825 0.555616 0.267637
Si Si3 0.794386 0.037421 0.148331
Si Si4 0.637467 0.821632 0.007080
Si Si5 0.489263 0.750000 0.830264
O O1 0.242546 0.105502 0.410901
O O2 0.244113 0.178895 0.865841
O O3 0.095462 0.194355 0.446366
O O4 0.091840 0.094217 0.782076
O O5 0.224529 0.513356 0.530360
O O6 0.089129 0.612512 0.403057
O O7 0.000000 0.500000 0.500000
O O8 0.911006 0.035456 0.007166
O O9 0.587367 0.750000 0.106173
O O10 0.577328 0.806881 0.702304
#
# Coordination Sequence:
#
# PCOD9461509 Si02
#       5
#     8   8   8   8   4
#     4  10  17  33  57  90 130 168 219 276 333 401
#     4  10  19  35  58  92 132 175 217 273 341 403
#     4  11  24  41  64  97 134 173 221 277 335 401
#     4   8  16  27  52  89 123 168 223 276 332 401
#     4   8  14  28  54  88 120 166 216 270 336 398
#
# _framework density 29.470783999999998
#
# number of rings (size 3 to 8) (size 9 to 14) (size 15 to 20)
#    0.667    1.778    3.333    0.000    0.000    0.889 
#    0.000    0.000    0.000    1.333    2.889    0.000 
#    0.000    0.000    0.000    0.000    0.000    0.000 
#
# Total GULP energy -200568.653335 kJ/mol
# GULP energy per Si atom -5571.351482 kJ/mol
# Density = 2.940371 g / cm^3
# Si number density = 29.470784 Si / 1000 Ang^3
#
#
#
# Elastic Constant Matrix: (Units=GPa)
#
#
# Indices 1 2 3 4 5 6 
#
# 1 194.5113 86.7902 22.1697 0.0000 0.0000 0.0000
# 2 86.7902 217.5250 55.4930 0.0000 0.0000 0.0000
# 3 22.1697 55.4930 104.7701 0.0000 0.0000 0.0000
# 4 0.0000 0.0000 0.0000 25.7557 0.0000 0.0000
# 5 0.0000 0.0000 0.0000 0.0000 33.9918 0.0000
# 6 0.0000 0.0000 0.0000 0.0000 0.0000 81.8115
#
#
#
# Elastic Compliance Matrix: (Units=1/GPa)
#
#
# Indices 1 2 3 4 5 6 
#
# 1 0.006255 -0.002495 -0.000002 0.000000 0.000000 0.000000
# 2 -0.002495 0.006311 -0.002815 0.000000 0.000000 0.000000
# 3 -0.000002 -0.002815 0.011036 0.000000 0.000000 0.000000
# 4 0.000000 0.000000 0.000000 0.038826 0.000000 0.000000
# 5 0.000000 0.000000 0.000000 0.000000 0.029419 0.000000
# 6 0.000000 0.000000 0.000000 0.000000 0.000000 0.012223
#
#
# Mechanical properties :
#
#
# Convention : Reuss Voigt Hill
#
# Bulk Modulus (GPa) = 77.05330 93.96803 85.51066
# Shear Modulus (GPa) = 42.01016 51.80203 46.90609
#
# Velocity S-wave (km/s) = 3.77966 4.19709 3.99383
# Velocity P-wave (km/s) = 6.72682 7.44593 7.09549
#
# Compressibility (1/GPa) = 0.01297803
#
# Stress axis : x y z
#
# Youngs Moduli (GPa) = 159.88288 158.46128 90.61319
#
# Poissons Ratio (x) = 0.39536 0.00018
# Poissons Ratio (y) = 0.39891 0.25504
# Poissons Ratio (z) = 0.00032 0.44600
#
# Static dielectric constant tensor:
#      x y z
#    x 2.464060 0.000000 0.000000 
#    y 0.000000 2.365970 0.000000 
#    z 0.000000 0.000000 2.334000 
# 
# From -- ./inp_files/980.got.cif
#   From: 2010.05.17/outbox.cif.g08.bks.cpg/sg62_1_cif.got.tgz:980.got - 2010.06.03 15:25:27.
