data_PCOD9461948
_publ_section_title
;
Structure prediction by ZEFSAII (Michael W. Deem and Ramdas Pophale) SiO2 
 PCOD9461948
Probable space group: P N M A
;
_chemical_formula_sum "Si O2"
_cell_formula_units_Z 48
_cell_length_a 5.463460
_cell_length_b 21.303866
_cell_length_c 18.465959
_cell_angle_alpha 90.000000
_cell_angle_beta 90.000000
_cell_angle_gamma 90.000000
_cell_volume 2149.305037
_symmetry_space_group_name_H-M "P N M A"
_symmetry_group_IT_number 62
_symmetry_cell_setting 'orthorhombic'
loop_
_space_group_symop_operation_xyz
x,y,z
1/2-x,-y,1/2+z
1/2+x,1/2-y,1/2-z
-x,1/2+y,-z
-x,-y,-z
1/2+x,y,1/2-z
1/2-x,1/2+y,1/2+z
x,1/2-y,z
loop_
_atom_site_type_symbol
_atom_site_label
_atom_site_fract_x
_atom_site_fract_y
_atom_site_fract_z
Si Si1 0.027484 0.574294 0.574230
Si Si2 0.414596 0.250000 0.584184
Si Si3 0.792418 0.049507 0.930729
Si Si4 0.913220 0.250000 0.676178
Si Si5 0.290767 0.518468 0.792085
Si Si6 0.173914 0.137187 0.976247
Si Si7 0.964765 0.118895 0.667285
O O1 0.228011 0.520542 0.591299
O O2 0.183030 0.635543 0.551909
O O3 0.886477 0.561983 0.498749
O O4 0.836104 0.562612 0.638015
O O5 0.152034 0.250000 0.622063
O O6 0.465679 0.310861 0.534099
O O7 0.637976 0.250000 0.642605
O O8 0.724671 0.091926 0.860601
O O9 0.053523 0.069249 0.960162
O O10 0.950648 0.181808 0.714696
O O11 0.526815 0.530565 0.741672
O O12 0.316654 0.443314 0.809416
O O13 0.351283 0.144326 0.908082
#
# Coordination Sequence:
#
# PCOD9461948 Si02
#       7
#     8   4   8   4   8   8   8
#     4   9  20  32  51  81 103 145 178 225 280 329
#     4  10  20  30  52  87 118 139 170 208 285 330
#     4   9  16  30  53  80 109 135 175 218 276 344
#     4  10  18  34  52  79 110 147 180 220 263 332
#     4  11  26  40  54  75 108 146 193 238 269 313
#     4  10  18  31  57  81 115 140 171 224 276 353
#     4   9  20  34  53  79 108 148 183 222 278 320
#
# _framework density 22.332799999999999
#
# number of rings (size 3 to 8) (size 9 to 14) (size 15 to 20)
#    0.000    2.333    1.667    1.500    7.000    0.000 
#    0.000    0.833    0.000    0.000    0.000    1.167 
#    0.000    0.000    0.000    0.000    0.000    0.000 
#
# Total GULP energy -267507.537732 kJ/mol
# GULP energy per Si atom -5573.073703 kJ/mol
# Density = 2.228197 g / cm^3
# Si number density = 22.332800 Si / 1000 Ang^3
#
#
#
# Elastic Constant Matrix: (Units=GPa)
#
#
# Indices 1 2 3 4 5 6 
#
# 1 106.8522 19.8452 27.7949 0.0000 0.0000 0.0000
# 2 19.8452 35.2853 20.1119 0.0000 0.0000 0.0000
# 3 27.7949 20.1119 66.3257 0.0000 0.0000 0.0000
# 4 0.0000 0.0000 0.0000 18.2348 0.0000 0.0000
# 5 0.0000 0.0000 0.0000 0.0000 44.4731 0.0000
# 6 0.0000 0.0000 0.0000 0.0000 0.0000 27.8774
#
#
#
# Elastic Compliance Matrix: (Units=1/GPa)
#
#
# Indices 1 2 3 4 5 6 
#
# 1 0.011021 -0.004311 -0.003311 0.000000 0.000000 0.000000
# 2 -0.004311 0.035948 -0.009094 0.000000 0.000000 0.000000
# 3 -0.003311 -0.009094 0.019222 0.000000 0.000000 0.000000
# 4 0.000000 0.000000 0.000000 0.054840 0.000000 0.000000
# 5 0.000000 0.000000 0.000000 0.000000 0.022485 0.000000
# 6 0.000000 0.000000 0.000000 0.000000 0.000000 0.035871
#
#
# Mechanical properties :
#
#
# Convention : Reuss Voigt Hill
#
# Bulk Modulus (GPa) = 30.52595 38.21857 34.37226
# Shear Modulus (GPa) = 22.34730 27.49780 24.92255
#
# Velocity S-wave (km/s) = 3.16674 3.51276 3.34423
# Velocity P-wave (km/s) = 5.20282 5.79681 5.50783
#
# Compressibility (1/GPa) = 0.03275902
#
# Stress axis : x y z
#
# Youngs Moduli (GPa) = 90.73836 27.81765 52.02289
#
# Poissons Ratio (x) = 0.11992 0.17226
# Poissons Ratio (y) = 0.39117 0.47310
# Poissons Ratio (z) = 0.30045 0.25298
#
# Static dielectric constant tensor:
#      x y z
#    x 1.853940 0.000000 0.000000 
#    y 0.000000 1.940820 0.000000 
#    z 0.000000 0.000000 1.907570 
# 
# From -- ./inp_files/21605.got.cif
#   From: 2010.05.17/outbox.cif.g08.bks.cpg/sg62_11_cif.got.tgz:21605.got - 2010.06.03 15:25:27.
