data_PCOD9461174
_publ_section_title
;
Structure prediction by ZEFSAII (Michael W. Deem and Ramdas Pophale) SiO2 
 PCOD9461174
Probable space group: P B C A
;
_chemical_formula_sum "Si O2"
_cell_formula_units_Z 40
_cell_length_a 14.393784
_cell_length_b 12.991944
_cell_length_c 8.662815
_cell_angle_alpha 90.000000
_cell_angle_beta 90.000000
_cell_angle_gamma 90.000000
_cell_volume 1619.974435
_symmetry_space_group_name_H-M "P B C A"
_symmetry_group_IT_number 61
_symmetry_cell_setting 'orthorhombic'
loop_
_space_group_symop_operation_xyz
x,y,z
1/2-x,-y,1/2+z
1/2+x,1/2-y,-z
-x,1/2+y,1/2-z
-x,-y,-z
1/2+x,y,1/2-z
1/2-x,1/2+y,z
x,1/2-y,1/2+z
loop_
_atom_site_type_symbol
_atom_site_label
_atom_site_fract_x
_atom_site_fract_y
_atom_site_fract_z
Si Si1 0.894267 0.115955 0.641459
Si Si2 0.142104 0.181181 0.097183
Si Si3 0.582463 0.377699 0.223732
Si Si4 0.757453 0.030652 0.186092
Si Si5 0.327566 0.298059 0.030905
O O1 0.897537 0.208146 0.519823
O O2 0.993340 0.073800 0.693975
O O3 0.820724 0.030754 0.590061
O O4 0.851983 0.166052 0.798059
O O5 0.091679 0.262931 0.206867
O O6 0.195832 0.094733 0.193861
O O7 0.079260 0.133866 0.961896
O O8 0.225732 0.246282 0.019513
O O9 0.673353 0.445519 0.254257
O O10 0.820794 0.106678 0.085314
#
# Coordination Sequence:
#
# PCOD9461174 Si02
#       5
#     8   8   8   8   8
#     4  12  27  45  73 108 141 184 237 290 348 420
#     4  12  23  48  72  98 145 190 227 287 357 413
#     4  12  27  45  73 108 141 184 237 290 348 420
#     4  12  24  44  76  98 140 182 236 288 350 412
#     4  12  23  48  72  98 145 190 227 287 357 413
#
# _framework density 24.691748
#
# number of rings (size 3 to 8) (size 9 to 14) (size 15 to 20)
#    0.000    0.000    8.000    2.400    0.000    4.800 
#    0.000    2.000    0.000    0.000    0.000    0.000 
#    0.000    0.000    0.000    0.000    0.000    0.000 
#
# Total GULP energy -224179.943479 kJ/mol
# GULP energy per Si atom -5604.498587 kJ/mol
# Density = 2.463555 g / cm^3
# Si number density = 24.691748 Si / 1000 Ang^3
#
#
#
# Elastic Constant Matrix: (Units=GPa)
#
#
# Indices 1 2 3 4 5 6 
#
# 1 66.7581 5.5811 -25.2318 0.0000 0.0000 0.0000
# 2 5.5811 96.4386 16.5800 0.0000 0.0000 0.0000
# 3 -25.2318 16.5800 72.6920 0.0000 0.0000 0.0000
# 4 0.0000 0.0000 0.0000 27.7577 0.0000 0.0000
# 5 0.0000 0.0000 0.0000 0.0000 24.5367 0.0000
# 6 0.0000 0.0000 0.0000 0.0000 0.0000 20.9351
#
#
#
# Elastic Compliance Matrix: (Units=1/GPa)
#
#
# Indices 1 2 3 4 5 6 
#
# 1 0.017664 -0.002161 0.006624 0.000000 0.000000 0.000000
# 2 -0.002161 0.011057 -0.003272 0.000000 0.000000 0.000000
# 3 0.006624 -0.003272 0.016802 0.000000 0.000000 0.000000
# 4 0.000000 0.000000 0.000000 0.036026 0.000000 0.000000
# 5 0.000000 0.000000 0.000000 0.000000 0.040755 0.000000
# 6 0.000000 0.000000 0.000000 0.000000 0.000000 0.047767
#
#
# Mechanical properties :
#
#
# Convention : Reuss Voigt Hill
#
# Bulk Modulus (GPa) = 20.87472 25.52749 23.20110
# Shear Modulus (GPa) = 27.22464 30.57653 28.90058
#
# Velocity S-wave (km/s) = 3.32411 3.52281 3.42490
# Velocity P-wave (km/s) = 4.81721 5.18727 5.00566
#
# Compressibility (1/GPa) = 0.04790483
#
# Stress axis : x y z
#
# Youngs Moduli (GPa) = 56.61315 90.44134 59.51589
#
# Poissons Ratio (x) = 0.19545 -0.39424
# Poissons Ratio (y) = 0.12234 0.19474
# Poissons Ratio (z) = -0.37501 0.29593
#
# Static dielectric constant tensor:
#      x y z
#    x 1.944960 0.000000 0.000000 
#    y 0.000000 1.964660 0.000000 
#    z 0.000000 0.000000 1.961870 
# 
# From -- ./inp_files/2662.got.cif
#   From: 2010.05.17/outbox.cif.g08.bks.cpg/sg61_2_cif.got.tgz:2662.got - 2010.06.03 15:17:17.
