data_PCOD9461419
_publ_section_title
;
Structure prediction by ZEFSAII (Michael W. Deem and Ramdas Pophale) SiO2 
 PCOD9461419
Probable space group: P N M A
;
_chemical_formula_sum "Si O2"
_cell_formula_units_Z 56
_cell_length_a 5.388223
_cell_length_b 20.807170
_cell_length_c 30.100776
_cell_angle_alpha 90.000000
_cell_angle_beta 90.000000
_cell_angle_gamma 90.000000
_cell_volume 3374.708526
_symmetry_space_group_name_H-M "P N M A"
_symmetry_group_IT_number 62
_symmetry_cell_setting 'orthorhombic'
loop_
_space_group_symop_operation_xyz
x,y,z
1/2-x,-y,1/2+z
1/2+x,1/2-y,1/2-z
-x,1/2+y,-z
-x,-y,-z
1/2+x,y,1/2-z
1/2-x,1/2+y,1/2+z
x,1/2-y,z
loop_
_atom_site_type_symbol
_atom_site_label
_atom_site_fract_x
_atom_site_fract_y
_atom_site_fract_z
Si Si1 0.560580 0.888183 0.209179
Si Si2 0.042717 0.250000 0.860987
Si Si3 0.507900 0.542756 0.931461
Si Si4 0.063336 0.562636 0.193661
Si Si5 0.492233 0.013825 0.384866
Si Si6 0.492682 0.899280 0.025763
Si Si7 0.044745 0.250000 0.696657
Si Si8 0.006835 0.130486 0.927049
O O1 0.584355 0.932645 0.252831
O O2 0.332562 0.911394 0.179015
O O3 0.493708 0.815983 0.223173
O O4 0.822800 0.893293 0.185205
O O5 0.815007 0.250000 0.825779
O O6 0.316629 0.250000 0.838641
O O7 0.010900 0.187695 0.891925
O O8 0.764593 0.547673 0.904606
O O9 0.494059 0.591141 0.972848
O O10 0.263061 0.545254 0.901021
O O11 0.507906 0.471283 0.953201
O O12 0.012273 0.497050 0.168052
O O13 0.494128 0.940231 0.403901
O O14 0.242771 0.866571 0.043623
O O15 0.743723 0.867009 0.043519
#
# Coordination Sequence:
#
# PCOD9461419 Si02
#       8
#     8   4   8   8   8   8   4   8
#     4  10  21  33  45  57  76 108 142 184 223 254
#     4  12  24  34  47  66  82 112 150 186 226 264
#     4   9  17  27  45  65  80  97 123 154 210 266
#     4  10  20  32  44  59  78 101 136 170 222 265
#     4  10  17  28  44  62  81 101 125 170 214 258
#     4   9  17  30  44  62  81 101 123 156 203 266
#     4  12  22  34  47  58  78 104 152 198 224 258
#     4  10  19  30  44  58  82 106 130 165 209 254
#
# _framework density 16.594025999999999
#
# number of rings (size 3 to 8) (size 9 to 14) (size 15 to 20)
#    0.000    2.000    0.000    5.143    0.000    8.000 
#    0.000    0.714    0.000    0.000    0.000    0.000 
#    0.000    0.000    0.000    0.000    0.000    0.000 
#
# Total GULP energy -312233.798119 kJ/mol
# GULP energy per Si atom -5575.603538 kJ/mol
# Density = 1.655626 g / cm^3
# Si number density = 16.594026 Si / 1000 Ang^3
#
#
#
# Elastic Constant Matrix: (Units=GPa)
#
#
# Indices 1 2 3 4 5 6 
#
# 1 135.6051 20.8568 37.4852 0.0000 0.0000 0.0000
# 2 20.8568 11.9486 23.5871 0.0000 0.0000 0.0000
# 3 37.4852 23.5871 83.4758 0.0000 0.0000 0.0000
# 4 0.0000 0.0000 0.0000 17.3129 0.0000 0.0000
# 5 0.0000 0.0000 0.0000 0.0000 25.6516 0.0000
# 6 0.0000 0.0000 0.0000 0.0000 0.0000 14.1432
#
#
#
# Elastic Compliance Matrix: (Units=1/GPa)
#
#
# Indices 1 2 3 4 5 6 
#
# 1 0.010118 -0.019657 0.001011 0.000000 0.000000 0.000000
# 2 -0.019657 0.227447 -0.055441 0.000000 0.000000 0.000000
# 3 0.001011 -0.055441 0.027191 0.000000 0.000000 0.000000
# 4 0.000000 0.000000 0.000000 0.057760 0.000000 0.000000
# 5 0.000000 0.000000 0.000000 0.000000 0.038984 0.000000
# 6 0.000000 0.000000 0.000000 0.000000 0.000000 0.070705
#
#
# Mechanical properties :
#
#
# Convention : Reuss Voigt Hill
#
# Bulk Modulus (GPa) = 8.57766 43.87642 26.22704
# Shear Modulus (GPa) = 8.07440 21.36158 14.71799
#
# Velocity S-wave (km/s) = 2.20826 3.59180 2.98139
# Velocity P-wave (km/s) = 3.41793 6.61058 5.26223
#
# Compressibility (1/GPa) = 0.11658193
#
# Stress axis : x y z
#
# Youngs Moduli (GPa) = 98.83054 4.39663 36.77661
#
# Poissons Ratio (x) = 0.08642 -0.03717
# Poissons Ratio (y) = 1.94271 2.03893
# Poissons Ratio (z) = -0.09988 0.24375
#
# Static dielectric constant tensor:
#      x y z
#    x 1.631530 0.000000 0.000000 
#    y 0.000000 1.524190 0.000000 
#    z 0.000000 0.000000 1.602830 
# 
# From -- ./inp_files/30574.got.cif
#   From: 2010.05.17/outbox.cif.g08.bks.cpg/sg62_16_cif.got.tgz:30574.got - 2010.06.03 15:25:27.
