data_PCOD9461964
_publ_section_title
;
Structure prediction by ZEFSAII (Michael W. Deem and Ramdas Pophale) SiO2 
 PCOD9461964
Probable space group: P N M A
;
_chemical_formula_sum "Si O2"
_cell_formula_units_Z 64
_cell_length_a 23.851961
_cell_length_b 8.948689
_cell_length_c 19.644242
_cell_angle_alpha 90.000000
_cell_angle_beta 90.000000
_cell_angle_gamma 90.000000
_cell_volume 4192.941288
_symmetry_space_group_name_H-M "P N M A"
_symmetry_group_IT_number 62
_symmetry_cell_setting 'orthorhombic'
loop_
_space_group_symop_operation_xyz
x,y,z
1/2-x,-y,1/2+z
1/2+x,1/2-y,1/2-z
-x,1/2+y,-z
-x,-y,-z
1/2+x,y,1/2-z
1/2-x,1/2+y,1/2+z
x,1/2-y,z
loop_
_atom_site_type_symbol
_atom_site_label
_atom_site_fract_x
_atom_site_fract_y
_atom_site_fract_z
Si Si1 0.657859 0.071544 0.738054
Si Si2 0.564174 0.929380 0.648378
Si Si3 0.757951 0.569310 0.005133
Si Si4 0.729632 0.929248 0.155771
Si Si5 0.381585 0.429286 0.497479
Si Si6 0.435421 0.569248 0.630762
Si Si7 0.719910 0.571046 0.858691
Si Si8 0.667203 0.071194 0.275649
O O1 0.655181 0.250000 0.739446
O O2 0.710231 0.027383 0.688846
O O3 0.601858 0.004932 0.705932
O O4 0.674168 0.008901 0.811992
O O5 0.568058 0.750000 0.655586
O O6 0.589814 0.968949 0.574522
O O7 0.498864 0.971472 0.649517
O O8 0.765162 0.750000 0.004710
O O9 0.730073 0.526362 0.076825
O O10 0.819174 0.496307 0.000706
O O11 0.722870 0.529338 0.937892
O O12 0.725700 0.750000 0.159492
O O13 0.682221 0.998973 0.203551
O O14 0.379501 0.250000 0.502831
O O15 0.416588 0.496508 0.559930
O O16 0.432591 0.750000 0.623445
O O17 0.390292 0.524724 0.688229
O O18 0.712676 0.750000 0.853330
O O19 0.780850 0.534219 0.826033
O O20 0.666422 0.250000 0.268097
#
# Coordination Sequence:
#
# PCOD9461964 Si02
#       8
#     8   8   8   8   8   8   8   8
#     4  10  19  31  48  69  95 124 155 196 241 279
#     4  10  21  34  48  67  94 129 168 200 230 275
#     4  10  18  32  50  69  94 130 160 186 232 287
#     4   9  18  30  47  69  94 122 153 192 237 283
#     4  11  21  30  44  70  98 126 161 201 233 266
#     4  10  20  35  50  65  92 132 169 197 230 278
#     4   9  17  30  49  68  91 122 158 192 228 280
#     4   9  17  30  48  67  89 122 158 193 232 274
#
# _framework density 15.263748
#
# number of rings (size 3 to 8) (size 9 to 14) (size 15 to 20)
#    0.000    2.250    2.500    1.125    0.000    3.000 
#    0.000    0.000    0.000    0.000    0.000    0.875 
#    0.000    0.000    0.000    0.000    0.000    0.000 
#
# Total GULP energy -356950.475616 kJ/mol
# GULP energy per Si atom -5577.351181 kJ/mol
# Density = 1.522901 g / cm^3
# Si number density = 15.263748 Si / 1000 Ang^3
#
#
#
# Elastic Constant Matrix: (Units=GPa)
#
#
# Indices 1 2 3 4 5 6 
#
# 1 71.9793 22.2211 44.8947 0.0000 0.0000 0.0000
# 2 22.2211 12.4144 27.2728 0.0000 0.0000 0.0000
# 3 44.8947 27.2728 110.9452 0.0000 0.0000 0.0000
# 4 0.0000 0.0000 0.0000 23.9299 0.0000 0.0000
# 5 0.0000 0.0000 0.0000 0.0000 19.1708 0.0000
# 6 0.0000 0.0000 0.0000 0.0000 0.0000 18.6012
#
#
#
# Elastic Compliance Matrix: (Units=1/GPa)
#
#
# Indices 1 2 3 4 5 6 
#
# 1 0.031345 -0.061399 0.002409 0.000000 0.000000 0.000000
# 2 -0.061399 0.295398 -0.047770 0.000000 0.000000 0.000000
# 3 0.002409 -0.047770 0.019781 0.000000 0.000000 0.000000
# 4 0.000000 0.000000 0.000000 0.041789 0.000000 0.000000
# 5 0.000000 0.000000 0.000000 0.000000 0.052163 0.000000
# 6 0.000000 0.000000 0.000000 0.000000 0.000000 0.053760
#
#
# Mechanical properties :
#
#
# Convention : Reuss Voigt Hill
#
# Bulk Modulus (GPa) = 7.51851 42.67956 25.09904
# Shear Modulus (GPa) = 6.64814 19.07039 12.85927
#
# Velocity S-wave (km/s) = 2.08925 3.53851 2.90568
# Velocity P-wave (km/s) = 3.27969 6.68706 5.26655
#
# Compressibility (1/GPa) = 0.13300499
#
# Stress axis : x y z
#
# Youngs Moduli (GPa) = 31.90301 3.38526 50.55238
#
# Poissons Ratio (x) = 0.20785 -0.12180
# Poissons Ratio (y) = 1.95881 2.41489
# Poissons Ratio (z) = -0.07686 0.16171
#
# Static dielectric constant tensor:
#      x y z
#    x 1.483970 0.000000 0.000000 
#    y 0.000000 1.509130 0.000000 
#    z 0.000000 0.000000 1.505940 
# 
# From -- ./inp_files/24758.got.cif
#   From: 2010.05.17/outbox.cif.g08.bks.cpg/sg62_13_cif.got.tgz:24758.got - 2010.06.03 15:25:27.
