data_PCOD9461037
_publ_section_title
;
Structure prediction by ZEFSAII (Michael W. Deem and Ramdas Pophale) SiO2 
 PCOD9461037
Probable space group: P B C A
;
_chemical_formula_sum "Si O2"
_cell_formula_units_Z 48
_cell_length_a 9.566497
_cell_length_b 19.052370
_cell_length_c 9.461424
_cell_angle_alpha 90.000000
_cell_angle_beta 90.000000
_cell_angle_gamma 90.000000
_cell_volume 1724.481151
_symmetry_space_group_name_H-M "P B C A"
_symmetry_group_IT_number 61
_symmetry_cell_setting 'orthorhombic'
loop_
_space_group_symop_operation_xyz
x,y,z
1/2-x,-y,1/2+z
1/2+x,1/2-y,-z
-x,1/2+y,1/2-z
-x,-y,-z
1/2+x,y,1/2-z
1/2-x,1/2+y,z
x,1/2-y,1/2+z
loop_
_atom_site_type_symbol
_atom_site_label
_atom_site_fract_x
_atom_site_fract_y
_atom_site_fract_z
Si Si1 0.789841 0.018616 0.980739
Si Si2 0.758022 0.828111 0.395283
Si Si3 0.696560 0.127355 0.576084
Si Si4 0.978586 0.235531 0.057605
Si Si5 0.394308 0.943198 0.792033
Si Si6 0.848539 0.356623 0.792862
O O1 0.808365 0.102162 0.965530
O O2 0.856785 0.953784 0.070830
O O3 0.825734 0.992226 0.825215
O O4 0.638767 0.023358 0.057400
O O5 0.917552 0.802430 0.427251
O O6 0.658821 0.767418 0.458057
O O7 0.757680 0.845101 0.228574
O O8 0.578196 0.177922 0.515383
O O9 0.819808 0.131155 0.459471
O O10 0.922377 0.206959 0.208824
O O11 0.949664 0.422315 0.758291
O O12 0.304055 0.870865 0.774428
#
# Coordination Sequence:
#
# PCOD9461037 Si02
#       6
#     8   8   8   8   8   8
#     4  11  23  50  81 131 162 223 283 369 426 519
#     4  12  30  55  89 129 175 230 293 362 440 530
#     4  11  28  53  87 128 172 223 296 362 436 524
#     4  12  29  56  83 121 174 232 289 355 443 526
#     4  11  24  43  84 118 169 219 286 358 437 505
#     4  11  24  51  82 117 167 232 279 356 437 514
#
# _framework density 27.83446
#
# number of rings (size 3 to 8) (size 9 to 14) (size 15 to 20)
#    0.000    0.667    6.667    0.000    0.000   13.333 
#    0.000    1.667    0.000    0.000    0.000    0.000 
#    0.000    0.000    0.000    0.000    0.000    0.000 
#
# Total GULP energy -267966.689793 kJ/mol
# GULP energy per Si atom -5582.639371 kJ/mol
# Density = 2.777111 g / cm^3
# Si number density = 27.834460 Si / 1000 Ang^3
#
#
#
# Elastic Constant Matrix: (Units=GPa)
#
#
# Indices 1 2 3 4 5 6 
#
# 1 147.3499 48.8437 65.1525 0.0000 0.0000 0.0000
# 2 48.8437 159.1845 29.9245 0.0000 0.0000 0.0000
# 3 65.1525 29.9245 179.6074 0.0000 0.0000 0.0000
# 4 0.0000 0.0000 0.0000 45.8995 0.0000 0.0000
# 5 0.0000 0.0000 0.0000 0.0000 36.6860 0.0000
# 6 0.0000 0.0000 0.0000 0.0000 0.0000 40.6078
#
#
#
# Elastic Compliance Matrix: (Units=1/GPa)
#
#
# Indices 1 2 3 4 5 6 
#
# 1 0.008745 -0.002154 -0.002813 0.000000 0.000000 0.000000
# 2 -0.002154 0.007016 -0.000387 0.000000 0.000000 0.000000
# 3 -0.002813 -0.000387 0.006653 0.000000 0.000000 0.000000
# 4 0.000000 0.000000 0.000000 0.021787 0.000000 0.000000
# 5 0.000000 0.000000 0.000000 0.000000 0.027258 0.000000
# 6 0.000000 0.000000 0.000000 0.000000 0.000000 0.024626
#
#
# Mechanical properties :
#
#
# Convention : Reuss Voigt Hill
#
# Bulk Modulus (GPa) = 85.44578 85.99813 85.72196
# Shear Modulus (GPa) = 45.16916 47.45339 46.31127
#
# Velocity S-wave (km/s) = 4.03274 4.13345 4.08341
# Velocity P-wave (km/s) = 7.24213 7.33103 7.28672
#
# Compressibility (1/GPa) = 0.01170333
#
# Stress axis : x y z
#
# Youngs Moduli (GPa) = 114.35694 142.53386 150.31449
#
# Poissons Ratio (x) = 0.30706 0.42286
# Poissons Ratio (y) = 0.24636 0.05824
# Poissons Ratio (z) = 0.32170 0.05522
#
# Static dielectric constant tensor:
#      x y z
#    x 2.101730 0.000000 0.000000 
#    y 0.000000 2.288820 0.000000 
#    z 0.000000 0.000000 2.249020 
# 
# From -- ./inp_files/5266.got.cif
#   From: 2010.05.17/outbox.cif.g08.bks.cpg/sg61_3_cif.got.tgz:5266.got - 2010.06.03 15:17:17.
