data_PCOD9461510
_publ_section_title
;
Structure prediction by ZEFSAII (Michael W. Deem and Ramdas Pophale) SiO2 
 PCOD9461510
Probable space group: P N M A
;
_chemical_formula_sum "Si O2"
_cell_formula_units_Z 64
_cell_length_a 24.617294
_cell_length_b 7.471753
_cell_length_c 15.790569
_cell_angle_alpha 90.000000
_cell_angle_beta 90.000000
_cell_angle_gamma 90.000000
_cell_volume 2904.427892
_symmetry_space_group_name_H-M "P N M A"
_symmetry_group_IT_number 62
_symmetry_cell_setting 'orthorhombic'
loop_
_space_group_symop_operation_xyz
x,y,z
1/2-x,-y,1/2+z
1/2+x,1/2-y,1/2-z
-x,1/2+y,-z
-x,-y,-z
1/2+x,y,1/2-z
1/2-x,1/2+y,1/2+z
x,1/2-y,z
loop_
_atom_site_type_symbol
_atom_site_label
_atom_site_fract_x
_atom_site_fract_y
_atom_site_fract_z
Si Si1 0.114041 0.534055 0.416875
Si Si2 0.880312 0.539634 0.396507
Si Si3 0.676454 0.530806 0.251324
Si Si4 0.799108 0.542733 0.257217
Si Si5 0.492499 0.533921 0.341252
Si Si6 0.500575 0.032065 0.855107
Si Si7 0.105789 0.968952 0.086096
Si Si8 0.128812 0.956844 0.900627
O O1 0.113607 0.750000 0.415751
O O2 0.137629 0.478177 0.506914
O O3 0.147197 0.473160 0.334971
O O4 0.051885 0.469668 0.406480
O O5 0.885472 0.750000 0.375670
O O6 0.838511 0.461819 0.328592
O O7 0.941313 0.465723 0.387436
O O8 0.675522 0.750000 0.250174
O O9 0.738571 0.467496 0.253012
O O10 0.642433 0.477125 0.334130
O O11 0.790965 0.750000 0.281283
O O12 0.831272 0.539203 0.168679
O O13 0.490143 0.750000 0.344265
O O14 0.504377 0.484251 0.243894
O O15 0.543372 0.474772 0.398176
O O16 0.433492 0.468088 0.368885
O O17 0.499816 0.250000 0.859122
O O18 0.105186 0.750000 0.084223
O O19 0.128439 0.031357 0.995891
O O20 0.144810 0.750000 0.905356
#
# Coordination Sequence:
#
# PCOD9461510 Si02
#       8
#     8   8   8   8   8   8   8   8
#     4  10  19  33  56  82 105 133 173 222 269 308
#     4  10  20  34  52  77 107 140 178 213 259 319
#     4   9  18  35  58  80 102 137 188 227 255 309
#     4  10  21  38  58  76 101 145 190 221 255 313
#     4  10  17  33  59  80 106 144 181 213 258 325
#     4   9  16  30  54  79 103 136 175 212 255 312
#     4   9  18  33  56  83 109 140 178 223 268 315
#     4  11  22  34  53  85 116 138 170 221 277 318
#
# _framework density 22.035322000000001
#
# number of rings (size 3 to 8) (size 9 to 14) (size 15 to 20)
#    0.000    2.250    2.500    1.125    0.000    1.500 
#    0.000    3.125    0.000    3.750    0.000    0.000 
#    0.000    0.000    0.000    0.000    0.000    0.000 
#
# Total GULP energy -357604.090555 kJ/mol
# GULP energy per Si atom -5587.563915 kJ/mol
# Density = 2.198517 g / cm^3
# Si number density = 22.035322 Si / 1000 Ang^3
#
#
#
# Elastic Constant Matrix: (Units=GPa)
#
#
# Indices 1 2 3 4 5 6 
#
# 1 130.0739 -3.7807 26.3028 0.0000 0.0000 0.0000
# 2 -3.7807 60.0964 -14.3076 0.0000 0.0000 0.0000
# 3 26.3028 -14.3076 90.0650 0.0000 0.0000 0.0000
# 4 0.0000 0.0000 0.0000 -99.1896 0.0000 0.0000
# 5 0.0000 0.0000 0.0000 0.0000 3.5064 0.0000
# 6 0.0000 0.0000 0.0000 0.0000 0.0000 -17.2953
#
#
#
# Elastic Compliance Matrix: (Units=1/GPa)
#
#
# Indices 1 2 3 4 5 6 
#
# 1 0.008171 -0.000056 -0.002395 0.000000 0.000000 0.000000
# 2 -0.000056 0.017294 0.002764 0.000000 0.000000 0.000000
# 3 -0.002395 0.002764 0.012242 0.000000 0.000000 0.000000
# 4 0.000000 0.000000 0.000000 -0.010082 0.000000 0.000000
# 5 0.000000 0.000000 0.000000 0.000000 0.285189 0.000000
# 6 0.000000 0.000000 0.000000 0.000000 0.000000 -0.057819
#
#
# Mechanical properties :
#
#
# Convention : Reuss Voigt Hill
#
# Bulk Modulus (GPa) = 26.08814 32.96271 29.52542
# Shear Modulus (GPa) = 18.71630 -4.46096 7.12767
#
# Velocity S-wave (km/s) = 2.91757 -1.42438 1.80047
# Velocity P-wave (km/s) = 4.81815 3.50519 4.21313
#
# Compressibility (1/GPa) = 0.03833159
#
# Stress axis : x y z
#
# Youngs Moduli (GPa) = 122.38963 57.82218 81.68858
#
# Poissons Ratio (x) = 0.00325 0.19565
# Poissons Ratio (y) = 0.00688 -0.22577
# Poissons Ratio (z) = 0.29314 -0.15981
#
# Static dielectric constant tensor:
#      x y z
#    x 1.782430 0.000000 0.000000 
#    y 0.000000 1.841940 0.000000 
#    z 0.000000 0.000000 1.778710 
# 
# From -- ./inp_files/20846.got.cif
#   From: 2010.05.17/outbox.cif.g08.bks.cpg/sg62_11_cif.got.tgz:20846.got - 2010.06.03 15:25:27.
