data_PCOD9461797
_publ_section_title
;
Structure prediction by ZEFSAII (Michael W. Deem and Ramdas Pophale) SiO2 
 PCOD9461797
Probable space group: P N M A
;
_chemical_formula_sum "Si O2"
_cell_formula_units_Z 32
_cell_length_a 14.368433
_cell_length_b 9.278488
_cell_length_c 10.427575
_cell_angle_alpha 90.000000
_cell_angle_beta 90.000000
_cell_angle_gamma 90.000000
_cell_volume 1390.176490
_symmetry_space_group_name_H-M "P N M A"
_symmetry_group_IT_number 62
_symmetry_cell_setting 'orthorhombic'
loop_
_space_group_symop_operation_xyz
x,y,z
1/2-x,-y,1/2+z
1/2+x,1/2-y,1/2-z
-x,1/2+y,-z
-x,-y,-z
1/2+x,y,1/2-z
1/2-x,1/2+y,1/2+z
x,1/2-y,z
loop_
_atom_site_type_symbol
_atom_site_label
_atom_site_fract_x
_atom_site_fract_y
_atom_site_fract_z
Si Si1 0.186362 0.083612 0.939092
Si Si2 0.650273 0.421795 0.179868
Si Si3 0.869649 0.085497 0.436281
Si Si4 0.524903 0.581692 0.665733
O O1 0.170631 0.250000 0.910492
O O2 0.254502 0.009744 0.834511
O O3 0.088008 0.005367 0.933332
O O4 0.255866 0.076011 0.061500
O O5 0.665347 0.250000 0.183002
O O6 0.578158 0.463340 0.290546
O O7 0.602916 0.467897 0.043018
O O8 0.889150 0.250000 0.482407
O O9 0.917504 0.070392 0.300070
O O10 0.521077 0.750000 0.629209
#
# Coordination Sequence:
#
# PCOD9461797 Si02
#       4
#     8   8   8   8
#     4   9  19  31  44  68  97 123 153 191 229 273
#     4   9  17  29  47  71  95 120 152 190 231 274
#     4   8  17  31  45  69  98 120 149 190 232 271
#     4  10  18  30  50  70  94 125 153 188 234 273
#
# _framework density 23.018659
#
# number of rings (size 3 to 8) (size 9 to 14) (size 15 to 20)
#    1.500    1.500    0.000    1.500    0.000    3.000 
#    0.000    0.000    0.000    1.500    0.000    0.000 
#    0.000    0.000    0.000    0.000    0.000    0.000 
#
# Total GULP energy -178393.759200 kJ/mol
# GULP energy per Si atom -5574.804975 kJ/mol
# Density = 2.296627 g / cm^3
# Si number density = 23.018659 Si / 1000 Ang^3
#
#
#
# Elastic Constant Matrix: (Units=GPa)
#
#
# Indices 1 2 3 4 5 6 
#
# 1 150.5677 43.2787 17.9611 0.0000 0.0000 0.0000
# 2 43.2787 55.0936 36.7879 0.0000 0.0000 0.0000
# 3 17.9611 36.7879 73.4366 0.0000 0.0000 0.0000
# 4 0.0000 0.0000 0.0000 11.8877 0.0000 0.0000
# 5 0.0000 0.0000 0.0000 0.0000 43.1314 0.0000
# 6 0.0000 0.0000 0.0000 0.0000 0.0000 30.5757
#
#
#
# Elastic Compliance Matrix: (Units=1/GPa)
#
#
# Indices 1 2 3 4 5 6 
#
# 1 0.008763 -0.008193 0.001961 0.000000 0.000000 0.000000
# 2 -0.008193 0.034934 -0.015497 0.000000 0.000000 0.000000
# 3 0.001961 -0.015497 0.020900 0.000000 0.000000 0.000000
# 4 0.000000 0.000000 0.000000 0.084121 0.000000 0.000000
# 5 0.000000 0.000000 0.000000 0.000000 0.023185 0.000000
# 6 0.000000 0.000000 0.000000 0.000000 0.000000 0.032706
#
#
# Mechanical properties :
#
#
# Convention : Reuss Voigt Hill
#
# Bulk Modulus (GPa) = 47.30189 52.79482 50.04836
# Shear Modulus (GPa) = 19.59920 29.19030 24.39475
#
# Velocity S-wave (km/s) = 2.92112 3.56492 3.25896
# Velocity P-wave (km/s) = 5.65431 6.31905 5.99590
#
# Compressibility (1/GPa) = 0.02114080
#
# Stress axis : x y z
#
# Youngs Moduli (GPa) = 114.12223 28.62506 47.84578
#
# Poissons Ratio (x) = 0.23452 -0.09383
# Poissons Ratio (y) = 0.93499 0.74144
# Poissons Ratio (z) = -0.22380 0.44359
#
# Static dielectric constant tensor:
#      x y z
#    x 1.923810 0.000000 0.000000 
#    y 0.000000 1.774350 0.000000 
#    z 0.000000 0.000000 1.982810 
# 
# From -- ./inp_files/12772.got.cif
#   From: 2010.05.17/outbox.cif.g08.bks.cpg/sg62_7_cif.got.tgz:12772.got - 2010.06.03 15:25:27.
