data_PCOD9461357
_publ_section_title
;
Structure prediction by ZEFSAII (Michael W. Deem and Ramdas Pophale) SiO2 
 PCOD9461357
Probable space group: P N M A
;
_chemical_formula_sum "Si O2"
_cell_formula_units_Z 56
_cell_length_a 17.770987
_cell_length_b 18.094393
_cell_length_c 6.836394
_cell_angle_alpha 90.000000
_cell_angle_beta 90.000000
_cell_angle_gamma 90.000000
_cell_volume 2198.278196
_symmetry_space_group_name_H-M "P N M A"
_symmetry_group_IT_number 62
_symmetry_cell_setting 'orthorhombic'
loop_
_space_group_symop_operation_xyz
x,y,z
1/2-x,-y,1/2+z
1/2+x,1/2-y,1/2-z
-x,1/2+y,-z
-x,-y,-z
1/2+x,y,1/2-z
1/2-x,1/2+y,1/2+z
x,1/2-y,z
loop_
_atom_site_type_symbol
_atom_site_label
_atom_site_fract_x
_atom_site_fract_y
_atom_site_fract_z
Si Si1 0.057580 0.036619 0.728474
Si Si2 0.546642 0.833018 0.348958
Si Si3 0.299749 0.091532 0.539666
Si Si4 0.992587 0.372478 0.277694
Si Si5 0.850345 0.418942 0.419618
Si Si6 0.308505 0.924903 0.516858
Si Si7 0.345063 0.836624 0.893766
O O1 0.106361 0.997515 0.552234
O O2 0.122778 0.067025 0.869566
O O3 0.014397 0.959816 0.783000
O O4 0.995983 0.100304 0.739904
O O5 0.538796 0.750000 0.270568
O O6 0.633320 0.858326 0.376467
O O7 0.512677 0.832251 0.570820
O O8 0.320380 0.082083 0.305741
O O9 0.216615 0.126032 0.534569
O O10 0.301944 0.006870 0.609712
O O11 0.066812 0.356271 0.400804
O O12 0.916651 0.359145 0.403796
O O13 0.777073 0.408271 0.550377
O O14 0.326328 0.863291 0.675250
O O15 0.336615 0.750000 0.917738
#
# Coordination Sequence:
#
# PCOD9461357 Si02
#       7
#     8   8   8   8   8   8   8
#     4   9  17  29  49  73  99 123 175 211 251 306
#     4  11  17  26  45  71  99 125 157 208 261 299
#     4   9  19  31  46  72 105 136 168 207 255 319
#     4   9  17  30  44  72  99 128 163 212 251 311
#     4   7  17  28  47  69  95 128 168 211 246 294
#     4  10  16  32  50  69 102 139 171 206 256 313
#     4  11  20  30  49  80 110 134 166 220 272 307
#
# _framework density 25.474481999999998
#
# number of rings (size 3 to 8) (size 9 to 14) (size 15 to 20)
#    0.857    1.714    2.857    2.143    0.000    0.000 
#    0.000    1.429    0.000    1.714    0.000   13.000 
#    0.000    0.000    0.000    0.000    0.000    0.000 
#
# Total GULP energy -312658.994613 kJ/mol
# GULP energy per Si atom -5583.196332 kJ/mol
# Density = 2.541650 g / cm^3
# Si number density = 25.474482 Si / 1000 Ang^3
#
#
#
# Elastic Constant Matrix: (Units=GPa)
#
#
# Indices 1 2 3 4 5 6 
#
# 1 172.7529 56.4382 33.7833 0.0000 0.0000 0.0000
# 2 56.4382 140.8410 14.2116 0.0000 0.0000 0.0000
# 3 33.7833 14.2116 53.1520 0.0000 0.0000 0.0000
# 4 0.0000 0.0000 0.0000 28.0570 0.0000 0.0000
# 5 0.0000 0.0000 0.0000 0.0000 42.9480 0.0000
# 6 0.0000 0.0000 0.0000 0.0000 0.0000 17.4118
#
#
#
# Elastic Compliance Matrix: (Units=1/GPa)
#
#
# Indices 1 2 3 4 5 6 
#
# 1 0.007414 -0.002565 -0.004027 0.000000 0.000000 0.000000
# 2 -0.002565 0.008184 -0.000558 0.000000 0.000000 0.000000
# 3 -0.004027 -0.000558 0.021522 0.000000 0.000000 0.000000
# 4 0.000000 0.000000 0.000000 0.035642 0.000000 0.000000
# 5 0.000000 0.000000 0.000000 0.000000 0.023284 0.000000
# 6 0.000000 0.000000 0.000000 0.000000 0.000000 0.057432
#
#
# Mechanical properties :
#
#
# Convention : Reuss Voigt Hill
#
# Bulk Modulus (GPa) = 43.81761 63.95691 53.88726
# Shear Modulus (GPa) = 28.50875 35.17088 31.83982
#
# Velocity S-wave (km/s) = 3.34894 3.71972 3.53919
# Velocity P-wave (km/s) = 5.67378 6.60372 6.15634
#
# Compressibility (1/GPa) = 0.02282188
#
# Stress axis : x y z
#
# Youngs Moduli (GPa) = 134.88184 122.18616 46.46306
#
# Poissons Ratio (x) = 0.31336 0.18709
# Poissons Ratio (y) = 0.34592 0.02594
# Poissons Ratio (z) = 0.54311 0.06821
#
# Static dielectric constant tensor:
#      x y z
#    x 2.081300 0.000000 0.000000 
#    y 0.000000 1.938310 0.000000 
#    z 0.000000 0.000000 2.168880 
# 
# From -- ./inp_files/14370.got.cif
#   From: 2010.05.17/outbox.cif.g08.bks.cpg/sg62_8_cif.got.tgz:14370.got - 2010.06.03 15:25:27.
