data_PCOD9461122
_publ_section_title
;
Structure prediction by ZEFSAII (Michael W. Deem and Ramdas Pophale) SiO2 
 PCOD9461122
Probable space group: P B C A
;
_chemical_formula_sum "Si O2"
_cell_formula_units_Z 48
_cell_length_a 9.002739
_cell_length_b 16.691078
_cell_length_c 13.148137
_cell_angle_alpha 90.000000
_cell_angle_beta 90.000000
_cell_angle_gamma 90.000000
_cell_volume 1975.710314
_symmetry_space_group_name_H-M "P B C A"
_symmetry_group_IT_number 61
_symmetry_cell_setting 'orthorhombic'
loop_
_space_group_symop_operation_xyz
x,y,z
1/2-x,-y,1/2+z
1/2+x,1/2-y,-z
-x,1/2+y,1/2-z
-x,-y,-z
1/2+x,y,1/2-z
1/2-x,1/2+y,z
x,1/2-y,1/2+z
loop_
_atom_site_type_symbol
_atom_site_label
_atom_site_fract_x
_atom_site_fract_y
_atom_site_fract_z
Si Si1 0.502949 0.178293 0.772635
Si Si2 0.639630 0.555464 0.081223
Si Si3 0.597083 0.687397 0.387402
Si Si4 0.691836 0.304966 0.476373
Si Si5 0.744872 0.065637 0.713906
Si Si6 0.685815 0.042321 0.385902
O O1 0.435950 0.252560 0.708356
O O2 0.615956 0.196375 0.864198
O O3 0.592337 0.114535 0.702129
O O4 0.370948 0.126093 0.818835
O O5 0.753753 0.521921 0.164123
O O6 0.483246 0.568727 0.139075
O O7 0.688561 0.630653 0.016235
O O8 0.654822 0.480129 0.003590
O O9 0.440238 0.683606 0.443909
O O10 0.711085 0.725622 0.468926
O O11 0.682663 0.604845 0.364779
O O12 0.768917 0.040050 0.830735
#
# Coordination Sequence:
#
# PCOD9461122 Si02
#       6
#     8   8   8   8   8   8
#     4  12  26  51  72 106 152 196 242 303 383 448
#     4  11  25  47  79 105 149 193 257 314 371 457
#     4  12  29  45  73 109 152 194 243 308 375 449
#     4  12  28  49  74 109 148 197 246 300 385 447
#     4  12  25  47  79 105 142 202 250 309 375 448
#     4  11  25  47  73 113 145 193 255 312 371 448
#
# _framework density 24.295059999999999
#
# number of rings (size 3 to 8) (size 9 to 14) (size 15 to 20)
#    0.000    0.333    5.000    2.000    9.333    5.333 
#    0.000    0.000    0.000    0.000    0.000    0.000 
#    0.000    0.000    0.000    0.000    0.000    0.000 
#
# Total GULP energy -267786.387959 kJ/mol
# GULP energy per Si atom -5578.883082 kJ/mol
# Density = 2.423976 g / cm^3
# Si number density = 24.295060 Si / 1000 Ang^3
#
#
#
# Elastic Constant Matrix: (Units=GPa)
#
#
# Indices 1 2 3 4 5 6 
#
# 1 115.3521 42.1757 3.0191 0.0000 0.0000 0.0000
# 2 42.1757 55.4422 7.7503 0.0000 0.0000 0.0000
# 3 3.0191 7.7503 43.7167 0.0000 0.0000 0.0000
# 4 0.0000 0.0000 0.0000 40.3922 0.0000 0.0000
# 5 0.0000 0.0000 0.0000 0.0000 30.6779 0.0000
# 6 0.0000 0.0000 0.0000 0.0000 0.0000 32.6842
#
#
#
# Elastic Compliance Matrix: (Units=1/GPa)
#
#
# Indices 1 2 3 4 5 6 
#
# 1 0.012037 -0.009271 0.000812 0.000000 0.000000 0.000000
# 2 -0.009271 0.025635 -0.003904 0.000000 0.000000 0.000000
# 3 0.000812 -0.003904 0.023511 0.000000 0.000000 0.000000
# 4 0.000000 0.000000 0.000000 0.024757 0.000000 0.000000
# 5 0.000000 0.000000 0.000000 0.000000 0.032597 0.000000
# 6 0.000000 0.000000 0.000000 0.000000 0.000000 0.030596
#
#
# Mechanical properties :
#
#
# Convention : Reuss Voigt Hill
#
# Bulk Modulus (GPa) = 27.42930 35.60013 31.51471
# Shear Modulus (GPa) = 26.88018 31.52193 29.20105
#
# Velocity S-wave (km/s) = 3.32988 3.60594 3.47065
# Velocity P-wave (km/s) = 5.10869 5.65881 5.39077
#
# Compressibility (1/GPa) = 0.03645736
#
# Stress axis : x y z
#
# Youngs Moduli (GPa) = 83.07440 39.00943 42.53394
#
# Poissons Ratio (x) = 0.36164 -0.03455
# Poissons Ratio (y) = 0.77015 0.16607
# Poissons Ratio (z) = -0.06747 0.15231
#
# Static dielectric constant tensor:
#      x y z
#    x 2.050800 0.000000 0.000000 
#    y 0.000000 1.883480 0.000000 
#    z 0.000000 0.000000 2.001000 
# 
# From -- ./inp_files/7057.got.cif
#   From: 2010.05.17/outbox.cif.g08.bks.cpg/sg61_4_cif.got.tgz:7057.got - 2010.06.03 15:17:17.
