data_PCOD9461097
_publ_section_title
;
Structure prediction by ZEFSAII (Michael W. Deem and Ramdas Pophale) SiO2 
 PCOD9461097
Probable space group: P B C A
;
_chemical_formula_sum "Si O2"
_cell_formula_units_Z 32
_cell_length_a 10.139843
_cell_length_b 9.995467
_cell_length_c 12.894607
_cell_angle_alpha 90.000000
_cell_angle_beta 90.000000
_cell_angle_gamma 90.000000
_cell_volume 1306.900219
_symmetry_space_group_name_H-M "P B C A"
_symmetry_group_IT_number 61
_symmetry_cell_setting 'orthorhombic'
loop_
_space_group_symop_operation_xyz
x,y,z
1/2-x,-y,1/2+z
1/2+x,1/2-y,-z
-x,1/2+y,1/2-z
-x,-y,-z
1/2+x,y,1/2-z
1/2-x,1/2+y,z
x,1/2-y,1/2+z
loop_
_atom_site_type_symbol
_atom_site_label
_atom_site_fract_x
_atom_site_fract_y
_atom_site_fract_z
Si Si1 0.150004 0.720437 0.859569
Si Si2 0.329483 0.572098 0.456425
Si Si3 0.455562 0.887050 0.751639
Si Si4 0.700519 0.437280 0.302685
O O1 0.161977 0.584124 0.925152
O O2 0.009968 0.760921 0.811388
O O3 0.245880 0.689599 0.761636
O O4 0.199272 0.845713 0.925704
O O5 0.433491 0.637382 0.375295
O O6 0.337474 0.583996 0.578478
O O7 0.327397 0.961783 0.706128
O O8 0.578134 0.990384 0.748065
#
# Coordination Sequence:
#
# PCOD9461097 Si02
#       4
#     8   8   8   8
#     4  11  25  49  75 114 152 198 253 322 371 454
#     4  11  27  47  79 109 152 208 255 305 394 453
#     4  11  24  50  74 110 153 197 251 318 371 449
#     4  11  27  50  75 112 156 202 253 313 381 459
#
# _framework density 24.485417999999999
#
# number of rings (size 3 to 8) (size 9 to 14) (size 15 to 20)
#    0.000    1.000    5.000    0.750   10.500    1.000 
#    4.500    0.000    0.000    1.500    0.000    0.000 
#    0.000    0.000    0.000    0.000    0.000    0.000 
#
# Total GULP energy -178957.471239 kJ/mol
# GULP energy per Si atom -5592.420976 kJ/mol
# Density = 2.442969 g / cm^3
# Si number density = 24.485418 Si / 1000 Ang^3
#
#
#
# Elastic Constant Matrix: (Units=GPa)
#
#
# Indices 1 2 3 4 5 6 
#
# 1 122.0763 43.1605 28.0591 0.0000 0.0000 0.0000
# 2 43.1605 132.8964 78.4434 0.0000 0.0000 0.0000
# 3 28.0591 78.4434 146.9018 0.0000 0.0000 0.0000
# 4 0.0000 0.0000 0.0000 23.7937 0.0000 0.0000
# 5 0.0000 0.0000 0.0000 0.0000 34.0516 0.0000
# 6 0.0000 0.0000 0.0000 0.0000 0.0000 36.8817
#
#
#
# Elastic Compliance Matrix: (Units=1/GPa)
#
#
# Indices 1 2 3 4 5 6 
#
# 1 0.009260 -0.002867 -0.000238 0.000000 0.000000 0.000000
# 2 -0.002867 0.011876 -0.005794 0.000000 0.000000 0.000000
# 3 -0.000238 -0.005794 0.009946 0.000000 0.000000 0.000000
# 4 0.000000 0.000000 0.000000 0.042028 0.000000 0.000000
# 5 0.000000 0.000000 0.000000 0.000000 0.029367 0.000000
# 6 0.000000 0.000000 0.000000 0.000000 0.000000 0.027114
#
#
# Mechanical properties :
#
#
# Convention : Reuss Voigt Hill
#
# Bulk Modulus (GPa) = 75.27340 77.91116 76.59228
# Shear Modulus (GPa) = 32.93455 35.75949 34.34702
#
# Velocity S-wave (km/s) = 3.67150 3.82572 3.74940
# Velocity P-wave (km/s) = 6.98441 7.16961 7.07762
#
# Compressibility (1/GPa) = 0.01328491
#
# Stress axis : x y z
#
# Youngs Moduli (GPa) = 107.99284 84.20628 100.53806
#
# Poissons Ratio (x) = 0.24142 0.02391
# Poissons Ratio (y) = 0.30961 0.58250
# Poissons Ratio (z) = 0.02568 0.48787
#
# Static dielectric constant tensor:
#      x y z
#    x 2.034180 0.000000 0.000000 
#    y 0.000000 2.027170 0.000000 
#    z 0.000000 0.000000 1.894180 
# 
# From -- ./inp_files/7333.got.cif
#   From: 2010.05.17/outbox.cif.g08.bks.cpg/sg61_4_cif.got.tgz:7333.got - 2010.06.03 15:17:17.
