data_PCOD9461956
_publ_section_title
;
Structure prediction by ZEFSAII (Michael W. Deem and Ramdas Pophale) SiO2 
 PCOD9461956
Probable space group: P N M A
;
_chemical_formula_sum "Si O2"
_cell_formula_units_Z 56
_cell_length_a 10.278693
_cell_length_b 13.656536
_cell_length_c 19.546577
_cell_angle_alpha 90.000000
_cell_angle_beta 90.000000
_cell_angle_gamma 90.000000
_cell_volume 2743.779225
_symmetry_space_group_name_H-M "P N M A"
_symmetry_group_IT_number 62
_symmetry_cell_setting 'orthorhombic'
loop_
_space_group_symop_operation_xyz
x,y,z
1/2-x,-y,1/2+z
1/2+x,1/2-y,1/2-z
-x,1/2+y,-z
-x,-y,-z
1/2+x,y,1/2-z
1/2-x,1/2+y,1/2+z
x,1/2-y,z
loop_
_atom_site_type_symbol
_atom_site_label
_atom_site_fract_x
_atom_site_fract_y
_atom_site_fract_z
Si Si1 0.350186 0.513552 0.848361
Si Si2 0.133173 0.860957 0.773773
Si Si3 0.171935 0.491292 0.074108
Si Si4 0.154407 0.358816 0.882550
Si Si5 0.459024 0.360948 0.488359
Si Si6 0.550587 0.961340 0.291617
Si Si7 0.597247 0.636390 0.886985
O O1 0.255034 0.593057 0.813063
O O2 0.263039 0.440895 0.892856
O O3 0.400806 0.446344 0.785069
O O4 0.466301 0.571914 0.884231
O O5 0.110185 0.750000 0.794971
O O6 0.149920 0.862322 0.691644
O O7 0.011138 0.930235 0.787822
O O8 0.293804 0.419861 0.069811
O O9 0.161334 0.576661 0.017584
O O10 0.160470 0.538654 0.149759
O O11 0.040512 0.426108 0.064681
O O12 0.207513 0.250000 0.872862
O O13 0.057444 0.356721 0.946981
O O14 0.064669 0.391628 0.818389
O O15 0.429827 0.250000 0.466801
O O16 0.577419 0.750000 0.907010
#
# Coordination Sequence:
#
# PCOD9461956 Si02
#       7
#     8   8   8   8   8   8   8
#     4  10  18  32  48  70 106 135 165 207 253 308
#     4   9  17  28  44  69 104 136 160 196 251 311
#     4  10  18  33  54  76 101 132 169 214 258 299
#     4   9  19  35  52  69  95 134 175 212 253 297
#     4   9  19  35  55  76  99 131 173 217 257 297
#     4   9  18  30  49  74 101 127 165 212 254 304
#     4  10  19  29  47  75 103 134 166 199 250 311
#
# _framework density 20.409804999999999
#
# number of rings (size 3 to 8) (size 9 to 14) (size 15 to 20)
#    0.000    2.571    1.429    0.857    0.000    2.286 
#    0.000    1.429    0.000    0.857    0.000    0.000 
#    0.000    0.000    0.000    0.000    0.000    0.000 
#
# Total GULP energy -312467.409152 kJ/mol
# GULP energy per Si atom -5579.775163 kJ/mol
# Density = 2.036335 g / cm^3
# Si number density = 20.409805 Si / 1000 Ang^3
#
#
#
# Elastic Constant Matrix: (Units=GPa)
#
#
# Indices 1 2 3 4 5 6 
#
# 1 58.8264 29.9986 4.5738 0.0000 0.0000 0.0000
# 2 29.9986 118.5078 12.7704 0.0000 0.0000 0.0000
# 3 4.5738 12.7704 40.7379 0.0000 0.0000 0.0000
# 4 0.0000 0.0000 0.0000 17.9855 0.0000 0.0000
# 5 0.0000 0.0000 0.0000 0.0000 21.2340 0.0000
# 6 0.0000 0.0000 0.0000 0.0000 0.0000 18.0070
#
#
#
# Elastic Compliance Matrix: (Units=1/GPa)
#
#
# Indices 1 2 3 4 5 6 
#
# 1 0.019536 -0.004874 -0.000666 0.000000 0.000000 0.000000
# 2 -0.004874 0.009949 -0.002572 0.000000 0.000000 0.000000
# 3 -0.000666 -0.002572 0.025428 0.000000 0.000000 0.000000
# 4 0.000000 0.000000 0.000000 0.055600 0.000000 0.000000
# 5 0.000000 0.000000 0.000000 0.000000 0.047094 0.000000
# 6 0.000000 0.000000 0.000000 0.000000 0.000000 0.055534
#
#
# Mechanical properties :
#
#
# Convention : Reuss Voigt Hill
#
# Bulk Modulus (GPa) = 25.84542 34.75088 30.29815
# Shear Modulus (GPa) = 20.63892 22.82726 21.73309
#
# Velocity S-wave (km/s) = 3.18343 3.34795 3.26672
# Velocity P-wave (km/s) = 5.11889 5.65761 5.39498
#
# Compressibility (1/GPa) = 0.03869157
#
# Stress axis : x y z
#
# Youngs Moduli (GPa) = 51.18695 100.51191 39.32669
#
# Poissons Ratio (x) = 0.48985 0.02618
# Poissons Ratio (y) = 0.24946 0.10113
# Poissons Ratio (z) = 0.03407 0.25848
#
# Static dielectric constant tensor:
#      x y z
#    x 1.739520 0.000000 0.000000 
#    y 0.000000 1.716400 0.000000 
#    z 0.000000 0.000000 1.796350 
# 
# From -- ./inp_files/29395.got.cif
#   From: 2010.05.17/outbox.cif.g08.bks.cpg/sg62_15_cif.got.tgz:29395.got - 2010.06.03 15:25:27.
