data_PCOD9461218
_publ_section_title
;
Structure prediction by ZEFSAII (Michael W. Deem and Ramdas Pophale) SiO2 
 PCOD9461218
Probable space group: P B C A
;
_chemical_formula_sum "Si O2"
_cell_formula_units_Z 52
_cell_length_a 30.632356
_cell_length_b 7.271151
_cell_length_c 8.244436
_cell_angle_alpha 90.000000
_cell_angle_beta 90.000000
_cell_angle_gamma 90.000000
_cell_volume 1836.303726
_symmetry_space_group_name_H-M "P B C A"
_symmetry_group_IT_number 61
_symmetry_cell_setting 'orthorhombic'
loop_
_space_group_symop_operation_xyz
x,y,z
1/2-x,-y,1/2+z
1/2+x,1/2-y,-z
-x,1/2+y,1/2-z
-x,-y,-z
1/2+x,y,1/2-z
1/2-x,1/2+y,z
x,1/2-y,1/2+z
loop_
_atom_site_type_symbol
_atom_site_label
_atom_site_fract_x
_atom_site_fract_y
_atom_site_fract_z
Si Si1 0.500000 0.500000 0.500000
Si Si2 0.721983 0.163057 0.589175
Si Si3 0.671965 0.023707 0.279994
Si Si4 0.035993 0.686706 0.687297
Si Si5 0.085852 0.374333 0.549815
Si Si6 0.104051 0.007941 0.686870
Si Si7 0.302485 0.377470 0.644341
O O1 0.473825 0.374675 0.367892
O O2 0.577340 0.341585 0.417370
O O3 0.691667 0.076151 0.453987
O O4 0.722478 0.022941 0.740365
O O5 0.802102 0.845563 0.654752
O O6 0.767625 0.182570 0.492241
O O7 0.621513 0.073588 0.309609
O O8 0.680847 0.806847 0.265427
O O9 0.046311 0.510750 0.578207
O O10 0.078522 0.818426 0.683928
O O11 0.998709 0.821612 0.626502
O O12 0.105019 0.420971 0.372107
O O13 0.151665 0.979284 0.608577
#
# Coordination Sequence:
#
# PCOD9461218 Si02
#       7
#     4   8   8   8   8   8   8
#     4  12  32  58  92 140 204 234 310 380 490 582
#     4  12  32  52  76 122 168 229 296 388 463 527
#     4  12  28  54  83 119 167 230 305 382 453 534
#     4  12  30  56  94 142 185 249 302 379 474 579
#     4  12  26  54  92 128 176 232 312 380 458 551
#     4  12  28  56  90 128 175 241 306 380 457 565
#     4  12  30  55  85 117 178 232 310 382 468 541
#
# _framework density 28.317755999999999
#
# number of rings (size 3 to 8) (size 9 to 14) (size 15 to 20)
#    0.000    0.000    6.154    0.000    8.615    3.077 
#   11.077    0.000    0.000    0.000    0.000    0.000 
#    0.000    0.000    0.000    0.000    0.000    0.000 
#
# Total GULP energy -291254.779413 kJ/mol
# GULP energy per Si atom -5601.053450 kJ/mol
# Density = 2.825330 g / cm^3
# Si number density = 28.317756 Si / 1000 Ang^3
#
#
#
# Elastic Constant Matrix: (Units=GPa)
#
#
# Indices 1 2 3 4 5 6 
#
# 1 125.3979 35.0989 64.0725 0.0000 0.0000 0.0000
# 2 35.0989 182.5975 68.1073 0.0000 0.0000 0.0000
# 3 64.0725 68.1073 113.4881 0.0000 0.0000 0.0000
# 4 0.0000 0.0000 0.0000 61.5305 0.0000 0.0000
# 5 0.0000 0.0000 0.0000 0.0000 51.0653 0.0000
# 6 0.0000 0.0000 0.0000 0.0000 0.0000 57.7526
#
#
#
# Elastic Compliance Matrix: (Units=1/GPa)
#
#
# Indices 1 2 3 4 5 6 
#
# 1 0.011218 0.000265 -0.006492 0.000000 0.000000 0.000000
# 2 0.000265 0.007062 -0.004388 0.000000 0.000000 0.000000
# 3 -0.006492 -0.004388 0.015110 0.000000 0.000000 0.000000
# 4 0.000000 0.000000 0.000000 0.016252 0.000000 0.000000
# 5 0.000000 0.000000 0.000000 0.000000 0.019583 0.000000
# 6 0.000000 0.000000 0.000000 0.000000 0.000000 0.017315
#
#
# Mechanical properties :
#
#
# Convention : Reuss Voigt Hill
#
# Bulk Modulus (GPa) = 82.23706 84.00453 83.12080
# Shear Modulus (GPa) = 44.71310 51.01667 47.86489
#
# Velocity S-wave (km/s) = 3.97795 4.24911 4.11576
# Velocity P-wave (km/s) = 7.08538 7.33502 7.21128
#
# Compressibility (1/GPa) = 0.01215997
#
# Stress axis : x y z
#
# Youngs Moduli (GPa) = 89.14493 141.59849 66.17968
#
# Poissons Ratio (x) = -0.03758 0.42967
# Poissons Ratio (y) = -0.02366 0.29040
# Poissons Ratio (z) = 0.57877 0.62134
#
# Static dielectric constant tensor:
#      x y z
#    x 2.556090 0.000000 0.000000 
#    y 0.000000 2.160240 0.000000 
#    z 0.000000 0.000000 2.173210 
# 
# From -- ./inp_files/4435.got.cif
#   From: 2010.05.17/outbox.cif.g08.bks.cpg/sg61_3_cif.got.tgz:4435.got - 2010.06.03 15:17:17.
