data_PCOD9461222
_publ_section_title
;
Structure prediction by ZEFSAII (Michael W. Deem and Ramdas Pophale) SiO2 
 PCOD9461222
Probable space group: P B C A
;
_chemical_formula_sum "Si O2"
_cell_formula_units_Z 48
_cell_length_a 9.623463
_cell_length_b 26.746334
_cell_length_c 7.144534
_cell_angle_alpha 90.000000
_cell_angle_beta 90.000000
_cell_angle_gamma 90.000000
_cell_volume 1838.948436
_symmetry_space_group_name_H-M "P B C A"
_symmetry_group_IT_number 61
_symmetry_cell_setting 'orthorhombic'
loop_
_space_group_symop_operation_xyz
x,y,z
1/2-x,-y,1/2+z
1/2+x,1/2-y,-z
-x,1/2+y,1/2-z
-x,-y,-z
1/2+x,y,1/2-z
1/2-x,1/2+y,z
x,1/2-y,1/2+z
loop_
_atom_site_type_symbol
_atom_site_label
_atom_site_fract_x
_atom_site_fract_y
_atom_site_fract_z
Si Si1 0.822117 0.989231 0.104765
Si Si2 0.235302 0.785026 0.068566
Si Si3 0.524120 0.935868 0.118149
Si Si4 0.347480 0.927582 0.751625
Si Si5 0.516571 0.671866 0.675605
Si Si6 0.273164 0.178138 0.152328
O O1 0.910770 0.968983 0.276827
O O2 0.671111 0.962506 0.105798
O O3 0.784287 0.047146 0.139589
O O4 0.885037 0.967255 0.912506
O O5 0.203918 0.806935 0.866419
O O6 0.354671 0.818291 0.161305
O O7 0.097586 0.709919 0.692155
O O8 0.294531 0.728564 0.065895
O O9 0.462854 0.923509 0.912816
O O10 0.541083 0.884997 0.235016
O O11 0.308337 0.874373 0.658735
O O12 0.588224 0.674887 0.471550
#
# Coordination Sequence:
#
# PCOD9461222 Si02
#       6
#     8   8   8   8   8   8
#     4  12  28  50  79 116 163 203 265 331 390 475
#     4  12  29  50  80 117 162 205 263 327 392 465
#     4  12  27  50  81 117 157 208 266 322 401 469
#     4  12  27  49  79 115 156 209 263 322 395 471
#     4  12  28  50  82 119 160 209 264 328 395 476
#     4  12  28  49  78 115 159 207 259 319 396 470
#
# _framework density 26.101873000000001
#
# number of rings (size 3 to 8) (size 9 to 14) (size 15 to 20)
#    0.000    0.000    6.667    1.500    2.333    4.667 
#    0.000    0.000    0.000    0.000    0.000    0.000 
#    0.000    0.000    0.000    0.000    0.000    0.000 
#
# Total GULP energy -269220.346096 kJ/mol
# GULP energy per Si atom -5608.757210 kJ/mol
# Density = 2.604246 g / cm^3
# Si number density = 26.101873 Si / 1000 Ang^3
#
#
#
# Elastic Constant Matrix: (Units=GPa)
#
#
# Indices 1 2 3 4 5 6 
#
# 1 83.2210 -5.2770 16.3862 0.0000 0.0000 0.0000
# 2 -5.2770 142.0547 5.6953 0.0000 0.0000 0.0000
# 3 16.3862 5.6953 108.5684 0.0000 0.0000 0.0000
# 4 0.0000 0.0000 0.0000 41.5268 0.0000 0.0000
# 5 0.0000 0.0000 0.0000 0.0000 36.7500 0.0000
# 6 0.0000 0.0000 0.0000 0.0000 0.0000 36.1072
#
#
#
# Elastic Compliance Matrix: (Units=1/GPa)
#
#
# Indices 1 2 3 4 5 6 
#
# 1 0.012425 0.000538 -0.001904 0.000000 0.000000 0.000000
# 2 0.000538 0.007078 -0.000452 0.000000 0.000000 0.000000
# 3 -0.001904 -0.000452 0.009522 0.000000 0.000000 0.000000
# 4 0.000000 0.000000 0.000000 0.024081 0.000000 0.000000
# 5 0.000000 0.000000 0.000000 0.000000 0.027211 0.000000
# 6 0.000000 0.000000 0.000000 0.000000 0.000000 0.027695
#
#
# Mechanical properties :
#
#
# Convention : Reuss Voigt Hill
#
# Bulk Modulus (GPa) = 39.38813 40.82811 40.10812
# Shear Modulus (GPa) = 41.62828 44.01277 42.82053
#
# Velocity S-wave (km/s) = 3.99788 4.11078 4.05472
# Velocity P-wave (km/s) = 6.03602 6.18119 6.10904
#
# Compressibility (1/GPa) = 0.02538836
#
# Stress axis : x y z
#
# Youngs Moduli (GPa) = 80.48221 141.28958 105.02193
#
# Poissons Ratio (x) = -0.07600 0.19991
# Poissons Ratio (y) = -0.04329 0.04752
# Poissons Ratio (z) = 0.15320 0.06393
#
# Static dielectric constant tensor:
#      x y z
#    x 2.017860 0.000000 0.000000 
#    y 0.000000 2.090750 0.000000 
#    z 0.000000 0.000000 2.073310 
# 
# From -- ./inp_files/2254.got.cif
#   From: 2010.05.17/outbox.cif.g08.bks.cpg/sg61_2_cif.got.tgz:2254.got - 2010.06.03 15:17:17.
