data_PCOD9461857
_publ_section_title
;
Structure prediction by ZEFSAII (Michael W. Deem and Ramdas Pophale) SiO2 
 PCOD9461857
Probable space group: P N M A
;
_chemical_formula_sum "Si O2"
_cell_formula_units_Z 64
_cell_length_a 19.628712
_cell_length_b 8.204089
_cell_length_c 24.221710
_cell_angle_alpha 90.000000
_cell_angle_beta 90.000000
_cell_angle_gamma 90.000000
_cell_volume 3900.560030
_symmetry_space_group_name_H-M "P N M A"
_symmetry_group_IT_number 62
_symmetry_cell_setting 'orthorhombic'
loop_
_space_group_symop_operation_xyz
x,y,z
1/2-x,-y,1/2+z
1/2+x,1/2-y,1/2-z
-x,1/2+y,-z
-x,-y,-z
1/2+x,y,1/2-z
1/2-x,1/2+y,1/2+z
x,1/2-y,z
loop_
_atom_site_type_symbol
_atom_site_label
_atom_site_fract_x
_atom_site_fract_y
_atom_site_fract_z
Si Si1 0.860732 0.550513 0.434923
Si Si2 0.998471 0.942309 0.253873
Si Si3 0.730962 0.057494 0.835514
Si Si4 0.642931 0.053639 0.060336
Si Si5 0.646574 0.557120 0.732041
Si Si6 0.995767 0.447227 0.618688
Si Si7 0.229269 0.051567 0.338535
Si Si8 0.356534 0.942521 0.731781
O O1 0.860319 0.750000 0.434581
O O2 0.802239 0.497163 0.392377
O O3 0.851426 0.493812 0.497618
O O4 0.934334 0.501104 0.410953
O O5 0.985922 0.750000 0.255980
O O6 0.004291 0.002495 0.317476
O O7 0.070323 0.976341 0.225067
O O8 0.932772 0.021986 0.226000
O O9 0.742973 0.250000 0.839889
O O10 0.675376 0.027669 0.787218
O O11 0.800714 0.976670 0.815123
O O12 0.647648 0.250000 0.058274
O O13 0.700435 0.993180 0.103138
O O14 0.569999 0.010114 0.086423
O O15 0.657380 0.750000 0.739694
O O16 0.695415 0.503687 0.681640
O O17 0.993483 0.250000 0.618613
O O18 0.227675 0.250000 0.339655
O O19 0.178302 0.999157 0.289226
O O20 0.367041 0.750000 0.736574
#
# Coordination Sequence:
#
# PCOD9461857 Si02
#       8
#     8   8   8   8   8   8   8   8
#     4   9  18  31  47  66  94 128 164 197 228 274
#     4  11  20  31  48  70  96 128 158 192 240 289
#     4  10  18  32  48  68  95 126 159 197 238 281
#     4  10  18  31  49  67  90 128 165 195 231 273
#     4  10  19  31  47  68  94 124 158 200 240 283
#     4  10  19  31  42  64  98 127 159 196 227 270
#     4   8  16  29  45  67  91 116 154 195 232 275
#     4  10  19  32  48  70  95 122 158 198 237 285
#
# _framework density 16.407900000000001
#
# number of rings (size 3 to 8) (size 9 to 14) (size 15 to 20)
#    0.000    2.250    2.500    2.625    0.000    0.500 
#    0.000    1.875    0.000    0.000    0.000    0.875 
#    0.000    0.000    0.000    0.000    0.000    0.000 
#
# Total GULP energy -356954.811526 kJ/mol
# GULP energy per Si atom -5577.418930 kJ/mol
# Density = 1.637055 g / cm^3
# Si number density = 16.407900 Si / 1000 Ang^3
#
#
#
# Elastic Constant Matrix: (Units=GPa)
#
#
# Indices 1 2 3 4 5 6 
#
# 1 107.6144 -5.2760 59.6726 0.0000 0.0000 0.0000
# 2 -5.2760 10.3940 1.5989 0.0000 0.0000 0.0000
# 3 59.6726 1.5989 97.7758 0.0000 0.0000 0.0000
# 4 0.0000 0.0000 0.0000 11.4419 0.0000 0.0000
# 5 0.0000 0.0000 0.0000 0.0000 21.2263 0.0000
# 6 0.0000 0.0000 0.0000 0.0000 0.0000 21.9630
#
#
#
# Elastic Compliance Matrix: (Units=1/GPa)
#
#
# Indices 1 2 3 4 5 6 
#
# 1 0.014831 0.008943 -0.009198 0.000000 0.000000 0.000000
# 2 0.008943 0.101845 -0.007123 0.000000 0.000000 0.000000
# 3 -0.009198 -0.007123 0.015957 0.000000 0.000000 0.000000
# 4 0.000000 0.000000 0.000000 0.087398 0.000000 0.000000
# 5 0.000000 0.000000 0.000000 0.000000 0.047111 0.000000
# 6 0.000000 0.000000 0.000000 0.000000 0.000000 0.045531
#
#
# Mechanical properties :
#
#
# Convention : Reuss Voigt Hill
#
# Bulk Modulus (GPa) = 8.48340 36.41948 22.45144
# Shear Modulus (GPa) = 13.63429 21.57881 17.60655
#
# Velocity S-wave (km/s) = 2.88576 3.63043 3.27930
# Velocity P-wave (km/s) = 4.03547 6.31014 5.29636
#
# Compressibility (1/GPa) = 0.11787729
#
# Stress axis : x y z
#
# Youngs Moduli (GPa) = 67.42643 9.81885 62.66743
#
# Poissons Ratio (x) = -0.08781 0.57639
# Poissons Ratio (y) = -0.60300 0.44641
# Poissons Ratio (z) = 0.62016 0.06994
#
# Static dielectric constant tensor:
#      x y z
#    x 1.542900 0.000000 0.000000 
#    y 0.000000 1.575590 0.000000 
#    z 0.000000 0.000000 1.550350 
# 
# From -- ./inp_files/30028.got.cif
#   From: 2010.05.17/outbox.cif.g08.bks.cpg/sg62_16_cif.got.tgz:30028.got - 2010.06.03 15:25:27.
