data_PCOD9461664
_publ_section_title
;
Structure prediction by ZEFSAII (Michael W. Deem and Ramdas Pophale) SiO2 
 PCOD9461664
Probable space group: P N M A
;
_chemical_formula_sum "Si O2"
_cell_formula_units_Z 64
_cell_length_a 18.687937
_cell_length_b 9.274736
_cell_length_c 26.513446
_cell_angle_alpha 90.000000
_cell_angle_beta 90.000000
_cell_angle_gamma 90.000000
_cell_volume 4595.461112
_symmetry_space_group_name_H-M "P N M A"
_symmetry_group_IT_number 62
_symmetry_cell_setting 'orthorhombic'
loop_
_space_group_symop_operation_xyz
x,y,z
1/2-x,-y,1/2+z
1/2+x,1/2-y,1/2-z
-x,1/2+y,-z
-x,-y,-z
1/2+x,y,1/2-z
1/2-x,1/2+y,1/2+z
x,1/2-y,z
loop_
_atom_site_type_symbol
_atom_site_label
_atom_site_fract_x
_atom_site_fract_y
_atom_site_fract_z
Si Si1 0.833292 0.922133 0.143776
Si Si2 0.076099 0.920649 0.939389
Si Si3 0.421771 0.578233 0.253929
Si Si4 0.588351 0.922108 0.252478
Si Si5 0.427053 0.079164 0.558113
Si Si6 0.801460 0.415355 0.301776
Si Si7 0.678704 0.578735 0.353738
Si Si8 0.209672 0.416429 0.302370
O O1 0.827065 0.750000 0.138037
O O2 0.886884 0.950240 0.191138
O O3 0.867487 0.996388 0.095134
O O4 0.757781 0.993246 0.158838
O O5 0.076716 0.750000 0.928615
O O6 0.090154 0.940851 0.999119
O O7 0.997703 0.987873 0.929635
O O8 0.416156 0.750000 0.245731
O O9 0.505039 0.537803 0.252977
O O10 0.374119 0.496876 0.212637
O O11 0.594190 0.750000 0.243397
O O12 0.624047 0.949129 0.307253
O O13 0.635168 0.008018 0.211776
O O14 0.442777 0.250000 0.566116
O O15 0.362158 0.040059 0.594969
O O16 0.814538 0.250000 0.315374
O O17 0.751458 0.494499 0.342265
O O18 0.754994 0.418068 0.249939
O O19 0.693319 0.750000 0.353817
O O20 0.201219 0.250000 0.317674
#
# Coordination Sequence:
#
# PCOD9461664 Si02
#       8
#     8   8   8   8   8   8   8   8
#     4  10  18  29  44  59  79 110 144 172 201 240
#     4  10  19  29  42  61  84 108 137 175 212 241
#     4   9  17  28  42  59  80 109 142 170 198 240
#     4   9  16  26  41  60  80 105 138 170 199 236
#     4   9  18  31  44  59  81 110 142 173 205 242
#     4   9  17  27  39  58  82 105 132 168 207 242
#     4   9  16  28  44  58  77 108 142 170 198 237
#     4   9  17  28  40  57  81 106 133 167 206 243
#
# _framework density 13.926785000000001
#
# number of rings (size 3 to 8) (size 9 to 14) (size 15 to 20)
#    0.000    2.750    0.000    2.250    0.000    7.000 
#    0.000    2.500    0.000    0.000    0.000    0.000 
#    0.000    1.000    0.000    3.000    0.000    4.000 
#
# Total GULP energy -356620.995397 kJ/mol
# GULP energy per Si atom -5572.203053 kJ/mol
# Density = 1.389509 g / cm^3
# Si number density = 13.926785 Si / 1000 Ang^3
#
#
#
# Elastic Constant Matrix: (Units=GPa)
#
#
# Indices 1 2 3 4 5 6 
#
# 1 90.0370 49.3620 30.5630 0.0000 0.0000 0.0000
# 2 49.3620 63.9567 38.6692 0.0000 0.0000 0.0000
# 3 30.5630 38.6692 48.4116 0.0000 0.0000 0.0000
# 4 0.0000 0.0000 0.0000 19.5422 0.0000 0.0000
# 5 0.0000 0.0000 0.0000 0.0000 27.0947 0.0000
# 6 0.0000 0.0000 0.0000 0.0000 0.0000 21.6557
#
#
#
# Elastic Compliance Matrix: (Units=1/GPa)
#
#
# Indices 1 2 3 4 5 6 
#
# 1 0.019261 -0.014532 -0.000552 0.000000 0.000000 0.000000
# 2 -0.014532 0.041203 -0.023737 0.000000 0.000000 0.000000
# 3 -0.000552 -0.023737 0.039965 0.000000 0.000000 0.000000
# 4 0.000000 0.000000 0.000000 0.051171 0.000000 0.000000
# 5 0.000000 0.000000 0.000000 0.000000 0.036908 0.000000
# 6 0.000000 0.000000 0.000000 0.000000 0.000000 0.046177
#
#
# Mechanical properties :
#
#
# Convention : Reuss Voigt Hill
#
# Bulk Modulus (GPa) = 43.88540 48.84374 46.36457
# Shear Modulus (GPa) = 15.62874 19.24593 17.43733
#
# Velocity S-wave (km/s) = 3.35357 3.72147 3.54230
# Velocity P-wave (km/s) = 6.82460 7.32214 7.07774
#
# Compressibility (1/GPa) = 0.02278662
#
# Stress axis : x y z
#
# Youngs Moduli (GPa) = 51.91868 24.27010 25.02170
#
# Poissons Ratio (x) = 0.35268 0.01382
# Poissons Ratio (y) = 0.75446 0.59395
# Poissons Ratio (z) = 0.02868 0.57610
#
# Static dielectric constant tensor:
#      x y z
#    x 1.440050 0.000000 0.000000 
#    y 0.000000 1.465570 0.000000 
#    z 0.000000 0.000000 1.441540 
# 
# From -- ./inp_files/30071.got.cif
#   From: 2010.05.17/outbox.cif.g08.bks.cpg/sg62_16_cif.got.tgz:30071.got - 2010.06.03 15:25:27.
