data_PCOD9461503
_publ_section_title
;
Structure prediction by ZEFSAII (Michael W. Deem and Ramdas Pophale) SiO2 
 PCOD9461503
Probable space group: P N M A
;
_chemical_formula_sum "Si O2"
_cell_formula_units_Z 64
_cell_length_a 22.543700
_cell_length_b 17.251989
_cell_length_c 9.571164
_cell_angle_alpha 90.000000
_cell_angle_beta 90.000000
_cell_angle_gamma 90.000000
_cell_volume 3722.452176
_symmetry_space_group_name_H-M "P N M A"
_symmetry_group_IT_number 62
_symmetry_cell_setting 'orthorhombic'
loop_
_space_group_symop_operation_xyz
x,y,z
1/2-x,-y,1/2+z
1/2+x,1/2-y,1/2-z
-x,1/2+y,-z
-x,-y,-z
1/2+x,y,1/2-z
1/2-x,1/2+y,1/2+z
x,1/2-y,z
loop_
_atom_site_type_symbol
_atom_site_label
_atom_site_fract_x
_atom_site_fract_y
_atom_site_fract_z
Si Si1 0.787664 0.050837 0.479833
Si Si2 0.524566 0.155826 0.045364
Si Si3 0.108118 0.340605 0.203598
Si Si4 0.292444 0.875162 0.927853
Si Si5 0.890366 0.341365 0.433164
Si Si6 0.376602 0.838782 0.172175
Si Si7 0.847595 0.565926 0.053186
Si Si8 0.327736 0.408890 0.317830
O O1 0.839782 0.111273 0.515356
O O2 0.722168 0.078445 0.519246
O O3 0.793807 0.045949 0.310568
O O4 0.798009 0.967839 0.549298
O O5 0.525228 0.250000 0.041319
O O6 0.554838 0.135616 0.192785
O O7 0.456698 0.130768 0.034293
O O8 0.568363 0.130570 0.921315
O O9 0.101221 0.250000 0.162920
O O10 0.166978 0.347345 0.300033
O O11 0.115914 0.396877 0.073134
O O12 0.223502 0.860897 0.895314
O O13 0.320418 0.839920 0.067590
O O14 0.885963 0.250000 0.458805
O O15 0.874631 0.359039 0.270205
O O16 0.388473 0.750000 0.213279
O O17 0.364921 0.890671 0.305406
O O18 0.854136 0.474026 0.080963
#
# Coordination Sequence:
#
# PCOD9461503 Si02
#       8
#     8   8   8   8   8   8   8   8
#     4   9  19  31  50  74 100 134 164 200 258 302
#     4   8  17  33  52  73  98 131 168 210 258 295
#     4  10  19  31  52  76  97 132 172 208 247 295
#     4  10  17  33  48  71 103 133 162 204 247 308
#     4   9  17  34  54  75  98 130 179 214 238 302
#     4  10  19  30  49  75 103 130 163 211 259 294
#     4  11  19  33  49  76 109 130 164 208 257 307
#     4   9  19  31  49  73 101 133 166 200 258 298
#
# _framework density 17.192968
#
# number of rings (size 3 to 8) (size 9 to 14) (size 15 to 20)
#    0.750    1.750    2.500    1.500    0.000    3.000 
#    0.000    6.250    0.000    1.500    0.000    3.500 
#    0.000    0.000    0.000    0.000    0.000    0.000 
#
# Total GULP energy -356281.025260 kJ/mol
# GULP energy per Si atom -5566.891020 kJ/mol
# Density = 1.715384 g / cm^3
# Si number density = 17.192968 Si / 1000 Ang^3
#
#
#
# Elastic Constant Matrix: (Units=GPa)
#
#
# Indices 1 2 3 4 5 6 
#
# 1 65.1775 26.9980 8.8782 0.0000 0.0000 0.0000
# 2 26.9980 36.6824 5.7405 0.0000 0.0000 0.0000
# 3 8.8782 5.7405 54.3780 0.0000 0.0000 0.0000
# 4 0.0000 0.0000 0.0000 29.9542 0.0000 0.0000
# 5 0.0000 0.0000 0.0000 0.0000 15.5747 0.0000
# 6 0.0000 0.0000 0.0000 0.0000 0.0000 88.9177
#
#
#
# Elastic Compliance Matrix: (Units=1/GPa)
#
#
# Indices 1 2 3 4 5 6 
#
# 1 0.022271 -0.016088 -0.001938 0.000000 0.000000 0.000000
# 2 -0.016088 0.039340 -0.001526 0.000000 0.000000 0.000000
# 3 -0.001938 -0.001526 0.018867 0.000000 0.000000 0.000000
# 4 0.000000 0.000000 0.000000 0.033384 0.000000 0.000000
# 5 0.000000 0.000000 0.000000 0.000000 0.064207 0.000000
# 6 0.000000 0.000000 0.000000 0.000000 0.000000 0.011246
#
#
# Mechanical properties :
#
#
# Convention : Reuss Voigt Hill
#
# Bulk Modulus (GPa) = 24.16954 26.60795 25.38874
# Shear Modulus (GPa) = 20.64314 34.53072 27.58693
#
# Velocity S-wave (km/s) = 3.46883 4.48640 4.01003
# Velocity P-wave (km/s) = 5.48927 6.50744 6.01992
#
# Compressibility (1/GPa) = 0.04137439
#
# Stress axis : x y z
#
# Youngs Moduli (GPa) = 44.90228 25.41916 53.00176
#
# Poissons Ratio (x) = 0.40894 0.10270
# Poissons Ratio (y) = 0.72238 0.08090
# Poissons Ratio (z) = 0.08701 0.03880
#
# Static dielectric constant tensor:
#      x y z
#    x 1.590910 0.000000 0.000000 
#    y 0.000000 1.587160 0.000000 
#    z 0.000000 0.000000 1.574160 
# 
# From -- ./inp_files/9586.got.cif
#   From: 2010.05.17/outbox.cif.g08.bks.cpg/sg62_5_cif.got.tgz:9586.got - 2010.06.03 15:25:27.
