data_PCOD9461992
_publ_section_title
;
Structure prediction by ZEFSAII (Michael W. Deem and Ramdas Pophale) SiO2 
 PCOD9461992
Probable space group: P N M A
;
_chemical_formula_sum "Si O2"
_cell_formula_units_Z 48
_cell_length_a 8.435024
_cell_length_b 12.809634
_cell_length_c 19.545241
_cell_angle_alpha 90.000000
_cell_angle_beta 90.000000
_cell_angle_gamma 90.000000
_cell_volume 2111.854890
_symmetry_space_group_name_H-M "P N M A"
_symmetry_group_IT_number 62
_symmetry_cell_setting 'orthorhombic'
loop_
_space_group_symop_operation_xyz
x,y,z
1/2-x,-y,1/2+z
1/2+x,1/2-y,1/2-z
-x,1/2+y,-z
-x,-y,-z
1/2+x,y,1/2-z
1/2-x,1/2+y,1/2+z
x,1/2-y,z
loop_
_atom_site_type_symbol
_atom_site_label
_atom_site_fract_x
_atom_site_fract_y
_atom_site_fract_z
Si Si1 0.194612 0.492039 0.278507
Si Si2 0.582475 0.125523 0.936279
Si Si3 0.080440 0.871490 0.020863
Si Si4 0.900248 0.062284 0.342985
Si Si5 0.974886 0.871141 0.178317
Si Si6 0.735710 0.870577 0.984160
O O1 0.297553 0.426262 0.224874
O O2 0.310320 0.565934 0.321591
O O3 0.082528 0.420005 0.324389
O O4 0.085257 0.567558 0.231753
O O5 0.589090 0.250000 0.925024
O O6 0.734446 0.094765 0.983474
O O7 0.602079 0.059245 0.867401
O O8 0.413938 0.096492 0.969297
O O9 0.088246 0.750000 0.997834
O O10 0.046403 0.874228 0.102364
O O11 0.915781 0.914199 0.988008
O O12 0.827890 0.121675 0.406951
O O13 0.953960 0.750000 0.197640
O O14 0.756318 0.750000 0.005012
#
# Coordination Sequence:
#
# PCOD9461992 Si02
#       6
#     8   8   8   8   8   8
#     4  10  22  34  51  78 114 151 195 230 265 340
#     4  10  20  36  59  90 120 145 180 231 289 355
#     4   9  18  34  55  84 113 142 184 231 282 342
#     4  11  22  40  56  82 114 152 191 236 283 333
#     4  10  18  32  52  79 115 152 183 220 278 342
#     4  10  22  40  61  84 111 146 195 246 291 333
#
# _framework density 22.728833999999999
#
# number of rings (size 3 to 8) (size 9 to 14) (size 15 to 20)
#    0.000    2.000    1.667    2.000    0.000    5.333 
#    6.000    0.833    0.000    0.000    0.000    0.000 
#    0.000    0.000    0.000    0.000    0.000    0.000 
#
# Total GULP energy -267977.236130 kJ/mol
# GULP energy per Si atom -5582.859086 kJ/mol
# Density = 2.267710 g / cm^3
# Si number density = 22.728834 Si / 1000 Ang^3
#
#
#
# Elastic Constant Matrix: (Units=GPa)
#
#
# Indices 1 2 3 4 5 6 
#
# 1 166.0615 18.7352 26.3670 0.0000 0.0000 0.0000
# 2 18.7352 17.9561 -4.9655 0.0000 0.0000 0.0000
# 3 26.3670 -4.9655 32.4251 0.0000 0.0000 0.0000
# 4 0.0000 0.0000 0.0000 -19.2160 0.0000 0.0000
# 5 0.0000 0.0000 0.0000 0.0000 45.5524 0.0000
# 6 0.0000 0.0000 0.0000 0.0000 0.0000 29.4738
#
#
#
# Elastic Compliance Matrix: (Units=1/GPa)
#
#
# Indices 1 2 3 4 5 6 
#
# 1 0.008737 -0.011570 -0.008876 0.000000 0.000000 0.000000
# 2 -0.011570 0.073477 0.020661 0.000000 0.000000 0.000000
# 3 -0.008876 0.020661 0.041222 0.000000 0.000000 0.000000
# 4 0.000000 0.000000 0.000000 -0.052040 0.000000 0.000000
# 5 0.000000 0.000000 0.000000 0.000000 0.021953 0.000000
# 6 0.000000 0.000000 0.000000 0.000000 0.000000 0.033928
#
#
# Mechanical properties :
#
#
# Convention : Reuss Voigt Hill
#
# Bulk Modulus (GPa) = 8.07335 32.96846 20.52091
# Shear Modulus (GPa) = 29.73778 22.91577 26.32678
#
# Velocity S-wave (km/s) = 3.62107 3.17870 3.40707
# Velocity P-wave (km/s) = 4.58722 5.29233 4.95234
#
# Compressibility (1/GPa) = 0.12386431
#
# Stress axis : x y z
#
# Youngs Moduli (GPa) = 114.46127 13.60969 24.25886
#
# Poissons Ratio (x) = 0.15747 0.21533
# Poissons Ratio (y) = 1.32434 -0.50121
# Poissons Ratio (z) = 1.01598 -0.28119
#
# Static dielectric constant tensor:
#      x y z
#    x 1.910420 0.000000 0.000000 
#    y 0.000000 1.895370 0.000000 
#    z 0.000000 0.000000 1.811620 
# 
# From -- ./inp_files/22212.got.cif
#   From: 2010.05.17/outbox.cif.g08.bks.cpg/sg62_12_cif.got.tgz:22212.got - 2010.06.03 15:25:27.
