data_PCOD9461285
_publ_section_title
;
Structure prediction by ZEFSAII (Michael W. Deem and Ramdas Pophale) SiO2 
 PCOD9461285
Probable space group: P B C A
;
_chemical_formula_sum "Si O2"
_cell_formula_units_Z 64
_cell_length_a 9.000000
_cell_length_b 24.000000
_cell_length_c 15.000000
_cell_angle_alpha 90.000000
_cell_angle_beta 90.000000
_cell_angle_gamma 90.000000
_cell_volume 3240.000000
_symmetry_space_group_name_H-M "P B C A"
_symmetry_group_IT_number 61
_symmetry_cell_setting 'orthorhombic'
loop_
_space_group_symop_operation_xyz
x,y,z
1/2-x,-y,1/2+z
1/2+x,1/2-y,-z
-x,1/2+y,1/2-z
-x,-y,-z
1/2+x,y,1/2-z
1/2-x,1/2+y,z
x,1/2-y,1/2+z
loop_
_atom_site_type_symbol
_atom_site_label
_atom_site_fract_x
_atom_site_fract_y
_atom_site_fract_z
Si Si1 0.298811 0.861014 0.096600
Si Si2 0.851456 0.969260 0.745533
Si Si3 0.446886 0.749144 0.156972
Si Si4 0.805770 0.749490 0.150318
Si Si5 0.101704 0.444971 0.252094
Si Si6 0.304881 0.878413 0.894099
Si Si7 0.951709 0.879342 0.886890
Si Si8 0.945087 0.861244 0.089488
O O1 0.377475 0.800300 0.100987
O O2 0.357937 0.904529 0.169895
O O3 0.121247 0.852773 0.107591
O O4 0.323615 0.886524 0.999000
O O5 0.880490 0.927029 0.663342
O O6 0.876801 0.928139 0.829490
O O7 0.689479 0.996472 0.742662
O O8 0.939498 0.027868 0.746117
O O9 0.626300 0.752385 0.153834
O O10 0.380811 0.760147 0.254464
O O11 0.404784 0.684845 0.134356
O O12 0.849395 0.685965 0.125079
O O13 0.866718 0.800712 0.091655
O O14 0.115215 0.404605 0.337556
O O15 0.129276 0.881399 0.870771
O O16 0.927046 0.886969 0.991741
#
# Coordination Sequence:
#
# PCOD9461285 Si02
#       8
#     8   8   8   8   8   8   8   8
#     4  11  24  44  67  96 130 169 210 268 322 380
#     4  12  24  45  65  94 126 170 222 263 313 374
#     4  11  22  39  68  99 129 163 211 261 328 382
#     4  11  22  39  68  98 128 167 206 264 324 387
#     4  12  26  41  67  92 128 170 220 266 308 376
#     4  10  23  44  68  96 131 164 213 267 323 380
#     4  10  23  44  69  96 127 171 212 263 323 385
#     4  11  24  44  68  95 130 170 214 261 323 384
#
# _framework density 19.753086
#
# number of rings (size 3 to 8) (size 9 to 14) (size 15 to 20)
#    0.000    1.000    5.000    1.500    1.750    2.000 
#    4.500    0.000    0.000    0.000    0.000    0.000 
#    0.000    0.000    0.000    0.000    0.000    0.000 
#
# Total GULP energy -357148.915022 kJ/mol
# GULP energy per Si atom -5580.451797 kJ/mol
# Density = 1.970813 g / cm^3
# Si number density = 19.753086 Si / 1000 Ang^3
#
#
#
# Elastic Constant Matrix: (Units=GPa)
#
#
# Indices 1 2 3 4 5 6 
#
# 1 11.1465 4.4425 8.4285 0.0000 0.0000 0.0000
# 2 4.4425 120.8946 32.4307 0.0000 0.0000 0.0000
# 3 8.4285 32.4307 67.3723 0.0000 0.0000 0.0000
# 4 0.0000 0.0000 0.0000 18.0668 0.0000 0.0000
# 5 0.0000 0.0000 0.0000 0.0000 21.5485 0.0000
# 6 0.0000 0.0000 0.0000 0.0000 0.0000 41.3413
#
#
#
# Elastic Compliance Matrix: (Units=1/GPa)
#
#
# Indices 1 2 3 4 5 6 
#
# 1 0.099102 -0.000363 -0.012223 0.000000 0.000000 0.000000
# 2 -0.000363 0.009499 -0.004527 0.000000 0.000000 0.000000
# 3 -0.012223 -0.004527 0.018551 0.000000 0.000000 0.000000
# 4 0.000000 0.000000 0.000000 0.055350 0.000000 0.000000
# 5 0.000000 0.000000 0.000000 0.000000 0.046407 0.000000
# 6 0.000000 0.000000 0.000000 0.000000 0.000000 0.024189
#
#
# Mechanical properties :
#
#
# Convention : Reuss Voigt Hill
#
# Bulk Modulus (GPa) = 10.76131 32.22411 21.49271
# Shear Modulus (GPa) = 15.70843 26.46544 21.08693
#
# Velocity S-wave (km/s) = 2.82306 3.66432 3.27085
# Velocity P-wave (km/s) = 4.01073 5.85251 5.01686
#
# Compressibility (1/GPa) = 0.09292551
#
# Stress axis : x y z
#
# Youngs Moduli (GPa) = 10.09066 105.26888 53.90429
#
# Poissons Ratio (x) = 0.03818 0.65889
# Poissons Ratio (y) = 0.00366 0.24404
# Poissons Ratio (z) = 0.12334 0.47659
#
# Static dielectric constant tensor:
#      x y z
#    x 1.700040 0.000000 0.000000 
#    y 0.000000 1.649460 0.000000 
#    z 0.000000 0.000000 1.707440 
# 
# From -- ./inp_files/7256.got.cif
#   From: 2010.05.17/outbox.ucp.g08.bks.cvg/sg61_4_cif.got.tgz:7256.got - 2010.06.11 16:28:26.
