data_PCOD9461739
_publ_section_title
;
Structure prediction by ZEFSAII (Michael W. Deem and Ramdas Pophale) SiO2 
 PCOD9461739
Probable space group: P N M A
;
_chemical_formula_sum "Si O2"
_cell_formula_units_Z 48
_cell_length_a 14.393940
_cell_length_b 19.734784
_cell_length_c 9.866023
_cell_angle_alpha 90.000000
_cell_angle_beta 90.000000
_cell_angle_gamma 90.000000
_cell_volume 2802.555288
_symmetry_space_group_name_H-M "P N M A"
_symmetry_group_IT_number 62
_symmetry_cell_setting 'orthorhombic'
loop_
_space_group_symop_operation_xyz
x,y,z
1/2-x,-y,1/2+z
1/2+x,1/2-y,1/2-z
-x,1/2+y,-z
-x,-y,-z
1/2+x,y,1/2-z
1/2-x,1/2+y,1/2+z
x,1/2-y,z
loop_
_atom_site_type_symbol
_atom_site_label
_atom_site_fract_x
_atom_site_fract_y
_atom_site_fract_z
Si Si1 0.103131 0.170682 0.667146
Si Si2 0.759116 0.976646 0.583744
Si Si3 0.060590 0.560344 0.829693
Si Si4 0.720010 0.918294 0.303615
Si Si5 0.492756 0.406453 0.622895
Si Si6 0.962882 0.928951 0.561094
O O1 0.099917 0.250000 0.641862
O O2 0.208204 0.142030 0.668946
O O3 0.047106 0.127367 0.554526
O O4 0.056299 0.149791 0.809018
O O5 0.670679 0.937746 0.645272
O O6 0.743881 0.973886 0.421475
O O7 0.858204 0.942925 0.612641
O O8 0.762103 0.048915 0.657330
O O9 0.031357 0.480610 0.833440
O O10 0.027375 0.589306 0.687445
O O11 0.011871 0.593393 0.960317
O O12 0.612649 0.900415 0.323190
O O13 0.000000 0.000000 0.500000
#
# Coordination Sequence:
#
# PCOD9461739 Si02
#       6
#     8   8   8   8   8   8
#     4  11  23  37  53  78 114 150 183 225 285 345
#     4  10  18  29  52  81 109 133 173 230 279 314
#     4  10  18  31  54  84 110 131 182 237 276 314
#     4  10  19  32  52  79 106 140 177 225 273 328
#     4  10  19  33  53  81 110 140 178 227 275 325
#     4  11  19  35  56  82 109 146 190 234 274 324
#
# _framework density 17.127226
#
# number of rings (size 3 to 8) (size 9 to 14) (size 15 to 20)
#    0.000    1.667    5.000    1.000    0.000    0.667 
#    0.000    0.833    0.000    4.000    0.000    0.000 
#    0.000    0.000    0.000    0.000    0.000    0.000 
#
# Total GULP energy -267716.796495 kJ/mol
# GULP energy per Si atom -5577.433260 kJ/mol
# Density = 1.708824 g / cm^3
# Si number density = 17.127226 Si / 1000 Ang^3
#
#
#
# Elastic Constant Matrix: (Units=GPa)
#
#
# Indices 1 2 3 4 5 6 
#
# 1 95.8776 25.1581 32.7859 0.0000 0.0000 0.0000
# 2 25.1581 94.3084 43.2051 0.0000 0.0000 0.0000
# 3 32.7859 43.2051 73.5389 0.0000 0.0000 0.0000
# 4 0.0000 0.0000 0.0000 16.1914 0.0000 0.0000
# 5 0.0000 0.0000 0.0000 0.0000 27.8082 0.0000
# 6 0.0000 0.0000 0.0000 0.0000 0.0000 14.5661
#
#
#
# Elastic Compliance Matrix: (Units=1/GPa)
#
#
# Indices 1 2 3 4 5 6 
#
# 1 0.012383 -0.001059 -0.004898 0.000000 0.000000 0.000000
# 2 -0.001059 0.014599 -0.008105 0.000000 0.000000 0.000000
# 3 -0.004898 -0.008105 0.020544 0.000000 0.000000 0.000000
# 4 0.000000 0.000000 0.000000 0.061761 0.000000 0.000000
# 5 0.000000 0.000000 0.000000 0.000000 0.035961 0.000000
# 6 0.000000 0.000000 0.000000 0.000000 0.000000 0.068653
#
#
# Mechanical properties :
#
#
# Convention : Reuss Voigt Hill
#
# Bulk Modulus (GPa) = 51.54425 51.78034 51.66230
# Shear Modulus (GPa) = 20.12133 22.55152 21.33643
#
# Velocity S-wave (km/s) = 3.43128 3.63258 3.53336
# Velocity P-wave (km/s) = 6.77189 6.92045 6.84657
#
# Compressibility (1/GPa) = 0.01940080
#
# Stress axis : x y z
#
# Youngs Moduli (GPa) = 80.75636 68.49707 48.67636
#
# Poissons Ratio (x) = 0.07256 0.23843
# Poissons Ratio (y) = 0.08554 0.39452
# Poissons Ratio (z) = 0.39557 0.55517
#
# Static dielectric constant tensor:
#      x y z
#    x 1.606790 0.000000 0.000000 
#    y 0.000000 1.543240 0.000000 
#    z 0.000000 0.000000 1.612830 
# 
# From -- ./inp_files/6628.got.cif
#   From: 2010.05.17/outbox.cif.g08.bks.cpg/sg62_4_cif.got.tgz:6628.got - 2010.06.03 15:25:27.
