data_PCOD9461165
_publ_section_title
;
Structure prediction by ZEFSAII (Michael W. Deem and Ramdas Pophale) SiO2 
 PCOD9461165
Probable space group: P B C A
;
_chemical_formula_sum "Si O2"
_cell_formula_units_Z 48
_cell_length_a 13.770338
_cell_length_b 9.787554
_cell_length_c 17.622761
_cell_angle_alpha 90.000000
_cell_angle_beta 90.000000
_cell_angle_gamma 90.000000
_cell_volume 2375.159192
_symmetry_space_group_name_H-M "P B C A"
_symmetry_group_IT_number 61
_symmetry_cell_setting 'orthorhombic'
loop_
_space_group_symop_operation_xyz
x,y,z
1/2-x,-y,1/2+z
1/2+x,1/2-y,-z
-x,1/2+y,1/2-z
-x,-y,-z
1/2+x,y,1/2-z
1/2-x,1/2+y,z
x,1/2-y,1/2+z
loop_
_atom_site_type_symbol
_atom_site_label
_atom_site_fract_x
_atom_site_fract_y
_atom_site_fract_z
Si Si1 0.044916 0.510665 0.702810
Si Si2 0.944653 0.898411 0.057512
Si Si3 0.251242 0.424826 0.125345
Si Si4 0.240919 0.827132 0.517293
Si Si5 0.440756 0.804188 0.181330
Si Si6 0.028820 0.846534 0.480664
O O1 0.145197 0.565103 0.666265
O O2 0.056151 0.348414 0.714553
O O3 0.961122 0.540480 0.640385
O O4 0.013949 0.594865 0.776209
O O5 0.835398 0.873708 0.029079
O O6 0.998501 0.753134 0.049022
O O7 0.000000 0.000000 0.000000
O O8 0.251951 0.323038 0.053159
O O9 0.229230 0.572582 0.089632
O O10 0.166466 0.369848 0.179761
O O11 0.143525 0.836791 0.468827
O O12 0.472302 0.795412 0.093373
O O13 0.000000 0.000000 0.500000
#
# Coordination Sequence:
#
# PCOD9461165 Si02
#       6
#     8   8   8   8   8   8
#     4  12  28  45  71  99 146 184 230 291 350 425
#     4  12  21  44  69  99 130 179 233 287 338 406
#     4  12  22  45  70  97 135 183 229 281 359 419
#     4  12  22  39  74 103 130 180 232 290 347 405
#     4  12  28  46  67 105 142 185 230 286 357 421
#     4  12  23  40  69 105 133 170 238 288 333 411
#
# _framework density 20.209171000000001
#
# number of rings (size 3 to 8) (size 9 to 14) (size 15 to 20)
#    0.000    0.000   10.000    0.000    4.667    1.333 
#    0.000    0.000    0.000    0.000    0.000    0.000 
#    0.000    0.000    0.000    0.000    0.000    0.000 
#
# Total GULP energy -268465.414267 kJ/mol
# GULP energy per Si atom -5593.029464 kJ/mol
# Density = 2.016317 g / cm^3
# Si number density = 20.209171 Si / 1000 Ang^3
#
#
#
# Elastic Constant Matrix: (Units=GPa)
#
#
# Indices 1 2 3 4 5 6 
#
# 1 137.5487 20.3114 -2.7205 0.0000 0.0000 0.0000
# 2 20.3114 85.7822 -7.6406 0.0000 0.0000 0.0000
# 3 -2.7205 -7.6406 22.4532 0.0000 0.0000 0.0000
# 4 0.0000 0.0000 0.0000 34.6074 0.0000 0.0000
# 5 0.0000 0.0000 0.0000 0.0000 36.5787 0.0000
# 6 0.0000 0.0000 0.0000 0.0000 0.0000 28.5196
#
#
#
# Elastic Compliance Matrix: (Units=1/GPa)
#
#
# Indices 1 2 3 4 5 6 
#
# 1 0.007536 -0.001756 0.000315 0.000000 0.000000 0.000000
# 2 -0.001756 0.012431 0.004017 0.000000 0.000000 0.000000
# 3 0.000315 0.004017 0.045942 0.000000 0.000000 0.000000
# 4 0.000000 0.000000 0.000000 0.028896 0.000000 0.000000
# 5 0.000000 0.000000 0.000000 0.000000 0.027338 0.000000
# 6 0.000000 0.000000 0.000000 0.000000 0.000000 0.035064
#
#
# Mechanical properties :
#
#
# Convention : Reuss Voigt Hill
#
# Bulk Modulus (GPa) = 14.07213 29.52052 21.79632
# Shear Modulus (GPa) = 28.45096 35.66339 32.05717
#
# Velocity S-wave (km/s) = 3.75617 4.20541 3.98712
# Velocity P-wave (km/s) = 5.07840 6.18222 5.65729
#
# Compressibility (1/GPa) = 0.07106246
#
# Stress axis : x y z
#
# Youngs Moduli (GPa) = 132.70120 80.44350 21.76639
#
# Poissons Ratio (x) = 0.14128 -0.00687
# Poissons Ratio (y) = 0.23305 -0.08744
# Poissons Ratio (z) = -0.04186 -0.32317
#
# Static dielectric constant tensor:
#      x y z
#    x 1.733360 0.000000 0.000000 
#    y 0.000000 1.721740 0.000000 
#    z 0.000000 0.000000 1.711430 
# 
# From -- ./inp_files/3418.got.cif
#   From: 2010.05.17/outbox.cif.g08.bks.cpg/sg61_2_cif.got.tgz:3418.got - 2010.06.03 15:17:17.
