data_PCOD9461176
_publ_section_title
;
Structure prediction by ZEFSAII (Michael W. Deem and Ramdas Pophale) SiO2 
 PCOD9461176
Probable space group: P B C A
;
_chemical_formula_sum "Si O2"
_cell_formula_units_Z 48
_cell_length_a 14.137836
_cell_length_b 17.193098
_cell_length_c 8.600058
_cell_angle_alpha 90.000000
_cell_angle_beta 90.000000
_cell_angle_gamma 90.000000
_cell_volume 2090.443617
_symmetry_space_group_name_H-M "P B C A"
_symmetry_group_IT_number 61
_symmetry_cell_setting 'orthorhombic'
loop_
_space_group_symop_operation_xyz
x,y,z
1/2-x,-y,1/2+z
1/2+x,1/2-y,-z
-x,1/2+y,1/2-z
-x,-y,-z
1/2+x,y,1/2-z
1/2-x,1/2+y,z
x,1/2-y,1/2+z
loop_
_atom_site_type_symbol
_atom_site_label
_atom_site_fract_x
_atom_site_fract_y
_atom_site_fract_z
Si Si1 0.271894 0.409476 0.483790
Si Si2 0.863107 0.707127 0.430088
Si Si3 0.493439 0.920063 0.407527
Si Si4 0.206701 0.563038 0.616295
Si Si5 0.131714 0.356406 0.901395
Si Si6 0.458292 0.037071 0.150424
O O1 0.234420 0.321964 0.491711
O O2 0.202455 0.472174 0.566822
O O3 0.276127 0.432118 0.301977
O O4 0.364073 0.420172 0.593050
O O5 0.937376 0.648835 0.512272
O O6 0.897126 0.793424 0.468794
O O7 0.840135 0.694019 0.249103
O O8 0.603972 0.897151 0.396258
O O9 0.500000 0.000000 0.500000
O O10 0.445885 0.959824 0.255787
O O11 0.285171 0.596241 0.492928
O O12 0.045156 0.404013 0.821089
O O13 0.500000 0.000000 0.000000
#
# Coordination Sequence:
#
# PCOD9461176 Si02
#       6
#     8   8   8   8   8   8
#     4  12  24  41  72 102 139 182 235 292 352 434
#     4  12  28  46  70 103 146 188 238 303 366 429
#     4  12  24  45  75 106 140 189 244 299 358 433
#     4  12  24  42  71 103 137 183 235 289 356 431
#     4  12  28  47  69 104 145 188 238 303 367 432
#     4  12  24  45  75 108 141 186 246 297 361 433
#
# _framework density 22.961634
#
# number of rings (size 3 to 8) (size 9 to 14) (size 15 to 20)
#    0.000    0.000    6.667    3.000    4.667    1.333 
#    0.000    0.000    0.000    0.000    0.000    0.000 
#    0.000    0.000    0.000    0.000    0.000    0.000 
#
# Total GULP energy -267238.810571 kJ/mol
# GULP energy per Si atom -5567.475220 kJ/mol
# Density = 2.290937 g / cm^3
# Si number density = 22.961634 Si / 1000 Ang^3
#
#
#
# Elastic Constant Matrix: (Units=GPa)
#
#
# Indices 1 2 3 4 5 6 
#
# 1 141.3846 19.6539 15.7605 0.0000 0.0000 0.0000
# 2 19.6539 68.7564 5.8947 0.0000 0.0000 0.0000
# 3 15.7605 5.8947 114.2242 0.0000 0.0000 0.0000
# 4 0.0000 0.0000 0.0000 36.7900 0.0000 0.0000
# 5 0.0000 0.0000 0.0000 0.0000 27.7029 0.0000
# 6 0.0000 0.0000 0.0000 0.0000 0.0000 25.7266
#
#
#
# Elastic Compliance Matrix: (Units=1/GPa)
#
#
# Indices 1 2 3 4 5 6 
#
# 1 0.007461 -0.002054 -0.000924 0.000000 0.000000 0.000000
# 2 -0.002054 0.015174 -0.000500 0.000000 0.000000 0.000000
# 3 -0.000924 -0.000500 0.008908 0.000000 0.000000 0.000000
# 4 0.000000 0.000000 0.000000 0.027181 0.000000 0.000000
# 5 0.000000 0.000000 0.000000 0.000000 0.036097 0.000000
# 6 0.000000 0.000000 0.000000 0.000000 0.000000 0.038870
#
#
# Mechanical properties :
#
#
# Convention : Reuss Voigt Hill
#
# Bulk Modulus (GPa) = 40.66778 45.22037 42.94407
# Shear Modulus (GPa) = 33.59259 36.91430 35.25345
#
# Velocity S-wave (km/s) = 3.82905 4.01390 3.92257
# Velocity P-wave (km/s) = 6.10725 6.42017 6.26566
#
# Compressibility (1/GPa) = 0.02458949
#
# Stress axis : x y z
#
# Youngs Moduli (GPa) = 134.02439 65.90233 112.25953
#
# Poissons Ratio (x) = 0.13534 0.10367
# Poissons Ratio (y) = 0.27524 0.05610
# Poissons Ratio (z) = 0.12377 0.03293
#
# Static dielectric constant tensor:
#      x y z
#    x 1.937240 0.000000 0.000000 
#    y 0.000000 1.826460 0.000000 
#    z 0.000000 0.000000 1.970310 
# 
# From -- ./inp_files/2875.got.cif
#   From: 2010.05.17/outbox.cif.g08.bks.cpg/sg61_2_cif.got.tgz:2875.got - 2010.06.03 15:17:17.
