data_PCOD9461579
_publ_section_title
;
Structure prediction by ZEFSAII (Michael W. Deem and Ramdas Pophale) SiO2 
 PCOD9461579
Probable space group: P N M A
;
_chemical_formula_sum "Si O2"
_cell_formula_units_Z 48
_cell_length_a 12.674996
_cell_length_b 9.542197
_cell_length_c 16.544067
_cell_angle_alpha 90.000000
_cell_angle_beta 90.000000
_cell_angle_gamma 90.000000
_cell_volume 2000.960380
_symmetry_space_group_name_H-M "P N M A"
_symmetry_group_IT_number 62
_symmetry_cell_setting 'orthorhombic'
loop_
_space_group_symop_operation_xyz
x,y,z
1/2-x,-y,1/2+z
1/2+x,1/2-y,1/2-z
-x,1/2+y,-z
-x,-y,-z
1/2+x,y,1/2-z
1/2-x,1/2+y,1/2+z
x,1/2-y,z
loop_
_atom_site_type_symbol
_atom_site_label
_atom_site_fract_x
_atom_site_fract_y
_atom_site_fract_z
Si Si1 0.235246 0.094191 0.045351
Si Si2 0.823839 0.910001 0.698814
Si Si3 0.976796 0.412722 0.799494
Si Si4 0.576670 0.901077 0.079600
Si Si5 0.881784 0.415008 0.088607
Si Si6 0.363318 0.596072 0.147336
O O1 0.190438 0.250000 0.057422
O O2 0.341683 0.109452 0.992175
O O3 0.161551 0.994687 0.990663
O O4 0.281156 0.023416 0.125726
O O5 0.838118 0.750000 0.724716
O O6 0.708535 0.927287 0.659211
O O7 0.896684 0.953292 0.622810
O O8 0.871809 0.019919 0.762014
O O9 0.966661 0.250000 0.821515
O O10 0.018550 0.505312 0.873662
O O11 0.065604 0.421954 0.727581
O O12 0.598006 0.750000 0.126027
O O13 0.450988 0.899721 0.075138
O O14 0.898224 0.250000 0.073879
O O15 0.312900 0.750000 0.150811
#
# Coordination Sequence:
#
# PCOD9461579 Si02
#       6
#     8   8   8   8   8   8
#     4  10  18  27  42  64  90 121 155 189 227 274
#     4   9  17  29  46  68  93 122 156 192 231 275
#     4  10  20  33  49  69  95 126 159 196 235 277
#     4   8  15  26  39  59  89 122 152 182 219 267
#     4  10  20  33  49  69  95 126 159 196 235 277
#     4   9  17  28  41  61  90 121 152 187 228 272
#
# _framework density 23.988479000000002
#
# number of rings (size 3 to 8) (size 9 to 14) (size 15 to 20)
#    0.000    2.667    0.000    3.500    0.000    6.000 
#    0.000    3.333    0.000    0.000    0.000    1.167 
#    0.000    0.000    0.000    0.000    0.000    0.000 
#
# Total GULP energy -267678.805576 kJ/mol
# GULP energy per Si atom -5576.641783 kJ/mol
# Density = 2.393388 g / cm^3
# Si number density = 23.988479 Si / 1000 Ang^3
#
#
#
# Elastic Constant Matrix: (Units=GPa)
#
#
# Indices 1 2 3 4 5 6 
#
# 1 24.5926 54.4746 63.0922 0.0000 0.0000 0.0000
# 2 54.4746 169.9263 54.0515 0.0000 0.0000 0.0000
# 3 63.0922 54.0515 39.8069 0.0000 0.0000 0.0000
# 4 0.0000 0.0000 0.0000 11.8561 0.0000 0.0000
# 5 0.0000 0.0000 0.0000 0.0000 150.5288 0.0000
# 6 0.0000 0.0000 0.0000 0.0000 0.0000 11.7222
#
#
#
# Elastic Compliance Matrix: (Units=1/GPa)
#
#
# Indices 1 2 3 4 5 6 
#
# 1 -0.011698 -0.003780 0.023673 0.000000 0.000000 0.000000
# 2 -0.003780 0.009138 -0.006416 0.000000 0.000000 0.000000
# 3 0.023673 -0.006416 -0.003688 0.000000 0.000000 0.000000
# 4 0.000000 0.000000 0.000000 0.084345 0.000000 0.000000
# 5 0.000000 0.000000 0.000000 0.000000 0.006643 0.000000
# 6 0.000000 0.000000 0.000000 0.000000 0.000000 0.085308
#
#
# Mechanical properties :
#
#
# Convention : Reuss Voigt Hill
#
# Bulk Modulus (GPa) = 48.29482 64.17360 56.23421
# Shear Modulus (GPa) = 33.33414 39.00190 36.16802
#
# Velocity S-wave (km/s) = 3.73176 4.03657 3.88716
# Velocity P-wave (km/s) = 6.22449 6.96671 6.60604
#
# Compressibility (1/GPa) = 0.02070615
#
# Stress axis : x y z
#
# Youngs Moduli (GPa) = -85.48642 109.43778 -271.16189
#
# Poissons Ratio (x) = 0.41369 6.41930
# Poissons Ratio (y) = -0.32315 -1.73980
# Poissons Ratio (z) = 2.02375 0.70216
#
# Static dielectric constant tensor:
#      x y z
#    x 1.909120 0.000000 0.000000 
#    y 0.000000 1.907150 0.000000 
#    z 0.000000 0.000000 1.996940 
# 
# From -- ./inp_files/29536.got.cif
#   From: 2010.05.17/outbox.cif.g08.bks.cpg/sg62_15_cif.got.tgz:29536.got - 2010.06.03 15:25:27.
