data_PCOD9461119
_publ_section_title
;
Structure prediction by ZEFSAII (Michael W. Deem and Ramdas Pophale) SiO2 
 PCOD9461119
Probable space group: P B C A
;
_chemical_formula_sum "Si O2"
_cell_formula_units_Z 40
_cell_length_a 7.650450
_cell_length_b 17.167899
_cell_length_c 11.269730
_cell_angle_alpha 90.000000
_cell_angle_beta 90.000000
_cell_angle_gamma 90.000000
_cell_volume 1480.190601
_symmetry_space_group_name_H-M "P B C A"
_symmetry_group_IT_number 61
_symmetry_cell_setting 'orthorhombic'
loop_
_space_group_symop_operation_xyz
x,y,z
1/2-x,-y,1/2+z
1/2+x,1/2-y,-z
-x,1/2+y,1/2-z
-x,-y,-z
1/2+x,y,1/2-z
1/2-x,1/2+y,z
x,1/2-y,1/2+z
loop_
_atom_site_type_symbol
_atom_site_label
_atom_site_fract_x
_atom_site_fract_y
_atom_site_fract_z
Si Si1 0.395557 0.350148 0.384941
Si Si2 0.761608 0.037880 0.425081
Si Si3 0.476122 0.787047 0.346889
Si Si4 0.755647 0.135058 0.007133
Si Si5 0.052967 0.114263 0.271334
O O1 0.311883 0.425416 0.448137
O O2 0.474555 0.350736 0.253640
O O3 0.227243 0.294505 0.377226
O O4 0.565961 0.332490 0.464458
O O5 0.609043 0.085173 0.358051
O O6 0.928425 0.054543 0.341176
O O7 0.722530 0.948156 0.442835
O O8 0.597844 0.808603 0.456683
O O9 0.511883 0.703370 0.286326
O O10 0.728966 0.117876 0.145767
#
# Coordination Sequence:
#
# PCOD9461119 Si02
#       5
#     8   8   8   8   8
#     4  11  25  46  75 112 153 202 266 313 397 469
#     4  11  28  48  76 110 162 204 261 330 394 483
#     4  12  26  46  83 108 156 206 265 328 394 470
#     4  11  28  49  77 111 158 207 263 327 398 473
#     4  11  27  49  76 115 157 206 272 325 402 471
#
# _framework density 27.023548000000002
#
# number of rings (size 3 to 8) (size 9 to 14) (size 15 to 20)
#    0.000    0.800    2.000    3.600   14.000    2.400 
#    0.000    0.000    0.000    0.000    0.000    0.000 
#    0.000    0.000    0.000    0.000    0.000    0.000 
#
# Total GULP energy -224285.179675 kJ/mol
# GULP energy per Si atom -5607.129492 kJ/mol
# Density = 2.696204 g / cm^3
# Si number density = 27.023548 Si / 1000 Ang^3
#
#
#
# Elastic Constant Matrix: (Units=GPa)
#
#
# Indices 1 2 3 4 5 6 
#
# 1 108.1317 51.8484 28.9053 0.0000 0.0000 0.0000
# 2 51.8484 177.0728 64.1925 0.0000 0.0000 0.0000
# 3 28.9053 64.1925 132.7909 0.0000 0.0000 0.0000
# 4 0.0000 0.0000 0.0000 39.7767 0.0000 0.0000
# 5 0.0000 0.0000 0.0000 0.0000 61.4652 0.0000
# 6 0.0000 0.0000 0.0000 0.0000 0.0000 52.3123
#
#
#
# Elastic Compliance Matrix: (Units=1/GPa)
#
#
# Indices 1 2 3 4 5 6 
#
# 1 0.010868 -0.002818 -0.001003 0.000000 0.000000 0.000000
# 2 -0.002818 0.007578 -0.003050 0.000000 0.000000 0.000000
# 3 -0.001003 -0.003050 0.009223 0.000000 0.000000 0.000000
# 4 0.000000 0.000000 0.000000 0.025140 0.000000 0.000000
# 5 0.000000 0.000000 0.000000 0.000000 0.016269 0.000000
# 6 0.000000 0.000000 0.000000 0.000000 0.000000 0.019116
#
#
# Mechanical properties :
#
#
# Convention : Reuss Voigt Hill
#
# Bulk Modulus (GPa) = 71.80702 78.65420 75.23061
# Shear Modulus (GPa) = 46.91309 48.91412 47.91361
#
# Velocity S-wave (km/s) = 4.17106 4.25909 4.21531
# Velocity P-wave (km/s) = 7.05880 7.30448 7.18269
#
# Compressibility (1/GPa) = 0.01392621
#
# Stress axis : x y z
#
# Youngs Moduli (GPa) = 92.01687 131.95526 108.42038
#
# Poissons Ratio (x) = 0.37191 0.10876
# Poissons Ratio (y) = 0.25935 0.33067
# Poissons Ratio (z) = 0.09230 0.40245
#
# Static dielectric constant tensor:
#      x y z
#    x 2.149540 0.000000 0.000000 
#    y 0.000000 2.070530 0.000000 
#    z 0.000000 0.000000 2.121220 
# 
# From -- ./inp_files/4831.got.cif
#   From: 2010.05.17/outbox.cif.g08.bks.cpg/sg61_3_cif.got.tgz:4831.got - 2010.06.03 15:17:17.
