data_PCOD9461860
_publ_section_title
;
Structure prediction by ZEFSAII (Michael W. Deem and Ramdas Pophale) SiO2 
 PCOD9461860
Probable space group: P N M A
;
_chemical_formula_sum "Si O2"
_cell_formula_units_Z 48
_cell_length_a 8.304484
_cell_length_b 19.680162
_cell_length_c 13.185626
_cell_angle_alpha 90.000000
_cell_angle_beta 90.000000
_cell_angle_gamma 90.000000
_cell_volume 2154.974199
_symmetry_space_group_name_H-M "P N M A"
_symmetry_group_IT_number 62
_symmetry_cell_setting 'orthorhombic'
loop_
_space_group_symop_operation_xyz
x,y,z
1/2-x,-y,1/2+z
1/2+x,1/2-y,1/2-z
-x,1/2+y,-z
-x,-y,-z
1/2+x,y,1/2-z
1/2-x,1/2+y,1/2+z
x,1/2-y,z
loop_
_atom_site_type_symbol
_atom_site_label
_atom_site_fract_x
_atom_site_fract_y
_atom_site_fract_z
Si Si1 0.216552 0.445084 0.531669
Si Si2 0.692936 0.826797 0.733243
Si Si3 0.531737 0.828914 0.526101
Si Si4 0.376459 0.040171 0.732365
Si Si5 0.180574 0.422225 0.906759
Si Si6 0.976379 0.906982 0.644897
O O1 0.327516 0.378608 0.514702
O O2 0.230184 0.462293 0.650009
O O3 0.292272 0.509146 0.471635
O O4 0.051567 0.428528 0.471521
O O5 0.701419 0.750000 0.770199
O O6 0.552056 0.832885 0.647584
O O7 0.851857 0.846698 0.671609
O O8 0.647448 0.879247 0.820852
O O9 0.551547 0.750000 0.498073
O O10 0.370306 0.860899 0.479375
O O11 0.527711 0.062923 0.666135
O O12 0.324708 0.087299 0.826632
O O13 0.416333 0.968426 0.784178
#
# Coordination Sequence:
#
# PCOD9461860 Si02
#       6
#     8   8   8   8   8   8
#     4   9  18  32  52  73  97 131 166 199 237 292
#     4  10  19  31  49  72  99 127 157 195 244 294
#     4   9  17  31  51  72  94 128 166 197 236 292
#     4  10  18  32  51  72  96 126 163 202 242 280
#     4  10  19  33  52  74  99 127 163 205 241 285
#     4  10  18  31  49  73  97 125 161 200 238 287
#
# _framework density 22.274048000000001
#
# number of rings (size 3 to 8) (size 9 to 14) (size 15 to 20)
#    0.000    2.333    0.000    6.500    0.000    0.667 
#    0.000   12.500    0.000    0.000    0.000    0.000 
#    0.000    0.000    0.000    0.000    0.000    0.000 
#
# Total GULP energy -268115.450860 kJ/mol
# GULP energy per Si atom -5585.738560 kJ/mol
# Density = 2.222335 g / cm^3
# Si number density = 22.274048 Si / 1000 Ang^3
#
#
#
# Elastic Constant Matrix: (Units=GPa)
#
#
# Indices 1 2 3 4 5 6 
#
# 1 43.9995 18.5324 29.3516 0.0000 0.0000 0.0000
# 2 18.5324 119.7435 34.3474 0.0000 0.0000 0.0000
# 3 29.3516 34.3474 109.5810 0.0000 0.0000 0.0000
# 4 0.0000 0.0000 0.0000 28.8090 0.0000 0.0000
# 5 0.0000 0.0000 0.0000 0.0000 51.9029 0.0000
# 6 0.0000 0.0000 0.0000 0.0000 0.0000 19.0562
#
#
#
# Elastic Compliance Matrix: (Units=1/GPa)
#
#
# Indices 1 2 3 4 5 6 
#
# 1 0.028298 -0.002423 -0.006820 0.000000 0.000000 0.000000
# 2 -0.002423 0.009384 -0.002292 0.000000 0.000000 0.000000
# 3 -0.006820 -0.002292 0.011671 0.000000 0.000000 0.000000
# 4 0.000000 0.000000 0.000000 0.034711 0.000000 0.000000
# 5 0.000000 0.000000 0.000000 0.000000 0.019267 0.000000
# 6 0.000000 0.000000 0.000000 0.000000 0.000000 0.052476
#
#
# Mechanical properties :
#
#
# Convention : Reuss Voigt Hill
#
# Bulk Modulus (GPa) = 38.04982 48.64298 43.34640
# Shear Modulus (GPa) = 26.64698 32.69313 29.67005
#
# Velocity S-wave (km/s) = 3.46254 3.83530 3.65368
# Velocity P-wave (km/s) = 5.75372 6.44194 6.10753
#
# Compressibility (1/GPa) = 0.02628133
#
# Stress axis : x y z
#
# Youngs Moduli (GPa) = 35.33841 106.56751 85.68306
#
# Poissons Ratio (x) = 0.25825 0.58437
# Poissons Ratio (y) = 0.08564 0.19640
# Poissons Ratio (z) = 0.24101 0.24427
#
# Static dielectric constant tensor:
#      x y z
#    x 1.951670 0.000000 0.000000 
#    y 0.000000 1.758410 0.000000 
#    z 0.000000 0.000000 1.841500 
# 
# From -- ./inp_files/12247.got.cif
#   From: 2010.05.17/outbox.cif.g08.bks.cpg/sg62_7_cif.got.tgz:12247.got - 2010.06.03 15:25:27.
