data_PCOD9461072
_publ_section_title
;
Structure prediction by ZEFSAII (Michael W. Deem and Ramdas Pophale) SiO2 
 PCOD9461072
Probable space group: P B C A
;
_chemical_formula_sum "Si O2"
_cell_formula_units_Z 40
_cell_length_a 8.434289
_cell_length_b 10.808587
_cell_length_c 17.930910
_cell_angle_alpha 90.000000
_cell_angle_beta 90.000000
_cell_angle_gamma 90.000000
_cell_volume 1634.631002
_symmetry_space_group_name_H-M "P B C A"
_symmetry_group_IT_number 61
_symmetry_cell_setting 'orthorhombic'
loop_
_space_group_symop_operation_xyz
x,y,z
1/2-x,-y,1/2+z
1/2+x,1/2-y,-z
-x,1/2+y,1/2-z
-x,-y,-z
1/2+x,y,1/2-z
1/2-x,1/2+y,z
x,1/2-y,1/2+z
loop_
_atom_site_type_symbol
_atom_site_label
_atom_site_fract_x
_atom_site_fract_y
_atom_site_fract_z
Si Si1 0.435019 0.779729 0.150763
Si Si2 0.385528 0.025982 0.929175
Si Si3 0.633714 0.091633 0.469540
Si Si4 0.333206 0.053724 0.676780
Si Si5 0.842053 0.435800 0.686702
O O1 0.523538 0.907917 0.137696
O O2 0.423256 0.715513 0.069646
O O3 0.259662 0.816268 0.178019
O O4 0.547699 0.685384 0.194530
O O5 0.272459 0.927049 0.886200
O O6 0.256953 0.117341 0.965928
O O7 0.500000 0.000000 0.000000
O O8 0.500000 0.000000 0.500000
O O9 0.708602 0.013524 0.401282
O O10 0.262397 0.971152 0.742888
O O11 0.524415 0.045261 0.678479
#
# Coordination Sequence:
#
# PCOD9461072 Si02
#       5
#     8   8   8   8   8
#     4  11  26  45  74 105 143 202 234 305 387 409
#     4  12  25  43  72 110 147 191 251 297 368 448
#     4  11  24  46  66 106 146 187 246 308 352 449
#     4  11  24  47  72 102 147 191 247 300 367 435
#     4  11  27  49  71 110 152 187 257 309 354 457
#
# _framework density 24.470355999999999
#
# number of rings (size 3 to 8) (size 9 to 14) (size 15 to 20)
#    0.000    0.800    6.000    1.200    5.600    6.400 
#    0.000    0.000    0.000    0.000    0.000    0.000 
#    0.000    0.000    0.000    0.000    0.000    0.000 
#
# Total GULP energy -223244.025113 kJ/mol
# GULP energy per Si atom -5581.100628 kJ/mol
# Density = 2.441466 g / cm^3
# Si number density = 24.470356 Si / 1000 Ang^3
#
#
#
# Elastic Constant Matrix: (Units=GPa)
#
#
# Indices 1 2 3 4 5 6 
#
# 1 140.2353 45.2145 52.2372 0.0000 0.0000 0.0000
# 2 45.2145 75.7694 16.8866 0.0000 0.0000 0.0000
# 3 52.2372 16.8866 112.2022 0.0000 0.0000 0.0000
# 4 0.0000 0.0000 0.0000 35.1846 0.0000 0.0000
# 5 0.0000 0.0000 0.0000 0.0000 69.1516 0.0000
# 6 0.0000 0.0000 0.0000 0.0000 0.0000 34.6567
#
#
#
# Elastic Compliance Matrix: (Units=1/GPa)
#
#
# Indices 1 2 3 4 5 6 
#
# 1 0.010324 -0.005266 -0.004014 0.000000 0.000000 0.000000
# 2 -0.005266 0.016342 -0.000008 0.000000 0.000000 0.000000
# 3 -0.004014 -0.000008 0.010782 0.000000 0.000000 0.000000
# 4 0.000000 0.000000 0.000000 0.028421 0.000000 0.000000
# 5 0.000000 0.000000 0.000000 0.000000 0.014461 0.000000
# 6 0.000000 0.000000 0.000000 0.000000 0.000000 0.028854
#
#
# Mechanical properties :
#
#
# Convention : Reuss Voigt Hill
#
# Bulk Modulus (GPa) = 52.98617 61.87597 57.43107
# Shear Modulus (GPa) = 37.29897 42.05649 39.67773
#
# Velocity S-wave (km/s) = 3.90840 4.15018 4.03111
# Velocity P-wave (km/s) = 6.48596 6.95028 6.72213
#
# Compressibility (1/GPa) = 0.01887285
#
# Stress axis : x y z
#
# Youngs Moduli (GPa) = 96.86236 61.19135 92.74400
#
# Poissons Ratio (x) = 0.32224 0.37226
# Poissons Ratio (y) = 0.51009 0.00072
# Poissons Ratio (z) = 0.38879 0.00048
#
# Static dielectric constant tensor:
#      x y z
#    x 2.219400 0.000000 0.000000 
#    y 0.000000 1.979810 0.000000 
#    z 0.000000 0.000000 1.942220 
# 
# From -- ./inp_files/10051.got.cif
#   From: 2010.05.17/outbox.cif.g08.bks.cpg/sg61_6_cif.got.tgz:10051.got - 2010.06.03 15:17:17.
