data_PCOD9461679
_publ_section_title
;
Structure prediction by ZEFSAII (Michael W. Deem and Ramdas Pophale) SiO2 
 PCOD9461679
Probable space group: P N M A
;
_chemical_formula_sum "Si O2"
_cell_formula_units_Z 64
_cell_length_a 19.844178
_cell_length_b 19.810142
_cell_length_c 7.042415
_cell_angle_alpha 90.000000
_cell_angle_beta 90.000000
_cell_angle_gamma 90.000000
_cell_volume 2768.485903
_symmetry_space_group_name_H-M "P N M A"
_symmetry_group_IT_number 62
_symmetry_cell_setting 'orthorhombic'
loop_
_space_group_symop_operation_xyz
x,y,z
1/2-x,-y,1/2+z
1/2+x,1/2-y,1/2-z
-x,1/2+y,-z
-x,-y,-z
1/2+x,y,1/2-z
1/2-x,1/2+y,1/2+z
x,1/2-y,z
loop_
_atom_site_type_symbol
_atom_site_label
_atom_site_fract_x
_atom_site_fract_y
_atom_site_fract_z
Si Si1 0.471318 0.671641 0.020872
Si Si2 0.495077 0.676287 0.560611
Si Si3 0.063552 0.956578 0.924278
Si Si4 0.716208 0.539226 0.597113
Si Si5 0.847364 0.673276 0.945083
Si Si6 0.643728 0.414678 0.073901
Si Si7 0.920436 0.439230 0.528750
Si Si8 0.222217 0.600349 0.480767
O O1 0.479706 0.750000 0.083283
O O2 0.483106 0.673719 0.789849
O O3 0.519062 0.610166 0.090665
O O4 0.396911 0.640959 0.043451
O O5 0.520709 0.750000 0.513994
O O6 0.546581 0.618748 0.513153
O O7 0.421694 0.665891 0.465110
O O8 0.140950 0.969823 0.983731
O O9 0.065054 0.955545 0.694435
O O10 0.000000 0.000000 0.000000
O O11 0.780658 0.574404 0.498856
O O12 0.745102 0.464449 0.617364
O O13 0.711550 0.578089 0.797541
O O14 0.847078 0.750000 0.870084
O O15 0.848620 0.617287 0.781489
O O16 0.776220 0.659389 0.044818
O O17 0.601318 0.484797 0.093790
O O18 0.855012 0.393609 0.576659
#
# Coordination Sequence:
#
# PCOD9461679 Si02
#       8
#     8   8   8   8   8   8   8   8
#     4   9  16  27  44  66  91 119 152 191 239 290
#     4   8  15  27  42  63  91 118 147 191 242 285
#     4  10  18  29  46  68  90 119 162 203 242 291
#     4   9  18  30  46  70  96 125 161 200 245 294
#     4   9  16  27  47  73  99 130 167 205 248 291
#     4   9  16  29  45  64  95 126 156 195 243 295
#     4   9  18  29  44  68  97 127 159 200 253 298
#     4   9  17  30  46  70 100 126 159 205 248 294
#
# _framework density 23.117328000000001
#
# number of rings (size 3 to 8) (size 9 to 14) (size 15 to 20)
#    0.000    3.000    0.000    2.250    0.000    1.500 
#    0.000    6.875    0.000    1.500    0.000   22.750 
#    0.000   13.000    0.000    0.000    0.000    0.000 
#
# Total GULP energy -356511.318409 kJ/mol
# GULP energy per Si atom -5570.489350 kJ/mol
# Density = 2.306471 g / cm^3
# Si number density = 23.117328 Si / 1000 Ang^3
#
#
#
# Elastic Constant Matrix: (Units=GPa)
#
#
# Indices 1 2 3 4 5 6 
#
# 1 166.2269 58.9441 -2.2180 0.0000 0.0000 0.0000
# 2 58.9441 100.0978 7.2744 0.0000 0.0000 0.0000
# 3 -2.2180 7.2744 64.0631 0.0000 0.0000 0.0000
# 4 0.0000 0.0000 0.0000 -25.3141 0.0000 0.0000
# 5 0.0000 0.0000 0.0000 0.0000 19.2002 0.0000
# 6 0.0000 0.0000 0.0000 0.0000 0.0000 42.7984
#
#
#
# Elastic Compliance Matrix: (Units=1/GPa)
#
#
# Indices 1 2 3 4 5 6 
#
# 1 0.007642 -0.004557 0.000782 0.000000 0.000000 0.000000
# 2 -0.004557 0.012791 -0.001610 0.000000 0.000000 0.000000
# 3 0.000782 -0.001610 0.015820 0.000000 0.000000 0.000000
# 4 0.000000 0.000000 0.000000 -0.039504 0.000000 0.000000
# 5 0.000000 0.000000 0.000000 0.000000 0.052083 0.000000
# 6 0.000000 0.000000 0.000000 0.000000 0.000000 0.023365
#
#
# Mechanical properties :
#
#
# Convention : Reuss Voigt Hill
#
# Bulk Modulus (GPa) = 39.24325 50.93212 45.08768
# Shear Modulus (GPa) = 54.66784 25.09605 39.88195
#
# Velocity S-wave (km/s) = 4.86820 3.29841 4.15806
# Velocity P-wave (km/s) = 6.97221 6.04862 6.52677
#
# Compressibility (1/GPa) = 0.02548209
#
# Stress axis : x y z
#
# Youngs Moduli (GPa) = 130.85144 78.18145 63.21305
#
# Poissons Ratio (x) = 0.35628 -0.04944
# Poissons Ratio (y) = 0.59630 0.10178
# Poissons Ratio (z) = -0.10233 0.12589
#
# Static dielectric constant tensor:
#      x y z
#    x 2.520820 0.000000 0.000000 
#    y 0.000000 1.839070 0.000000 
#    z 0.000000 0.000000 1.999410 
# 
# From -- ./inp_files/14973.got.cif
#   From: 2010.05.17/outbox.cif.g08.bks.cpg/sg62_8_cif.got.tgz:14973.got - 2010.06.03 15:25:27.
