data_PCOD9461328
_publ_section_title
;
Structure prediction by ZEFSAII (Michael W. Deem and Ramdas Pophale) SiO2 
 PCOD9461328
Probable space group: P N M A
;
_chemical_formula_sum "Si O2"
_cell_formula_units_Z 56
_cell_length_a 8.115984
_cell_length_b 30.153854
_cell_length_c 16.124307
_cell_angle_alpha 90.000000
_cell_angle_beta 90.000000
_cell_angle_gamma 90.000000
_cell_volume 3946.072574
_symmetry_space_group_name_H-M "P N M A"
_symmetry_group_IT_number 62
_symmetry_cell_setting 'orthorhombic'
loop_
_space_group_symop_operation_xyz
x,y,z
1/2-x,-y,1/2+z
1/2+x,1/2-y,1/2-z
-x,1/2+y,-z
-x,-y,-z
1/2+x,y,1/2-z
1/2-x,1/2+y,1/2+z
x,1/2-y,z
loop_
_atom_site_type_symbol
_atom_site_label
_atom_site_fract_x
_atom_site_fract_y
_atom_site_fract_z
Si Si1 0.609643 0.652287 0.877868
Si Si2 0.105850 0.011353 0.217864
Si Si3 0.092330 0.750000 0.624149
Si Si4 0.021444 0.347537 0.197064
Si Si5 0.813483 0.067181 0.159951
Si Si6 0.406326 0.519281 0.125727
Si Si7 0.518904 0.067345 0.033952
Si Si8 0.543762 0.250000 0.297510
O O1 0.586096 0.701493 0.916499
O O2 0.490070 0.648349 0.797234
O O3 0.794982 0.648041 0.840509
O O4 0.567299 0.612913 0.940124
O O5 0.207524 0.052858 0.258302
O O6 0.959999 0.031246 0.162615
O O7 0.226769 0.980534 0.166137
O O8 0.030783 0.986560 0.297507
O O9 0.959491 0.750000 0.697932
O O10 0.269721 0.750000 0.670487
O O11 0.899828 0.385299 0.164998
O O12 0.965757 0.296981 0.176994
O O13 0.693082 0.064885 0.082175
O O14 0.416632 0.473705 0.072515
O O15 0.453215 0.557961 0.062638
#
# Coordination Sequence:
#
# PCOD9461328 Si02
#       8
#     8   8   4   8   8   8   8   4
#     4  10  17  26  39  55  80 109 139 169 195 225
#     4   9  17  30  44  56  74 105 136 160 193 236
#     4   8  16  26  36  52  74 106 139 166 194 224
#     4  10  16  25  38  54  78 111 145 166 187 222
#     4  10  17  25  40  58  78 106 136 163 194 229
#     4   9  18  31  44  59  79 104 132 163 196 233
#     4  10  19  28  40  61  85 103 128 166 200 229
#     4   8  16  24  34  52  74 104 143 174 184 206
#
# _framework density 14.191326
#
# number of rings (size 3 to 8) (size 9 to 14) (size 15 to 20)
#    0.000    2.571    0.000    5.143    0.000    1.714 
#    0.000    2.857    0.000    0.000    0.000    0.000 
#    0.000    1.143    0.000    0.000    0.000    0.429 
#
# Total GULP energy -311825.719632 kJ/mol
# GULP energy per Si atom -5568.316422 kJ/mol
# Density = 1.415903 g / cm^3
# Si number density = 14.191326 Si / 1000 Ang^3
#
#
#
# Elastic Constant Matrix: (Units=GPa)
#
#
# Indices 1 2 3 4 5 6 
#
# 1 50.8900 17.0074 14.2713 0.0000 0.0000 0.0000
# 2 17.0074 81.1705 26.6358 0.0000 0.0000 0.0000
# 3 14.2713 26.6358 38.2601 0.0000 0.0000 0.0000
# 4 0.0000 0.0000 0.0000 17.7273 0.0000 0.0000
# 5 0.0000 0.0000 0.0000 0.0000 7.5058 0.0000
# 6 0.0000 0.0000 0.0000 0.0000 0.0000 13.8840
#
#
#
# Elastic Compliance Matrix: (Units=1/GPa)
#
#
# Indices 1 2 3 4 5 6 
#
# 1 0.022337 -0.002522 -0.006576 0.000000 0.000000 0.000000
# 2 -0.002522 0.016252 -0.010374 0.000000 0.000000 0.000000
# 3 -0.006576 -0.010374 0.035812 0.000000 0.000000 0.000000
# 4 0.000000 0.000000 0.000000 0.056410 0.000000 0.000000
# 5 0.000000 0.000000 0.000000 0.000000 0.133230 0.000000
# 6 0.000000 0.000000 0.000000 0.000000 0.000000 0.072025
#
#
# Mechanical properties :
#
#
# Convention : Reuss Voigt Hill
#
# Bulk Modulus (GPa) = 28.20289 31.79439 29.99864
# Shear Modulus (GPa) = 12.92556 15.31715 14.12135
#
# Velocity S-wave (km/s) = 3.02123 3.28888 3.15789
# Velocity P-wave (km/s) = 5.66453 6.07248 5.87205
#
# Compressibility (1/GPa) = 0.03545736
#
# Stress axis : x y z
#
# Youngs Moduli (GPa) = 44.76805 61.52965 27.92384
#
# Poissons Ratio (x) = 0.15520 0.18363
# Poissons Ratio (y) = 0.11292 0.28967
# Poissons Ratio (z) = 0.29439 0.63829
#
# Static dielectric constant tensor:
#      x y z
#    x 1.509850 0.000000 0.000000 
#    y 0.000000 1.504560 0.000000 
#    z 0.000000 0.000000 1.438480 
# 
# From -- ./inp_files/17403.got.cif
#   From: 2010.05.17/outbox.cif.g08.bks.cpg/sg62_9_cif.got.tgz:17403.got - 2010.06.03 15:25:27.
