data_PCOD9461181
_publ_section_title
;
Structure prediction by ZEFSAII (Michael W. Deem and Ramdas Pophale) SiO2 
 PCOD9461181
Probable space group: P B C A
;
_chemical_formula_sum "Si O2"
_cell_formula_units_Z 32
_cell_length_a 13.657874
_cell_length_b 19.704488
_cell_length_c 4.679354
_cell_angle_alpha 90.000000
_cell_angle_beta 90.000000
_cell_angle_gamma 90.000000
_cell_volume 1259.314367
_symmetry_space_group_name_H-M "P B C A"
_symmetry_group_IT_number 61
_symmetry_cell_setting 'orthorhombic'
loop_
_space_group_symop_operation_xyz
x,y,z
1/2-x,-y,1/2+z
1/2+x,1/2-y,-z
-x,1/2+y,1/2-z
-x,-y,-z
1/2+x,y,1/2-z
1/2-x,1/2+y,z
x,1/2-y,1/2+z
loop_
_atom_site_type_symbol
_atom_site_label
_atom_site_fract_x
_atom_site_fract_y
_atom_site_fract_z
Si Si1 0.075784 0.621648 0.074412
Si Si2 0.561362 0.376327 0.050164
Si Si3 0.318396 0.496951 0.925264
Si Si4 0.251755 0.206731 0.789849
O O1 0.124155 0.560763 0.254615
O O2 0.007428 0.657373 0.311648
O O3 0.158422 0.664841 0.917094
O O4 0.002495 0.601026 0.821616
O O5 0.612528 0.445477 0.942095
O O6 0.648535 0.327095 0.139287
O O7 0.248544 0.530187 0.682619
O O8 0.257140 0.221136 0.454691
#
# Coordination Sequence:
#
# PCOD9461181 Si02
#       4
#     8   8   8   8
#     4  12  26  46  74 107 142 188 238 296 364 429
#     4  12  26  46  74 107 142 188 238 296 364 429
#     4  12  24  44  76 106 150 188 232 300 374 432
#     4  12  28  48  72 102 144 192 244 298 350 422
#
# _framework density 25.410651000000001
#
# number of rings (size 3 to 8) (size 9 to 14) (size 15 to 20)
#    0.000    0.000    2.500    7.500    3.500    6.000 
#    0.000    0.000    0.000    0.000    0.000    0.000 
#    0.000    0.000    0.000    0.000    0.000    0.000 
#
# Total GULP energy -179531.649114 kJ/mol
# GULP energy per Si atom -5610.364035 kJ/mol
# Density = 2.535282 g / cm^3
# Si number density = 25.410651 Si / 1000 Ang^3
#
#
#
# Elastic Constant Matrix: (Units=GPa)
#
#
# Indices 1 2 3 4 5 6 
#
# 1 131.7084 26.9828 30.7395 0.0000 0.0000 0.0000
# 2 26.9828 46.2886 -5.9948 0.0000 0.0000 0.0000
# 3 30.7395 -5.9948 105.0122 0.0000 0.0000 0.0000
# 4 0.0000 0.0000 0.0000 41.1763 0.0000 0.0000
# 5 0.0000 0.0000 0.0000 0.0000 30.8210 0.0000
# 6 0.0000 0.0000 0.0000 0.0000 0.0000 17.2599
#
#
#
# Elastic Compliance Matrix: (Units=1/GPa)
#
#
# Indices 1 2 3 4 5 6 
#
# 1 0.009548 -0.005972 -0.003136 0.000000 0.000000 0.000000
# 2 -0.005972 0.025500 0.003204 0.000000 0.000000 0.000000
# 3 -0.003136 0.003204 0.010624 0.000000 0.000000 0.000000
# 4 0.000000 0.000000 0.000000 0.024286 0.000000 0.000000
# 5 0.000000 0.000000 0.000000 0.000000 0.032445 0.000000
# 6 0.000000 0.000000 0.000000 0.000000 0.000000 0.057938
#
#
# Mechanical properties :
#
#
# Convention : Reuss Voigt Hill
#
# Bulk Modulus (GPa) = 29.53044 42.94048 36.23546
# Shear Modulus (GPa) = 27.25757 33.27023 30.26390
#
# Velocity S-wave (km/s) = 3.27874 3.62235 3.45482
# Velocity P-wave (km/s) = 5.09706 5.86776 5.49593
#
# Compressibility (1/GPa) = 0.03386336
#
# Stress axis : x y z
#
# Youngs Moduli (GPa) = 104.73604 39.21628 94.13088
#
# Poissons Ratio (x) = 0.23419 0.29517
# Poissons Ratio (y) = 0.62546 -0.30157
# Poissons Ratio (z) = 0.32843 -0.12564
#
# Static dielectric constant tensor:
#      x y z
#    x 1.992090 0.000000 0.000000 
#    y 0.000000 2.013860 0.000000 
#    z 0.000000 0.000000 1.925090 
# 
# From -- ./inp_files/168.got.cif
#   From: 2010.05.17/outbox.cif.g08.bks.cpg/sg61_1_cif.got.tgz:168.got - 2010.06.03 15:17:17.
