data_PCOD9461073
_publ_section_title
;
Structure prediction by ZEFSAII (Michael W. Deem and Ramdas Pophale) SiO2 
 PCOD9461073
Probable space group: P B C A
;
_chemical_formula_sum "Si O2"
_cell_formula_units_Z 40
_cell_length_a 11.801309
_cell_length_b 13.052858
_cell_length_c 10.242909
_cell_angle_alpha 90.000000
_cell_angle_beta 90.000000
_cell_angle_gamma 90.000000
_cell_volume 1577.826005
_symmetry_space_group_name_H-M "P B C A"
_symmetry_group_IT_number 61
_symmetry_cell_setting 'orthorhombic'
loop_
_space_group_symop_operation_xyz
x,y,z
1/2-x,-y,1/2+z
1/2+x,1/2-y,-z
-x,1/2+y,1/2-z
-x,-y,-z
1/2+x,y,1/2-z
1/2-x,1/2+y,z
x,1/2-y,1/2+z
loop_
_atom_site_type_symbol
_atom_site_label
_atom_site_fract_x
_atom_site_fract_y
_atom_site_fract_z
Si Si1 0.986425 0.995027 0.673072
Si Si2 0.401569 0.399856 0.084682
Si Si3 0.425127 0.732480 0.395954
Si Si4 0.780348 0.751596 0.858686
Si Si5 0.300439 0.030846 0.035187
O O1 0.983263 0.875757 0.633664
O O2 0.112221 0.028012 0.631842
O O3 0.962547 0.018980 0.821918
O O4 0.883397 0.045211 0.589268
O O5 0.496157 0.319681 0.038361
O O6 0.325437 0.321367 0.170136
O O7 0.311709 0.465252 0.001412
O O8 0.370010 0.759587 0.257140
O O9 0.326839 0.718410 0.500476
O O10 0.740848 0.868354 0.887355
#
# Coordination Sequence:
#
# PCOD9461073 Si02
#       5
#     8   8   8   8   8
#     4  11  24  47  74 109 148 192 248 306 370 442
#     4  12  25  46  74 106 147 197 241 307 371 439
#     4  12  27  46  75 109 149 193 252 303 366 449
#     4  12  26  49  74 111 146 200 246 305 375 438
#     4  11  24  46  74 102 150 199 244 304 373 438
#
# _framework density 25.351337999999998
#
# number of rings (size 3 to 8) (size 9 to 14) (size 15 to 20)
#    0.000    0.400    6.000    2.400    2.800    2.400 
#    3.600    0.000    0.000    0.000    0.000    0.000 
#    0.000    0.000    0.000    0.000    0.000    0.000 
#
# Total GULP energy -223596.374493 kJ/mol
# GULP energy per Si atom -5589.909362 kJ/mol
# Density = 2.529364 g / cm^3
# Si number density = 25.351338 Si / 1000 Ang^3
#
#
#
# Elastic Constant Matrix: (Units=GPa)
#
#
# Indices 1 2 3 4 5 6 
#
# 1 87.0367 42.1300 3.2059 0.0000 0.0000 0.0000
# 2 42.1300 120.3493 18.2877 0.0000 0.0000 0.0000
# 3 3.2059 18.2877 42.1319 0.0000 0.0000 0.0000
# 4 0.0000 0.0000 0.0000 31.2817 0.0000 0.0000
# 5 0.0000 0.0000 0.0000 0.0000 23.5348 0.0000
# 6 0.0000 0.0000 0.0000 0.0000 0.0000 50.0806
#
#
#
# Elastic Compliance Matrix: (Units=1/GPa)
#
#
# Indices 1 2 3 4 5 6 
#
# 1 0.013883 -0.005031 0.001127 0.000000 0.000000 0.000000
# 2 -0.005031 0.010719 -0.004270 0.000000 0.000000 0.000000
# 3 0.001127 -0.004270 0.025503 0.000000 0.000000 0.000000
# 4 0.000000 0.000000 0.000000 0.031968 0.000000 0.000000
# 5 0.000000 0.000000 0.000000 0.000000 0.042490 0.000000
# 6 0.000000 0.000000 0.000000 0.000000 0.000000 0.019968
#
#
# Mechanical properties :
#
#
# Convention : Reuss Voigt Hill
#
# Bulk Modulus (GPa) = 29.62300 41.86279 35.74290
# Shear Modulus (GPa) = 29.04763 33.37237 31.21000
#
# Velocity S-wave (km/s) = 3.38864 3.63215 3.51251
# Velocity P-wave (km/s) = 5.19816 5.84285 5.52991
#
# Compressibility (1/GPa) = 0.03375755
#
# Stress axis : x y z
#
# Youngs Moduli (GPa) = 72.02891 93.28967 39.21167
#
# Poissons Ratio (x) = 0.46938 -0.04421
# Poissons Ratio (y) = 0.36241 0.16743
# Poissons Ratio (z) = -0.08121 0.39834
#
# Static dielectric constant tensor:
#      x y z
#    x 1.993000 0.000000 0.000000 
#    y 0.000000 2.098020 0.000000 
#    z 0.000000 0.000000 1.932400 
# 
# From -- ./inp_files/5103.got.cif
#   From: 2010.05.17/outbox.cif.g08.bks.cpg/sg61_3_cif.got.tgz:5103.got - 2010.06.03 15:17:17.
