data_PCOD9461024
_publ_section_title
;
Structure prediction by ZEFSAII (Michael W. Deem and Ramdas Pophale) SiO2 
 PCOD9461024
Probable space group: P B C A
;
_chemical_formula_sum "Si O2"
_cell_formula_units_Z 56
_cell_length_a 10.929327
_cell_length_b 14.670781
_cell_length_c 14.999597
_cell_angle_alpha 90.000000
_cell_angle_beta 90.000000
_cell_angle_gamma 90.000000
_cell_volume 2405.061826
_symmetry_space_group_name_H-M "P B C A"
_symmetry_group_IT_number 61
_symmetry_cell_setting 'orthorhombic'
loop_
_space_group_symop_operation_xyz
x,y,z
1/2-x,-y,1/2+z
1/2+x,1/2-y,-z
-x,1/2+y,1/2-z
-x,-y,-z
1/2+x,y,1/2-z
1/2-x,1/2+y,z
x,1/2-y,1/2+z
loop_
_atom_site_type_symbol
_atom_site_label
_atom_site_fract_x
_atom_site_fract_y
_atom_site_fract_z
Si Si1 0.021906 0.147401 0.754410
Si Si2 0.478086 0.022218 0.143827
Si Si3 0.152514 0.806579 0.699777
Si Si4 0.689819 0.179421 0.575891
Si Si5 0.350333 0.341703 0.893631
Si Si6 0.705678 0.007693 0.009827
Si Si7 0.896868 0.724358 0.401624
O O1 0.004823 0.042117 0.729732
O O2 0.122153 0.163037 0.831168
O O3 0.066689 0.192897 0.662151
O O4 0.903233 0.206333 0.782709
O O5 0.455567 0.127292 0.167792
O O6 0.594152 0.010083 0.080338
O O7 0.357209 0.993885 0.086811
O O8 0.199060 0.851043 0.792819
O O9 0.263153 0.803310 0.631480
O O10 0.813209 0.237877 0.583834
O O11 0.607450 0.238186 0.507450
O O12 0.718407 0.083232 0.530844
O O13 0.291711 0.407678 0.965623
O O14 0.495919 0.349055 0.887662
#
# Coordination Sequence:
#
# PCOD9461024 Si02
#       7
#     8   8   8   8   8   8   8
#     4  11  25  45  72 105 138 193 246 295 363 438
#     4  11  24  45  72 104 142 188 240 298 362 434
#     4  11  23  47  69  97 144 184 240 298 361 431
#     4  12  24  45  71 102 143 182 240 297 358 431
#     4  11  25  44  70 102 140 185 237 291 356 437
#     4  11  24  44  71 104 142 188 238 298 365 430
#     4  11  25  44  68 101 140 189 234 292 361 420
#
# _framework density 23.284223999999998
#
# number of rings (size 3 to 8) (size 9 to 14) (size 15 to 20)
#    0.000    0.857    2.857    4.286    4.000    2.857 
#    0.000    0.000    0.000    0.000    0.000    0.000 
#    0.000    0.000    0.000    0.000    0.000    0.000 
#
# Total GULP energy -313237.075428 kJ/mol
# GULP energy per Si atom -5593.519204 kJ/mol
# Density = 2.323123 g / cm^3
# Si number density = 23.284224 Si / 1000 Ang^3
#
#
#
# Elastic Constant Matrix: (Units=GPa)
#
#
# Indices 1 2 3 4 5 6 
#
# 1 75.7676 34.6351 12.2288 0.0000 0.0000 0.0000
# 2 34.6351 92.4503 20.4903 0.0000 0.0000 0.0000
# 3 12.2288 20.4903 76.4625 0.0000 0.0000 0.0000
# 4 0.0000 0.0000 0.0000 35.1952 0.0000 0.0000
# 5 0.0000 0.0000 0.0000 0.0000 39.0826 0.0000
# 6 0.0000 0.0000 0.0000 0.0000 0.0000 27.3245
#
#
#
# Elastic Compliance Matrix: (Units=1/GPa)
#
#
# Indices 1 2 3 4 5 6 
#
# 1 0.015999 -0.005769 -0.001013 0.000000 0.000000 0.000000
# 2 -0.005769 0.013580 -0.002716 0.000000 0.000000 0.000000
# 3 -0.001013 -0.002716 0.013968 0.000000 0.000000 0.000000
# 4 0.000000 0.000000 0.000000 0.028413 0.000000 0.000000
# 5 0.000000 0.000000 0.000000 0.000000 0.025587 0.000000
# 6 0.000000 0.000000 0.000000 0.000000 0.000000 0.036597
#
#
# Mechanical properties :
#
#
# Convention : Reuss Voigt Hill
#
# Bulk Modulus (GPa) = 40.73267 42.15430 41.44349
# Shear Modulus (GPa) = 30.99340 32.14221 31.56780
#
# Velocity S-wave (km/s) = 3.65237 3.71944 3.68606
# Velocity P-wave (km/s) = 5.94290 6.04890 5.99613
#
# Compressibility (1/GPa) = 0.02455032
#
# Stress axis : x y z
#
# Youngs Moduli (GPa) = 62.50396 73.63730 71.59109
#
# Poissons Ratio (x) = 0.42484 0.07250
# Poissons Ratio (y) = 0.36061 0.19448
# Poissons Ratio (z) = 0.06330 0.20003
#
# Static dielectric constant tensor:
#      x y z
#    x 1.865580 0.000000 0.000000 
#    y 0.000000 1.892720 0.000000 
#    z 0.000000 0.000000 1.901440 
# 
# From -- ./inp_files/7519.got.cif
#   From: 2010.05.17/outbox.cif.g08.bks.cpg/sg61_4_cif.got.tgz:7519.got - 2010.06.03 15:17:17.
