data_PCOD9461891
_publ_section_title
;
Structure prediction by ZEFSAII (Michael W. Deem and Ramdas Pophale) SiO2 
 PCOD9461891
Probable space group: P N M A
;
_chemical_formula_sum "Si O2"
_cell_formula_units_Z 56
_cell_length_a 17.813955
_cell_length_b 28.194710
_cell_length_c 5.550808
_cell_angle_alpha 90.000000
_cell_angle_beta 90.000000
_cell_angle_gamma 90.000000
_cell_volume 2787.944914
_symmetry_space_group_name_H-M "P N M A"
_symmetry_group_IT_number 62
_symmetry_cell_setting 'orthorhombic'
loop_
_space_group_symop_operation_xyz
x,y,z
1/2-x,-y,1/2+z
1/2+x,1/2-y,1/2-z
-x,1/2+y,-z
-x,-y,-z
1/2+x,y,1/2-z
1/2-x,1/2+y,1/2+z
x,1/2-y,z
loop_
_atom_site_type_symbol
_atom_site_label
_atom_site_fract_x
_atom_site_fract_y
_atom_site_fract_z
Si Si1 0.984294 0.146204 0.815018
Si Si2 0.150189 0.377781 0.330817
Si Si3 0.294222 0.496717 0.283300
Si Si4 0.347615 0.899927 0.318760
Si Si5 0.517064 0.193607 0.183909
Si Si6 0.908084 0.442839 0.976731
Si Si7 0.547628 0.471268 0.196916
O O1 0.067850 0.121687 0.817788
O O2 0.979299 0.173941 0.562321
O O3 0.921770 0.105438 0.836813
O O4 0.981334 0.176405 0.062488
O O5 0.193520 0.379736 0.582416
O O6 0.099227 0.331047 0.319121
O O7 0.094711 0.423925 0.356735
O O8 0.188021 0.385460 0.073756
O O9 0.259335 0.498269 0.017266
O O10 0.347033 0.543326 0.301006
O O11 0.341769 0.449234 0.332705
O O12 0.520987 0.250000 0.176751
O O13 0.899520 0.487533 0.799877
O O14 0.985803 0.452872 0.114975
O O15 0.500000 0.500000 0.000000
#
# Coordination Sequence:
#
# PCOD9461891 Si02
#       7
#     8   8   8   8   8   8   8
#     4  10  20  34  56  81  99 144 177 213 265 312
#     4  10  18  31  51  77 100 139 170 200 262 305
#     4  12  26  37  48  71 109 154 183 217 264 295
#     4  10  18  36  50  72 102 132 184 212 246 313
#     4  10  19  32  49  80 119 134 155 210 279 342
#     4  11  21  34  50  76 107 140 185 216 247 322
#     4  11  19  29  55  79  99 141 172 220 253 299
#
# _framework density 20.086479000000001
#
# number of rings (size 3 to 8) (size 9 to 14) (size 15 to 20)
#    0.000    1.429    4.286    4.714    2.000    0.000 
#    0.000    0.000    0.000    0.000    0.000    0.000 
#    0.000   91.429    0.000    0.000    0.000    0.000 
#
# Total GULP energy -312321.810401 kJ/mol
# GULP energy per Si atom -5577.175186 kJ/mol
# Density = 2.004076 g / cm^3
# Si number density = 20.086479 Si / 1000 Ang^3
#
#
#
# Elastic Constant Matrix: (Units=GPa)
#
#
# Indices 1 2 3 4 5 6 
#
# 1 28.5135 21.8020 27.8662 0.0000 0.0000 0.0000
# 2 21.8020 130.5452 41.1953 0.0000 0.0000 0.0000
# 3 27.8662 41.1953 163.6227 0.0000 0.0000 0.0000
# 4 0.0000 0.0000 0.0000 26.0627 0.0000 0.0000
# 5 0.0000 0.0000 0.0000 0.0000 28.3179 0.0000
# 6 0.0000 0.0000 0.0000 0.0000 0.0000 10.6000
#
#
#
# Elastic Compliance Matrix: (Units=1/GPa)
#
#
# Indices 1 2 3 4 5 6 
#
# 1 0.045561 -0.005606 -0.006348 0.000000 0.000000 0.000000
# 2 -0.005606 0.009011 -0.001314 0.000000 0.000000 0.000000
# 3 -0.006348 -0.001314 0.007524 0.000000 0.000000 0.000000
# 4 0.000000 0.000000 0.000000 0.038369 0.000000 0.000000
# 5 0.000000 0.000000 0.000000 0.000000 0.035313 0.000000
# 6 0.000000 0.000000 0.000000 0.000000 0.000000 0.094340
#
#
# Mechanical properties :
#
#
# Convention : Reuss Voigt Hill
#
# Bulk Modulus (GPa) = 28.12132 56.04539 42.08336
# Shear Modulus (GPa) = 18.62145 28.45065 23.53605
#
# Velocity S-wave (km/s) = 3.04808 3.76760 3.42678
# Velocity P-wave (km/s) = 5.13986 6.84756 6.05422
#
# Compressibility (1/GPa) = 0.03556021
#
# Stress axis : x y z
#
# Youngs Moduli (GPa) = 21.94836 110.97484 132.91567
#
# Poissons Ratio (x) = 0.62211 0.84376
# Poissons Ratio (y) = 0.12304 0.17465
# Poissons Ratio (z) = 0.13933 0.14582
#
# Static dielectric constant tensor:
#      x y z
#    x 1.750840 0.000000 0.000000 
#    y 0.000000 1.682400 0.000000 
#    z 0.000000 0.000000 1.872930 
# 
# From -- ./inp_files/2369.got.cif
#   From: 2010.05.17/outbox.cif.g08.bks.cpg/sg62_2_cif.got.tgz:2369.got - 2010.06.03 15:25:27.
