data_PCOD9461455
_publ_section_title
;
Structure prediction by ZEFSAII (Michael W. Deem and Ramdas Pophale) SiO2 
 PCOD9461455
Probable space group: P N M A
;
_chemical_formula_sum "Si O2"
_cell_formula_units_Z 48
_cell_length_a 5.590445
_cell_length_b 14.353981
_cell_length_c 24.773701
_cell_angle_alpha 90.000000
_cell_angle_beta 90.000000
_cell_angle_gamma 90.000000
_cell_volume 1987.969138
_symmetry_space_group_name_H-M "P N M A"
_symmetry_group_IT_number 62
_symmetry_cell_setting 'orthorhombic'
loop_
_space_group_symop_operation_xyz
x,y,z
1/2-x,-y,1/2+z
1/2+x,1/2-y,1/2-z
-x,1/2+y,-z
-x,-y,-z
1/2+x,y,1/2-z
1/2-x,1/2+y,1/2+z
x,1/2-y,z
loop_
_atom_site_type_symbol
_atom_site_label
_atom_site_fract_x
_atom_site_fract_y
_atom_site_fract_z
Si Si1 0.000000 0.387746 0.323849
Si Si2 1.000000 0.411216 0.616121
Si Si3 0.500000 0.073988 0.452370
Si Si4 0.500000 0.892570 0.694788
Si Si5 0.000000 0.923418 0.143718
Si Si6 1.000000 0.143087 0.494446
O O1 0.000000 0.489318 0.352442
O O2 0.265936 0.353433 0.334534
O O3 0.000000 0.376315 0.258624
O O4 0.734064 0.353433 0.334534
O O5 0.746428 0.369076 0.634745
O O6 0.253572 0.369076 0.634745
O O7 1.000000 0.415987 0.550723
O O8 0.246081 0.126343 0.461333
O O9 0.753919 0.126343 0.461333
O O10 0.500000 0.000000 0.500000
O O11 0.500000 0.005929 0.401261
O O12 0.500000 0.007166 0.694685
O O13 0.000000 0.250000 0.512816
#
# Coordination Sequence:
#
# PCOD9461455 Si02
#       6
#     8   8   8   8   8   8
#     4   8  14  23  40  60  93 122 150 189 252 293
#     4  10  17  30  46  70  94 132 165 202 252 298
#     4  12  21  36  55  74  99 135 181 218 259 305
#     4   8  14  24  37  66  91 118 148 198 254 289
#     4  10  18  28  50  71  93 123 171 208 257 295
#     4  12  24  36  50  74 107 141 178 216 256 305
#
# _framework density 24.145246
#
# number of rings (size 3 to 8) (size 9 to 14) (size 15 to 20)
#    0.000    2.000    3.333    2.000    0.000    0.000 
#    0.000    0.000    0.000    0.000    0.000   18.667 
#    0.000    0.000    0.000  240.000    0.000    0.000 
#
# Total GULP energy -267218.939591 kJ/mol
# GULP energy per Si atom -5567.061241 kJ/mol
# Density = 2.409029 g / cm^3
# Si number density = 24.145246 Si / 1000 Ang^3
#
#
#
# Elastic Constant Matrix: (Units=GPa)
#
#
# Indices 1 2 3 4 5 6 
#
# 1 313.3496 26.9020 6.8490 0.0000 0.0000 0.0000
# 2 26.9020 60.1471 21.1400 0.0000 0.0000 0.0000
# 3 6.8490 21.1400 47.4927 0.0000 0.0000 0.0000
# 4 0.0000 0.0000 0.0000 -19.3097 0.0000 0.0000
# 5 0.0000 0.0000 0.0000 0.0000 25.6703 0.0000
# 6 0.0000 0.0000 0.0000 0.0000 0.0000 20.9427
#
#
#
# Elastic Compliance Matrix: (Units=1/GPa)
#
#
# Indices 1 2 3 4 5 6 
#
# 1 0.003321 -0.001561 0.000216 0.000000 0.000000 0.000000
# 2 -0.001561 0.020443 -0.008875 0.000000 0.000000 0.000000
# 3 0.000216 -0.008875 0.024975 0.000000 0.000000 0.000000
# 4 0.000000 0.000000 0.000000 -0.051788 0.000000 0.000000
# 5 0.000000 0.000000 0.000000 0.000000 0.038956 0.000000
# 6 0.000000 0.000000 0.000000 0.000000 0.000000 0.047749
#
#
# Mechanical properties :
#
#
# Convention : Reuss Voigt Hill
#
# Bulk Modulus (GPa) = 35.33635 58.97460 47.15548
# Shear Modulus (GPa) = 44.04160 29.86722 36.95441
#
# Velocity S-wave (km/s) = 4.27550 3.52089 3.91641
# Velocity P-wave (km/s) = 6.24819 6.40366 6.32640
#
# Compressibility (1/GPa) = 0.02829947
#
# Stress axis : x y z
#
# Youngs Moduli (GPa) = 301.14752 48.91571 40.04002
#
# Poissons Ratio (x) = 0.07636 -0.00865
# Poissons Ratio (y) = 0.47014 0.35534
# Poissons Ratio (z) = -0.06506 0.43411
#
# Static dielectric constant tensor:
#      x y z
#    x 2.119420 0.000000 0.000000 
#    y 0.000000 1.972070 0.000000 
#    z 0.000000 0.000000 2.080380 
# 
# From -- ./inp_files/30399.got.cif
#   From: 2010.05.17/outbox.cif.g08.bks.cpg/sg62_16_cif.got.tgz:30399.got - 2010.06.03 15:25:27.
