data_PCOD9461341
_publ_section_title
;
Structure prediction by ZEFSAII (Michael W. Deem and Ramdas Pophale) SiO2 
 PCOD9461341
Probable space group: P N M A
;
_chemical_formula_sum "Si O2"
_cell_formula_units_Z 64
_cell_length_a 17.795211
_cell_length_b 21.558323
_cell_length_c 8.999666
_cell_angle_alpha 90.000000
_cell_angle_beta 90.000000
_cell_angle_gamma 90.000000
_cell_volume 3452.586025
_symmetry_space_group_name_H-M "P N M A"
_symmetry_group_IT_number 62
_symmetry_cell_setting 'orthorhombic'
loop_
_space_group_symop_operation_xyz
x,y,z
1/2-x,-y,1/2+z
1/2+x,1/2-y,1/2-z
-x,1/2+y,-z
-x,-y,-z
1/2+x,y,1/2-z
1/2-x,1/2+y,1/2+z
x,1/2-y,z
loop_
_atom_site_type_symbol
_atom_site_label
_atom_site_fract_x
_atom_site_fract_y
_atom_site_fract_z
Si Si1 0.359601 0.075865 0.068665
Si Si2 0.759120 0.075553 0.144637
Si Si3 0.534809 0.678507 0.780617
Si Si4 0.031200 0.488841 0.711031
Si Si5 0.632728 0.011578 0.497935
Si Si6 0.403924 0.592504 0.756496
Si Si7 0.401673 0.407728 0.752383
Si Si8 0.363063 0.178527 0.503492
O O1 0.291933 0.075933 0.186851
O O2 0.413878 0.132681 0.120840
O O3 0.405920 0.012091 0.096815
O O4 0.348273 0.085046 0.894323
O O5 0.789446 0.012080 0.069670
O O6 0.670580 0.083965 0.147721
O O7 0.798971 0.132227 0.057854
O O8 0.542457 0.750000 0.825485
O O9 0.448825 0.656014 0.776732
O O10 0.568973 0.671494 0.614502
O O11 0.071855 0.491404 0.870728
O O12 0.967583 0.541726 0.706729
O O13 0.986178 0.424792 0.693170
O O14 0.615710 0.959527 0.373058
O O15 0.622925 0.075925 0.411416
O O16 0.390217 0.344324 0.664448
O O17 0.339298 0.250000 0.503263
#
# Coordination Sequence:
#
# PCOD9461341 Si02
#       8
#     8   8   8   8   8   8   8   8
#     4   9  18  30  46  71  99 123 152 197 249 293
#     4   9  19  32  46  69  99 128 157 193 240 293
#     4   9  18  33  50  69  93 122 160 202 241 286
#     4   9  17  31  48  70  99 128 157 196 248 297
#     4   9  18  32  48  68 100 130 158 196 240 293
#     4  10  17  28  51  74  92 124 165 200 236 282
#     4  10  16  27  50  73  91 121 163 201 234 285
#     4   9  18  33  51  68  92 130 169 201 239 289
#
# _framework density 18.536830999999999
#
# number of rings (size 3 to 8) (size 9 to 14) (size 15 to 20)
#    0.000    2.750    0.000    4.875    0.000    3.000 
#    0.000    1.250    0.000   12.000    0.000    3.500 
#    0.000    0.000    0.000    0.000    0.000    0.000 
#
# Total GULP energy -356632.653627 kJ/mol
# GULP energy per Si atom -5572.385213 kJ/mol
# Density = 1.849464 g / cm^3
# Si number density = 18.536831 Si / 1000 Ang^3
#
#
#
# Elastic Constant Matrix: (Units=GPa)
#
#
# Indices 1 2 3 4 5 6 
#
# 1 82.0730 16.1371 -4.7589 0.0000 0.0000 0.0000
# 2 16.1371 49.7045 16.3050 0.0000 0.0000 0.0000
# 3 -4.7589 16.3050 69.4821 0.0000 0.0000 0.0000
# 4 0.0000 0.0000 0.0000 19.4498 0.0000 0.0000
# 5 0.0000 0.0000 0.0000 0.0000 11.3233 0.0000
# 6 0.0000 0.0000 0.0000 0.0000 0.0000 17.0483
#
#
#
# Elastic Compliance Matrix: (Units=1/GPa)
#
#
# Indices 1 2 3 4 5 6 
#
# 1 0.013288 -0.004997 0.002083 0.000000 0.000000 0.000000
# 2 -0.004997 0.023676 -0.005898 0.000000 0.000000 0.000000
# 3 0.002083 -0.005898 0.015919 0.000000 0.000000 0.000000
# 4 0.000000 0.000000 0.000000 0.051414 0.000000 0.000000
# 5 0.000000 0.000000 0.000000 0.000000 0.088314 0.000000
# 6 0.000000 0.000000 0.000000 0.000000 0.000000 0.058657
#
#
# Mechanical properties :
#
#
# Convention : Reuss Voigt Hill
#
# Bulk Modulus (GPa) = 28.36290 28.51402 28.43846
# Shear Modulus (GPa) = 17.81607 21.13602 19.47605
#
# Velocity S-wave (km/s) = 3.10355 3.38037 3.24492
# Velocity P-wave (km/s) = 5.30818 5.53639 5.42349
#
# Compressibility (1/GPa) = 0.03525733
#
# Stress axis : x y z
#
# Youngs Moduli (GPa) = 75.25822 42.23665 62.81821
#
# Poissons Ratio (x) = 0.21106 -0.13083
# Poissons Ratio (y) = 0.37608 0.37052
# Poissons Ratio (z) = -0.15674 0.24912
#
# Static dielectric constant tensor:
#      x y z
#    x 1.679960 0.000000 0.000000 
#    y 0.000000 1.669010 0.000000 
#    z 0.000000 0.000000 1.683890 
# 
# From -- ./inp_files/8152.got.cif
#   From: 2010.05.17/outbox.cif.g08.bks.cpg/sg62_5_cif.got.tgz:8152.got - 2010.06.03 15:25:27.
