data_PCOD9461824
_publ_section_title
;
Structure prediction by ZEFSAII (Michael W. Deem and Ramdas Pophale) SiO2 
 PCOD9461824
Probable space group: P N M A
;
_chemical_formula_sum "Si O2"
_cell_formula_units_Z 64
_cell_length_a 20.288717
_cell_length_b 7.691393
_cell_length_c 19.803373
_cell_angle_alpha 90.000000
_cell_angle_beta 90.000000
_cell_angle_gamma 90.000000
_cell_volume 3090.286571
_symmetry_space_group_name_H-M "P N M A"
_symmetry_group_IT_number 62
_symmetry_cell_setting 'orthorhombic'
loop_
_space_group_symop_operation_xyz
x,y,z
1/2-x,-y,1/2+z
1/2+x,1/2-y,1/2-z
-x,1/2+y,-z
-x,-y,-z
1/2+x,y,1/2-z
1/2-x,1/2+y,1/2+z
x,1/2-y,z
loop_
_atom_site_type_symbol
_atom_site_label
_atom_site_fract_x
_atom_site_fract_y
_atom_site_fract_z
Si Si1 0.538387 0.960271 0.901063
Si Si2 0.278553 0.047693 0.873339
Si Si3 0.371676 0.459484 0.598243
Si Si4 0.980238 0.951093 0.103723
Si Si5 0.899072 0.544944 0.536431
Si Si6 0.345257 0.541544 0.452833
Si Si7 0.860164 0.461632 0.751642
Si Si8 0.013180 0.545761 0.745101
O O1 0.536710 0.750000 0.900361
O O2 0.466832 0.021091 0.928800
O O3 0.546436 0.019382 0.823948
O O4 0.591318 0.015819 0.956695
O O5 0.264877 0.250000 0.858734
O O6 0.212282 0.970672 0.904969
O O7 0.309706 0.972922 0.804812
O O8 0.335812 0.038912 0.929570
O O9 0.374938 0.250000 0.600819
O O10 0.447156 0.528364 0.591774
O O11 0.332592 0.509570 0.531634
O O12 0.345426 0.515875 0.671406
O O13 0.984624 0.750000 0.082481
O O14 0.917368 0.030385 0.066544
O O15 0.968710 0.957567 0.184369
O O16 0.894606 0.750000 0.549541
O O17 0.347534 0.750000 0.443250
O O18 0.861745 0.250000 0.749160
O O19 0.934427 0.522364 0.735735
O O20 0.027150 0.750000 0.752725
#
# Coordination Sequence:
#
# PCOD9461824 Si02
#       8
#     8   8   8   8   8   8   8   8
#     4   9  18  31  47  73 107 137 170 215 259 303
#     4  10  20  35  54  74 103 141 176 212 258 312
#     4   9  18  33  54  78 102 131 172 220 263 304
#     4   9  19  35  53  76 106 137 174 216 262 318
#     4  10  19  31  49  74 102 136 176 215 255 303
#     4  10  21  36  54  77 105 140 175 211 260 316
#     4   9  18  33  53  76 102 135 170 207 254 309
#     4  10  18  30  51  79 107 132 167 216 263 304
#
# _framework density 20.710054
#
# number of rings (size 3 to 8) (size 9 to 14) (size 15 to 20)
#    0.000    2.500    1.250    1.875    0.000    4.500 
#    0.000    1.250    0.000    1.500    0.000    0.000 
#    0.000    0.000    0.000    0.000    0.000    0.000 
#
# Total GULP energy -357065.586854 kJ/mol
# GULP energy per Si atom -5579.149795 kJ/mol
# Density = 2.066292 g / cm^3
# Si number density = 20.710054 Si / 1000 Ang^3
#
#
#
# Elastic Constant Matrix: (Units=GPa)
#
#
# Indices 1 2 3 4 5 6 
#
# 1 49.3131 0.7526 43.2096 0.0000 0.0000 0.0000
# 2 0.7526 37.3231 -8.6808 0.0000 0.0000 0.0000
# 3 43.2096 -8.6808 132.0168 0.0000 0.0000 0.0000
# 4 0.0000 0.0000 0.0000 23.3576 0.0000 0.0000
# 5 0.0000 0.0000 0.0000 0.0000 25.7981 0.0000
# 6 0.0000 0.0000 0.0000 0.0000 0.0000 9.1986
#
#
#
# Elastic Compliance Matrix: (Units=1/GPa)
#
#
# Indices 1 2 3 4 5 6 
#
# 1 0.028720 -0.002808 -0.009585 0.000000 0.000000 0.000000
# 2 -0.002808 0.027484 0.002726 0.000000 0.000000 0.000000
# 3 -0.009585 0.002726 0.010891 0.000000 0.000000 0.000000
# 4 0.000000 0.000000 0.000000 0.042813 0.000000 0.000000
# 5 0.000000 0.000000 0.000000 0.000000 0.038763 0.000000
# 6 0.000000 0.000000 0.000000 0.000000 0.000000 0.108713
#
#
# Mechanical properties :
#
#
# Convention : Reuss Voigt Hill
#
# Bulk Modulus (GPa) = 20.93744 32.13510 26.53627
# Shear Modulus (GPa) = 17.08602 23.89562 20.49082
#
# Velocity S-wave (km/s) = 2.87542 3.40047 3.14891
# Velocity P-wave (km/s) = 4.59954 5.56489 5.10508
#
# Compressibility (1/GPa) = 0.04776134
#
# Stress axis : x y z
#
# Youngs Moduli (GPa) = 34.81901 36.38503 91.81705
#
# Poissons Ratio (x) = 0.10218 0.88005
# Poissons Ratio (y) = 0.09779 -0.25033
# Poissons Ratio (z) = 0.33373 -0.09920
#
# Static dielectric constant tensor:
#      x y z
#    x 1.727950 0.000000 0.000000 
#    y 0.000000 1.778440 0.000000 
#    z 0.000000 0.000000 1.765750 
# 
# From -- ./inp_files/27903.got.cif
#   From: 2010.05.17/outbox.cif.g08.bks.cpg/sg62_14_cif.got.tgz:27903.got - 2010.06.03 15:25:27.
