data_PCOD9461818
_publ_section_title
;
Structure prediction by ZEFSAII (Michael W. Deem and Ramdas Pophale) SiO2 
 PCOD9461818
Probable space group: P N M A
;
_chemical_formula_sum "Si O2"
_cell_formula_units_Z 48
_cell_length_a 32.547482
_cell_length_b 9.223874
_cell_length_c 7.464743
_cell_angle_alpha 90.000000
_cell_angle_beta 90.000000
_cell_angle_gamma 90.000000
_cell_volume 2241.019407
_symmetry_space_group_name_H-M "P N M A"
_symmetry_group_IT_number 62
_symmetry_cell_setting 'orthorhombic'
loop_
_space_group_symop_operation_xyz
x,y,z
1/2-x,-y,1/2+z
1/2+x,1/2-y,1/2-z
-x,1/2+y,-z
-x,-y,-z
1/2+x,y,1/2-z
1/2-x,1/2+y,1/2+z
x,1/2-y,z
loop_
_atom_site_type_symbol
_atom_site_label
_atom_site_fract_x
_atom_site_fract_y
_atom_site_fract_z
Si Si1 0.628800 0.426655 0.911209
Si Si2 0.717661 0.411805 0.888069
Si Si3 0.877474 0.077195 0.023403
Si Si4 0.701696 0.412892 0.462945
Si Si5 0.541671 0.085202 0.533516
Si Si6 0.041337 0.412413 0.536250
O O1 0.627027 0.250000 0.874789
O O2 0.674788 0.452001 0.985709
O O3 0.626510 0.521707 0.729837
O O4 0.587237 0.462793 0.020594
O O5 0.730497 0.250000 0.946824
O O6 0.705904 0.404398 0.678845
O O7 0.755222 0.520666 0.902714
O O8 0.879448 0.250000 0.015008
O O9 0.837374 0.013770 0.926107
O O10 0.919491 0.002390 0.959382
O O11 0.695039 0.250000 0.394981
O O12 0.540619 0.250000 0.466229
O O13 0.545571 0.092726 0.748535
O O14 0.500000 0.000000 0.500000
O O15 0.035126 0.250000 0.467153
O O16 0.000000 0.500000 0.500000
#
# Coordination Sequence:
#
# PCOD9461818 Si02
#       6
#     8   8   8   8   8   8
#     4   8  16  32  50  70  99 132 166 205 246 293
#     4   9  18  33  52  73  98 130 169 210 249 295
#     4  10  18  30  51  75  98 130 169 205 245 298
#     4  10  20  34  52  75 103 133 165 205 251 298
#     4  10  20  35  53  75 102 133 169 209 251 295
#     4   9  18  32  51  74 101 132 166 204 246 293
#
# _framework density 21.418824999999998
#
# number of rings (size 3 to 8) (size 9 to 14) (size 15 to 20)
#    0.000    2.667    0.000    4.500    0.000    6.667 
#    0.000    1.667    0.000    8.000    0.000    0.000 
#    0.000    0.000    0.000    0.000    0.000    0.000 
#
# Total GULP energy -267670.213828 kJ/mol
# GULP energy per Si atom -5576.462788 kJ/mol
# Density = 2.137008 g / cm^3
# Si number density = 21.418825 Si / 1000 Ang^3
#
#
#
# Elastic Constant Matrix: (Units=GPa)
#
#
# Indices 1 2 3 4 5 6 
#
# 1 208.6327 108.0750 -7.3142 0.0000 0.0000 0.0000
# 2 108.0750 160.4958 4.6058 0.0000 0.0000 0.0000
# 3 -7.3142 4.6058 36.3914 0.0000 0.0000 0.0000
# 4 0.0000 0.0000 0.0000 16.8019 0.0000 0.0000
# 5 0.0000 0.0000 0.0000 0.0000 26.5643 0.0000
# 6 0.0000 0.0000 0.0000 0.0000 0.0000 45.5813
#
#
#
# Elastic Compliance Matrix: (Units=1/GPa)
#
#
# Indices 1 2 3 4 5 6 
#
# 1 0.007526 -0.005130 0.002162 0.000000 0.000000 0.000000
# 2 -0.005130 0.009750 -0.002265 0.000000 0.000000 0.000000
# 3 0.002162 -0.002265 0.028200 0.000000 0.000000 0.000000
# 4 0.000000 0.000000 0.000000 0.059517 0.000000 0.000000
# 5 0.000000 0.000000 0.000000 0.000000 0.037645 0.000000
# 6 0.000000 0.000000 0.000000 0.000000 0.000000 0.021939
#
#
# Mechanical properties :
#
#
# Convention : Reuss Voigt Hill
#
# Bulk Modulus (GPa) = 28.56306 68.47259 48.51782
# Shear Modulus (GPa) = 26.77889 37.79971 32.28930
#
# Velocity S-wave (km/s) = 3.53972 4.20550 3.88689
# Velocity P-wave (km/s) = 5.48367 7.45784 6.54561
#
# Compressibility (1/GPa) = 0.03501026
#
# Stress axis : x y z
#
# Youngs Moduli (GPa) = 132.86496 102.56105 35.46074
#
# Poissons Ratio (x) = 0.52616 -0.07667
# Poissons Ratio (y) = 0.68163 0.08032
# Poissons Ratio (z) = -0.28726 0.23231
#
# Static dielectric constant tensor:
#      x y z
#    x 1.834160 0.000000 0.000000 
#    y 0.000000 1.739120 0.000000 
#    z 0.000000 0.000000 1.854780 
# 
# From -- ./inp_files/15397.got.cif
#   From: 2010.05.17/outbox.cif.g08.bks.cpg/sg62_8_cif.got.tgz:15397.got - 2010.06.03 15:25:27.
