data_PCOD9461351
_publ_section_title
;
Structure prediction by ZEFSAII (Michael W. Deem and Ramdas Pophale) SiO2 
 PCOD9461351
Probable space group: P N M A
;
_chemical_formula_sum "Si O2"
_cell_formula_units_Z 56
_cell_length_a 9.600725
_cell_length_b 13.628088
_cell_length_c 28.806214
_cell_angle_alpha 90.000000
_cell_angle_beta 90.000000
_cell_angle_gamma 90.000000
_cell_volume 3768.991362
_symmetry_space_group_name_H-M "P N M A"
_symmetry_group_IT_number 62
_symmetry_cell_setting 'orthorhombic'
loop_
_space_group_symop_operation_xyz
x,y,z
1/2-x,-y,1/2+z
1/2+x,1/2-y,1/2-z
-x,1/2+y,-z
-x,-y,-z
1/2+x,y,1/2-z
1/2-x,1/2+y,1/2+z
x,1/2-y,z
loop_
_atom_site_type_symbol
_atom_site_label
_atom_site_fract_x
_atom_site_fract_y
_atom_site_fract_z
Si Si1 0.752664 0.868437 0.894855
Si Si2 0.752834 0.868336 0.791369
Si Si3 0.634751 0.136873 0.551077
Si Si4 0.651995 0.964809 0.985257
Si Si5 0.570142 0.555277 0.602915
Si Si6 0.577316 0.631078 0.703142
Si Si7 0.648599 0.861278 0.506304
O O1 0.766449 0.750000 0.897822
O O2 0.701106 0.895154 0.843012
O O3 0.658704 0.908569 0.936374
O O4 0.907009 0.915022 0.899664
O O5 0.746137 0.750000 0.789662
O O6 0.666809 0.903283 0.747087
O O7 0.915452 0.894678 0.788677
O O8 0.642409 0.250000 0.565845
O O9 0.773419 0.103523 0.523913
O O10 0.507034 0.127780 0.514323
O O11 0.598762 0.058210 0.590829
O O12 0.500000 0.000000 0.000000
O O13 0.751237 0.060219 0.982656
O O14 0.620508 0.586263 0.653774
O O15 0.642181 0.614346 0.560894
O O16 0.585598 0.750000 0.699292
O O17 0.693737 0.750000 0.498474
#
# Coordination Sequence:
#
# PCOD9461351 Si02
#       7
#     8   8   8   8   8   8   8
#     4  10  17  30  50  69  97 132 159 187 233 288
#     4   8  16  28  44  66  93 122 150 186 232 282
#     4  10  19  33  52  70  95 124 158 204 239 270
#     4  11  21  32  45  69 101 129 162 193 233 294
#     4  10  16  29  51  74  89 120 163 196 230 279
#     4   9  16  28  45  68  96 122 151 188 232 281
#     4  10  18  31  49  70  94 122 160 202 231 269
#
# _framework density 14.858086
#
# number of rings (size 3 to 8) (size 9 to 14) (size 15 to 20)
#    0.000    2.286    2.857    3.429    0.000    1.143 
#    5.143    0.000    0.000    0.000    0.000    5.000 
#    0.000    0.000    0.000    0.000    0.000    0.000 
#
# Total GULP energy -311966.894582 kJ/mol
# GULP energy per Si atom -5570.837403 kJ/mol
# Density = 1.482427 g / cm^3
# Si number density = 14.858086 Si / 1000 Ang^3
#
#
#
# Elastic Constant Matrix: (Units=GPa)
#
#
# Indices 1 2 3 4 5 6 
#
# 1 51.0560 29.1107 41.2815 0.0000 0.0000 0.0000
# 2 29.1107 87.4855 42.2117 0.0000 0.0000 0.0000
# 3 41.2815 42.2117 128.9960 0.0000 0.0000 0.0000
# 4 0.0000 0.0000 0.0000 23.7713 0.0000 0.0000
# 5 0.0000 0.0000 0.0000 0.0000 22.5216 0.0000
# 6 0.0000 0.0000 0.0000 0.0000 0.0000 14.4025
#
#
#
# Elastic Compliance Matrix: (Units=1/GPa)
#
#
# Indices 1 2 3 4 5 6 
#
# 1 0.028951 -0.006131 -0.007259 0.000000 0.000000 0.000000
# 2 -0.006131 0.014872 -0.002905 0.000000 0.000000 0.000000
# 3 -0.007259 -0.002905 0.011026 0.000000 0.000000 0.000000
# 4 0.000000 0.000000 0.000000 0.042068 0.000000 0.000000
# 5 0.000000 0.000000 0.000000 0.000000 0.044402 0.000000
# 6 0.000000 0.000000 0.000000 0.000000 0.000000 0.069432
#
#
# Mechanical properties :
#
#
# Convention : Reuss Voigt Hill
#
# Bulk Modulus (GPa) = 44.92353 54.74947 49.83650
# Shear Modulus (GPa) = 19.93945 22.46799 21.20372
#
# Velocity S-wave (km/s) = 3.66730 3.89288 3.78177
# Velocity P-wave (km/s) = 6.94498 7.55873 7.25834
#
# Compressibility (1/GPa) = 0.02226005
#
# Stress axis : x y z
#
# Youngs Moduli (GPa) = 34.54095 67.24031 90.69835
#
# Poissons Ratio (x) = 0.41226 0.65835
# Poissons Ratio (y) = 0.21178 0.26343
# Poissons Ratio (z) = 0.25072 0.19530
#
# Static dielectric constant tensor:
#      x y z
#    x 1.495560 0.000000 0.000000 
#    y 0.000000 1.492350 0.000000 
#    z 0.000000 0.000000 1.499040 
# 
# From -- ./inp_files/32290.got.cif
#   From: 2010.05.17/outbox.cif.g08.bks.cpg/sg62_17_cif.got.tgz:32290.got - 2010.06.03 15:25:27.
