data_PCOD9461633
_publ_section_title
;
Structure prediction by ZEFSAII (Michael W. Deem and Ramdas Pophale) SiO2 
 PCOD9461633
Probable space group: P N M A
;
_chemical_formula_sum "Si O2"
_cell_formula_units_Z 56
_cell_length_a 21.409832
_cell_length_b 8.710977
_cell_length_c 19.010280
_cell_angle_alpha 90.000000
_cell_angle_beta 90.000000
_cell_angle_gamma 90.000000
_cell_volume 3545.427754
_symmetry_space_group_name_H-M "P N M A"
_symmetry_group_IT_number 62
_symmetry_cell_setting 'orthorhombic'
loop_
_space_group_symop_operation_xyz
x,y,z
1/2-x,-y,1/2+z
1/2+x,1/2-y,1/2-z
-x,1/2+y,-z
-x,-y,-z
1/2+x,y,1/2-z
1/2-x,1/2+y,1/2+z
x,1/2-y,z
loop_
_atom_site_type_symbol
_atom_site_label
_atom_site_fract_x
_atom_site_fract_y
_atom_site_fract_z
Si Si1 0.998962 0.934470 0.078674
Si Si2 0.821747 0.426972 0.294716
Si Si3 0.747146 0.936304 0.926101
Si Si4 0.622617 0.564272 0.654565
Si Si5 0.313364 0.573381 0.783422
Si Si6 0.369257 0.066561 0.648901
Si Si7 0.751223 0.933900 0.087392
O O1 0.994215 0.750000 0.076177
O O2 0.063691 0.975815 0.117315
O O3 0.940047 0.002510 0.119981
O O4 0.000000 0.000000 0.000000
O O5 0.840861 0.250000 0.305571
O O6 0.805783 0.494019 0.371212
O O7 0.867662 0.492498 0.235384
O O8 0.754229 0.427427 0.255839
O O9 0.748515 0.750000 0.921117
O O10 0.813771 0.996515 0.898541
O O11 0.737083 0.978190 0.007018
O O12 0.623459 0.750000 0.654626
O O13 0.682678 0.506442 0.610856
O O14 0.331038 0.750000 0.794257
O O15 0.359174 0.493043 0.728241
O O16 0.300418 0.490718 0.857068
O O17 0.363161 0.250000 0.647982
O O18 0.756492 0.750000 0.091407
#
# Coordination Sequence:
#
# PCOD9461633 Si02
#       7
#     8   8   8   8   8   8   8
#     4  11  23  35  47  66  93 124 158 194 230 273
#     4   7  13  27  44  62  84 113 148 181 218 266
#     4   9  17  29  46  68  94 122 149 183 229 276
#     4  10  19  31  47  65  90 125 160 192 227 270
#     4   9  17  30  47  65  89 120 152 188 231 278
#     4  10  20  32  46  65  90 121 157 194 230 272
#     4  10  18  28  46  71  97 123 152 188 230 275
#
# _framework density 15.794991
#
# number of rings (size 3 to 8) (size 9 to 14) (size 15 to 20)
#    0.000    2.571    0.000    4.714    0.000    5.714 
#    0.000    0.714    0.000    0.000    0.000    1.000 
#    0.000    0.000    0.000    0.000    0.000    0.000 
#
# Total GULP energy -311972.710847 kJ/mol
# GULP energy per Si atom -5570.941265 kJ/mol
# Density = 1.575904 g / cm^3
# Si number density = 15.794991 Si / 1000 Ang^3
#
#
#
# Elastic Constant Matrix: (Units=GPa)
#
#
# Indices 1 2 3 4 5 6 
#
# 1 74.7767 26.6700 72.0822 0.0000 0.0000 0.0000
# 2 26.6700 40.5010 43.6154 0.0000 0.0000 0.0000
# 3 72.0822 43.6154 175.4698 0.0000 0.0000 0.0000
# 4 0.0000 0.0000 0.0000 24.1959 0.0000 0.0000
# 5 0.0000 0.0000 0.0000 0.0000 26.8433 0.0000
# 6 0.0000 0.0000 0.0000 0.0000 0.0000 19.7373
#
#
#
# Elastic Compliance Matrix: (Units=1/GPa)
#
#
# Indices 1 2 3 4 5 6 
#
# 1 0.023484 -0.006930 -0.007924 0.000000 0.000000 0.000000
# 2 -0.006930 0.035761 -0.006042 0.000000 0.000000 0.000000
# 3 -0.007924 -0.006042 0.010456 0.000000 0.000000 0.000000
# 4 0.000000 0.000000 0.000000 0.041329 0.000000 0.000000
# 5 0.000000 0.000000 0.000000 0.000000 0.037253 0.000000
# 6 0.000000 0.000000 0.000000 0.000000 0.000000 0.050665
#
#
# Mechanical properties :
#
#
# Convention : Reuss Voigt Hill
#
# Bulk Modulus (GPa) = 35.83271 63.94250 49.88761
# Shear Modulus (GPa) = 19.99644 24.04731 22.02187
#
# Velocity S-wave (km/s) = 3.56195 3.90611 3.73799
# Velocity P-wave (km/s) = 6.29698 7.80476 7.09106
#
# Compressibility (1/GPa) = 0.02790746
#
# Stress axis : x y z
#
# Youngs Moduli (GPa) = 42.58259 27.96353 95.63818
#
# Poissons Ratio (x) = 0.19380 0.75787
# Poissons Ratio (y) = 0.29511 0.57783
# Poissons Ratio (z) = 0.33744 0.16895
#
# Static dielectric constant tensor:
#      x y z
#    x 1.501190 0.000000 0.000000 
#    y 0.000000 1.543060 0.000000 
#    z 0.000000 0.000000 1.532600 
# 
# From -- ./inp_files/24569.got.cif
#   From: 2010.05.17/outbox.cif.g08.bks.cpg/sg62_13_cif.got.tgz:24569.got - 2010.06.03 15:25:27.
