data_PCOD9461319
_publ_section_title
;
Structure prediction by ZEFSAII (Michael W. Deem and Ramdas Pophale) SiO2 
 PCOD9461319
Probable space group: P N M A
;
_chemical_formula_sum "Si O2"
_cell_formula_units_Z 48
_cell_length_a 11.978302
_cell_length_b 23.242779
_cell_length_c 7.308407
_cell_angle_alpha 90.000000
_cell_angle_beta 90.000000
_cell_angle_gamma 90.000000
_cell_volume 2034.726476
_symmetry_space_group_name_H-M "P N M A"
_symmetry_group_IT_number 62
_symmetry_cell_setting 'orthorhombic'
loop_
_space_group_symop_operation_xyz
x,y,z
1/2-x,-y,1/2+z
1/2+x,1/2-y,1/2-z
-x,1/2+y,-z
-x,-y,-z
1/2+x,y,1/2-z
1/2-x,1/2+y,1/2+z
x,1/2-y,z
loop_
_atom_site_type_symbol
_atom_site_label
_atom_site_fract_x
_atom_site_fract_y
_atom_site_fract_z
Si Si1 0.221269 0.422810 0.146797
Si Si2 0.666143 0.816561 0.992436
Si Si3 0.350707 0.023130 0.848070
Si Si4 0.480848 0.911047 0.382518
Si Si5 0.077959 0.317994 0.583791
Si Si6 0.290720 0.124631 0.616730
O O1 0.255791 0.357049 0.127262
O O2 0.326655 0.453611 0.048407
O O3 0.112115 0.432741 0.019276
O O4 0.187702 0.457994 0.325406
O O5 0.691048 0.750000 0.967301
O O6 0.533445 0.826527 0.964294
O O7 0.683821 0.834491 0.206063
O O8 0.469861 0.042228 0.763117
O O9 0.270901 0.063429 0.718030
O O10 0.437791 0.856613 0.266133
O O11 0.592797 0.887987 0.484585
O O12 0.192579 0.344448 0.510598
O O13 0.086901 0.250000 0.620927
#
# Coordination Sequence:
#
# PCOD9461319 Si02
#       6
#     8   8   8   8   8   8
#     4  11  18  33  49  72 100 132 166 203 247 296
#     4   9  17  26  43  67  94 123 156 200 247 287
#     4   9  20  30  48  68  99 134 168 199 248 293
#     4   9  16  30  44  66  99 131 159 199 244 294
#     4  10  15  26  45  68 101 128 155 204 257 295
#     4   8  16  26  41  66  95 124 151 193 242 287
#
# _framework density 23.590392999999999
#
# number of rings (size 3 to 8) (size 9 to 14) (size 15 to 20)
#    1.000    1.667    5.000    1.000    0.000    0.667 
#    0.000    3.333    0.000    0.000    0.000    7.000 
#    0.000    1.333    0.000    0.000    0.333    0.000 
#
# Total GULP energy -267497.997648 kJ/mol
# GULP energy per Si atom -5572.874951 kJ/mol
# Density = 2.353670 g / cm^3
# Si number density = 23.590393 Si / 1000 Ang^3
#
#
#
# Elastic Constant Matrix: (Units=GPa)
#
#
# Indices 1 2 3 4 5 6 
#
# 1 93.1415 9.5430 2.8285 0.0000 0.0000 0.0000
# 2 9.5430 73.9440 3.9203 0.0000 0.0000 0.0000
# 3 2.8285 3.9203 42.1850 0.0000 0.0000 0.0000
# 4 0.0000 0.0000 0.0000 13.2470 0.0000 0.0000
# 5 0.0000 0.0000 0.0000 0.0000 -1.7051 0.0000
# 6 0.0000 0.0000 0.0000 0.0000 0.0000 27.5164
#
#
#
# Elastic Compliance Matrix: (Units=1/GPa)
#
#
# Indices 1 2 3 4 5 6 
#
# 1 0.010895 -0.001374 -0.000603 0.000000 0.000000 0.000000
# 2 -0.001374 0.013764 -0.001187 0.000000 0.000000 0.000000
# 3 -0.000603 -0.001187 0.023856 0.000000 0.000000 0.000000
# 4 0.000000 0.000000 0.000000 0.075489 0.000000 0.000000
# 5 0.000000 0.000000 0.000000 0.000000 -0.586469 0.000000
# 6 0.000000 0.000000 0.000000 0.000000 0.000000 0.036342
#
#
# Mechanical properties :
#
#
# Convention : Reuss Voigt Hill
#
# Bulk Modulus (GPa) = 23.70376 26.87266 25.28821
# Shear Modulus (GPa) = -12.32337 20.67691 4.17677
#
# Velocity S-wave (km/s) = -2.28806 2.96378 1.33206
# Velocity P-wave (km/s) = 1.75771 4.80917 3.62061
#
# Compressibility (1/GPa) = 0.04218739
#
# Stress axis : x y z
#
# Youngs Moduli (GPa) = 91.78139 72.65315 41.91845
#
# Poissons Ratio (x) = 0.09984 0.02527
# Poissons Ratio (y) = 0.12612 0.04976
# Poissons Ratio (z) = 0.05533 0.08624
#
# Static dielectric constant tensor:
#      x y z
#    x 1.997210 0.000000 0.000000 
#    y 0.000000 1.856590 0.000000 
#    z 0.000000 0.000000 1.952860 
# 
# From -- ./inp_files/5295.got.cif
#   From: 2010.05.17/outbox.cif.g08.bks.cpg/sg62_3_cif.got.tgz:5295.got - 2010.06.03 15:25:27.
