data_PCOD9461069
_publ_section_title
;
Structure prediction by ZEFSAII (Michael W. Deem and Ramdas Pophale) SiO2 
 PCOD9461069
Probable space group: P B C A
;
_chemical_formula_sum "Si O2"
_cell_formula_units_Z 32
_cell_length_a 18.820727
_cell_length_b 8.411299
_cell_length_c 7.511885
_cell_angle_alpha 90.000000
_cell_angle_beta 90.000000
_cell_angle_gamma 90.000000
_cell_volume 1189.182192
_symmetry_space_group_name_H-M "P B C A"
_symmetry_group_IT_number 61
_symmetry_cell_setting 'orthorhombic'
loop_
_space_group_symop_operation_xyz
x,y,z
1/2-x,-y,1/2+z
1/2+x,1/2-y,-z
-x,1/2+y,1/2-z
-x,-y,-z
1/2+x,y,1/2-z
1/2-x,1/2+y,z
x,1/2-y,1/2+z
loop_
_atom_site_type_symbol
_atom_site_label
_atom_site_fract_x
_atom_site_fract_y
_atom_site_fract_z
Si Si1 0.953305 0.749750 0.942150
Si Si2 0.957667 0.431354 0.289140
Si Si3 0.822820 0.332584 0.518353
Si Si4 0.177802 0.011182 0.601059
O O1 0.884414 0.638837 0.937150
O O2 0.023269 0.646161 0.898921
O O3 0.950297 0.880779 0.781701
O O4 0.973183 0.874812 0.097603
O O5 0.889110 0.371803 0.392117
O O6 0.750868 0.394271 0.425911
O O7 0.829305 0.428876 0.704239
O O8 0.819575 0.141256 0.530093
#
# Coordination Sequence:
#
# PCOD9461069 Si02
#       4
#     8   8   8   8
#     4  11  25  46  73 105 143 192 247 307 371 446
#     4  11  24  45  73 106 145 191 246 306 374 446
#     4  12  26  47  74 109 152 199 250 312 379 448
#     4  12  27  47  74 108 150 196 251 311 376 454
#
# _framework density 26.909248000000002
#
# number of rings (size 3 to 8) (size 9 to 14) (size 15 to 20)
#    0.000    0.500    0.000    9.000    0.000   10.000 
#    0.000    0.000    0.000    0.000    0.000    0.000 
#    0.000    0.000    0.000    0.000    0.000    0.000 
#
# Total GULP energy -179344.192893 kJ/mol
# GULP energy per Si atom -5604.506028 kJ/mol
# Density = 2.684800 g / cm^3
# Si number density = 26.909248 Si / 1000 Ang^3
#
#
#
# Elastic Constant Matrix: (Units=GPa)
#
#
# Indices 1 2 3 4 5 6 
#
# 1 209.5744 102.5598 54.0669 0.0000 0.0000 0.0000
# 2 102.5598 245.1403 26.0746 0.0000 0.0000 0.0000
# 3 54.0669 26.0746 101.3761 0.0000 0.0000 0.0000
# 4 0.0000 0.0000 0.0000 53.3446 0.0000 0.0000
# 5 0.0000 0.0000 0.0000 0.0000 43.8729 0.0000
# 6 0.0000 0.0000 0.0000 0.0000 0.0000 65.2660
#
#
#
# Elastic Compliance Matrix: (Units=1/GPa)
#
#
# Indices 1 2 3 4 5 6 
#
# 1 0.006767 -0.002516 -0.002962 0.000000 0.000000 0.000000
# 2 -0.002516 0.005130 0.000023 0.000000 0.000000 0.000000
# 3 -0.002962 0.000023 0.011438 0.000000 0.000000 0.000000
# 4 0.000000 0.000000 0.000000 0.018746 0.000000 0.000000
# 5 0.000000 0.000000 0.000000 0.000000 0.022793 0.000000
# 6 0.000000 0.000000 0.000000 0.000000 0.000000 0.015322
#
#
# Mechanical properties :
#
#
# Convention : Reuss Voigt Hill
#
# Bulk Modulus (GPa) = 80.49050 102.38816 91.43933
# Shear Modulus (GPa) = 52.49461 57.38931 54.94196
#
# Velocity S-wave (km/s) = 4.42158 4.62312 4.52347
# Velocity P-wave (km/s) = 7.48625 8.16270 7.83178
#
# Compressibility (1/GPa) = 0.01242383
#
# Stress axis : x y z
#
# Youngs Moduli (GPa) = 147.77615 194.94867 87.42698
#
# Poissons Ratio (x) = 0.49051 0.25895
# Poissons Ratio (y) = 0.37182 -0.00197
# Poissons Ratio (z) = 0.43770 -0.00439
#
# Static dielectric constant tensor:
#      x y z
#    x 2.004750 0.000000 0.000000 
#    y 0.000000 2.143580 0.000000 
#    z 0.000000 0.000000 2.425490 
# 
# From -- ./inp_files/3768.got.cif
#   From: 2010.05.17/outbox.cif.g08.bks.cpg/sg61_2_cif.got.tgz:3768.got - 2010.06.03 15:17:17.
