data_PCOD9461531
_publ_section_title
;
Structure prediction by ZEFSAII (Michael W. Deem and Ramdas Pophale) SiO2 
 PCOD9461531
Probable space group: P N M A
;
_chemical_formula_sum "Si O2"
_cell_formula_units_Z 44
_cell_length_a 7.191266
_cell_length_b 14.397072
_cell_length_c 18.163846
_cell_angle_alpha 90.000000
_cell_angle_beta 90.000000
_cell_angle_gamma 90.000000
_cell_volume 1880.560635
_symmetry_space_group_name_H-M "P N M A"
_symmetry_group_IT_number 62
_symmetry_cell_setting 'orthorhombic'
loop_
_space_group_symop_operation_xyz
x,y,z
1/2-x,-y,1/2+z
1/2+x,1/2-y,1/2-z
-x,1/2+y,-z
-x,-y,-z
1/2+x,y,1/2-z
1/2-x,1/2+y,1/2+z
x,1/2-y,z
loop_
_atom_site_type_symbol
_atom_site_label
_atom_site_fract_x
_atom_site_fract_y
_atom_site_fract_z
Si Si1 0.684785 0.933233 0.853862
Si Si2 0.341668 0.250000 0.054507
Si Si3 0.955421 0.750000 0.062115
Si Si4 0.187075 0.384111 0.826434
Si Si5 0.786414 0.250000 0.080054
Si Si6 0.745428 0.413839 0.186294
Si Si7 0.624833 0.144748 0.845495
O O1 0.725297 0.847587 0.908626
O O2 0.463628 0.927172 0.840870
O O3 0.765372 0.903443 0.774165
O O4 0.707508 0.043898 0.872883
O O5 0.566441 0.250000 0.058894
O O6 0.248288 0.250000 0.975545
O O7 0.952825 0.835245 0.118347
O O8 0.093708 0.750000 0.993675
O O9 0.144469 0.492278 0.826869
O O10 0.400290 0.366067 0.849729
O O11 0.169663 0.353894 0.741815
O O12 0.826045 0.335380 0.134411
O O13 0.670847 0.250000 0.874015
#
# Coordination Sequence:
#
# PCOD9461531 Si02
#       7
#     8   4   4   8   4   8   8
#     4   9  19  33  61  89 116 157 196 266 310 345
#     4  10  23  43  56  91 131 158 215 242 303 384
#     4  12  24  40  64  84 128 176 198 240 316 372
#     4  10  21  38  60  92 118 157 201 257 308 369
#     4  10  23  41  58  87 123 168 205 250 297 370
#     4   9  19  36  61  87 120 149 209 260 304 355
#     4  10  17  36  62  88 118 144 207 261 304 353
#
# _framework density 23.397279999999999
#
# number of rings (size 3 to 8) (size 9 to 14) (size 15 to 20)
#    0.000    2.182    1.818    0.545    2.545    0.727 
#    3.273    8.182    0.000    0.000    0.000    0.000 
#    0.000    0.000    0.000    0.000    0.000    0.000 
#
# Total GULP energy -245639.572309 kJ/mol
# GULP energy per Si atom -5582.717552 kJ/mol
# Density = 2.334403 g / cm^3
# Si number density = 23.397280 Si / 1000 Ang^3
#
#
#
# Elastic Constant Matrix: (Units=GPa)
#
#
# Indices 1 2 3 4 5 6 
#
# 1 62.8302 12.2744 3.0669 0.0000 0.0000 0.0000
# 2 12.2744 163.3268 59.3926 0.0000 0.0000 0.0000
# 3 3.0669 59.3926 64.8539 0.0000 0.0000 0.0000
# 4 0.0000 0.0000 0.0000 -20.5479 0.0000 0.0000
# 5 0.0000 0.0000 0.0000 0.0000 32.6481 0.0000
# 6 0.0000 0.0000 0.0000 0.0000 0.0000 24.4437
#
#
#
# Elastic Compliance Matrix: (Units=1/GPa)
#
#
# Indices 1 2 3 4 5 6 
#
# 1 0.016165 -0.001405 0.000522 0.000000 0.000000 0.000000
# 2 -0.001405 0.009302 -0.008452 0.000000 0.000000 0.000000
# 3 0.000522 -0.008452 0.023135 0.000000 0.000000 0.000000
# 4 0.000000 0.000000 0.000000 -0.048667 0.000000 0.000000
# 5 0.000000 0.000000 0.000000 0.000000 0.030630 0.000000
# 6 0.000000 0.000000 0.000000 0.000000 0.000000 0.040910
#
#
# Mechanical properties :
#
#
# Convention : Reuss Voigt Hill
#
# Bulk Modulus (GPa) = 33.40910 48.94210 41.17560
# Shear Modulus (GPa) = 49.93932 21.72726 35.83329
#
# Velocity S-wave (km/s) = 4.62498 3.05064 3.91770
# Velocity P-wave (km/s) = 6.54451 5.77683 6.17262
#
# Compressibility (1/GPa) = 0.02993197
#
# Stress axis : x y z
#
# Youngs Moduli (GPa) = 61.86268 107.50633 43.22477
#
# Poissons Ratio (x) = 0.15100 -0.02256
# Poissons Ratio (y) = 0.08689 0.36534
# Poissons Ratio (z) = -0.03229 0.90865
#
# Static dielectric constant tensor:
#      x y z
#    x 1.944910 0.000000 0.000000 
#    y 0.000000 1.943880 0.000000 
#    z 0.000000 0.000000 1.814960 
# 
# From -- ./inp_files/22154.got.cif
#   From: 2010.05.17/outbox.cif.g08.bks.cpg/sg62_12_cif.got.tgz:22154.got - 2010.06.03 15:25:27.
