data_PCOD9461121
_publ_section_title
;
Structure prediction by ZEFSAII (Michael W. Deem and Ramdas Pophale) SiO2 
 PCOD9461121
Probable space group: P B C A
;
_chemical_formula_sum "Si O2"
_cell_formula_units_Z 44
_cell_length_a 17.552591
_cell_length_b 8.782858
_cell_length_c 10.324553
_cell_angle_alpha 90.000000
_cell_angle_beta 90.000000
_cell_angle_gamma 90.000000
_cell_volume 1591.652855
_symmetry_space_group_name_H-M "P B C A"
_symmetry_group_IT_number 61
_symmetry_cell_setting 'orthorhombic'
loop_
_space_group_symop_operation_xyz
x,y,z
1/2-x,-y,1/2+z
1/2+x,1/2-y,-z
-x,1/2+y,1/2-z
-x,-y,-z
1/2+x,y,1/2-z
1/2-x,1/2+y,z
x,1/2-y,1/2+z
loop_
_atom_site_type_symbol
_atom_site_label
_atom_site_fract_x
_atom_site_fract_y
_atom_site_fract_z
Si Si1 0.372234 0.177402 0.411808
Si Si2 0.004739 0.287998 0.800103
Si Si3 0.653748 0.280344 0.370895
Si Si4 0.500000 0.000000 0.500000
Si Si5 0.106378 0.995499 0.417064
Si Si6 0.747105 0.043160 0.251009
O O1 0.431291 0.198978 0.291138
O O2 0.385810 0.334961 0.489154
O O3 0.289348 0.142008 0.359186
O O4 0.408632 0.035199 0.484736
O O5 0.076078 0.270694 0.699827
O O6 0.005501 0.147315 0.897946
O O7 0.024246 0.453157 0.863894
O O8 0.631981 0.357018 0.504611
O O9 0.717654 0.150138 0.366665
O O10 0.693257 0.417038 0.291843
O O11 0.169575 0.974657 0.306000
#
# Coordination Sequence:
#
# PCOD9461121 Si02
#       6
#     8   8   8   4   8   8
#     4  12  26  47  72 109 149 197 243 312 375 451
#     4  11  26  48  70 110 148 190 249 309 376 453
#     4  11  25  47  72 104 145 191 246 306 364 451
#     4  12  26  42  76 102 144 190 244 302 378 450
#     4  11  27  47  74 104 149 199 246 306 383 441
#     4  11  25  48  70 106 147 188 252 302 369 448
#
# _framework density 27.644221000000002
#
# number of rings (size 3 to 8) (size 9 to 14) (size 15 to 20)
#    0.000    0.727    3.636    2.182    5.091    2.909 
#    6.545    0.000    0.000    0.000    0.000    0.000 
#    0.000    0.000    0.000    0.000    0.000    0.000 
#
# Total GULP energy -245757.355280 kJ/mol
# GULP energy per Si atom -5585.394438 kJ/mol
# Density = 2.758130 g / cm^3
# Si number density = 27.644221 Si / 1000 Ang^3
#
#
#
# Elastic Constant Matrix: (Units=GPa)
#
#
# Indices 1 2 3 4 5 6 
#
# 1 132.7392 34.0272 20.5661 0.0000 0.0000 0.0000
# 2 34.0272 72.1689 3.6033 0.0000 0.0000 0.0000
# 3 20.5661 3.6033 38.6780 0.0000 0.0000 0.0000
# 4 0.0000 0.0000 0.0000 47.4432 0.0000 0.0000
# 5 0.0000 0.0000 0.0000 0.0000 54.5165 0.0000
# 6 0.0000 0.0000 0.0000 0.0000 0.0000 -6.4140
#
#
#
# Elastic Compliance Matrix: (Units=1/GPa)
#
#
# Indices 1 2 3 4 5 6 
#
# 1 0.009307 -0.004160 -0.004561 0.000000 0.000000 0.000000
# 2 -0.004160 0.015781 0.000742 0.000000 0.000000 0.000000
# 3 -0.004561 0.000742 0.028211 0.000000 0.000000 0.000000
# 4 0.000000 0.000000 0.000000 0.021078 0.000000 0.000000
# 5 0.000000 0.000000 0.000000 0.000000 0.018343 0.000000
# 6 0.000000 0.000000 0.000000 0.000000 0.000000 -0.155910
#
#
# Mechanical properties :
#
#
# Convention : Reuss Voigt Hill
#
# Bulk Modulus (GPa) = 26.78133 39.99770 33.38952
# Shear Modulus (GPa) = -143.73928 31.46846 -56.13541
#
# Velocity S-wave (km/s) = -7.21866 3.37759 -4.51115
# Velocity P-wave (km/s) = 7.73109 5.45077 3.87678
#
# Compressibility (1/GPa) = 0.03733945
#
# Stress axis : x y z
#
# Youngs Moduli (GPa) = 107.44920 63.36772 35.44765
#
# Poissons Ratio (x) = 0.26363 0.16168
# Poissons Ratio (y) = 0.44702 -0.02630
# Poissons Ratio (z) = 0.49008 -0.04702
#
# Static dielectric constant tensor:
#      x y z
#    x 2.031970 0.000000 0.000000 
#    y 0.000000 2.461090 0.000000 
#    z 0.000000 0.000000 2.289460 
# 
# From -- ./inp_files/8088.got.cif
#   From: 2010.05.17/outbox.cif.g08.bks.cpg/sg61_5_cif.got.tgz:8088.got - 2010.06.03 15:17:17.
