data_PCOD9461546
_publ_section_title
;
Structure prediction by ZEFSAII (Michael W. Deem and Ramdas Pophale) SiO2 
 PCOD9461546
Probable space group: P N M A
;
_chemical_formula_sum "Si O2"
_cell_formula_units_Z 56
_cell_length_a 18.250987
_cell_length_b 8.912796
_cell_length_c 22.447323
_cell_angle_alpha 90.000000
_cell_angle_beta 90.000000
_cell_angle_gamma 90.000000
_cell_volume 3651.445962
_symmetry_space_group_name_H-M "P N M A"
_symmetry_group_IT_number 62
_symmetry_cell_setting 'orthorhombic'
loop_
_space_group_symop_operation_xyz
x,y,z
1/2-x,-y,1/2+z
1/2+x,1/2-y,1/2-z
-x,1/2+y,-z
-x,-y,-z
1/2+x,y,1/2-z
1/2-x,1/2+y,1/2+z
x,1/2-y,z
loop_
_atom_site_type_symbol
_atom_site_label
_atom_site_fract_x
_atom_site_fract_y
_atom_site_fract_z
Si Si1 0.935616 0.074006 0.713528
Si Si2 0.760086 0.073171 0.316618
Si Si3 0.884269 0.073027 0.850888
Si Si4 0.622473 0.427227 0.648929
Si Si5 0.223002 0.927493 0.308121
Si Si6 0.495105 0.428486 0.434955
Si Si7 0.914541 0.071580 0.276880
O O1 0.953806 0.250000 0.707720
O O2 0.912829 0.048317 0.782917
O O3 0.861466 0.043122 0.676252
O O4 0.006469 0.976883 0.699382
O O5 0.750504 0.250000 0.326763
O O6 0.846219 0.034350 0.320230
O O7 0.699616 0.982601 0.353420
O O8 0.741788 0.031287 0.248071
O O9 0.888938 0.250000 0.862602
O O10 0.936607 0.984217 0.895224
O O11 0.606219 0.250000 0.645334
O O12 0.710511 0.447932 0.646115
O O13 0.577067 0.513529 0.599313
O O14 0.597779 0.486253 0.714089
O O15 0.225742 0.750000 0.289251
O O16 0.500000 0.500000 0.500000
O O17 0.494800 0.250000 0.438722
O O18 0.911884 0.250000 0.265729
#
# Coordination Sequence:
#
# PCOD9461546 Si02
#       7
#     8   8   8   8   8   8   8
#     4   9  16  26  42  63  89 119 151 183 219 266
#     4   9  17  27  40  61  87 116 150 184 220 264
#     4  10  19  32  47  63  85 116 151 187 228 269
#     4  10  18  31  47  62  85 117 151 189 229 267
#     4   8  16  28  42  60  84 116 151 183 219 266
#     4  12  24  36  50  67  88 116 153 193 230 269
#     4  10  18  26  40  64  92 122 153 184 220 264
#
# _framework density 15.336391000000001
#
# number of rings (size 3 to 8) (size 9 to 14) (size 15 to 20)
#    0.000    2.286    1.429    3.857    0.000    4.571 
#    0.000    0.000    0.000    0.000    0.000    0.000 
#    0.000    1.143    0.000    3.429    0.000    5.286 
#
# Total GULP energy -311982.307838 kJ/mol
# GULP energy per Si atom -5571.112640 kJ/mol
# Density = 1.530148 g / cm^3
# Si number density = 15.336391 Si / 1000 Ang^3
#
#
#
# Elastic Constant Matrix: (Units=GPa)
#
#
# Indices 1 2 3 4 5 6 
#
# 1 134.5163 61.5189 28.3869 0.0000 0.0000 0.0000
# 2 61.5189 86.9461 30.7534 0.0000 0.0000 0.0000
# 3 28.3869 30.7534 36.9169 0.0000 0.0000 0.0000
# 4 0.0000 0.0000 0.0000 16.8100 0.0000 0.0000
# 5 0.0000 0.0000 0.0000 0.0000 8.0076 0.0000
# 6 0.0000 0.0000 0.0000 0.0000 0.0000 26.1798
#
#
#
# Elastic Compliance Matrix: (Units=1/GPa)
#
#
# Indices 1 2 3 4 5 6 
#
# 1 0.011198 -0.006915 -0.002850 0.000000 0.000000 0.000000
# 2 -0.006915 0.020576 -0.011824 0.000000 0.000000 0.000000
# 3 -0.002850 -0.011824 0.039129 0.000000 0.000000 0.000000
# 4 0.000000 0.000000 0.000000 0.059488 0.000000 0.000000
# 5 0.000000 0.000000 0.000000 0.000000 0.124881 0.000000
# 6 0.000000 0.000000 0.000000 0.000000 0.000000 0.038197
#
#
# Mechanical properties :
#
#
# Convention : Reuss Voigt Hill
#
# Bulk Modulus (GPa) = 36.06761 55.52196 45.79478
# Shear Modulus (GPa) = 14.45550 19.38083 16.91816
#
# Velocity S-wave (km/s) = 3.07345 3.55873 3.32496
# Velocity P-wave (km/s) = 6.01361 7.29160 6.68322
#
# Compressibility (1/GPa) = 0.02772571
#
# Stress axis : x y z
#
# Youngs Moduli (GPa) = 89.30183 48.59967 25.55654
#
# Poissons Ratio (x) = 0.33607 0.07284
# Poissons Ratio (y) = 0.61753 0.30217
# Poissons Ratio (z) = 0.25451 0.57463
#
# Static dielectric constant tensor:
#      x y z
#    x 1.568060 0.000000 0.000000 
#    y 0.000000 1.513950 0.000000 
#    z 0.000000 0.000000 1.467410 
# 
# From -- ./inp_files/27537.got.cif
#   From: 2010.05.17/outbox.cif.g08.bks.cpg/sg62_14_cif.got.tgz:27537.got - 2010.06.03 15:25:27.
