data_PCOD9461250
_publ_section_title
;
Structure prediction by ZEFSAII (Michael W. Deem and Ramdas Pophale) SiO2 
 PCOD9461250
Probable space group: P B C A
;
_chemical_formula_sum "Si O2"
_cell_formula_units_Z 56
_cell_length_a 15.000000
_cell_length_b 12.000000
_cell_length_c 15.000000
_cell_angle_alpha 90.000000
_cell_angle_beta 90.000000
_cell_angle_gamma 90.000000
_cell_volume 2700.000000
_symmetry_space_group_name_H-M "P B C A"
_symmetry_group_IT_number 61
_symmetry_cell_setting 'orthorhombic'
loop_
_space_group_symop_operation_xyz
x,y,z
1/2-x,-y,1/2+z
1/2+x,1/2-y,-z
-x,1/2+y,1/2-z
-x,-y,-z
1/2+x,y,1/2-z
1/2-x,1/2+y,z
x,1/2-y,1/2+z
loop_
_atom_site_type_symbol
_atom_site_label
_atom_site_fract_x
_atom_site_fract_y
_atom_site_fract_z
Si Si1 0.854994 0.974514 0.014218
Si Si2 0.514103 0.828993 0.460713
Si Si3 0.434396 0.686163 0.622121
Si Si4 0.180371 0.121585 0.183838
Si Si5 0.547856 0.489712 0.684424
Si Si6 0.115670 0.845221 0.647735
Si Si7 0.655328 0.015687 0.005624
O O1 0.919588 0.887590 0.065826
O O2 0.755394 0.006755 0.044962
O O3 0.834831 0.923497 0.916410
O O4 0.917927 0.080384 0.000201
O O5 0.486617 0.750246 0.543440
O O6 0.567942 0.769063 0.381537
O O7 0.378383 0.766468 0.685823
O O8 0.505112 0.611977 0.676148
O O9 0.361839 0.610991 0.568302
O O10 0.129380 0.035994 0.249330
O O11 0.286307 0.147960 0.193610
O O12 0.460879 0.412558 0.700650
O O13 0.586268 0.465381 0.585454
O O14 0.132056 0.906049 0.551795
#
# Coordination Sequence:
#
# PCOD9461250 Si02
#       7
#     8   8   8   8   8   8   8
#     4   9  21  34  59  87 128 154 204 264 312 374
#     4  10  17  36  61  90 112 167 208 255 306 363
#     4  10  19  38  64  88 122 164 214 255 312 384
#     4  10  23  38  58  94 127 163 200 261 338 368
#     4  11  21  39  63  93 123 161 214 259 309 386
#     4  10  19  38  66  85 124 167 208 259 311 381
#     4  10  18  38  65  92 113 165 215 261 298 384
#
# _framework density 20.740741
#
# number of rings (size 3 to 8) (size 9 to 14) (size 15 to 20)
#    0.000    2.000    2.857    1.714    0.000    1.143 
#    7.714    0.000    6.286    0.000    0.000    0.000 
#    0.000    0.000    0.000    0.000    0.000    0.000 
#
# Total GULP energy -312312.217839 kJ/mol
# GULP energy per Si atom -5577.003890 kJ/mol
# Density = 2.069353 g / cm^3
# Si number density = 20.740741 Si / 1000 Ang^3
#
#
#
# Elastic Constant Matrix: (Units=GPa)
#
#
# Indices 1 2 3 4 5 6 
#
# 1 177.7938 36.5764 17.3707 0.0000 0.0000 0.0000
# 2 36.5764 71.1605 -0.6920 0.0000 0.0000 0.0000
# 3 17.3707 -0.6920 18.1893 0.0000 0.0000 0.0000
# 4 0.0000 0.0000 0.0000 18.8375 0.0000 0.0000
# 5 0.0000 0.0000 0.0000 0.0000 30.2822 0.0000
# 6 0.0000 0.0000 0.0000 0.0000 0.0000 31.0830
#
#
#
# Elastic Compliance Matrix: (Units=1/GPa)
#
#
# Indices 1 2 3 4 5 6 
#
# 1 0.007057 -0.003694 -0.006880 0.000000 0.000000 0.000000
# 2 -0.003694 0.015992 0.004136 0.000000 0.000000 0.000000
# 3 -0.006880 0.004136 0.061705 0.000000 0.000000 0.000000
# 4 0.000000 0.000000 0.000000 0.053086 0.000000 0.000000
# 5 0.000000 0.000000 0.000000 0.000000 0.033023 0.000000
# 6 0.000000 0.000000 0.000000 0.000000 0.000000 0.032172
#
#
# Mechanical properties :
#
#
# Convention : Reuss Voigt Hill
#
# Bulk Modulus (GPa) = 13.91245 41.51708 27.71477
# Shear Modulus (GPa) = 20.84488 30.29979 25.57234
#
# Velocity S-wave (km/s) = 3.17365 3.82630 3.51515
# Velocity P-wave (km/s) = 4.48907 6.29137 5.46503
#
# Compressibility (1/GPa) = 0.07187806
#
# Stress axis : x y z
#
# Youngs Moduli (GPa) = 141.71197 62.53266 16.20625
#
# Poissons Ratio (x) = 0.23099 0.11149
# Poissons Ratio (y) = 0.52348 -0.06703
# Poissons Ratio (z) = 0.97491 -0.25864
#
# Static dielectric constant tensor:
#      x y z
#    x 1.740060 0.000000 0.000000 
#    y 0.000000 1.836570 0.000000 
#    z 0.000000 0.000000 1.724270 
# 
# From -- ./inp_files/7838.got.cif
#   From: 2010.05.17/outbox.ucp.g08.bks.cvg/sg61_4_cif.got.tgz:7838.got - 2010.06.11 16:28:26.
