data_PCOD9461764
_publ_section_title
;
Structure prediction by ZEFSAII (Michael W. Deem and Ramdas Pophale) SiO2 
 PCOD9461764
Probable space group: P N M A
;
_chemical_formula_sum "Si O2"
_cell_formula_units_Z 48
_cell_length_a 24.538838
_cell_length_b 8.571797
_cell_length_c 14.206443
_cell_angle_alpha 90.000000
_cell_angle_beta 90.000000
_cell_angle_gamma 90.000000
_cell_volume 2988.210752
_symmetry_space_group_name_H-M "P N M A"
_symmetry_group_IT_number 62
_symmetry_cell_setting 'orthorhombic'
loop_
_space_group_symop_operation_xyz
x,y,z
1/2-x,-y,1/2+z
1/2+x,1/2-y,1/2-z
-x,1/2+y,-z
-x,-y,-z
1/2+x,y,1/2-z
1/2-x,1/2+y,1/2+z
x,1/2-y,z
loop_
_atom_site_type_symbol
_atom_site_label
_atom_site_fract_x
_atom_site_fract_y
_atom_site_fract_z
Si Si1 0.774311 0.437337 0.393206
Si Si2 0.557569 0.438471 0.609635
Si Si3 0.334078 0.561436 0.284712
Si Si4 0.332798 0.437089 0.707293
Si Si5 0.560972 0.063541 0.390801
Si Si6 0.225513 0.560513 0.394100
O O1 0.774428 0.250000 0.392037
O O2 0.817739 0.498515 0.317402
O O3 0.715211 0.495314 0.358258
O O4 0.784428 0.493161 0.499807
O O5 0.554431 0.250000 0.612408
O O6 0.607831 0.489137 0.674568
O O7 0.499153 0.506782 0.637528
O O8 0.568417 0.483531 0.500681
O O9 0.333649 0.750000 0.281207
O O10 0.285120 0.513685 0.355312
O O11 0.329903 0.250000 0.703469
O O12 0.390992 0.493183 0.671416
O O13 0.317500 0.487106 0.813901
O O14 0.563663 0.250000 0.386388
O O15 0.225310 0.750000 0.396469
#
# Coordination Sequence:
#
# PCOD9461764 Si02
#       6
#     8   8   8   8   8   8
#     4  10  18  30  48  70  94 120 153 192 230 265
#     4   9  18  32  49  68  95 128 153 180 228 283
#     4   9  17  31  48  67  93 124 154 182 223 278
#     4  10  19  32  48  67  93 125 156 184 226 280
#     4  10  19  31  48  71  95 119 153 194 229 265
#     4   8  16  30  47  66  92 124 151 181 226 276
#
# _framework density 16.063123999999998
#
# number of rings (size 3 to 8) (size 9 to 14) (size 15 to 20)
#    0.000    2.667    0.000    3.500    0.000    4.000 
#    0.000   11.667    0.000    1.000    0.000    0.000 
#    0.000    0.000    0.000    0.000    0.000    0.000 
#
# Total GULP energy -267600.998071 kJ/mol
# GULP energy per Si atom -5575.020793 kJ/mol
# Density = 1.602656 g / cm^3
# Si number density = 16.063124 Si / 1000 Ang^3
#
#
#
# Elastic Constant Matrix: (Units=GPa)
#
#
# Indices 1 2 3 4 5 6 
#
# 1 145.6139 31.6016 90.0827 0.0000 0.0000 0.0000
# 2 31.6016 26.0270 25.0202 0.0000 0.0000 0.0000
# 3 90.0827 25.0202 137.3111 0.0000 0.0000 0.0000
# 4 0.0000 0.0000 0.0000 22.2723 0.0000 0.0000
# 5 0.0000 0.0000 0.0000 0.0000 23.3864 0.0000
# 6 0.0000 0.0000 0.0000 0.0000 0.0000 27.4968
#
#
#
# Elastic Compliance Matrix: (Units=1/GPa)
#
#
# Indices 1 2 3 4 5 6 
#
# 1 0.013198 -0.009336 -0.006957 0.000000 0.000000 0.000000
# 2 -0.009336 0.053186 -0.003566 0.000000 0.000000 0.000000
# 3 -0.006957 -0.003566 0.012497 0.000000 0.000000 0.000000
# 4 0.000000 0.000000 0.000000 0.044899 0.000000 0.000000
# 5 0.000000 0.000000 0.000000 0.000000 0.042760 0.000000
# 6 0.000000 0.000000 0.000000 0.000000 0.000000 0.036368
#
#
# Mechanical properties :
#
#
# Convention : Reuss Voigt Hill
#
# Bulk Modulus (GPa) = 25.53560 66.92898 46.23229
# Shear Modulus (GPa) = 19.55573 25.44761 22.50167
#
# Velocity S-wave (km/s) = 3.49295 3.98455 3.74682
# Velocity P-wave (km/s) = 5.67443 7.93256 6.89655
#
# Compressibility (1/GPa) = 0.03916102
#
# Stress axis : x y z
#
# Youngs Moduli (GPa) = 75.77140 18.80198 80.02122
#
# Poissons Ratio (x) = 0.17554 0.55671
# Poissons Ratio (y) = 0.70743 0.28537
# Poissons Ratio (z) = 0.52714 0.06705
#
# Static dielectric constant tensor:
#      x y z
#    x 1.514490 0.000000 0.000000 
#    y 0.000000 1.548540 0.000000 
#    z 0.000000 0.000000 1.539840 
# 
# From -- ./inp_files/20026.got.cif
#   From: 2010.05.17/outbox.cif.g08.bks.cpg/sg62_11_cif.got.tgz:20026.got - 2010.06.03 15:25:27.
