data_PCOD9461655
_publ_section_title
;
Structure prediction by ZEFSAII (Michael W. Deem and Ramdas Pophale) SiO2 
 PCOD9461655
Probable space group: P N M A
;
_chemical_formula_sum "Si O2"
_cell_formula_units_Z 64
_cell_length_a 34.504667
_cell_length_b 8.817413
_cell_length_c 12.139536
_cell_angle_alpha 90.000000
_cell_angle_beta 90.000000
_cell_angle_gamma 90.000000
_cell_volume 3693.355490
_symmetry_space_group_name_H-M "P N M A"
_symmetry_group_IT_number 62
_symmetry_cell_setting 'orthorhombic'
loop_
_space_group_symop_operation_xyz
x,y,z
1/2-x,-y,1/2+z
1/2+x,1/2-y,1/2-z
-x,1/2+y,-z
-x,-y,-z
1/2+x,y,1/2-z
1/2-x,1/2+y,1/2+z
x,1/2-y,z
loop_
_atom_site_type_symbol
_atom_site_label
_atom_site_fract_x
_atom_site_fract_y
_atom_site_fract_z
Si Si1 0.033354 0.069421 0.854837
Si Si2 0.178544 0.932230 0.614095
Si Si3 0.046864 0.067595 0.109448
Si Si4 0.132841 0.432117 0.173460
Si Si5 0.608491 0.569701 0.732112
Si Si6 0.170065 0.930826 0.959626
Si Si7 0.767524 0.568810 0.197708
Si Si8 0.813001 0.931278 0.627425
O O1 0.031205 0.250000 0.852429
O O2 0.067644 0.012663 0.776808
O O3 0.044706 0.022063 0.980329
O O4 0.991040 0.000950 0.833405
O O5 0.182627 0.750000 0.618088
O O6 0.136627 0.971345 0.666803
O O7 0.210454 0.005029 0.694922
O O8 0.182569 0.993215 0.491475
O O9 0.044431 0.250000 0.114016
O O10 0.088136 0.020516 0.158877
O O11 0.134680 0.250000 0.155182
O O12 0.150843 0.463945 0.292461
O O13 0.158327 0.511633 0.079383
O O14 0.601944 0.750000 0.734585
O O15 0.634183 0.536009 0.623123
O O16 0.176754 0.750000 0.958125
O O17 0.206812 0.014686 0.906786
O O18 0.765646 0.750000 0.201596
O O19 0.725322 0.497177 0.184876
O O20 0.809275 0.750000 0.615678
#
# Coordination Sequence:
#
# PCOD9461655 Si02
#       8
#     8   8   8   8   8   8   8   8
#     4  10  18  28  50  81 111 145 182 223 272 329
#     4  10  22  41  60  82 111 144 187 233 280 332
#     4   9  18  32  49  75 114 149 180 222 274 331
#     4  10  21  37  56  80 112 151 187 226 279 338
#     4   9  18  33  54  79 108 143 178 223 275 328
#     4  10  20  34  55  82 112 143 183 228 276 331
#     4  11  23  39  60  82 110 146 184 231 281 328
#     4  11  24  40  59  82 110 146 189 232 280 334
#
# _framework density 17.328416000000001
#
# number of rings (size 3 to 8) (size 9 to 14) (size 15 to 20)
#    0.000    2.000    1.250    3.375    1.750    4.500 
#    0.000    0.000    0.000    0.750    0.000    0.000 
#    0.000    0.000    0.000    0.000    0.000    0.000 
#
# Total GULP energy -357335.010156 kJ/mol
# GULP energy per Si atom -5583.359534 kJ/mol
# Density = 1.728898 g / cm^3
# Si number density = 17.328416 Si / 1000 Ang^3
#
#
#
# Elastic Constant Matrix: (Units=GPa)
#
#
# Indices 1 2 3 4 5 6 
#
# 1 123.7608 39.2343 51.2200 0.0000 0.0000 0.0000
# 2 39.2343 46.4665 35.5196 0.0000 0.0000 0.0000
# 3 51.2200 35.5196 92.0579 0.0000 0.0000 0.0000
# 4 0.0000 0.0000 0.0000 23.0081 0.0000 0.0000
# 5 0.0000 0.0000 0.0000 0.0000 17.6907 0.0000
# 6 0.0000 0.0000 0.0000 0.0000 0.0000 27.3512
#
#
#
# Elastic Compliance Matrix: (Units=1/GPa)
#
#
# Indices 1 2 3 4 5 6 
#
# 1 0.011949 -0.007102 -0.003908 0.000000 0.000000 0.000000
# 2 -0.007102 0.034744 -0.009454 0.000000 0.000000 0.000000
# 3 -0.003908 -0.009454 0.016685 0.000000 0.000000 0.000000
# 4 0.000000 0.000000 0.000000 0.043463 0.000000 0.000000
# 5 0.000000 0.000000 0.000000 0.000000 0.056527 0.000000
# 6 0.000000 0.000000 0.000000 0.000000 0.000000 0.036561
#
#
# Mechanical properties :
#
#
# Convention : Reuss Voigt Hill
#
# Bulk Modulus (GPa) = 44.54388 57.13699 50.84044
# Shear Modulus (GPa) = 20.13359 22.69744 21.41551
#
# Velocity S-wave (km/s) = 3.41234 3.62310 3.51930
# Velocity P-wave (km/s) = 6.42549 7.10964 6.77621
#
# Compressibility (1/GPa) = 0.02244977
#
# Stress axis : x y z
#
# Youngs Moduli (GPa) = 83.68987 28.78168 59.93390
#
# Poissons Ratio (x) = 0.20440 0.23423
# Poissons Ratio (y) = 0.59434 0.56664
# Poissons Ratio (z) = 0.32707 0.27211
#
# Static dielectric constant tensor:
#      x y z
#    x 1.587110 0.000000 0.000000 
#    y 0.000000 1.575080 0.000000 
#    z 0.000000 0.000000 1.567760 
# 
# From -- ./inp_files/15751.got.cif
#   From: 2010.05.17/outbox.cif.g08.bks.cpg/sg62_8_cif.got.tgz:15751.got - 2010.06.03 15:25:27.
