data_PCOD9461481
_publ_section_title
;
Structure prediction by ZEFSAII (Michael W. Deem and Ramdas Pophale) SiO2 
 PCOD9461481
Probable space group: P N M A
;
_chemical_formula_sum "Si O2"
_cell_formula_units_Z 60
_cell_length_a 5.500520
_cell_length_b 26.838688
_cell_length_c 18.089730
_cell_angle_alpha 90.000000
_cell_angle_beta 90.000000
_cell_angle_gamma 90.000000
_cell_volume 2670.527870
_symmetry_space_group_name_H-M "P N M A"
_symmetry_group_IT_number 62
_symmetry_cell_setting 'orthorhombic'
loop_
_space_group_symop_operation_xyz
x,y,z
1/2-x,-y,1/2+z
1/2+x,1/2-y,1/2-z
-x,1/2+y,-z
-x,-y,-z
1/2+x,y,1/2-z
1/2-x,1/2+y,1/2+z
x,1/2-y,z
loop_
_atom_site_type_symbol
_atom_site_label
_atom_site_fract_x
_atom_site_fract_y
_atom_site_fract_z
Si Si1 0.738704 0.117106 0.273961
Si Si2 0.361844 0.838584 0.588672
Si Si3 0.233135 0.858119 0.254227
Si Si4 0.863009 0.809875 0.510268
Si Si5 0.251169 0.891970 0.091725
Si Si6 0.270665 0.006245 0.286475
Si Si7 0.117460 0.250000 0.205844
Si Si8 0.748945 0.570671 0.100441
O O1 0.503120 0.141479 0.236049
O O2 0.682764 0.112340 0.361174
O O3 0.766744 0.065090 0.229628
O O4 0.634022 0.831387 0.557557
O O5 0.342154 0.796535 0.651751
O O6 0.131687 0.828142 0.535586
O O7 0.483379 0.828782 0.250842
O O8 0.234032 0.892679 0.180697
O O9 0.233931 0.891949 0.327908
O O10 0.855462 0.750000 0.511717
O O11 0.805996 0.835305 0.431735
O O12 0.485098 0.922846 0.064605
O O13 0.993748 0.911248 0.060527
O O14 0.513834 0.987827 0.245908
O O15 0.283581 0.984776 0.368537
O O16 0.339847 0.250000 0.264340
#
# Coordination Sequence:
#
# PCOD9461481 Si02
#       8
#     8   8   8   8   8   8   4   8
#     4  10  21  37  58  91 122 150 189 236 315 374
#     4  12  23  41  60  85 122 161 204 247 300 365
#     4   8  14  25  45  73 103 130 174 235 293 338
#     4  12  24  42  59  82 117 168 218 248 286 348
#     4  10  20  32  54  82 114 153 201 246 289 354
#     4  10  18  30  54  90 121 146 179 233 305 373
#     4  12  22  36  62  90 116 148 190 258 306 350
#     4  10  17  31  54  88 115 142 192 252 307 357
#
# _framework density 22.467466999999999
#
# number of rings (size 3 to 8) (size 9 to 14) (size 15 to 20)
#    0.000    1.600    1.333    6.400    0.000    0.000 
#    0.000    0.000    0.000    7.200    0.000   98.933 
#    0.000    0.000    0.000    0.000    0.000    0.000 
#
# Total GULP energy -334194.497185 kJ/mol
# GULP energy per Si atom -5569.908286 kJ/mol
# Density = 2.241633 g / cm^3
# Si number density = 22.467467 Si / 1000 Ang^3
#
#
#
# Elastic Constant Matrix: (Units=GPa)
#
#
# Indices 1 2 3 4 5 6 
#
# 1 223.6987 0.5047 -2.8596 0.0000 0.0000 0.0000
# 2 0.5047 35.2740 8.8109 0.0000 0.0000 0.0000
# 3 -2.8596 8.8109 16.9681 0.0000 0.0000 0.0000
# 4 0.0000 0.0000 0.0000 53.0509 0.0000 0.0000
# 5 0.0000 0.0000 0.0000 0.0000 19.7703 0.0000
# 6 0.0000 0.0000 0.0000 0.0000 0.0000 18.0185
#
#
#
# Elastic Compliance Matrix: (Units=1/GPa)
#
#
# Indices 1 2 3 4 5 6 
#
# 1 0.004483 -0.000291 0.000906 0.000000 0.000000 0.000000
# 2 -0.000291 0.032593 -0.016973 0.000000 0.000000 0.000000
# 3 0.000906 -0.016973 0.067900 0.000000 0.000000 0.000000
# 4 0.000000 0.000000 0.000000 0.018850 0.000000 0.000000
# 5 0.000000 0.000000 0.000000 0.000000 0.050581 0.000000
# 6 0.000000 0.000000 0.000000 0.000000 0.000000 0.055499
#
#
# Mechanical properties :
#
#
# Convention : Reuss Voigt Hill
#
# Bulk Modulus (GPa) = 13.83872 32.09475 22.96673
# Shear Modulus (GPa) = 17.43935 36.13360 26.78648
#
# Velocity S-wave (km/s) = 2.78907 4.01467 3.45662
# Velocity P-wave (km/s) = 4.06752 5.98382 5.11619
#
# Compressibility (1/GPa) = 0.07226102
#
# Stress axis : x y z
#
# Youngs Moduli (GPa) = 223.08779 30.68112 14.72743
#
# Poissons Ratio (x) = 0.00891 -0.01335
# Poissons Ratio (y) = 0.06481 0.24998
# Poissons Ratio (z) = -0.20218 0.52076
#
# Static dielectric constant tensor:
#      x y z
#    x 1.940500 0.000000 0.000000 
#    y 0.000000 1.929030 0.000000 
#    z 0.000000 0.000000 1.872590 
# 
# From -- ./inp_files/21655.got.cif
#   From: 2010.05.17/outbox.cif.g08.bks.cpg/sg62_11_cif.got.tgz:21655.got - 2010.06.03 15:25:27.
