data_PCOD9461796
_publ_section_title
;
Structure prediction by ZEFSAII (Michael W. Deem and Ramdas Pophale) SiO2 
 PCOD9461796
Probable space group: P N M A
;
_chemical_formula_sum "Si O2"
_cell_formula_units_Z 64
_cell_length_a 13.858915
_cell_length_b 18.032835
_cell_length_c 14.827835
_cell_angle_alpha 90.000000
_cell_angle_beta 90.000000
_cell_angle_gamma 90.000000
_cell_volume 3705.706205
_symmetry_space_group_name_H-M "P N M A"
_symmetry_group_IT_number 62
_symmetry_cell_setting 'orthorhombic'
loop_
_space_group_symop_operation_xyz
x,y,z
1/2-x,-y,1/2+z
1/2+x,1/2-y,1/2-z
-x,1/2+y,-z
-x,-y,-z
1/2+x,y,1/2-z
1/2-x,1/2+y,1/2+z
x,1/2-y,z
loop_
_atom_site_type_symbol
_atom_site_label
_atom_site_fract_x
_atom_site_fract_y
_atom_site_fract_z
Si Si1 0.077242 0.665472 0.436234
Si Si2 0.687340 0.996294 0.853959
Si Si3 0.317857 0.977191 0.805551
Si Si4 0.417257 0.124180 0.737831
Si Si5 0.734137 0.063239 0.536412
Si Si6 0.797063 0.832096 0.297089
Si Si7 0.912951 0.834689 0.110996
Si Si8 0.992428 0.565201 0.575670
O O1 0.102264 0.750000 0.447900
O O2 0.041317 0.653927 0.333418
O O3 0.173763 0.617218 0.449389
O O4 0.006494 0.637463 0.514275
O O5 0.750587 0.954992 0.777531
O O6 0.583743 0.956356 0.862269
O O7 0.677544 0.085731 0.837500
O O8 0.743906 0.982927 0.947233
O O9 0.394676 0.932866 0.866500
O O10 0.384702 0.041233 0.761262
O O11 0.241838 0.011112 0.876671
O O12 0.318504 0.165677 0.713628
O O13 0.490660 0.133556 0.656398
O O14 0.637622 0.111743 0.539153
O O15 0.824229 0.750000 0.336981
O O16 0.840078 0.832709 0.196330
O O17 0.926811 0.750000 0.079929
O O18 0.000000 0.500000 0.500000
#
# Coordination Sequence:
#
# PCOD9461796 Si02
#       8
#     8   8   8   8   8   8   8   8
#     4  10  18  30  51  78 103 126 167 220 264 307
#     4  10  20  34  53  76 103 141 174 207 266 316
#     4  10  19  33  52  74 107 135 171 222 252 313
#     4  10  18  30  49  76 107 135 162 204 273 327
#     4  10  19  32  50  72 107 136 172 208 255 312
#     4  10  19  31  47  74 108 133 162 211 270 322
#     4  11  19  28  48  74 104 135 167 211 264 317
#     4  11  19  34  55  76 104 139 174 216 264 306
#
# _framework density 17.270662000000002
#
# number of rings (size 3 to 8) (size 9 to 14) (size 15 to 20)
#    0.000    1.750    7.500    2.250    0.000    0.000 
#    0.000    2.500    0.000    3.750    0.000    0.000 
#    0.000    0.000    0.000    0.000    0.000    0.000 
#
# Total GULP energy -356340.535494 kJ/mol
# GULP energy per Si atom -5567.820867 kJ/mol
# Density = 1.723135 g / cm^3
# Si number density = 17.270662 Si / 1000 Ang^3
#
#
#
# Elastic Constant Matrix: (Units=GPa)
#
#
# Indices 1 2 3 4 5 6 
#
# 1 44.8761 -17.9305 6.7134 0.0000 0.0000 0.0000
# 2 -17.9305 32.2688 11.9483 0.0000 0.0000 0.0000
# 3 6.7134 11.9483 49.6029 0.0000 0.0000 0.0000
# 4 0.0000 0.0000 0.0000 19.5077 0.0000 0.0000
# 5 0.0000 0.0000 0.0000 0.0000 38.5385 0.0000
# 6 0.0000 0.0000 0.0000 0.0000 0.0000 3.3694
#
#
#
# Elastic Compliance Matrix: (Units=1/GPa)
#
#
# Indices 1 2 3 4 5 6 
#
# 1 0.032293 0.021478 -0.009544 0.000000 0.000000 0.000000
# 2 0.021478 0.048309 -0.014544 0.000000 0.000000 0.000000
# 3 -0.009544 -0.014544 0.024955 0.000000 0.000000 0.000000
# 4 0.000000 0.000000 0.000000 0.051262 0.000000 0.000000
# 5 0.000000 0.000000 0.000000 0.000000 0.025948 0.000000
# 6 0.000000 0.000000 0.000000 0.000000 0.000000 0.296785
#
#
# Mechanical properties :
#
#
# Convention : Reuss Voigt Hill
#
# Bulk Modulus (GPa) = 9.96632 14.24554 12.10593
# Shear Modulus (GPa) = 9.64846 20.68425 15.16635
#
# Velocity S-wave (km/s) = 2.36617 3.46447 2.96659
# Velocity P-wave (km/s) = 3.63981 4.92643 4.33116
#
# Compressibility (1/GPa) = 0.10033794
#
# Stress axis : x y z
#
# Youngs Moduli (GPa) = 30.96642 20.69993 40.07198
#
# Poissons Ratio (x) = -0.44459 0.38246
# Poissons Ratio (y) = -0.66510 0.58279
# Poissons Ratio (z) = 0.29555 0.30105
#
# Static dielectric constant tensor:
#      x y z
#    x 1.649250 0.000000 0.000000 
#    y 0.000000 1.628640 0.000000 
#    z 0.000000 0.000000 1.602670 
# 
# From -- ./inp_files/19242.got.cif
#   From: 2010.05.17/outbox.cif.g08.bks.cpg/sg62_10_cif.got.tgz:19242.got - 2010.06.03 15:25:27.
