data_PCOD9461570
_publ_section_title
;
Structure prediction by ZEFSAII (Michael W. Deem and Ramdas Pophale) SiO2 
 PCOD9461570
Probable space group: P N M A
;
_chemical_formula_sum "Si O2"
_cell_formula_units_Z 64
_cell_length_a 27.113040
_cell_length_b 9.071520
_cell_length_c 18.818391
_cell_angle_alpha 90.000000
_cell_angle_beta 90.000000
_cell_angle_gamma 90.000000
_cell_volume 4628.505297
_symmetry_space_group_name_H-M "P N M A"
_symmetry_group_IT_number 62
_symmetry_cell_setting 'orthorhombic'
loop_
_space_group_symop_operation_xyz
x,y,z
1/2-x,-y,1/2+z
1/2+x,1/2-y,1/2-z
-x,1/2+y,-z
-x,-y,-z
1/2+x,y,1/2-z
1/2-x,1/2+y,1/2+z
x,1/2-y,z
loop_
_atom_site_type_symbol
_atom_site_label
_atom_site_fract_x
_atom_site_fract_y
_atom_site_fract_z
Si Si1 0.441903 0.425774 0.424334
Si Si2 0.244420 0.074451 0.924948
Si Si3 0.857158 0.576108 0.160757
Si Si4 0.737090 0.575548 0.422955
Si Si5 0.296330 0.575533 0.801099
Si Si6 0.055384 0.073339 0.075194
Si Si7 0.209607 0.423886 0.715584
Si Si8 0.648764 0.427275 0.334318
O O1 0.438592 0.250000 0.429037
O O2 0.403138 0.485916 0.367725
O O3 0.498809 0.466167 0.407475
O O4 0.430624 0.495910 0.501278
O O5 0.248735 0.250000 0.929564
O O6 0.191689 0.042214 0.886559
O O7 0.287099 0.009735 0.874182
O O8 0.244685 0.002686 0.002231
O O9 0.867240 0.750000 0.152188
O O10 0.841029 0.549032 0.242486
O O11 0.729938 0.750000 0.433164
O O12 0.782894 0.555139 0.368141
O O13 0.689500 0.508271 0.382729
O O14 0.296460 0.750000 0.814190
O O15 0.249559 0.528073 0.753011
O O16 0.341498 0.536562 0.748506
O O17 0.057190 0.250000 0.064217
O O18 0.094976 0.036063 0.135558
O O19 0.222125 0.250000 0.730399
O O20 0.656174 0.250000 0.341411
#
# Coordination Sequence:
#
# PCOD9461570 Si02
#       8
#     8   8   8   8   8   8   8   8
#     4  10  19  28  40  59  79 101 134 171 197 221
#     4  10  19  29  40  56  81 110 134 158 196 239
#     4   9  17  29  42  54  75 108 136 157 191 236
#     4  10  18  27  41  61  82 103 133 168 194 226
#     4   9  16  26  41  59  76  98 132 167 193 226
#     4   9  18  31  42  54  78 108 133 161 199 236
#     4   8  16  29  41  55  78 106 130 157 197 237
#     4   9  17  29  43  57  77 107 136 161 197 240
#
# _framework density 13.827358
#
# number of rings (size 3 to 8) (size 9 to 14) (size 15 to 20)
#    0.000    2.750    0.000    3.000    0.000    7.500 
#    0.000    0.000    0.000    0.000    0.000    0.000 
#    0.000    1.000    0.000    2.000    0.000    2.750 
#
# Total GULP energy -356308.746366 kJ/mol
# GULP energy per Si atom -5567.324162 kJ/mol
# Density = 1.379589 g / cm^3
# Si number density = 13.827358 Si / 1000 Ang^3
#
#
#
# Elastic Constant Matrix: (Units=GPa)
#
#
# Indices 1 2 3 4 5 6 
#
# 1 61.2438 26.6933 37.8905 0.0000 0.0000 0.0000
# 2 26.6933 33.7441 37.9155 0.0000 0.0000 0.0000
# 3 37.8905 37.9155 90.9603 0.0000 0.0000 0.0000
# 4 0.0000 0.0000 0.0000 22.9441 0.0000 0.0000
# 5 0.0000 0.0000 0.0000 0.0000 24.2905 0.0000
# 6 0.0000 0.0000 0.0000 0.0000 0.0000 18.2301
#
#
#
# Elastic Compliance Matrix: (Units=1/GPa)
#
#
# Indices 1 2 3 4 5 6 
#
# 1 0.025748 -0.015643 -0.004205 0.000000 0.000000 0.000000
# 2 -0.015643 0.065247 -0.020681 0.000000 0.000000 0.000000
# 3 -0.004205 -0.020681 0.021366 0.000000 0.000000 0.000000
# 4 0.000000 0.000000 0.000000 0.043584 0.000000 0.000000
# 5 0.000000 0.000000 0.000000 0.000000 0.041168 0.000000
# 6 0.000000 0.000000 0.000000 0.000000 0.000000 0.054854
#
#
# Mechanical properties :
#
#
# Convention : Reuss Voigt Hill
#
# Bulk Modulus (GPa) = 31.94611 43.43852 37.69232
# Shear Modulus (GPa) = 14.55776 18.65619 16.60697
#
# Velocity S-wave (km/s) = 3.24824 3.67716 3.46934
# Velocity P-wave (km/s) = 6.10097 7.03646 6.58535
#
# Compressibility (1/GPa) = 0.03130271
#
# Stress axis : x y z
#
# Youngs Moduli (GPa) = 38.83826 15.32644 46.80350
#
# Poissons Ratio (x) = 0.23975 0.19681
# Poissons Ratio (y) = 0.60755 0.96794
# Poissons Ratio (z) = 0.16331 0.31696
#
# Static dielectric constant tensor:
#      x y z
#    x 1.449640 0.000000 0.000000 
#    y 0.000000 1.461360 0.000000 
#    z 0.000000 0.000000 1.462860 
# 
# From -- ./inp_files/21246.got.cif
#   From: 2010.05.17/outbox.cif.g08.bks.cpg/sg62_11_cif.got.tgz:21246.got - 2010.06.03 15:25:27.
