data_PCOD9461916
_publ_section_title
;
Structure prediction by ZEFSAII (Michael W. Deem and Ramdas Pophale) SiO2 
 PCOD9461916
Probable space group: P N M A
;
_chemical_formula_sum "Si O2"
_cell_formula_units_Z 56
_cell_length_a 13.251689
_cell_length_b 17.252709
_cell_length_c 9.198798
_cell_angle_alpha 90.000000
_cell_angle_beta 90.000000
_cell_angle_gamma 90.000000
_cell_volume 2103.098503
_symmetry_space_group_name_H-M "P N M A"
_symmetry_group_IT_number 62
_symmetry_cell_setting 'orthorhombic'
loop_
_space_group_symop_operation_xyz
x,y,z
1/2-x,-y,1/2+z
1/2+x,1/2-y,1/2-z
-x,1/2+y,-z
-x,-y,-z
1/2+x,y,1/2-z
1/2-x,1/2+y,1/2+z
x,1/2-y,z
loop_
_atom_site_type_symbol
_atom_site_label
_atom_site_fract_x
_atom_site_fract_y
_atom_site_fract_z
Si Si1 0.888510 0.834555 0.547214
Si Si2 0.488791 0.337880 0.509867
Si Si3 0.878993 0.164884 0.689226
Si Si4 0.765091 0.025126 0.390356
Si Si5 0.386819 0.994958 0.839504
Si Si6 0.348875 0.616891 0.271311
Si Si7 0.326660 0.161206 0.288574
O O1 0.927011 0.750000 0.596278
O O2 0.886154 0.836444 0.371656
O O3 0.772983 0.838985 0.608162
O O4 0.936381 0.913935 0.612721
O O5 0.523425 0.250000 0.474166
O O6 0.409485 0.331038 0.641910
O O7 0.581005 0.380498 0.587697
O O8 0.423858 0.369398 0.376533
O O9 0.903026 0.250000 0.625361
O O10 0.928322 0.082101 0.641550
O O11 0.759311 0.151666 0.686185
O O12 0.789421 0.000498 0.552330
O O13 0.835210 0.968103 0.295298
O O14 0.798856 0.111071 0.350941
O O15 0.654374 0.012185 0.324239
O O16 0.345610 0.250000 0.251104
#
# Coordination Sequence:
#
# PCOD9461916 Si02
#       7
#     8   8   8   8   8   8   8
#     4   9  15  29  50  71  99 136 175 219 261 306
#     4  10  19  30  51  83 106 139 186 224 269 323
#     4  10  19  33  52  79 114 143 178 228 275 320
#     4   9  19  33  51  78 111 142 183 223 277 321
#     4   9  19  32  52  80 107 142 179 228 268 326
#     4  10  18  31  52  79 109 138 177 230 274 319
#     4   9  17  30  50  74 106 141 182 223 265 328
#
# _framework density 26.627379999999999
#
# number of rings (size 3 to 8) (size 9 to 14) (size 15 to 20)
#    0.000    2.571    1.429    1.286    2.000    1.143 
#    0.000    2.857    0.000    0.000    0.000    1.000 
#    0.000    0.000    0.000    0.000    0.000    0.000 
#
# Total GULP energy -312927.218144 kJ/mol
# GULP energy per Si atom -5587.986038 kJ/mol
# Density = 2.656677 g / cm^3
# Si number density = 26.627380 Si / 1000 Ang^3
#
#
#
# Elastic Constant Matrix: (Units=GPa)
#
#
# Indices 1 2 3 4 5 6 
#
# 1 90.0498 10.0573 28.2314 0.0000 0.0000 0.0000
# 2 10.0573 225.4606 27.6265 0.0000 0.0000 0.0000
# 3 28.2314 27.6265 92.3159 0.0000 0.0000 0.0000
# 4 0.0000 0.0000 0.0000 26.4923 0.0000 0.0000
# 5 0.0000 0.0000 0.0000 0.0000 32.0005 0.0000
# 6 0.0000 0.0000 0.0000 0.0000 0.0000 5.6811
#
#
#
# Elastic Compliance Matrix: (Units=1/GPa)
#
#
# Indices 1 2 3 4 5 6 
#
# 1 0.012284 -0.000091 -0.003729 0.000000 0.000000 0.000000
# 2 -0.000091 0.004605 -0.001350 0.000000 0.000000 0.000000
# 3 -0.003729 -0.001350 0.012377 0.000000 0.000000 0.000000
# 4 0.000000 0.000000 0.000000 0.037747 0.000000 0.000000
# 5 0.000000 0.000000 0.000000 0.000000 0.031250 0.000000
# 6 0.000000 0.000000 0.000000 0.000000 0.000000 0.176022
#
#
# Mechanical properties :
#
#
# Convention : Reuss Voigt Hill
#
# Bulk Modulus (GPa) = 52.84076 59.96184 56.40130
# Shear Modulus (GPa) = 17.18603 35.62884 26.40744
#
# Velocity S-wave (km/s) = 2.54328 3.66191 3.15261
# Velocity P-wave (km/s) = 5.33966 6.35981 5.87193
#
# Compressibility (1/GPa) = 0.01892478
#
# Stress axis : x y z
#
# Youngs Moduli (GPa) = 81.40430 217.16126 80.79526
#
# Poissons Ratio (x) = 0.01976 0.30132
# Poissons Ratio (y) = 0.00741 0.10909
# Poissons Ratio (z) = 0.30360 0.29322
#
# Static dielectric constant tensor:
#      x y z
#    x 2.080740 0.000000 0.000000 
#    y 0.000000 2.127860 0.000000 
#    z 0.000000 0.000000 2.023240 
# 
# From -- ./inp_files/14395.got.cif
#   From: 2010.05.17/outbox.cif.g08.bks.cpg/sg62_8_cif.got.tgz:14395.got - 2010.06.03 15:25:27.
