data_PCOD9461598
_publ_section_title
;
Structure prediction by ZEFSAII (Michael W. Deem and Ramdas Pophale) SiO2 
 PCOD9461598
Probable space group: P N M A
;
_chemical_formula_sum "Si O2"
_cell_formula_units_Z 64
_cell_length_a 27.276755
_cell_length_b 8.795002
_cell_length_c 18.918743
_cell_angle_alpha 90.000000
_cell_angle_beta 90.000000
_cell_angle_gamma 90.000000
_cell_volume 4538.589698
_symmetry_space_group_name_H-M "P N M A"
_symmetry_group_IT_number 62
_symmetry_cell_setting 'orthorhombic'
loop_
_space_group_symop_operation_xyz
x,y,z
1/2-x,-y,1/2+z
1/2+x,1/2-y,1/2-z
-x,1/2+y,-z
-x,-y,-z
1/2+x,y,1/2-z
1/2-x,1/2+y,1/2+z
x,1/2-y,z
loop_
_atom_site_type_symbol
_atom_site_label
_atom_site_fract_x
_atom_site_fract_y
_atom_site_fract_z
Si Si1 0.254966 0.568183 0.566770
Si Si2 0.354719 0.066110 0.333474
Si Si3 0.297668 0.430337 0.785508
Si Si4 0.851392 0.568334 0.840224
Si Si5 0.204459 0.566936 0.704586
Si Si6 0.556000 0.568602 0.419140
Si Si7 0.049787 0.933400 0.915282
Si Si8 0.254343 0.431821 0.412303
O O1 0.255400 0.750000 0.554748
O O2 0.305601 0.528426 0.607785
O O3 0.211008 0.532600 0.622027
O O4 0.251063 0.484156 0.492815
O O5 0.356288 0.250000 0.338028
O O6 0.342871 0.028183 0.251709
O O7 0.405608 0.011678 0.366207
O O8 0.307370 0.018659 0.379975
O O9 0.301365 0.250000 0.788551
O O10 0.340566 0.498425 0.736844
O O11 0.248942 0.482742 0.743386
O O12 0.288141 0.497965 0.863143
O O13 0.851993 0.750000 0.834477
O O14 0.900967 0.507435 0.874564
O O15 0.212579 0.750000 0.711725
O O16 0.558280 0.750000 0.411515
O O17 0.562125 0.532131 0.502686
O O18 0.502316 0.508138 0.398480
O O19 0.045113 0.750000 0.909595
O O20 0.252226 0.250000 0.406799
#
# Coordination Sequence:
#
# PCOD9461598 Si02
#       8
#     8   8   8   8   8   8   8   8
#     4   9  17  27  40  60  84 108 136 170 206 244
#     4   8  14  26  43  58  75 106 143 172 201 241
#     4  10  18  28  42  60  82 107 138 173 207 245
#     4  10  19  31  45  60  82 112 143 174 211 251
#     4   8  15  28  42  58  82 109 137 171 209 246
#     4  10  19  29  41  60  84 109 141 179 214 246
#     4   9  17  29  43  59  81 110 143 176 210 247
#     4  10  18  28  42  60  84 112 141 171 204 244
#
# _framework density 14.101296
#
# number of rings (size 3 to 8) (size 9 to 14) (size 15 to 20)
#    0.000    2.750    0.000    4.500    0.000    4.000 
#    0.000    3.125    0.000    0.000    0.000    0.000 
#    0.000    1.000    0.000    2.750    0.000    4.000 
#
# Total GULP energy -356365.392676 kJ/mol
# GULP energy per Si atom -5568.209261 kJ/mol
# Density = 1.406920 g / cm^3
# Si number density = 14.101296 Si / 1000 Ang^3
#
#
#
# Elastic Constant Matrix: (Units=GPa)
#
#
# Indices 1 2 3 4 5 6 
#
# 1 89.6185 31.3505 62.6640 0.0000 0.0000 0.0000
# 2 31.3505 38.3587 42.8031 0.0000 0.0000 0.0000
# 3 62.6640 42.8031 110.4904 0.0000 0.0000 0.0000
# 4 0.0000 0.0000 0.0000 23.3249 0.0000 0.0000
# 5 0.0000 0.0000 0.0000 0.0000 28.3934 0.0000
# 6 0.0000 0.0000 0.0000 0.0000 0.0000 15.0172
#
#
#
# Elastic Compliance Matrix: (Units=1/GPa)
#
#
# Indices 1 2 3 4 5 6 
#
# 1 0.019312 -0.006274 -0.008522 0.000000 0.000000 0.000000
# 2 -0.006274 0.047958 -0.015020 0.000000 0.000000 0.000000
# 3 -0.008522 -0.015020 0.019703 0.000000 0.000000 0.000000
# 4 0.000000 0.000000 0.000000 0.042873 0.000000 0.000000
# 5 0.000000 0.000000 0.000000 0.000000 0.035219 0.000000
# 6 0.000000 0.000000 0.000000 0.000000 0.000000 0.066590
#
#
# Mechanical properties :
#
#
# Convention : Reuss Voigt Hill
#
# Bulk Modulus (GPa) = 36.57696 56.90031 46.73864
# Shear Modulus (GPa) = 16.64437 20.12378 18.38408
#
# Velocity S-wave (km/s) = 3.43934 3.78178 3.61462
# Velocity P-wave (km/s) = 6.46275 7.71413 7.11600
#
# Compressibility (1/GPa) = 0.02733961
#
# Stress axis : x y z
#
# Youngs Moduli (GPa) = 51.78045 20.85157 50.75472
#
# Poissons Ratio (x) = 0.13083 0.43255
# Poissons Ratio (y) = 0.32488 0.76234
# Poissons Ratio (z) = 0.44129 0.31319
#
# Static dielectric constant tensor:
#      x y z
#    x 1.454470 0.000000 0.000000 
#    y 0.000000 1.468240 0.000000 
#    z 0.000000 0.000000 1.476010 
# 
# From -- ./inp_files/24994.got.cif
#   From: 2010.05.17/outbox.cif.g08.bks.cpg/sg62_13_cif.got.tgz:24994.got - 2010.06.03 15:25:27.
