data_PCOD9461638
_publ_section_title
;
Structure prediction by ZEFSAII (Michael W. Deem and Ramdas Pophale) SiO2 
 PCOD9461638
Probable space group: P N M A
;
_chemical_formula_sum "Si O2"
_cell_formula_units_Z 40
_cell_length_a 11.959473
_cell_length_b 17.393622
_cell_length_c 7.049879
_cell_angle_alpha 90.000000
_cell_angle_beta 90.000000
_cell_angle_gamma 90.000000
_cell_volume 1466.505626
_symmetry_space_group_name_H-M "P N M A"
_symmetry_group_IT_number 62
_symmetry_cell_setting 'orthorhombic'
loop_
_space_group_symop_operation_xyz
x,y,z
1/2-x,-y,1/2+z
1/2+x,1/2-y,1/2-z
-x,1/2+y,-z
-x,-y,-z
1/2+x,y,1/2-z
1/2-x,1/2+y,1/2+z
x,1/2-y,z
loop_
_atom_site_type_symbol
_atom_site_label
_atom_site_fract_x
_atom_site_fract_y
_atom_site_fract_z
Si Si1 0.603235 0.958648 0.885702
Si Si2 0.748651 0.600319 0.398672
Si Si3 0.724718 0.333466 0.526064
Si Si4 0.945453 0.661348 0.584868
Si Si5 0.478468 0.161207 0.634683
O O1 0.698915 0.905284 0.977135
O O2 0.529798 0.890752 0.795762
O O3 0.500000 0.000000 0.000000
O O4 0.681197 0.028332 0.814403
O O5 0.759087 0.669745 0.252473
O O6 0.615356 0.596920 0.412880
O O7 0.820395 0.625462 0.581696
O O8 0.756122 0.250000 0.443539
O O9 0.593244 0.347930 0.518637
O O10 0.944358 0.750000 0.636327
O O11 0.991258 0.657045 0.362872
O O12 0.443474 0.250000 0.598391
#
# Coordination Sequence:
#
# PCOD9461638 Si02
#       5
#     8   8   8   8   8
#     4  10  20  30  45  75 108 132 166 213 260 304
#     4  10  18  28  46  76 109 129 164 215 265 296
#     4  10  19  33  53  75 102 135 172 211 253 309
#     4   9  16  28  47  70  98 132 170 208 245 299
#     4   9  16  27  48  72  96 130 168 207 252 294
#
# _framework density 27.275721999999998
#
# number of rings (size 3 to 8) (size 9 to 14) (size 15 to 20)
#    0.000    2.400    2.000    3.600    0.000    0.800 
#    0.000    0.000    0.000    0.000    0.000   19.600 
#    0.000    0.000    0.000    0.000    0.000    0.000 
#
# Total GULP energy -222987.017632 kJ/mol
# GULP energy per Si atom -5574.675441 kJ/mol
# Density = 2.721364 g / cm^3
# Si number density = 27.275722 Si / 1000 Ang^3
#
#
#
# Elastic Constant Matrix: (Units=GPa)
#
#
# Indices 1 2 3 4 5 6 
#
# 1 177.5147 58.9715 35.9682 0.0000 0.0000 0.0000
# 2 58.9715 170.2011 25.0754 0.0000 0.0000 0.0000
# 3 35.9682 25.0754 63.9331 0.0000 0.0000 0.0000
# 4 0.0000 0.0000 0.0000 10.1838 0.0000 0.0000
# 5 0.0000 0.0000 0.0000 0.0000 36.2088 0.0000
# 6 0.0000 0.0000 0.0000 0.0000 0.0000 50.4052
#
#
#
# Elastic Compliance Matrix: (Units=1/GPa)
#
#
# Indices 1 2 3 4 5 6 
#
# 1 0.006910 -0.001933 -0.003129 0.000000 0.000000 0.000000
# 2 -0.001933 0.006777 -0.001570 0.000000 0.000000 0.000000
# 3 -0.003129 -0.001570 0.018018 0.000000 0.000000 0.000000
# 4 0.000000 0.000000 0.000000 0.098195 0.000000 0.000000
# 5 0.000000 0.000000 0.000000 0.000000 0.027618 0.000000
# 6 0.000000 0.000000 0.000000 0.000000 0.000000 0.019839
#
#
# Mechanical properties :
#
#
# Convention : Reuss Voigt Hill
#
# Bulk Modulus (GPa) = 54.23345 72.40879 63.32112
# Shear Modulus (GPa) = 25.41080 38.80182 32.10631
#
# Velocity S-wave (km/s) = 3.05557 3.77580 3.43461
# Velocity P-wave (km/s) = 5.68992 6.75377 6.24455
#
# Compressibility (1/GPa) = 0.01843881
#
# Stress axis : x y z
#
# Youngs Moduli (GPa) = 144.72802 147.56852 55.50119
#
# Poissons Ratio (x) = 0.28525 0.17367
# Poissons Ratio (y) = 0.27976 0.08716
# Poissons Ratio (z) = 0.45286 0.23173
#
# Static dielectric constant tensor:
#      x y z
#    x 2.238690 0.000000 0.000000 
#    y 0.000000 2.036310 0.000000 
#    z 0.000000 0.000000 2.251460 
# 
# From -- ./inp_files/17871.got.cif
#   From: 2010.05.17/outbox.cif.g08.bks.cpg/sg62_9_cif.got.tgz:17871.got - 2010.06.03 15:25:27.
