data_PCOD9461588
_publ_section_title
;
Structure prediction by ZEFSAII (Michael W. Deem and Ramdas Pophale) SiO2 
 PCOD9461588
Probable space group: P N M A
;
_chemical_formula_sum "Si O2"
_cell_formula_units_Z 64
_cell_length_a 17.438185
_cell_length_b 15.338164
_cell_length_c 10.224555
_cell_angle_alpha 90.000000
_cell_angle_beta 90.000000
_cell_angle_gamma 90.000000
_cell_volume 2734.759082
_symmetry_space_group_name_H-M "P N M A"
_symmetry_group_IT_number 62
_symmetry_cell_setting 'orthorhombic'
loop_
_space_group_symop_operation_xyz
x,y,z
1/2-x,-y,1/2+z
1/2+x,1/2-y,1/2-z
-x,1/2+y,-z
-x,-y,-z
1/2+x,y,1/2-z
1/2-x,1/2+y,1/2+z
x,1/2-y,z
loop_
_atom_site_type_symbol
_atom_site_label
_atom_site_fract_x
_atom_site_fract_y
_atom_site_fract_z
Si Si1 0.431084 0.531671 0.212594
Si Si2 0.167906 0.349073 0.033124
Si Si3 0.472102 0.154460 0.928553
Si Si4 0.252770 0.343831 0.309448
Si Si5 0.763859 0.966776 0.194572
Si Si6 0.071609 0.843612 0.722277
Si Si7 0.490250 0.646023 0.449010
Si Si8 0.637862 0.850831 0.324770
O O1 0.467664 0.576126 0.085559
O O2 0.340111 0.520706 0.217187
O O3 0.464177 0.437394 0.252852
O O4 0.453068 0.600851 0.323221
O O5 0.169680 0.250000 0.980552
O O6 0.210660 0.348325 0.170004
O O7 0.210904 0.408378 0.928236
O O8 0.077775 0.372210 0.050982
O O9 0.510829 0.250000 0.922409
O O10 0.413386 0.150065 0.807807
O O11 0.426590 0.152403 0.064514
O O12 0.231219 0.250000 0.372297
O O13 0.237093 0.440039 0.363939
O O14 0.343830 0.340176 0.282352
O O15 0.703721 0.918017 0.287842
O O16 0.033929 0.750000 0.758804
O O17 0.495808 0.750000 0.433111
O O18 0.580053 0.619423 0.442145
O O19 0.663036 0.750000 0.348068
#
# Coordination Sequence:
#
# PCOD9461588 Si02
#       8
#     8   8   8   8   8   8   8   8
#     4   9  16  25  38  59  86 111 136 173 220 262
#     4   9  16  29  49  69  90 117 149 184 221 263
#     4   9  16  26  41  61  85 112 141 174 215 262
#     4   9  18  31  46  66  90 117 153 189 218 258
#     4  10  18  27  45  70  91 115 147 185 226 264
#     4   9  16  25  38  58  83 112 145 176 209 255
#     4   8  15  27  43  63  84 108 140 177 218 261
#     4   9  16  26  41  62  86 110 139 180 225 263
#
# _framework density 23.402428
#
# number of rings (size 3 to 8) (size 9 to 14) (size 15 to 20)
#    0.000    3.000    0.000    2.625    0.000    3.500 
#    0.000    0.625    0.000    4.500    0.000    7.000 
#    0.000    0.000    0.000    0.000    0.000    0.000 
#
# Total GULP energy -356713.067341 kJ/mol
# GULP energy per Si atom -5573.641677 kJ/mol
# Density = 2.334916 g / cm^3
# Si number density = 23.402428 Si / 1000 Ang^3
#
#
#
# Elastic Constant Matrix: (Units=GPa)
#
#
# Indices 1 2 3 4 5 6 
#
# 1 59.4853 50.5324 14.0889 0.0000 0.0000 0.0000
# 2 50.5324 123.9288 7.9908 0.0000 0.0000 0.0000
# 3 14.0889 7.9908 43.0492 0.0000 0.0000 0.0000
# 4 0.0000 0.0000 0.0000 2.9266 0.0000 0.0000
# 5 0.0000 0.0000 0.0000 0.0000 11.0641 0.0000
# 6 0.0000 0.0000 0.0000 0.0000 0.0000 12.7643
#
#
#
# Elastic Compliance Matrix: (Units=1/GPa)
#
#
# Indices 1 2 3 4 5 6 
#
# 1 0.027684 -0.010834 -0.007049 0.000000 0.000000 0.000000
# 2 -0.010834 0.012406 0.001243 0.000000 0.000000 0.000000
# 3 -0.007049 0.001243 0.025306 0.000000 0.000000 0.000000
# 4 0.000000 0.000000 0.000000 0.341696 0.000000 0.000000
# 5 0.000000 0.000000 0.000000 0.000000 0.090382 0.000000
# 6 0.000000 0.000000 0.000000 0.000000 0.000000 0.078343
#
#
# Mechanical properties :
#
#
# Convention : Reuss Voigt Hill
#
# Bulk Modulus (GPa) = 31.13771 41.29863 36.21817
# Shear Modulus (GPa) = 8.06709 15.60774 11.83742
#
# Velocity S-wave (km/s) = 1.85866 2.58530 2.25148
# Velocity P-wave (km/s) = 4.23560 5.15724 4.71898
#
# Compressibility (1/GPa) = 0.03211540
#
# Stress axis : x y z
#
# Youngs Moduli (GPa) = 36.12259 80.60331 39.51693
#
# Poissons Ratio (x) = 0.87322 0.27856
# Poissons Ratio (y) = 0.39134 -0.04911
# Poissons Ratio (z) = 0.25464 -0.10016
#
# Static dielectric constant tensor:
#      x y z
#    x 1.911680 0.000000 0.000000 
#    y 0.000000 1.947480 0.000000 
#    z 0.000000 0.000000 1.910220 
# 
# From -- ./inp_files/14325.got.cif
#   From: 2010.05.17/outbox.cif.g08.bks.cpg/sg62_8_cif.got.tgz:14325.got - 2010.06.03 15:25:27.
