data_PCOD9461585
_publ_section_title
;
Structure prediction by ZEFSAII (Michael W. Deem and Ramdas Pophale) SiO2 
 PCOD9461585
Probable space group: P N M A
;
_chemical_formula_sum "Si O2"
_cell_formula_units_Z 56
_cell_length_a 18.105211
_cell_length_b 8.888978
_cell_length_c 21.969114
_cell_angle_alpha 90.000000
_cell_angle_beta 90.000000
_cell_angle_gamma 90.000000
_cell_volume 3535.639395
_symmetry_space_group_name_H-M "P N M A"
_symmetry_group_IT_number 62
_symmetry_cell_setting 'orthorhombic'
loop_
_space_group_symop_operation_xyz
x,y,z
1/2-x,-y,1/2+z
1/2+x,1/2-y,1/2-z
-x,1/2+y,-z
-x,-y,-z
1/2+x,y,1/2-z
1/2-x,1/2+y,1/2+z
x,1/2-y,z
loop_
_atom_site_type_symbol
_atom_site_label
_atom_site_fract_x
_atom_site_fract_y
_atom_site_fract_z
Si Si1 0.063201 0.073072 0.206315
Si Si2 0.747948 0.422631 0.679735
Si Si3 0.091181 0.069225 0.779579
Si Si4 0.105931 0.075441 0.349122
Si Si5 0.212516 0.923703 0.175898
Si Si6 0.513728 0.071131 0.934269
Si Si7 0.636469 0.929883 0.850409
O O1 0.057393 0.250000 0.193168
O O2 0.080488 0.058110 0.278790
O O3 0.132654 0.000314 0.171748
O O4 0.986262 0.989198 0.195193
O O5 0.755856 0.250000 0.658788
O O6 0.662135 0.468083 0.678505
O O7 0.808561 0.526532 0.648259
O O8 0.767461 0.424193 0.751904
O O9 0.090483 0.250000 0.771352
O O10 0.105241 0.992623 0.713955
O O11 0.096246 0.250000 0.365856
O O12 0.054836 0.972968 0.390955
O O13 0.211249 0.750000 0.156266
O O14 0.279176 0.013862 0.144948
O O15 0.521569 0.250000 0.937940
O O16 0.585582 0.998557 0.902838
O O17 0.500000 0.000000 0.000000
O O18 0.632410 0.750000 0.850088
#
# Coordination Sequence:
#
# PCOD9461585 Si02
#       7
#     8   8   8   8   8   8   8
#     4  10  18  27  43  67  95 124 156 191 229 275
#     4   8  16  28  42  62  87 119 155 187 225 274
#     4  10  18  28  44  66  93 125 158 189 228 277
#     4  10  19  31  46  65  89 119 154 192 235 276
#     4   9  17  29  44  63  88 120 156 188 228 277
#     4  12  24  37  52  68  90 120 159 200 239 278
#     4  11  20  32  47  65  90 119 155 194 236 278
#
# _framework density 15.83872
#
# number of rings (size 3 to 8) (size 9 to 14) (size 15 to 20)
#    0.000    2.000    1.429    5.143    0.000    5.143 
#    0.000    0.000    0.000    0.000    0.000    0.000 
#    0.000    1.143    0.000    4.286    0.000    6.571 
#
# Total GULP energy -312365.152018 kJ/mol
# GULP energy per Si atom -5577.949143 kJ/mol
# Density = 1.580267 g / cm^3
# Si number density = 15.838720 Si / 1000 Ang^3
#
#
#
# Elastic Constant Matrix: (Units=GPa)
#
#
# Indices 1 2 3 4 5 6 
#
# 1 131.3816 55.9743 5.4252 0.0000 0.0000 0.0000
# 2 55.9743 122.5539 20.0883 0.0000 0.0000 0.0000
# 3 5.4252 20.0883 16.2311 0.0000 0.0000 0.0000
# 4 0.0000 0.0000 0.0000 16.4755 0.0000 0.0000
# 5 0.0000 0.0000 0.0000 0.0000 6.1459 0.0000
# 6 0.0000 0.0000 0.0000 0.0000 0.0000 30.0780
#
#
#
# Elastic Compliance Matrix: (Units=1/GPa)
#
#
# Indices 1 2 3 4 5 6 
#
# 1 0.009548 -0.004815 0.002767 0.000000 0.000000 0.000000
# 2 -0.004815 0.012664 -0.014064 0.000000 0.000000 0.000000
# 3 0.002767 -0.014064 0.078092 0.000000 0.000000 0.000000
# 4 0.000000 0.000000 0.000000 0.060696 0.000000 0.000000
# 5 0.000000 0.000000 0.000000 0.000000 0.162711 0.000000
# 6 0.000000 0.000000 0.000000 0.000000 0.000000 0.033247
#
#
# Mechanical properties :
#
#
# Convention : Reuss Voigt Hill
#
# Bulk Modulus (GPa) = 14.68843 48.12694 31.40769
# Shear Modulus (GPa) = 12.13961 23.11845 17.62903
#
# Velocity S-wave (km/s) = 2.77149 3.82464 3.33984
# Velocity P-wave (km/s) = 4.41989 7.06791 5.89452
#
# Compressibility (1/GPa) = 0.06808078
#
# Stress axis : x y z
#
# Youngs Moduli (GPa) = 104.72963 78.96399 12.80548
#
# Poissons Ratio (x) = 0.38018 -0.03544
# Poissons Ratio (y) = 0.50424 0.18010
# Poissons Ratio (z) = -0.28982 1.11057
#
# Static dielectric constant tensor:
#      x y z
#    x 1.552670 0.000000 0.000000 
#    y 0.000000 1.528490 0.000000 
#    z 0.000000 0.000000 1.495050 
# 
# From -- ./inp_files/27535.got.cif
#   From: 2010.05.17/outbox.cif.g08.bks.cpg/sg62_14_cif.got.tgz:27535.got - 2010.06.03 15:25:27.
