data_PCOD9461862
_publ_section_title
;
Structure prediction by ZEFSAII (Michael W. Deem and Ramdas Pophale) SiO2 
 PCOD9461862
Probable space group: P N M A
;
_chemical_formula_sum "Si O2"
_cell_formula_units_Z 64
_cell_length_a 8.824476
_cell_length_b 26.006934
_cell_length_c 17.685812
_cell_angle_alpha 90.000000
_cell_angle_beta 90.000000
_cell_angle_gamma 90.000000
_cell_volume 4058.850788
_symmetry_space_group_name_H-M "P N M A"
_symmetry_group_IT_number 62
_symmetry_cell_setting 'orthorhombic'
loop_
_space_group_symop_operation_xyz
x,y,z
1/2-x,-y,1/2+z
1/2+x,1/2-y,1/2-z
-x,1/2+y,-z
-x,-y,-z
1/2+x,y,1/2-z
1/2-x,1/2+y,1/2+z
x,1/2-y,z
loop_
_atom_site_type_symbol
_atom_site_label
_atom_site_fract_x
_atom_site_fract_y
_atom_site_fract_z
Si Si1 0.954252 0.342017 0.735787
Si Si2 0.878624 0.026526 0.155748
Si Si3 0.839979 0.582693 0.074753
Si Si4 0.737471 0.022446 0.315270
Si Si5 0.216904 0.098314 0.656992
Si Si6 0.182411 0.304994 0.853913
Si Si7 0.336622 0.433123 0.503975
Si Si8 0.855930 0.469149 0.468190
O O1 0.056931 0.380813 0.686577
O O2 0.066276 0.307424 0.784291
O O3 0.846030 0.371997 0.795287
O O4 0.848938 0.309727 0.680823
O O5 0.824440 0.063343 0.086695
O O6 0.847626 0.966078 0.132638
O O7 0.788772 0.038429 0.232042
O O8 0.059480 0.032137 0.169070
O O9 0.843379 0.639982 0.106756
O O10 0.689193 0.575548 0.025117
O O11 0.989884 0.576200 0.024511
O O12 0.766206 0.961199 0.321025
O O13 0.847158 0.045794 0.380625
O O14 0.244175 0.100917 0.565879
O O15 0.163195 0.250000 0.894445
O O16 0.283424 0.490585 0.525345
O O17 0.000000 0.500000 0.500000
#
# Coordination Sequence:
#
# PCOD9461862 Si02
#       8
#     8   8   8   8   8   8   8   8
#     4  10  20  33  49  70  97 129 175 215 254 283
#     4  11  20  32  46  71 102 136 164 204 241 302
#     4  11  19  36  51  65 100 140 165 210 251 300
#     4  11  20  29  45  69 102 126 173 198 243 290
#     4  10  18  31  50  70  91 135 171 206 245 305
#     4  11  22  34  50  71  98 133 175 218 259 291
#     4  10  19  35  48  68  99 136 167 200 255 298
#     4  10  21  32  49  73  97 130 174 207 249 306
#
# _framework density 15.76801
#
# number of rings (size 3 to 8) (size 9 to 14) (size 15 to 20)
#    0.000    1.500    5.000    3.375    7.000    0.000 
#    0.000    0.000    0.000    0.000    0.000    0.000 
#    0.000    1.000    0.250    0.000    0.000    0.000 
#
# Total GULP energy -356316.776998 kJ/mol
# GULP energy per Si atom -5567.449641 kJ/mol
# Density = 1.573212 g / cm^3
# Si number density = 15.768010 Si / 1000 Ang^3
#
#
#
# Elastic Constant Matrix: (Units=GPa)
#
#
# Indices 1 2 3 4 5 6 
#
# 1 55.8406 24.1666 33.6099 0.0000 0.0000 0.0000
# 2 24.1666 50.2354 21.7189 0.0000 0.0000 0.0000
# 3 33.6099 21.7189 125.9909 0.0000 0.0000 0.0000
# 4 0.0000 0.0000 0.0000 9.2298 0.0000 0.0000
# 5 0.0000 0.0000 0.0000 0.0000 26.5340 0.0000
# 6 0.0000 0.0000 0.0000 0.0000 0.0000 -6.7435
#
#
#
# Elastic Compliance Matrix: (Units=1/GPa)
#
#
# Indices 1 2 3 4 5 6 
#
# 1 0.025244 -0.009976 -0.005014 0.000000 0.000000 0.000000
# 2 -0.009976 0.025452 -0.001726 0.000000 0.000000 0.000000
# 3 -0.005014 -0.001726 0.009572 0.000000 0.000000 0.000000
# 4 0.000000 0.000000 0.000000 0.108345 0.000000 0.000000
# 5 0.000000 0.000000 0.000000 0.000000 0.037687 0.000000
# 6 0.000000 0.000000 0.000000 0.000000 0.000000 -0.148290
#
#
# Mechanical properties :
#
#
# Convention : Reuss Voigt Hill
#
# Bulk Modulus (GPa) = 37.26551 43.45086 40.35819
# Shear Modulus (GPa) = 49.80689 15.97548 32.89119
#
# Velocity S-wave (km/s) = 5.62636 3.18647 4.57217
# Velocity P-wave (km/s) = 8.11744 6.41516 7.31598
#
# Compressibility (1/GPa) = 0.02683446
#
# Stress axis : x y z
#
# Youngs Moduli (GPa) = 39.61405 39.29008 104.46772
#
# Poissons Ratio (x) = 0.39195 0.52384
# Poissons Ratio (y) = 0.39519 0.18034
# Poissons Ratio (z) = 0.19864 0.06783
#
# Static dielectric constant tensor:
#      x y z
#    x 1.568850 0.000000 0.000000 
#    y 0.000000 1.513310 0.000000 
#    z 0.000000 0.000000 1.613210 
# 
# From -- ./inp_files/22642.got.cif
#   From: 2010.05.17/outbox.cif.g08.bks.cpg/sg62_12_cif.got.tgz:22642.got - 2010.06.03 15:25:27.
