data_PCOD9461714
_publ_section_title
;
Structure prediction by ZEFSAII (Michael W. Deem and Ramdas Pophale) SiO2 
 PCOD9461714
Probable space group: P N M A
;
_chemical_formula_sum "Si O2"
_cell_formula_units_Z 36
_cell_length_a 7.713025
_cell_length_b 7.418868
_cell_length_c 24.909926
_cell_angle_alpha 90.000000
_cell_angle_beta 90.000000
_cell_angle_gamma 90.000000
_cell_volume 1425.393652
_symmetry_space_group_name_H-M "P N M A"
_symmetry_group_IT_number 62
_symmetry_cell_setting 'orthorhombic'
loop_
_space_group_symop_operation_xyz
x,y,z
1/2-x,-y,1/2+z
1/2+x,1/2-y,1/2-z
-x,1/2+y,-z
-x,-y,-z
1/2+x,y,1/2-z
1/2-x,1/2+y,1/2+z
x,1/2-y,z
loop_
_atom_site_type_symbol
_atom_site_label
_atom_site_fract_x
_atom_site_fract_y
_atom_site_fract_z
Si Si1 0.089008 0.460329 0.071297
Si Si2 0.958831 0.750000 0.606332
Si Si3 0.214367 0.955390 0.470114
Si Si4 0.522464 0.534817 0.312932
Si Si5 0.880038 0.031838 0.692264
O O1 0.066919 0.250000 0.058421
O O2 0.122356 0.472745 0.134268
O O3 0.904948 0.548568 0.058196
O O4 0.236861 0.520588 0.030322
O O5 0.900214 0.592994 0.562719
O O6 0.986913 0.590819 0.652115
O O7 0.149316 0.750000 0.470618
O O8 0.531015 0.750000 0.313354
O O9 0.320919 0.484416 0.319658
O O10 0.586148 0.481455 0.254240
O O11 0.904906 0.250000 0.686315
#
# Coordination Sequence:
#
# PCOD9461714 Si02
#       5
#     8   4   8   8   8
#     4  10  18  29  48  75 111 137 175 222 273 319
#     4  12  20  32  52  74 112 138 182 214 276 318
#     4  10  19  29  47  77 108 138 173 223 278 313
#     4  10  20  35  53  76 112 142 179 216 265 319
#     4  10  22  36  53  78 110 145 176 220 263 319
#
# _framework density 25.256181000000002
#
# number of rings (size 3 to 8) (size 9 to 14) (size 15 to 20)
#    0.000    1.778    3.333    1.333    4.667    0.000 
#    0.000    0.000    0.000    0.000    0.000    1.556 
#    0.000    0.000    0.000    0.000    0.000    0.000 
#
# Total GULP energy -200531.221846 kJ/mol
# GULP energy per Si atom -5570.311718 kJ/mol
# Density = 2.519870 g / cm^3
# Si number density = 25.256181 Si / 1000 Ang^3
#
#
#
# Elastic Constant Matrix: (Units=GPa)
#
#
# Indices 1 2 3 4 5 6 
#
# 1 135.1087 25.0620 -31.6595 0.0000 0.0000 0.0000
# 2 25.0620 112.0153 45.4020 0.0000 0.0000 0.0000
# 3 -31.6595 45.4020 355.8426 0.0000 0.0000 0.0000
# 4 0.0000 0.0000 0.0000 50.1501 0.0000 0.0000
# 5 0.0000 0.0000 0.0000 0.0000 11.3666 0.0000
# 6 0.0000 0.0000 0.0000 0.0000 0.0000 -2.7654
#
#
#
# Elastic Compliance Matrix: (Units=1/GPa)
#
#
# Indices 1 2 3 4 5 6 
#
# 1 0.008044 -0.002204 0.000997 0.000000 0.000000 0.000000
# 2 -0.002204 0.010018 -0.001474 0.000000 0.000000 0.000000
# 3 0.000997 -0.001474 0.003087 0.000000 0.000000 0.000000
# 4 0.000000 0.000000 0.000000 0.019940 0.000000 0.000000
# 5 0.000000 0.000000 0.000000 0.000000 0.087977 0.000000
# 6 0.000000 0.000000 0.000000 0.000000 0.000000 -0.361609
#
#
# Mechanical properties :
#
#
# Convention : Reuss Voigt Hill
#
# Bulk Modulus (GPa) = 63.34537 75.61950 69.48244
# Shear Modulus (GPa) = -22.53080 49.36106 13.41513
#
# Velocity S-wave (km/s) = -2.99003 4.42567 2.30720
# Velocity P-wave (km/s) = 3.63527 7.49142 5.88798
#
# Compressibility (1/GPa) = 0.01578647
#
# Stress axis : x y z
#
# Youngs Moduli (GPa) = 124.31910 99.82079 323.93685
#
# Poissons Ratio (x) = 0.21998 -0.32291
# Poissons Ratio (y) = 0.27397 0.47757
# Poissons Ratio (z) = -0.12393 0.14716
#
# Static dielectric constant tensor:
#      x y z
#    x 2.132560 0.000000 0.000000 
#    y 0.000000 1.942580 0.000000 
#    z 0.000000 0.000000 2.017150 
# 
# From -- ./inp_files/26396.got.cif
#   From: 2010.05.17/outbox.cif.g08.bks.cpg/sg62_14_cif.got.tgz:26396.got - 2010.06.03 15:25:27.
