data_PCOD9461120
_publ_section_title
;
Structure prediction by ZEFSAII (Michael W. Deem and Ramdas Pophale) SiO2 
 PCOD9461120
Probable space group: P B C A
;
_chemical_formula_sum "Si O2"
_cell_formula_units_Z 48
_cell_length_a 11.123827
_cell_length_b 8.926518
_cell_length_c 20.222286
_cell_angle_alpha 90.000000
_cell_angle_beta 90.000000
_cell_angle_gamma 90.000000
_cell_volume 2008.013181
_symmetry_space_group_name_H-M "P B C A"
_symmetry_group_IT_number 61
_symmetry_cell_setting 'orthorhombic'
loop_
_space_group_symop_operation_xyz
x,y,z
1/2-x,-y,1/2+z
1/2+x,1/2-y,-z
-x,1/2+y,1/2-z
-x,-y,-z
1/2+x,y,1/2-z
1/2-x,1/2+y,z
x,1/2-y,1/2+z
loop_
_atom_site_type_symbol
_atom_site_label
_atom_site_fract_x
_atom_site_fract_y
_atom_site_fract_z
Si Si1 0.107021 0.322875 0.592060
Si Si2 0.861300 0.145243 0.597897
Si Si3 0.691879 0.484953 0.201550
Si Si4 0.978045 0.131406 0.891202
Si Si5 0.225986 0.744395 0.204842
Si Si6 0.657719 0.338621 0.534682
O O1 0.075718 0.490637 0.568749
O O2 0.183925 0.345586 0.657848
O O3 0.178200 0.225606 0.538264
O O4 0.988682 0.223936 0.605261
O O5 0.813919 0.052032 0.661289
O O6 0.766672 0.274790 0.578930
O O7 0.857565 0.015836 0.541709
O O8 0.583890 0.440709 0.153582
O O9 0.696878 0.379418 0.265417
O O10 0.684712 0.648957 0.231949
O O11 0.883253 0.202820 0.840768
O O12 0.038487 0.255364 0.937792
#
# Coordination Sequence:
#
# PCOD9461120 Si02
#       6
#     8   8   8   8   8   8
#     4  12  27  44  72 106 145 184 235 301 351 429
#     4  11  25  48  72 103 139 193 236 291 367 413
#     4  11  25  47  69  98 140 183 235 290 351 431
#     4  11  26  46  70 103 139 192 234 295 361 414
#     4  12  27  42  72 106 139 183 237 291 352 425
#     4  11  26  45  76 100 142 188 239 294 354 437
#
# _framework density 23.904223999999999
#
# number of rings (size 3 to 8) (size 9 to 14) (size 15 to 20)
#    0.000    0.667    1.667    6.000   11.667    0.000 
#    0.000    0.000    0.000    0.000    0.000    0.000 
#    0.000    0.000    0.000    0.000    0.000    0.000 
#
# Total GULP energy -268920.298004 kJ/mol
# GULP energy per Si atom -5602.506208 kJ/mol
# Density = 2.384982 g / cm^3
# Si number density = 23.904224 Si / 1000 Ang^3
#
#
#
# Elastic Constant Matrix: (Units=GPa)
#
#
# Indices 1 2 3 4 5 6 
#
# 1 49.3937 28.4984 8.7555 0.0000 0.0000 0.0000
# 2 28.4984 107.2686 -5.2338 0.0000 0.0000 0.0000
# 3 8.7555 -5.2338 60.1407 0.0000 0.0000 0.0000
# 4 0.0000 0.0000 0.0000 46.0148 0.0000 0.0000
# 5 0.0000 0.0000 0.0000 0.0000 27.5687 0.0000
# 6 0.0000 0.0000 0.0000 0.0000 0.0000 24.7522
#
#
#
# Elastic Compliance Matrix: (Units=1/GPa)
#
#
# Indices 1 2 3 4 5 6 
#
# 1 0.024936 -0.006831 -0.004225 0.000000 0.000000 0.000000
# 2 -0.006831 0.011233 0.001972 0.000000 0.000000 0.000000
# 3 -0.004225 0.001972 0.017414 0.000000 0.000000 0.000000
# 4 0.000000 0.000000 0.000000 0.021732 0.000000 0.000000
# 5 0.000000 0.000000 0.000000 0.000000 0.036273 0.000000
# 6 0.000000 0.000000 0.000000 0.000000 0.000000 0.040401
#
#
# Mechanical properties :
#
#
# Convention : Reuss Voigt Hill
#
# Bulk Modulus (GPa) = 28.23555 31.20481 29.72018
# Shear Modulus (GPa) = 27.47836 31.98597 29.73216
#
# Velocity S-wave (km/s) = 3.39413 3.66196 3.53059
# Velocity P-wave (km/s) = 5.21515 5.56438 5.39259
#
# Compressibility (1/GPa) = 0.03541635
#
# Stress axis : x y z
#
# Youngs Moduli (GPa) = 40.10342 89.02037 57.42390
#
# Poissons Ratio (x) = 0.60808 0.24260
# Poissons Ratio (y) = 0.27394 -0.11324
# Poissons Ratio (z) = 0.16942 -0.17555
#
# Static dielectric constant tensor:
#      x y z
#    x 1.875110 0.000000 0.000000 
#    y 0.000000 1.908800 0.000000 
#    z 0.000000 0.000000 1.900570 
# 
# From -- ./inp_files/10971.got.cif
#   From: 2010.05.17/outbox.cif.g08.bks.cpg/sg61_6_cif.got.tgz:10971.got - 2010.06.03 15:17:17.
