data_PCOD9461116
_publ_section_title
;
Structure prediction by ZEFSAII (Michael W. Deem and Ramdas Pophale) SiO2 
 PCOD9461116
Probable space group: P B C A
;
_chemical_formula_sum "Si O2"
_cell_formula_units_Z 40
_cell_length_a 7.646325
_cell_length_b 24.368930
_cell_length_c 8.697556
_cell_angle_alpha 90.000000
_cell_angle_beta 90.000000
_cell_angle_gamma 90.000000
_cell_volume 1620.639603
_symmetry_space_group_name_H-M "P B C A"
_symmetry_group_IT_number 61
_symmetry_cell_setting 'orthorhombic'
loop_
_space_group_symop_operation_xyz
x,y,z
1/2-x,-y,1/2+z
1/2+x,1/2-y,-z
-x,1/2+y,1/2-z
-x,-y,-z
1/2+x,y,1/2-z
1/2-x,1/2+y,z
x,1/2-y,1/2+z
loop_
_atom_site_type_symbol
_atom_site_label
_atom_site_fract_x
_atom_site_fract_y
_atom_site_fract_z
Si Si1 0.998081 0.870634 0.509006
Si Si2 0.035367 0.715433 0.284060
Si Si3 0.793241 0.449560 0.620170
Si Si4 0.176716 0.432513 0.529547
Si Si5 0.250487 0.783865 0.084198
O O1 0.877384 0.923135 0.543171
O O2 0.192142 0.887764 0.458538
O O3 0.881140 0.834272 0.394860
O O4 0.019523 0.834225 0.664771
O O5 0.084716 0.769906 0.187451
O O6 0.184507 0.709315 0.411176
O O7 0.863887 0.729278 0.382257
O O8 0.813984 0.512712 0.572213
O O9 0.761558 0.444166 0.802234
O O10 0.972261 0.420175 0.561547
#
# Coordination Sequence:
#
# PCOD9461116 Si02
#       5
#     8   8   8   8   8
#     4  12  25  46  77 102 144 203 244 289 376 444
#     4  12  25  46  70 102 148 195 247 305 362 432
#     4  11  25  46  75 105 144 183 240 304 369 442
#     4  11  25  46  73 109 141 185 239 303 370 447
#     4  12  25  46  70 102 148 192 249 309 356 434
#
# _framework density 24.681612999999999
#
# number of rings (size 3 to 8) (size 9 to 14) (size 15 to 20)
#    0.000    0.400    6.000    1.800    0.000    0.000 
#    7.200    0.000    0.000    0.000    0.000    0.000 
#    0.000    0.000    0.000    0.000    0.000    0.000 
#
# Total GULP energy -223725.317060 kJ/mol
# GULP energy per Si atom -5593.132927 kJ/mol
# Density = 2.462544 g / cm^3
# Si number density = 24.681613 Si / 1000 Ang^3
#
#
#
# Elastic Constant Matrix: (Units=GPa)
#
#
# Indices 1 2 3 4 5 6 
#
# 1 125.5169 11.3337 27.2107 0.0000 0.0000 0.0000
# 2 11.3337 43.6356 6.3519 0.0000 0.0000 0.0000
# 3 27.2107 6.3519 24.4683 0.0000 0.0000 0.0000
# 4 0.0000 0.0000 0.0000 33.8328 0.0000 0.0000
# 5 0.0000 0.0000 0.0000 0.0000 34.6864 0.0000
# 6 0.0000 0.0000 0.0000 0.0000 0.0000 57.5022
#
#
#
# Elastic Compliance Matrix: (Units=1/GPa)
#
#
# Indices 1 2 3 4 5 6 
#
# 1 0.010546 -0.001073 -0.011450 0.000000 0.000000 0.000000
# 2 -0.001073 0.023926 -0.005018 0.000000 0.000000 0.000000
# 3 -0.011450 -0.005018 0.054905 0.000000 0.000000 0.000000
# 4 0.000000 0.000000 0.000000 0.029557 0.000000 0.000000
# 5 0.000000 0.000000 0.000000 0.000000 0.028830 0.000000
# 6 0.000000 0.000000 0.000000 0.000000 0.000000 0.017391
#
#
# Mechanical properties :
#
#
# Convention : Reuss Voigt Hill
#
# Bulk Modulus (GPa) = 18.41762 31.49038 24.95400
# Shear Modulus (GPa) = 22.90068 35.11925 29.00997
#
# Velocity S-wave (km/s) = 3.04936 3.77622 3.43208
# Velocity P-wave (km/s) = 4.45829 5.63910 5.08310
#
# Compressibility (1/GPa) = 0.05429584
#
# Stress axis : x y z
#
# Youngs Moduli (GPa) = 94.82234 41.79522 18.21338
#
# Poissons Ratio (x) = 0.04483 0.20854
# Poissons Ratio (y) = 0.10170 0.09140
# Poissons Ratio (z) = 1.08568 0.20975
#
# Static dielectric constant tensor:
#      x y z
#    x 2.065090 0.000000 0.000000 
#    y 0.000000 1.960190 0.000000 
#    z 0.000000 0.000000 2.010260 
# 
# From -- ./inp_files/1756.got.cif
#   From: 2010.05.17/outbox.cif.g08.bks.cpg/sg61_1_cif.got.tgz:1756.got - 2010.06.03 15:17:17.
