data_PCOD9461039
_publ_section_title
;
Structure prediction by ZEFSAII (Michael W. Deem and Ramdas Pophale) SiO2 
 PCOD9461039
Probable space group: P B C A
;
_chemical_formula_sum "Si O2"
_cell_formula_units_Z 48
_cell_length_a 8.604050
_cell_length_b 18.204495
_cell_length_c 13.638059
_cell_angle_alpha 90.000000
_cell_angle_beta 90.000000
_cell_angle_gamma 90.000000
_cell_volume 2136.161711
_symmetry_space_group_name_H-M "P B C A"
_symmetry_group_IT_number 61
_symmetry_cell_setting 'orthorhombic'
loop_
_space_group_symop_operation_xyz
x,y,z
1/2-x,-y,1/2+z
1/2+x,1/2-y,-z
-x,1/2+y,1/2-z
-x,-y,-z
1/2+x,y,1/2-z
1/2-x,1/2+y,z
x,1/2-y,1/2+z
loop_
_atom_site_type_symbol
_atom_site_label
_atom_site_fract_x
_atom_site_fract_y
_atom_site_fract_z
Si Si1 0.521547 0.845240 0.127137
Si Si2 0.858451 0.788809 0.189508
Si Si3 0.350064 0.965437 0.619172
Si Si4 0.954400 0.120355 0.969163
Si Si5 0.353070 0.849487 0.928480
Si Si6 0.005160 0.481436 0.829928
O O1 0.687254 0.813826 0.158214
O O2 0.394755 0.809274 0.199253
O O3 0.522202 0.932679 0.146756
O O4 0.472677 0.831590 0.015605
O O5 0.878119 0.703668 0.163289
O O6 0.976850 0.833857 0.120334
O O7 0.409782 0.904771 0.543043
O O8 0.170378 0.957748 0.646611
O O9 0.452553 0.965744 0.717531
O O10 0.377789 0.045432 0.571565
O O11 0.818900 0.160622 0.028518
O O12 0.380069 0.933071 0.896040
#
# Coordination Sequence:
#
# PCOD9461039 Si02
#       6
#     8   8   8   8   8   8
#     4  12  25  46  72 102 138 188 236 291 357 429
#     4  12  27  46  71 100 145 191 232 295 363 427
#     4  11  24  40  72 101 141 176 243 292 347 422
#     4  11  24  44  67 106 140 188 232 293 359 420
#     4  12  27  45  73 104 145 181 243 293 357 426
#     4  12  24  45  72 108 133 189 234 301 343 427
#
# _framework density 22.470209000000001
#
# number of rings (size 3 to 8) (size 9 to 14) (size 15 to 20)
#    0.000    0.333    3.333    5.500    4.667    4.000 
#    0.000    0.000    0.000    0.000    0.000    0.000 
#    0.000    0.000    0.000    0.000    0.000    0.000 
#
# Total GULP energy -269121.657647 kJ/mol
# GULP energy per Si atom -5606.701201 kJ/mol
# Density = 2.241907 g / cm^3
# Si number density = 22.470209 Si / 1000 Ang^3
#
#
#
# Elastic Constant Matrix: (Units=GPa)
#
#
# Indices 1 2 3 4 5 6 
#
# 1 63.0521 15.0013 -2.0030 0.0000 0.0000 0.0000
# 2 15.0013 44.5554 29.5237 0.0000 0.0000 0.0000
# 3 -2.0030 29.5237 78.4469 0.0000 0.0000 0.0000
# 4 0.0000 0.0000 0.0000 26.1125 0.0000 0.0000
# 5 0.0000 0.0000 0.0000 0.0000 46.4423 0.0000
# 6 0.0000 0.0000 0.0000 0.0000 0.0000 8.3366
#
#
#
# Elastic Compliance Matrix: (Units=1/GPa)
#
#
# Indices 1 2 3 4 5 6 
#
# 1 0.017992 -0.008476 0.003649 0.000000 0.000000 0.000000
# 2 -0.008476 0.033894 -0.012972 0.000000 0.000000 0.000000
# 3 0.003649 -0.012972 0.017723 0.000000 0.000000 0.000000
# 4 0.000000 0.000000 0.000000 0.038296 0.000000 0.000000
# 5 0.000000 0.000000 0.000000 0.000000 0.021532 0.000000
# 6 0.000000 0.000000 0.000000 0.000000 0.000000 0.119953
#
#
# Mechanical properties :
#
#
# Convention : Reuss Voigt Hill
#
# Bulk Modulus (GPa) = 29.40239 30.12206 29.76222
# Shear Modulus (GPa) = 16.87337 25.74711 21.31024
#
# Velocity S-wave (km/s) = 2.74327 3.38869 3.08291
# Velocity P-wave (km/s) = 4.81118 5.36147 5.09376
#
# Compressibility (1/GPa) = 0.03401084
#
# Stress axis : x y z
#
# Youngs Moduli (GPa) = 55.57893 29.50408 56.42432
#
# Poissons Ratio (x) = 0.25008 -0.20591
# Poissons Ratio (y) = 0.47109 0.73196
# Poissons Ratio (z) = -0.20283 0.38274
#
# Static dielectric constant tensor:
#      x y z
#    x 1.799540 0.000000 0.000000 
#    y 0.000000 1.812290 0.000000 
#    z 0.000000 0.000000 1.797790 
# 
# From -- ./inp_files/7061.got.cif
#   From: 2010.05.17/outbox.cif.g08.bks.cpg/sg61_4_cif.got.tgz:7061.got - 2010.06.03 15:17:17.
