data_PCOD9461459
_publ_section_title
;
Structure prediction by ZEFSAII (Michael W. Deem and Ramdas Pophale) SiO2 
 PCOD9461459
Probable space group: P N M A
;
_chemical_formula_sum "Si O2"
_cell_formula_units_Z 64
_cell_length_a 9.649172
_cell_length_b 26.890881
_cell_length_c 16.821599
_cell_angle_alpha 90.000000
_cell_angle_beta 90.000000
_cell_angle_gamma 90.000000
_cell_volume 4364.779960
_symmetry_space_group_name_H-M "P N M A"
_symmetry_group_IT_number 62
_symmetry_cell_setting 'orthorhombic'
loop_
_space_group_symop_operation_xyz
x,y,z
1/2-x,-y,1/2+z
1/2+x,1/2-y,1/2-z
-x,1/2+y,-z
-x,-y,-z
1/2+x,y,1/2-z
1/2-x,1/2+y,1/2+z
x,1/2-y,z
loop_
_atom_site_type_symbol
_atom_site_label
_atom_site_fract_x
_atom_site_fract_y
_atom_site_fract_z
Si Si1 0.593008 0.996770 0.152097
Si Si2 0.076451 0.502215 0.162494
Si Si3 0.318925 0.027901 0.067072
Si Si4 0.218520 0.596957 0.434649
Si Si5 0.179564 0.956568 0.934506
Si Si6 0.051791 0.898132 0.068641
Si Si7 0.032137 0.807338 0.176670
Si Si8 0.297036 0.192335 0.836619
O O1 0.551945 0.997604 0.243870
O O2 0.459470 0.003078 0.096416
O O3 0.697170 0.041835 0.129409
O O4 0.669432 0.944965 0.129107
O O5 0.213847 0.471231 0.140600
O O6 0.093696 0.558605 0.130968
O O7 0.952462 0.479209 0.110541
O O8 0.341177 0.078965 0.019351
O O9 0.238940 0.994155 0.001808
O O10 0.385653 0.596805 0.442293
O O11 0.174586 0.650883 0.403186
O O12 0.129625 0.909618 0.985952
O O13 0.079702 0.845440 0.109042
O O14 0.060090 0.750000 0.155464
O O15 0.865873 0.813001 0.185660
O O16 0.109482 0.817608 0.259380
O O17 0.318836 0.250000 0.860905
#
# Coordination Sequence:
#
# PCOD9461459 Si02
#       8
#     8   8   8   8   8   8   8   8
#     4  11  21  28  44  69  93 115 155 195 220 265
#     4  11  18  31  46  64  89 125 153 182 223 271
#     4  10  19  31  44  64  91 122 149 191 226 261
#     4  10  17  31  45  64  89 122 152 182 221 267
#     4  10  18  33  44  61  89 123 151 181 227 265
#     4  10  17  30  49  61  86 126 155 174 220 275
#     4   9  18  32  47  67  91 116 150 190 224 260
#     4   9  18  32  48  66  91 118 151 190 224 260
#
# _framework density 14.662824000000001
#
# number of rings (size 3 to 8) (size 9 to 14) (size 15 to 20)
#    0.000    2.000    3.750    3.750    0.000    0.000 
#    9.000    0.000    0.000    0.000    0.000    0.000 
#    0.000    6.000    0.000    0.000    0.000    0.000 
#
# Total GULP energy -356348.112958 kJ/mol
# GULP energy per Si atom -5567.939265 kJ/mol
# Density = 1.462945 g / cm^3
# Si number density = 14.662824 Si / 1000 Ang^3
#
#
#
# Elastic Constant Matrix: (Units=GPa)
#
#
# Indices 1 2 3 4 5 6 
#
# 1 50.1501 16.4859 12.8864 0.0000 0.0000 0.0000
# 2 16.4859 60.3542 28.6500 0.0000 0.0000 0.0000
# 3 12.8864 28.6500 61.0687 0.0000 0.0000 0.0000
# 4 0.0000 0.0000 0.0000 26.5376 0.0000 0.0000
# 5 0.0000 0.0000 0.0000 0.0000 24.2777 0.0000
# 6 0.0000 0.0000 0.0000 0.0000 0.0000 13.9132
#
#
#
# Elastic Compliance Matrix: (Units=1/GPa)
#
#
# Indices 1 2 3 4 5 6 
#
# 1 0.022169 -0.004934 -0.002363 0.000000 0.000000 0.000000
# 2 -0.004934 0.022414 -0.009474 0.000000 0.000000 0.000000
# 3 -0.002363 -0.009474 0.021319 0.000000 0.000000 0.000000
# 4 0.000000 0.000000 0.000000 0.037682 0.000000 0.000000
# 5 0.000000 0.000000 0.000000 0.000000 0.041190 0.000000
# 6 0.000000 0.000000 0.000000 0.000000 0.000000 0.071874
#
#
# Mechanical properties :
#
#
# Convention : Reuss Voigt Hill
#
# Bulk Modulus (GPa) = 30.90337 31.95753 31.43045
# Shear Modulus (GPa) = 19.15875 20.51575 19.83725
#
# Velocity S-wave (km/s) = 3.61864 3.74460 3.68216
# Velocity P-wave (km/s) = 6.21138 6.36697 6.28965
#
# Compressibility (1/GPa) = 0.03235893
#
# Stress axis : x y z
#
# Youngs Moduli (GPa) = 45.10744 44.61515 46.90754
#
# Poissons Ratio (x) = 0.22012 0.11086
# Poissons Ratio (y) = 0.22254 0.44442
# Poissons Ratio (z) = 0.10661 0.42270
#
# Static dielectric constant tensor:
#      x y z
#    x 1.521190 0.000000 0.000000 
#    y 0.000000 1.488350 0.000000 
#    z 0.000000 0.000000 1.494520 
# 
# From -- ./inp_files/22645.got.cif
#   From: 2010.05.17/outbox.cif.g08.bks.cpg/sg62_12_cif.got.tgz:22645.got - 2010.06.03 15:25:27.
