data_PCOD9461393
_publ_section_title
;
Structure prediction by ZEFSAII (Michael W. Deem and Ramdas Pophale) SiO2 
 PCOD9461393
Probable space group: P N M A
;
_chemical_formula_sum "Si O2"
_cell_formula_units_Z 56
_cell_length_a 6.582435
_cell_length_b 10.687715
_cell_length_c 32.579402
_cell_angle_alpha 90.000000
_cell_angle_beta 90.000000
_cell_angle_gamma 90.000000
_cell_volume 2291.999677
_symmetry_space_group_name_H-M "P N M A"
_symmetry_group_IT_number 62
_symmetry_cell_setting 'orthorhombic'
loop_
_space_group_symop_operation_xyz
x,y,z
1/2-x,-y,1/2+z
1/2+x,1/2-y,1/2-z
-x,1/2+y,-z
-x,-y,-z
1/2+x,y,1/2-z
1/2-x,1/2+y,1/2+z
x,1/2-y,z
loop_
_atom_site_type_symbol
_atom_site_label
_atom_site_fract_x
_atom_site_fract_y
_atom_site_fract_z
Si Si1 0.384168 0.399998 0.944523
Si Si2 0.049681 0.499870 0.359938
Si Si3 0.924503 0.750000 0.314943
Si Si4 0.405372 0.388867 0.213880
Si Si5 0.732764 0.601183 0.967970
Si Si6 0.518999 0.516217 0.698923
Si Si7 0.892908 0.895808 0.885474
Si Si8 0.021251 0.250000 0.780368
O O1 0.431657 0.250000 0.938778
O O2 0.328301 0.465297 0.901378
O O3 0.573390 0.488368 0.958818
O O4 0.230800 0.404622 0.983237
O O5 0.991463 0.633374 0.341793
O O6 0.090471 0.421970 0.317221
O O7 0.843895 0.429511 0.375865
O O8 0.011247 0.750000 0.268451
O O9 0.684057 0.750000 0.306957
O O10 0.336077 0.250000 0.203005
O O11 0.227325 0.487162 0.205778
O O12 0.438450 0.394627 0.262363
O O13 0.664316 0.750000 0.960977
O O14 0.908174 0.580184 0.934161
O O15 0.525734 0.543929 0.650708
O O16 0.616375 0.382393 0.708233
O O17 0.928801 0.750000 0.879731
#
# Coordination Sequence:
#
# PCOD9461393 Si02
#       8
#     8   8   4   8   8   8   8   4
#     4   9  15  23  39  57  83 112 148 183 223 271
#     4  10  17  27  42  62  84 119 151 186 224 272
#     4  12  20  32  46  64  96 122 158 190 228 275
#     4  11  21  33  47  67  91 123 156 189 229 273
#     4   8  15  25  36  57  83 114 146 183 222 273
#     4  11  20  32  48  66  91 122 152 191 227 273
#     4   9  16  27  42  60  86 117 153 182 225 273
#     4  12  20  34  46  68  90 124 158 194 234 269
#
# _framework density 24.432815000000002
#
# number of rings (size 3 to 8) (size 9 to 14) (size 15 to 20)
#    0.000    2.000    5.000    2.571    0.000    0.571 
#    0.000    0.000    0.000    0.000    0.000    0.000 
#    0.000    1.143    0.000    1.857    1.143    0.714 
#
# Total GULP energy -311762.686102 kJ/mol
# GULP energy per Si atom -5567.190823 kJ/mol
# Density = 2.437720 g / cm^3
# Si number density = 24.432815 Si / 1000 Ang^3
#
#
#
# Elastic Constant Matrix: (Units=GPa)
#
#
# Indices 1 2 3 4 5 6 
#
# 1 27.4240 15.4978 35.9557 0.0000 0.0000 0.0000
# 2 15.4978 129.6555 44.6527 0.0000 0.0000 0.0000
# 3 35.9557 44.6527 204.5855 0.0000 0.0000 0.0000
# 4 0.0000 0.0000 0.0000 44.7332 0.0000 0.0000
# 5 0.0000 0.0000 0.0000 0.0000 7.6972 0.0000
# 6 0.0000 0.0000 0.0000 0.0000 0.0000 19.6651
#
#
#
# Elastic Compliance Matrix: (Units=1/GPa)
#
#
# Indices 1 2 3 4 5 6 
#
# 1 0.048504 -0.003095 -0.007849 0.000000 0.000000 0.000000
# 2 -0.003095 0.008537 -0.001319 0.000000 0.000000 0.000000
# 3 -0.007849 -0.001319 0.006555 0.000000 0.000000 0.000000
# 4 0.000000 0.000000 0.000000 0.022355 0.000000 0.000000
# 5 0.000000 0.000000 0.000000 0.000000 0.129917 0.000000
# 6 0.000000 0.000000 0.000000 0.000000 0.000000 0.050851
#
#
# Mechanical properties :
#
#
# Convention : Reuss Voigt Hill
#
# Bulk Modulus (GPa) = 25.59478 61.54193 43.56835
# Shear Modulus (GPa) = 16.43277 32.12303 24.27790
#
# Velocity S-wave (km/s) = 2.59621 3.62988 3.15566
# Velocity P-wave (km/s) = 4.41422 6.54301 5.58105
#
# Compressibility (1/GPa) = 0.03907047
#
# Stress axis : x y z
#
# Youngs Moduli (GPa) = 20.61674 117.13658 152.54606
#
# Poissons Ratio (x) = 0.36248 1.19736
# Poissons Ratio (y) = 0.06380 0.20127
# Poissons Ratio (z) = 0.16182 0.15455
#
# Static dielectric constant tensor:
#      x y z
#    x 2.068630 0.000000 0.000000 
#    y 0.000000 1.586890 0.000000 
#    z 0.000000 0.000000 2.060640 
# 
# From -- ./inp_files/31192.got.cif
#   From: 2010.05.17/outbox.cif.g08.bks.cpg/sg62_16_cif.got.tgz:31192.got - 2010.06.03 15:25:27.
