data_PCOD9461897
_publ_section_title
;
Structure prediction by ZEFSAII (Michael W. Deem and Ramdas Pophale) SiO2 
 PCOD9461897
Probable space group: P N M A
;
_chemical_formula_sum "Si O2"
_cell_formula_units_Z 36
_cell_length_a 7.322976
_cell_length_b 14.612813
_cell_length_c 13.044160
_cell_angle_alpha 90.000000
_cell_angle_beta 90.000000
_cell_angle_gamma 90.000000
_cell_volume 1395.846155
_symmetry_space_group_name_H-M "P N M A"
_symmetry_group_IT_number 62
_symmetry_cell_setting 'orthorhombic'
loop_
_space_group_symop_operation_xyz
x,y,z
1/2-x,-y,1/2+z
1/2+x,1/2-y,1/2-z
-x,1/2+y,-z
-x,-y,-z
1/2+x,y,1/2-z
1/2-x,1/2+y,1/2+z
x,1/2-y,z
loop_
_atom_site_type_symbol
_atom_site_label
_atom_site_fract_x
_atom_site_fract_y
_atom_site_fract_z
Si Si1 0.304735 0.750000 0.467499
Si Si2 0.088687 0.851835 0.151303
Si Si3 0.906294 0.750000 0.534671
Si Si4 0.090584 0.033441 0.701038
Si Si5 0.223318 0.408091 0.352887
Si Si6 0.733004 0.750000 0.810692
O O1 0.408322 0.663929 0.417331
O O2 0.083667 0.750000 0.461105
O O3 0.354841 0.750000 0.588033
O O4 0.177312 0.750000 0.148057
O O5 0.231750 0.934289 0.140540
O O6 0.014465 0.875408 0.264900
O O7 0.031330 0.750000 0.639974
O O8 0.779544 0.839587 0.549936
O O9 0.136243 0.984191 0.810797
O O10 0.964590 0.964087 0.640043
O O11 0.237888 0.339606 0.255841
#
# Coordination Sequence:
#
# PCOD9461897 Si02
#       6
#     4   8   4   8   8   4
#     4   8  18  34  52  74 100 144 166 200 260 310
#     4   9  19  33  55  73 102 134 173 209 257 294
#     4   9  17  33  51  73 103 132 166 205 252 304
#     4  10  18  31  51  83  97 129 175 215 243 297
#     4  10  18  31  54  78 101 130 170 212 249 297
#     4   9  17  33  53  75 101 136 162 205 254 310
#
# _framework density 25.790807999999998
#
# number of rings (size 3 to 8) (size 9 to 14) (size 15 to 20)
#    1.333    1.333    2.222    0.667    0.000    0.000 
#    0.000   11.111    0.000    8.000    0.000    0.000 
#    0.000    0.000    0.000    0.000    0.000    0.000 
#
# Total GULP energy -200500.172580 kJ/mol
# GULP energy per Si atom -5569.449238 kJ/mol
# Density = 2.573211 g / cm^3
# Si number density = 25.790808 Si / 1000 Ang^3
#
#
#
# Elastic Constant Matrix: (Units=GPa)
#
#
# Indices 1 2 3 4 5 6 
#
# 1 39.6942 -0.5873 3.6166 0.0000 0.0000 0.0000
# 2 -0.5873 97.6091 29.0468 0.0000 0.0000 0.0000
# 3 3.6166 29.0468 53.2077 0.0000 0.0000 0.0000
# 4 0.0000 0.0000 0.0000 12.1857 0.0000 0.0000
# 5 0.0000 0.0000 0.0000 0.0000 28.0139 0.0000
# 6 0.0000 0.0000 0.0000 0.0000 0.0000 58.2850
#
#
#
# Elastic Compliance Matrix: (Units=1/GPa)
#
#
# Indices 1 2 3 4 5 6 
#
# 1 0.025401 0.000796 -0.002161 0.000000 0.000000 0.000000
# 2 0.000796 0.012257 -0.006745 0.000000 0.000000 0.000000
# 3 -0.002161 -0.006745 0.022624 0.000000 0.000000 0.000000
# 4 0.000000 0.000000 0.000000 0.082063 0.000000 0.000000
# 5 0.000000 0.000000 0.000000 0.000000 0.035697 0.000000
# 6 0.000000 0.000000 0.000000 0.000000 0.000000 0.017157
#
#
# Mechanical properties :
#
#
# Convention : Reuss Voigt Hill
#
# Bulk Modulus (GPa) = 22.69590 28.29593 25.49591
# Shear Modulus (GPa) = 22.11346 30.25925 26.18636
#
# Velocity S-wave (km/s) = 2.93134 3.42900 3.18989
# Velocity P-wave (km/s) = 4.50290 5.16455 4.84503
#
# Compressibility (1/GPa) = 0.04406082
#
# Stress axis : x y z
#
# Youngs Moduli (GPa) = 39.36813 81.58571 44.20172
#
# Poissons Ratio (x) = -0.06494 0.09552
# Poissons Ratio (y) = -0.03133 0.29816
# Poissons Ratio (z) = 0.08508 0.55033
#
# Static dielectric constant tensor:
#      x y z
#    x 2.072520 0.000000 0.000000 
#    y 0.000000 2.030550 0.000000 
#    z 0.000000 0.000000 2.073930 
# 
# From -- ./inp_files/16633.got.cif
#   From: 2010.05.17/outbox.cif.g08.bks.cpg/sg62_9_cif.got.tgz:16633.got - 2010.06.03 15:25:27.
