data_PCOD9461472
_publ_section_title
;
Structure prediction by ZEFSAII (Michael W. Deem and Ramdas Pophale) SiO2 
 PCOD9461472
Probable space group: P N M A
;
_chemical_formula_sum "Si O2"
_cell_formula_units_Z 64
_cell_length_a 20.738034
_cell_length_b 7.644866
_cell_length_c 16.909976
_cell_angle_alpha 90.000000
_cell_angle_beta 90.000000
_cell_angle_gamma 90.000000
_cell_volume 2680.898988
_symmetry_space_group_name_H-M "P N M A"
_symmetry_group_IT_number 62
_symmetry_cell_setting 'orthorhombic'
loop_
_space_group_symop_operation_xyz
x,y,z
1/2-x,-y,1/2+z
1/2+x,1/2-y,1/2-z
-x,1/2+y,-z
-x,-y,-z
1/2+x,y,1/2-z
1/2-x,1/2+y,1/2+z
x,1/2-y,z
loop_
_atom_site_type_symbol
_atom_site_label
_atom_site_fract_x
_atom_site_fract_y
_atom_site_fract_z
Si Si1 0.102025 0.049858 0.214548
Si Si2 0.641925 0.464000 0.123167
Si Si3 0.892118 0.959109 0.281105
Si Si4 0.522716 0.044347 0.636337
Si Si5 0.646036 0.464275 0.945988
Si Si6 0.714579 0.948314 0.386506
Si Si7 0.878868 0.948947 0.021198
Si Si8 0.288163 0.040892 0.337344
O O1 0.082732 0.250000 0.219469
O O2 0.099359 0.972483 0.302891
O O3 0.052614 0.969880 0.152150
O O4 0.175344 0.041098 0.183256
O O5 0.639321 0.250000 0.124111
O O6 0.715343 0.512732 0.144972
O O7 0.627416 0.522471 0.033990
O O8 0.899840 0.750000 0.283535
O O9 0.896741 0.021932 0.371259
O O10 0.941888 0.027869 0.215322
O O11 0.820696 0.998911 0.246824
O O12 0.538192 0.250000 0.631296
O O13 0.555475 0.970423 0.557106
O O14 0.646559 0.250000 0.948233
O O15 0.719119 0.519368 0.923153
O O16 0.726817 0.750000 0.360641
O O17 0.662938 0.949908 0.457628
O O18 0.887887 0.750000 0.990625
O O19 0.833843 0.948576 0.099017
O O20 0.291952 0.250000 0.349057
#
# Coordination Sequence:
#
# PCOD9461472 Si02
#       8
#     8   8   8   8   8   8   8   8
#     4  11  23  37  55  78 108 147 186 228 270 319
#     4   9  18  33  53  79 110 142 177 218 274 329
#     4   9  18  33  56  80 104 140 183 225 265 316
#     4   9  20  38  55  75 106 144 188 228 264 314
#     4   9  17  33  57  84 111 140 176 217 272 331
#     4  11  21  35  58  85 115 144 175 220 275 333
#     4  10  20  35  56  82 111 143 180 222 267 319
#     4  10  17  30  53  79 110 141 172 215 269 326
#
# _framework density 23.872589000000001
#
# number of rings (size 3 to 8) (size 9 to 14) (size 15 to 20)
#    0.000    2.250    1.250    3.000    0.000    3.000 
#    0.000    3.125    0.000    0.000    0.000    0.000 
#    0.000    0.000    0.000    0.000    0.000    0.000 
#
# Total GULP energy -357388.008880 kJ/mol
# GULP energy per Si atom -5584.187639 kJ/mol
# Density = 2.381825 g / cm^3
# Si number density = 23.872589 Si / 1000 Ang^3
#
#
#
# Elastic Constant Matrix: (Units=GPa)
#
#
# Indices 1 2 3 4 5 6 
#
# 1 30.3700 -1.2670 -22.9462 0.0000 0.0000 0.0000
# 2 -1.2670 56.0617 -4.6507 0.0000 0.0000 0.0000
# 3 -22.9462 -4.6507 73.7174 0.0000 0.0000 0.0000
# 4 0.0000 0.0000 0.0000 14.6573 0.0000 0.0000
# 5 0.0000 0.0000 0.0000 0.0000 31.2559 0.0000
# 6 0.0000 0.0000 0.0000 0.0000 0.0000 12.1207
#
#
#
# Elastic Compliance Matrix: (Units=1/GPa)
#
#
# Indices 1 2 3 4 5 6 
#
# 1 0.043299 0.002108 0.013611 0.000000 0.000000 0.000000
# 2 0.002108 0.018034 0.001794 0.000000 0.000000 0.000000
# 3 0.013611 0.001794 0.017915 0.000000 0.000000 0.000000
# 4 0.000000 0.000000 0.000000 0.068225 0.000000 0.000000
# 5 0.000000 0.000000 0.000000 0.000000 0.031994 0.000000
# 6 0.000000 0.000000 0.000000 0.000000 0.000000 0.082503
#
#
# Mechanical properties :
#
#
# Convention : Reuss Voigt Hill
#
# Bulk Modulus (GPa) = 8.75103 11.38014 10.06559
# Shear Modulus (GPa) = 18.86529 24.20766 21.53647
#
# Velocity S-wave (km/s) = 2.81419 3.18785 3.00683
# Velocity P-wave (km/s) = 3.77269 4.28103 4.03487
#
# Compressibility (1/GPa) = 0.11427220
#
# Stress axis : x y z
#
# Youngs Moduli (GPa) = 23.09532 55.45105 55.81877
#
# Poissons Ratio (x) = -0.11687 -0.75973
# Poissons Ratio (y) = -0.04868 -0.10013
# Poissons Ratio (z) = -0.31434 -0.09947
#
# Static dielectric constant tensor:
#      x y z
#    x 1.907360 0.000000 0.000000 
#    y 0.000000 1.867070 0.000000 
#    z 0.000000 0.000000 1.961740 
# 
# From -- ./inp_files/20989.got.cif
#   From: 2010.05.17/outbox.cif.g08.bks.cpg/sg62_11_cif.got.tgz:20989.got - 2010.06.03 15:25:27.
