data_PCOD9461499
_publ_section_title
;
Structure prediction by ZEFSAII (Michael W. Deem and Ramdas Pophale) SiO2 
 PCOD9461499
Probable space group: P N M A
;
_chemical_formula_sum "Si O2"
_cell_formula_units_Z 52
_cell_length_a 8.664936
_cell_length_b 14.335983
_cell_length_c 15.798821
_cell_angle_alpha 90.000000
_cell_angle_beta 90.000000
_cell_angle_gamma 90.000000
_cell_volume 1962.535472
_symmetry_space_group_name_H-M "P N M A"
_symmetry_group_IT_number 62
_symmetry_cell_setting 'orthorhombic'
loop_
_space_group_symop_operation_xyz
x,y,z
1/2-x,-y,1/2+z
1/2+x,1/2-y,1/2-z
-x,1/2+y,-z
-x,-y,-z
1/2+x,y,1/2-z
1/2-x,1/2+y,1/2+z
x,1/2-y,z
loop_
_atom_site_type_symbol
_atom_site_label
_atom_site_fract_x
_atom_site_fract_y
_atom_site_fract_z
Si Si1 0.243296 0.101938 0.082981
Si Si2 0.003034 0.587522 0.697736
Si Si3 0.290841 0.382297 0.622891
Si Si4 0.607277 0.876727 0.562859
Si Si5 0.089050 0.393721 0.771343
Si Si6 0.794768 0.450812 0.591867
Si Si7 0.278971 0.750000 0.798858
O O1 0.356806 0.142817 0.153592
O O2 0.221925 0.994954 0.114381
O O3 0.074603 0.141312 0.065551
O O4 0.334638 0.101503 0.993813
O O5 0.918323 0.525200 0.625127
O O6 0.894349 0.666022 0.735522
O O7 0.058423 0.505054 0.758564
O O8 0.315388 0.349126 0.527040
O O9 0.141296 0.356616 0.679448
O O10 0.441595 0.357697 0.678211
O O11 0.644788 0.987168 0.567169
O O12 0.687354 0.828831 0.642488
O O13 0.238240 0.386713 0.831902
#
# Coordination Sequence:
#
# PCOD9461499 Si02
#       7
#     8   8   8   8   8   8   4
#     4  10  18  32  59  84 109 145 198 245 291 336
#     4  10  22  34  53  81 122 154 188 235 295 356
#     4  10  19  32  55  89 115 142 179 248 305 346
#     4  10  19  36  58  78 111 154 202 233 272 342
#     4  11  18  31  56  86 121 138 177 243 314 348
#     4  10  17  32  54  87 116 139 179 251 302 344
#     4  10  24  42  52  76 118 164 204 226 264 352
#
# _framework density 26.496338000000002
#
# number of rings (size 3 to 8) (size 9 to 14) (size 15 to 20)
#    0.000    1.846    4.615    1.385    0.000    1.846 
#    0.000    3.077    0.000    0.923    0.000    0.000 
#    0.000    0.000    0.000    0.000    0.000    0.000 
#
# Total GULP energy -289891.811199 kJ/mol
# GULP energy per Si atom -5574.842523 kJ/mol
# Density = 2.643603 g / cm^3
# Si number density = 26.496338 Si / 1000 Ang^3
#
#
#
# Elastic Constant Matrix: (Units=GPa)
#
#
# Indices 1 2 3 4 5 6 
#
# 1 87.0144 -4.0998 43.8221 0.0000 0.0000 0.0000
# 2 -4.0998 91.7325 -5.9425 0.0000 0.0000 0.0000
# 3 43.8221 -5.9425 122.9816 0.0000 0.0000 0.0000
# 4 0.0000 0.0000 0.0000 -9.1186 0.0000 0.0000
# 5 0.0000 0.0000 0.0000 0.0000 56.8080 0.0000
# 6 0.0000 0.0000 0.0000 0.0000 0.0000 -14.0030
#
#
#
# Elastic Compliance Matrix: (Units=1/GPa)
#
#
# Indices 1 2 3 4 5 6 
#
# 1 0.014014 0.000304 -0.004979 0.000000 0.000000 0.000000
# 2 0.000304 0.010942 0.000420 0.000000 0.000000 0.000000
# 3 -0.004979 0.000420 0.009926 0.000000 0.000000 0.000000
# 4 0.000000 0.000000 0.000000 -0.109666 0.000000 0.000000
# 5 0.000000 0.000000 0.000000 0.000000 0.017603 0.000000
# 6 0.000000 0.000000 0.000000 0.000000 0.000000 -0.071413
#
#
# Mechanical properties :
#
#
# Convention : Reuss Voigt Hill
#
# Bulk Modulus (GPa) = 37.91818 41.03201 39.47510
# Shear Modulus (GPa) = -44.92611 24.60054 -10.16278
#
# Velocity S-wave (km/s) = -4.12218 3.05035 -1.96058
# Velocity P-wave (km/s) = 2.88353 5.28448 3.13137
#
# Compressibility (1/GPa) = 0.02637257
#
# Stress axis : x y z
#
# Youngs Moduli (GPa) = 71.35629 91.39037 100.74774
#
# Poissons Ratio (x) = -0.02776 0.50162
# Poissons Ratio (y) = -0.02168 -0.04236
# Poissons Ratio (z) = 0.35528 -0.03843
#
# Static dielectric constant tensor:
#      x y z
#    x 2.128680 0.000000 0.000000 
#    y 0.000000 2.091680 0.000000 
#    z 0.000000 0.000000 2.122950 
# 
# From -- ./inp_files/22401.got.cif
#   From: 2010.05.17/outbox.cif.g08.bks.cpg/sg62_12_cif.got.tgz:22401.got - 2010.06.03 15:25:27.
