data_PCOD9461323
_publ_section_title
;
Structure prediction by ZEFSAII (Michael W. Deem and Ramdas Pophale) SiO2 
 PCOD9461323
Probable space group: P N M A
;
_chemical_formula_sum "Si O2"
_cell_formula_units_Z 44
_cell_length_a 7.881901
_cell_length_b 24.816843
_cell_length_c 9.398999
_cell_angle_alpha 90.000000
_cell_angle_beta 90.000000
_cell_angle_gamma 90.000000
_cell_volume 1838.480857
_symmetry_space_group_name_H-M "P N M A"
_symmetry_group_IT_number 62
_symmetry_cell_setting 'orthorhombic'
loop_
_space_group_symop_operation_xyz
x,y,z
1/2-x,-y,1/2+z
1/2+x,1/2-y,1/2-z
-x,1/2+y,-z
-x,-y,-z
1/2+x,y,1/2-z
1/2-x,1/2+y,1/2+z
x,1/2-y,z
loop_
_atom_site_type_symbol
_atom_site_label
_atom_site_fract_x
_atom_site_fract_y
_atom_site_fract_z
Si Si1 0.292183 0.366533 0.057769
Si Si2 0.914360 0.250000 0.784908
Si Si3 0.209708 0.250000 0.436097
Si Si4 0.679770 0.368618 0.053997
Si Si5 0.510593 0.563413 0.515294
Si Si6 0.184048 0.750000 0.544493
Si Si7 0.611919 0.138330 0.717823
O O1 0.485121 0.375285 0.104439
O O2 0.233491 0.305538 0.092302
O O3 0.279148 0.365159 0.884000
O O4 0.151794 0.410534 0.096363
O O5 0.761026 0.250000 0.897205
O O6 0.847618 0.250000 0.624572
O O7 0.020008 0.304549 0.810503
O O8 0.260152 0.188788 0.396457
O O9 0.010011 0.250000 0.403287
O O10 0.814694 0.415226 0.082111
O O11 0.654646 0.366320 0.882404
O O12 0.500000 0.500000 0.500000
O O13 0.494164 0.590824 0.358397
#
# Coordination Sequence:
#
# PCOD9461323 Si02
#       7
#     8   4   4   8   8   4   8
#     4   9  19  27  43  61  88 120 150 180 226 257
#     4  12  15  24  44  71 104 120 136 186 225 274
#     4  10  16  22  40  72  96 116 134 179 224 272
#     4  11  17  31  46  66  91 120 154 189 221 269
#     4  10  23  33  41  58  89 128 167 189 216 255
#     4  10  17  22  38  69  96 106 146 175 219 276
#     4  10  18  28  44  67  95 120 154 184 225 261
#
# _framework density 23.932803
#
# number of rings (size 3 to 8) (size 9 to 14) (size 15 to 20)
#    1.091    0.727    5.455    2.727    0.000    1.455 
#    0.000    0.000    0.000    0.000    0.000    0.000 
#    0.000    0.000    0.000   14.727    0.000    0.727 
#
# Total GULP energy -245444.298455 kJ/mol
# GULP energy per Si atom -5578.279510 kJ/mol
# Density = 2.387833 g / cm^3
# Si number density = 23.932803 Si / 1000 Ang^3
#
#
#
# Elastic Constant Matrix: (Units=GPa)
#
#
# Indices 1 2 3 4 5 6 
#
# 1 141.0954 98.8883 5.4050 0.0000 0.0000 0.0000
# 2 98.8883 239.2239 6.9402 0.0000 0.0000 0.0000
# 3 5.4050 6.9402 116.1582 0.0000 0.0000 0.0000
# 4 0.0000 0.0000 0.0000 -4.0111 0.0000 0.0000
# 5 0.0000 0.0000 0.0000 0.0000 10.7761 0.0000
# 6 0.0000 0.0000 0.0000 0.0000 0.0000 26.2854
#
#
#
# Elastic Compliance Matrix: (Units=1/GPa)
#
#
# Indices 1 2 3 4 5 6 
#
# 1 0.009984 -0.004121 -0.000218 0.000000 0.000000 0.000000
# 2 -0.004121 0.005888 -0.000160 0.000000 0.000000 0.000000
# 3 -0.000218 -0.000160 0.008629 0.000000 0.000000 0.000000
# 4 0.000000 0.000000 0.000000 -0.249306 0.000000 0.000000
# 5 0.000000 0.000000 0.000000 0.000000 0.092798 0.000000
# 6 0.000000 0.000000 0.000000 0.000000 0.000000 0.038044
#
#
# Mechanical properties :
#
#
# Convention : Reuss Voigt Hill
#
# Bulk Modulus (GPa) = 64.50590 79.88272 72.19431
# Shear Modulus (GPa) = -62.65825 32.29301 -15.18262
#
# Velocity S-wave (km/s) = -5.12228 3.67729 -2.52143
# Velocity P-wave (km/s) = 2.82351 7.17498 4.66413
#
# Compressibility (1/GPa) = 0.01550246
#
# Stress axis : x y z
#
# Youngs Moduli (GPa) = 100.16236 169.83121 115.89267
#
# Poissons Ratio (x) = 0.69982 0.02531
# Poissons Ratio (y) = 0.41274 0.01855
# Poissons Ratio (z) = 0.02187 0.02718
#
# Static dielectric constant tensor:
#      x y z
#    x 2.002760 0.000000 0.000000 
#    y 0.000000 1.864560 0.000000 
#    z 0.000000 0.000000 2.020990 
# 
# From -- ./inp_files/11263.got.cif
#   From: 2010.05.17/outbox.cif.g08.bks.cpg/sg62_6_cif.got.tgz:11263.got - 2010.06.03 15:25:27.
