data_PCOD9461458
_publ_section_title
;
Structure prediction by ZEFSAII (Michael W. Deem and Ramdas Pophale) SiO2 
 PCOD9461458
Probable space group: P N M A
;
_chemical_formula_sum "Si O2"
_cell_formula_units_Z 48
_cell_length_a 10.012392
_cell_length_b 18.063081
_cell_length_c 14.674091
_cell_angle_alpha 90.000000
_cell_angle_beta 90.000000
_cell_angle_gamma 90.000000
_cell_volume 2653.877558
_symmetry_space_group_name_H-M "P N M A"
_symmetry_group_IT_number 62
_symmetry_cell_setting 'orthorhombic'
loop_
_space_group_symop_operation_xyz
x,y,z
1/2-x,-y,1/2+z
1/2+x,1/2-y,1/2-z
-x,1/2+y,-z
-x,-y,-z
1/2+x,y,1/2-z
1/2-x,1/2+y,1/2+z
x,1/2-y,z
loop_
_atom_site_type_symbol
_atom_site_label
_atom_site_fract_x
_atom_site_fract_y
_atom_site_fract_z
Si Si1 0.045238 0.049497 0.414258
Si Si2 0.809691 0.452916 0.738175
Si Si3 0.457863 0.939261 0.361861
Si Si4 0.243601 0.667857 0.877835
Si Si5 0.977940 0.604054 0.928703
Si Si6 0.216222 0.897023 0.676298
O O1 0.167608 0.106105 0.428792
O O2 0.925951 0.099592 0.373071
O O3 0.098795 0.993287 0.337374
O O4 0.000000 0.000000 0.500000
O O5 0.681824 0.419089 0.686738
O O6 0.744860 0.517161 0.799914
O O7 0.914985 0.411674 0.803312
O O8 0.461477 0.913112 0.465388
O O9 0.473628 0.029373 0.373572
O O10 0.299579 0.750000 0.887242
O O11 0.229393 0.646337 0.771105
O O12 0.094497 0.662281 0.915317
O O13 0.836737 0.627708 0.887905
#
# Coordination Sequence:
#
# PCOD9461458 Si02
#       6
#     8   8   8   8   8   8
#     4  11  21  33  53  84 120 151 199 246 290 341
#     4  10  17  30  48  78 110 143 178 234 297 334
#     4  10  18  30  50  76 110 137 186 237 288 331
#     4  11  23  38  55  80 118 161 193 231 301 373
#     4  10  20  32  51  77 107 148 189 233 278 342
#     4  10  19  33  50  79 113 150 190 229 282 343
#
# _framework density 18.086742000000001
#
# number of rings (size 3 to 8) (size 9 to 14) (size 15 to 20)
#    0.000    1.667    5.000    3.000    4.667    2.667 
#    0.000    0.000    0.000    0.000    0.000    4.667 
#    0.000    0.000    0.000    0.000    0.000    0.000 
#
# Total GULP energy -267559.199417 kJ/mol
# GULP energy per Si atom -5574.149988 kJ/mol
# Density = 1.804558 g / cm^3
# Si number density = 18.086742 Si / 1000 Ang^3
#
#
#
# Elastic Constant Matrix: (Units=GPa)
#
#
# Indices 1 2 3 4 5 6 
#
# 1 117.6845 2.7776 41.9703 0.0000 0.0000 0.0000
# 2 2.7776 28.9670 11.0380 0.0000 0.0000 0.0000
# 3 41.9703 11.0380 64.8552 0.0000 0.0000 0.0000
# 4 0.0000 0.0000 0.0000 5.0077 0.0000 0.0000
# 5 0.0000 0.0000 0.0000 0.0000 27.8719 0.0000
# 6 0.0000 0.0000 0.0000 0.0000 0.0000 4.7400
#
#
#
# Elastic Compliance Matrix: (Units=1/GPa)
#
#
# Indices 1 2 3 4 5 6 
#
# 1 0.011133 0.001794 -0.007510 0.000000 0.000000 0.000000
# 2 0.001794 0.037205 -0.007493 0.000000 0.000000 0.000000
# 3 -0.007510 -0.007493 0.021554 0.000000 0.000000 0.000000
# 4 0.000000 0.000000 0.000000 0.199694 0.000000 0.000000
# 5 0.000000 0.000000 0.000000 0.000000 0.035878 0.000000
# 6 0.000000 0.000000 0.000000 0.000000 0.000000 0.210970
#
#
# Mechanical properties :
#
#
# Convention : Reuss Voigt Hill
#
# Bulk Modulus (GPa) = 23.00191 35.89762 29.44976
# Shear Modulus (GPa) = 8.97110 17.90529 13.43819
#
# Velocity S-wave (km/s) = 2.22953 3.14979 2.72873
# Velocity P-wave (km/s) = 4.40147 5.75489 5.12307
#
# Compressibility (1/GPa) = 0.04347466
#
# Stress axis : x y z
#
# Youngs Moduli (GPa) = 89.82040 26.87785 46.39427
#
# Poissons Ratio (x) = -0.04822 0.34843
# Poissons Ratio (y) = -0.16116 0.34764
# Poissons Ratio (z) = 0.67457 0.20140
#
# Static dielectric constant tensor:
#      x y z
#    x 1.668490 0.000000 0.000000 
#    y 0.000000 1.632920 0.000000 
#    z 0.000000 0.000000 1.621710 
# 
# From -- ./inp_files/16945.got.cif
#   From: 2010.05.17/outbox.cif.g08.bks.cpg/sg62_9_cif.got.tgz:16945.got - 2010.06.03 15:25:27.
