data_PCOD9461746
_publ_section_title
;
Structure prediction by ZEFSAII (Michael W. Deem and Ramdas Pophale) SiO2 
 PCOD9461746
Probable space group: P N M A
;
_chemical_formula_sum "Si O2"
_cell_formula_units_Z 48
_cell_length_a 13.764943
_cell_length_b 17.940169
_cell_length_c 7.616344
_cell_angle_alpha 90.000000
_cell_angle_beta 90.000000
_cell_angle_gamma 90.000000
_cell_volume 1880.821144
_symmetry_space_group_name_H-M "P N M A"
_symmetry_group_IT_number 62
_symmetry_cell_setting 'orthorhombic'
loop_
_space_group_symop_operation_xyz
x,y,z
1/2-x,-y,1/2+z
1/2+x,1/2-y,1/2-z
-x,1/2+y,-z
-x,-y,-z
1/2+x,y,1/2-z
1/2-x,1/2+y,1/2+z
x,1/2-y,z
loop_
_atom_site_type_symbol
_atom_site_label
_atom_site_fract_x
_atom_site_fract_y
_atom_site_fract_z
Si Si1 0.488626 0.839831 0.389633
Si Si2 0.319371 0.959089 0.714291
Si Si3 0.070923 0.566753 0.437419
Si Si4 0.154585 0.920461 0.945633
Si Si5 0.042079 0.167157 0.346640
Si Si6 0.311151 0.668595 0.175714
O O1 0.503482 0.750000 0.371657
O O2 0.555974 0.871467 0.549072
O O3 0.372786 0.850904 0.350458
O O4 0.535595 0.890930 0.237207
O O5 0.210152 0.933720 0.760970
O O6 0.337632 0.019439 0.872613
O O7 0.389014 0.888710 0.741134
O O8 0.356823 0.999872 0.539825
O O9 0.000000 0.500000 0.500000
O O10 0.056564 0.630514 0.581777
O O11 0.231360 0.881643 0.080796
O O12 0.033788 0.250000 0.271217
O O13 0.105875 0.174086 0.526834
O O14 0.266281 0.750000 0.205348
#
# Coordination Sequence:
#
# PCOD9461746 Si02
#       6
#     8   8   8   8   8   8
#     4   9  16  26  44  69  91 113 149 191 224 258
#     4   9  18  28  43  65  90 116 146 180 220 267
#     4   8  13  23  40  65  90 108 134 181 229 261
#     4  10  18  30  45  66  91 119 146 181 223 263
#     4   8  13  24  44  66  85 109 146 190 227 256
#     4   8  14  25  43  67  90 111 142 185 224 257
#
# _framework density 25.520768
#
# number of rings (size 3 to 8) (size 9 to 14) (size 15 to 20)
#    0.000    3.333    0.000    3.000    0.000    0.667 
#    0.000    0.833    0.000    6.000    0.000    2.333 
#    0.000    0.000    0.000    0.000    0.000    0.000 
#
# Total GULP energy -267484.987866 kJ/mol
# GULP energy per Si atom -5572.603914 kJ/mol
# Density = 2.546268 g / cm^3
# Si number density = 25.520768 Si / 1000 Ang^3
#
#
#
# Elastic Constant Matrix: (Units=GPa)
#
#
# Indices 1 2 3 4 5 6 
#
# 1 54.4286 21.6517 4.5816 0.0000 0.0000 0.0000
# 2 21.6517 162.1134 19.5672 0.0000 0.0000 0.0000
# 3 4.5816 19.5672 61.2086 0.0000 0.0000 0.0000
# 4 0.0000 0.0000 0.0000 25.0526 0.0000 0.0000
# 5 0.0000 0.0000 0.0000 0.0000 43.6392 0.0000
# 6 0.0000 0.0000 0.0000 0.0000 0.0000 33.2998
#
#
#
# Elastic Compliance Matrix: (Units=1/GPa)
#
#
# Indices 1 2 3 4 5 6 
#
# 1 0.019428 -0.002516 -0.000650 0.000000 0.000000 0.000000
# 2 -0.002516 0.006742 -0.001967 0.000000 0.000000 0.000000
# 3 -0.000650 -0.001967 0.017015 0.000000 0.000000 0.000000
# 4 0.000000 0.000000 0.000000 0.039916 0.000000 0.000000
# 5 0.000000 0.000000 0.000000 0.000000 0.022915 0.000000
# 6 0.000000 0.000000 0.000000 0.000000 0.000000 0.030030
#
#
# Mechanical properties :
#
#
# Convention : Reuss Voigt Hill
#
# Bulk Modulus (GPa) = 30.37749 41.03908 35.70828
# Shear Modulus (GPa) = 31.78915 35.86163 33.82539
#
# Velocity S-wave (km/s) = 3.53316 3.75266 3.64456
# Velocity P-wave (km/s) = 5.34539 5.90696 5.63318
#
# Compressibility (1/GPa) = 0.03291911
#
# Stress axis : x y z
#
# Youngs Moduli (GPa) = 51.47102 148.32350 58.77160
#
# Poissons Ratio (x) = 0.37324 0.03819
# Poissons Ratio (y) = 0.12952 0.11560
# Poissons Ratio (z) = 0.03345 0.29174
#
# Static dielectric constant tensor:
#      x y z
#    x 2.055670 0.000000 0.000000 
#    y 0.000000 1.727810 0.000000 
#    z 0.000000 0.000000 2.175170 
# 
# From -- ./inp_files/13449.got.cif
#   From: 2010.05.17/outbox.cif.g08.bks.cpg/sg62_7_cif.got.tgz:13449.got - 2010.06.03 15:25:27.
