data_PCOD9461264
_publ_section_title
;
Structure prediction by ZEFSAII (Michael W. Deem and Ramdas Pophale) SiO2 
 PCOD9461264
Probable space group: P B C A
;
_chemical_formula_sum "Si O2"
_cell_formula_units_Z 48
_cell_length_a 9.000000
_cell_length_b 30.000000
_cell_length_c 9.000000
_cell_angle_alpha 90.000000
_cell_angle_beta 90.000000
_cell_angle_gamma 90.000000
_cell_volume 2430.000000
_symmetry_space_group_name_H-M "P B C A"
_symmetry_group_IT_number 61
_symmetry_cell_setting 'orthorhombic'
loop_
_space_group_symop_operation_xyz
x,y,z
1/2-x,-y,1/2+z
1/2+x,1/2-y,-z
-x,1/2+y,1/2-z
-x,-y,-z
1/2+x,y,1/2-z
1/2-x,1/2+y,z
x,1/2-y,1/2+z
loop_
_atom_site_type_symbol
_atom_site_label
_atom_site_fract_x
_atom_site_fract_y
_atom_site_fract_z
Si Si1 0.666329 0.964190 0.581142
Si Si2 0.893242 0.202274 0.449238
Si Si3 0.099224 0.512766 0.749344
Si Si4 0.541381 0.214581 0.374852
Si Si5 0.977551 0.123675 0.951101
Si Si6 0.674849 0.888061 0.139544
O O1 0.681026 0.979446 0.409391
O O2 0.590677 0.915354 0.557908
O O3 0.824223 0.972573 0.659630
O O4 0.558906 0.995847 0.682522
O O5 0.963361 0.240005 0.560991
O O6 0.991721 0.206009 0.297170
O O7 0.721417 0.214846 0.403393
O O8 0.886650 0.151963 0.527354
O O9 0.113464 0.559501 0.846099
O O10 0.486444 0.171046 0.466643
O O11 0.146749 0.110570 0.896325
O O12 0.871995 0.127643 0.805650
#
# Coordination Sequence:
#
# PCOD9461264 Si02
#       6
#     8   8   8   8   8   8
#     4  10  22  38  60  89 122 159 205 252 306 366
#     4  11  24  42  65  93 126 163 208 258 313 376
#     4  10  20  39  61  87 122 160 202 253 305 365
#     4  11  24  42  65  94 128 165 209 260 315 375
#     4  10  23  41  62  90 124 163 208 259 310 371
#     4  10  21  39  63  89 122 161 204 252 307 366
#
# _framework density 19.753086
#
# number of rings (size 3 to 8) (size 9 to 14) (size 15 to 20)
#    0.000    1.667    0.000    5.000    0.000   10.000 
#    0.000    5.000    0.000    0.000    0.000    0.000 
#    0.000    0.000    0.000    0.000    0.000    0.000 
#
# Total GULP energy -267621.632588 kJ/mol
# GULP energy per Si atom -5575.450679 kJ/mol
# Density = 1.970813 g / cm^3
# Si number density = 19.753086 Si / 1000 Ang^3
#
#
#
# Elastic Constant Matrix: (Units=GPa)
#
#
# Indices 1 2 3 4 5 6 
#
# 1 62.6173 34.3680 36.1968 0.0000 0.0000 0.0000
# 2 34.3680 128.5689 46.1772 0.0000 0.0000 0.0000
# 3 36.1968 46.1772 99.0604 0.0000 0.0000 0.0000
# 4 0.0000 0.0000 0.0000 57.4493 0.0000 0.0000
# 5 0.0000 0.0000 0.0000 0.0000 45.9630 0.0000
# 6 0.0000 0.0000 0.0000 0.0000 0.0000 39.4613
#
#
#
# Elastic Compliance Matrix: (Units=1/GPa)
#
#
# Indices 1 2 3 4 5 6 
#
# 1 0.021491 -0.003512 -0.006215 0.000000 0.000000 0.000000
# 2 -0.003512 0.009916 -0.003339 0.000000 0.000000 0.000000
# 3 -0.006215 -0.003339 0.013922 0.000000 0.000000 0.000000
# 4 0.000000 0.000000 0.000000 0.017407 0.000000 0.000000
# 5 0.000000 0.000000 0.000000 0.000000 0.021757 0.000000
# 6 0.000000 0.000000 0.000000 0.000000 0.000000 0.025341
#
#
# Mechanical properties :
#
#
# Convention : Reuss Voigt Hill
#
# Bulk Modulus (GPa) = 52.09505 58.19231 55.14368
# Shear Modulus (GPa) = 35.12076 40.14167 37.63122
#
# Velocity S-wave (km/s) = 4.22119 4.51285 4.36946
# Velocity P-wave (km/s) = 7.08437 7.52850 7.30981
#
# Compressibility (1/GPa) = 0.01919568
#
# Stress axis : x y z
#
# Youngs Moduli (GPa) = 46.53170 100.84646 71.82653
#
# Poissons Ratio (x) = 0.35421 0.44643
# Poissons Ratio (y) = 0.16344 0.23983
# Poissons Ratio (z) = 0.28921 0.33672
#
# Static dielectric constant tensor:
#      x y z
#    x 1.725640 0.000000 0.000000 
#    y 0.000000 1.724480 0.000000 
#    z 0.000000 0.000000 1.689290 
# 
# From -- ./inp_files/1858.got.cif
#   From: 2010.05.17/outbox.ucp.g08.bks.cvg/sg61_1_cif.got.tgz:1858.got - 2010.06.11 16:28:26.
