data_PCOD9461571
_publ_section_title
;
Structure prediction by ZEFSAII (Michael W. Deem and Ramdas Pophale) SiO2 
 PCOD9461571
Probable space group: P N M A
;
_chemical_formula_sum "Si O2"
_cell_formula_units_Z 56
_cell_length_a 30.519936
_cell_length_b 8.241071
_cell_length_c 14.184538
_cell_angle_alpha 90.000000
_cell_angle_beta 90.000000
_cell_angle_gamma 90.000000
_cell_volume 3567.651870
_symmetry_space_group_name_H-M "P N M A"
_symmetry_group_IT_number 62
_symmetry_cell_setting 'orthorhombic'
loop_
_space_group_symop_operation_xyz
x,y,z
1/2-x,-y,1/2+z
1/2+x,1/2-y,1/2-z
-x,1/2+y,-z
-x,-y,-z
1/2+x,y,1/2-z
1/2-x,1/2+y,1/2+z
x,1/2-y,z
loop_
_atom_site_type_symbol
_atom_site_label
_atom_site_fract_x
_atom_site_fract_y
_atom_site_fract_z
Si Si1 0.317742 0.445879 0.284689
Si Si2 0.095309 0.945905 0.887488
Si Si3 0.270265 0.553995 0.103640
Si Si4 0.229325 0.053970 0.389862
Si Si5 0.999782 0.554281 0.891137
Si Si6 0.682069 0.556294 0.291386
Si Si7 0.095737 0.444070 0.104339
O O1 0.318233 0.250000 0.287297
O O2 0.363610 0.506106 0.326810
O O3 0.306320 0.499070 0.178999
O O4 0.276717 0.500123 0.349571
O O5 0.095554 0.750000 0.882393
O O6 0.047051 0.003432 0.853655
O O7 0.100931 0.990545 0.997591
O O8 0.269543 0.750000 0.102807
O O9 0.223050 0.497894 0.144142
O O10 0.277165 0.497295 0.996817
O O11 0.229457 0.250000 0.390282
O O12 0.193491 0.997207 0.314533
O O13 0.000389 0.750000 0.886097
O O14 0.951897 0.499775 0.855996
O O15 0.000000 0.500000 0.000000
O O16 0.681839 0.750000 0.295571
O O17 0.636453 0.494752 0.332178
O O18 0.094673 0.250000 0.098093
#
# Coordination Sequence:
#
# PCOD9461571 Si02
#       7
#     8   8   8   8   8   8   8
#     4   9  17  28  44  64  85 110 141 171 204 246
#     4   9  16  28  44  62  87 117 143 171 207 249
#     4   9  18  31  45  61  85 113 141 173 209 247
#     4   9  17  30  44  60  84 112 140 172 205 241
#     4   8  15  26  40  59  84 112 141 170 205 247
#     4  10  19  30  44  63  85 112 143 172 206 250
#     4  10  18  27  41  63  88 114 143 175 208 246
#
# _framework density 15.696599000000001
#
# number of rings (size 3 to 8) (size 9 to 14) (size 15 to 20)
#    0.000    2.857    0.000    1.714    0.000    4.571 
#    0.000    2.857    0.000    0.000    0.000    1.000 
#    0.000    0.000    0.000    0.000    0.000    0.000 
#
# Total GULP energy -311819.703445 kJ/mol
# GULP energy per Si atom -5568.208990 kJ/mol
# Density = 1.566087 g / cm^3
# Si number density = 15.696599 Si / 1000 Ang^3
#
#
#
# Elastic Constant Matrix: (Units=GPa)
#
#
# Indices 1 2 3 4 5 6 
#
# 1 161.8320 12.1319 75.7357 0.0000 0.0000 0.0000
# 2 12.1319 2.3496 4.2357 0.0000 0.0000 0.0000
# 3 75.7357 4.2357 104.8032 0.0000 0.0000 0.0000
# 4 0.0000 0.0000 0.0000 20.7058 0.0000 0.0000
# 5 0.0000 0.0000 0.0000 0.0000 24.5885 0.0000
# 6 0.0000 0.0000 0.0000 0.0000 0.0000 14.8425
#
#
#
# Elastic Compliance Matrix: (Units=1/GPa)
#
#
# Indices 1 2 3 4 5 6 
#
# 1 0.014424 -0.060061 -0.007996 0.000000 0.000000 0.000000
# 2 -0.060061 0.709144 0.014742 0.000000 0.000000 0.000000
# 3 -0.007996 0.014742 0.014724 0.000000 0.000000 0.000000
# 4 0.000000 0.000000 0.000000 0.048296 0.000000 0.000000
# 5 0.000000 0.000000 0.000000 0.000000 0.040669 0.000000
# 6 0.000000 0.000000 0.000000 0.000000 0.000000 0.067374
#
#
# Mechanical properties :
#
#
# Convention : Reuss Voigt Hill
#
# Bulk Modulus (GPa) = 1.58312 50.35459 25.96886
# Shear Modulus (GPa) = 4.12604 23.81945 13.97275
#
# Velocity S-wave (km/s) = 1.62306 3.89973 2.98682
# Velocity P-wave (km/s) = 2.12678 7.24063 5.33619
#
# Compressibility (1/GPa) = 0.63166338
#
# Stress axis : x y z
#
# Youngs Moduli (GPa) = 69.33005 1.41015 67.91592
#
# Poissons Ratio (x) = 0.08469 0.54305
# Poissons Ratio (y) = 4.16402 -1.00124
# Poissons Ratio (z) = 0.55436 -0.02079
#
# Static dielectric constant tensor:
#      x y z
#    x 1.563530 0.000000 0.000000 
#    y 0.000000 1.545830 0.000000 
#    z 0.000000 0.000000 1.491470 
# 
# From -- ./inp_files/21172.got.cif
#   From: 2010.05.17/outbox.cif.g08.bks.cpg/sg62_11_cif.got.tgz:21172.got - 2010.06.03 15:25:27.
