data_PCOD9461719
_publ_section_title
;
Structure prediction by ZEFSAII (Michael W. Deem and Ramdas Pophale) SiO2 
 PCOD9461719
Probable space group: P N M A
;
_chemical_formula_sum "Si O2"
_cell_formula_units_Z 56
_cell_length_a 20.249026
_cell_length_b 7.315610
_cell_length_c 14.178110
_cell_angle_alpha 90.000000
_cell_angle_beta 90.000000
_cell_angle_gamma 90.000000
_cell_volume 2100.259822
_symmetry_space_group_name_H-M "P N M A"
_symmetry_group_IT_number 62
_symmetry_cell_setting 'orthorhombic'
loop_
_space_group_symop_operation_xyz
x,y,z
1/2-x,-y,1/2+z
1/2+x,1/2-y,1/2-z
-x,1/2+y,-z
-x,-y,-z
1/2+x,y,1/2-z
1/2-x,1/2+y,1/2+z
x,1/2-y,z
loop_
_atom_site_type_symbol
_atom_site_label
_atom_site_fract_x
_atom_site_fract_y
_atom_site_fract_z
Si Si1 0.929197 0.466990 0.953749
Si Si2 0.852787 0.971897 0.216049
Si Si3 0.209065 0.528701 0.280785
Si Si4 0.353691 0.967754 0.065363
Si Si5 0.494590 0.527051 0.280100
Si Si6 0.211094 0.970452 0.055622
Si Si7 0.077581 0.967183 0.384504
O O1 0.921177 0.250000 0.951899
O O2 0.945246 0.527650 0.847071
O O3 0.858184 0.540468 0.987244
O O4 0.000000 0.500000 0.000000
O O5 0.851345 0.750000 0.210819
O O6 0.780991 0.035633 0.182126
O O7 0.858401 0.026532 0.326632
O O8 0.924009 0.035847 0.179411
O O9 0.208445 0.750000 0.287017
O O10 0.206993 0.490562 0.168465
O O11 0.145204 0.460872 0.336313
O O12 0.348820 0.750000 0.071387
O O13 0.283277 0.039053 0.025113
O O14 0.413475 0.003593 0.995029
O O15 0.490751 0.750000 0.281734
O O16 0.514915 0.467241 0.175365
O O17 0.212627 0.750000 0.044789
O O18 0.077375 0.750000 0.370938
#
# Coordination Sequence:
#
# PCOD9461719 Si02
#       7
#     8   8   8   8   8   8   8
#     4  10  19  32  51  73  99 128 161 199 245 293
#     4   8  15  28  47  70  95 124 163 201 232 277
#     4   8  13  25  46  66  85 120 164 198 225 270
#     4   9  18  31  48  70  95 126 163 199 237 283
#     4   9  17  30  48  70  96 128 162 198 239 285
#     4   8  14  29  49  65  87 124 163 192 227 284
#     4  10  18  29  49  74  97 122 160 202 242 282
#
# _framework density 26.663367000000001
#
# number of rings (size 3 to 8) (size 9 to 14) (size 15 to 20)
#    0.000    3.143    1.429    1.714    0.000    1.714 
#    0.000    2.857    0.000    4.286    0.000    0.000 
#    0.000    0.000    0.000    0.000    0.000    0.000 
#
# Total GULP energy -312744.090547 kJ/mol
# GULP energy per Si atom -5584.715903 kJ/mol
# Density = 2.660268 g / cm^3
# Si number density = 26.663367 Si / 1000 Ang^3
#
#
#
# Elastic Constant Matrix: (Units=GPa)
#
#
# Indices 1 2 3 4 5 6 
#
# 1 128.3619 2.3378 2.6447 0.0000 0.0000 0.0000
# 2 2.3378 106.0492 -6.5471 0.0000 0.0000 0.0000
# 3 2.6447 -6.5471 50.5334 0.0000 0.0000 0.0000
# 4 0.0000 0.0000 0.0000 -1.2524 0.0000 0.0000
# 5 0.0000 0.0000 0.0000 0.0000 49.9463 0.0000
# 6 0.0000 0.0000 0.0000 0.0000 0.0000 5.4383
#
#
#
# Elastic Compliance Matrix: (Units=1/GPa)
#
#
# Indices 1 2 3 4 5 6 
#
# 1 0.007803 -0.000199 -0.000434 0.000000 0.000000 0.000000
# 2 -0.000199 0.009511 0.001243 0.000000 0.000000 0.000000
# 3 -0.000434 0.001243 0.019973 0.000000 0.000000 0.000000
# 4 0.000000 0.000000 0.000000 -0.798449 0.000000 0.000000
# 5 0.000000 0.000000 0.000000 0.000000 0.020022 0.000000
# 6 0.000000 0.000000 0.000000 0.000000 0.000000 0.183880
#
#
# Mechanical properties :
#
#
# Convention : Reuss Voigt Hill
#
# Bulk Modulus (GPa) = 25.97022 31.31281 28.64151
# Shear Modulus (GPa) = -9.16345 29.92705 10.38180
#
# Velocity S-wave (km/s) = -1.85585 3.35386 1.97538
# Velocity P-wave (km/s) = 2.27353 5.17369 3.99600
#
# Compressibility (1/GPa) = 0.03850565
#
# Stress axis : x y z
#
# Youngs Moduli (GPa) = 128.15523 105.14495 50.06855
#
# Poissons Ratio (x) = 0.02090 0.02174
# Poissons Ratio (y) = 0.02548 -0.06222
# Poissons Ratio (z) = 0.05564 -0.13065
#
# Static dielectric constant tensor:
#      x y z
#    x 3.695130 0.000000 0.000000 
#    y 0.000000 1.953890 0.000000 
#    z 0.000000 0.000000 2.158560 
# 
# From -- ./inp_files/24430.got.cif
#   From: 2010.05.17/outbox.cif.g08.bks.cpg/sg62_13_cif.got.tgz:24430.got - 2010.06.03 15:25:27.
