data_PCOD9461277
_publ_section_title
;
Structure prediction by ZEFSAII (Michael W. Deem and Ramdas Pophale) SiO2 
 PCOD9461277
Probable space group: P B C A
;
_chemical_formula_sum "Si O2"
_cell_formula_units_Z 64
_cell_length_a 9.000000
_cell_length_b 18.000000
_cell_length_c 21.000000
_cell_angle_alpha 90.000000
_cell_angle_beta 90.000000
_cell_angle_gamma 90.000000
_cell_volume 3402.000000
_symmetry_space_group_name_H-M "P B C A"
_symmetry_group_IT_number 61
_symmetry_cell_setting 'orthorhombic'
loop_
_space_group_symop_operation_xyz
x,y,z
1/2-x,-y,1/2+z
1/2+x,1/2-y,-z
-x,1/2+y,1/2-z
-x,-y,-z
1/2+x,y,1/2-z
1/2-x,1/2+y,z
x,1/2-y,1/2+z
loop_
_atom_site_type_symbol
_atom_site_label
_atom_site_fract_x
_atom_site_fract_y
_atom_site_fract_z
Si Si1 0.002638 0.179107 0.487238
Si Si2 0.331031 0.830369 0.860492
Si Si3 0.951584 0.831641 0.371148
Si Si4 0.670430 0.444172 0.269591
Si Si5 0.019543 0.342779 0.624816
Si Si6 0.151181 0.159820 0.994693
Si Si7 0.076774 0.442695 0.748825
Si Si8 0.194278 0.344113 0.352338
O O1 0.068191 0.148152 0.421442
O O2 0.062566 0.146790 0.554236
O O3 0.059177 0.263812 0.488722
O O4 0.824796 0.175539 0.491318
O O5 0.359536 0.886386 0.802196
O O6 0.357188 0.742444 0.844124
O O7 0.158476 0.835251 0.880414
O O8 0.856992 0.885331 0.326017
O O9 0.920369 0.742510 0.365636
O O10 0.125411 0.841683 0.352686
O O11 0.571218 0.518465 0.274957
O O12 0.829291 0.483147 0.265616
O O13 0.644300 0.397744 0.204367
O O14 0.084683 0.375565 0.558843
O O15 0.054438 0.394211 0.685188
O O16 0.146019 0.127706 0.922879
#
# Coordination Sequence:
#
# PCOD9461277 Si02
#       8
#     8   8   8   8   8   8   8   8
#     4   9  18  35  61  89 116 149 193 248 293 344
#     4  10  21  40  62  88 118 152 197 245 292 348
#     4   9  19  39  62  85 114 150 195 237 286 349
#     4  12  23  42  57  82 121 157 197 237 293 347
#     4  10  21  40  62  88 117 152 199 244 289 354
#     4   9  18  35  61  89 117 148 194 246 296 343
#     4  12  25  40  59  82 123 159 192 245 292 346
#     4   9  19  39  62  85 115 151 190 242 287 342
#
# _framework density 18.812463000000001
#
# number of rings (size 3 to 8) (size 9 to 14) (size 15 to 20)
#    0.000    2.000    2.500    3.000    1.750    0.000 
#   11.250    2.500    0.000    0.000    0.000    0.000 
#    0.000    0.000    0.000    0.000    0.000    0.000 
#
# Total GULP energy -356717.072954 kJ/mol
# GULP energy per Si atom -5573.704265 kJ/mol
# Density = 1.876965 g / cm^3
# Si number density = 18.812463 Si / 1000 Ang^3
#
#
#
# Elastic Constant Matrix: (Units=GPa)
#
#
# Indices 1 2 3 4 5 6 
#
# 1 36.7786 3.5631 18.9329 0.0000 0.0000 0.0000
# 2 3.5631 62.0183 30.3815 0.0000 0.0000 0.0000
# 3 18.9329 30.3815 -1.4820 0.0000 0.0000 0.0000
# 4 0.0000 0.0000 0.0000 15.7415 0.0000 0.0000
# 5 0.0000 0.0000 0.0000 0.0000 31.8964 0.0000
# 6 0.0000 0.0000 0.0000 0.0000 0.0000 27.8983
#
#
#
# Elastic Compliance Matrix: (Units=1/GPa)
#
#
# Indices 1 2 3 4 5 6 
#
# 1 0.018307 -0.010470 0.019226 0.000000 0.000000 0.000000
# 2 -0.010470 0.007449 0.018938 0.000000 0.000000 0.000000
# 3 0.019226 0.018938 -0.040913 0.000000 0.000000 0.000000
# 4 0.000000 0.000000 0.000000 0.063526 0.000000 0.000000
# 5 0.000000 0.000000 0.000000 0.000000 0.031352 0.000000
# 6 0.000000 0.000000 0.000000 0.000000 0.000000 0.035844
#
#
# Mechanical properties :
#
#
# Convention : Reuss Voigt Hill
#
# Bulk Modulus (GPa) = 24.85701 22.56333 23.71017
# Shear Modulus (GPa) = 67.94614 18.06973 43.00793
#
# Velocity S-wave (km/s) = 6.01631 3.10259 4.78655
# Velocity P-wave (km/s) = 7.84239 4.98544 6.57106
#
# Compressibility (1/GPa) = 0.04023009
#
# Stress axis : x y z
#
# Youngs Moduli (GPa) = 54.62473 134.25295 -24.44231
#
# Poissons Ratio (x) = 1.40568 0.46994
# Poissons Ratio (y) = 0.57194 0.46288
# Poissons Ratio (z) = -1.05024 -2.54244
#
# Static dielectric constant tensor:
#      x y z
#    x 1.684090 0.000000 0.000000 
#    y 0.000000 1.620970 0.000000 
#    z 0.000000 0.000000 1.676010 
# 
# From -- ./inp_files/10188.got.cif
#   From: 2010.05.17/outbox.ucp.g08.bks.cvg/sg61_6_cif.got.tgz:10188.got - 2010.06.11 16:28:26.
