data_PCOD9461360
_publ_section_title
;
Structure prediction by ZEFSAII (Michael W. Deem and Ramdas Pophale) SiO2 
 PCOD9461360
Probable space group: P N M A
;
_chemical_formula_sum "Si O2"
_cell_formula_units_Z 56
_cell_length_a 8.945351
_cell_length_b 18.635321
_cell_length_c 19.018087
_cell_angle_alpha 90.000000
_cell_angle_beta 90.000000
_cell_angle_gamma 90.000000
_cell_volume 3170.305353
_symmetry_space_group_name_H-M "P N M A"
_symmetry_group_IT_number 62
_symmetry_cell_setting 'orthorhombic'
loop_
_space_group_symop_operation_xyz
x,y,z
1/2-x,-y,1/2+z
1/2+x,1/2-y,1/2-z
-x,1/2+y,-z
-x,-y,-z
1/2+x,y,1/2-z
1/2-x,1/2+y,1/2+z
x,1/2-y,z
loop_
_atom_site_type_symbol
_atom_site_label
_atom_site_fract_x
_atom_site_fract_y
_atom_site_fract_z
Si Si1 0.390112 0.674792 0.349340
Si Si2 0.860967 0.516309 0.089585
Si Si3 0.632335 0.626753 0.242011
Si Si4 0.798656 0.538961 0.931871
Si Si5 0.656880 0.591097 0.710103
Si Si6 0.882924 0.968702 0.314721
Si Si7 0.642490 0.335234 0.329298
O O1 0.399309 0.750000 0.390208
O O2 0.373889 0.598594 0.386565
O O3 0.534138 0.666778 0.299732
O O4 0.245154 0.675640 0.300098
O O5 0.788796 0.460716 0.145857
O O6 0.032930 0.489449 0.083964
O O7 0.782424 0.522798 0.014201
O O8 0.517373 0.587017 0.189905
O O9 0.736860 0.568418 0.280368
O O10 0.671825 0.496775 0.889155
O O11 0.800675 0.618880 0.897228
O O12 0.578385 0.534458 0.763148
O O13 0.774406 0.632523 0.759807
O O14 0.532478 0.645451 0.680756
O O15 0.666128 0.250000 0.335349
#
# Coordination Sequence:
#
# PCOD9461360 Si02
#       7
#     8   8   8   8   8   8   8
#     4  11  21  32  50  77 106 135 164 214 265 311
#     4  10  18  33  52  78 105 134 180 208 260 314
#     4  10  18  31  52  74 105 126 171 217 251 309
#     4   9  19  32  53  78 103 137 171 221 253 310
#     4  10  18  31  56  76 100 135 169 223 252 302
#     4  10  16  32  54  77  98 129 174 219 256 291
#     4  10  20  33  52  80 105 134 171 215 272 310
#
# _framework density 17.663913999999998
#
# number of rings (size 3 to 8) (size 9 to 14) (size 15 to 20)
#    0.000    2.000    4.286    2.571    0.000    0.571 
#    0.000    0.714    0.000    0.000    0.000    0.000 
#    0.000    0.000    0.000    0.000    0.000    0.000 
#
# Total GULP energy -311798.709065 kJ/mol
# GULP energy per Si atom -5567.834090 kJ/mol
# Density = 1.762371 g / cm^3
# Si number density = 17.663914 Si / 1000 Ang^3
#
#
#
# Elastic Constant Matrix: (Units=GPa)
#
#
# Indices 1 2 3 4 5 6 
#
# 1 47.2930 15.1537 1.8730 0.0000 0.0000 0.0000
# 2 15.1537 127.2339 37.6969 0.0000 0.0000 0.0000
# 3 1.8730 37.6969 75.2117 0.0000 0.0000 0.0000
# 4 0.0000 0.0000 0.0000 5.5572 0.0000 0.0000
# 5 0.0000 0.0000 0.0000 0.0000 17.1830 0.0000
# 6 0.0000 0.0000 0.0000 0.0000 0.0000 194.8262
#
#
#
# Elastic Compliance Matrix: (Units=1/GPa)
#
#
# Indices 1 2 3 4 5 6 
#
# 1 0.022036 -0.002891 0.000900 0.000000 0.000000 0.000000
# 2 -0.002891 0.009610 -0.004744 0.000000 0.000000 0.000000
# 3 0.000900 -0.004744 0.015651 0.000000 0.000000 0.000000
# 4 0.000000 0.000000 0.000000 0.179947 0.000000 0.000000
# 5 0.000000 0.000000 0.000000 0.000000 0.058197 0.000000
# 6 0.000000 0.000000 0.000000 0.000000 0.000000 0.005133
#
#
# Mechanical properties :
#
#
# Convention : Reuss Voigt Hill
#
# Bulk Modulus (GPa) = 29.56318 39.90956 34.73637
# Shear Modulus (GPa) = 15.85694 56.51427 36.18560
#
# Velocity S-wave (km/s) = 2.99942 5.66248 4.53101
# Velocity P-wave (km/s) = 5.36360 8.08668 6.86158
#
# Compressibility (1/GPa) = 0.03382586
#
# Stress axis : x y z
#
# Youngs Moduli (GPa) = 45.38124 104.06299 63.89227
#
# Poissons Ratio (x) = 0.30087 -0.05753
# Poissons Ratio (y) = 0.13121 0.30313
# Poissons Ratio (z) = -0.04086 0.49372
#
# Static dielectric constant tensor:
#      x y z
#    x 1.605120 0.000000 0.000000 
#    y 0.000000 1.528300 0.000000 
#    z 0.000000 0.000000 1.633890 
# 
# From -- ./inp_files/26104.got.cif
#   From: 2010.05.17/outbox.cif.g08.bks.cpg/sg62_14_cif.got.tgz:26104.got - 2010.06.03 15:25:27.
