data_PCOD9461960
_publ_section_title
;
Structure prediction by ZEFSAII (Michael W. Deem and Ramdas Pophale) SiO2 
 PCOD9461960
Probable space group: P N M A
;
_chemical_formula_sum "Si O2"
_cell_formula_units_Z 48
_cell_length_a 9.953704
_cell_length_b 23.058024
_cell_length_c 13.331339
_cell_angle_alpha 90.000000
_cell_angle_beta 90.000000
_cell_angle_gamma 90.000000
_cell_volume 3059.712218
_symmetry_space_group_name_H-M "P N M A"
_symmetry_group_IT_number 62
_symmetry_cell_setting 'orthorhombic'
loop_
_space_group_symop_operation_xyz
x,y,z
1/2-x,-y,1/2+z
1/2+x,1/2-y,1/2-z
-x,1/2+y,-z
-x,-y,-z
1/2+x,y,1/2-z
1/2-x,1/2+y,1/2+z
x,1/2-y,z
loop_
_atom_site_type_symbol
_atom_site_label
_atom_site_fract_x
_atom_site_fract_y
_atom_site_fract_z
Si Si1 0.354097 0.501173 0.134214
Si Si2 0.714131 0.817858 0.354591
Si Si3 0.141723 0.012700 0.868159
Si Si4 0.968811 0.182570 0.658244
Si Si5 0.612790 0.570602 0.451393
Si Si6 0.598553 0.927211 0.045441
O O1 0.378750 0.498872 0.251955
O O2 0.208561 0.528426 0.114013
O O3 0.458615 0.544576 0.080610
O O4 0.371724 0.442435 0.070206
O O5 0.701474 0.750000 0.383686
O O6 0.617387 0.827816 0.258931
O O7 0.666469 0.864572 0.436445
O O8 0.871172 0.828166 0.327489
O O9 0.287307 0.039652 0.890745
O O10 0.035147 0.059981 0.908156
O O11 0.121974 0.955798 0.937206
O O12 0.953209 0.250000 0.631686
O O13 0.911699 0.139530 0.574622
#
# Coordination Sequence:
#
# PCOD9461960 Si02
#       6
#     8   8   8   8   8   8
#     4  10  18  32  49  70  97 125 159 196 238 285
#     4  10  20  33  50  71  98 130 162 198 240 286
#     4  10  20  32  49  70 101 129 155 198 239 288
#     4  10  20  33  49  71  98 129 162 198 241 287
#     4  10  20  32  47  73  98 128 161 192 243 287
#     4  10  20  30  49  73  95 127 158 194 240 284
#
# _framework density 15.687749999999999
#
# number of rings (size 3 to 8) (size 9 to 14) (size 15 to 20)
#    0.000    2.000    1.667    3.000    2.333    0.000 
#    0.000    0.000    0.000    1.000    0.000    0.000 
#    0.000    0.000    0.000    0.000    0.000    0.000 
#
# Total GULP energy -267599.759579 kJ/mol
# GULP energy per Si atom -5574.994991 kJ/mol
# Density = 1.565204 g / cm^3
# Si number density = 15.687750 Si / 1000 Ang^3
#
#
#
# Elastic Constant Matrix: (Units=GPa)
#
#
# Indices 1 2 3 4 5 6 
#
# 1 35.4174 4.7262 -9.9025 0.0000 0.0000 0.0000
# 2 4.7262 71.8001 24.6891 0.0000 0.0000 0.0000
# 3 -9.9025 24.6891 77.1400 0.0000 0.0000 0.0000
# 4 0.0000 0.0000 0.0000 20.6977 0.0000 0.0000
# 5 0.0000 0.0000 0.0000 0.0000 15.0149 0.0000
# 6 0.0000 0.0000 0.0000 0.0000 0.0000 22.2475
#
#
#
# Elastic Compliance Matrix: (Units=1/GPa)
#
#
# Indices 1 2 3 4 5 6 
#
# 1 0.030147 -0.003725 0.005062 0.000000 0.000000 0.000000
# 2 -0.003725 0.016110 -0.005634 0.000000 0.000000 0.000000
# 3 0.005062 -0.005634 0.015417 0.000000 0.000000 0.000000
# 4 0.000000 0.000000 0.000000 0.048315 0.000000 0.000000
# 5 0.000000 0.000000 0.000000 0.000000 0.066600 0.000000
# 6 0.000000 0.000000 0.000000 0.000000 0.000000 0.044949
#
#
# Mechanical properties :
#
#
# Convention : Reuss Voigt Hill
#
# Bulk Modulus (GPa) = 18.83966 24.82034 21.83000
# Shear Modulus (GPa) = 20.17550 22.58169 21.37859
#
# Velocity S-wave (km/s) = 3.59007 3.79812 3.69556
# Velocity P-wave (km/s) = 5.40555 5.92369 5.67054
#
# Compressibility (1/GPa) = 0.05307953
#
# Stress axis : x y z
#
# Youngs Moduli (GPa) = 33.17063 62.07252 64.86515
#
# Poissons Ratio (x) = 0.23123 -0.32836
# Poissons Ratio (y) = 0.12356 0.36547
# Poissons Ratio (z) = -0.16792 0.34974
#
# Static dielectric constant tensor:
#      x y z
#    x 1.536510 0.000000 0.000000 
#    y 0.000000 1.530170 0.000000 
#    z 0.000000 0.000000 1.510260 
# 
# From -- ./inp_files/11300.got.cif
#   From: 2010.05.17/outbox.cif.g08.bks.cpg/sg62_6_cif.got.tgz:11300.got - 2010.06.03 15:25:27.
