data_PCOD9461318
_publ_section_title
;
Structure prediction by ZEFSAII (Michael W. Deem and Ramdas Pophale) SiO2 
 PCOD9461318
Probable space group: P N M A
;
_chemical_formula_sum "Si O2"
_cell_formula_units_Z 56
_cell_length_a 9.864340
_cell_length_b 22.007039
_cell_length_c 18.463965
_cell_angle_alpha 90.000000
_cell_angle_beta 90.000000
_cell_angle_gamma 90.000000
_cell_volume 4008.248274
_symmetry_space_group_name_H-M "P N M A"
_symmetry_group_IT_number 62
_symmetry_cell_setting 'orthorhombic'
loop_
_space_group_symop_operation_xyz
x,y,z
1/2-x,-y,1/2+z
1/2+x,1/2-y,1/2-z
-x,1/2+y,-z
-x,-y,-z
1/2+x,y,1/2-z
1/2-x,1/2+y,1/2+z
x,1/2-y,z
loop_
_atom_site_type_symbol
_atom_site_label
_atom_site_fract_x
_atom_site_fract_y
_atom_site_fract_z
Si Si1 0.637635 0.603673 0.608168
Si Si2 0.100131 0.036624 0.838193
Si Si3 0.560701 0.067861 0.504338
Si Si4 0.765428 0.412938 0.375817
Si Si5 0.934610 0.678240 0.798206
Si Si6 0.569226 0.103077 0.156112
Si Si7 0.161072 0.992352 0.241925
O O1 0.606912 0.535762 0.639910
O O2 0.557327 0.608203 0.532511
O O3 0.568769 0.650270 0.664002
O O4 0.798631 0.610426 0.606222
O O5 0.229434 0.045444 0.787048
O O6 0.098672 0.075044 0.911971
O O7 0.960333 0.043966 0.795186
O O8 0.688673 0.073977 0.450910
O O9 0.500000 0.000000 0.500000
O O10 0.689978 0.355746 0.338271
O O11 0.736426 0.468588 0.320551
O O12 0.924893 0.402358 0.382169
O O13 0.927953 0.750000 0.805466
O O14 0.934655 0.656749 0.715170
O O15 0.595375 0.042218 0.203874
#
# Coordination Sequence:
#
# PCOD9461318 Si02
#       7
#     8   8   8   8   8   8   8
#     4   9  17  28  40  53  78 108 137 169 205 236
#     4  10  16  27  43  57  77 103 141 167 207 246
#     4   9  16  29  41  54  73 109 140 166 201 256
#     4  10  17  28  40  57  82 106 137 176 208 233
#     4  10  18  28  42  59  81 112 147 174 201 236
#     4  10  17  26  38  56  78 105 136 175 207 226
#     4  10  15  25  40  57  74 102 130 169 205 238
#
# _framework density 13.97119
#
# number of rings (size 3 to 8) (size 9 to 14) (size 15 to 20)
#    0.000    2.286    7.143    1.714    0.000    2.286 
#    0.000    7.857    0.000    0.000    0.000    0.000 
#    0.000    0.000    0.000   20.571    0.000    0.000 
#
# Total GULP energy -311784.193271 kJ/mol
# GULP energy per Si atom -5567.574880 kJ/mol
# Density = 1.393939 g / cm^3
# Si number density = 13.971190 Si / 1000 Ang^3
#
#
#
# Elastic Constant Matrix: (Units=GPa)
#
#
# Indices 1 2 3 4 5 6 
#
# 1 148.4154 16.7353 65.1279 0.0000 0.0000 0.0000
# 2 16.7353 20.8584 21.9292 0.0000 0.0000 0.0000
# 3 65.1279 21.9292 95.5845 0.0000 0.0000 0.0000
# 4 0.0000 0.0000 0.0000 6.6154 0.0000 0.0000
# 5 0.0000 0.0000 0.0000 0.0000 12.7947 0.0000
# 6 0.0000 0.0000 0.0000 0.0000 0.0000 5.2629
#
#
#
# Elastic Compliance Matrix: (Units=1/GPa)
#
#
# Indices 1 2 3 4 5 6 
#
# 1 0.009631 -0.001091 -0.006312 0.000000 0.000000 0.000000
# 2 -0.001091 0.063305 -0.013780 0.000000 0.000000 0.000000
# 3 -0.006312 -0.013780 0.017924 0.000000 0.000000 0.000000
# 4 0.000000 0.000000 0.000000 0.151162 0.000000 0.000000
# 5 0.000000 0.000000 0.000000 0.000000 0.078157 0.000000
# 6 0.000000 0.000000 0.000000 0.000000 0.000000 0.190010
#
#
# Mechanical properties :
#
#
# Convention : Reuss Voigt Hill
#
# Bulk Modulus (GPa) = 20.62116 52.49368 36.55742
# Shear Modulus (GPa) = 8.79169 15.67234 12.23201
#
# Velocity S-wave (km/s) = 2.51125 3.35290 2.96212
# Velocity P-wave (km/s) = 4.81667 7.25559 6.15808
#
# Compressibility (1/GPa) = 0.04849388
#
# Stress axis : x y z
#
# Youngs Moduli (GPa) = 103.83638 15.79647 55.79165
#
# Poissons Ratio (x) = 0.01724 0.35213
# Poissons Ratio (y) = 0.11332 0.76881
# Poissons Ratio (z) = 0.65537 0.21768
#
# Static dielectric constant tensor:
#      x y z
#    x 1.487390 0.000000 0.000000 
#    y 0.000000 1.429040 0.000000 
#    z 0.000000 0.000000 1.477460 
# 
# From -- ./inp_files/22604.got.cif
#   From: 2010.05.17/outbox.cif.g08.bks.cpg/sg62_12_cif.got.tgz:22604.got - 2010.06.03 15:25:27.
