data_PCOD9461909
_publ_section_title
;
Structure prediction by ZEFSAII (Michael W. Deem and Ramdas Pophale) SiO2 
 PCOD9461909
Probable space group: P N M A
;
_chemical_formula_sum "Si O2"
_cell_formula_units_Z 64
_cell_length_a 20.059184
_cell_length_b 7.779950
_cell_length_c 21.104714
_cell_angle_alpha 90.000000
_cell_angle_beta 90.000000
_cell_angle_gamma 90.000000
_cell_volume 3293.590029
_symmetry_space_group_name_H-M "P N M A"
_symmetry_group_IT_number 62
_symmetry_cell_setting 'orthorhombic'
loop_
_space_group_symop_operation_xyz
x,y,z
1/2-x,-y,1/2+z
1/2+x,1/2-y,1/2-z
-x,1/2+y,-z
-x,-y,-z
1/2+x,y,1/2-z
1/2-x,1/2+y,1/2+z
x,1/2-y,z
loop_
_atom_site_type_symbol
_atom_site_label
_atom_site_fract_x
_atom_site_fract_y
_atom_site_fract_z
Si Si1 0.079252 0.451987 0.738929
Si Si2 0.447742 0.050749 0.603729
Si Si3 0.063350 0.448948 0.248211
Si Si4 0.696541 0.957752 0.425592
Si Si5 0.734590 0.951473 0.558061
Si Si6 0.593731 0.040820 0.615104
Si Si7 0.780806 0.454516 0.301941
Si Si8 0.195409 0.460782 0.317490
O O1 0.066106 0.250000 0.742360
O O2 0.096518 0.510699 0.810705
O O3 0.143291 0.483243 0.695870
O O4 0.009488 0.537503 0.720973
O O5 0.450085 0.250000 0.584667
O O6 0.379608 0.973986 0.576299
O O7 0.521502 0.979365 0.589656
O O8 0.439714 0.042360 0.680333
O O9 0.077803 0.250000 0.232990
O O10 0.122215 0.511930 0.293570
O O11 0.691969 0.750000 0.430103
O O12 0.735470 0.024298 0.487235
O O13 0.735330 0.996770 0.361253
O O14 0.751616 0.750000 0.553456
O O15 0.780373 0.024587 0.614154
O O16 0.657962 0.968516 0.580455
O O17 0.595756 0.250000 0.612086
O O18 0.782420 0.250000 0.298128
O O19 0.746466 0.519179 0.237191
O O20 0.197256 0.250000 0.319130
#
# Coordination Sequence:
#
# PCOD9461909 Si02
#       8
#     8   8   8   8   8   8   8   8
#     4  10  20  34  52  79 109 136 168 214 266 315
#     4   9  18  32  47  70 105 140 175 212 255 309
#     4  10  18  31  52  78 103 133 171 215 264 309
#     4  10  21  35  52  74 105 144 178 215 264 313
#     4  10  20  35  52  73 104 141 178 215 260 315
#     4   9  18  31  47  70 103 138 171 211 253 300
#     4  11  20  34  56  80 105 137 176 220 261 308
#     4   9  18  32  52  78 104 132 172 218 261 303
#
# _framework density 19.431683
#
# number of rings (size 3 to 8) (size 9 to 14) (size 15 to 20)
#    0.000    2.250    2.500    1.875    0.000    3.000 
#    0.000    1.250    0.000    0.750    0.000    0.000 
#    0.000    0.000    0.000    0.000    0.000    0.000 
#
# Total GULP energy -357094.383293 kJ/mol
# GULP energy per Si atom -5579.599739 kJ/mol
# Density = 1.938746 g / cm^3
# Si number density = 19.431683 Si / 1000 Ang^3
#
#
#
# Elastic Constant Matrix: (Units=GPa)
#
#
# Indices 1 2 3 4 5 6 
#
# 1 62.2488 -12.4779 -8.6977 0.0000 0.0000 0.0000
# 2 -12.4779 28.8420 -8.8688 0.0000 0.0000 0.0000
# 3 -8.6977 -8.8688 23.4086 0.0000 0.0000 0.0000
# 4 0.0000 0.0000 0.0000 11.2759 0.0000 0.0000
# 5 0.0000 0.0000 0.0000 0.0000 16.2063 0.0000
# 6 0.0000 0.0000 0.0000 0.0000 0.0000 9.5746
#
#
#
# Elastic Compliance Matrix: (Units=1/GPa)
#
#
# Indices 1 2 3 4 5 6 
#
# 1 0.020303 0.012568 0.012305 0.000000 0.000000 0.000000
# 2 0.012568 0.047023 0.022485 0.000000 0.000000 0.000000
# 3 0.012305 0.022485 0.055811 0.000000 0.000000 0.000000
# 4 0.000000 0.000000 0.000000 0.088685 0.000000 0.000000
# 5 0.000000 0.000000 0.000000 0.000000 0.061705 0.000000
# 6 0.000000 0.000000 0.000000 0.000000 0.000000 0.104443
#
#
# Mechanical properties :
#
#
# Convention : Reuss Voigt Hill
#
# Bulk Modulus (GPa) = 4.59026 6.04562 5.31794
# Shear Modulus (GPa) = 14.05008 17.04761 15.54885
#
# Velocity S-wave (km/s) = 2.69188 2.96516 2.83181
# Velocity P-wave (km/s) = 3.46828 3.85238 3.66537
#
# Compressibility (1/GPa) = 0.21785256
#
# Stress axis : x y z
#
# Youngs Moduli (GPa) = 49.25352 21.26626 17.91777
#
# Poissons Ratio (x) = -0.26726 -0.22048
# Poissons Ratio (y) = -0.61900 -0.40288
# Poissons Ratio (z) = -0.60608 -0.47817
#
# Static dielectric constant tensor:
#      x y z
#    x 1.696840 0.000000 0.000000 
#    y 0.000000 1.727480 0.000000 
#    z 0.000000 0.000000 1.682310 
# 
# From -- ./inp_files/27962.got.cif
#   From: 2010.05.17/outbox.cif.g08.bks.cpg/sg62_14_cif.got.tgz:27962.got - 2010.06.03 15:25:27.
