data_PCOD9461315
_publ_section_title
;
Structure prediction by ZEFSAII (Michael W. Deem and Ramdas Pophale) SiO2 
 PCOD9461315
Probable space group: P N M A
;
_chemical_formula_sum "Si O2"
_cell_formula_units_Z 32
_cell_length_a 8.268054
_cell_length_b 19.348754
_cell_length_c 7.716578
_cell_angle_alpha 90.000000
_cell_angle_beta 90.000000
_cell_angle_gamma 90.000000
_cell_volume 1234.471471
_symmetry_space_group_name_H-M "P N M A"
_symmetry_group_IT_number 62
_symmetry_cell_setting 'orthorhombic'
loop_
_space_group_symop_operation_xyz
x,y,z
1/2-x,-y,1/2+z
1/2+x,1/2-y,1/2-z
-x,1/2+y,-z
-x,-y,-z
1/2+x,y,1/2-z
1/2-x,1/2+y,1/2+z
x,1/2-y,z
loop_
_atom_site_type_symbol
_atom_site_label
_atom_site_fract_x
_atom_site_fract_y
_atom_site_fract_z
Si Si1 0.227856 0.895237 0.878254
Si Si2 0.687832 0.539089 0.265415
Si Si3 0.089057 0.107939 0.945179
Si Si4 0.335410 0.750000 0.967734
Si Si5 0.978564 0.250000 0.786098
O O1 0.032696 0.887521 0.892024
O O2 0.303822 0.819554 0.859230
O O3 0.272362 0.922661 0.071495
O O4 0.274975 0.958930 0.758088
O O5 0.503947 0.549790 0.328269
O O6 0.729699 0.582394 0.092142
O O7 0.065163 0.181580 0.856355
O O8 0.501630 0.750000 0.077780
O O9 0.195835 0.750000 0.119051
#
# Coordination Sequence:
#
# PCOD9461315 Si02
#       5
#     8   8   8   4   4
#     4   9  20  32  55  72 104 132 170 205 257 299
#     4  10  19  33  50  78  99 134 168 212 251 304
#     4   9  18  30  53  74 104 127 171 208 254 294
#     4  10  18  32  52  74 100 136 166 212 244 304
#     4  10  14  32  48  78  96 130 170 212 242 290
#
# _framework density 25.922024
#
# number of rings (size 3 to 8) (size 9 to 14) (size 15 to 20)
#    1.500    1.000    2.500    0.750    0.000    1.000 
#    0.000    0.000    0.000    6.000    0.000    0.000 
#    0.000    0.000    0.000    0.000    0.000    0.000 
#
# Total GULP energy -178331.451133 kJ/mol
# GULP energy per Si atom -5572.857848 kJ/mol
# Density = 2.586302 g / cm^3
# Si number density = 25.922024 Si / 1000 Ang^3
#
#
#
# Elastic Constant Matrix: (Units=GPa)
#
#
# Indices 1 2 3 4 5 6 
#
# 1 43.8274 15.5632 14.3644 0.0000 0.0000 0.0000
# 2 15.5632 225.3993 27.8905 0.0000 0.0000 0.0000
# 3 14.3644 27.8905 41.3238 0.0000 0.0000 0.0000
# 4 0.0000 0.0000 0.0000 40.2835 0.0000 0.0000
# 5 0.0000 0.0000 0.0000 0.0000 36.6553 0.0000
# 6 0.0000 0.0000 0.0000 0.0000 0.0000 36.5768
#
#
#
# Elastic Compliance Matrix: (Units=1/GPa)
#
#
# Indices 1 2 3 4 5 6 
#
# 1 0.025862 -0.000735 -0.008494 0.000000 0.000000 0.000000
# 2 -0.000735 0.004862 -0.003026 0.000000 0.000000 0.000000
# 3 -0.008494 -0.003026 0.029194 0.000000 0.000000 0.000000
# 4 0.000000 0.000000 0.000000 0.024824 0.000000 0.000000
# 5 0.000000 0.000000 0.000000 0.000000 0.027281 0.000000
# 6 0.000000 0.000000 0.000000 0.000000 0.000000 0.027340
#
#
# Mechanical properties :
#
#
# Convention : Reuss Voigt Hill
#
# Bulk Modulus (GPa) = 28.24191 47.35408 37.79799
# Shear Modulus (GPa) = 28.46186 39.55194 34.00690
#
# Velocity S-wave (km/s) = 3.31717 3.91039 3.62593
# Velocity P-wave (km/s) = 5.05867 6.22059 5.66947
#
# Compressibility (1/GPa) = 0.03540838
#
# Stress axis : x y z
#
# Youngs Moduli (GPa) = 38.66751 205.68859 34.25371
#
# Poissons Ratio (x) = 0.15111 0.29094
# Poissons Ratio (y) = 0.02841 0.10365
# Poissons Ratio (z) = 0.32843 0.62240
#
# Static dielectric constant tensor:
#      x y z
#    x 2.199570 0.000000 0.000000 
#    y 0.000000 1.960890 0.000000 
#    z 0.000000 0.000000 2.226800 
# 
# From -- ./inp_files/4158.got.cif
#   From: 2010.05.17/outbox.cif.g08.bks.cpg/sg62_3_cif.got.tgz:4158.got - 2010.06.03 15:25:27.
