data_PCOD9461557
_publ_section_title
;
Structure prediction by ZEFSAII (Michael W. Deem and Ramdas Pophale) SiO2 
 PCOD9461557
Probable space group: P N M A
;
_chemical_formula_sum "Si O2"
_cell_formula_units_Z 64
_cell_length_a 26.970594
_cell_length_b 9.215289
_cell_length_c 18.851606
_cell_angle_alpha 90.000000
_cell_angle_beta 90.000000
_cell_angle_gamma 90.000000
_cell_volume 4685.412431
_symmetry_space_group_name_H-M "P N M A"
_symmetry_group_IT_number 62
_symmetry_cell_setting 'orthorhombic'
loop_
_space_group_symop_operation_xyz
x,y,z
1/2-x,-y,1/2+z
1/2+x,1/2-y,1/2-z
-x,1/2+y,-z
-x,-y,-z
1/2+x,y,1/2-z
1/2-x,1/2+y,1/2+z
x,1/2-y,z
loop_
_atom_site_type_symbol
_atom_site_label
_atom_site_fract_x
_atom_site_fract_y
_atom_site_fract_z
Si Si1 0.804666 0.583673 0.297926
Si Si2 0.152689 0.423815 0.162423
Si Si3 0.759752 0.425378 0.924455
Si Si4 0.556341 0.924660 0.577253
Si Si5 0.942431 0.576711 0.928193
Si Si6 0.246012 0.923386 0.909814
Si Si7 0.799568 0.417588 0.711136
Si Si8 0.145524 0.923502 0.824685
O O1 0.821434 0.750000 0.300963
O O2 0.788001 0.535287 0.376298
O O3 0.752540 0.579654 0.254700
O O4 0.842587 0.491659 0.251507
O O5 0.159338 0.250000 0.165851
O O6 0.193181 0.492994 0.108967
O O7 0.098607 0.456659 0.130675
O O8 0.162899 0.494468 0.238967
O O9 0.766895 0.250000 0.916849
O O10 0.753346 0.458581 0.007078
O O11 0.560337 0.750000 0.570803
O O12 0.498922 0.960696 0.592912
O O13 0.595127 0.972285 0.637172
O O14 0.569003 0.995346 0.501612
O O15 0.940816 0.750000 0.941052
O O16 0.253053 0.750000 0.901826
O O17 0.191943 0.958481 0.876582
O O18 0.286567 0.006927 0.863095
O O19 0.814120 0.250000 0.703067
O O20 0.144116 0.750000 0.817501
#
# Coordination Sequence:
#
# PCOD9461557 Si02
#       8
#     8   8   8   8   8   8   8   8
#     4   8  15  26  38  53  75 101 127 157 189 223
#     4  10  18  27  40  57  78 105 135 165 196 229
#     4   9  17  28  41  58  80 106 133 160 193 233
#     4   9  17  29  42  56  77 104 133 164 196 229
#     4   9  18  29  40  57  79 102 131 166 198 227
#     4   9  16  26  40  58  79 102 130 160 190 228
#     4   9  17  28  40  55  76 102 131 161 194 231
#     4   9  16  25  39  56  74 101 132 159 188 223
#
# _framework density 13.659416999999999
#
# number of rings (size 3 to 8) (size 9 to 14) (size 15 to 20)
#    0.000    3.000    0.000    2.250    0.000    6.000 
#    0.000    2.500    0.000    0.000    0.000    0.000 
#    0.000    1.000    0.000    2.000    0.000    2.750 
#
# Total GULP energy -356302.086199 kJ/mol
# GULP energy per Si atom -5567.220097 kJ/mol
# Density = 1.362833 g / cm^3
# Si number density = 13.659417 Si / 1000 Ang^3
#
#
#
# Elastic Constant Matrix: (Units=GPa)
#
#
# Indices 1 2 3 4 5 6 
#
# 1 68.4038 34.0379 46.6306 0.0000 0.0000 0.0000
# 2 34.0379 33.3930 39.8712 0.0000 0.0000 0.0000
# 3 46.6306 39.8712 100.0067 0.0000 0.0000 0.0000
# 4 0.0000 0.0000 0.0000 23.3504 0.0000 0.0000
# 5 0.0000 0.0000 0.0000 0.0000 25.6861 0.0000
# 6 0.0000 0.0000 0.0000 0.0000 0.0000 14.7537
#
#
#
# Elastic Compliance Matrix: (Units=1/GPa)
#
#
# Indices 1 2 3 4 5 6 
#
# 1 0.030281 -0.026733 -0.003461 0.000000 0.000000 0.000000
# 2 -0.026733 0.080754 -0.019730 0.000000 0.000000 0.000000
# 3 -0.003461 -0.019730 0.019479 0.000000 0.000000 0.000000
# 4 0.000000 0.000000 0.000000 0.042826 0.000000 0.000000
# 5 0.000000 0.000000 0.000000 0.000000 0.038932 0.000000
# 6 0.000000 0.000000 0.000000 0.000000 0.000000 0.067780
#
#
# Mechanical properties :
#
#
# Convention : Reuss Voigt Hill
#
# Bulk Modulus (GPa) = 32.61060 49.20922 40.90991
# Shear Modulus (GPa) = 12.81647 18.17561 15.49604
#
# Velocity S-wave (km/s) = 3.06647 3.65174 3.37183
# Velocity P-wave (km/s) = 6.03851 7.34059 6.72116
#
# Compressibility (1/GPa) = 0.03066488
#
# Stress axis : x y z
#
# Youngs Moduli (GPa) = 33.02384 12.38327 51.33640
#
# Poissons Ratio (x) = 0.33105 0.17768
# Poissons Ratio (y) = 0.88284 1.01288
# Poissons Ratio (z) = 0.11430 0.24433
#
# Static dielectric constant tensor:
#      x y z
#    x 1.439310 0.000000 0.000000 
#    y 0.000000 1.458750 0.000000 
#    z 0.000000 0.000000 1.442750 
# 
# From -- ./inp_files/24985.got.cif
#   From: 2010.05.17/outbox.cif.g08.bks.cpg/sg62_13_cif.got.tgz:24985.got - 2010.06.03 15:25:27.
