data_PCOD9461301
_publ_section_title
;
Structure prediction by ZEFSAII (Michael W. Deem and Ramdas Pophale) SiO2 
 PCOD9461301
Probable space group: P B C A
;
_chemical_formula_sum "Si O2"
_cell_formula_units_Z 64
_cell_length_a 24.000000
_cell_length_b 15.000000
_cell_length_c 9.000000
_cell_angle_alpha 90.000000
_cell_angle_beta 90.000000
_cell_angle_gamma 90.000000
_cell_volume 3240.000000
_symmetry_space_group_name_H-M "P B C A"
_symmetry_group_IT_number 61
_symmetry_cell_setting 'orthorhombic'
loop_
_space_group_symop_operation_xyz
x,y,z
1/2-x,-y,1/2+z
1/2+x,1/2-y,-z
-x,1/2+y,1/2-z
-x,-y,-z
1/2+x,y,1/2-z
1/2-x,1/2+y,z
x,1/2-y,1/2+z
loop_
_atom_site_type_symbol
_atom_site_label
_atom_site_fract_x
_atom_site_fract_y
_atom_site_fract_z
Si Si1 0.094324 0.341974 0.585128
Si Si2 0.020791 0.416187 0.332158
Si Si3 0.095819 0.136634 0.564217
Si Si4 0.190373 0.998312 0.539697
Si Si5 0.895483 0.337319 0.969936
Si Si6 0.011163 0.398351 0.819066
Si Si7 0.314089 0.516636 0.183648
Si Si8 0.102785 0.648456 0.672788
O O1 0.064729 0.405210 0.464172
O O2 0.106177 0.241249 0.528620
O O3 0.045193 0.334674 0.708181
O O4 0.149135 0.394829 0.643483
O O5 0.052927 0.366949 0.199858
O O6 0.007669 0.514748 0.271427
O O7 0.960636 0.375702 0.373349
O O8 0.060442 0.083339 0.438298
O O9 0.152881 0.082765 0.594414
O O10 0.151216 0.911591 0.570489
O O11 0.252718 0.988842 0.607489
O O12 0.194608 0.010947 0.361456
O O13 0.899493 0.337525 0.148774
O O14 0.880259 0.239740 0.908213
O O15 0.956149 0.360951 0.899471
O O16 0.353996 0.432224 0.142472
#
# Coordination Sequence:
#
# PCOD9461301 Si02
#       8
#     8   8   8   8   8   8   8   8
#     4  12  26  42  67 106 139 175 227 278 331 402
#     4  12  24  39  69 103 139 178 216 268 342 400
#     4  12  23  44  70  99 138 182 220 274 340 405
#     4  11  26  48  68  93 127 182 229 278 338 394
#     4  11  24  42  69  99 134 175 219 271 338 402
#     4  12  22  43  66 100 143 176 213 271 336 404
#     4  11  27  48  68  92 131 176 231 280 331 397
#     4  11  24  43  67 101 135 172 218 274 333 401
#
# _framework density 19.753086
#
# number of rings (size 3 to 8) (size 9 to 14) (size 15 to 20)
#    0.000    0.500    5.000    3.750    3.500    2.000 
#    0.000    2.500    0.000    0.000    0.000    0.000 
#    0.000    0.000    0.000    0.000    0.000    0.000 
#
# Total GULP energy -357685.324154 kJ/mol
# GULP energy per Si atom -5588.833190 kJ/mol
# Density = 1.970813 g / cm^3
# Si number density = 19.753086 Si / 1000 Ang^3
#
#
#
# Elastic Constant Matrix: (Units=GPa)
#
#
# Indices 1 2 3 4 5 6 
#
# 1 154.1603 46.5948 17.8378 0.0000 0.0000 0.0000
# 2 46.5948 122.4757 1.2439 0.0000 0.0000 0.0000
# 3 17.8378 1.2439 30.1195 0.0000 0.0000 0.0000
# 4 0.0000 0.0000 0.0000 29.5705 0.0000 0.0000
# 5 0.0000 0.0000 0.0000 0.0000 44.2397 0.0000
# 6 0.0000 0.0000 0.0000 0.0000 0.0000 23.0034
#
#
#
# Elastic Compliance Matrix: (Units=1/GPa)
#
#
# Indices 1 2 3 4 5 6 
#
# 1 0.007910 -0.002963 -0.004562 0.000000 0.000000 0.000000
# 2 -0.002963 0.009278 0.001372 0.000000 0.000000 0.000000
# 3 -0.004562 0.001372 0.035846 0.000000 0.000000 0.000000
# 4 0.000000 0.000000 0.000000 0.033817 0.000000 0.000000
# 5 0.000000 0.000000 0.000000 0.000000 0.022604 0.000000
# 6 0.000000 0.000000 0.000000 0.000000 0.000000 0.043472
#
#
# Mechanical properties :
#
#
# Convention : Reuss Voigt Hill
#
# Bulk Modulus (GPa) = 24.55350 48.67872 36.61611
# Shear Modulus (GPa) = 27.96238 35.43466 31.69852
#
# Velocity S-wave (km/s) = 3.76652 4.24002 4.01026
# Velocity P-wave (km/s) = 5.60114 6.97620 6.32614
#
# Compressibility (1/GPa) = 0.04072738
#
# Stress axis : x y z
#
# Youngs Moduli (GPa) = 126.41846 107.77928 27.89678
#
# Poissons Ratio (x) = 0.31935 0.12727
# Poissons Ratio (y) = 0.37458 -0.03826
# Poissons Ratio (z) = 0.57676 -0.14783
#
# Static dielectric constant tensor:
#      x y z
#    x 1.642700 0.000000 0.000000 
#    y 0.000000 1.712030 0.000000 
#    z 0.000000 0.000000 1.778930 
# 
# From -- ./inp_files/4328.got.cif
#   From: 2010.05.17/outbox.ucp.g08.bks.cvg/sg61_3_cif.got.tgz:4328.got - 2010.06.11 16:28:26.
