data_PCOD9461305
_publ_section_title
;
Structure prediction by ZEFSAII (Michael W. Deem and Ramdas Pophale) SiO2 
 PCOD9461305
Probable space group: P B C A
;
_chemical_formula_sum "Si O2"
_cell_formula_units_Z 64
_cell_length_a 9.000000
_cell_length_b 30.000000
_cell_length_c 12.000000
_cell_angle_alpha 90.000000
_cell_angle_beta 90.000000
_cell_angle_gamma 90.000000
_cell_volume 3240.000000
_symmetry_space_group_name_H-M "P B C A"
_symmetry_group_IT_number 61
_symmetry_cell_setting 'orthorhombic'
loop_
_space_group_symop_operation_xyz
x,y,z
1/2-x,-y,1/2+z
1/2+x,1/2-y,-z
-x,1/2+y,1/2-z
-x,-y,-z
1/2+x,y,1/2-z
1/2-x,1/2+y,z
x,1/2-y,1/2+z
loop_
_atom_site_type_symbol
_atom_site_label
_atom_site_fract_x
_atom_site_fract_y
_atom_site_fract_z
Si Si1 0.277462 0.053540 0.999508
Si Si2 0.296993 0.406901 0.742336
Si Si3 0.024811 0.107352 0.886860
Si Si4 0.564313 0.800569 0.515225
Si Si5 0.219318 0.946184 0.990966
Si Si6 0.967836 0.606848 0.884966
Si Si7 0.924455 0.700194 0.014473
Si Si8 0.046762 0.342815 0.745718
O O1 0.185201 0.089681 0.925241
O O2 0.435243 0.069628 0.951522
O O3 0.247873 0.999909 0.989510
O O4 0.265043 0.064858 0.131427
O O5 0.265376 0.429037 0.862747
O O6 0.215301 0.359068 0.729831
O O7 0.467331 0.390996 0.743276
O O8 0.010649 0.106497 0.750631
O O9 0.988375 0.157608 0.934439
O O10 0.938093 0.068652 0.957571
O O11 0.494004 0.750342 0.500909
O O12 0.743957 0.797307 0.504491
O O13 0.515610 0.817291 0.638393
O O14 0.311664 0.913879 0.075220
O O15 0.977112 0.658136 0.934381
O O16 0.963174 0.684366 0.139961
#
# Coordination Sequence:
#
# PCOD9461305 Si02
#       8
#     8   8   8   8   8   8   8   8
#     4  12  27  42  77 108 133 194 241 283 350 420
#     4  12  22  44  76  96 140 188 240 294 342 410
#     4  12  26  48  69 102 151 185 229 293 354 420
#     4  12  28  48  73 105 140 186 235 293 359 423
#     4  12  25  50  67 106 145 188 237 293 350 406
#     4  12  26  48  69 102 151 185 229 293 354 420
#     4  12  28  48  73 105 140 186 235 293 359 423
#     4  12  22  48  70 100 140 182 236 300 348 412
#
# _framework density 19.753086
#
# number of rings (size 3 to 8) (size 9 to 14) (size 15 to 20)
#    0.000    0.000    7.500    1.500    8.750    0.000 
#    0.000    0.000    0.000    0.000    0.000    0.000 
#    0.000    0.000    0.000    0.000    0.000    0.000 
#
# Total GULP energy -356583.220520 kJ/mol
# GULP energy per Si atom -5571.612821 kJ/mol
# Density = 1.970813 g / cm^3
# Si number density = 19.753086 Si / 1000 Ang^3
#
#
#
# Elastic Constant Matrix: (Units=GPa)
#
#
# Indices 1 2 3 4 5 6 
#
# 1 18.2366 3.4777 3.9014 0.0000 0.0000 0.0000
# 2 3.4777 167.7114 69.6274 0.0000 0.0000 0.0000
# 3 3.9014 69.6274 184.2461 0.0000 0.0000 0.0000
# 4 0.0000 0.0000 0.0000 47.6852 0.0000 0.0000
# 5 0.0000 0.0000 0.0000 0.0000 32.4235 0.0000
# 6 0.0000 0.0000 0.0000 0.0000 0.0000 37.2032
#
#
#
# Elastic Compliance Matrix: (Units=1/GPa)
#
#
# Indices 1 2 3 4 5 6 
#
# 1 0.055171 -0.000782 -0.000873 0.000000 0.000000 0.000000
# 2 -0.000782 0.007083 -0.002660 0.000000 0.000000 0.000000
# 3 -0.000873 -0.002660 0.006451 0.000000 0.000000 0.000000
# 4 0.000000 0.000000 0.000000 0.020971 0.000000 0.000000
# 5 0.000000 0.000000 0.000000 0.000000 0.030842 0.000000
# 6 0.000000 0.000000 0.000000 0.000000 0.000000 0.026879
#
#
# Mechanical properties :
#
#
# Convention : Reuss Voigt Hill
#
# Bulk Modulus (GPa) = 16.64570 58.24524 37.44547
# Shear Modulus (GPa) = 28.40072 43.00823 35.70448
#
# Velocity S-wave (km/s) = 3.79593 4.67121 4.25613
# Velocity P-wave (km/s) = 5.25902 7.65795 6.56892
#
# Compressibility (1/GPa) = 0.06007559
#
# Stress axis : x y z
#
# Youngs Moduli (GPa) = 18.12562 141.17783 155.00694
#
# Poissons Ratio (x) = 0.11035 0.13530
# Poissons Ratio (y) = 0.01417 0.41236
# Poissons Ratio (z) = 0.01582 0.37557
#
# Static dielectric constant tensor:
#      x y z
#    x 1.757570 0.000000 0.000000 
#    y 0.000000 1.656130 0.000000 
#    z 0.000000 0.000000 1.660510 
# 
# From -- ./inp_files/4971.got.cif
#   From: 2010.05.17/outbox.ucp.g08.bks.cvg/sg61_3_cif.got.tgz:4971.got - 2010.06.11 16:28:26.
