data_PCOD9461750
_publ_section_title
;
Structure prediction by ZEFSAII (Michael W. Deem and Ramdas Pophale) SiO2 
 PCOD9461750
Probable space group: P N M A
;
_chemical_formula_sum "Si O2"
_cell_formula_units_Z 56
_cell_length_a 5.145299
_cell_length_b 24.547530
_cell_length_c 29.055307
_cell_angle_alpha 90.000000
_cell_angle_beta 90.000000
_cell_angle_gamma 90.000000
_cell_volume 3669.812582
_symmetry_space_group_name_H-M "P N M A"
_symmetry_group_IT_number 62
_symmetry_cell_setting 'orthorhombic'
loop_
_space_group_symop_operation_xyz
x,y,z
1/2-x,-y,1/2+z
1/2+x,1/2-y,1/2-z
-x,1/2+y,-z
-x,-y,-z
1/2+x,y,1/2-z
1/2-x,1/2+y,1/2+z
x,1/2-y,z
loop_
_atom_site_type_symbol
_atom_site_label
_atom_site_fract_x
_atom_site_fract_y
_atom_site_fract_z
Si Si1 0.007174 0.469725 0.880179
Si Si2 0.005513 0.867203 0.049733
Si Si3 0.507363 0.589409 0.004995
Si Si4 0.198197 0.541575 0.223490
Si Si5 0.845409 0.750000 0.353310
Si Si6 0.241001 0.171650 0.725007
Si Si7 0.992015 0.487568 0.425234
Si Si8 0.350527 0.750000 0.411533
O O1 0.001412 0.410386 0.906771
O O2 0.915601 0.467447 0.827470
O O3 0.795991 0.507930 0.905218
O O4 0.290082 0.495800 0.888207
O O5 0.287528 0.871637 0.026288
O O6 0.793345 0.887383 0.012904
O O7 0.922755 0.806458 0.063467
O O8 0.501729 0.536381 0.037709
O O9 0.457607 0.567538 0.953649
O O10 0.481613 0.521635 0.239815
O O11 0.241822 0.606815 0.224675
O O12 0.870577 0.696822 0.321543
O O13 0.549660 0.750000 0.369293
O O14 0.054697 0.750000 0.393802
O O15 0.533239 0.189267 0.736465
#
# Coordination Sequence:
#
# PCOD9461750 Si02
#       8
#     8   8   8   8   4   8   8   4
#     4  10  18  30  46  65  86 110 142 184 221 256
#     4  10  20  32  46  62  87 112 141 179 219 262
#     4   9  17  31  47  66  86 106 130 174 225 264
#     4  10  20  31  43  59  83 113 143 176 217 264
#     4  12  22  33  46  58  78 100 144 196 230 261
#     4  10  20  33  46  58  73 101 141 186 234 270
#     4   9  17  28  48  69  84 103 134 174 225 267
#     4  12  24  33  44  64  84 116 146 174 218 271
#
# _framework density 15.259634
#
# number of rings (size 3 to 8) (size 9 to 14) (size 15 to 20)
#    0.000    2.000    0.000    4.714    0.000    8.000 
#    0.000    0.000    0.000    0.000    0.000    0.000 
#    0.000    0.000    0.000    0.000    0.000    0.000 
#
# Total GULP energy -311883.128250 kJ/mol
# GULP energy per Si atom -5569.341576 kJ/mol
# Density = 1.522490 g / cm^3
# Si number density = 15.259634 Si / 1000 Ang^3
#
#
#
# Elastic Constant Matrix: (Units=GPa)
#
#
# Indices 1 2 3 4 5 6 
#
# 1 60.4367 2.8650 5.9810 0.0000 0.0000 0.0000
# 2 2.8650 23.3188 26.0937 0.0000 0.0000 0.0000
# 3 5.9810 26.0937 44.3679 0.0000 0.0000 0.0000
# 4 0.0000 0.0000 0.0000 22.9352 0.0000 0.0000
# 5 0.0000 0.0000 0.0000 0.0000 18.6387 0.0000
# 6 0.0000 0.0000 0.0000 0.0000 0.0000 10.4712
#
#
#
# Elastic Compliance Matrix: (Units=1/GPa)
#
#
# Indices 1 2 3 4 5 6 
#
# 1 0.016785 0.001374 -0.003071 0.000000 0.000000 0.000000
# 2 0.001374 0.125543 -0.074019 0.000000 0.000000 0.000000
# 3 -0.003071 -0.074019 0.066485 0.000000 0.000000 0.000000
# 4 0.000000 0.000000 0.000000 0.043601 0.000000 0.000000
# 5 0.000000 0.000000 0.000000 0.000000 0.053652 0.000000
# 6 0.000000 0.000000 0.000000 0.000000 0.000000 0.095500
#
#
# Mechanical properties :
#
#
# Convention : Reuss Voigt Hill
#
# Bulk Modulus (GPa) = 17.42758 22.00030 19.71394
# Shear Modulus (GPa) = 8.73934 16.62126 12.68030
#
# Velocity S-wave (km/s) = 2.39573 3.30393 2.88578
# Velocity P-wave (km/s) = 4.37015 5.38546 4.90415
#
# Compressibility (1/GPa) = 0.05738033
#
# Stress axis : x y z
#
# Youngs Moduli (GPa) = 59.57699 7.96541 15.04096
#
# Poissons Ratio (x) = -0.01094 0.04619
# Poissons Ratio (y) = -0.08185 1.11332
# Poissons Ratio (z) = 0.18294 0.58960
#
# Static dielectric constant tensor:
#      x y z
#    x 1.539650 0.000000 0.000000 
#    y 0.000000 1.502830 0.000000 
#    z 0.000000 0.000000 1.527740 
# 
# From -- ./inp_files/28399.got.cif
#   From: 2010.05.17/outbox.cif.g08.bks.cpg/sg62_15_cif.got.tgz:28399.got - 2010.06.03 15:25:27.
