data_PCOD9461382
_publ_section_title
;
Structure prediction by ZEFSAII (Michael W. Deem and Ramdas Pophale) SiO2 
 PCOD9461382
Probable space group: P N M A
;
_chemical_formula_sum "Si O2"
_cell_formula_units_Z 56
_cell_length_a 18.295730
_cell_length_b 9.007965
_cell_length_c 22.528794
_cell_angle_alpha 90.000000
_cell_angle_beta 90.000000
_cell_angle_gamma 90.000000
_cell_volume 3712.909610
_symmetry_space_group_name_H-M "P N M A"
_symmetry_group_IT_number 62
_symmetry_cell_setting 'orthorhombic'
loop_
_space_group_symop_operation_xyz
x,y,z
1/2-x,-y,1/2+z
1/2+x,1/2-y,1/2-z
-x,1/2+y,-z
-x,-y,-z
1/2+x,y,1/2-z
1/2-x,1/2+y,1/2+z
x,1/2-y,z
loop_
_atom_site_type_symbol
_atom_site_label
_atom_site_fract_x
_atom_site_fract_y
_atom_site_fract_z
Si Si1 0.584741 0.071397 0.282382
Si Si2 0.920966 0.072613 0.215430
Si Si3 0.221052 0.079206 0.820253
Si Si4 0.877918 0.428651 0.656251
Si Si5 0.375482 0.071772 0.149768
Si Si6 0.993746 0.572580 0.435715
Si Si7 0.729140 0.577518 0.318379
O O1 0.590760 0.250000 0.282974
O O2 0.502934 0.027093 0.301751
O O3 0.594865 0.013151 0.214946
O O4 0.650125 0.999297 0.320004
O O5 0.917416 0.250000 0.212894
O O6 0.906871 0.031291 0.284626
O O7 0.854429 0.008343 0.177328
O O8 0.206867 0.250000 0.835365
O O9 0.293426 0.027265 0.855018
O O10 0.247176 0.072422 0.751286
O O11 0.877713 0.250000 0.668483
O O12 0.932911 0.456692 0.602618
O O13 0.376049 0.250000 0.144705
O O14 0.426944 0.998007 0.100931
O O15 0.293123 0.009350 0.147822
O O16 0.984701 0.750000 0.440054
O O17 0.000000 0.500000 0.500000
O O18 0.725995 0.750000 0.335660
#
# Coordination Sequence:
#
# PCOD9461382 Si02
#       7
#     8   8   8   8   8   8   8
#     4  10  17  26  41  63  89 117 147 179 215 259
#     4   9  17  26  39  62  89 115 144 176 214 260
#     4   8  15  26  40  58  80 109 144 176 211 258
#     4   9  18  31  44  59  82 114 149 185 224 264
#     4  10  18  31  46  62  85 115 149 186 227 266
#     4  11  22  34  48  65  87 116 154 195 231 268
#     4   9  17  28  41  61  85 114 148 179 216 263
#
# _framework density 15.082509999999999
#
# number of rings (size 3 to 8) (size 9 to 14) (size 15 to 20)
#    0.000    2.571    1.429    2.571    0.000    5.714 
#    0.000    0.000    0.000    0.000    0.000    0.000 
#    0.000    1.143    0.000    3.429    0.000    5.286 
#
# Total GULP energy -311932.568326 kJ/mol
# GULP energy per Si atom -5570.224434 kJ/mol
# Density = 1.504818 g / cm^3
# Si number density = 15.082510 Si / 1000 Ang^3
#
#
#
# Elastic Constant Matrix: (Units=GPa)
#
#
# Indices 1 2 3 4 5 6 
#
# 1 171.0826 58.2060 41.1543 0.0000 0.0000 0.0000
# 2 58.2060 56.0050 26.3137 0.0000 0.0000 0.0000
# 3 41.1543 26.3137 43.9064 0.0000 0.0000 0.0000
# 4 0.0000 0.0000 0.0000 15.6660 0.0000 0.0000
# 5 0.0000 0.0000 0.0000 0.0000 11.0923 0.0000
# 6 0.0000 0.0000 0.0000 0.0000 0.0000 29.4602
#
#
#
# Elastic Compliance Matrix: (Units=1/GPa)
#
#
# Indices 1 2 3 4 5 6 
#
# 1 0.009565 -0.007974 -0.004187 0.000000 0.000000 0.000000
# 2 -0.007974 0.031502 -0.011405 0.000000 0.000000 0.000000
# 3 -0.004187 -0.011405 0.033535 0.000000 0.000000 0.000000
# 4 0.000000 0.000000 0.000000 0.063833 0.000000 0.000000
# 5 0.000000 0.000000 0.000000 0.000000 0.090153 0.000000
# 6 0.000000 0.000000 0.000000 0.000000 0.000000 0.033944
#
#
# Mechanical properties :
#
#
# Convention : Reuss Voigt Hill
#
# Bulk Modulus (GPa) = 36.40289 58.03800 47.22044
# Shear Modulus (GPa) = 15.68285 20.93170 18.30727
#
# Velocity S-wave (km/s) = 3.22810 3.72938 3.48775
# Velocity P-wave (km/s) = 6.17109 7.55700 6.89893
#
# Compressibility (1/GPa) = 0.02747035
#
# Stress axis : x y z
#
# Youngs Moduli (GPa) = 104.54594 31.74450 29.81938
#
# Poissons Ratio (x) = 0.25313 0.12485
# Poissons Ratio (y) = 0.83365 0.34009
# Poissons Ratio (z) = 0.43770 0.36205
#
# Static dielectric constant tensor:
#      x y z
#    x 1.531610 0.000000 0.000000 
#    y 0.000000 1.506680 0.000000 
#    z 0.000000 0.000000 1.462980 
# 
# From -- ./inp_files/27542.got.cif
#   From: 2010.05.17/outbox.cif.g08.bks.cpg/sg62_14_cif.got.tgz:27542.got - 2010.06.03 15:25:27.
