data_PCOD9461041
_publ_section_title
;
Structure prediction by ZEFSAII (Michael W. Deem and Ramdas Pophale) SiO2 
 PCOD9461041
Probable space group: P B C A
;
_chemical_formula_sum "Si O2"
_cell_formula_units_Z 48
_cell_length_a 21.700085
_cell_length_b 8.544709
_cell_length_c 10.165198
_cell_angle_alpha 90.000000
_cell_angle_beta 90.000000
_cell_angle_gamma 90.000000
_cell_volume 1884.840280
_symmetry_space_group_name_H-M "P B C A"
_symmetry_group_IT_number 61
_symmetry_cell_setting 'orthorhombic'
loop_
_space_group_symop_operation_xyz
x,y,z
1/2-x,-y,1/2+z
1/2+x,1/2-y,-z
-x,1/2+y,1/2-z
-x,-y,-z
1/2+x,y,1/2-z
1/2-x,1/2+y,z
x,1/2-y,1/2+z
loop_
_atom_site_type_symbol
_atom_site_label
_atom_site_fract_x
_atom_site_fract_y
_atom_site_fract_z
Si Si1 0.763309 0.523185 0.043014
Si Si2 0.783582 0.244601 0.709345
Si Si3 0.361869 0.436126 0.105587
Si Si4 0.534241 0.423359 0.301571
Si Si5 0.656486 0.287201 0.365697
Si Si6 0.521675 0.744678 0.946260
O O1 0.727663 0.576917 0.174271
O O2 0.783067 0.347241 0.069890
O O3 0.706812 0.532056 0.946100
O O4 0.820881 0.632264 0.003227
O O5 0.845013 0.180363 0.774882
O O6 0.720123 0.221085 0.787906
O O7 0.377282 0.617562 0.133297
O O8 0.412872 0.341064 0.025831
O O9 0.607412 0.400474 0.300770
O O10 0.507262 0.306034 0.416146
O O11 0.509757 0.378961 0.156202
O O12 0.522515 0.597245 0.356996
#
# Coordination Sequence:
#
# PCOD9461041 Si02
#       6
#     8   8   8   8   8   8
#     4  11  24  41  67 101 142 182 223 284 358 426
#     4  11  24  41  66 100 139 179 223 284 352 427
#     4  11  25  42  67 102 135 182 233 288 355 426
#     4  11  28  49  73 103 142 192 247 309 364 433
#     4  11  25  42  67 102 138 179 234 291 352 423
#     4  11  28  49  74 104 142 191 251 304 367 436
#
# _framework density 25.466351
#
# number of rings (size 3 to 8) (size 9 to 14) (size 15 to 20)
#    0.000    1.000    3.333    1.000    9.333    4.000 
#    0.000    0.000    0.000    0.000    0.000    0.000 
#    0.000    0.000    0.000    0.000    0.000    0.000 
#
# Total GULP energy -267679.286144 kJ/mol
# GULP energy per Si atom -5576.651795 kJ/mol
# Density = 2.540839 g / cm^3
# Si number density = 25.466351 Si / 1000 Ang^3
#
#
#
# Elastic Constant Matrix: (Units=GPa)
#
#
# Indices 1 2 3 4 5 6 
#
# 1 56.8190 13.6728 7.7187 0.0000 0.0000 0.0000
# 2 13.6728 109.1030 13.8813 0.0000 0.0000 0.0000
# 3 7.7187 13.8813 51.0937 0.0000 0.0000 0.0000
# 4 0.0000 0.0000 0.0000 46.5587 0.0000 0.0000
# 5 0.0000 0.0000 0.0000 0.0000 25.3950 0.0000
# 6 0.0000 0.0000 0.0000 0.0000 0.0000 42.1237
#
#
#
# Elastic Compliance Matrix: (Units=1/GPa)
#
#
# Indices 1 2 3 4 5 6 
#
# 1 0.018389 -0.002021 -0.002229 0.000000 0.000000 0.000000
# 2 -0.002021 0.009716 -0.002334 0.000000 0.000000 0.000000
# 3 -0.002229 -0.002334 0.020543 0.000000 0.000000 0.000000
# 4 0.000000 0.000000 0.000000 0.021478 0.000000 0.000000
# 5 0.000000 0.000000 0.000000 0.000000 0.039378 0.000000
# 6 0.000000 0.000000 0.000000 0.000000 0.000000 0.023740
#
#
# Mechanical properties :
#
#
# Convention : Reuss Voigt Hill
#
# Bulk Modulus (GPa) = 28.18554 31.95125 30.06840
# Shear Modulus (GPa) = 31.59795 34.93166 33.26481
#
# Velocity S-wave (km/s) = 3.52628 3.70764 3.61810
# Velocity P-wave (km/s) = 5.26036 5.55900 5.41174
#
# Compressibility (1/GPa) = 0.03547918
#
# Stress axis : x y z
#
# Youngs Moduli (GPa) = 54.38078 102.92397 48.67886
#
# Poissons Ratio (x) = 0.20800 0.10850
# Poissons Ratio (y) = 0.10990 0.11363
# Poissons Ratio (z) = 0.12121 0.24026
#
# Static dielectric constant tensor:
#      x y z
#    x 1.977910 0.000000 0.000000 
#    y 0.000000 2.077520 0.000000 
#    z 0.000000 0.000000 2.247090 
# 
# From -- ./inp_files/6590.got.cif
#   From: 2010.05.17/outbox.cif.g08.bks.cpg/sg61_4_cif.got.tgz:6590.got - 2010.06.03 15:17:17.
