data_PCOD9461079
_publ_section_title
;
Structure prediction by ZEFSAII (Michael W. Deem and Ramdas Pophale) SiO2 
 PCOD9461079
Probable space group: P B C A
;
_chemical_formula_sum "Si O2"
_cell_formula_units_Z 48
_cell_length_a 9.787014
_cell_length_b 13.129154
_cell_length_c 17.838124
_cell_angle_alpha 90.000000
_cell_angle_beta 90.000000
_cell_angle_gamma 90.000000
_cell_volume 2292.113561
_symmetry_space_group_name_H-M "P B C A"
_symmetry_group_IT_number 61
_symmetry_cell_setting 'orthorhombic'
loop_
_space_group_symop_operation_xyz
x,y,z
1/2-x,-y,1/2+z
1/2+x,1/2-y,-z
-x,1/2+y,1/2-z
-x,-y,-z
1/2+x,y,1/2-z
1/2-x,1/2+y,z
x,1/2-y,1/2+z
loop_
_atom_site_type_symbol
_atom_site_label
_atom_site_fract_x
_atom_site_fract_y
_atom_site_fract_z
Si Si1 0.482174 0.533882 0.749245
Si Si2 0.757896 0.332287 0.254861
Si Si3 0.657003 0.375587 0.532746
Si Si4 0.880182 0.049678 0.409032
Si Si5 0.669803 0.223770 0.404020
Si Si6 0.615216 0.844642 0.653342
O O1 0.635834 0.574423 0.751234
O O2 0.385988 0.626735 0.775877
O O3 0.433579 0.507171 0.665119
O O4 0.451503 0.435255 0.798633
O O5 0.732950 0.294709 0.339251
O O6 0.814839 0.238241 0.207324
O O7 0.505162 0.376689 0.567212
O O8 0.652409 0.469274 0.474347
O O9 0.688537 0.275244 0.484565
O O10 0.770754 0.386503 0.596567
O O11 0.747020 0.117093 0.396403
O O12 0.509206 0.210102 0.389206
#
# Coordination Sequence:
#
# PCOD9461079 Si02
#       6
#     8   8   8   8   8   8
#     4  12  25  44  74 103 139 184 238 288 352 419
#     4  12  25  44  70 104 139 183 235 294 348 413
#     4  11  26  46  71 102 141 187 228 290 354 423
#     4  11  24  47  72  99 144 183 230 291 354 414
#     4  12  25  46  68 103 141 184 230 292 350 415
#     4  12  27  45  73 108 138 188 243 286 352 427
#
# _framework density 20.941369999999999
#
# number of rings (size 3 to 8) (size 9 to 14) (size 15 to 20)
#    0.000    0.333    5.000    3.000    4.667    4.667 
#    0.000    0.000    0.000    0.000    0.000    0.000 
#    0.000    0.000    0.000    0.000    0.000    0.000 
#
# Total GULP energy -268678.895504 kJ/mol
# GULP energy per Si atom -5597.476990 kJ/mol
# Density = 2.089371 g / cm^3
# Si number density = 20.941370 Si / 1000 Ang^3
#
#
#
# Elastic Constant Matrix: (Units=GPa)
#
#
# Indices 1 2 3 4 5 6 
#
# 1 76.9776 -2.0656 26.7510 0.0000 0.0000 0.0000
# 2 -2.0656 40.9190 20.2574 0.0000 0.0000 0.0000
# 3 26.7510 20.2574 82.2089 0.0000 0.0000 0.0000
# 4 0.0000 0.0000 0.0000 33.6999 0.0000 0.0000
# 5 0.0000 0.0000 0.0000 0.0000 33.3963 0.0000
# 6 0.0000 0.0000 0.0000 0.0000 0.0000 45.8560
#
#
#
# Elastic Compliance Matrix: (Units=1/GPa)
#
#
# Indices 1 2 3 4 5 6 
#
# 1 0.015109 0.003641 -0.005814 0.000000 0.000000 0.000000
# 2 0.003641 0.028711 -0.008260 0.000000 0.000000 0.000000
# 3 -0.005814 -0.008260 0.016091 0.000000 0.000000 0.000000
# 4 0.000000 0.000000 0.000000 0.029674 0.000000 0.000000
# 5 0.000000 0.000000 0.000000 0.000000 0.029943 0.000000
# 6 0.000000 0.000000 0.000000 0.000000 0.000000 0.021807
#
#
# Mechanical properties :
#
#
# Convention : Reuss Voigt Hill
#
# Bulk Modulus (GPa) = 25.61050 32.22123 28.91587
# Shear Modulus (GPa) = 28.53619 32.93461 30.73540
#
# Velocity S-wave (km/s) = 3.69544 3.97004 3.83520
# Velocity P-wave (km/s) = 5.51947 6.03612 5.78357
#
# Compressibility (1/GPa) = 0.03904648
#
# Stress axis : x y z
#
# Youngs Moduli (GPa) = 66.18658 34.82952 62.14590
#
# Poissons Ratio (x) = -0.12681 0.36129
# Poissons Ratio (y) = -0.24097 0.51330
# Poissons Ratio (z) = 0.38478 0.28768
#
# Static dielectric constant tensor:
#      x y z
#    x 1.718630 0.000000 0.000000 
#    y 0.000000 1.747920 0.000000 
#    z 0.000000 0.000000 1.736990 
# 
# From -- ./inp_files/8907.got.cif
#   From: 2010.05.17/outbox.cif.g08.bks.cpg/sg61_5_cif.got.tgz:8907.got - 2010.06.03 15:17:17.
