data_PCOD9461937
_publ_section_title
;
Structure prediction by ZEFSAII (Michael W. Deem and Ramdas Pophale) SiO2 
 PCOD9461937
Probable space group: P N M A
;
_chemical_formula_sum "Si O2"
_cell_formula_units_Z 64
_cell_length_a 21.277723
_cell_length_b 7.861585
_cell_length_c 17.493716
_cell_angle_alpha 90.000000
_cell_angle_beta 90.000000
_cell_angle_gamma 90.000000
_cell_volume 2926.289823
_symmetry_space_group_name_H-M "P N M A"
_symmetry_group_IT_number 62
_symmetry_cell_setting 'orthorhombic'
loop_
_space_group_symop_operation_xyz
x,y,z
1/2-x,-y,1/2+z
1/2+x,1/2-y,1/2-z
-x,1/2+y,-z
-x,-y,-z
1/2+x,y,1/2-z
1/2-x,1/2+y,1/2+z
x,1/2-y,z
loop_
_atom_site_type_symbol
_atom_site_label
_atom_site_fract_x
_atom_site_fract_y
_atom_site_fract_z
Si Si1 0.672104 0.450363 0.933318
Si Si2 0.369189 0.050343 0.228506
Si Si3 0.704268 0.446726 0.637764
Si Si4 0.594863 0.555649 0.530886
Si Si5 0.154054 0.954943 0.399831
Si Si6 0.615481 0.952319 0.260729
Si Si7 0.984382 0.456051 0.165754
Si Si8 0.813431 0.459266 0.903047
O O1 0.676421 0.250000 0.921794
O O2 0.634475 0.521419 0.861287
O O3 0.744606 0.516525 0.930809
O O4 0.640784 0.483398 0.015051
O O5 0.363366 0.250000 0.243075
O O6 0.432423 0.990425 0.271262
O O7 0.312157 0.960757 0.272988
O O8 0.697514 0.250000 0.614442
O O9 0.652419 0.552605 0.592001
O O10 0.773964 0.503830 0.618685
O O11 0.578210 0.750000 0.512225
O O12 0.538093 0.480612 0.581791
O O13 0.629113 0.478484 0.457040
O O14 0.150470 0.750000 0.402638
O O15 0.115713 0.018723 0.326036
O O16 0.624969 0.750000 0.254374
O O17 0.670670 0.014453 0.316930
O O18 0.551041 0.983867 0.304868
O O19 0.984499 0.250000 0.162260
O O20 0.814445 0.250000 0.907122
#
# Coordination Sequence:
#
# PCOD9461937 Si02
#       8
#     8   8   8   8   8   8   8   8
#     4  11  21  35  59  87 112 140 183 228 272 337
#     4  10  21  37  57  79 110 146 180 225 283 329
#     4  10  18  31  54  82 111 140 181 225 266 328
#     4   9  17  33  55  79 112 150 180 217 277 329
#     4  10  21  36  53  78 115 148 178 225 285 331
#     4  10  21  37  56  77 107 149 187 226 272 325
#     4   9  20  37  55  77 108 146 188 230 268 322
#     4   9  18  34  56  83 115 146 177 218 278 336
#
# _framework density 21.870697
#
# number of rings (size 3 to 8) (size 9 to 14) (size 15 to 20)
#    0.000    2.250    1.250    2.625    0.000    6.000 
#    0.000    3.750    0.000    0.000    0.000    0.000 
#    0.000    0.000    0.000    0.000    0.000    0.000 
#
# Total GULP energy -357255.378959 kJ/mol
# GULP energy per Si atom -5582.115296 kJ/mol
# Density = 2.182092 g / cm^3
# Si number density = 21.870697 Si / 1000 Ang^3
#
#
#
# Elastic Constant Matrix: (Units=GPa)
#
#
# Indices 1 2 3 4 5 6 
#
# 1 33.8817 -0.4178 24.5801 0.0000 0.0000 0.0000
# 2 -0.4178 30.1205 6.7585 0.0000 0.0000 0.0000
# 3 24.5801 6.7585 146.2897 0.0000 0.0000 0.0000
# 4 0.0000 0.0000 0.0000 18.1465 0.0000 0.0000
# 5 0.0000 0.0000 0.0000 0.0000 26.6247 0.0000
# 6 0.0000 0.0000 0.0000 0.0000 0.0000 12.9922
#
#
#
# Elastic Compliance Matrix: (Units=1/GPa)
#
#
# Indices 1 2 3 4 5 6 
#
# 1 0.033703 0.001756 -0.005744 0.000000 0.000000 0.000000
# 2 0.001756 0.033639 -0.001849 0.000000 0.000000 0.000000
# 3 -0.005744 -0.001849 0.007886 0.000000 0.000000 0.000000
# 4 0.000000 0.000000 0.000000 0.055107 0.000000 0.000000
# 5 0.000000 0.000000 0.000000 0.000000 0.037559 0.000000
# 6 0.000000 0.000000 0.000000 0.000000 0.000000 0.076970
#
#
# Mechanical properties :
#
#
# Convention : Reuss Voigt Hill
#
# Bulk Modulus (GPa) = 15.73439 30.23704 22.98572
# Shear Modulus (GPa) = 18.00353 23.51076 20.75715
#
# Velocity S-wave (km/s) = 2.87222 3.28226 3.08406
# Velocity P-wave (km/s) = 4.26726 5.31222 4.81815
#
# Compressibility (1/GPa) = 0.06355504
#
# Stress axis : x y z
#
# Youngs Moduli (GPa) = 29.67067 29.72716 126.80172
#
# Poissons Ratio (x) = -0.05221 0.72836
# Poissons Ratio (y) = -0.05211 0.23448
# Poissons Ratio (z) = 0.17043 0.05497
#
# Static dielectric constant tensor:
#      x y z
#    x 1.796310 0.000000 0.000000 
#    y 0.000000 1.809200 0.000000 
#    z 0.000000 0.000000 1.854200 
# 
# From -- ./inp_files/20979.got.cif
#   From: 2010.05.17/outbox.cif.g08.bks.cpg/sg62_11_cif.got.tgz:20979.got - 2010.06.03 15:25:27.
