data_PCOD9461294
_publ_section_title
;
Structure prediction by ZEFSAII (Michael W. Deem and Ramdas Pophale) SiO2 
 PCOD9461294
Probable space group: P B C A
;
_chemical_formula_sum "Si O2"
_cell_formula_units_Z 64
_cell_length_a 9.000000
_cell_length_b 18.000000
_cell_length_c 21.000000
_cell_angle_alpha 90.000000
_cell_angle_beta 90.000000
_cell_angle_gamma 90.000000
_cell_volume 3402.000000
_symmetry_space_group_name_H-M "P B C A"
_symmetry_group_IT_number 61
_symmetry_cell_setting 'orthorhombic'
loop_
_space_group_symop_operation_xyz
x,y,z
1/2-x,-y,1/2+z
1/2+x,1/2-y,-z
-x,1/2+y,1/2-z
-x,-y,-z
1/2+x,y,1/2-z
1/2-x,1/2+y,z
x,1/2-y,1/2+z
loop_
_atom_site_type_symbol
_atom_site_label
_atom_site_fract_x
_atom_site_fract_y
_atom_site_fract_z
Si Si1 0.933773 0.758714 0.249355
Si Si2 0.708863 0.672404 0.583873
Si Si3 0.770644 0.883760 0.703158
Si Si4 0.550317 0.817432 0.621607
Si Si5 0.067783 0.693061 0.620967
Si Si6 0.613622 0.119174 0.848962
Si Si7 0.778918 0.337254 0.935896
Si Si8 0.598054 0.944149 0.826865
O O1 0.814497 0.702409 0.218459
O O2 0.883192 0.835166 0.282334
O O3 0.996584 0.714310 0.310003
O O4 0.048690 0.777817 0.193455
O O5 0.660912 0.758982 0.588037
O O6 0.553736 0.638227 0.618737
O O7 0.708548 0.645983 0.510779
O O8 0.890097 0.667468 0.605687
O O9 0.653969 0.885635 0.644410
O O10 0.694497 0.917895 0.765823
O O11 0.926503 0.922625 0.686638
O O12 0.396724 0.827101 0.582656
O O13 0.222793 0.642467 0.619489
O O14 0.121844 0.763587 0.579105
O O15 0.614130 0.031630 0.837741
O O16 0.842896 0.399672 0.888482
#
# Coordination Sequence:
#
# PCOD9461294 Si02
#       8
#     8   8   8   8   8   8   8   8
#     4  11  20  38  68  98 129 164 220 278 333 402
#     4  11  25  42  69  99 130 177 234 278 334 389
#     4  12  21  40  68  99 132 172 224 276 343 401
#     4  11  20  38  67 101 126 163 226 289 324 391
#     4  12  23  42  71 100 128 176 224 286 338 393
#     4  11  28  44  64 102 143 173 220 279 348 404
#     4  12  22  44  68  96 133 177 234 280 325 399
#     4  12  25  42  64  99 140 181 217 276 345 417
#
# _framework density 18.812463000000001
#
# number of rings (size 3 to 8) (size 9 to 14) (size 15 to 20)
#    0.000    0.500    7.500    1.500    3.500    0.500 
#    4.500    0.625    0.000    0.000    0.000    0.000 
#    0.000    0.000    0.000    0.000    0.000    0.000 
#
# Total GULP energy -356276.581013 kJ/mol
# GULP energy per Si atom -5566.821578 kJ/mol
# Density = 1.876965 g / cm^3
# Si number density = 18.812463 Si / 1000 Ang^3
#
#
#
# Elastic Constant Matrix: (Units=GPa)
#
#
# Indices 1 2 3 4 5 6 
#
# 1 161.5600 38.6995 34.3061 0.0000 0.0000 0.0000
# 2 38.6995 105.2806 21.3696 0.0000 0.0000 0.0000
# 3 34.3061 21.3696 78.4898 0.0000 0.0000 0.0000
# 4 0.0000 0.0000 0.0000 10.8259 0.0000 0.0000
# 5 0.0000 0.0000 0.0000 0.0000 35.8822 0.0000
# 6 0.0000 0.0000 0.0000 0.0000 0.0000 27.7644
#
#
#
# Elastic Compliance Matrix: (Units=1/GPa)
#
#
# Indices 1 2 3 4 5 6 
#
# 1 0.007252 -0.002141 -0.002587 0.000000 0.000000 0.000000
# 2 -0.002141 0.010686 -0.001974 0.000000 0.000000 0.000000
# 3 -0.002587 -0.001974 0.014408 0.000000 0.000000 0.000000
# 4 0.000000 0.000000 0.000000 0.092371 0.000000 0.000000
# 5 0.000000 0.000000 0.000000 0.000000 0.027869 0.000000
# 6 0.000000 0.000000 0.000000 0.000000 0.000000 0.036017
#
#
# Mechanical properties :
#
#
# Convention : Reuss Voigt Hill
#
# Bulk Modulus (GPa) = 52.78732 59.34231 56.06481
# Shear Modulus (GPa) = 24.00150 31.62484 27.81317
#
# Velocity S-wave (km/s) = 3.57575 4.10452 3.84923
# Velocity P-wave (km/s) = 6.72076 7.35360 7.04429
#
# Compressibility (1/GPa) = 0.01894394
#
# Stress axis : x y z
#
# Youngs Moduli (GPa) = 137.89930 93.58139 69.40351
#
# Poissons Ratio (x) = 0.20032 0.17953
# Poissons Ratio (y) = 0.29518 0.13699
# Poissons Ratio (z) = 0.35671 0.18471
#
# Static dielectric constant tensor:
#      x y z
#    x 1.739450 0.000000 0.000000 
#    y 0.000000 1.670500 0.000000 
#    z 0.000000 0.000000 1.665510 
# 
# From -- ./inp_files/10187.got.cif
#   From: 2010.05.17/outbox.ucp.g08.bks.cvg/sg61_6_cif.got.tgz:10187.got - 2010.06.11 16:28:26.
