data_PCOD9461844
_publ_section_title
;
Structure prediction by ZEFSAII (Michael W. Deem and Ramdas Pophale) SiO2 
 PCOD9461844
Probable space group: P N M A
;
_chemical_formula_sum "Si O2"
_cell_formula_units_Z 64
_cell_length_a 9.525233
_cell_length_b 14.207945
_cell_length_c 25.763462
_cell_angle_alpha 90.000000
_cell_angle_beta 90.000000
_cell_angle_gamma 90.000000
_cell_volume 3486.672020
_symmetry_space_group_name_H-M "P N M A"
_symmetry_group_IT_number 62
_symmetry_cell_setting 'orthorhombic'
loop_
_space_group_symop_operation_xyz
x,y,z
1/2-x,-y,1/2+z
1/2+x,1/2-y,1/2-z
-x,1/2+y,-z
-x,-y,-z
1/2+x,y,1/2-z
1/2-x,1/2+y,1/2+z
x,1/2-y,z
loop_
_atom_site_type_symbol
_atom_site_label
_atom_site_fract_x
_atom_site_fract_y
_atom_site_fract_z
Si Si1 0.834155 0.508857 0.400654
Si Si2 0.933462 0.858884 0.607107
Si Si3 0.242549 0.148874 0.970653
Si Si4 0.569599 0.352684 0.988156
Si Si5 0.718861 0.360004 0.700808
Si Si6 0.944688 0.859128 0.308976
Si Si7 0.556176 0.442869 0.449395
Si Si8 0.192140 0.991353 0.883800
O O1 0.888106 0.561657 0.452293
O O2 0.879718 0.574937 0.353172
O O3 0.671161 0.495116 0.413556
O O4 0.917026 0.411330 0.391986
O O5 0.939508 0.750000 0.623318
O O6 0.882111 0.861619 0.547084
O O7 0.819899 0.925604 0.634493
O O8 0.212974 0.250000 0.945219
O O9 0.401776 0.149418 0.989656
O O10 0.233446 0.064551 0.929682
O O11 0.142051 0.137093 0.020279
O O12 0.617689 0.250000 0.967670
O O13 0.697316 0.250000 0.685305
O O14 0.645681 0.370610 0.756651
O O15 0.652717 0.437231 0.662296
O O16 0.888395 0.375959 0.700480
O O17 0.933448 0.750000 0.325684
O O18 0.500000 0.500000 0.500000
O O19 0.427663 0.427555 0.410392
#
# Coordination Sequence:
#
# PCOD9461844 Si02
#       8
#     8   8   8   8   8   8   8   8
#     4  12  20  37  58  82 116 155 199 238 287 356
#     4  11  22  35  57  83 109 149 199 247 283 331
#     4  10  18  32  54  81 115 151 190 233 286 349
#     4  10  18  30  54  83 111 146 189 235 280 335
#     4  10  21  39  62  90 122 151 189 240 297 356
#     4  10  22  38  61  92 120 150 187 237 295 354
#     4  10  23  34  50  80 119 156 193 233 284 341
#     4  11  21  38  55  83 114 158 194 234 291 347
#
# _framework density 18.355612000000001
#
# number of rings (size 3 to 8) (size 9 to 14) (size 15 to 20)
#    0.000    1.500    3.750    2.625    1.750    2.500 
#    0.000    6.875    0.000    0.750    0.000    0.000 
#    0.000    0.000    0.000    0.000    0.000    0.000 
#
# Total GULP energy -356670.419606 kJ/mol
# GULP energy per Si atom -5572.975306 kJ/mol
# Density = 1.831383 g / cm^3
# Si number density = 18.355612 Si / 1000 Ang^3
#
#
#
# Elastic Constant Matrix: (Units=GPa)
#
#
# Indices 1 2 3 4 5 6 
#
# 1 60.2418 3.6530 -1.6298 0.0000 0.0000 0.0000
# 2 3.6530 84.4360 10.7063 0.0000 0.0000 0.0000
# 3 -1.6298 10.7063 45.3065 0.0000 0.0000 0.0000
# 4 0.0000 0.0000 0.0000 23.2840 0.0000 0.0000
# 5 0.0000 0.0000 0.0000 0.0000 20.5327 0.0000
# 6 0.0000 0.0000 0.0000 0.0000 0.0000 9.0438
#
#
#
# Elastic Compliance Matrix: (Units=1/GPa)
#
#
# Indices 1 2 3 4 5 6 
#
# 1 0.016671 -0.000822 0.000794 0.000000 0.000000 0.000000
# 2 -0.000822 0.012250 -0.002924 0.000000 0.000000 0.000000
# 3 0.000794 -0.002924 0.022791 0.000000 0.000000 0.000000
# 4 0.000000 0.000000 0.000000 0.042948 0.000000 0.000000
# 5 0.000000 0.000000 0.000000 0.000000 0.048703 0.000000
# 6 0.000000 0.000000 0.000000 0.000000 0.000000 0.110573
#
#
# Mechanical properties :
#
#
# Convention : Reuss Voigt Hill
#
# Bulk Modulus (GPa) = 21.83039 23.93815 22.88427
# Shear Modulus (GPa) = 18.17455 22.38907 20.28181
#
# Velocity S-wave (km/s) = 3.15006 3.49627 3.32767
# Velocity P-wave (km/s) = 5.01491 5.41924 5.22099
#
# Compressibility (1/GPa) = 0.04580769
#
# Stress axis : x y z
#
# Youngs Moduli (GPa) = 59.98407 81.63511 43.87611
#
# Poissons Ratio (x) = 0.06710 -0.03483
# Poissons Ratio (y) = 0.04930 0.12830
# Poissons Ratio (z) = -0.04762 0.23872
#
# Static dielectric constant tensor:
#      x y z
#    x 1.682550 0.000000 0.000000 
#    y 0.000000 1.668580 0.000000 
#    z 0.000000 0.000000 1.624630 
# 
# From -- ./inp_files/28959.got.cif
#   From: 2010.05.17/outbox.cif.g08.bks.cpg/sg62_15_cif.got.tgz:28959.got - 2010.06.03 15:25:27.
