data_PCOD9461014
_publ_section_title
;
Structure prediction by ZEFSAII (Michael W. Deem and Ramdas Pophale) SiO2 
 PCOD9461014
Probable space group: P B C A
;
_chemical_formula_sum "Si O2"
_cell_formula_units_Z 48
_cell_length_a 8.677529
_cell_length_b 15.208978
_cell_length_c 14.244047
_cell_angle_alpha 90.000000
_cell_angle_beta 90.000000
_cell_angle_gamma 90.000000
_cell_volume 1879.877299
_symmetry_space_group_name_H-M "P B C A"
_symmetry_group_IT_number 61
_symmetry_cell_setting 'orthorhombic'
loop_
_space_group_symop_operation_xyz
x,y,z
1/2-x,-y,1/2+z
1/2+x,1/2-y,-z
-x,1/2+y,1/2-z
-x,-y,-z
1/2+x,y,1/2-z
1/2-x,1/2+y,z
x,1/2-y,1/2+z
loop_
_atom_site_type_symbol
_atom_site_label
_atom_site_fract_x
_atom_site_fract_y
_atom_site_fract_z
Si Si1 0.511451 0.164513 0.335600
Si Si2 0.501511 0.392440 0.640980
Si Si3 0.278805 0.208192 0.020226
Si Si4 0.891171 0.144924 0.667229
Si Si5 0.283077 0.950804 0.164075
Si Si6 0.788856 0.412582 0.534440
O O1 0.581472 0.136613 0.236623
O O2 0.633890 0.190998 0.414166
O O3 0.411098 0.251304 0.309965
O O4 0.413453 0.086397 0.383301
O O5 0.429799 0.312649 0.582170
O O6 0.360549 0.454142 0.670720
O O7 0.624732 0.441377 0.576018
O O8 0.292397 0.146144 0.928804
O O9 0.278436 0.308048 0.986815
O O10 0.812801 0.088763 0.749745
O O11 0.065141 0.110668 0.651503
O O12 0.186217 0.952671 0.067514
#
# Coordination Sequence:
#
# PCOD9461014 Si02
#       6
#     8   8   8   8   8   8
#     4  11  25  42  74 103 133 183 238 292 341 427
#     4  12  26  44  72 101 146 180 235 289 360 416
#     4  11  23  46  69 103 133 185 235 288 341 422
#     4  11  27  46  72 100 143 185 242 286 357 422
#     4  12  27  46  70 103 144 188 226 299 362 417
#     4  11  23  46  69  98 137 183 234 284 352 415
#
# _framework density 25.533580000000001
#
# number of rings (size 3 to 8) (size 9 to 14) (size 15 to 20)
#    0.000    0.667    3.333    3.500   11.667    0.000 
#    0.000    1.667    0.000    0.000    0.000    0.000 
#    0.000    0.000    0.000    0.000    0.000    0.000 
#
# Total GULP energy -268960.718561 kJ/mol
# GULP energy per Si atom -5603.348303 kJ/mol
# Density = 2.547546 g / cm^3
# Si number density = 25.533580 Si / 1000 Ang^3
#
#
#
# Elastic Constant Matrix: (Units=GPa)
#
#
# Indices 1 2 3 4 5 6 
#
# 1 57.1882 23.1038 24.2166 0.0000 0.0000 0.0000
# 2 23.1038 73.0448 26.2500 0.0000 0.0000 0.0000
# 3 24.2166 26.2500 178.7039 0.0000 0.0000 0.0000
# 4 0.0000 0.0000 0.0000 26.9004 0.0000 0.0000
# 5 0.0000 0.0000 0.0000 0.0000 37.0050 0.0000
# 6 0.0000 0.0000 0.0000 0.0000 0.0000 43.1716
#
#
#
# Elastic Compliance Matrix: (Units=1/GPa)
#
#
# Indices 1 2 3 4 5 6 
#
# 1 0.020668 -0.005839 -0.001943 0.000000 0.000000 0.000000
# 2 -0.005839 0.016103 -0.001574 0.000000 0.000000 0.000000
# 3 -0.001943 -0.001574 0.006090 0.000000 0.000000 0.000000
# 4 0.000000 0.000000 0.000000 0.037174 0.000000 0.000000
# 5 0.000000 0.000000 0.000000 0.000000 0.027023 0.000000
# 6 0.000000 0.000000 0.000000 0.000000 0.000000 0.023163
#
#
# Mechanical properties :
#
#
# Convention : Reuss Voigt Hill
#
# Bulk Modulus (GPa) = 41.40988 50.67528 46.04258
# Shear Modulus (GPa) = 31.85046 37.10648 34.47847
#
# Velocity S-wave (km/s) = 3.53568 3.81628 3.67865
# Velocity P-wave (km/s) = 5.73769 6.26963 6.00955
#
# Compressibility (1/GPa) = 0.02414882
#
# Stress axis : x y z
#
# Youngs Moduli (GPa) = 48.38446 62.10129 164.19336
#
# Poissons Ratio (x) = 0.36260 0.31904
# Poissons Ratio (y) = 0.28251 0.25846
# Poissons Ratio (z) = 0.09401 0.09775
#
# Static dielectric constant tensor:
#      x y z
#    x 2.006100 0.000000 0.000000 
#    y 0.000000 2.032380 0.000000 
#    z 0.000000 0.000000 1.969540 
# 
# From -- ./inp_files/7038.got.cif
#   From: 2010.05.17/outbox.cif.g08.bks.cpg/sg61_4_cif.got.tgz:7038.got - 2010.06.03 15:17:17.
