data_PCOD9461281
_publ_section_title
;
Structure prediction by ZEFSAII (Michael W. Deem and Ramdas Pophale) SiO2 
 PCOD9461281
Probable space group: P B C A
;
_chemical_formula_sum "Si O2"
_cell_formula_units_Z 64
_cell_length_a 18.000000
_cell_length_b 12.000000
_cell_length_c 15.000000
_cell_angle_alpha 90.000000
_cell_angle_beta 90.000000
_cell_angle_gamma 90.000000
_cell_volume 3240.000000
_symmetry_space_group_name_H-M "P B C A"
_symmetry_group_IT_number 61
_symmetry_cell_setting 'orthorhombic'
loop_
_space_group_symop_operation_xyz
x,y,z
1/2-x,-y,1/2+z
1/2+x,1/2-y,-z
-x,1/2+y,1/2-z
-x,-y,-z
1/2+x,y,1/2-z
1/2-x,1/2+y,z
x,1/2-y,1/2+z
loop_
_atom_site_type_symbol
_atom_site_label
_atom_site_fract_x
_atom_site_fract_y
_atom_site_fract_z
Si Si1 0.561346 0.904606 0.652199
Si Si2 0.319709 0.606277 0.851474
Si Si3 0.800935 0.773909 0.808855
Si Si4 0.374646 0.250483 0.192691
Si Si5 0.401894 0.985756 0.713869
Si Si6 0.120123 0.743014 0.990565
Si Si7 0.294468 0.705966 0.493729
Si Si8 0.157203 0.984947 0.394443
O O1 0.582200 0.818170 0.731785
O O2 0.479310 0.952558 0.668850
O O3 0.569903 0.830858 0.562690
O O4 0.620222 0.007105 0.649873
O O5 0.328723 0.692362 0.769382
O O6 0.322334 0.686362 0.938305
O O7 0.236483 0.553050 0.850768
O O8 0.711986 0.783050 0.797105
O O9 0.839383 0.894791 0.811507
O O10 0.815221 0.717842 0.903720
O O11 0.381643 0.384782 0.198124
O O12 0.400761 0.223786 0.092872
O O13 0.401915 0.977917 0.820783
O O14 0.204526 0.791474 0.987684
O O15 0.126072 0.623589 0.943376
O O16 0.323997 0.590767 0.454669
#
# Coordination Sequence:
#
# PCOD9461281 Si02
#       8
#     8   8   8   8   8   8   8   8
#     4  12  26  44  63  95 139 177 219 261 339 396
#     4  11  22  40  69  90 132 176 213 273 331 381
#     4  11  24  41  70 102 127 168 232 275 324 387
#     4  11  25  45  69  98 132 174 224 277 327 392
#     4  12  26  43  69  93 138 178 219 270 333 403
#     4  10  23  41  68  95 130 173 217 275 333 386
#     4  10  22  39  68 103 128 167 230 275 324 386
#     4  11  20  43  66  94 128 170 222 279 321 385
#
# _framework density 19.753086
#
# number of rings (size 3 to 8) (size 9 to 14) (size 15 to 20)
#    0.000    1.000    5.000    1.500    5.250    2.500 
#    2.250    0.625    0.000    0.000    0.000    0.000 
#    0.000    0.000    0.000    0.000    0.000    0.000 
#
# Total GULP energy -357700.438532 kJ/mol
# GULP energy per Si atom -5589.069352 kJ/mol
# Density = 1.970813 g / cm^3
# Si number density = 19.753086 Si / 1000 Ang^3
#
#
#
# Elastic Constant Matrix: (Units=GPa)
#
#
# Indices 1 2 3 4 5 6 
#
# 1 53.1015 39.7042 3.4695 0.0000 0.0000 0.0000
# 2 39.7042 83.0625 -7.6078 0.0000 0.0000 0.0000
# 3 3.4695 -7.6078 62.4611 0.0000 0.0000 0.0000
# 4 0.0000 0.0000 0.0000 26.6892 0.0000 0.0000
# 5 0.0000 0.0000 0.0000 0.0000 -7.5107 0.0000
# 6 0.0000 0.0000 0.0000 0.0000 0.0000 18.7764
#
#
#
# Elastic Compliance Matrix: (Units=1/GPa)
#
#
# Indices 1 2 3 4 5 6 
#
# 1 0.030025 -0.014669 -0.003454 0.000000 0.000000 0.000000
# 2 -0.014669 0.019341 0.003171 0.000000 0.000000 0.000000
# 3 -0.003454 0.003171 0.016588 0.000000 0.000000 0.000000
# 4 0.000000 0.000000 0.000000 0.037468 0.000000 0.000000
# 5 0.000000 0.000000 0.000000 0.000000 -0.133143 0.000000
# 6 0.000000 0.000000 0.000000 0.000000 0.000000 0.053258
#
#
# Mechanical properties :
#
#
# Convention : Reuss Voigt Hill
#
# Bulk Modulus (GPa) = 27.73966 29.97302 28.85634
# Shear Modulus (GPa) = 76.38286 18.46159 47.42223
#
# Velocity S-wave (km/s) = 6.22517 3.06047 4.90506
# Velocity P-wave (km/s) = 8.10827 5.26264 6.83518
#
# Compressibility (1/GPa) = 0.03604947
#
# Stress axis : x y z
#
# Youngs Moduli (GPa) = 33.30515 51.70311 60.28450
#
# Poissons Ratio (x) = 0.75841 0.20825
# Poissons Ratio (y) = 0.48854 -0.19114
# Poissons Ratio (z) = 0.11505 -0.16393
#
# Static dielectric constant tensor:
#      x y z
#    x 1.686890 0.000000 0.000000 
#    y 0.000000 1.685260 0.000000 
#    z 0.000000 0.000000 1.727570 
# 
# From -- ./inp_files/8196.got.cif
#   From: 2010.05.17/outbox.ucp.g08.bks.cvg/sg61_5_cif.got.tgz:8196.got - 2010.06.11 16:28:26.
