data_PCOD9461342
_publ_section_title
;
Structure prediction by ZEFSAII (Michael W. Deem and Ramdas Pophale) SiO2 
 PCOD9461342
Probable space group: P N M A
;
_chemical_formula_sum "Si O2"
_cell_formula_units_Z 56
_cell_length_a 5.264187
_cell_length_b 19.829747
_cell_length_c 25.408738
_cell_angle_alpha 90.000000
_cell_angle_beta 90.000000
_cell_angle_gamma 90.000000
_cell_volume 2652.354546
_symmetry_space_group_name_H-M "P N M A"
_symmetry_group_IT_number 62
_symmetry_cell_setting 'orthorhombic'
loop_
_space_group_symop_operation_xyz
x,y,z
1/2-x,-y,1/2+z
1/2+x,1/2-y,1/2-z
-x,1/2+y,-z
-x,-y,-z
1/2+x,y,1/2-z
1/2-x,1/2+y,1/2+z
x,1/2-y,z
loop_
_atom_site_type_symbol
_atom_site_label
_atom_site_fract_x
_atom_site_fract_y
_atom_site_fract_z
Si Si1 0.954724 0.901533 0.050064
Si Si2 0.631214 0.850100 0.771653
Si Si3 0.951323 0.832208 0.402205
Si Si4 0.070502 0.058126 0.070466
Si Si5 0.084291 0.422002 0.366728
Si Si6 0.977158 0.831010 0.280943
Si Si7 0.747334 0.498769 0.728802
O O1 0.704504 0.866227 0.073840
O O2 0.202771 0.859852 0.067909
O O3 0.931471 0.908674 0.987040
O O4 0.990447 0.979381 0.067841
O O5 0.410284 0.820403 0.735201
O O6 0.965292 0.750000 0.405305
O O7 0.688603 0.926213 0.751328
O O8 0.932053 0.853718 0.340716
O O9 0.851530 0.062182 0.405144
O O10 0.484031 0.138513 0.170693
O O11 0.851068 0.092799 0.105464
O O12 0.146012 0.486440 0.328971
O O13 0.755774 0.848349 0.239962
O O14 0.969268 0.750000 0.284115
O O15 0.968352 0.468650 0.764992
#
# Coordination Sequence:
#
# PCOD9461342 Si02
#       7
#     8   8   8   8   8   8   8
#     4  11  24  40  54  80 109 139 188 227 275 330
#     4   8  13  22  38  62  91 123 173 219 248 294
#     4  11  22  40  66  86 107 141 184 240 291 333
#     4  11  22  35  54  73 107 150 182 230 267 324
#     4  10  16  28  48  69  91 138 189 209 255 305
#     4   9  17  31  56  86 109 133 170 223 284 336
#     4   8  13  22  38  62  91 123 173 219 248 294
#
# _framework density 21.113316000000001
#
# number of rings (size 3 to 8) (size 9 to 14) (size 15 to 20)
#    0.000    2.571    0.000    6.429    0.000    4.571 
#    0.000    0.000    0.000   51.429    0.000    0.000 
#    0.000    0.000    0.000    0.000    0.000 1620.000 
#
# Total GULP energy -312345.755740 kJ/mol
# GULP energy per Si atom -5577.602781 kJ/mol
# Density = 2.106526 g / cm^3
# Si number density = 21.113316 Si / 1000 Ang^3
#
#
#
# Elastic Constant Matrix: (Units=GPa)
#
#
# Indices 1 2 3 4 5 6 
#
# 1 156.9287 14.9333 33.0952 0.0000 0.0000 0.0000
# 2 14.9333 66.1961 20.0389 0.0000 0.0000 0.0000
# 3 33.0952 20.0389 93.3787 0.0000 0.0000 0.0000
# 4 0.0000 0.0000 0.0000 71.4836 0.0000 0.0000
# 5 0.0000 0.0000 0.0000 0.0000 45.2544 0.0000
# 6 0.0000 0.0000 0.0000 0.0000 0.0000 116.9934
#
#
#
# Elastic Compliance Matrix: (Units=1/GPa)
#
#
# Indices 1 2 3 4 5 6 
#
# 1 0.006934 -0.000877 -0.002269 0.000000 0.000000 0.000000
# 2 -0.000877 0.016267 -0.003180 0.000000 0.000000 0.000000
# 3 -0.002269 -0.003180 0.012196 0.000000 0.000000 0.000000
# 4 0.000000 0.000000 0.000000 0.013989 0.000000 0.000000
# 5 0.000000 0.000000 0.000000 0.000000 0.022097 0.000000
# 6 0.000000 0.000000 0.000000 0.000000 0.000000 0.008547
#
#
# Mechanical properties :
#
#
# Convention : Reuss Voigt Hill
#
# Bulk Modulus (GPa) = 43.96770 50.29315 47.13043
# Shear Modulus (GPa) = 49.86724 63.30867 56.58796
#
# Velocity S-wave (km/s) = 4.86520 5.48181 5.18268
# Velocity P-wave (km/s) = 7.24086 7.99621 7.62789
#
# Compressibility (1/GPa) = 0.02274397
#
# Stress axis : x y z
#
# Youngs Moduli (GPa) = 144.20831 61.47347 81.99525
#
# Poissons Ratio (x) = 0.05393 0.18608
# Poissons Ratio (y) = 0.12652 0.26074
# Poissons Ratio (z) = 0.32727 0.19548
#
# Static dielectric constant tensor:
#      x y z
#    x 1.868980 0.000000 0.000000 
#    y 0.000000 1.648820 0.000000 
#    z 0.000000 0.000000 1.779980 
# 
# From -- ./inp_files/28392.got.cif
#   From: 2010.05.17/outbox.cif.g08.bks.cpg/sg62_15_cif.got.tgz:28392.got - 2010.06.03 15:25:27.
