data_PCOD9461465
_publ_section_title
;
Structure prediction by ZEFSAII (Michael W. Deem and Ramdas Pophale) SiO2 
 PCOD9461465
Probable space group: P N M A
;
_chemical_formula_sum "Si O2"
_cell_formula_units_Z 48
_cell_length_a 5.009383
_cell_length_b 28.508441
_cell_length_c 12.638245
_cell_angle_alpha 90.000000
_cell_angle_beta 90.000000
_cell_angle_gamma 90.000000
_cell_volume 1804.863973
_symmetry_space_group_name_H-M "P N M A"
_symmetry_group_IT_number 62
_symmetry_cell_setting 'orthorhombic'
loop_
_space_group_symop_operation_xyz
x,y,z
1/2-x,-y,1/2+z
1/2+x,1/2-y,1/2-z
-x,1/2+y,-z
-x,-y,-z
1/2+x,y,1/2-z
1/2-x,1/2+y,1/2+z
x,1/2-y,z
loop_
_atom_site_type_symbol
_atom_site_label
_atom_site_fract_x
_atom_site_fract_y
_atom_site_fract_z
Si Si1 0.859955 0.250000 0.484458
Si Si2 0.360721 0.250000 0.630884
Si Si3 0.050810 0.387100 0.299267
Si Si4 0.772553 0.652348 0.979374
Si Si5 0.244469 0.518083 0.870735
Si Si6 0.275684 0.649875 0.122734
Si Si7 0.759791 0.454525 0.891254
O O1 0.658965 0.250000 0.585888
O O2 0.791655 0.297658 0.425929
O O3 0.158162 0.250000 0.529871
O O4 0.295929 0.301051 0.681113
O O5 0.347429 0.365576 0.287846
O O6 0.148229 0.440865 0.295811
O O7 0.863816 0.384934 0.402580
O O8 0.578604 0.651852 0.082246
O O9 0.069742 0.650340 0.022882
O O10 0.476355 0.480021 0.887660
O O11 0.986821 0.487460 0.843342
O O12 0.178814 0.545205 0.981888
O O13 0.236079 0.596778 0.161845
#
# Coordination Sequence:
#
# PCOD9461465 Si02
#       7
#     4   4   8   8   8   8   8
#     4   8  16  30  46  63  88 120 156 207 238 273
#     4   8  16  26  44  71  96 122 148 177 246 293
#     4  12  24  36  49  66  94 131 164 205 243 284
#     4  10  19  32  48  67  91 122 166 200 241 282
#     4  10  21  33  47  72  94 121 160 199 245 283
#     4  10  17  30  50  72  96 123 152 196 236 293
#     4  10  19  31  53  72  94 120 152 205 240 282
#
# _framework density 26.594799999999999
#
# number of rings (size 3 to 8) (size 9 to 14) (size 15 to 20)
#    0.000    2.000    1.667    3.000    4.667    0.000 
#    0.000    0.833    0.000    0.000    0.000    0.000 
#    0.000    0.000    0.000   15.000    0.000    0.000 
#
# Total GULP energy -268051.622334 kJ/mol
# GULP energy per Si atom -5584.408799 kJ/mol
# Density = 2.653427 g / cm^3
# Si number density = 26.594800 Si / 1000 Ang^3
#
#
#
# Elastic Constant Matrix: (Units=GPa)
#
#
# Indices 1 2 3 4 5 6 
#
# 1 100.0446 22.2353 12.9117 0.0000 0.0000 0.0000
# 2 22.2353 146.5861 9.5474 0.0000 0.0000 0.0000
# 3 12.9117 9.5474 65.0003 0.0000 0.0000 0.0000
# 4 0.0000 0.0000 0.0000 15.3124 0.0000 0.0000
# 5 0.0000 0.0000 0.0000 0.0000 26.0913 0.0000
# 6 0.0000 0.0000 0.0000 0.0000 0.0000 39.0908
#
#
#
# Elastic Compliance Matrix: (Units=1/GPa)
#
#
# Indices 1 2 3 4 5 6 
#
# 1 0.010567 -0.001480 -0.001882 0.000000 0.000000 0.000000
# 2 -0.001480 0.007095 -0.000748 0.000000 0.000000 0.000000
# 3 -0.001882 -0.000748 0.015868 0.000000 0.000000 0.000000
# 4 0.000000 0.000000 0.000000 0.065307 0.000000 0.000000
# 5 0.000000 0.000000 0.000000 0.000000 0.038327 0.000000
# 6 0.000000 0.000000 0.000000 0.000000 0.000000 0.025581
#
#
# Mechanical properties :
#
#
# Convention : Reuss Voigt Hill
#
# Bulk Modulus (GPa) = 39.50929 44.55775 42.03352
# Shear Modulus (GPa) = 27.87019 33.89466 30.88242
#
# Velocity S-wave (km/s) = 3.24073 3.57387 3.41137
# Velocity P-wave (km/s) = 5.37507 5.81556 5.59965
#
# Compressibility (1/GPa) = 0.02531050
#
# Stress axis : x y z
#
# Youngs Moduli (GPa) = 94.63058 140.94012 63.01914
#
# Poissons Ratio (x) = 0.20865 0.11858
# Poissons Ratio (y) = 0.14009 0.04714
# Poissons Ratio (z) = 0.17806 0.10544
#
# Static dielectric constant tensor:
#      x y z
#    x 2.032540 0.000000 0.000000 
#    y 0.000000 2.141820 0.000000 
#    z 0.000000 0.000000 2.244450 
# 
# From -- ./inp_files/21633.got.cif
#   From: 2010.05.17/outbox.cif.g08.bks.cpg/sg62_11_cif.got.tgz:21633.got - 2010.06.03 15:25:27.
