data_PCOD9461839
_publ_section_title
;
Structure prediction by ZEFSAII (Michael W. Deem and Ramdas Pophale) SiO2 
 PCOD9461839
Probable space group: P N M A
;
_chemical_formula_sum "Si O2"
_cell_formula_units_Z 64
_cell_length_a 30.537614
_cell_length_b 7.600209
_cell_length_c 12.245029
_cell_angle_alpha 90.000000
_cell_angle_beta 90.000000
_cell_angle_gamma 90.000000
_cell_volume 2841.976317
_symmetry_space_group_name_H-M "P N M A"
_symmetry_group_IT_number 62
_symmetry_cell_setting 'orthorhombic'
loop_
_space_group_symop_operation_xyz
x,y,z
1/2-x,-y,1/2+z
1/2+x,1/2-y,1/2-z
-x,1/2+y,-z
-x,-y,-z
1/2+x,y,1/2-z
1/2-x,1/2+y,1/2+z
x,1/2-y,z
loop_
_atom_site_type_symbol
_atom_site_label
_atom_site_fract_x
_atom_site_fract_y
_atom_site_fract_z
Si Si1 0.022397 0.461615 0.271389
Si Si2 0.681206 0.542979 0.968302
Si Si3 0.610674 0.042138 0.132655
Si Si4 0.834760 0.538381 0.222903
Si Si5 0.724824 0.466285 0.521610
Si Si6 0.564633 0.462395 0.453336
Si Si7 0.843015 0.537664 0.849179
Si Si8 0.433399 0.540130 0.306332
O O1 0.022999 0.250000 0.271046
O O2 0.060843 0.524419 0.353043
O O3 0.038265 0.528106 0.151750
O O4 0.971653 0.509374 0.280867
O O5 0.680812 0.750000 0.985526
O O6 0.684231 0.505834 0.840574
O O7 0.636019 0.477936 0.020168
O O8 0.725162 0.471819 0.025164
O O9 0.607477 0.250000 0.153880
O O10 0.641813 0.970401 0.230532
O O11 0.836456 0.750000 0.212924
O O12 0.804379 0.475480 0.123978
O O13 0.884871 0.472112 0.218623
O O14 0.725034 0.250000 0.521634
O O15 0.700524 0.524050 0.410014
O O16 0.559695 0.250000 0.452691
O O17 0.615707 0.497727 0.428642
O O18 0.553016 0.529791 0.573267
O O19 0.839091 0.750000 0.841081
O O20 0.429543 0.750000 0.317205
#
# Coordination Sequence:
#
# PCOD9461839 Si02
#       8
#     8   8   8   8   8   8   8   8
#     4   9  18  31  51  80 112 145 183 226 273 327
#     4  11  24  38  56  83 113 143 182 235 285 320
#     4   9  19  36  58  80 107 149 192 224 265 330
#     4  10  21  39  60  81 110 148 189 225 267 335
#     4   9  18  34  56  82 110 141 178 223 275 329
#     4   8  13  25  46  76 110 141 174 213 262 322
#     4   8  13  27  53  80 105 138 179 218 257 316
#     4  10  18  30  53  81 108 144 185 225 272 327
#
# _framework density 22.519539999999999
#
# number of rings (size 3 to 8) (size 9 to 14) (size 15 to 20)
#    0.000    2.750    1.250    2.250    1.750    1.000 
#    0.000    1.250    0.000    1.500    0.000    0.000 
#    0.000    0.000    0.000    0.000    0.000    0.000 
#
# Total GULP energy -357035.046284 kJ/mol
# GULP energy per Si atom -5578.672598 kJ/mol
# Density = 2.246828 g / cm^3
# Si number density = 22.519540 Si / 1000 Ang^3
#
#
#
# Elastic Constant Matrix: (Units=GPa)
#
#
# Indices 1 2 3 4 5 6 
#
# 1 129.0101 11.2775 27.4467 0.0000 0.0000 0.0000
# 2 11.2775 49.0301 4.3026 0.0000 0.0000 0.0000
# 3 27.4467 4.3026 55.6002 0.0000 0.0000 0.0000
# 4 0.0000 0.0000 0.0000 7.3645 0.0000 0.0000
# 5 0.0000 0.0000 0.0000 0.0000 14.1513 0.0000
# 6 0.0000 0.0000 0.0000 0.0000 0.0000 9.8048
#
#
#
# Elastic Compliance Matrix: (Units=1/GPa)
#
#
# Indices 1 2 3 4 5 6 
#
# 1 0.008792 -0.001653 -0.004212 0.000000 0.000000 0.000000
# 2 -0.001653 0.020846 -0.000797 0.000000 0.000000 0.000000
# 3 -0.004212 -0.000797 0.020127 0.000000 0.000000 0.000000
# 4 0.000000 0.000000 0.000000 0.135786 0.000000 0.000000
# 5 0.000000 0.000000 0.000000 0.000000 0.070665 0.000000
# 6 0.000000 0.000000 0.000000 0.000000 0.000000 0.101991
#
#
# Mechanical properties :
#
#
# Convention : Reuss Voigt Hill
#
# Bulk Modulus (GPa) = 27.44241 35.52155 31.48198
# Shear Modulus (GPa) = 13.03181 18.97172 16.00177
#
# Velocity S-wave (km/s) = 2.40821 2.90566 2.66855
# Velocity P-wave (km/s) = 4.46599 5.20241 4.84820
#
# Compressibility (1/GPa) = 0.03643994
#
# Stress axis : x y z
#
# Youngs Moduli (GPa) = 113.74068 47.97153 49.68560
#
# Poissons Ratio (x) = 0.07928 0.20929
# Poissons Ratio (y) = 0.18797 0.03962
# Poissons Ratio (z) = 0.47910 0.03825
#
# Static dielectric constant tensor:
#      x y z
#    x 1.914930 0.000000 0.000000 
#    y 0.000000 1.855880 0.000000 
#    z 0.000000 0.000000 1.897080 
# 
# From -- ./inp_files/15782.got.cif
#   From: 2010.05.17/outbox.cif.g08.bks.cpg/sg62_8_cif.got.tgz:15782.got - 2010.06.03 15:25:27.
