data_PCOD9461516
_publ_section_title
;
Structure prediction by ZEFSAII (Michael W. Deem and Ramdas Pophale) SiO2 
 PCOD9461516
Probable space group: P N M A
;
_chemical_formula_sum "Si O2"
_cell_formula_units_Z 64
_cell_length_a 15.241904
_cell_length_b 21.514752
_cell_length_c 9.769085
_cell_angle_alpha 90.000000
_cell_angle_beta 90.000000
_cell_angle_gamma 90.000000
_cell_volume 3203.534863
_symmetry_space_group_name_H-M "P N M A"
_symmetry_group_IT_number 62
_symmetry_cell_setting 'orthorhombic'
loop_
_space_group_symop_operation_xyz
x,y,z
1/2-x,-y,1/2+z
1/2+x,1/2-y,1/2-z
-x,1/2+y,-z
-x,-y,-z
1/2+x,y,1/2-z
1/2-x,1/2+y,1/2+z
x,1/2-y,z
loop_
_atom_site_type_symbol
_atom_site_label
_atom_site_fract_x
_atom_site_fract_y
_atom_site_fract_z
Si Si1 0.819134 0.093206 0.112354
Si Si2 0.089159 0.678583 0.692521
Si Si3 0.611126 0.614044 0.073648
Si Si4 0.910612 0.529124 0.207635
Si Si5 0.791247 0.591370 0.983190
Si Si6 0.169270 0.485200 0.510291
Si Si7 0.934609 0.819767 0.913161
Si Si8 0.945212 0.118574 0.869066
O O1 0.861219 0.112360 0.966729
O O2 0.724256 0.063456 0.079872
O O3 0.829813 0.147696 0.223514
O O4 0.886818 0.041472 0.171833
O O5 0.107536 0.750000 0.656797
O O6 0.062646 0.639019 0.559600
O O7 0.007704 0.676979 0.796401
O O8 0.617110 0.538371 0.073704
O O9 0.711177 0.632714 0.037502
O O10 0.579472 0.639163 0.217150
O O11 0.840806 0.567157 0.117701
O O12 0.890953 0.540328 0.367922
O O13 0.004100 0.553001 0.154499
O O14 0.859628 0.629102 0.894763
O O15 0.745019 0.529945 0.919905
O O16 0.899210 0.750000 0.920028
O O17 0.986709 0.837156 0.052389
#
# Coordination Sequence:
#
# PCOD9461516 Si02
#       8
#     8   8   8   8   8   8   8   8
#     4  10  18  35  57  77 110 149 189 228 269 340
#     4  10  21  37  56  79 109 145 187 234 278 330
#     4  10  20  36  51  85 116 141 181 228 285 331
#     4  10  17  34  52  81 115 141 179 223 278 333
#     4   8  18  33  52  77 104 142 180 217 267 326
#     4   9  19  32  52  79 116 141 173 223 280 325
#     4   9  19  38  58  75 100 144 192 228 266 325
#     4  10  21  31  55  83 109 142 181 228 278 331
#
# _framework density 19.977931999999999
#
# number of rings (size 3 to 8) (size 9 to 14) (size 15 to 20)
#    0.750    1.750    1.250    1.125    0.000    2.500 
#    0.000    3.750    0.000    7.500    0.000    0.000 
#    0.000    0.000    0.000    0.000    0.000    0.000 
#
# Total GULP energy -356506.356400 kJ/mol
# GULP energy per Si atom -5570.411819 kJ/mol
# Density = 1.993246 g / cm^3
# Si number density = 19.977932 Si / 1000 Ang^3
#
#
#
# Elastic Constant Matrix: (Units=GPa)
#
#
# Indices 1 2 3 4 5 6 
#
# 1 24.4692 5.3290 12.2607 0.0000 0.0000 0.0000
# 2 5.3290 35.6580 4.9368 0.0000 0.0000 0.0000
# 3 12.2607 4.9368 105.2793 0.0000 0.0000 0.0000
# 4 0.0000 0.0000 0.0000 12.5061 0.0000 0.0000
# 5 0.0000 0.0000 0.0000 0.0000 17.0713 0.0000
# 6 0.0000 0.0000 0.0000 0.0000 0.0000 15.6492
#
#
#
# Elastic Compliance Matrix: (Units=1/GPa)
#
#
# Indices 1 2 3 4 5 6 
#
# 1 0.044636 -0.005990 -0.004917 0.000000 0.000000 0.000000
# 2 -0.005990 0.029031 -0.000664 0.000000 0.000000 0.000000
# 3 -0.004917 -0.000664 0.010102 0.000000 0.000000 0.000000
# 4 0.000000 0.000000 0.000000 0.079961 0.000000 0.000000
# 5 0.000000 0.000000 0.000000 0.000000 0.058578 0.000000
# 6 0.000000 0.000000 0.000000 0.000000 0.000000 0.063901
#
#
# Mechanical properties :
#
#
# Convention : Reuss Voigt Hill
#
# Bulk Modulus (GPa) = 16.49413 23.38438 19.93926
# Shear Modulus (GPa) = 15.17170 18.57066 16.87118
#
# Velocity S-wave (km/s) = 2.75875 3.05217 2.90916
# Velocity P-wave (km/s) = 4.29205 4.91442 4.61374
#
# Compressibility (1/GPa) = 0.06062764
#
# Stress axis : x y z
#
# Youngs Moduli (GPa) = 22.40333 34.44567 98.98697
#
# Poissons Ratio (x) = 0.20633 0.48676
# Poissons Ratio (y) = 0.13419 0.06570
# Poissons Ratio (z) = 0.11017 0.02286
#
# Static dielectric constant tensor:
#      x y z
#    x 1.744480 0.000000 0.000000 
#    y 0.000000 1.739670 0.000000 
#    z 0.000000 0.000000 1.712560 
# 
# From -- ./inp_files/8164.got.cif
#   From: 2010.05.17/outbox.cif.g08.bks.cpg/sg62_5_cif.got.tgz:8164.got - 2010.06.03 15:25:27.
