data_PCOD9461303
_publ_section_title
;
Structure prediction by ZEFSAII (Michael W. Deem and Ramdas Pophale) SiO2 
 PCOD9461303
Probable space group: P B C A
;
_chemical_formula_sum "Si O2"
_cell_formula_units_Z 64
_cell_length_a 9.000000
_cell_length_b 12.000000
_cell_length_c 30.000000
_cell_angle_alpha 90.000000
_cell_angle_beta 90.000000
_cell_angle_gamma 90.000000
_cell_volume 3240.000000
_symmetry_space_group_name_H-M "P B C A"
_symmetry_group_IT_number 61
_symmetry_cell_setting 'orthorhombic'
loop_
_space_group_symop_operation_xyz
x,y,z
1/2-x,-y,1/2+z
1/2+x,1/2-y,-z
-x,1/2+y,1/2-z
-x,-y,-z
1/2+x,y,1/2-z
1/2-x,1/2+y,z
x,1/2-y,1/2+z
loop_
_atom_site_type_symbol
_atom_site_label
_atom_site_fract_x
_atom_site_fract_y
_atom_site_fract_z
Si Si1 0.588953 0.464556 0.455743
Si Si2 0.436698 0.299499 0.339863
Si Si3 0.122526 0.366574 0.374577
Si Si4 0.369535 0.764689 0.583743
Si Si5 0.993094 0.521294 0.206417
Si Si6 0.355728 0.058766 0.301420
Si Si7 0.560631 0.859033 0.882207
Si Si8 0.446944 0.502570 0.050664
O O1 0.500000 0.500000 0.500000
O O2 0.587007 0.330937 0.451059
O O3 0.517768 0.540123 0.415995
O O4 0.768305 0.482762 0.451645
O O5 0.299425 0.344170 0.370217
O O6 0.580206 0.287874 0.370072
O O7 0.474564 0.389670 0.302501
O O8 0.400264 0.177822 0.321450
O O9 0.097728 0.456325 0.334348
O O10 0.050035 0.243464 0.372200
O O11 0.046397 0.421517 0.418362
O O12 0.200450 0.801788 0.592553
O O13 0.460847 0.874843 0.571791
O O14 0.822483 0.561717 0.204084
O O15 0.068525 0.543459 0.253495
O O16 0.082282 0.579631 0.165490
O O17 0.500000 0.500000 0.000000
#
# Coordination Sequence:
#
# PCOD9461303 Si02
#       8
#     8   8   8   8   8   8   8   8
#     4  11  26  43  68 104 135 177 231 280 341 416
#     4  11  24  44  70  96 134 181 224 280 343 402
#     4  11  24  46  66  96 141 179 227 280 338 412
#     4  11  24  44  70  96 135 179 225 278 344 402
#     4  11  26  43  68 100 135 176 229 280 341 405
#     4  11  26  43  67 104 134 180 226 280 345 409
#     4  11  24  46  68  96 136 182 225 282 345 404
#     4  11  26  43  67 102 136 180 225 283 347 405
#
# _framework density 19.753086
#
# number of rings (size 3 to 8) (size 9 to 14) (size 15 to 20)
#    0.000    1.000    5.000    0.000    7.000    2.000 
#    0.000    0.000    0.000    0.000    0.000    0.000 
#    0.000    0.000    0.000    0.000    0.000    0.000 
#
# Total GULP energy -356891.678053 kJ/mol
# GULP energy per Si atom -5576.432470 kJ/mol
# Density = 1.970813 g / cm^3
# Si number density = 19.753086 Si / 1000 Ang^3
#
#
#
# Elastic Constant Matrix: (Units=GPa)
#
#
# Indices 1 2 3 4 5 6 
#
# 1 22.9766 18.0404 11.6153 0.0000 0.0000 0.0000
# 2 18.0404 106.1356 11.9127 0.0000 0.0000 0.0000
# 3 11.6153 11.9127 103.2535 0.0000 0.0000 0.0000
# 4 0.0000 0.0000 0.0000 34.4922 0.0000 0.0000
# 5 0.0000 0.0000 0.0000 0.0000 36.4409 0.0000
# 6 0.0000 0.0000 0.0000 0.0000 0.0000 30.5680
#
#
#
# Elastic Compliance Matrix: (Units=1/GPa)
#
#
# Indices 1 2 3 4 5 6 
#
# 1 0.052610 -0.008387 -0.004951 0.000000 0.000000 0.000000
# 2 -0.008387 0.010882 -0.000312 0.000000 0.000000 0.000000
# 3 -0.004951 -0.000312 0.010278 0.000000 0.000000 0.000000
# 4 0.000000 0.000000 0.000000 0.028992 0.000000 0.000000
# 5 0.000000 0.000000 0.000000 0.000000 0.027442 0.000000
# 6 0.000000 0.000000 0.000000 0.000000 0.000000 0.032714
#
#
# Mechanical properties :
#
#
# Convention : Reuss Voigt Hill
#
# Bulk Modulus (GPa) = 21.51860 35.05582 28.28721
# Shear Modulus (GPa) = 24.30636 33.02005 28.66320
#
# Velocity S-wave (km/s) = 3.51167 4.09300 3.81343
# Velocity P-wave (km/s) = 5.23066 6.33423 5.80871
#
# Compressibility (1/GPa) = 0.04647142
#
# Stress axis : x y z
#
# Youngs Moduli (GPa) = 19.00777 91.89093 97.29685
#
# Poissons Ratio (x) = 0.77066 0.48168
# Poissons Ratio (y) = 0.15941 0.03037
# Poissons Ratio (z) = 0.09410 0.02868
#
# Static dielectric constant tensor:
#      x y z
#    x 1.704720 0.000000 0.000000 
#    y 0.000000 1.761960 0.000000 
#    z 0.000000 0.000000 1.681410 
# 
# From -- ./inp_files/11722.got.cif
#   From: 2010.05.17/outbox.ucp.g08.bks.cvg/sg61_6_cif.got.tgz:11722.got - 2010.06.11 16:28:26.
