data_PCOD9461368
_publ_section_title
;
Structure prediction by ZEFSAII (Michael W. Deem and Ramdas Pophale) SiO2 
 PCOD9461368
Probable space group: P N M A
;
_chemical_formula_sum "Si O2"
_cell_formula_units_Z 48
_cell_length_a 6.956488
_cell_length_b 8.866000
_cell_length_c 33.111866
_cell_angle_alpha 90.000000
_cell_angle_beta 90.000000
_cell_angle_gamma 90.000000
_cell_volume 2042.214818
_symmetry_space_group_name_H-M "P N M A"
_symmetry_group_IT_number 62
_symmetry_cell_setting 'orthorhombic'
loop_
_space_group_symop_operation_xyz
x,y,z
1/2-x,-y,1/2+z
1/2+x,1/2-y,1/2-z
-x,1/2+y,-z
-x,-y,-z
1/2+x,y,1/2-z
1/2-x,1/2+y,1/2+z
x,1/2-y,z
loop_
_atom_site_type_symbol
_atom_site_label
_atom_site_fract_x
_atom_site_fract_y
_atom_site_fract_z
Si Si1 0.270576 0.075149 0.031796
Si Si2 0.549769 0.922815 0.806504
Si Si3 0.993884 0.578106 0.780632
Si Si4 0.689834 0.925610 0.549869
Si Si5 0.654260 0.429107 0.886247
Si Si6 0.073464 0.564841 0.865643
O O1 0.319770 0.250000 0.031969
O O2 0.040676 0.063369 0.041168
O O3 0.377085 0.995448 0.069034
O O4 0.290905 0.008501 0.987104
O O5 0.480046 0.750000 0.812274
O O6 0.480364 0.992562 0.763836
O O7 0.778942 0.915383 0.797612
O O8 0.531813 0.009070 0.848513
O O9 0.060565 0.750000 0.772520
O O10 0.117587 0.522191 0.818973
O O11 0.740440 0.750000 0.548083
O O12 0.706621 0.977576 0.596347
O O13 0.645693 0.250000 0.887607
O O14 0.870761 0.486016 0.875731
O O15 0.052161 0.750000 0.866529
#
# Coordination Sequence:
#
# PCOD9461368 Si02
#       6
#     8   8   8   8   8   8
#     4   9  15  22  32  47  70 100 131 160 192 234
#     4   9  16  28  43  59  79 105 135 165 197 233
#     4   8  14  25  43  61  78 103 135 166 194 229
#     4   8  13  20  31  48  71  97 126 158 191 230
#     4  10  17  24  35  52  74 101 131 163 199 236
#     4   8  14  25  38  53  74 102 132 161 195 235
#
# _framework density 23.503895
#
# number of rings (size 3 to 8) (size 9 to 14) (size 15 to 20)
#    0.000    3.333    0.000    4.000    0.000    4.000 
#    0.000    3.333    0.000    0.000    0.000    0.000 
#    0.000    1.333    0.000    2.333    0.000    7.000 
#
# Total GULP energy -267849.794049 kJ/mol
# GULP energy per Si atom -5580.204043 kJ/mol
# Density = 2.345040 g / cm^3
# Si number density = 23.503895 Si / 1000 Ang^3
#
#
#
# Elastic Constant Matrix: (Units=GPa)
#
#
# Indices 1 2 3 4 5 6 
#
# 1 74.2751 6.8931 50.5010 0.0000 0.0000 0.0000
# 2 6.8931 70.9849 93.1635 0.0000 0.0000 0.0000
# 3 50.5010 93.1635 302.3402 0.0000 0.0000 0.0000
# 4 0.0000 0.0000 0.0000 34.7979 0.0000 0.0000
# 5 0.0000 0.0000 0.0000 0.0000 51.6677 0.0000
# 6 0.0000 0.0000 0.0000 0.0000 0.0000 -8.1244
#
#
#
# Elastic Compliance Matrix: (Units=1/GPa)
#
#
# Indices 1 2 3 4 5 6 
#
# 1 0.015610 0.003201 -0.003594 0.000000 0.000000 0.000000
# 2 0.003201 0.024310 -0.008025 0.000000 0.000000 0.000000
# 3 -0.003594 -0.008025 0.006381 0.000000 0.000000 0.000000
# 4 0.000000 0.000000 0.000000 0.028737 0.000000 0.000000
# 5 0.000000 0.000000 0.000000 0.000000 0.019354 0.000000
# 6 0.000000 0.000000 0.000000 0.000000 0.000000 -0.123086
#
#
# Mechanical properties :
#
#
# Convention : Reuss Voigt Hill
#
# Bulk Modulus (GPa) = 33.94055 83.19058 58.56557
# Shear Modulus (GPa) = -2456.05044 35.47106 -1210.28969
#
# Velocity S-wave (km/s) = -32.36083 3.88900 -22.71672
# Velocity P-wave (km/s) = 37.17292 7.45902 25.75062
#
# Compressibility (1/GPa) = 0.02946328
#
# Stress axis : x y z
#
# Youngs Moduli (GPa) = 64.06239 41.13606 156.72168
#
# Poissons Ratio (x) = -0.13166 0.56319
# Poissons Ratio (y) = -0.20504 1.25775
# Poissons Ratio (z) = 0.23021 0.33013
#
# Static dielectric constant tensor:
#      x y z
#    x 2.000780 0.000000 0.000000 
#    y 0.000000 1.789080 0.000000 
#    z 0.000000 0.000000 1.956850 
# 
# From -- ./inp_files/30998.got.cif
#   From: 2010.05.17/outbox.cif.g08.bks.cpg/sg62_16_cif.got.tgz:30998.got - 2010.06.03 15:25:27.
