data_PCOD9461639
_publ_section_title
;
Structure prediction by ZEFSAII (Michael W. Deem and Ramdas Pophale) SiO2 
 PCOD9461639
Probable space group: P N M A
;
_chemical_formula_sum "Si O2"
_cell_formula_units_Z 64
_cell_length_a 23.983081
_cell_length_b 7.813375
_cell_length_c 19.869944
_cell_angle_alpha 90.000000
_cell_angle_beta 90.000000
_cell_angle_gamma 90.000000
_cell_volume 3723.405072
_symmetry_space_group_name_H-M "P N M A"
_symmetry_group_IT_number 62
_symmetry_cell_setting 'orthorhombic'
loop_
_space_group_symop_operation_xyz
x,y,z
1/2-x,-y,1/2+z
1/2+x,1/2-y,1/2-z
-x,1/2+y,-z
-x,-y,-z
1/2+x,y,1/2-z
1/2-x,1/2+y,1/2+z
x,1/2-y,z
loop_
_atom_site_type_symbol
_atom_site_label
_atom_site_fract_x
_atom_site_fract_y
_atom_site_fract_z
Si Si1 0.265007 0.548452 0.856825
Si Si2 0.756293 0.458635 0.995577
Si Si3 0.065749 0.548237 0.144621
Si Si4 0.386375 0.459691 0.502868
Si Si5 0.441718 0.051589 0.365259
Si Si6 0.657713 0.051372 0.727197
Si Si7 0.272580 0.541155 0.150405
Si Si8 0.663486 0.543296 0.263755
O O1 0.251479 0.750000 0.858584
O O2 0.270342 0.488067 0.933577
O O3 0.212204 0.461488 0.820587
O O4 0.318151 0.522090 0.809204
O O5 0.755243 0.250000 0.993273
O O6 0.821438 0.509241 0.996363
O O7 0.727818 0.517948 0.926514
O O8 0.078314 0.750000 0.141502
O O9 0.083668 0.480708 0.071084
O O10 0.105965 0.480608 0.203498
O O11 0.000353 0.527806 0.155373
O O12 0.387037 0.250000 0.501008
O O13 0.417188 0.520918 0.435385
O O14 0.453651 0.250000 0.377232
O O15 0.393799 0.035851 0.309472
O O16 0.642940 0.250000 0.735082
O O17 0.678860 0.981698 0.799171
O O18 0.274676 0.750000 0.150911
O O19 0.213575 0.495319 0.185015
O O20 0.663223 0.750000 0.259131
#
# Coordination Sequence:
#
# PCOD9461639 Si02
#       8
#     8   8   8   8   8   8   8   8
#     4  10  18  28  47  70  95 121 148 187 235 280
#     4   9  14  25  46  70  92 120 153 183 224 275
#     4  10  19  32  50  67  88 126 168 199 222 260
#     4   9  16  28  45  65  93 126 160 190 221 265
#     4  11  21  32  46  66  95 127 156 193 236 274
#     4  10  19  31  47  67  90 120 159 195 226 268
#     4   8  14  26  46  67  87 115 153 191 223 264
#     4   9  17  30  47  66  90 121 156 192 227 266
#
# _framework density 17.188566000000002
#
# number of rings (size 3 to 8) (size 9 to 14) (size 15 to 20)
#    0.000    2.500    2.500    2.250    0.000    0.500 
#    0.000    0.625    0.000    7.500    0.000    0.875 
#    0.000    0.000    0.000    0.000    0.000    0.000 
#
# Total GULP energy -356823.880260 kJ/mol
# GULP energy per Si atom -5575.373129 kJ/mol
# Density = 1.714944 g / cm^3
# Si number density = 17.188566 Si / 1000 Ang^3
#
#
#
# Elastic Constant Matrix: (Units=GPa)
#
#
# Indices 1 2 3 4 5 6 
#
# 1 82.6646 -6.1835 61.7545 0.0000 0.0000 0.0000
# 2 -6.1835 19.0608 -3.7623 0.0000 0.0000 0.0000
# 3 61.7545 -3.7623 145.1739 0.0000 0.0000 0.0000
# 4 0.0000 0.0000 0.0000 14.6364 0.0000 0.0000
# 5 0.0000 0.0000 0.0000 0.0000 20.0121 0.0000
# 6 0.0000 0.0000 0.0000 0.0000 0.0000 15.5564
#
#
#
# Elastic Compliance Matrix: (Units=1/GPa)
#
#
# Indices 1 2 3 4 5 6 
#
# 1 0.018087 0.004371 -0.007581 0.000000 0.000000 0.000000
# 2 0.004371 0.053790 -0.000465 0.000000 0.000000 0.000000
# 3 -0.007581 -0.000465 0.010101 0.000000 0.000000 0.000000
# 4 0.000000 0.000000 0.000000 0.068323 0.000000 0.000000
# 5 0.000000 0.000000 0.000000 0.000000 0.049970 0.000000
# 6 0.000000 0.000000 0.000000 0.000000 0.000000 0.064282
#
#
# Mechanical properties :
#
#
# Convention : Reuss Voigt Hill
#
# Bulk Modulus (GPa) = 13.39976 38.94632 26.17304
# Shear Modulus (GPa) = 16.84758 23.04702 19.94730
#
# Velocity S-wave (km/s) = 3.13415 3.66571 3.41030
# Velocity P-wave (km/s) = 4.57273 6.37370 5.54680
#
# Compressibility (1/GPa) = 0.07462821
#
# Stress axis : x y z
#
# Youngs Moduli (GPa) = 55.28771 18.59088 99.00081
#
# Poissons Ratio (x) = -0.08127 0.75050
# Poissons Ratio (y) = -0.24168 0.04608
# Poissons Ratio (z) = 0.41912 0.00865
#
# Static dielectric constant tensor:
#      x y z
#    x 1.551640 0.000000 0.000000 
#    y 0.000000 1.639650 0.000000 
#    z 0.000000 0.000000 1.608970 
# 
# From -- ./inp_files/27934.got.cif
#   From: 2010.05.17/outbox.cif.g08.bks.cpg/sg62_14_cif.got.tgz:27934.got - 2010.06.03 15:25:27.
