data_PCOD9461704
_publ_section_title
;
Structure prediction by ZEFSAII (Michael W. Deem and Ramdas Pophale) SiO2 
 PCOD9461704
Probable space group: P N M A
;
_chemical_formula_sum "Si O2"
_cell_formula_units_Z 64
_cell_length_a 31.224463
_cell_length_b 8.761314
_cell_length_c 14.902800
_cell_angle_alpha 90.000000
_cell_angle_beta 90.000000
_cell_angle_gamma 90.000000
_cell_volume 4076.919128
_symmetry_space_group_name_H-M "P N M A"
_symmetry_group_IT_number 62
_symmetry_cell_setting 'orthorhombic'
loop_
_space_group_symop_operation_xyz
x,y,z
1/2-x,-y,1/2+z
1/2+x,1/2-y,1/2-z
-x,1/2+y,-z
-x,-y,-z
1/2+x,y,1/2-z
1/2-x,1/2+y,1/2+z
x,1/2-y,z
loop_
_atom_site_type_symbol
_atom_site_label
_atom_site_fract_x
_atom_site_fract_y
_atom_site_fract_z
Si Si1 0.630312 0.430867 0.305278
Si Si2 0.047351 0.065214 0.101931
Si Si3 0.050473 0.932415 0.902844
Si Si4 0.633053 0.428464 0.673467
Si Si5 0.708761 0.932375 0.788678
Si Si6 0.294605 0.936835 0.819983
Si Si7 0.226395 0.429301 0.519342
Si Si8 0.316249 0.574897 0.512212
O O1 0.625597 0.250000 0.286109
O O2 0.582792 0.490409 0.326852
O O3 0.662440 0.492583 0.229757
O O4 0.655796 0.444928 0.398908
O O5 0.050663 0.250000 0.095734
O O6 0.998236 0.026545 0.124359
O O7 0.056805 0.000011 0.002900
O O8 0.053601 0.750000 0.907869
O O9 0.086719 0.995569 0.837028
O O10 0.628488 0.250000 0.693904
O O11 0.666269 0.503756 0.741873
O O12 0.655104 0.442831 0.575612
O O13 0.708423 0.750000 0.784557
O O14 0.751674 0.984817 0.734324
O O15 0.711511 0.985869 0.891270
O O16 0.294380 0.750000 0.817406
O O17 0.292507 0.982744 0.923897
O O18 0.217696 0.250000 0.529216
O O19 0.277070 0.459686 0.511198
O O20 0.299371 0.750000 0.513821
#
# Coordination Sequence:
#
# PCOD9461704 Si02
#       8
#     8   8   8   8   8   8   8   8
#     4   9  15  29  49  69  92 128 168 198 234 284
#     4   9  17  30  48  70  97 130 167 203 242 295
#     4  10  19  29  45  71 101 130 161 202 250 296
#     4  11  21  33  49  71  98 133 170 204 244 292
#     4  11  21  35  51  71  97 130 167 202 242 288
#     4   9  18  30  48  70  94 124 161 199 236 280
#     4  11  21  33  47  70  99 127 162 203 242 282
#     4  10  18  29  48  69  95 130 167 200 236 279
#
# _framework density 15.698128000000001
#
# number of rings (size 3 to 8) (size 9 to 14) (size 15 to 20)
#    0.000    2.000    3.750    1.500    0.000    1.000 
#    0.000    0.000    0.000    0.000    0.000    0.875 
#    0.000    0.000    0.000    0.000    0.000    0.000 
#
# Total GULP energy -356816.664729 kJ/mol
# GULP energy per Si atom -5575.260386 kJ/mol
# Density = 1.566240 g / cm^3
# Si number density = 15.698128 Si / 1000 Ang^3
#
#
#
# Elastic Constant Matrix: (Units=GPa)
#
#
# Indices 1 2 3 4 5 6 
#
# 1 122.9680 31.4407 50.8240 0.0000 0.0000 0.0000
# 2 31.4407 27.1566 25.7147 0.0000 0.0000 0.0000
# 3 50.8240 25.7147 89.6986 0.0000 0.0000 0.0000
# 4 0.0000 0.0000 0.0000 19.3756 0.0000 0.0000
# 5 0.0000 0.0000 0.0000 0.0000 17.2966 0.0000
# 6 0.0000 0.0000 0.0000 0.0000 0.0000 20.5921
#
#
#
# Elastic Compliance Matrix: (Units=1/GPa)
#
#
# Indices 1 2 3 4 5 6 
#
# 1 0.012534 -0.010688 -0.004038 0.000000 0.000000 0.000000
# 2 -0.010688 0.059657 -0.011047 0.000000 0.000000 0.000000
# 3 -0.004038 -0.011047 0.016603 0.000000 0.000000 0.000000
# 4 0.000000 0.000000 0.000000 0.051611 0.000000 0.000000
# 5 0.000000 0.000000 0.000000 0.000000 0.057815 0.000000
# 6 0.000000 0.000000 0.000000 0.000000 0.000000 0.048562
#
#
# Mechanical properties :
#
#
# Convention : Reuss Voigt Hill
#
# Bulk Modulus (GPa) = 26.84574 50.64244 38.74409
# Shear Modulus (GPa) = 16.09043 20.24244 18.16643
#
# Velocity S-wave (km/s) = 3.20502 3.59483 3.40551
# Velocity P-wave (km/s) = 5.55289 7.03993 6.34016
#
# Compressibility (1/GPa) = 0.03724986
#
# Stress axis : x y z
#
# Youngs Moduli (GPa) = 79.78507 16.76239 60.22946
#
# Poissons Ratio (x) = 0.17915 0.24319
# Poissons Ratio (y) = 0.85271 0.66534
# Poissons Ratio (z) = 0.32216 0.18517
#
# Static dielectric constant tensor:
#      x y z
#    x 1.538610 0.000000 0.000000 
#    y 0.000000 1.536540 0.000000 
#    z 0.000000 0.000000 1.511740 
# 
# From -- ./inp_files/21211.got.cif
#   From: 2010.05.17/outbox.cif.g08.bks.cpg/sg62_11_cif.got.tgz:21211.got - 2010.06.03 15:25:27.
