data_PCOD9461716
_publ_section_title
;
Structure prediction by ZEFSAII (Michael W. Deem and Ramdas Pophale) SiO2 
 PCOD9461716
Probable space group: P N M A
;
_chemical_formula_sum "Si O2"
_cell_formula_units_Z 64
_cell_length_a 16.112925
_cell_length_b 7.694318
_cell_length_c 20.987895
_cell_angle_alpha 90.000000
_cell_angle_beta 90.000000
_cell_angle_gamma 90.000000
_cell_volume 2602.036593
_symmetry_space_group_name_H-M "P N M A"
_symmetry_group_IT_number 62
_symmetry_cell_setting 'orthorhombic'
loop_
_space_group_symop_operation_xyz
x,y,z
1/2-x,-y,1/2+z
1/2+x,1/2-y,1/2-z
-x,1/2+y,-z
-x,-y,-z
1/2+x,y,1/2-z
1/2-x,1/2+y,1/2+z
x,1/2-y,z
loop_
_atom_site_type_symbol
_atom_site_label
_atom_site_fract_x
_atom_site_fract_y
_atom_site_fract_z
Si Si1 0.788356 0.951591 0.564751
Si Si2 0.074629 0.958768 0.078438
Si Si3 0.338709 0.053726 0.697406
Si Si4 0.827534 0.047161 0.287331
Si Si5 0.651440 0.538304 0.932500
Si Si6 0.607672 0.959981 0.565334
Si Si7 0.496794 0.049135 0.240789
Si Si8 0.029774 0.047410 0.410431
O O1 0.790755 0.750000 0.585671
O O2 0.698851 0.023504 0.586628
O O3 0.878232 0.032268 0.582189
O O4 0.791134 0.961898 0.487574
O O5 0.083194 0.750000 0.077938
O O6 0.139920 0.030731 0.129316
O O7 0.091957 0.023706 0.007347
O O8 0.979470 0.996231 0.098639
O O9 0.310774 0.250000 0.688737
O O10 0.265478 0.967355 0.737144
O O11 0.426484 0.051666 0.731421
O O12 0.848504 0.250000 0.291867
O O13 0.825849 0.983638 0.360628
O O14 0.904598 0.974701 0.247970
O O15 0.654386 0.750000 0.935902
O O16 0.555132 0.480181 0.942911
O O17 0.612785 0.750000 0.564580
O O18 0.504687 0.250000 0.262873
O O19 0.507572 0.045892 0.164410
O O20 0.036296 0.250000 0.429418
#
# Coordination Sequence:
#
# PCOD9461716 Si02
#       8
#     8   8   8   8   8   8   8   8
#     4  10  18  29  48  76 106 136 169 208 259 315
#     4   9  19  35  51  70 101 136 166 207 262 311
#     4  11  22  36  57  83 109 138 173 222 280 326
#     4   9  19  36  57  79 103 139 183 224 263 312
#     4   9  17  30  50  76 104 135 174 214 255 306
#     4   9  18  32  50  73 101 133 171 208 248 305
#     4   9  19  38  58  76 104 142 184 226 263 311
#     4   8  16  32  51  71 102 138 171 213 259 306
#
# _framework density 24.596118000000001
#
# number of rings (size 3 to 8) (size 9 to 14) (size 15 to 20)
#    0.000    2.750    0.000    3.000    0.000    3.500 
#    2.250    5.000    0.000    0.000    0.000    0.000 
#    0.000    0.000    0.000    0.000    0.000    0.000 
#
# Total GULP energy -357152.994992 kJ/mol
# GULP energy per Si atom -5580.515547 kJ/mol
# Density = 2.454014 g / cm^3
# Si number density = 24.596118 Si / 1000 Ang^3
#
#
#
# Elastic Constant Matrix: (Units=GPa)
#
#
# Indices 1 2 3 4 5 6 
#
# 1 207.4626 9.9896 5.1135 0.0000 0.0000 0.0000
# 2 9.9896 52.1501 2.7308 0.0000 0.0000 0.0000
# 3 5.1135 2.7308 10.3212 0.0000 0.0000 0.0000
# 4 0.0000 0.0000 0.0000 13.1302 0.0000 0.0000
# 5 0.0000 0.0000 0.0000 0.0000 30.0558 0.0000
# 6 0.0000 0.0000 0.0000 0.0000 0.0000 15.4187
#
#
#
# Elastic Compliance Matrix: (Units=1/GPa)
#
#
# Indices 1 2 3 4 5 6 
#
# 1 0.004915 -0.000825 -0.002216 0.000000 0.000000 0.000000
# 2 -0.000825 0.019583 -0.004772 0.000000 0.000000 0.000000
# 3 -0.002216 -0.004772 0.099249 0.000000 0.000000 0.000000
# 4 0.000000 0.000000 0.000000 0.076160 0.000000 0.000000
# 5 0.000000 0.000000 0.000000 0.000000 0.033271 0.000000
# 6 0.000000 0.000000 0.000000 0.000000 0.000000 0.064856
#
#
# Mechanical properties :
#
#
# Convention : Reuss Voigt Hill
#
# Bulk Modulus (GPa) = 9.24915 33.95574 21.60245
# Shear Modulus (GPa) = 14.29787 28.52762 21.41274
#
# Velocity S-wave (km/s) = 2.41364 3.40934 2.95375
# Velocity P-wave (km/s) = 3.39649 5.41603 4.52049
#
# Compressibility (1/GPa) = 0.10811802
#
# Stress axis : x y z
#
# Youngs Moduli (GPa) = 203.47876 51.06363 10.07571
#
# Poissons Ratio (x) = 0.04214 0.02233
# Poissons Ratio (y) = 0.16794 0.04809
# Poissons Ratio (z) = 0.45101 0.24370
#
# Static dielectric constant tensor:
#      x y z
#    x 2.054690 0.000000 0.000000 
#    y 0.000000 1.885900 0.000000 
#    z 0.000000 0.000000 1.993480 
# 
# From -- ./inp_files/29789.got.cif
#   From: 2010.05.17/outbox.cif.g08.bks.cpg/sg62_15_cif.got.tgz:29789.got - 2010.06.03 15:25:27.
