data_PCOD9461812
_publ_section_title
;
Structure prediction by ZEFSAII (Michael W. Deem and Ramdas Pophale) SiO2 
 PCOD9461812
Probable space group: P N M A
;
_chemical_formula_sum "Si O2"
_cell_formula_units_Z 32
_cell_length_a 7.400601
_cell_length_b 13.712049
_cell_length_c 18.275810
_cell_angle_alpha 90.000000
_cell_angle_beta 90.000000
_cell_angle_gamma 90.000000
_cell_volume 1854.581746
_symmetry_space_group_name_H-M "P N M A"
_symmetry_group_IT_number 62
_symmetry_cell_setting 'orthorhombic'
loop_
_space_group_symop_operation_xyz
x,y,z
1/2-x,-y,1/2+z
1/2+x,1/2-y,1/2-z
-x,1/2+y,-z
-x,-y,-z
1/2+x,y,1/2-z
1/2-x,1/2+y,1/2+z
x,1/2-y,z
loop_
_atom_site_type_symbol
_atom_site_label
_atom_site_fract_x
_atom_site_fract_y
_atom_site_fract_z
Si Si1 0.523478 0.633700 0.997350
Si Si2 0.862434 0.137758 0.335894
Si Si3 0.195614 0.980203 0.964211
Si Si4 0.934754 0.135954 0.174269
O O1 0.534732 0.750000 0.004005
O O2 0.557782 0.603064 0.912264
O O3 0.322944 0.592740 0.011944
O O4 0.682972 0.578099 0.040032
O O5 0.924162 0.250000 0.330165
O O6 0.910871 0.095798 0.256640
O O7 0.646942 0.136129 0.342963
O O8 0.162265 0.928160 0.886589
O O9 0.000000 0.000000 0.000000
O O10 0.871923 0.250000 0.171488
#
# Coordination Sequence:
#
# PCOD9461812 Si02
#       4
#     8   8   8   8
#     4  10  21  36  53  78 112 143 178 219 265 321
#     4   9  17  30  50  77 110 142 167 210 272 322
#     4  11  21  33  52  79 111 142 179 213 263 319
#     4  10  18  30  50  79 113 140 169 212 265 319
#
# _framework density 17.254566000000001
#
# number of rings (size 3 to 8) (size 9 to 14) (size 15 to 20)
#    0.000    2.000    2.500    2.250    0.000    5.000 
#    0.000    0.000    0.000    0.000    0.000   17.500 
#    0.000    0.000    0.000    0.000    0.000    0.000 
#
# Total GULP energy -178271.274206 kJ/mol
# GULP energy per Si atom -5570.977319 kJ/mol
# Density = 1.721529 g / cm^3
# Si number density = 17.254566 Si / 1000 Ang^3
#
#
#
# Elastic Constant Matrix: (Units=GPa)
#
#
# Indices 1 2 3 4 5 6 
#
# 1 118.3839 35.5413 16.8288 0.0000 0.0000 0.0000
# 2 35.5413 90.9968 25.9942 0.0000 0.0000 0.0000
# 3 16.8288 25.9942 63.5016 0.0000 0.0000 0.0000
# 4 0.0000 0.0000 0.0000 30.5937 0.0000 0.0000
# 5 0.0000 0.0000 0.0000 0.0000 26.2412 0.0000
# 6 0.0000 0.0000 0.0000 0.0000 0.0000 24.4233
#
#
#
# Elastic Compliance Matrix: (Units=1/GPa)
#
#
# Indices 1 2 3 4 5 6 
#
# 1 0.009643 -0.003438 -0.001148 0.000000 0.000000 0.000000
# 2 -0.003438 0.013671 -0.004685 0.000000 0.000000 0.000000
# 3 -0.001148 -0.004685 0.017970 0.000000 0.000000 0.000000
# 4 0.000000 0.000000 0.000000 0.032687 0.000000 0.000000
# 5 0.000000 0.000000 0.000000 0.000000 0.038108 0.000000
# 6 0.000000 0.000000 0.000000 0.000000 0.000000 0.040945
#
#
# Mechanical properties :
#
#
# Convention : Reuss Voigt Hill
#
# Bulk Modulus (GPa) = 43.97418 47.73454 45.85436
# Shear Modulus (GPa) = 27.91050 29.21949 28.56500
#
# Velocity S-wave (km/s) = 4.02627 4.11960 4.07320
# Velocity P-wave (km/s) = 6.86697 7.09599 6.98242
#
# Compressibility (1/GPa) = 0.02274062
#
# Stress axis : x y z
#
# Youngs Moduli (GPa) = 103.70748 73.14990 55.64955
#
# Poissons Ratio (x) = 0.25150 0.06388
# Poissons Ratio (y) = 0.35657 0.26071
# Poissons Ratio (z) = 0.11905 0.34270
#
# Static dielectric constant tensor:
#      x y z
#    x 1.646660 0.000000 0.000000 
#    y 0.000000 1.599310 0.000000 
#    z 0.000000 0.000000 1.617940 
# 
# From -- ./inp_files/21852.got.cif
#   From: 2010.05.17/outbox.cif.g08.bks.cpg/sg62_11_cif.got.tgz:21852.got - 2010.06.03 15:25:27.
