data_PCOD9461836
_publ_section_title
;
Structure prediction by ZEFSAII (Michael W. Deem and Ramdas Pophale) SiO2 
 PCOD9461836
Probable space group: P N M A
;
_chemical_formula_sum "Si O2"
_cell_formula_units_Z 56
_cell_length_a 11.907409
_cell_length_b 12.883169
_cell_length_c 18.397287
_cell_angle_alpha 90.000000
_cell_angle_beta 90.000000
_cell_angle_gamma 90.000000
_cell_volume 2822.238802
_symmetry_space_group_name_H-M "P N M A"
_symmetry_group_IT_number 62
_symmetry_cell_setting 'orthorhombic'
loop_
_space_group_symop_operation_xyz
x,y,z
1/2-x,-y,1/2+z
1/2+x,1/2-y,1/2-z
-x,1/2+y,-z
-x,-y,-z
1/2+x,y,1/2-z
1/2-x,1/2+y,1/2+z
x,1/2-y,z
loop_
_atom_site_type_symbol
_atom_site_label
_atom_site_fract_x
_atom_site_fract_y
_atom_site_fract_z
Si Si1 0.034787 0.868440 0.292506
Si Si2 0.842960 0.579930 0.546705
Si Si3 0.939005 0.867250 0.128079
Si Si4 0.336881 0.483077 0.162146
Si Si5 0.096168 0.864608 0.522696
Si Si6 0.674263 0.868482 0.423243
Si Si7 0.247900 0.007426 0.317682
O O1 0.033575 0.750000 0.319706
O O2 0.994214 0.866767 0.208825
O O3 0.945251 0.941070 0.333888
O O4 0.156651 0.919706 0.297242
O O5 0.859809 0.457446 0.527965
O O6 0.741689 0.621748 0.498090
O O7 0.815071 0.589409 0.631382
O O8 0.960879 0.629746 0.524074
O O9 0.896604 0.750000 0.114350
O O10 0.041697 0.890355 0.073997
O O11 0.842901 0.952340 0.133339
O O12 0.363267 0.394030 0.104100
O O13 0.235886 0.551918 0.130032
O O14 0.303500 0.451475 0.243653
O O15 0.133372 0.750000 0.501290
O O16 0.685259 0.750000 0.395727
#
# Coordination Sequence:
#
# PCOD9461836 Si02
#       7
#     8   8   8   8   8   8   8
#     4  10  18  30  52  84 114 141 177 232 287 336
#     4  10  22  37  57  85 109 149 188 236 290 329
#     4   9  19  31  49  79 112 147 180 222 280 334
#     4  10  20  35  58  82 113 146 186 233 287 334
#     4  10  21  40  58  81 112 149 196 239 284 338
#     4  10  19  35  55  80 114 150 183 221 273 340
#     4  11  20  34  54  83 117 145 184 231 284 340
#
# _framework density 19.842403000000001
#
# number of rings (size 3 to 8) (size 9 to 14) (size 15 to 20)
#    0.000    2.000    2.857    1.286    0.000    2.857 
#    0.000    1.429    0.000    0.000    0.000    1.000 
#    0.000    0.000    0.000    0.000    0.000    0.000 
#
# Total GULP energy -312677.526013 kJ/mol
# GULP energy per Si atom -5583.527250 kJ/mol
# Density = 1.979724 g / cm^3
# Si number density = 19.842403 Si / 1000 Ang^3
#
#
#
# Elastic Constant Matrix: (Units=GPa)
#
#
# Indices 1 2 3 4 5 6 
#
# 1 55.3292 -2.2943 4.7255 0.0000 0.0000 0.0000
# 2 -2.2943 49.6146 -3.5141 0.0000 0.0000 0.0000
# 3 4.7255 -3.5141 66.5223 0.0000 0.0000 0.0000
# 4 0.0000 0.0000 0.0000 7.8758 0.0000 0.0000
# 5 0.0000 0.0000 0.0000 0.0000 34.0407 0.0000
# 6 0.0000 0.0000 0.0000 0.0000 0.0000 7.6289
#
#
#
# Elastic Compliance Matrix: (Units=1/GPa)
#
#
# Indices 1 2 3 4 5 6 
#
# 1 0.018212 0.000753 -0.001254 0.000000 0.000000 0.000000
# 2 0.000753 0.020262 0.001017 0.000000 0.000000 0.000000
# 3 -0.001254 0.001017 0.015175 0.000000 0.000000 0.000000
# 4 0.000000 0.000000 0.000000 0.126971 0.000000 0.000000
# 5 0.000000 0.000000 0.000000 0.000000 0.029377 0.000000
# 6 0.000000 0.000000 0.000000 0.000000 0.000000 0.131080
#
#
# Mechanical properties :
#
#
# Convention : Reuss Voigt Hill
#
# Bulk Modulus (GPa) = 18.28750 18.81113 18.54932
# Shear Modulus (GPa) = 13.95589 21.41237 17.68413
#
# Velocity S-wave (km/s) = 2.65493 3.28856 2.98858
# Velocity P-wave (km/s) = 4.31678 4.89085 4.61275
#
# Compressibility (1/GPa) = 0.05468216
#
# Stress axis : x y z
#
# Youngs Moduli (GPa) = 54.90897 49.35290 65.89642
#
# Poissons Ratio (x) = -0.03718 0.08263
# Poissons Ratio (y) = -0.04137 -0.06701
# Poissons Ratio (z) = 0.06885 -0.05018
#
# Static dielectric constant tensor:
#      x y z
#    x 1.696460 0.000000 0.000000 
#    y 0.000000 1.680400 0.000000 
#    z 0.000000 0.000000 1.724300 
# 
# From -- ./inp_files/26604.got.cif
#   From: 2010.05.17/outbox.cif.g08.bks.cpg/sg62_14_cif.got.tgz:26604.got - 2010.06.03 15:25:27.
