data_PCOD9461126
_publ_section_title
;
Structure prediction by ZEFSAII (Michael W. Deem and Ramdas Pophale) SiO2 
 PCOD9461126
Probable space group: P B C A
;
_chemical_formula_sum "Si O2"
_cell_formula_units_Z 40
_cell_length_a 9.382897
_cell_length_b 17.396229
_cell_length_c 10.310488
_cell_angle_alpha 90.000000
_cell_angle_beta 90.000000
_cell_angle_gamma 90.000000
_cell_volume 1682.950281
_symmetry_space_group_name_H-M "P B C A"
_symmetry_group_IT_number 61
_symmetry_cell_setting 'orthorhombic'
loop_
_space_group_symop_operation_xyz
x,y,z
1/2-x,-y,1/2+z
1/2+x,1/2-y,-z
-x,1/2+y,1/2-z
-x,-y,-z
1/2+x,y,1/2-z
1/2-x,1/2+y,z
x,1/2-y,1/2+z
loop_
_atom_site_type_symbol
_atom_site_label
_atom_site_fract_x
_atom_site_fract_y
_atom_site_fract_z
Si Si1 0.463064 0.335482 0.510553
Si Si2 0.308352 0.605207 0.915474
Si Si3 0.811399 0.560469 0.154427
Si Si4 0.999444 0.887816 0.865745
Si Si5 0.545695 0.272087 0.239595
O O1 0.305266 0.368318 0.523459
O O2 0.583910 0.397048 0.551668
O O3 0.474352 0.318670 0.357416
O O4 0.478479 0.261578 0.605108
O O5 0.250482 0.523413 0.872858
O O6 0.330012 0.671656 0.809161
O O7 0.460695 0.597807 0.986049
O O8 0.667292 0.611375 0.162098
O O9 0.913433 0.551958 0.278595
O O10 0.931646 0.808136 0.814479
#
# Coordination Sequence:
#
# PCOD9461126 Si02
#       5
#     8   8   8   8   8
#     4  11  27  47  76 106 153 193 260 312 386 457
#     4  12  27  45  80 106 152 199 262 314 390 454
#     4  11  27  48  75 108 152 199 254 323 386 460
#     4  11  25  48  70 108 154 198 256 318 384 459
#     4  11  26  44  74 109 148 197 249 310 382 459
#
# _framework density 23.767786000000001
#
# number of rings (size 3 to 8) (size 9 to 14) (size 15 to 20)
#    0.000    0.800    2.000    3.600   14.000    1.600 
#    0.000    0.000    0.000    0.000    0.000    0.000 
#    0.000    0.000    0.000    0.000    0.000    0.000 
#
# Total GULP energy -223119.500333 kJ/mol
# GULP energy per Si atom -5577.987508 kJ/mol
# Density = 2.371369 g / cm^3
# Si number density = 23.767786 Si / 1000 Ang^3
#
#
#
# Elastic Constant Matrix: (Units=GPa)
#
#
# Indices 1 2 3 4 5 6 
#
# 1 113.8528 20.0739 39.9896 0.0000 0.0000 0.0000
# 2 20.0739 91.3580 29.9887 0.0000 0.0000 0.0000
# 3 39.9896 29.9887 61.9264 0.0000 0.0000 0.0000
# 4 0.0000 0.0000 0.0000 30.9875 0.0000 0.0000
# 5 0.0000 0.0000 0.0000 0.0000 23.5535 0.0000
# 6 0.0000 0.0000 0.0000 0.0000 0.0000 -111.2961
#
#
#
# Elastic Compliance Matrix: (Units=1/GPa)
#
#
# Indices 1 2 3 4 5 6 
#
# 1 0.011361 -0.000105 -0.007286 0.000000 0.000000 0.000000
# 2 -0.000105 0.013016 -0.006235 0.000000 0.000000 0.000000
# 3 -0.007286 -0.006235 0.023873 0.000000 0.000000 0.000000
# 4 0.000000 0.000000 0.000000 0.032271 0.000000 0.000000
# 5 0.000000 0.000000 0.000000 0.000000 0.042456 0.000000
# 6 0.000000 0.000000 0.000000 0.000000 0.000000 -0.008985
#
#
# Mechanical properties :
#
#
# Convention : Reuss Voigt Hill
#
# Bulk Modulus (GPa) = 47.62465 49.69351 48.65908
# Shear Modulus (GPa) = 33.72859 0.45465 17.09162
#
# Velocity S-wave (km/s) = 3.77117 0.43784 2.68453
# Velocity P-wave (km/s) = 6.24846 4.60531 5.48872
#
# Compressibility (1/GPa) = 0.02099753
#
# Stress axis : x y z
#
# Youngs Moduli (GPa) = 88.02257 76.82987 41.88913
#
# Poissons Ratio (x) = 0.00805 0.30519
# Poissons Ratio (y) = 0.00922 0.26120
# Poissons Ratio (z) = 0.64130 0.47907
#
# Static dielectric constant tensor:
#      x y z
#    x 1.899560 0.000000 0.000000 
#    y 0.000000 1.984460 0.000000 
#    z 0.000000 0.000000 1.987730 
# 
# From -- ./inp_files/4788.got.cif
#   From: 2010.05.17/outbox.cif.g08.bks.cpg/sg61_3_cif.got.tgz:4788.got - 2010.06.03 15:17:17.
