data_PCOD9461856
_publ_section_title
;
Structure prediction by ZEFSAII (Michael W. Deem and Ramdas Pophale) SiO2 
 PCOD9461856
Probable space group: P N M A
;
_chemical_formula_sum "Si O2"
_cell_formula_units_Z 56
_cell_length_a 9.289522
_cell_length_b 18.625624
_cell_length_c 13.204039
_cell_angle_alpha 90.000000
_cell_angle_beta 90.000000
_cell_angle_gamma 90.000000
_cell_volume 2284.604340
_symmetry_space_group_name_H-M "P N M A"
_symmetry_group_IT_number 62
_symmetry_cell_setting 'orthorhombic'
loop_
_space_group_symop_operation_xyz
x,y,z
1/2-x,-y,1/2+z
1/2+x,1/2-y,1/2-z
-x,1/2+y,-z
-x,-y,-z
1/2+x,y,1/2-z
1/2-x,1/2+y,1/2+z
x,1/2-y,z
loop_
_atom_site_type_symbol
_atom_site_label
_atom_site_fract_x
_atom_site_fract_y
_atom_site_fract_z
Si Si1 0.649743 0.166650 0.071766
Si Si2 0.306705 0.169196 0.082036
Si Si3 0.669223 0.475612 0.380251
Si Si4 0.372442 0.055174 0.413620
Si Si5 0.399065 0.170266 0.764741
Si Si6 0.546306 0.329613 0.545760
Si Si7 0.152737 0.387664 0.654431
O O1 0.685531 0.250000 0.096053
O O2 0.681916 0.148903 0.953830
O O3 0.477560 0.158975 0.081070
O O4 0.741365 0.103541 0.126720
O O5 0.279732 0.250000 0.122660
O O6 0.234748 0.102399 0.138299
O O7 0.218415 0.166838 0.974675
O O8 0.676863 0.498261 0.500873
O O9 0.500748 0.480398 0.348361
O O10 0.769825 0.536494 0.333703
O O11 0.470163 0.113143 0.474279
O O12 0.426881 0.250000 0.805656
O O13 0.478111 0.162618 0.655685
O O14 0.482172 0.113164 0.832437
O O15 0.233811 0.160137 0.737968
O O16 0.504908 0.250000 0.510516
#
# Coordination Sequence:
#
# PCOD9461856 Si02
#       7
#     8   8   8   8   8   8   8
#     4  10  18  31  48  74 105 133 166 204 251 304
#     4   9  19  31  50  77 103 130 162 209 266 313
#     4   9  18  34  48  70  99 131 171 210 257 305
#     4   9  16  28  50  69  95 134 168 207 251 300
#     4  11  21  34  48  70 102 142 182 208 236 289
#     4   9  16  29  47  69 100 138 173 205 244 295
#     4  11  23  34  49  71 103 144 177 209 245 287
#
# _framework density 24.511901999999999
#
# number of rings (size 3 to 8) (size 9 to 14) (size 15 to 20)
#    0.000    2.286    2.857    1.714    2.000    2.857 
#    0.000    1.429    0.000    0.000    0.000    1.000 
#    0.000    0.000    0.000    0.000    0.000    0.000 
#
# Total GULP energy -312446.040514 kJ/mol
# GULP energy per Si atom -5579.393581 kJ/mol
# Density = 2.445611 g / cm^3
# Si number density = 24.511902 Si / 1000 Ang^3
#
#
#
# Elastic Constant Matrix: (Units=GPa)
#
#
# Indices 1 2 3 4 5 6 
#
# 1 126.6441 28.0293 9.6217 0.0000 0.0000 0.0000
# 2 28.0293 137.7989 7.1123 0.0000 0.0000 0.0000
# 3 9.6217 7.1123 29.3025 0.0000 0.0000 0.0000
# 4 0.0000 0.0000 0.0000 5.8605 0.0000 0.0000
# 5 0.0000 0.0000 0.0000 0.0000 19.4192 0.0000
# 6 0.0000 0.0000 0.0000 0.0000 0.0000 42.4888
#
#
#
# Elastic Compliance Matrix: (Units=1/GPa)
#
#
# Indices 1 2 3 4 5 6 
#
# 1 0.008429 -0.001592 -0.002382 0.000000 0.000000 0.000000
# 2 -0.001592 0.007650 -0.001334 0.000000 0.000000 0.000000
# 3 -0.002382 -0.001334 0.035233 0.000000 0.000000 0.000000
# 4 0.000000 0.000000 0.000000 0.170633 0.000000 0.000000
# 5 0.000000 0.000000 0.000000 0.000000 0.051495 0.000000
# 6 0.000000 0.000000 0.000000 0.000000 0.000000 0.023536
#
#
# Mechanical properties :
#
#
# Convention : Reuss Voigt Hill
#
# Bulk Modulus (GPa) = 24.57185 42.58577 33.57881
# Shear Modulus (GPa) = 15.56878 30.15252 22.86065
#
# Velocity S-wave (km/s) = 2.52296 3.51111 3.05722
# Velocity P-wave (km/s) = 4.30503 5.81794 5.11770
#
# Compressibility (1/GPa) = 0.04069698
#
# Stress axis : x y z
#
# Youngs Moduli (GPa) = 118.63311 130.72644 28.38286
#
# Poissons Ratio (x) = 0.20807 0.06759
# Poissons Ratio (y) = 0.18882 0.03786
# Poissons Ratio (z) = 0.28253 0.17440
#
# Static dielectric constant tensor:
#      x y z
#    x 1.996770 0.000000 0.000000 
#    y 0.000000 1.956870 0.000000 
#    z 0.000000 0.000000 2.011830 
# 
# From -- ./inp_files/26120.got.cif
#   From: 2010.05.17/outbox.cif.g08.bks.cpg/sg62_14_cif.got.tgz:26120.got - 2010.06.03 15:25:27.
