data_PCOD9461220
_publ_section_title
;
Structure prediction by ZEFSAII (Michael W. Deem and Ramdas Pophale) SiO2 
 PCOD9461220
Probable space group: P B C A
;
_chemical_formula_sum "Si O2"
_cell_formula_units_Z 28
_cell_length_a 16.935305
_cell_length_b 7.151373
_cell_length_c 8.729991
_cell_angle_alpha 90.000000
_cell_angle_beta 90.000000
_cell_angle_gamma 90.000000
_cell_volume 1057.295172
_symmetry_space_group_name_H-M "P B C A"
_symmetry_group_IT_number 61
_symmetry_cell_setting 'orthorhombic'
loop_
_space_group_symop_operation_xyz
x,y,z
1/2-x,-y,1/2+z
1/2+x,1/2-y,-z
-x,1/2+y,1/2-z
-x,-y,-z
1/2+x,y,1/2-z
1/2-x,1/2+y,z
x,1/2-y,1/2+z
loop_
_atom_site_type_symbol
_atom_site_label
_atom_site_fract_x
_atom_site_fract_y
_atom_site_fract_z
Si Si1 0.685455 0.997176 0.305201
Si Si2 0.500000 0.500000 0.000000
Si Si3 0.942477 0.327727 0.816793
Si Si4 0.844378 0.637581 0.967011
O O1 0.647608 0.142839 0.426905
O O2 0.631217 0.815250 0.303246
O O3 0.770667 0.933734 0.362020
O O4 0.681521 0.095289 0.140534
O O5 0.531724 0.612989 0.149928
O O6 0.505779 0.300577 0.099813
O O7 0.914614 0.503906 0.915312
#
# Coordination Sequence:
#
# PCOD9461220 Si02
#       4
#     8   4   8   8
#     4  12  27  47  82 123 167 209 274 361 433 496
#     4  12  32  56  84 116 174 234 284 342 412 518
#     4  12  30  54  82 120 166 224 284 338 422 506
#     4  12  27  47  82 123 167 209 274 361 433 496
#
# _framework density 26.482669999999999
#
# number of rings (size 3 to 8) (size 9 to 14) (size 15 to 20)
#    0.000    0.000    5.714    1.714   12.000    1.143 
#    0.000    0.000    0.000    0.000    0.000    0.000 
#    0.000    0.000    0.000    0.000    0.000    0.000 
#
# Total GULP energy -156547.199218 kJ/mol
# GULP energy per Si atom -5590.971401 kJ/mol
# Density = 2.642239 g / cm^3
# Si number density = 26.482670 Si / 1000 Ang^3
#
#
#
# Elastic Constant Matrix: (Units=GPa)
#
#
# Indices 1 2 3 4 5 6 
#
# 1 75.9482 49.6462 31.1904 0.0000 0.0000 0.0000
# 2 49.6462 200.2641 61.2898 0.0000 0.0000 0.0000
# 3 31.1904 61.2898 178.7486 0.0000 0.0000 0.0000
# 4 0.0000 0.0000 0.0000 80.6633 0.0000 0.0000
# 5 0.0000 0.0000 0.0000 0.0000 101.3284 0.0000
# 6 0.0000 0.0000 0.0000 0.0000 0.0000 4.2159
#
#
#
# Elastic Compliance Matrix: (Units=1/GPa)
#
#
# Indices 1 2 3 4 5 6 
#
# 1 0.016118 -0.003503 -0.001612 0.000000 0.000000 0.000000
# 2 -0.003503 0.006340 -0.001563 0.000000 0.000000 0.000000
# 3 -0.001612 -0.001563 0.006411 0.000000 0.000000 0.000000
# 4 0.000000 0.000000 0.000000 0.012397 0.000000 0.000000
# 5 0.000000 0.000000 0.000000 0.000000 0.009869 0.000000
# 6 0.000000 0.000000 0.000000 0.000000 0.000000 0.237196
#
#
# Mechanical properties :
#
#
# Convention : Reuss Voigt Hill
#
# Bulk Modulus (GPa) = 64.44925 82.13485 73.29205
# Shear Modulus (GPa) = 16.29423 58.09716 37.19569
#
# Velocity S-wave (km/s) = 2.48317 4.68886 3.75177
# Velocity P-wave (km/s) = 5.71058 7.77147 6.81933
#
# Compressibility (1/GPa) = 0.01551609
#
# Stress axis : x y z
#
# Youngs Moduli (GPa) = 62.04130 157.72969 155.97043
#
# Poissons Ratio (x) = 0.55246 0.25136
# Poissons Ratio (y) = 0.21730 0.24373
# Poissons Ratio (z) = 0.09998 0.24648
#
# Static dielectric constant tensor:
#      x y z
#    x 1.770100 0.000000 0.000000 
#    y 0.000000 1.972060 0.000000 
#    z 0.000000 0.000000 1.999670 
# 
# From -- ./inp_files/1638.got.cif
#   From: 2010.05.17/outbox.cif.g08.bks.cpg/sg61_1_cif.got.tgz:1638.got - 2010.06.03 15:17:17.
