data_PCOD9461912
_publ_section_title
;
Structure prediction by ZEFSAII (Michael W. Deem and Ramdas Pophale) SiO2 
 PCOD9461912
Probable space group: P N M A
;
_chemical_formula_sum "Si O2"
_cell_formula_units_Z 40
_cell_length_a 15.822271
_cell_length_b 8.703134
_cell_length_c 16.058751
_cell_angle_alpha 90.000000
_cell_angle_beta 90.000000
_cell_angle_gamma 90.000000
_cell_volume 2211.343724
_symmetry_space_group_name_H-M "P N M A"
_symmetry_group_IT_number 62
_symmetry_cell_setting 'orthorhombic'
loop_
_space_group_symop_operation_xyz
x,y,z
1/2-x,-y,1/2+z
1/2+x,1/2-y,1/2-z
-x,1/2+y,-z
-x,-y,-z
1/2+x,y,1/2-z
1/2-x,1/2+y,1/2+z
x,1/2-y,z
loop_
_atom_site_type_symbol
_atom_site_label
_atom_site_fract_x
_atom_site_fract_y
_atom_site_fract_z
Si Si1 0.568528 0.566380 0.565664
Si Si2 0.810821 0.932160 0.941099
Si Si3 0.450241 0.066072 0.881003
Si Si4 0.368522 0.931783 0.041517
Si Si5 0.945590 0.065741 0.811392
O O1 0.500000 0.500000 0.500000
O O2 0.567815 0.750000 0.564392
O O3 0.655756 0.503061 0.528565
O O4 0.533073 0.503614 0.652669
O O5 0.822285 0.750000 0.943205
O O6 0.869775 0.001260 0.868263
O O7 0.714042 0.978439 0.929452
O O8 0.438361 0.250000 0.891831
O O9 0.433741 0.026937 0.785230
O O10 0.392226 0.979398 0.947354
O O11 0.547612 0.031980 0.905006
O O12 0.352618 0.750000 0.046722
O O13 0.948542 0.250000 0.820341
#
# Coordination Sequence:
#
# PCOD9461912 Si02
#       5
#     8   8   8   8   8
#     4  10  18  31  52  78 108 143 178 219 271 323
#     4  11  21  35  55  81 112 146 184 227 275 323
#     4   9  20  38  59  81 108 146 183 221 273 329
#     4  10  20  37  59  81 108 144 185 226 272 325
#     4  10  19  35  57  82 112 145 181 224 274 328
#
# _framework density 18.088547999999999
#
# number of rings (size 3 to 8) (size 9 to 14) (size 15 to 20)
#    0.000    2.000    0.000    7.200    0.000    2.400 
#    3.600    0.000    0.000    0.000    0.000    0.000 
#    0.000    0.000    0.000    0.000    0.000    0.000 
#
# Total GULP energy -223227.839026 kJ/mol
# GULP energy per Si atom -5580.695976 kJ/mol
# Density = 1.804738 g / cm^3
# Si number density = 18.088548 Si / 1000 Ang^3
#
#
#
# Elastic Constant Matrix: (Units=GPa)
#
#
# Indices 1 2 3 4 5 6 
#
# 1 67.1241 34.8015 31.6015 0.0000 0.0000 0.0000
# 2 34.8015 108.0996 45.7558 0.0000 0.0000 0.0000
# 3 31.6015 45.7558 103.1342 0.0000 0.0000 0.0000
# 4 0.0000 0.0000 0.0000 27.1914 0.0000 0.0000
# 5 0.0000 0.0000 0.0000 0.0000 11.2410 0.0000
# 6 0.0000 0.0000 0.0000 0.0000 0.0000 31.0360
#
#
#
# Elastic Compliance Matrix: (Units=1/GPa)
#
#
# Indices 1 2 3 4 5 6 
#
# 1 0.019040 -0.004506 -0.003835 0.000000 0.000000 0.000000
# 2 -0.004506 0.012456 -0.004145 0.000000 0.000000 0.000000
# 3 -0.003835 -0.004145 0.012710 0.000000 0.000000 0.000000
# 4 0.000000 0.000000 0.000000 0.036776 0.000000 0.000000
# 5 0.000000 0.000000 0.000000 0.000000 0.088960 0.000000
# 6 0.000000 0.000000 0.000000 0.000000 0.000000 0.032221
#
#
# Mechanical properties :
#
#
# Convention : Reuss Voigt Hill
#
# Bulk Modulus (GPa) = 51.99413 55.85283 53.92348
# Shear Modulus (GPa) = 21.40901 24.97363 23.19132
#
# Velocity S-wave (km/s) = 3.44403 3.71972 3.58453
# Velocity P-wave (km/s) = 6.67995 7.02801 6.85619
#
# Compressibility (1/GPa) = 0.01923294
#
# Stress axis : x y z
#
# Youngs Moduli (GPa) = 52.52227 80.28140 78.67703
#
# Poissons Ratio (x) = 0.36179 0.30170
# Poissons Ratio (y) = 0.23669 0.32615
# Poissons Ratio (z) = 0.20140 0.33280
#
# Static dielectric constant tensor:
#      x y z
#    x 1.636620 0.000000 0.000000 
#    y 0.000000 1.604740 0.000000 
#    z 0.000000 0.000000 1.628380 
# 
# From -- ./inp_files/23461.got.cif
#   From: 2010.05.17/outbox.cif.g08.bks.cpg/sg62_12_cif.got.tgz:23461.got - 2010.06.03 15:25:27.
