data_PCOD9461606
_publ_section_title
;
Structure prediction by ZEFSAII (Michael W. Deem and Ramdas Pophale) SiO2 
 PCOD9461606
Probable space group: P N M A
;
_chemical_formula_sum "Si O2"
_cell_formula_units_Z 48
_cell_length_a 8.467772
_cell_length_b 14.938802
_cell_length_c 13.832069
_cell_angle_alpha 90.000000
_cell_angle_beta 90.000000
_cell_angle_gamma 90.000000
_cell_volume 1749.734172
_symmetry_space_group_name_H-M "P N M A"
_symmetry_group_IT_number 62
_symmetry_cell_setting 'orthorhombic'
loop_
_space_group_symop_operation_xyz
x,y,z
1/2-x,-y,1/2+z
1/2+x,1/2-y,1/2-z
-x,1/2+y,-z
-x,-y,-z
1/2+x,y,1/2-z
1/2-x,1/2+y,1/2+z
x,1/2-y,z
loop_
_atom_site_type_symbol
_atom_site_label
_atom_site_fract_x
_atom_site_fract_y
_atom_site_fract_z
Si Si1 0.234478 0.852489 0.863988
Si Si2 0.902412 0.583190 0.888560
Si Si3 0.590354 0.621740 0.442546
Si Si4 0.073896 0.858024 0.615383
Si Si5 0.120659 0.148744 0.770877
Si Si6 0.914191 0.360349 0.606403
O O1 0.218048 0.750000 0.830082
O O2 0.406836 0.891070 0.843813
O O3 0.225421 0.847536 0.983612
O O4 0.073810 0.904940 0.839347
O O5 0.884476 0.482454 0.922990
O O6 0.938379 0.639144 0.987081
O O7 0.743210 0.616739 0.840257
O O8 0.534935 0.654947 0.339010
O O9 0.061226 0.750000 0.616548
O O10 0.085418 0.889613 0.503942
O O11 0.169179 0.250000 0.749051
O O12 0.259737 0.107133 0.834372
O O13 0.064324 0.107964 0.669890
O O14 0.913297 0.250000 0.606131
#
# Coordination Sequence:
#
# PCOD9461606 Si02
#       6
#     8   8   8   8   8   8
#     4   9  17  27  44  63  80 108 145 179 214 255
#     4   9  18  31  42  60  86 119 151 177 219 260
#     4   9  18  30  41  59  85 121 153 174 218 261
#     4  10  18  29  46  67  88 116 151 184 220 254
#     4  10  18  28  43  60  86 118 150 186 212 244
#     4   9  18  27  39  61  85 112 149 185 213 245
#
# _framework density 27.432738000000001
#
# number of rings (size 3 to 8) (size 9 to 14) (size 15 to 20)
#    1.000    1.667    1.667    1.000    2.333    0.667 
#    0.000    0.000    0.000    0.000    0.000    0.000 
#    0.000    0.000    0.000   18.000    4.000    0.000 
#
# Total GULP energy -268220.475241 kJ/mol
# GULP energy per Si atom -5587.926568 kJ/mol
# Density = 2.737030 g / cm^3
# Si number density = 27.432738 Si / 1000 Ang^3
#
#
#
# Elastic Constant Matrix: (Units=GPa)
#
#
# Indices 1 2 3 4 5 6 
#
# 1 212.7831 29.2693 66.1784 0.0000 0.0000 0.0000
# 2 29.2693 77.9367 -8.0205 0.0000 0.0000 0.0000
# 3 66.1784 -8.0205 133.3808 0.0000 0.0000 0.0000
# 4 0.0000 0.0000 0.0000 1.4395 0.0000 0.0000
# 5 0.0000 0.0000 0.0000 0.0000 62.5529 0.0000
# 6 0.0000 0.0000 0.0000 0.0000 0.0000 24.9783
#
#
#
# Elastic Compliance Matrix: (Units=1/GPa)
#
#
# Indices 1 2 3 4 5 6 
#
# 1 0.006036 -0.002591 -0.003151 0.000000 0.000000 0.000000
# 2 -0.002591 0.014023 0.002129 0.000000 0.000000 0.000000
# 3 -0.003151 0.002129 0.009189 0.000000 0.000000 0.000000
# 4 0.000000 0.000000 0.000000 0.694686 0.000000 0.000000
# 5 0.000000 0.000000 0.000000 0.000000 0.015986 0.000000
# 6 0.000000 0.000000 0.000000 0.000000 0.000000 0.040035
#
#
# Mechanical properties :
#
#
# Convention : Reuss Voigt Hill
#
# Bulk Modulus (GPa) = 45.40932 66.55053 55.97993
# Shear Modulus (GPa) = 6.29310 40.23903 23.26606
#
# Velocity S-wave (km/s) = 1.51624 3.83407 2.91540
# Velocity P-wave (km/s) = 4.43331 6.62664 5.63767
#
# Compressibility (1/GPa) = 0.02202191
#
# Stress axis : x y z
#
# Youngs Moduli (GPa) = 165.67524 71.31107 108.83120
#
# Poissons Ratio (x) = 0.18477 0.34288
# Poissons Ratio (y) = 0.42927 -0.23168
# Poissons Ratio (z) = 0.52197 -0.15181
#
# Static dielectric constant tensor:
#      x y z
#    x 2.187290 0.000000 0.000000 
#    y 0.000000 2.038960 0.000000 
#    z 0.000000 0.000000 2.169990 
# 
# From -- ./inp_files/26227.got.cif
#   From: 2010.05.17/outbox.cif.g08.bks.cpg/sg62_14_cif.got.tgz:26227.got - 2010.06.03 15:25:27.
