data_PCOD9461375
_publ_section_title
;
Structure prediction by ZEFSAII (Michael W. Deem and Ramdas Pophale) SiO2 
 PCOD9461375
Probable space group: P N M A
;
_chemical_formula_sum "Si O2"
_cell_formula_units_Z 48
_cell_length_a 33.189687
_cell_length_b 8.435010
_cell_length_c 6.835634
_cell_angle_alpha 90.000000
_cell_angle_beta 90.000000
_cell_angle_gamma 90.000000
_cell_volume 1913.672252
_symmetry_space_group_name_H-M "P N M A"
_symmetry_group_IT_number 62
_symmetry_cell_setting 'orthorhombic'
loop_
_space_group_symop_operation_xyz
x,y,z
1/2-x,-y,1/2+z
1/2+x,1/2-y,1/2-z
-x,1/2+y,-z
-x,-y,-z
1/2+x,y,1/2-z
1/2-x,1/2+y,1/2+z
x,1/2-y,z
loop_
_atom_site_type_symbol
_atom_site_label
_atom_site_fract_x
_atom_site_fract_y
_atom_site_fract_z
Si Si1 0.716949 0.428130 0.983126
Si Si2 0.303776 0.571383 0.474062
Si Si3 0.032781 0.936655 0.782772
Si Si4 0.116382 0.441323 0.841923
Si Si5 0.134765 0.936317 0.404191
Si Si6 0.050596 0.059887 0.347497
O O1 0.722402 0.250000 0.052634
O O2 0.701335 0.423610 0.761736
O O3 0.761135 0.501801 0.965142
O O4 0.681749 0.509367 0.111772
O O5 0.306634 0.750000 0.547737
O O6 0.348371 0.496579 0.487221
O O7 0.035795 0.750000 0.824573
O O8 0.985993 0.988775 0.796636
O O9 0.069844 0.024747 0.885592
O O10 0.041554 0.968907 0.550914
O O11 0.120673 0.250000 0.822401
O O12 0.125003 0.524563 0.633412
O O13 0.132150 0.750000 0.369058
O O14 0.097181 0.024221 0.301251
O O15 0.046856 0.250000 0.378187
#
# Coordination Sequence:
#
# PCOD9461375 Si02
#       6
#     8   8   8   8   8   8
#     4  10  20  33  49  68  91 120 152 188 229 269
#     4   9  19  33  47  67  92 118 152 189 225 268
#     4   9  15  21  32  51  75 106 142 176 213 260
#     4   9  16  26  39  56  82 112 143 181 220 262
#     4  10  17  25  39  57  80 111 145 180 219 265
#     4   9  15  22  32  49  76 107 140 177 214 258
#
# _framework density 25.082664999999999
#
# number of rings (size 3 to 8) (size 9 to 14) (size 15 to 20)
#    0.000    2.667    0.000    6.500    0.000    6.000 
#    0.000    0.000    0.000    0.000    0.000    0.000 
#    0.000    1.333    0.000    4.333    0.000   16.000 
#
# Total GULP energy -268041.053527 kJ/mol
# GULP energy per Si atom -5584.188615 kJ/mol
# Density = 2.502558 g / cm^3
# Si number density = 25.082665 Si / 1000 Ang^3
#
#
#
# Elastic Constant Matrix: (Units=GPa)
#
#
# Indices 1 2 3 4 5 6 
#
# 1 260.5378 28.9733 26.8678 0.0000 0.0000 0.0000
# 2 28.9733 85.4002 -28.0528 0.0000 0.0000 0.0000
# 3 26.8678 -28.0528 44.3283 0.0000 0.0000 0.0000
# 4 0.0000 0.0000 0.0000 2.1991 0.0000 0.0000
# 5 0.0000 0.0000 0.0000 0.0000 64.1987 0.0000
# 6 0.0000 0.0000 0.0000 0.0000 0.0000 45.7092
#
#
#
# Elastic Compliance Matrix: (Units=1/GPa)
#
#
# Indices 1 2 3 4 5 6 
#
# 1 0.004695 -0.003191 -0.004865 0.000000 0.000000 0.000000
# 2 -0.003191 0.016951 0.012661 0.000000 0.000000 0.000000
# 3 -0.004865 0.012661 0.033520 0.000000 0.000000 0.000000
# 4 0.000000 0.000000 0.000000 0.454735 0.000000 0.000000
# 5 0.000000 0.000000 0.000000 0.000000 0.015577 0.000000
# 6 0.000000 0.000000 0.000000 0.000000 0.000000 0.021877
#
#
# Mechanical properties :
#
#
# Convention : Reuss Voigt Hill
#
# Bulk Modulus (GPa) = 15.53333 49.53811 32.53572
# Shear Modulus (GPa) = 8.93490 46.58660 27.76075
#
# Velocity S-wave (km/s) = 1.88942 4.31434 3.33043
# Velocity P-wave (km/s) = 3.31152 6.67914 5.27148
#
# Compressibility (1/GPa) = 0.06437770
#
# Stress axis : x y z
#
# Youngs Moduli (GPa) = 213.00521 58.99294 29.83282
#
# Poissons Ratio (x) = 0.18823 0.14513
# Poissons Ratio (y) = 0.67965 -0.37772
# Poissons Ratio (z) = 1.03622 -0.74693
#
# Static dielectric constant tensor:
#      x y z
#    x 2.116410 0.000000 0.000000 
#    y 0.000000 1.863980 0.000000 
#    z 0.000000 0.000000 2.086180 
# 
# From -- ./inp_files/15615.got.cif
#   From: 2010.05.17/outbox.cif.g08.bks.cpg/sg62_8_cif.got.tgz:15615.got - 2010.06.03 15:25:27.
