data_PCOD9461029
_publ_section_title
;
Structure prediction by ZEFSAII (Michael W. Deem and Ramdas Pophale) SiO2 
 PCOD9461029
Probable space group: P B C A
;
_chemical_formula_sum "Si O2"
_cell_formula_units_Z 64
_cell_length_a 14.187792
_cell_length_b 18.426319
_cell_length_c 11.341040
_cell_angle_alpha 90.000000
_cell_angle_beta 90.000000
_cell_angle_gamma 90.000000
_cell_volume 2964.874266
_symmetry_space_group_name_H-M "P B C A"
_symmetry_group_IT_number 61
_symmetry_cell_setting 'orthorhombic'
loop_
_space_group_symop_operation_xyz
x,y,z
1/2-x,-y,1/2+z
1/2+x,1/2-y,-z
-x,1/2+y,1/2-z
-x,-y,-z
1/2+x,y,1/2-z
1/2-x,1/2+y,z
x,1/2-y,1/2+z
loop_
_atom_site_type_symbol
_atom_site_label
_atom_site_fract_x
_atom_site_fract_y
_atom_site_fract_z
Si Si1 0.737994 0.463409 0.608292
Si Si2 0.193458 0.170377 0.562104
Si Si3 0.812041 0.819272 0.046664
Si Si4 0.062391 0.042653 0.902732
Si Si5 0.010544 0.364220 0.197259
Si Si6 0.581820 0.558582 0.499458
Si Si7 0.665537 0.721768 0.750235
Si Si8 0.207663 0.621860 0.184015
O O1 0.715601 0.401298 0.512397
O O2 0.844102 0.493548 0.608221
O O3 0.667973 0.527668 0.576005
O O4 0.726802 0.428654 0.736692
O O5 0.157411 0.236577 0.480796
O O6 0.117003 0.155938 0.664608
O O7 0.287852 0.196166 0.627381
O O8 0.896169 0.876483 0.067817
O O9 0.732126 0.812594 0.148174
O O10 0.763215 0.848449 0.928196
O O11 0.010199 0.063561 0.779613
O O12 0.000000 0.000000 0.000000
O O13 0.963433 0.375673 0.069359
O O14 0.942067 0.304076 0.251075
O O15 0.500000 0.500000 0.500000
O O16 0.620578 0.578279 0.371590
O O17 0.674225 0.808659 0.741904
#
# Coordination Sequence:
#
# PCOD9461029 Si02
#       8
#     8   8   8   8   8   8   8   8
#     4  12  25  45  73 100 142 186 242 295 365 441
#     4  11  25  45  74 101 140 192 242 297 368 432
#     4  11  23  49  69 101 143 186 238 302 363 433
#     4  12  27  44  70 108 144 188 244 301 369 436
#     4  12  25  44  71 107 144 191 241 307 368 439
#     4  12  25  44  69 104 146 183 240 296 370 439
#     4  11  23  47  74 100 144 186 244 303 363 436
#     4  11  25  45  74 102 137 197 238 297 371 431
#
# _framework density 21.586075999999998
#
# number of rings (size 3 to 8) (size 9 to 14) (size 15 to 20)
#    0.000    0.500    6.250    1.500    1.750    2.000 
#    4.500    0.000    0.000    0.000    0.000    0.000 
#    0.000    0.000    0.000    0.000    0.000    0.000 
#
# Total GULP energy -357404.340422 kJ/mol
# GULP energy per Si atom -5584.442819 kJ/mol
# Density = 2.153695 g / cm^3
# Si number density = 21.586076 Si / 1000 Ang^3
#
#
#
# Elastic Constant Matrix: (Units=GPa)
#
#
# Indices 1 2 3 4 5 6 
#
# 1 74.4868 21.3247 30.9573 0.0000 0.0000 0.0000
# 2 21.3247 89.5632 22.3934 0.0000 0.0000 0.0000
# 3 30.9573 22.3934 67.4835 0.0000 0.0000 0.0000
# 4 0.0000 0.0000 0.0000 48.2638 0.0000 0.0000
# 5 0.0000 0.0000 0.0000 0.0000 32.3607 0.0000
# 6 0.0000 0.0000 0.0000 0.0000 0.0000 37.1897
#
#
#
# Elastic Compliance Matrix: (Units=1/GPa)
#
#
# Indices 1 2 3 4 5 6 
#
# 1 0.017007 -0.002289 -0.007042 0.000000 0.000000 0.000000
# 2 -0.002289 0.012483 -0.003093 0.000000 0.000000 0.000000
# 3 -0.007042 -0.003093 0.019075 0.000000 0.000000 0.000000
# 4 0.000000 0.000000 0.000000 0.020719 0.000000 0.000000
# 5 0.000000 0.000000 0.000000 0.000000 0.030902 0.000000
# 6 0.000000 0.000000 0.000000 0.000000 0.000000 0.026889
#
#
# Mechanical properties :
#
#
# Convention : Reuss Voigt Hill
#
# Bulk Modulus (GPa) = 42.16067 42.32049 42.24058
# Shear Modulus (GPa) = 31.28324 34.02003 32.65164
#
# Velocity S-wave (km/s) = 3.81101 3.97422 3.89347
# Velocity P-wave (km/s) = 6.24010 6.38022 6.31055
#
# Compressibility (1/GPa) = 0.02371879
#
# Stress axis : x y z
#
# Youngs Moduli (GPa) = 58.79828 80.10614 52.42367
#
# Poissons Ratio (x) = 0.18333 0.36919
# Poissons Ratio (y) = 0.13456 0.16213
# Poissons Ratio (z) = 0.41409 0.24774
#
# Static dielectric constant tensor:
#      x y z
#    x 1.784620 0.000000 0.000000 
#    y 0.000000 1.825190 0.000000 
#    z 0.000000 0.000000 1.871580 
# 
# From -- ./inp_files/5997.got.cif
#   From: 2010.05.17/outbox.cif.g08.bks.cpg/sg61_3_cif.got.tgz:5997.got - 2010.06.03 15:17:17.
