data_PCOD9461255
_publ_section_title
;
Structure prediction by ZEFSAII (Michael W. Deem and Ramdas Pophale) SiO2 
 PCOD9461255
Probable space group: P B C A
;
_chemical_formula_sum "Si O2"
_cell_formula_units_Z 64
_cell_length_a 18.000000
_cell_length_b 15.000000
_cell_length_c 12.000000
_cell_angle_alpha 90.000000
_cell_angle_beta 90.000000
_cell_angle_gamma 90.000000
_cell_volume 3240.000000
_symmetry_space_group_name_H-M "P B C A"
_symmetry_group_IT_number 61
_symmetry_cell_setting 'orthorhombic'
loop_
_space_group_symop_operation_xyz
x,y,z
1/2-x,-y,1/2+z
1/2+x,1/2-y,-z
-x,1/2+y,1/2-z
-x,-y,-z
1/2+x,y,1/2-z
1/2-x,1/2+y,z
x,1/2-y,1/2+z
loop_
_atom_site_type_symbol
_atom_site_label
_atom_site_fract_x
_atom_site_fract_y
_atom_site_fract_z
Si Si1 0.511982 0.146487 0.445187
Si Si2 0.644577 0.574072 0.834152
Si Si3 0.600192 0.559280 0.423122
Si Si4 0.435101 0.714879 0.712849
Si Si5 0.436205 0.247291 0.124617
Si Si6 0.100795 0.501669 0.428312
Si Si7 0.961379 0.044376 0.653785
Si Si8 0.313682 0.573866 0.725715
O O1 0.568296 0.204268 0.373871
O O2 0.458497 0.219431 0.501858
O O3 0.457124 0.076365 0.386048
O O4 0.552958 0.085729 0.537716
O O5 0.612670 0.673593 0.826443
O O6 0.585671 0.519091 0.761444
O O7 0.726466 0.574937 0.787393
O O8 0.637907 0.539068 0.959809
O O9 0.609909 0.657324 0.375201
O O10 0.517184 0.531692 0.385372
O O11 0.596741 0.563235 0.555812
O O12 0.654181 0.484365 0.376618
O O13 0.484553 0.755184 0.812720
O O14 0.486047 0.630589 0.673210
O O15 0.355579 0.669211 0.731460
O O16 0.159075 0.477045 0.335453
#
# Coordination Sequence:
#
# PCOD9461255 Si02
#       8
#     8   8   8   8   8   8   8   8
#     4  10  19  36  64  90 113 147 203 252 291 351
#     4  10  24  40  58  82 126 164 196 242 308 373
#     4  10  20  36  64  89 113 153 205 253 297 353
#     4  10  19  35  62  89 115 149 195 253 289 346
#     4  10  19  37  60  89 114 150 201 251 296 347
#     4  10  22  39  62  88 116 163 200 247 300 359
#     4   9  20  37  58  89 117 151 198 250 300 343
#     4  11  23  40  58  87 126 159 195 245 304 372
#
# _framework density 19.753086
#
# number of rings (size 3 to 8) (size 9 to 14) (size 15 to 20)
#    0.000    2.000    2.500    0.750    8.750    0.000 
#    2.250    0.000    0.000    0.000    0.000    0.000 
#    0.000    0.000    0.000    0.000    0.000    0.000 
#
# Total GULP energy -356783.154663 kJ/mol
# GULP energy per Si atom -5574.736792 kJ/mol
# Density = 1.970813 g / cm^3
# Si number density = 19.753086 Si / 1000 Ang^3
#
#
#
# Elastic Constant Matrix: (Units=GPa)
#
#
# Indices 1 2 3 4 5 6 
#
# 1 80.4132 0.3207 18.2759 0.0000 0.0000 0.0000
# 2 0.3207 40.9396 1.6279 0.0000 0.0000 0.0000
# 3 18.2759 1.6279 57.0700 0.0000 0.0000 0.0000
# 4 0.0000 0.0000 0.0000 13.1206 0.0000 0.0000
# 5 0.0000 0.0000 0.0000 0.0000 19.4033 0.0000
# 6 0.0000 0.0000 0.0000 0.0000 0.0000 9.5854
#
#
#
# Elastic Compliance Matrix: (Units=1/GPa)
#
#
# Indices 1 2 3 4 5 6 
#
# 1 0.013412 0.000066 -0.004297 0.000000 0.000000 0.000000
# 2 0.000066 0.024454 -0.000719 0.000000 0.000000 0.000000
# 3 -0.004297 -0.000719 0.018919 0.000000 0.000000 0.000000
# 4 0.000000 0.000000 0.000000 0.076216 0.000000 0.000000
# 5 0.000000 0.000000 0.000000 0.000000 0.051538 0.000000
# 6 0.000000 0.000000 0.000000 0.000000 0.000000 0.104325
#
#
# Mechanical properties :
#
#
# Convention : Reuss Voigt Hill
#
# Bulk Modulus (GPa) = 21.32843 24.31909 22.82376
# Shear Modulus (GPa) = 15.90370 18.96841 17.43606
#
# Velocity S-wave (km/s) = 2.84055 3.10219 2.97425
# Velocity P-wave (km/s) = 4.64535 5.01695 4.83472
#
# Compressibility (1/GPa) = 0.04688577
#
# Stress axis : x y z
#
# Youngs Moduli (GPa) = 74.55958 40.89267 52.85724
#
# Poissons Ratio (x) = -0.00269 0.22712
# Poissons Ratio (y) = -0.00491 0.03798
# Poissons Ratio (z) = 0.32038 0.02939
#
# Static dielectric constant tensor:
#      x y z
#    x 1.628800 0.000000 0.000000 
#    y 0.000000 1.712730 0.000000 
#    z 0.000000 0.000000 1.785530 
# 
# From -- ./inp_files/6311.got.cif
#   From: 2010.05.17/outbox.ucp.g08.bks.cvg/sg61_4_cif.got.tgz:6311.got - 2010.06.11 16:28:26.
