data_PCOD9461835
_publ_section_title
;
Structure prediction by ZEFSAII (Michael W. Deem and Ramdas Pophale) SiO2 
 PCOD9461835
Probable space group: P N M A
;
_chemical_formula_sum "Si O2"
_cell_formula_units_Z 64
_cell_length_a 24.490984
_cell_length_b 14.543334
_cell_length_c 9.642551
_cell_angle_alpha 90.000000
_cell_angle_beta 90.000000
_cell_angle_gamma 90.000000
_cell_volume 3434.489218
_symmetry_space_group_name_H-M "P N M A"
_symmetry_group_IT_number 62
_symmetry_cell_setting 'orthorhombic'
loop_
_space_group_symop_operation_xyz
x,y,z
1/2-x,-y,1/2+z
1/2+x,1/2-y,1/2-z
-x,1/2+y,-z
-x,-y,-z
1/2+x,y,1/2-z
1/2-x,1/2+y,1/2+z
x,1/2-y,z
loop_
_atom_site_type_symbol
_atom_site_label
_atom_site_fract_x
_atom_site_fract_y
_atom_site_fract_z
Si Si1 0.119585 0.358002 0.800368
Si Si2 0.343339 0.967403 0.566383
Si Si3 0.271204 0.857080 0.763811
Si Si4 0.133558 0.141361 0.485484
Si Si5 0.842308 0.357218 0.092246
Si Si6 0.010699 0.857658 0.184775
Si Si7 0.440691 0.966153 0.784229
Si Si8 0.535469 0.641358 0.638247
O O1 0.129002 0.250000 0.831794
O O2 0.141599 0.378244 0.647103
O O3 0.054084 0.371225 0.797645
O O4 0.145641 0.419207 0.919691
O O5 0.292192 0.922654 0.643119
O O6 0.395568 0.950013 0.664097
O O7 0.337134 0.075041 0.537383
O O8 0.277688 0.750000 0.722589
O O9 0.311642 0.871606 0.895184
O O10 0.209300 0.872495 0.809424
O O11 0.118107 0.250000 0.473234
O O12 0.086334 0.077980 0.419866
O O13 0.842947 0.250000 0.050960
O O14 0.900682 0.376810 0.162783
O O15 0.023176 0.750000 0.206846
O O16 0.044052 0.926420 0.282798
O O17 0.024536 0.881042 0.024119
O O18 0.495265 0.914466 0.735757
O O19 0.524679 0.750000 0.654463
#
# Coordination Sequence:
#
# PCOD9461835 Si02
#       8
#     8   8   8   8   8   8   8   8
#     4  10  20  34  53  82 114 143 180 232 285 330
#     4  11  20  33  60  85 105 142 188 231 274 325
#     4   9  20  38  57  80 108 139 183 234 276 324
#     4   9  20  36  54  78 110 144 179 229 293 338
#     4  10  21  36  54  82 116 148 183 229 280 333
#     4  10  19  30  49  79 115 147 184 228 273 330
#     4  11  19  32  54  83 111 142 188 231 272 330
#     4  10  18  30  52  83 114 148 186 226 276 337
#
# _framework density 18.634502999999999
#
# number of rings (size 3 to 8) (size 9 to 14) (size 15 to 20)
#    0.000    2.000    2.500    1.875    0.000    2.500 
#    0.000    0.000    0.000    1.500    0.000    0.000 
#    0.000    0.000    0.000    0.000    0.000    0.000 
#
# Total GULP energy -357361.787978 kJ/mol
# GULP energy per Si atom -5583.777937 kJ/mol
# Density = 1.859209 g / cm^3
# Si number density = 18.634503 Si / 1000 Ang^3
#
#
#
# Elastic Constant Matrix: (Units=GPa)
#
#
# Indices 1 2 3 4 5 6 
#
# 1 81.9290 41.4849 22.3026 0.0000 0.0000 0.0000
# 2 41.4849 56.1172 36.0163 0.0000 0.0000 0.0000
# 3 22.3026 36.0163 68.5084 0.0000 0.0000 0.0000
# 4 0.0000 0.0000 0.0000 20.8613 0.0000 0.0000
# 5 0.0000 0.0000 0.0000 0.0000 10.8013 0.0000
# 6 0.0000 0.0000 0.0000 0.0000 0.0000 20.9572
#
#
#
# Elastic Compliance Matrix: (Units=1/GPa)
#
#
# Indices 1 2 3 4 5 6 
#
# 1 0.019666 -0.015740 0.001873 0.000000 0.000000 0.000000
# 2 -0.015740 0.039492 -0.015638 0.000000 0.000000 0.000000
# 3 0.001873 -0.015638 0.022208 0.000000 0.000000 0.000000
# 4 0.000000 0.000000 0.000000 0.047936 0.000000 0.000000
# 5 0.000000 0.000000 0.000000 0.000000 0.092581 0.000000
# 6 0.000000 0.000000 0.000000 0.000000 0.000000 0.047716
#
#
# Mechanical properties :
#
#
# Convention : Reuss Voigt Hill
#
# Bulk Modulus (GPa) = 44.73052 45.12913 44.92983
# Shear Modulus (GPa) = 14.87823 17.64068 16.25946
#
# Velocity S-wave (km/s) = 2.82870 3.08013 2.95709
# Velocity P-wave (km/s) = 5.89279 6.07620 5.98520
#
# Compressibility (1/GPa) = 0.02235610
#
# Stress axis : x y z
#
# Youngs Moduli (GPa) = 50.84948 25.32151 45.02842
#
# Poissons Ratio (x) = 0.39856 -0.08433
# Poissons Ratio (y) = 0.80037 0.70414
# Poissons Ratio (z) = -0.09523 0.39597
#
# Static dielectric constant tensor:
#      x y z
#    x 1.636380 0.000000 0.000000 
#    y 0.000000 1.676800 0.000000 
#    z 0.000000 0.000000 1.616690 
# 
# From -- ./inp_files/9506.got.cif
#   From: 2010.05.17/outbox.cif.g08.bks.cpg/sg62_5_cif.got.tgz:9506.got - 2010.06.03 15:25:27.
