data_PCOD9461803
_publ_section_title
;
Structure prediction by ZEFSAII (Michael W. Deem and Ramdas Pophale) SiO2 
 PCOD9461803
Probable space group: P N M A
;
_chemical_formula_sum "Si O2"
_cell_formula_units_Z 64
_cell_length_a 19.705551
_cell_length_b 8.968366
_cell_length_c 23.803724
_cell_angle_alpha 90.000000
_cell_angle_beta 90.000000
_cell_angle_gamma 90.000000
_cell_volume 4206.751058
_symmetry_space_group_name_H-M "P N M A"
_symmetry_group_IT_number 62
_symmetry_cell_setting 'orthorhombic'
loop_
_space_group_symop_operation_xyz
x,y,z
1/2-x,-y,1/2+z
1/2+x,1/2-y,1/2-z
-x,1/2+y,-z
-x,-y,-z
1/2+x,y,1/2-z
1/2-x,1/2+y,1/2+z
x,1/2-y,z
loop_
_atom_site_type_symbol
_atom_site_label
_atom_site_fract_x
_atom_site_fract_y
_atom_site_fract_z
Si Si1 0.358407 0.428201 0.062095
Si Si2 0.498926 0.570343 0.243583
Si Si3 0.773861 0.572354 0.340660
Si Si4 0.851678 0.928240 0.223639
Si Si5 0.648499 0.570536 0.269097
Si Si6 0.271494 0.928423 0.834427
Si Si7 0.000460 0.070355 0.380060
Si Si8 0.359091 0.570544 0.940690
O O1 0.356321 0.250000 0.059338
O O2 0.303104 0.487174 0.106221
O O3 0.432458 0.472598 0.086532
O O4 0.349039 0.496261 0.000686
O O5 0.496128 0.750000 0.237996
O O6 0.430043 0.524463 0.275045
O O7 0.569535 0.531445 0.273872
O O8 0.500091 0.501641 0.181402
O O9 0.776290 0.750000 0.351138
O O10 0.820892 0.542320 0.285904
O O11 0.698071 0.530539 0.320527
O O12 0.847234 0.750000 0.214789
O O13 0.802797 0.009142 0.179741
O O14 0.654161 0.750000 0.262205
O O15 0.679193 0.495434 0.213413
O O16 0.272044 0.750000 0.829835
O O17 0.301860 0.969756 0.894936
O O18 0.001130 0.250000 0.373880
O O19 0.068054 0.027245 0.414066
O O20 0.359066 0.750000 0.946982
#
# Coordination Sequence:
#
# PCOD9461803 Si02
#       8
#     8   8   8   8   8   8   8   8
#     4  11  22  32  47  69  92 125 167 202 233 273
#     4  10  18  30  50  73  96 128 161 191 233 283
#     4   9  17  31  47  66  94 125 154 191 237 280
#     4   9  18  31  48  70  96 125 157 193 236 283
#     4   9  18  31  49  71  95 123 158 195 235 283
#     4  10  19  31  48  69  93 125 159 195 239 281
#     4  10  20  33  45  66  98 128 162 199 231 272
#     4  10  21  35  48  64  93 130 164 197 238 281
#
# _framework density 15.213641000000001
#
# number of rings (size 3 to 8) (size 9 to 14) (size 15 to 20)
#    0.000    2.250    2.500    1.875    0.000    4.500 
#    0.000    0.000    0.000    0.000    0.000    0.875 
#    0.000    0.000    0.000    0.000    0.000    0.000 
#
# Total GULP energy -356920.847915 kJ/mol
# GULP energy per Si atom -5576.888249 kJ/mol
# Density = 1.517901 g / cm^3
# Si number density = 15.213641 Si / 1000 Ang^3
#
#
#
# Elastic Constant Matrix: (Units=GPa)
#
#
# Indices 1 2 3 4 5 6 
#
# 1 152.0300 40.6068 79.8094 0.0000 0.0000 0.0000
# 2 40.6068 20.6954 38.0702 0.0000 0.0000 0.0000
# 3 79.8094 38.0702 104.9046 0.0000 0.0000 0.0000
# 4 0.0000 0.0000 0.0000 24.8520 0.0000 0.0000
# 5 0.0000 0.0000 0.0000 0.0000 19.3341 0.0000
# 6 0.0000 0.0000 0.0000 0.0000 0.0000 20.1493
#
#
#
# Elastic Compliance Matrix: (Units=1/GPa)
#
#
# Indices 1 2 3 4 5 6 
#
# 1 0.013965 -0.023636 -0.002047 0.000000 0.000000 0.000000
# 2 -0.023636 0.185361 -0.049286 0.000000 0.000000 0.000000
# 3 -0.002047 -0.049286 0.028976 0.000000 0.000000 0.000000
# 4 0.000000 0.000000 0.000000 0.040238 0.000000 0.000000
# 5 0.000000 0.000000 0.000000 0.000000 0.051722 0.000000
# 6 0.000000 0.000000 0.000000 0.000000 0.000000 0.049630
#
#
# Mechanical properties :
#
#
# Convention : Reuss Voigt Hill
#
# Bulk Modulus (GPa) = 12.76100 66.06699 39.41400
# Shear Modulus (GPa) = 9.15831 20.80997 14.98414
#
# Velocity S-wave (km/s) = 2.45619 3.70246 3.14174
# Velocity P-wave (km/s) = 4.05585 7.86117 6.25492
#
# Compressibility (1/GPa) = 0.07836376
#
# Stress axis : x y z
#
# Youngs Moduli (GPa) = 71.60543 5.39487 34.51165
#
# Poissons Ratio (x) = 0.12752 0.07064
# Poissons Ratio (y) = 1.69250 1.70094
# Poissons Ratio (z) = 0.14657 0.26589
#
# Static dielectric constant tensor:
#      x y z
#    x 1.528390 0.000000 0.000000 
#    y 0.000000 1.507670 0.000000 
#    z 0.000000 0.000000 1.465040 
# 
# From -- ./inp_files/27893.got.cif
#   From: 2010.05.17/outbox.cif.g08.bks.cpg/sg62_14_cif.got.tgz:27893.got - 2010.06.03 15:25:27.
