data_PCOD9461927
_publ_section_title
;
Structure prediction by ZEFSAII (Michael W. Deem and Ramdas Pophale) SiO2 
 PCOD9461927
Probable space group: P N M A
;
_chemical_formula_sum "Si O2"
_cell_formula_units_Z 64
_cell_length_a 34.743036
_cell_length_b 8.901468
_cell_length_c 12.245984
_cell_angle_alpha 90.000000
_cell_angle_beta 90.000000
_cell_angle_gamma 90.000000
_cell_volume 3787.242280
_symmetry_space_group_name_H-M "P N M A"
_symmetry_group_IT_number 62
_symmetry_cell_setting 'orthorhombic'
loop_
_space_group_symop_operation_xyz
x,y,z
1/2-x,-y,1/2+z
1/2+x,1/2-y,1/2-z
-x,1/2+y,-z
-x,-y,-z
1/2+x,y,1/2-z
1/2-x,1/2+y,1/2+z
x,1/2-y,z
loop_
_atom_site_type_symbol
_atom_site_label
_atom_site_fract_x
_atom_site_fract_y
_atom_site_fract_z
Si Si1 0.888498 0.429829 0.738485
Si Si2 0.173982 0.068684 0.112449
Si Si3 0.313663 0.568720 0.363174
Si Si4 0.952177 0.070719 0.389662
Si Si5 0.663190 0.070008 0.050521
Si Si6 0.872354 0.930608 0.319845
Si Si7 0.766682 0.929875 0.697992
Si Si8 0.032326 0.569466 0.357432
O O1 0.886315 0.250000 0.743886
O O2 0.865166 0.501565 0.838168
O O3 0.866343 0.486242 0.630181
O O4 0.933104 0.473226 0.723543
O O5 0.171350 0.250000 0.115960
O O6 0.208542 0.025491 0.195168
O O7 0.181764 0.020540 0.988820
O O8 0.312372 0.750000 0.361465
O O9 0.349483 0.521145 0.287964
O O10 0.274073 0.507921 0.313652
O O11 0.951345 0.250000 0.382712
O O12 0.954462 0.029250 0.518782
O O13 0.913883 0.003101 0.337412
O O14 0.991452 0.007566 0.337993
O O15 0.658094 0.250000 0.065431
O O16 0.705779 0.033749 0.094487
O O17 0.653733 0.032782 0.926021
O O18 0.876838 0.750000 0.317322
O O19 0.761521 0.750000 0.701415
O O20 0.027657 0.750000 0.354530
#
# Coordination Sequence:
#
# PCOD9461927 Si02
#       8
#     8   8   8   8   8   8   8   8
#     4  10  18  31  53  79 103 131 170 212 253 300
#     4   9  20  38  53  72 104 137 172 213 259 308
#     4  10  22  37  54  75 100 138 179 213 256 311
#     4  10  19  31  49  76 109 139 170 208 255 311
#     4   9  18  32  50  73 104 137 168 206 258 311
#     4  10  20  34  52  74 104 142 175 210 258 310
#     4   9  19  34  52  74 101 133 169 217 263 301
#     4   9  18  31  48  76 109 137 166 206 255 308
#
# _framework density 16.898841000000001
#
# number of rings (size 3 to 8) (size 9 to 14) (size 15 to 20)
#    0.000    2.500    1.250    1.500    1.750    4.500 
#    0.000    0.000    0.000    0.750    0.000    0.000 
#    0.000    0.000    0.000    0.000    0.000    0.000 
#
# Total GULP energy -356914.647097 kJ/mol
# GULP energy per Si atom -5576.791361 kJ/mol
# Density = 1.686038 g / cm^3
# Si number density = 16.898841 Si / 1000 Ang^3
#
#
#
# Elastic Constant Matrix: (Units=GPa)
#
#
# Indices 1 2 3 4 5 6 
#
# 1 157.5149 37.9514 73.9761 0.0000 0.0000 0.0000
# 2 37.9514 13.9931 28.1658 0.0000 0.0000 0.0000
# 3 73.9761 28.1658 103.1353 0.0000 0.0000 0.0000
# 4 0.0000 0.0000 0.0000 14.7729 0.0000 0.0000
# 5 0.0000 0.0000 0.0000 0.0000 19.4915 0.0000
# 6 0.0000 0.0000 0.0000 0.0000 0.0000 32.8925
#
#
#
# Elastic Compliance Matrix: (Units=1/GPa)
#
#
# Indices 1 2 3 4 5 6 
#
# 1 0.018362 -0.051722 0.000954 0.000000 0.000000 0.000000
# 2 -0.051722 0.304387 -0.046028 0.000000 0.000000 0.000000
# 3 0.000954 -0.046028 0.021582 0.000000 0.000000 0.000000
# 4 0.000000 0.000000 0.000000 0.067692 0.000000 0.000000
# 5 0.000000 0.000000 0.000000 0.000000 0.051304 0.000000
# 6 0.000000 0.000000 0.000000 0.000000 0.000000 0.030402
#
#
# Mechanical properties :
#
#
# Convention : Reuss Voigt Hill
#
# Bulk Modulus (GPa) = 6.63396 61.64777 34.14086
# Shear Modulus (GPa) = 6.77905 22.40139 14.59022
#
# Velocity S-wave (km/s) = 2.00506 3.64485 2.94153
# Velocity P-wave (km/s) = 3.04870 7.36702 5.63771
#
# Compressibility (1/GPa) = 0.15073961
#
# Stress axis : x y z
#
# Youngs Moduli (GPa) = 54.45993 3.28529 46.33565
#
# Poissons Ratio (x) = 0.16992 -0.04422
# Poissons Ratio (y) = 2.81675 2.13275
# Poissons Ratio (z) = -0.05197 0.15122
#
# Static dielectric constant tensor:
#      x y z
#    x 1.555810 0.000000 0.000000 
#    y 0.000000 1.563970 0.000000 
#    z 0.000000 0.000000 1.568070 
# 
# From -- ./inp_files/15862.got.cif
#   From: 2010.05.17/outbox.cif.g08.bks.cpg/sg62_8_cif.got.tgz:15862.got - 2010.06.03 15:25:27.
