data_PCOD9461519
_publ_section_title
;
Structure prediction by ZEFSAII (Michael W. Deem and Ramdas Pophale) SiO2 
 PCOD9461519
Probable space group: P N M A
;
_chemical_formula_sum "Si O2"
_cell_formula_units_Z 64
_cell_length_a 16.122381
_cell_length_b 7.526526
_cell_length_c 24.140036
_cell_angle_alpha 90.000000
_cell_angle_beta 90.000000
_cell_angle_gamma 90.000000
_cell_volume 2929.285216
_symmetry_space_group_name_H-M "P N M A"
_symmetry_group_IT_number 62
_symmetry_cell_setting 'orthorhombic'
loop_
_space_group_symop_operation_xyz
x,y,z
1/2-x,-y,1/2+z
1/2+x,1/2-y,1/2-z
-x,1/2+y,-z
-x,-y,-z
1/2+x,y,1/2-z
1/2-x,1/2+y,1/2+z
x,1/2-y,z
loop_
_atom_site_type_symbol
_atom_site_label
_atom_site_fract_x
_atom_site_fract_y
_atom_site_fract_z
Si Si1 0.744934 0.534960 0.947684
Si Si2 0.350575 0.043653 0.747865
Si Si3 0.657192 0.535348 0.753069
Si Si4 0.409402 0.956090 0.866818
Si Si5 0.101435 0.456239 0.123963
Si Si6 0.407313 0.032088 0.126659
Si Si7 0.755689 0.039856 0.076854
Si Si8 0.919635 0.467961 0.138677
O O1 0.744687 0.750000 0.944477
O O2 0.823914 0.467401 0.912572
O O3 0.659875 0.475278 0.918592
O O4 0.751226 0.483380 0.011369
O O5 0.371645 0.250000 0.745884
O O6 0.251878 0.022236 0.756187
O O7 0.396999 0.962796 0.800629
O O8 0.373896 0.963373 0.688596
O O9 0.658301 0.750000 0.753480
O O10 0.624360 0.475990 0.812637
O O11 0.599971 0.479256 0.701891
O O12 0.411835 0.750000 0.884104
O O13 0.498963 0.031748 0.882388
O O14 0.327159 0.036305 0.894574
O O15 0.095550 0.250000 0.107541
O O16 0.009195 0.532887 0.118742
O O17 0.408745 0.250000 0.127204
O O18 0.756480 0.250000 0.090251
O O19 0.841855 0.971185 0.102000
O O20 0.922448 0.250000 0.137925
#
# Coordination Sequence:
#
# PCOD9461519 Si02
#       8
#     8   8   8   8   8   8   8   8
#     4  10  21  37  57  82 111 146 189 232 274 323
#     4  12  23  34  54  87 121 146 174 224 285 335
#     4  10  17  34  60  83 109 144 184 224 269 331
#     4  10  20  38  62  82 107 148 191 227 269 329
#     4  10  20  38  62  82 107 148 191 227 269 329
#     4   9  18  34  60  87 106 139 191 232 265 323
#     4  10  21  37  57  82 111 146 189 232 274 323
#     4   9  18  34  60  87 106 139 191 232 265 323
#
# _framework density 21.848333
#
# number of rings (size 3 to 8) (size 9 to 14) (size 15 to 20)
#    0.000    2.000    2.500    1.875    0.000    4.000 
#    0.000    3.750    0.000    0.000    0.000    0.000 
#    0.000    0.000    0.000    0.000    0.000    0.000 
#
# Total GULP energy -357649.542781 kJ/mol
# GULP energy per Si atom -5588.274106 kJ/mol
# Density = 2.179861 g / cm^3
# Si number density = 21.848333 Si / 1000 Ang^3
#
#
#
# Elastic Constant Matrix: (Units=GPa)
#
#
# Indices 1 2 3 4 5 6 
#
# 1 118.9955 0.7850 17.7437 0.0000 0.0000 0.0000
# 2 0.7850 56.2964 -17.5210 0.0000 0.0000 0.0000
# 3 17.7437 -17.5210 84.9502 0.0000 0.0000 0.0000
# 4 0.0000 0.0000 0.0000 -1.3886 0.0000 0.0000
# 5 0.0000 0.0000 0.0000 0.0000 3.5308 0.0000
# 6 0.0000 0.0000 0.0000 0.0000 0.0000 -8.1446
#
#
#
# Elastic Compliance Matrix: (Units=1/GPa)
#
#
# Indices 1 2 3 4 5 6 
#
# 1 0.008702 -0.000734 -0.001969 0.000000 0.000000 0.000000
# 2 -0.000734 0.019044 0.004081 0.000000 0.000000 0.000000
# 3 -0.001969 0.004081 0.013025 0.000000 0.000000 0.000000
# 4 0.000000 0.000000 0.000000 -0.720152 0.000000 0.000000
# 5 0.000000 0.000000 0.000000 0.000000 0.283218 0.000000
# 6 0.000000 0.000000 0.000000 0.000000 0.000000 -0.122781
#
#
# Mechanical properties :
#
#
# Convention : Reuss Voigt Hill
#
# Bulk Modulus (GPa) = 22.97480 29.13973 26.05727
# Shear Modulus (GPa) = -9.85820 16.08183 3.11181
#
# Velocity S-wave (km/s) = -2.12648 2.71600 1.19473
# Velocity P-wave (km/s) = 2.12349 4.81682 3.72230
#
# Compressibility (1/GPa) = 0.04352595
#
# Stress axis : x y z
#
# Youngs Moduli (GPa) = 114.91438 52.51132 76.77777
#
# Poissons Ratio (x) = 0.03855 0.15118
# Poissons Ratio (y) = 0.08437 -0.31334
# Poissons Ratio (z) = 0.22627 -0.21430
#
# Static dielectric constant tensor:
#      x y z
#    x 1.805360 0.000000 0.000000 
#    y 0.000000 1.815990 0.000000 
#    z 0.000000 0.000000 1.732790 
# 
# From -- ./inp_files/29877.got.cif
#   From: 2010.05.17/outbox.cif.g08.bks.cpg/sg62_15_cif.got.tgz:29877.got - 2010.06.03 15:25:27.
