data_PCOD9461244
_publ_section_title
;
Structure prediction by ZEFSAII (Michael W. Deem and Ramdas Pophale) SiO2 
 PCOD9461244
Probable space group: P B C A
;
_chemical_formula_sum "Si O2"
_cell_formula_units_Z 32
_cell_length_a 13.625503
_cell_length_b 9.173223
_cell_length_c 9.886206
_cell_angle_alpha 90.000000
_cell_angle_beta 90.000000
_cell_angle_gamma 90.000000
_cell_volume 1235.674688
_symmetry_space_group_name_H-M "P B C A"
_symmetry_group_IT_number 61
_symmetry_cell_setting 'orthorhombic'
loop_
_space_group_symop_operation_xyz
x,y,z
1/2-x,-y,1/2+z
1/2+x,1/2-y,-z
-x,1/2+y,1/2-z
-x,-y,-z
1/2+x,y,1/2-z
1/2-x,1/2+y,z
x,1/2-y,1/2+z
loop_
_atom_site_type_symbol
_atom_site_label
_atom_site_fract_x
_atom_site_fract_y
_atom_site_fract_z
Si Si1 0.922009 0.130765 0.798203
Si Si2 0.294472 0.608234 0.600607
Si Si3 0.377761 0.715010 0.865930
Si Si4 0.594515 0.922011 0.717809
O O1 0.818349 0.101771 0.861523
O O2 0.903298 0.253405 0.683694
O O3 0.004919 0.216156 0.886402
O O4 0.984849 0.988188 0.762675
O O5 0.346914 0.720191 0.708479
O O6 0.321577 0.671752 0.456228
O O7 0.345861 0.456620 0.644168
O O8 0.357682 0.539857 0.886007
#
# Coordination Sequence:
#
# PCOD9461244 Si02
#       4
#     8   8   8   8
#     4   9  19  40  63  87 134 162 207 272 303 375
#     4   9  19  38  58  90 127 164 203 258 314 368
#     4   8  21  37  58  95 117 164 218 241 319 380
#     4   8  21  37  59  95 116 169 210 253 314 374
#
# _framework density 25.896782999999999
#
# number of rings (size 3 to 8) (size 9 to 14) (size 15 to 20)
#    3.000    0.000    0.000    0.000    0.000    9.000 
#    4.500    5.000    0.000    0.000    0.000    0.000 
#    0.000    0.000    0.000    0.000    0.000    0.000 
#
# Total GULP energy -178190.777315 kJ/mol
# GULP energy per Si atom -5568.461791 kJ/mol
# Density = 2.583784 g / cm^3
# Si number density = 25.896783 Si / 1000 Ang^3
#
#
#
# Elastic Constant Matrix: (Units=GPa)
#
#
# Indices 1 2 3 4 5 6 
#
# 1 96.4606 18.1343 -30.3915 0.0000 0.0000 0.0000
# 2 18.1343 80.8175 5.3263 0.0000 0.0000 0.0000
# 3 -30.3915 5.3263 24.8638 0.0000 0.0000 0.0000
# 4 0.0000 0.0000 0.0000 31.6329 0.0000 0.0000
# 5 0.0000 0.0000 0.0000 0.0000 14.8595 0.0000
# 6 0.0000 0.0000 0.0000 0.0000 0.0000 27.3938
#
#
#
# Elastic Compliance Matrix: (Units=1/GPa)
#
#
# Indices 1 2 3 4 5 6 
#
# 1 0.019346 -0.005984 0.024929 0.000000 0.000000 0.000000
# 2 -0.005984 0.014402 -0.010399 0.000000 0.000000 0.000000
# 3 0.024929 -0.010399 0.072918 0.000000 0.000000 0.000000
# 4 0.000000 0.000000 0.000000 0.031613 0.000000 0.000000
# 5 0.000000 0.000000 0.000000 0.000000 0.067297 0.000000
# 6 0.000000 0.000000 0.000000 0.000000 0.000000 0.036505
#
#
# Mechanical properties :
#
#
# Convention : Reuss Voigt Hill
#
# Bulk Modulus (GPa) = 8.08030 20.91999 14.50015
# Shear Modulus (GPa) = 18.77994 28.71542 23.74768
#
# Velocity S-wave (km/s) = 2.69585 3.33354 3.03151
# Velocity P-wave (km/s) = 3.58010 4.78669 4.22667
#
# Compressibility (1/GPa) = 0.12375771
#
# Stress axis : x y z
#
# Youngs Moduli (GPa) = 51.68962 69.43649 13.71399
#
# Poissons Ratio (x) = 0.41551 -0.34188
# Poissons Ratio (y) = 0.30931 0.14262
# Poissons Ratio (z) = -1.28858 0.72210
#
# Static dielectric constant tensor:
#      x y z
#    x 2.076300 0.000000 0.000000 
#    y 0.000000 2.111970 0.000000 
#    z 0.000000 0.000000 2.123440 
# 
# From -- ./inp_files/5011.got.cif
#   From: 2010.05.17/outbox.cif.g08.bks.cpg/sg61_3_cif.got.tgz:5011.got - 2010.06.03 15:17:17.
