data_PCOD9461500
_publ_section_title
;
Structure prediction by ZEFSAII (Michael W. Deem and Ramdas Pophale) SiO2 
 PCOD9461500
Probable space group: P N M A
;
_chemical_formula_sum "Si O2"
_cell_formula_units_Z 32
_cell_length_a 25.881173
_cell_length_b 5.422947
_cell_length_c 10.198608
_cell_angle_alpha 90.000000
_cell_angle_beta 90.000000
_cell_angle_gamma 90.000000
_cell_volume 1431.397370
_symmetry_space_group_name_H-M "P N M A"
_symmetry_group_IT_number 62
_symmetry_cell_setting 'orthorhombic'
loop_
_space_group_symop_operation_xyz
x,y,z
1/2-x,-y,1/2+z
1/2+x,1/2-y,1/2-z
-x,1/2+y,-z
-x,-y,-z
1/2+x,y,1/2-z
1/2-x,1/2+y,1/2+z
x,1/2-y,z
loop_
_atom_site_type_symbol
_atom_site_label
_atom_site_fract_x
_atom_site_fract_y
_atom_site_fract_z
Si Si1 0.988752 0.750000 0.806750
Si Si2 0.613123 0.750000 0.489173
Si Si3 0.612958 0.250000 0.138602
Si Si4 0.667033 0.750000 0.235891
Si Si5 0.349784 0.750000 0.400732
Si Si6 0.762157 0.250000 0.500941
Si Si7 0.317216 0.750000 0.100582
Si Si8 0.495354 0.750000 0.385557
O O1 0.944318 0.750000 0.698597
O O2 0.017578 0.491558 0.803054
O O3 0.974383 0.750000 0.964756
O O4 0.661850 0.750000 0.390548
O O5 0.619356 0.499795 0.569462
O O6 0.558607 0.750000 0.409234
O O7 0.638256 0.499706 0.193740
O O8 0.630122 0.250000 0.987054
O O9 0.719356 0.750000 0.153535
O O10 0.299339 0.750000 0.494637
O O11 0.331747 0.750000 0.251518
O O12 0.785785 0.499505 0.437227
#
# Coordination Sequence:
#
# PCOD9461500 Si02
#       8
#     4   4   4   4   4   4   4   4
#     4  10  17  32  55  87 111 147 171 228 280 323
#     4  12  22  38  55  85 115 150 177 229 282 335
#     4  10  17  35  60  79 111 142 178 227 272 325
#     4  10  20  34  56  83 106 139 181 225 279 327
#     4  12  26  37  57  77 110 153 181 225 280 327
#     4  10  23  39  59  76 106 142 185 244 266 320
#     4  10  23  42  55  82 108 144 193 226 273 333
#     4  10  20  31  53  83 123 135 180 224 276 342
#
# _framework density 22.355778000000001
#
# number of rings (size 3 to 8) (size 9 to 14) (size 15 to 20)
#    0.000    1.500    2.500    3.000    3.500    0.000 
#    0.000    0.000    0.000    1.500    0.000    0.000 
#    0.000    0.000    0.000    0.000    0.000    0.000 
#
# Total GULP energy -178629.886528 kJ/mol
# GULP energy per Si atom -5582.183954 kJ/mol
# Density = 2.230490 g / cm^3
# Si number density = 22.355778 Si / 1000 Ang^3
#
#
#
# Elastic Constant Matrix: (Units=GPa)
#
#
# Indices 1 2 3 4 5 6 
#
# 1 77.0781 30.3770 26.7118 0.0000 0.0000 0.0000
# 2 30.3770 218.0797 42.9482 0.0000 0.0000 0.0000
# 3 26.7118 42.9482 80.1818 0.0000 0.0000 0.0000
# 4 0.0000 0.0000 0.0000 21.8587 0.0000 0.0000
# 5 0.0000 0.0000 0.0000 0.0000 22.6059 0.0000
# 6 0.0000 0.0000 0.0000 0.0000 0.0000 17.9635
#
#
#
# Elastic Compliance Matrix: (Units=1/GPa)
#
#
# Indices 1 2 3 4 5 6 
#
# 1 0.014958 -0.001232 -0.004323 0.000000 0.000000 0.000000
# 2 -0.001232 0.005228 -0.002390 0.000000 0.000000 0.000000
# 3 -0.004323 -0.002390 0.015192 0.000000 0.000000 0.000000
# 4 0.000000 0.000000 0.000000 0.045748 0.000000 0.000000
# 5 0.000000 0.000000 0.000000 0.000000 0.044236 0.000000
# 6 0.000000 0.000000 0.000000 0.000000 0.000000 0.055668
#
#
# Mechanical properties :
#
#
# Convention : Reuss Voigt Hill
#
# Bulk Modulus (GPa) = 51.31491 63.93484 57.62488
# Shear Modulus (GPa) = 24.58020 30.83912 27.70966
#
# Velocity S-wave (km/s) = 3.31947 3.71815 3.52445
# Velocity P-wave (km/s) = 6.13966 6.86249 6.51111
#
# Compressibility (1/GPa) = 0.01948751
#
# Stress axis : x y z
#
# Youngs Moduli (GPa) = 66.85563 191.28783 65.82486
#
# Poissons Ratio (x) = 0.23569 0.28456
# Poissons Ratio (y) = 0.08237 0.15730
# Poissons Ratio (z) = 0.28902 0.45712
#
# Static dielectric constant tensor:
#      x y z
#    x 1.863180 0.000000 0.000000 
#    y 0.000000 1.873980 0.000000 
#    z 0.000000 0.000000 1.792820 
# 
# From -- ./inp_files/9980.got.cif
#   From: 2010.05.17/outbox.cif.g08.bks.cpg/sg62_5_cif.got.tgz:9980.got - 2010.06.03 15:25:27.
