data_PCOD9461892
_publ_section_title
;
Structure prediction by ZEFSAII (Michael W. Deem and Ramdas Pophale) SiO2 
 PCOD9461892
Probable space group: P N M A
;
_chemical_formula_sum "Si O2"
_cell_formula_units_Z 56
_cell_length_a 13.097677
_cell_length_b 13.395547
_cell_length_c 17.535085
_cell_angle_alpha 90.000000
_cell_angle_beta 90.000000
_cell_angle_gamma 90.000000
_cell_volume 3076.540270
_symmetry_space_group_name_H-M "P N M A"
_symmetry_group_IT_number 62
_symmetry_cell_setting 'orthorhombic'
loop_
_space_group_symop_operation_xyz
x,y,z
1/2-x,-y,1/2+z
1/2+x,1/2-y,1/2-z
-x,1/2+y,-z
-x,-y,-z
1/2+x,y,1/2-z
1/2-x,1/2+y,1/2+z
x,1/2-y,z
loop_
_atom_site_type_symbol
_atom_site_label
_atom_site_fract_x
_atom_site_fract_y
_atom_site_fract_z
Si Si1 0.337378 0.019785 0.768491
Si Si2 0.674545 0.857133 0.712782
Si Si3 0.497527 0.635700 0.830973
Si Si4 0.878999 0.497029 0.900938
Si Si5 0.314439 0.133896 0.063258
Si Si6 0.395767 0.056754 0.435666
Si Si7 0.762447 0.863988 0.101033
O O1 0.240250 0.947925 0.756765
O O2 0.413847 0.948389 0.816133
O O3 0.379907 0.045914 0.684761
O O4 0.297783 0.108237 0.822135
O O5 0.722181 0.750000 0.730787
O O6 0.565896 0.860816 0.754366
O O7 0.660246 0.870795 0.622807
O O8 0.459918 0.750000 0.844538
O O9 0.578191 0.608415 0.897435
O O10 0.780248 0.567701 0.908816
O O11 0.984239 0.556350 0.916749
O O12 0.875754 0.425006 0.975053
O O13 0.295404 0.250000 0.083211
O O14 0.312508 0.126183 0.971786
O O15 0.350521 0.946344 0.414588
O O16 0.800522 0.750000 0.102632
#
# Coordination Sequence:
#
# PCOD9461892 Si02
#       7
#     8   8   8   8   8   8   8
#     4  11  20  32  54  78 107 135 170 219 262 306
#     4  10  19  32  50  76 107 135 164 205 264 319
#     4  10  19  30  50  81 108 133 165 208 261 317
#     4  10  18  31  51  77 105 135 172 210 263 308
#     4   9  18  33  53  76 104 139 179 213 252 313
#     4   9  19  34  52  76 105 137 170 215 257 312
#     4   9  20  38  55  71  98 142 187 220 252 297
#
# _framework density 18.202262999999999
#
# number of rings (size 3 to 8) (size 9 to 14) (size 15 to 20)
#    0.000    2.286    2.857    0.429    0.000    1.714 
#    0.000    3.571    0.000    0.000    0.000    0.000 
#    0.000    0.000    0.000    0.000    0.000    0.000 
#
# Total GULP energy -311832.018243 kJ/mol
# GULP energy per Si atom -5568.428897 kJ/mol
# Density = 1.816083 g / cm^3
# Si number density = 18.202263 Si / 1000 Ang^3
#
#
#
# Elastic Constant Matrix: (Units=GPa)
#
#
# Indices 1 2 3 4 5 6 
#
# 1 32.0599 -0.5897 2.4334 0.0000 0.0000 0.0000
# 2 -0.5897 43.6164 8.0062 0.0000 0.0000 0.0000
# 3 2.4334 8.0062 116.6412 0.0000 0.0000 0.0000
# 4 0.0000 0.0000 0.0000 1.8033 0.0000 0.0000
# 5 0.0000 0.0000 0.0000 0.0000 29.1134 0.0000
# 6 0.0000 0.0000 0.0000 0.0000 0.0000 -28.4355
#
#
#
# Elastic Compliance Matrix: (Units=1/GPa)
#
#
# Indices 1 2 3 4 5 6 
#
# 1 0.031254 0.000549 -0.000690 0.000000 0.000000 0.000000
# 2 0.000549 0.023229 -0.001606 0.000000 0.000000 0.000000
# 3 -0.000690 -0.001606 0.008698 0.000000 0.000000 0.000000
# 4 0.000000 0.000000 0.000000 0.554539 0.000000 0.000000
# 5 0.000000 0.000000 0.000000 0.000000 0.034349 0.000000
# 6 0.000000 0.000000 0.000000 0.000000 0.000000 -0.035167
#
#
# Mechanical properties :
#
#
# Convention : Reuss Voigt Hill
#
# Bulk Modulus (GPa) = 16.75370 23.55750 20.15560
# Shear Modulus (GPa) = 7.80895 12.66075 10.23485
#
# Velocity S-wave (km/s) = 2.07350 2.64021 2.37383
# Velocity P-wave (km/s) = 3.86739 4.71852 4.31400
#
# Compressibility (1/GPa) = 0.05968831
#
# Stress axis : x y z
#
# Youngs Moduli (GPa) = 31.99585 43.04901 114.97008
#
# Poissons Ratio (x) = -0.02364 0.07930
# Poissons Ratio (y) = -0.01757 0.18463
# Poissons Ratio (z) = 0.02207 0.06913
#
# Static dielectric constant tensor:
#      x y z
#    x 1.621110 0.000000 0.000000 
#    y 0.000000 1.606390 0.000000 
#    z 0.000000 0.000000 1.684450 
# 
# From -- ./inp_files/24082.got.cif
#   From: 2010.05.17/outbox.cif.g08.bks.cpg/sg62_13_cif.got.tgz:24082.got - 2010.06.03 15:25:27.
