data_PCOD9461504
_publ_section_title
;
Structure prediction by ZEFSAII (Michael W. Deem and Ramdas Pophale) SiO2 
 PCOD9461504
Probable space group: P N M A
;
_chemical_formula_sum "Si O2"
_cell_formula_units_Z 52
_cell_length_a 13.092393
_cell_length_b 15.191501
_cell_length_c 10.514843
_cell_angle_alpha 90.000000
_cell_angle_beta 90.000000
_cell_angle_gamma 90.000000
_cell_volume 2091.329734
_symmetry_space_group_name_H-M "P N M A"
_symmetry_group_IT_number 62
_symmetry_cell_setting 'orthorhombic'
loop_
_space_group_symop_operation_xyz
x,y,z
1/2-x,-y,1/2+z
1/2+x,1/2-y,1/2-z
-x,1/2+y,-z
-x,-y,-z
1/2+x,y,1/2-z
1/2-x,1/2+y,1/2+z
x,1/2-y,z
loop_
_atom_site_type_symbol
_atom_site_label
_atom_site_fract_x
_atom_site_fract_y
_atom_site_fract_z
Si Si1 0.065861 0.356919 0.196296
Si Si2 0.886565 0.347793 0.360913
Si Si3 0.836419 0.250000 0.961333
Si Si4 0.037649 0.403846 0.559865
Si Si5 0.528884 0.750000 0.230165
Si Si6 0.259987 0.750000 0.301869
Si Si7 0.767393 0.905017 0.586368
Si Si8 0.695227 0.089529 0.526357
O O1 0.062896 0.250000 0.184441
O O2 0.156725 0.380376 0.297654
O O3 0.098430 0.402471 0.065513
O O4 0.955467 0.388590 0.248199
O O5 0.850577 0.250000 0.325839
O O6 0.792526 0.394094 0.430865
O O7 0.977431 0.341797 0.462775
O O8 0.940399 0.250000 0.879901
O O9 0.748950 0.250000 0.849864
O O10 0.815303 0.166909 0.048850
O O11 0.156577 0.408653 0.534093
O O12 0.000000 0.500000 0.500000
O O13 0.017420 0.345598 0.687806
O O14 0.640222 0.750000 0.164376
O O15 0.305787 0.666151 0.370423
O O16 0.716569 0.999344 0.598203
#
# Coordination Sequence:
#
# PCOD9461504 Si02
#       8
#     8   8   4   8   4   4   8   8
#     4  10  22  35  59  85 113 154 192 233 296 346
#     4  10  17  33  54  82 111 142 188 242 284 336
#     4  10  23  38  53  81 122 157 187 231 295 365
#     4  11  17  31  56  85 110 142 192 251 294 334
#     4  10  19  33  57  82 116 148 183 231 304 352
#     4  10  20  35  58  83 114 151 190 222 297 353
#     4  11  23  35  57  85 119 145 193 242 296 349
#     4  12  20  37  59  87 116 151 187 247 293 348
#
# _framework density 24.864561999999999
#
# number of rings (size 3 to 8) (size 9 to 14) (size 15 to 20)
#    0.462    0.923    6.154    0.462    2.154    1.231 
#    0.000    0.000    0.000    4.615    0.000    0.000 
#    0.000    0.000    0.000    0.000    0.000    0.000 
#
# Total GULP energy -289935.414123 kJ/mol
# GULP energy per Si atom -5575.681041 kJ/mol
# Density = 2.480797 g / cm^3
# Si number density = 24.864562 Si / 1000 Ang^3
#
#
#
# Elastic Constant Matrix: (Units=GPa)
#
#
# Indices 1 2 3 4 5 6 
#
# 1 56.2337 33.2926 50.2275 0.0000 0.0000 0.0000
# 2 33.2926 168.7099 34.4864 0.0000 0.0000 0.0000
# 3 50.2275 34.4864 92.1165 0.0000 0.0000 0.0000
# 4 0.0000 0.0000 0.0000 7.4578 0.0000 0.0000
# 5 0.0000 0.0000 0.0000 0.0000 58.2184 0.0000
# 6 0.0000 0.0000 0.0000 0.0000 0.0000 17.1066
#
#
#
# Elastic Compliance Matrix: (Units=1/GPa)
#
#
# Indices 1 2 3 4 5 6 
#
# 1 0.036365 -0.003382 -0.018562 0.000000 0.000000 0.000000
# 2 -0.003382 0.006733 -0.000677 0.000000 0.000000 0.000000
# 3 -0.018562 -0.000677 0.021230 0.000000 0.000000 0.000000
# 4 0.000000 0.000000 0.000000 0.134088 0.000000 0.000000
# 5 0.000000 0.000000 0.000000 0.000000 0.017177 0.000000
# 6 0.000000 0.000000 0.000000 0.000000 0.000000 0.058457
#
#
# Mechanical properties :
#
#
# Convention : Reuss Voigt Hill
#
# Bulk Modulus (GPa) = 52.39240 61.45258 56.92249
# Shear Modulus (GPa) = 15.35375 29.82680 22.59027
#
# Velocity S-wave (km/s) = 2.48764 3.46724 3.01746
# Velocity P-wave (km/s) = 5.41923 6.38730 5.92307
#
# Compressibility (1/GPa) = 0.01908674
#
# Stress axis : x y z
#
# Youngs Moduli (GPa) = 27.49920 148.52187 47.10226
#
# Poissons Ratio (x) = 0.50226 0.87432
# Poissons Ratio (y) = 0.09300 0.03188
# Poissons Ratio (z) = 0.51045 0.10051
#
# Static dielectric constant tensor:
#      x y z
#    x 1.966690 0.000000 0.000000 
#    y 0.000000 2.027230 0.000000 
#    z 0.000000 0.000000 2.037150 
# 
# From -- ./inp_files/14269.got.cif
#   From: 2010.05.17/outbox.cif.g08.bks.cpg/sg62_8_cif.got.tgz:14269.got - 2010.06.03 15:25:27.
