data_PCOD9461900
_publ_section_title
;
Structure prediction by ZEFSAII (Michael W. Deem and Ramdas Pophale) SiO2 
 PCOD9461900
Probable space group: P N M A
;
_chemical_formula_sum "Si O2"
_cell_formula_units_Z 64
_cell_length_a 10.240095
_cell_length_b 19.845961
_cell_length_c 19.688084
_cell_angle_alpha 90.000000
_cell_angle_beta 90.000000
_cell_angle_gamma 90.000000
_cell_volume 4001.101539
_symmetry_space_group_name_H-M "P N M A"
_symmetry_group_IT_number 62
_symmetry_cell_setting 'orthorhombic'
loop_
_space_group_symop_operation_xyz
x,y,z
1/2-x,-y,1/2+z
1/2+x,1/2-y,1/2-z
-x,1/2+y,-z
-x,-y,-z
1/2+x,y,1/2-z
1/2-x,1/2+y,1/2+z
x,1/2-y,z
loop_
_atom_site_type_symbol
_atom_site_label
_atom_site_fract_x
_atom_site_fract_y
_atom_site_fract_z
Si Si1 0.531330 0.825799 0.962286
Si Si2 0.383730 0.526252 0.668413
Si Si3 0.382537 0.457858 0.965327
Si Si4 0.869735 0.117398 0.324965
Si Si5 0.132884 0.965628 0.026013
Si Si6 0.110615 0.015963 0.320525
Si Si7 0.717068 0.674077 0.536002
Si Si8 0.142388 0.884119 0.826758
O O1 0.555263 0.750000 0.986004
O O2 0.588459 0.835015 0.886380
O O3 0.374302 0.836793 0.961263
O O4 0.597953 0.882263 0.008628
O O5 0.269426 0.582041 0.664246
O O6 0.364771 0.475339 0.606830
O O7 0.379772 0.491802 0.742686
O O8 0.518928 0.567092 0.661665
O O9 0.385986 0.465710 0.883940
O O10 0.500000 0.500000 0.000000
O O11 0.250783 0.491786 0.992929
O O12 0.870575 0.146584 0.248662
O O13 0.976888 0.057840 0.325747
O O14 0.153143 0.888129 0.004402
O O15 0.000000 0.000000 0.000000
O O16 0.229799 0.068385 0.328503
O O17 0.693655 0.750000 0.510060
O O18 0.660950 0.667422 0.612214
#
# Coordination Sequence:
#
# PCOD9461900 Si02
#       8
#     8   8   8   8   8   8   8   8
#     4  11  22  35  53  80 108 140 181 226 269 310
#     4  10  20  30  52  81 106 131 172 226 259 306
#     4  12  18  34  58  77 101 142 182 223 259 304
#     4  10  18  31  52  75 104 139 174 214 254 312
#     4  12  20  34  56  80 105 140 177 219 261 316
#     4  10  18  32  52  77 106 135 174 218 267 307
#     4  11  22  36  53  77 110 144 176 218 272 324
#     4  10  18  33  50  76 106 141 174 200 263 326
#
# _framework density 15.995595
#
# number of rings (size 3 to 8) (size 9 to 14) (size 15 to 20)
#    0.000    1.250    7.500    0.000    0.000    0.500 
#    0.000    2.500    0.000    0.750    0.000    0.000 
#    0.000    0.000    0.000    0.000    0.000    0.000 
#
# Total GULP energy -356923.638595 kJ/mol
# GULP energy per Si atom -5576.931853 kJ/mol
# Density = 1.595919 g / cm^3
# Si number density = 15.995595 Si / 1000 Ang^3
#
#
#
# Elastic Constant Matrix: (Units=GPa)
#
#
# Indices 1 2 3 4 5 6 
#
# 1 60.1309 24.4327 14.2674 0.0000 0.0000 0.0000
# 2 24.4327 104.7426 53.4568 0.0000 0.0000 0.0000
# 3 14.2674 53.4568 111.8370 0.0000 0.0000 0.0000
# 4 0.0000 0.0000 0.0000 38.7020 0.0000 0.0000
# 5 0.0000 0.0000 0.0000 0.0000 31.4773 0.0000
# 6 0.0000 0.0000 0.0000 0.0000 0.0000 15.2218
#
#
#
# Elastic Compliance Matrix: (Units=1/GPa)
#
#
# Indices 1 2 3 4 5 6 
#
# 1 0.018385 -0.004089 -0.000391 0.000000 0.000000 0.000000
# 2 -0.004089 0.013537 -0.005949 0.000000 0.000000 0.000000
# 3 -0.000391 -0.005949 0.011835 0.000000 0.000000 0.000000
# 4 0.000000 0.000000 0.000000 0.025838 0.000000 0.000000
# 5 0.000000 0.000000 0.000000 0.000000 0.031769 0.000000
# 6 0.000000 0.000000 0.000000 0.000000 0.000000 0.065695
#
#
# Mechanical properties :
#
#
# Convention : Reuss Voigt Hill
#
# Bulk Modulus (GPa) = 43.66988 51.22492 47.44740
# Shear Modulus (GPa) = 25.56891 29.38379 27.47635
#
# Velocity S-wave (km/s) = 4.00246 4.29067 4.14906
# Velocity P-wave (km/s) = 6.97997 7.52598 7.25811
#
# Compressibility (1/GPa) = 0.02289908
#
# Stress axis : x y z
#
# Youngs Moduli (GPa) = 54.39336 73.87080 84.49519
#
# Poissons Ratio (x) = 0.30205 0.03303
# Poissons Ratio (y) = 0.22241 0.50266
# Poissons Ratio (z) = 0.02126 0.43945
#
# Static dielectric constant tensor:
#      x y z
#    x 1.539110 0.000000 0.000000 
#    y 0.000000 1.508100 0.000000 
#    z 0.000000 0.000000 1.569930 
# 
# From -- ./inp_files/26277.got.cif
#   From: 2010.05.17/outbox.cif.g08.bks.cpg/sg62_14_cif.got.tgz:26277.got - 2010.06.03 15:25:27.
