data_PCOD9461962
_publ_section_title
;
Structure prediction by ZEFSAII (Michael W. Deem and Ramdas Pophale) SiO2 
 PCOD9461962
Probable space group: P N M A
;
_chemical_formula_sum "Si O2"
_cell_formula_units_Z 64
_cell_length_a 8.714466
_cell_length_b 19.023947
_cell_length_c 21.086133
_cell_angle_alpha 90.000000
_cell_angle_beta 90.000000
_cell_angle_gamma 90.000000
_cell_volume 3495.733759
_symmetry_space_group_name_H-M "P N M A"
_symmetry_group_IT_number 62
_symmetry_cell_setting 'orthorhombic'
loop_
_space_group_symop_operation_xyz
x,y,z
1/2-x,-y,1/2+z
1/2+x,1/2-y,1/2-z
-x,1/2+y,-z
-x,-y,-z
1/2+x,y,1/2-z
1/2-x,1/2+y,1/2+z
x,1/2-y,z
loop_
_atom_site_type_symbol
_atom_site_label
_atom_site_fract_x
_atom_site_fract_y
_atom_site_fract_z
Si Si1 0.603516 0.830194 0.046882
Si Si2 0.599663 0.933658 0.571588
Si Si3 0.576372 0.110718 0.689773
Si Si4 0.443243 0.381633 0.817411
Si Si5 0.910422 0.463146 0.326249
Si Si6 0.949390 0.952013 0.800964
Si Si7 0.956026 0.567720 0.543096
Si Si8 0.066125 0.399980 0.948810
O O1 0.638718 0.750000 0.032208
O O2 0.543766 0.837030 0.118825
O O3 0.758668 0.876381 0.040467
O O4 0.482231 0.864686 0.000052
O O5 0.528210 0.913133 0.639515
O O6 0.782712 0.934577 0.568029
O O7 0.532057 0.889765 0.512358
O O8 0.555898 0.016113 0.562829
O O9 0.760630 0.108107 0.691558
O O10 0.512313 0.148674 0.752217
O O11 0.524032 0.134637 0.619402
O O12 0.516522 0.031207 0.697213
O O13 0.526345 0.456501 0.830592
O O14 0.731952 0.458871 0.309400
O O15 0.004209 0.426631 0.269096
O O16 0.937352 0.431233 0.395225
O O17 0.000000 0.500000 0.500000
#
# Coordination Sequence:
#
# PCOD9461962 Si02
#       8
#     8   8   8   8   8   8   8   8
#     4  11  23  38  53  76 112 155 192 232 290 340
#     4  10  19  32  56  85 111 135 186 233 289 334
#     4   9  17  27  47  70 104 142 184 231 276 318
#     4  10  18  32  49  73 106 146 191 236 279 324
#     4  11  19  31  52  81 115 145 180 231 285 330
#     4  10  19  29  50  84 118 142 174 232 291 339
#     4  12  21  34  57  83 110 143 189 237 282 334
#     4   9  18  33  53  79 108 144 184 238 283 332
#
# _framework density 18.308029999999999
#
# number of rings (size 3 to 8) (size 9 to 14) (size 15 to 20)
#    0.000    1.750    2.500    6.000    3.500    1.000 
#    0.000    3.125    0.000    0.000    0.000    7.875 
#    0.000    0.000    0.000    0.000    0.000    0.000 
#
# Total GULP energy -356724.083658 kJ/mol
# GULP energy per Si atom -5573.813807 kJ/mol
# Density = 1.826636 g / cm^3
# Si number density = 18.308030 Si / 1000 Ang^3
#
#
#
# Elastic Constant Matrix: (Units=GPa)
#
#
# Indices 1 2 3 4 5 6 
#
# 1 84.5793 2.1033 48.9472 0.0000 0.0000 0.0000
# 2 2.1033 15.6725 24.0779 0.0000 0.0000 0.0000
# 3 48.9472 24.0779 136.2410 0.0000 0.0000 0.0000
# 4 0.0000 0.0000 0.0000 -4.6815 0.0000 0.0000
# 5 0.0000 0.0000 0.0000 0.0000 26.3107 0.0000
# 6 0.0000 0.0000 0.0000 0.0000 0.0000 1.2448
#
#
#
# Elastic Compliance Matrix: (Units=1/GPa)
#
#
# Indices 1 2 3 4 5 6 
#
# 1 0.015813 0.009068 -0.007284 0.000000 0.000000 0.000000
# 2 0.009068 0.092787 -0.019656 0.000000 0.000000 0.000000
# 3 -0.007284 -0.019656 0.013431 0.000000 0.000000 0.000000
# 4 0.000000 0.000000 0.000000 -0.213607 0.000000 0.000000
# 5 0.000000 0.000000 0.000000 0.000000 0.038007 0.000000
# 6 0.000000 0.000000 0.000000 0.000000 0.000000 0.803341
#
#
# Mechanical properties :
#
#
# Convention : Reuss Voigt Hill
#
# Bulk Modulus (GPa) = 11.58930 42.97219 27.28075
# Shear Modulus (GPa) = 6.14041 15.33243 10.73642
#
# Velocity S-wave (km/s) = 1.83336 2.89705 2.42426
# Velocity P-wave (km/s) = 3.29022 5.89179 4.77173
#
# Compressibility (1/GPa) = 0.08628651
#
# Stress axis : x y z
#
# Youngs Moduli (GPa) = 63.23961 10.77740 74.45711
#
# Poissons Ratio (x) = -0.09773 0.54232
# Poissons Ratio (y) = -0.57345 1.46353
# Poissons Ratio (z) = 0.46062 0.21184
#
# Static dielectric constant tensor:
#      x y z
#    x 1.627890 0.000000 0.000000 
#    y 0.000000 1.572530 0.000000 
#    z 0.000000 0.000000 1.726470 
# 
# From -- ./inp_files/26195.got.cif
#   From: 2010.05.17/outbox.cif.g08.bks.cpg/sg62_14_cif.got.tgz:26195.got - 2010.06.03 15:25:27.
