data_PCOD9461619
_publ_section_title
;
Structure prediction by ZEFSAII (Michael W. Deem and Ramdas Pophale) SiO2 
 PCOD9461619
Probable space group: P N M A
;
_chemical_formula_sum "Si O2"
_cell_formula_units_Z 56
_cell_length_a 13.931911
_cell_length_b 8.684237
_cell_length_c 30.366735
_cell_angle_alpha 90.000000
_cell_angle_beta 90.000000
_cell_angle_gamma 90.000000
_cell_volume 3674.011050
_symmetry_space_group_name_H-M "P N M A"
_symmetry_group_IT_number 62
_symmetry_cell_setting 'orthorhombic'
loop_
_space_group_symop_operation_xyz
x,y,z
1/2-x,-y,1/2+z
1/2+x,1/2-y,1/2-z
-x,1/2+y,-z
-x,-y,-z
1/2+x,y,1/2-z
1/2-x,1/2+y,1/2+z
x,1/2-y,z
loop_
_atom_site_type_symbol
_atom_site_label
_atom_site_fract_x
_atom_site_fract_y
_atom_site_fract_z
Si Si1 0.388795 0.434625 0.094382
Si Si2 0.706776 0.063790 0.184020
Si Si3 0.401518 0.065664 0.268836
Si Si4 0.391706 0.935140 0.002457
Si Si5 0.113284 0.063127 0.406036
Si Si6 0.302710 0.565474 0.182970
Si Si7 0.106989 0.934060 0.230542
O O1 0.386646 0.250000 0.093927
O O2 0.350614 0.497242 0.047609
O O3 0.501319 0.483413 0.098552
O O4 0.331911 0.498092 0.136067
O O5 0.700202 0.250000 0.185452
O O6 0.814850 0.021274 0.198276
O O7 0.674169 0.010154 0.135810
O O8 0.637172 0.997460 0.221531
O O9 0.404823 0.250000 0.266039
O O10 0.372095 0.999556 0.221103
O O11 0.504648 0.002262 0.282357
O O12 0.393745 0.750000 0.005164
O O13 0.349432 0.980843 0.954713
O O14 0.500000 0.000000 0.000000
O O15 0.113448 0.250000 0.405183
O O16 0.310150 0.750000 0.182309
O O17 0.194701 0.523191 0.198126
O O18 0.101340 0.750000 0.232378
#
# Coordination Sequence:
#
# PCOD9461619 Si02
#       7
#     8   8   8   8   8   8   8
#     4  10  18  28  44  66  91 118 147 181 222 268
#     4   9  17  30  47  66  87 114 151 186 217 257
#     4  10  19  30  46  66  89 117 147 183 223 261
#     4   9  16  27  42  61  88 119 148 180 219 263
#     4   8  15  27  43  63  87 115 145 176 212 257
#     4  10  20  32  46  65  88 117 152 185 220 261
#     4  10  20  32  45  63  90 120 149 183 220 261
#
# _framework density 15.242197000000001
#
# number of rings (size 3 to 8) (size 9 to 14) (size 15 to 20)
#    0.000    2.571    0.000    3.857    0.000    3.429 
#    0.000    3.571    0.000    0.000    0.000    1.000 
#    0.000    0.000    0.000    0.000    0.000    0.000 
#
# Total GULP energy -312059.886490 kJ/mol
# GULP energy per Si atom -5572.497973 kJ/mol
# Density = 1.520750 g / cm^3
# Si number density = 15.242197 Si / 1000 Ang^3
#
#
#
# Elastic Constant Matrix: (Units=GPa)
#
#
# Indices 1 2 3 4 5 6 
#
# 1 73.6808 24.2389 51.6630 0.0000 0.0000 0.0000
# 2 24.2389 36.1830 33.4115 0.0000 0.0000 0.0000
# 3 51.6630 33.4115 157.0664 0.0000 0.0000 0.0000
# 4 0.0000 0.0000 0.0000 23.9544 0.0000 0.0000
# 5 0.0000 0.0000 0.0000 0.0000 20.2913 0.0000
# 6 0.0000 0.0000 0.0000 0.0000 0.0000 20.9435
#
#
#
# Elastic Compliance Matrix: (Units=1/GPa)
#
#
# Indices 1 2 3 4 5 6 
#
# 1 0.019743 -0.008996 -0.004580 0.000000 0.000000 0.000000
# 2 -0.008996 0.038492 -0.005229 0.000000 0.000000 0.000000
# 3 -0.004580 -0.005229 0.008986 0.000000 0.000000 0.000000
# 4 0.000000 0.000000 0.000000 0.041746 0.000000 0.000000
# 5 0.000000 0.000000 0.000000 0.000000 0.049282 0.000000
# 6 0.000000 0.000000 0.000000 0.000000 0.000000 0.047747
#
#
# Mechanical properties :
#
#
# Convention : Reuss Voigt Hill
#
# Bulk Modulus (GPa) = 33.77268 53.95078 43.86173
# Shear Modulus (GPa) = 19.72554 23.54563 21.63558
#
# Velocity S-wave (km/s) = 3.60132 3.93461 3.77165
# Velocity P-wave (km/s) = 6.28475 7.49093 6.91420
#
# Compressibility (1/GPa) = 0.02960973
#
# Stress axis : x y z
#
# Youngs Moduli (GPa) = 50.65031 25.97910 111.28874
#
# Poissons Ratio (x) = 0.23372 0.50973
# Poissons Ratio (y) = 0.45567 0.58193
# Poissons Ratio (z) = 0.23199 0.13585
#
# Static dielectric constant tensor:
#      x y z
#    x 1.499510 0.000000 0.000000 
#    y 0.000000 1.511550 0.000000 
#    z 0.000000 0.000000 1.522560 
# 
# From -- ./inp_files/32651.got.cif
#   From: 2010.05.17/outbox.cif.g08.bks.cpg/sg62_17_cif.got.tgz:32651.got - 2010.06.03 15:25:27.
