data_PCOD9461553
_publ_section_title
;
Structure prediction by ZEFSAII (Michael W. Deem and Ramdas Pophale) SiO2 
 PCOD9461553
Probable space group: P N M A
;
_chemical_formula_sum "Si O2"
_cell_formula_units_Z 60
_cell_length_a 5.457132
_cell_length_b 13.952100
_cell_length_c 31.760638
_cell_angle_alpha 90.000000
_cell_angle_beta 90.000000
_cell_angle_gamma 90.000000
_cell_volume 2418.205792
_symmetry_space_group_name_H-M "P N M A"
_symmetry_group_IT_number 62
_symmetry_cell_setting 'orthorhombic'
loop_
_space_group_symop_operation_xyz
x,y,z
1/2-x,-y,1/2+z
1/2+x,1/2-y,1/2-z
-x,1/2+y,-z
-x,-y,-z
1/2+x,y,1/2-z
1/2-x,1/2+y,1/2+z
x,1/2-y,z
loop_
_atom_site_type_symbol
_atom_site_label
_atom_site_fract_x
_atom_site_fract_y
_atom_site_fract_z
Si Si1 0.082629 0.460081 0.277064
Si Si2 0.180743 0.592494 0.029259
Si Si3 0.517949 0.353236 0.363889
Si Si4 0.929334 0.750000 0.722536
Si Si5 0.676923 0.612041 0.001242
Si Si6 0.541876 0.915210 0.141479
Si Si7 0.979332 0.613059 0.591879
Si Si8 0.539339 0.926196 0.376102
O O1 0.337413 0.465500 0.251430
O O2 0.081411 0.354147 0.298896
O O3 0.063659 0.538801 0.312584
O O4 0.453187 0.638163 0.032356
O O5 0.079502 0.556643 0.074231
O O6 0.950860 0.649385 0.010107
O O7 0.252515 0.501440 0.000106
O O8 0.493369 0.250000 0.339077
O O9 0.290426 0.350593 0.396366
O O10 0.517740 0.468785 0.351948
O O11 0.789821 0.348100 0.382344
O O12 0.693660 0.750000 0.753769
O O13 0.562855 0.632349 0.955555
O O14 0.534292 0.002175 0.106918
O O15 0.277784 0.870386 0.138710
O O16 0.795714 0.866921 0.131438
#
# Coordination Sequence:
#
# PCOD9461553 Si02
#       8
#     8   8   8   4   8   8   8   8
#     4  10  19  33  46  57  69  88 119 153 194 242
#     4  10  18  26  43  62  78 101 120 142 184 229
#     4  10  19  30  40  51  74 104 127 150 183 218
#     4   8  16  30  46  56  68  80 106 156 198 228
#     4  10  18  26  43  62  77 101 120 145 184 227
#     4  10  19  30  43  57  74  97 111 149 197 222
#     4  10  19  32  42  58  82  94 125 159 184 233
#     4  10  19  32  41  60  83  96 122 155 182 236
#
# _framework density 24.811783999999999
#
# number of rings (size 3 to 8) (size 9 to 14) (size 15 to 20)
#    0.000    2.133    2.667    2.800    7.467    0.000 
#    9.600    0.000    2.933    0.000    0.000    0.000 
#    0.000    0.000    0.000    0.000    0.000    0.000 
#
# Total GULP energy -334349.230888 kJ/mol
# GULP energy per Si atom -5572.487181 kJ/mol
# Density = 2.475531 g / cm^3
# Si number density = 24.811784 Si / 1000 Ang^3
#
#
#
# Elastic Constant Matrix: (Units=GPa)
#
#
# Indices 1 2 3 4 5 6 
#
# 1 291.4640 17.8762 51.8265 0.0000 0.0000 0.0000
# 2 17.8762 75.6508 5.6162 0.0000 0.0000 0.0000
# 3 51.8265 5.6162 88.8424 0.0000 0.0000 0.0000
# 4 0.0000 0.0000 0.0000 -796.7035 0.0000 0.0000
# 5 0.0000 0.0000 0.0000 0.0000 30.9220 0.0000
# 6 0.0000 0.0000 0.0000 0.0000 0.0000 -16.0138
#
#
#
# Elastic Compliance Matrix: (Units=1/GPa)
#
#
# Indices 1 2 3 4 5 6 
#
# 1 0.003870 -0.000750 -0.002210 0.000000 0.000000 0.000000
# 2 -0.000750 0.013426 -0.000411 0.000000 0.000000 0.000000
# 3 -0.002210 -0.000411 0.012571 0.000000 0.000000 0.000000
# 4 0.000000 0.000000 0.000000 -0.001255 0.000000 0.000000
# 5 0.000000 0.000000 0.000000 0.000000 0.032339 0.000000
# 6 0.000000 0.000000 0.000000 0.000000 0.000000 -0.062446
#
#
# Mechanical properties :
#
#
# Convention : Reuss Voigt Hill
#
# Bulk Modulus (GPa) = 43.24415 67.39946 55.32180
# Shear Modulus (GPa) = 385.89831 -130.98316 127.45758
#
# Velocity S-wave (km/s) = 12.48471 -7.27360 7.17505
# Velocity P-wave (km/s) = 15.00968 6.58158 9.53870
#
# Compressibility (1/GPa) = 0.02312452
#
# Stress axis : x y z
#
# Youngs Moduli (GPa) = 258.39989 74.47982 79.54721
#
# Poissons Ratio (x) = 0.05589 0.17581
# Poissons Ratio (y) = 0.19390 0.03269
# Poissons Ratio (z) = 0.57110 0.03061
#
# Static dielectric constant tensor:
#      x y z
#    x 2.110620 0.000000 0.000000 
#    y 0.000000 2.065520 0.000000 
#    z 0.000000 0.000000 1.990260 
# 
# From -- ./inp_files/31748.got.cif
#   From: 2010.05.17/outbox.cif.g08.bks.cpg/sg62_16_cif.got.tgz:31748.got - 2010.06.03 15:25:27.
