data_PCOD9461432
_publ_section_title
;
Structure prediction by ZEFSAII (Michael W. Deem and Ramdas Pophale) SiO2 
 PCOD9461432
Probable space group: P N M A
;
_chemical_formula_sum "Si O2"
_cell_formula_units_Z 28
_cell_length_a 5.070069
_cell_length_b 16.139525
_cell_length_c 14.048207
_cell_angle_alpha 90.000000
_cell_angle_beta 90.000000
_cell_angle_gamma 90.000000
_cell_volume 1149.543782
_symmetry_space_group_name_H-M "P N M A"
_symmetry_group_IT_number 62
_symmetry_cell_setting 'orthorhombic'
loop_
_space_group_symop_operation_xyz
x,y,z
1/2-x,-y,1/2+z
1/2+x,1/2-y,1/2-z
-x,1/2+y,-z
-x,-y,-z
1/2+x,y,1/2-z
1/2-x,1/2+y,1/2+z
x,1/2-y,z
loop_
_atom_site_type_symbol
_atom_site_label
_atom_site_fract_x
_atom_site_fract_y
_atom_site_fract_z
Si Si1 0.012603 0.398791 0.073578
Si Si2 0.752498 0.054697 0.616493
Si Si3 0.238996 0.655214 0.113058
Si Si4 0.352471 0.750000 0.690196
O O1 0.855094 0.463566 0.139427
O O2 0.180778 0.332422 0.129641
O O3 0.812933 0.352267 0.001226
O O4 0.209717 0.444201 0.999131
O O5 0.541282 0.123023 0.652002
O O6 0.038536 0.088548 0.638392
O O7 0.301268 0.750000 0.137317
O O8 0.154282 0.750000 0.776848
#
# Coordination Sequence:
#
# PCOD9461432 Si02
#       4
#     8   8   8   4
#     4   9  20  35  50  69 105 137 192 208 264 307
#     4   9  19  29  55  73  94 143 167 236 272 295
#     4  10  17  28  49  78 101 128 158 219 284 315
#     4  12  28  36  52  76 114 164 182 202 246 330
#
# _framework density 24.357486000000002
#
# number of rings (size 3 to 8) (size 9 to 14) (size 15 to 20)
#    1.714    0.571    1.429    1.714    6.000    0.000 
#    0.000    0.000    0.000    0.000    0.000    0.000 
#    0.000   22.857    0.000    0.000    0.000    0.000 
#
# Total GULP energy -156273.630655 kJ/mol
# GULP energy per Si atom -5581.201095 kJ/mol
# Density = 2.430205 g / cm^3
# Si number density = 24.357486 Si / 1000 Ang^3
#
#
#
# Elastic Constant Matrix: (Units=GPa)
#
#
# Indices 1 2 3 4 5 6 
#
# 1 72.1919 -11.2889 -11.6140 0.0000 0.0000 0.0000
# 2 -11.2889 92.7081 5.2240 0.0000 0.0000 0.0000
# 3 -11.6140 5.2240 45.4142 0.0000 0.0000 0.0000
# 4 0.0000 0.0000 0.0000 1.1598 0.0000 0.0000
# 5 0.0000 0.0000 0.0000 0.0000 4.7055 0.0000
# 6 0.0000 0.0000 0.0000 0.0000 0.0000 24.9608
#
#
#
# Elastic Compliance Matrix: (Units=1/GPa)
#
#
# Indices 1 2 3 4 5 6 
#
# 1 0.014674 0.001586 0.003570 0.000000 0.000000 0.000000
# 2 0.001586 0.011028 -0.000863 0.000000 0.000000 0.000000
# 3 0.003570 -0.000863 0.023032 0.000000 0.000000 0.000000
# 4 0.000000 0.000000 0.000000 0.862249 0.000000 0.000000
# 5 0.000000 0.000000 0.000000 0.000000 0.212517 0.000000
# 6 0.000000 0.000000 0.000000 0.000000 0.000000 0.040063
#
#
# Mechanical properties :
#
#
# Convention : Reuss Voigt Hill
#
# Bulk Modulus (GPa) = 17.44580 19.43959 18.44269
# Shear Modulus (GPa) = 4.25864 21.36475 12.81169
#
# Velocity S-wave (km/s) = 1.32370 2.96486 2.29593
# Velocity P-wave (km/s) = 3.08451 4.44058 3.82315
#
# Compressibility (1/GPa) = 0.05732040
#
# Stress axis : x y z
#
# Youngs Moduli (GPa) = 68.14624 90.67615 43.41806
#
# Poissons Ratio (x) = -0.14378 -0.15502
# Poissons Ratio (y) = -0.10806 0.03747
# Poissons Ratio (z) = -0.24331 0.07826
#
# Static dielectric constant tensor:
#      x y z
#    x 1.924620 0.000000 0.000000 
#    y 0.000000 1.941570 0.000000 
#    z 0.000000 0.000000 2.079940 
# 
# From -- ./inp_files/16062.got.cif
#   From: 2010.05.17/outbox.cif.g08.bks.cpg/sg62_9_cif.got.tgz:16062.got - 2010.06.03 15:25:27.
