data_PCOD9461274
_publ_section_title
;
Structure prediction by ZEFSAII (Michael W. Deem and Ramdas Pophale) SiO2 
 PCOD9461274
Probable space group: P B C A
;
_chemical_formula_sum "Si O2"
_cell_formula_units_Z 64
_cell_length_a 9.000000
_cell_length_b 30.000000
_cell_length_c 12.000000
_cell_angle_alpha 90.000000
_cell_angle_beta 90.000000
_cell_angle_gamma 90.000000
_cell_volume 3240.000000
_symmetry_space_group_name_H-M "P B C A"
_symmetry_group_IT_number 61
_symmetry_cell_setting 'orthorhombic'
loop_
_space_group_symop_operation_xyz
x,y,z
1/2-x,-y,1/2+z
1/2+x,1/2-y,-z
-x,1/2+y,1/2-z
-x,-y,-z
1/2+x,y,1/2-z
1/2-x,1/2+y,z
x,1/2-y,1/2+z
loop_
_atom_site_type_symbol
_atom_site_label
_atom_site_fract_x
_atom_site_fract_y
_atom_site_fract_z
Si Si1 0.445091 0.972795 0.237340
Si Si2 0.811772 0.429945 0.404279
Si Si3 0.301437 0.179400 0.133270
Si Si4 0.606963 0.366971 0.701716
Si Si5 0.651316 0.228133 0.790481
Si Si6 0.198690 0.467560 0.860119
Si Si7 0.842855 0.233225 0.587635
Si Si8 0.215220 0.829872 0.014588
O O1 0.335232 0.937557 0.174669
O O2 0.548564 0.950271 0.334189
O O3 0.561955 0.997280 0.153465
O O4 0.333738 0.010318 0.289048
O O5 0.765628 0.457067 0.516960
O O6 0.845124 0.378516 0.442628
O O7 0.169897 0.146745 0.176401
O O8 0.443841 0.154945 0.188184
O O9 0.239009 0.226470 0.178712
O O10 0.344109 0.194421 0.007083
O O11 0.633913 0.419970 0.684915
O O12 0.693697 0.344230 0.596816
O O13 0.692533 0.224708 0.659852
O O14 0.478702 0.231080 0.824492
O O15 0.707377 0.189052 0.872767
O O16 0.856473 0.282601 0.530706
#
# Coordination Sequence:
#
# PCOD9461274 Si02
#       8
#     8   8   8   8   8   8   8   8
#     4  10  21  41  67 100 127 176 211 262 346 390
#     4  10  22  41  68  93 138 165 217 272 320 406
#     4  11  23  39  62  92 131 171 218 272 325 379
#     4  11  21  41  63  95 133 168 219 279 316 386
#     4  11  23  41  65  89 132 173 222 265 322 388
#     4  10  21  39  70  96 133 168 217 270 328 395
#     4  11  24  42  66  91 132 175 222 270 326 387
#     4  10  23  40  63  92 128 175 215 270 327 369
#
# _framework density 19.753086
#
# number of rings (size 3 to 8) (size 9 to 14) (size 15 to 20)
#    0.000    1.500    2.500    2.250    0.000    2.000 
#    0.000    1.250   13.750    0.000    0.000    0.000 
#    0.000    0.000    0.000    0.000    0.000    0.000 
#
# Total GULP energy -356487.674168 kJ/mol
# GULP energy per Si atom -5570.119909 kJ/mol
# Density = 1.970813 g / cm^3
# Si number density = 19.753086 Si / 1000 Ang^3
#
#
#
# Elastic Constant Matrix: (Units=GPa)
#
#
# Indices 1 2 3 4 5 6 
#
# 1 97.9584 20.2751 40.1503 0.0000 0.0000 0.0000
# 2 20.2751 82.5211 26.3340 0.0000 0.0000 0.0000
# 3 40.1503 26.3340 88.7727 0.0000 0.0000 0.0000
# 4 0.0000 0.0000 0.0000 35.8347 0.0000 0.0000
# 5 0.0000 0.0000 0.0000 0.0000 33.9057 0.0000
# 6 0.0000 0.0000 0.0000 0.0000 0.0000 26.6399
#
#
#
# Elastic Compliance Matrix: (Units=1/GPa)
#
#
# Indices 1 2 3 4 5 6 
#
# 1 0.012680 -0.001420 -0.005314 0.000000 0.000000 0.000000
# 2 -0.001420 0.013544 -0.003376 0.000000 0.000000 0.000000
# 3 -0.005314 -0.003376 0.014670 0.000000 0.000000 0.000000
# 4 0.000000 0.000000 0.000000 0.027906 0.000000 0.000000
# 5 0.000000 0.000000 0.000000 0.000000 0.029494 0.000000
# 6 0.000000 0.000000 0.000000 0.000000 0.000000 0.037538
#
#
# Mechanical properties :
#
#
# Convention : Reuss Voigt Hill
#
# Bulk Modulus (GPa) = 48.36693 49.19678 48.78186
# Shear Modulus (GPa) = 30.68585 31.44225 31.06405
#
# Velocity S-wave (km/s) = 3.94569 3.99402 3.96993
# Velocity P-wave (km/s) = 6.73029 6.79923 6.76485
#
# Compressibility (1/GPa) = 0.02067528
#
# Stress axis : x y z
#
# Youngs Moduli (GPa) = 78.86256 73.83248 68.16862
#
# Poissons Ratio (x) = 0.10482 0.36224
# Poissons Ratio (y) = 0.11196 0.23012
# Poissons Ratio (z) = 0.41907 0.24924
#
# Static dielectric constant tensor:
#      x y z
#    x 1.742290 0.000000 0.000000 
#    y 0.000000 1.694270 0.000000 
#    z 0.000000 0.000000 1.720140 
# 
# From -- ./inp_files/4960.got.cif
#   From: 2010.05.17/outbox.ucp.g08.bks.cvg/sg61_3_cif.got.tgz:4960.got - 2010.06.11 16:28:26.
