data_PCOD9461187
_publ_section_title
;
Structure prediction by ZEFSAII (Michael W. Deem and Ramdas Pophale) SiO2 
 PCOD9461187
Probable space group: P B C A
;
_chemical_formula_sum "Si O2"
_cell_formula_units_Z 48
_cell_length_a 9.608415
_cell_length_b 12.457879
_cell_length_c 18.301517
_cell_angle_alpha 90.000000
_cell_angle_beta 90.000000
_cell_angle_gamma 90.000000
_cell_volume 2190.700213
_symmetry_space_group_name_H-M "P B C A"
_symmetry_group_IT_number 61
_symmetry_cell_setting 'orthorhombic'
loop_
_space_group_symop_operation_xyz
x,y,z
1/2-x,-y,1/2+z
1/2+x,1/2-y,-z
-x,1/2+y,1/2-z
-x,-y,-z
1/2+x,y,1/2-z
1/2-x,1/2+y,z
x,1/2-y,1/2+z
loop_
_atom_site_type_symbol
_atom_site_label
_atom_site_fract_x
_atom_site_fract_y
_atom_site_fract_z
Si Si1 0.906579 0.262357 0.576199
Si Si2 0.924121 0.134309 0.426796
Si Si3 0.540033 0.853031 0.338828
Si Si4 0.283568 0.957991 0.922582
Si Si5 0.136752 0.050954 0.064806
Si Si6 0.274513 0.380479 0.300418
O O1 0.910620 0.183776 0.507716
O O2 0.773086 0.338435 0.568927
O O3 0.874095 0.193430 0.648232
O O4 0.037562 0.344676 0.572792
O O5 0.944523 0.238170 0.376620
O O6 0.784730 0.077046 0.398976
O O7 0.051817 0.052837 0.430755
O O8 0.656370 0.876531 0.278139
O O9 0.387199 0.848596 0.302810
O O10 0.563403 0.948083 0.398528
O O11 0.265984 0.005547 0.842032
O O12 0.191983 0.022714 0.982680
#
# Coordination Sequence:
#
# PCOD9461187 Si02
#       6
#     8   8   8   8   8   8
#     4  12  24  46  76 105 142 185 244 300 362 423
#     4  12  26  43  77 110 142 188 242 297 362 439
#     4  12  29  49  70 105 149 191 242 301 367 433
#     4  12  24  47  74 109 145 188 246 297 364 433
#     4  12  26  44  77 108 142 190 241 305 362 429
#     4  12  29  48  72 105 148 192 242 303 360 441
#
# _framework density 21.910803000000001
#
# number of rings (size 3 to 8) (size 9 to 14) (size 15 to 20)
#    0.000    0.000    6.667    3.000    4.667    2.667 
#    0.000    0.000    0.000    0.000    0.000    0.000 
#    0.000    0.000    0.000    0.000    0.000    0.000 
#
# Total GULP energy -268201.520686 kJ/mol
# GULP energy per Si atom -5587.531681 kJ/mol
# Density = 2.186093 g / cm^3
# Si number density = 21.910803 Si / 1000 Ang^3
#
#
#
# Elastic Constant Matrix: (Units=GPa)
#
#
# Indices 1 2 3 4 5 6 
#
# 1 147.8508 33.2455 59.2788 0.0000 0.0000 0.0000
# 2 33.2455 52.2170 27.5713 0.0000 0.0000 0.0000
# 3 59.2788 27.5713 89.1325 0.0000 0.0000 0.0000
# 4 0.0000 0.0000 0.0000 21.1043 0.0000 0.0000
# 5 0.0000 0.0000 0.0000 0.0000 51.5375 0.0000
# 6 0.0000 0.0000 0.0000 0.0000 0.0000 55.1885
#
#
#
# Elastic Compliance Matrix: (Units=1/GPa)
#
#
# Indices 1 2 3 4 5 6 
#
# 1 0.009677 -0.003302 -0.005414 0.000000 0.000000 0.000000
# 2 -0.003302 0.024016 -0.005233 0.000000 0.000000 0.000000
# 3 -0.005414 -0.005233 0.016439 0.000000 0.000000 0.000000
# 4 0.000000 0.000000 0.000000 0.047384 0.000000 0.000000
# 5 0.000000 0.000000 0.000000 0.000000 0.019403 0.000000
# 6 0.000000 0.000000 0.000000 0.000000 0.000000 0.018120
#
#
# Mechanical properties :
#
#
# Convention : Reuss Voigt Hill
#
# Bulk Modulus (GPa) = 44.97742 58.82128 51.89935
# Shear Modulus (GPa) = 29.35165 36.83973 33.09569
#
# Velocity S-wave (km/s) = 3.66402 4.10488 3.89070
# Velocity P-wave (km/s) = 6.20259 7.02643 6.62733
#
# Compressibility (1/GPa) = 0.02223338
#
# Stress axis : x y z
#
# Youngs Moduli (GPa) = 103.33899 41.63841 60.83209
#
# Poissons Ratio (x) = 0.13750 0.32936
# Poissons Ratio (y) = 0.34125 0.31832
# Poissons Ratio (z) = 0.55950 0.21788
#
# Static dielectric constant tensor:
#      x y z
#    x 1.824410 0.000000 0.000000 
#    y 0.000000 1.788860 0.000000 
#    z 0.000000 0.000000 1.464740 
# 
# From -- ./inp_files/8890.got.cif
#   From: 2010.05.17/outbox.cif.g08.bks.cpg/sg61_5_cif.got.tgz:8890.got - 2010.06.03 15:17:17.
