data_PCOD9461657
_publ_section_title
;
Structure prediction by ZEFSAII (Michael W. Deem and Ramdas Pophale) SiO2 
 PCOD9461657
Probable space group: P N M A
;
_chemical_formula_sum "Si O2"
_cell_formula_units_Z 56
_cell_length_a 19.504552
_cell_length_b 9.270558
_cell_length_c 14.525887
_cell_angle_alpha 90.000000
_cell_angle_beta 90.000000
_cell_angle_gamma 90.000000
_cell_volume 2626.543006
_symmetry_space_group_name_H-M "P N M A"
_symmetry_group_IT_number 62
_symmetry_cell_setting 'orthorhombic'
loop_
_space_group_symop_operation_xyz
x,y,z
1/2-x,-y,1/2+z
1/2+x,1/2-y,1/2-z
-x,1/2+y,-z
-x,-y,-z
1/2+x,y,1/2-z
1/2-x,1/2+y,1/2+z
x,1/2-y,z
loop_
_atom_site_type_symbol
_atom_site_label
_atom_site_fract_x
_atom_site_fract_y
_atom_site_fract_z
Si Si1 0.801508 0.423118 0.720095
Si Si2 0.439749 0.924801 0.213332
Si Si3 0.853240 0.415184 0.909569
Si Si4 0.346393 0.919826 0.051962
Si Si5 0.070131 0.420109 0.373758
Si Si6 0.008096 0.416913 0.904591
Si Si7 0.278219 0.920625 0.451149
O O1 0.814670 0.250000 0.712609
O O2 0.800848 0.455238 0.828136
O O3 0.864131 0.512030 0.677317
O O4 0.736239 0.454319 0.655795
O O5 0.447024 0.750000 0.212109
O O6 0.372433 0.959263 0.153575
O O7 0.444691 0.969485 0.320527
O O8 0.503390 0.996869 0.160518
O O9 0.841454 0.250000 0.936927
O O10 0.929342 0.422315 0.867883
O O11 0.843438 0.512041 0.998927
O O12 0.326815 0.750000 0.051290
O O13 0.286046 0.013077 0.007435
O O14 0.410838 0.934529 0.981704
O O15 0.064006 0.250000 0.353262
O O16 0.025411 0.250000 0.923623
O O17 0.000000 0.500000 0.000000
O O18 0.279945 0.750000 0.460740
#
# Coordination Sequence:
#
# PCOD9461657 Si02
#       7
#     8   8   8   8   8   8   8
#     4   9  18  36  58  78 106 147 189 224 271 340
#     4  10  19  35  56  78 109 151 189 220 268 338
#     4  10  20  39  63  81 108 150 189 228 278 336
#     4   9  19  34  53  80 116 150 179 219 274 336
#     4  10  18  28  50  85 114 139 175 224 276 322
#     4  10  22  40  61  83 108 145 191 236 280 329
#     4  10  21  36  57  86 115 144 186 238 282 329
#
# _framework density 21.320800999999999
#
# number of rings (size 3 to 8) (size 9 to 14) (size 15 to 20)
#    0.000    2.286    1.429    1.286    0.000    3.429 
#    2.571    0.000    0.000    0.000    0.000    0.000 
#    0.000    0.000    0.000    0.000    0.000    0.000 
#
# Total GULP energy -312562.939980 kJ/mol
# GULP energy per Si atom -5581.481071 kJ/mol
# Density = 2.127227 g / cm^3
# Si number density = 21.320801 Si / 1000 Ang^3
#
#
#
# Elastic Constant Matrix: (Units=GPa)
#
#
# Indices 1 2 3 4 5 6 
#
# 1 35.2771 1.5240 9.8603 0.0000 0.0000 0.0000
# 2 1.5240 19.3613 34.9787 0.0000 0.0000 0.0000
# 3 9.8603 34.9787 117.2762 0.0000 0.0000 0.0000
# 4 0.0000 0.0000 0.0000 28.0220 0.0000 0.0000
# 5 0.0000 0.0000 0.0000 0.0000 36.3978 0.0000
# 6 0.0000 0.0000 0.0000 0.0000 0.0000 25.9274
#
#
#
# Elastic Compliance Matrix: (Units=1/GPa)
#
#
# Indices 1 2 3 4 5 6 
#
# 1 0.029220 0.004637 -0.003840 0.000000 0.000000 0.000000
# 2 0.004637 0.112735 -0.034014 0.000000 0.000000 0.000000
# 3 -0.003840 -0.034014 0.018995 0.000000 0.000000 0.000000
# 4 0.000000 0.000000 0.000000 0.035686 0.000000 0.000000
# 5 0.000000 0.000000 0.000000 0.000000 0.027474 0.000000
# 6 0.000000 0.000000 0.000000 0.000000 0.000000 0.038569
#
#
# Mechanical properties :
#
#
# Convention : Reuss Voigt Hill
#
# Bulk Modulus (GPa) = 10.58018 29.40451 19.99234
# Shear Modulus (GPa) = 13.86504 26.43953 20.15229
#
# Velocity S-wave (km/s) = 2.55288 3.52530 3.07774
# Velocity P-wave (km/s) = 3.69631 5.51287 4.69332
#
# Compressibility (1/GPa) = 0.09451637
#
# Stress axis : x y z
#
# Youngs Moduli (GPa) = 34.22315 8.87033 52.64602
#
# Poissons Ratio (x) = -0.04113 0.20215
# Poissons Ratio (y) = -0.15870 1.79071
# Poissons Ratio (z) = 0.13141 0.30172
#
# Static dielectric constant tensor:
#      x y z
#    x 1.818610 0.000000 0.000000 
#    y 0.000000 1.711790 0.000000 
#    z 0.000000 0.000000 1.802650 
# 
# From -- ./inp_files/20319.got.cif
#   From: 2010.05.17/outbox.cif.g08.bks.cpg/sg62_11_cif.got.tgz:20319.got - 2010.06.03 15:25:27.
