data_PCOD9461889
_publ_section_title
;
Structure prediction by ZEFSAII (Michael W. Deem and Ramdas Pophale) SiO2 
 PCOD9461889
Probable space group: P N M A
;
_chemical_formula_sum "Si O2"
_cell_formula_units_Z 64
_cell_length_a 20.413209
_cell_length_b 7.452562
_cell_length_c 19.348580
_cell_angle_alpha 90.000000
_cell_angle_beta 90.000000
_cell_angle_gamma 90.000000
_cell_volume 2943.513130
_symmetry_space_group_name_H-M "P N M A"
_symmetry_group_IT_number 62
_symmetry_cell_setting 'orthorhombic'
loop_
_space_group_symop_operation_xyz
x,y,z
1/2-x,-y,1/2+z
1/2+x,1/2-y,1/2-z
-x,1/2+y,-z
-x,-y,-z
1/2+x,y,1/2-z
1/2-x,1/2+y,1/2+z
x,1/2-y,z
loop_
_atom_site_type_symbol
_atom_site_label
_atom_site_fract_x
_atom_site_fract_y
_atom_site_fract_z
Si Si1 0.944429 0.535125 0.944027
Si Si2 0.904038 0.029891 0.307518
Si Si3 0.359889 0.041684 0.785937
Si Si4 0.012196 0.044270 0.204171
Si Si5 0.701759 0.031095 0.470343
Si Si6 0.317097 0.030336 0.936444
Si Si7 0.932105 0.464069 0.461740
Si Si8 0.255195 0.033266 0.179259
O O1 0.936702 0.750000 0.936396
O O2 0.966301 0.463005 0.869073
O O3 0.873136 0.468409 0.967787
O O4 0.000000 0.500000 0.000000
O O5 0.906019 0.250000 0.306986
O O6 0.929335 0.970271 0.383008
O O7 0.828347 0.975765 0.301004
O O8 0.951726 0.965200 0.246904
O O9 0.377076 0.250000 0.795262
O O10 0.336787 0.969598 0.860046
O O11 0.424186 0.954611 0.753273
O O12 0.300278 0.027240 0.732237
O O13 0.993458 0.250000 0.189053
O O14 0.701534 0.250000 0.471463
O O15 0.746525 0.973459 0.534493
O O16 0.736424 0.977573 0.398471
O O17 0.316930 0.250000 0.935051
O O18 0.372008 0.971059 0.991327
O O19 0.923898 0.250000 0.457465
O O20 0.000000 0.500000 0.500000
O O21 0.254516 0.250000 0.179468
#
# Coordination Sequence:
#
# PCOD9461889 Si02
#       8
#     8   8   8   8   8   8   8   8
#     4  10  21  36  57  81 106 141 182 225 272 325
#     4   9  18  32  57  84 105 137 184 229 267 316
#     4  11  22  34  52  82 113 144 179 226 279 325
#     4  10  20  37  57  81 112 147 187 226 269 331
#     4   9  16  33  58  77  99 142 190 220 258 326
#     4   9  18  32  52  77 106 139 181 219 258 323
#     4  10  18  31  51  76 106 141 177 214 258 314
#     4  10  18  35  60  80 102 143 190 228 269 327
#
# _framework density 21.742726000000001
#
# number of rings (size 3 to 8) (size 9 to 14) (size 15 to 20)
#    0.000    2.250    2.500    1.125    0.000    1.500 
#    0.000    1.875    0.000    3.000    0.000    0.000 
#    0.000    0.000    0.000    0.000    0.000    0.000 
#
# Total GULP energy -357575.360567 kJ/mol
# GULP energy per Si atom -5587.115009 kJ/mol
# Density = 2.169324 g / cm^3
# Si number density = 21.742726 Si / 1000 Ang^3
#
#
#
# Elastic Constant Matrix: (Units=GPa)
#
#
# Indices 1 2 3 4 5 6 
#
# 1 157.9441 -9.3349 53.3996 0.0000 0.0000 0.0000
# 2 -9.3349 63.3424 -3.0627 0.0000 0.0000 0.0000
# 3 53.3996 -3.0627 112.1658 0.0000 0.0000 0.0000
# 4 0.0000 0.0000 0.0000 1.2736 0.0000 0.0000
# 5 0.0000 0.0000 0.0000 0.0000 43.7911 0.0000
# 6 0.0000 0.0000 0.0000 0.0000 0.0000 8.3777
#
#
#
# Elastic Compliance Matrix: (Units=1/GPa)
#
#
# Indices 1 2 3 4 5 6 
#
# 1 0.007602 0.000947 -0.003593 0.000000 0.000000 0.000000
# 2 0.000947 0.015926 -0.000016 0.000000 0.000000 0.000000
# 3 -0.003593 -0.000016 0.010626 0.000000 0.000000 0.000000
# 4 0.000000 0.000000 0.000000 0.785163 0.000000 0.000000
# 5 0.000000 0.000000 0.000000 0.000000 0.022836 0.000000
# 6 0.000000 0.000000 0.000000 0.000000 0.000000 0.119364
#
#
# Mechanical properties :
#
#
# Convention : Reuss Voigt Hill
#
# Bulk Modulus (GPa) = 34.68772 46.16183 40.42477
# Shear Modulus (GPa) = 5.12058 30.18518 17.65288
#
# Velocity S-wave (km/s) = 1.53629 3.73002 2.85247
# Velocity P-wave (km/s) = 4.37439 6.31092 5.42969
#
# Compressibility (1/GPa) = 0.02882865
#
# Stress axis : x y z
#
# Youngs Moduli (GPa) = 131.54096 62.79064 94.11172
#
# Poissons Ratio (x) = -0.05944 0.33818
# Poissons Ratio (y) = -0.12452 0.00149
# Poissons Ratio (z) = 0.47268 0.00099
#
# Static dielectric constant tensor:
#      x y z
#    x 1.842630 0.000000 0.000000 
#    y 0.000000 1.834350 0.000000 
#    z 0.000000 0.000000 1.771260 
# 
# From -- ./inp_files/24720.got.cif
#   From: 2010.05.17/outbox.cif.g08.bks.cpg/sg62_13_cif.got.tgz:24720.got - 2010.06.03 15:25:27.
