data_PCOD9461545
_publ_section_title
;
Structure prediction by ZEFSAII (Michael W. Deem and Ramdas Pophale) SiO2 
 PCOD9461545
Probable space group: P N M A
;
_chemical_formula_sum "Si O2"
_cell_formula_units_Z 48
_cell_length_a 8.539954
_cell_length_b 29.690160
_cell_length_c 7.470762
_cell_angle_alpha 90.000000
_cell_angle_beta 90.000000
_cell_angle_gamma 90.000000
_cell_volume 1894.231134
_symmetry_space_group_name_H-M "P N M A"
_symmetry_group_IT_number 62
_symmetry_cell_setting 'orthorhombic'
loop_
_space_group_symop_operation_xyz
x,y,z
1/2-x,-y,1/2+z
1/2+x,1/2-y,1/2-z
-x,1/2+y,-z
-x,-y,-z
1/2+x,y,1/2-z
1/2-x,1/2+y,1/2+z
x,1/2-y,z
loop_
_atom_site_type_symbol
_atom_site_label
_atom_site_fract_x
_atom_site_fract_y
_atom_site_fract_z
Si Si1 0.995676 0.065987 0.347811
Si Si2 0.481080 0.437122 0.578154
Si Si3 0.254542 0.497586 0.987664
Si Si4 0.401401 0.750000 0.490852
Si Si5 0.641493 0.159217 0.123584
Si Si6 0.537545 0.750000 0.887244
Si Si7 0.501118 0.342066 0.514048
O O1 0.975029 0.071023 0.136534
O O2 0.838373 0.045810 0.428878
O O3 0.055606 0.112760 0.428642
O O4 0.121218 0.027381 0.384179
O O5 0.322874 0.463844 0.614330
O O6 0.610564 0.474544 0.614922
O O7 0.511277 0.386402 0.638170
O O8 0.512488 0.750000 0.670022
O O9 0.219202 0.750000 0.553201
O O10 0.449808 0.795686 0.391511
O O11 0.551753 0.204028 0.060024
O O12 0.822359 0.159642 0.062334
O O13 0.620321 0.157582 0.341925
#
# Coordination Sequence:
#
# PCOD9461545 Si02
#       7
#     8   8   8   4   8   4   8
#     4  10  20  32  49  67  95 129 162 194 237 276
#     4  10  20  32  49  67  95 129 162 194 237 276
#     4  10  20  32  46  70  90 124 168 200 228 278
#     4  10  18  26  40  62  86 118 157 190 219 274
#     4  10  18  28  43  62  88 124 157 189 226 275
#     4  10  18  26  40  62  86 118 157 190 219 274
#     4  10  18  28  43  62  88 124 157 189 226 275
#
# _framework density 25.340095000000002
#
# number of rings (size 3 to 8) (size 9 to 14) (size 15 to 20)
#    0.000    2.000    1.667    5.500    9.333    0.000 
#    0.000    0.000    0.000    0.000    0.000    0.000 
#    0.000    0.000    0.000  105.000    0.000   11.667 
#
# Total GULP energy -268298.973892 kJ/mol
# GULP energy per Si atom -5589.561956 kJ/mol
# Density = 2.528242 g / cm^3
# Si number density = 25.340095 Si / 1000 Ang^3
#
#
#
# Elastic Constant Matrix: (Units=GPa)
#
#
# Indices 1 2 3 4 5 6 
#
# 1 106.1543 31.8959 11.0946 0.0000 0.0000 0.0000
# 2 31.8959 223.7114 10.8248 0.0000 0.0000 0.0000
# 3 11.0946 10.8248 48.0048 0.0000 0.0000 0.0000
# 4 0.0000 0.0000 0.0000 10.9146 0.0000 0.0000
# 5 0.0000 0.0000 0.0000 0.0000 8.8106 0.0000
# 6 0.0000 0.0000 0.0000 0.0000 0.0000 50.5402
#
#
#
# Elastic Compliance Matrix: (Units=1/GPa)
#
#
# Indices 1 2 3 4 5 6 
#
# 1 0.010032 -0.001333 -0.002018 0.000000 0.000000 0.000000
# 2 -0.001333 0.004696 -0.000751 0.000000 0.000000 0.000000
# 3 -0.002018 -0.000751 0.021467 0.000000 0.000000 0.000000
# 4 0.000000 0.000000 0.000000 0.091620 0.000000 0.000000
# 5 0.000000 0.000000 0.000000 0.000000 0.113500 0.000000
# 6 0.000000 0.000000 0.000000 0.000000 0.000000 0.019786
#
#
# Mechanical properties :
#
#
# Convention : Reuss Voigt Hill
#
# Bulk Modulus (GPa) = 35.72481 53.94458 44.83470
# Shear Modulus (GPa) = 17.94464 35.65676 26.80070
#
# Velocity S-wave (km/s) = 2.66400 3.75524 3.25567
# Velocity P-wave (km/s) = 4.85708 6.33537 5.64483
#
# Compressibility (1/GPa) = 0.02799175
#
# Stress axis : x y z
#
# Youngs Moduli (GPa) = 99.68539 212.92980 46.58321
#
# Poissons Ratio (x) = 0.28375 0.09400
# Poissons Ratio (y) = 0.13284 0.03498
# Poissons Ratio (z) = 0.20116 0.15991
#
# Static dielectric constant tensor:
#      x y z
#    x 1.972210 0.000000 0.000000 
#    y 0.000000 2.119960 0.000000 
#    z 0.000000 0.000000 2.076440 
# 
# From -- ./inp_files/11485.got.cif
#   From: 2010.05.17/outbox.cif.g08.bks.cpg/sg62_6_cif.got.tgz:11485.got - 2010.06.03 15:25:27.
