data_PCOD9461329
_publ_section_title
;
Structure prediction by ZEFSAII (Michael W. Deem and Ramdas Pophale) SiO2 
 PCOD9461329
Probable space group: P N M A
;
_chemical_formula_sum "Si O2"
_cell_formula_units_Z 64
_cell_length_a 5.468490
_cell_length_b 28.269787
_cell_length_c 20.928779
_cell_angle_alpha 90.000000
_cell_angle_beta 90.000000
_cell_angle_gamma 90.000000
_cell_volume 3235.443726
_symmetry_space_group_name_H-M "P N M A"
_symmetry_group_IT_number 62
_symmetry_cell_setting 'orthorhombic'
loop_
_space_group_symop_operation_xyz
x,y,z
1/2-x,-y,1/2+z
1/2+x,1/2-y,1/2-z
-x,1/2+y,-z
-x,-y,-z
1/2+x,y,1/2-z
1/2-x,1/2+y,1/2+z
x,1/2-y,z
loop_
_atom_site_type_symbol
_atom_site_label
_atom_site_fract_x
_atom_site_fract_y
_atom_site_fract_z
Si Si1 0.721472 0.547183 0.650709
Si Si2 0.762749 0.045218 0.993721
Si Si3 0.737374 0.934150 0.991726
Si Si4 0.342615 0.697385 0.208221
Si Si5 0.566017 0.441816 0.680424
Si Si6 0.934835 0.594887 0.327196
Si Si7 0.359611 0.198323 0.209544
Si Si8 0.778180 0.401421 0.351074
O O1 0.731670 0.544272 0.572455
O O2 0.658139 0.495757 0.678054
O O3 0.490136 0.580055 0.669754
O O4 0.988212 0.566791 0.670523
O O5 0.518076 0.071266 0.973781
O O6 0.007659 0.071220 0.973783
O O7 0.748389 0.990554 0.973112
O O8 0.729967 0.904884 0.927487
O O9 0.587489 0.694902 0.252405
O O10 0.347719 0.750000 0.177710
O O11 0.358601 0.649596 0.167288
O O12 0.539608 0.420428 0.751846
O O13 0.294154 0.437250 0.651340
O O14 0.790554 0.413536 0.649113
O O15 0.626007 0.196459 0.242768
O O16 0.343447 0.250000 0.177097
O O17 0.329240 0.151908 0.167960
#
# Coordination Sequence:
#
# PCOD9461329 Si02
#       8
#     8   8   8   8   8   8   8   8
#     4  10  19  30  43  65  93 117 150 180 211 260
#     4   8  14  25  41  62  87 116 135 164 211 249
#     4   8  14  25  44  63  86 111 135 169 212 249
#     4  10  16  25  41  56  68  89 126 176 215 235
#     4  10  18  28  38  51  78 117 139 167 203 248
#     4  10  17  30  38  51  78 108 141 170 210 239
#     4  10  21  38  53  66  88 121 154 196 251 289
#     4  10  19  33  47  68  88 109 151 194 215 263
#
# _framework density 19.780902000000001
#
# number of rings (size 3 to 8) (size 9 to 14) (size 15 to 20)
#    0.000    2.500    2.500    1.500    0.000    0.000 
#   13.500    0.000    0.000    0.000    0.000    0.000 
#    0.000    3.000    0.000    0.000    0.000    0.000 
#
# Total GULP energy -356743.664495 kJ/mol
# GULP energy per Si atom -5574.119758 kJ/mol
# Density = 1.973588 g / cm^3
# Si number density = 19.780902 Si / 1000 Ang^3
#
#
#
# Elastic Constant Matrix: (Units=GPa)
#
#
# Indices 1 2 3 4 5 6 
#
# 1 169.4658 5.6922 8.5143 0.0000 0.0000 0.0000
# 2 5.6922 105.0376 8.2804 0.0000 0.0000 0.0000
# 3 8.5143 8.2804 46.0777 0.0000 0.0000 0.0000
# 4 0.0000 0.0000 0.0000 3.2828 0.0000 0.0000
# 5 0.0000 0.0000 0.0000 0.0000 16.8285 0.0000
# 6 0.0000 0.0000 0.0000 0.0000 0.0000 32.1679
#
#
#
# Elastic Compliance Matrix: (Units=1/GPa)
#
#
# Indices 1 2 3 4 5 6 
#
# 1 0.005962 -0.000240 -0.001059 0.000000 0.000000 0.000000
# 2 -0.000240 0.009667 -0.001693 0.000000 0.000000 0.000000
# 3 -0.001059 -0.001693 0.022202 0.000000 0.000000 0.000000
# 4 0.000000 0.000000 0.000000 0.304614 0.000000 0.000000
# 5 0.000000 0.000000 0.000000 0.000000 0.059423 0.000000
# 6 0.000000 0.000000 0.000000 0.000000 0.000000 0.031087
#
#
# Mechanical properties :
#
#
# Convention : Reuss Voigt Hill
#
# Bulk Modulus (GPa) = 31.39820 40.61720 36.00770
# Shear Modulus (GPa) = 11.12213 30.32880 20.72546
#
# Velocity S-wave (km/s) = 2.37379 3.91990 3.24041
# Velocity P-wave (km/s) = 4.83948 6.40825 5.67830
#
# Compressibility (1/GPa) = 0.03184896
#
# Stress axis : x y z
#
# Youngs Moduli (GPa) = 167.72519 103.44642 45.04032
#
# Poissons Ratio (x) = 0.02479 0.04768
# Poissons Ratio (y) = 0.04019 0.07625
# Poissons Ratio (z) = 0.17756 0.17512
#
# Static dielectric constant tensor:
#      x y z
#    x 1.812640 0.000000 0.000000 
#    y 0.000000 1.665260 0.000000 
#    z 0.000000 0.000000 1.222780 
# 
# From -- ./inp_files/28446.got.cif
#   From: 2010.05.17/outbox.cif.g08.bks.cpg/sg62_15_cif.got.tgz:28446.got - 2010.06.03 15:25:27.
