data_PCOD9461012
_publ_section_title
;
Structure prediction by ZEFSAII (Michael W. Deem and Ramdas Pophale) SiO2 
 PCOD9461012
Probable space group: P B C A
;
_chemical_formula_sum "Si O2"
_cell_formula_units_Z 40
_cell_length_a 9.270130
_cell_length_b 14.976313
_cell_length_c 9.690617
_cell_angle_alpha 90.000000
_cell_angle_beta 90.000000
_cell_angle_gamma 90.000000
_cell_volume 1345.371310
_symmetry_space_group_name_H-M "P B C A"
_symmetry_group_IT_number 61
_symmetry_cell_setting 'orthorhombic'
loop_
_space_group_symop_operation_xyz
x,y,z
1/2-x,-y,1/2+z
1/2+x,1/2-y,-z
-x,1/2+y,1/2-z
-x,-y,-z
1/2+x,y,1/2-z
1/2-x,1/2+y,z
x,1/2-y,1/2+z
loop_
_atom_site_type_symbol
_atom_site_label
_atom_site_fract_x
_atom_site_fract_y
_atom_site_fract_z
Si Si1 0.185534 0.483008 0.498248
Si Si2 0.206756 0.209801 0.711590
Si Si3 0.966218 0.139272 0.518217
Si Si4 0.988697 0.326235 0.423241
Si Si5 0.678787 0.406066 0.719100
O O1 0.335069 0.428585 0.458151
O O2 0.046687 0.422562 0.461524
O O3 0.205018 0.569681 0.399932
O O4 0.185877 0.482081 0.664571
O O5 0.104010 0.144783 0.621274
O O6 0.366560 0.175174 0.692839
O O7 0.136609 0.211553 0.861040
O O8 0.205433 0.316919 0.688124
O O9 0.931480 0.246026 0.518711
O O10 0.031979 0.109423 0.368025
#
# Coordination Sequence:
#
# PCOD9461012 Si02
#       5
#     8   8   8   8   8
#     4  12  26  52  81 125 172 215 272 351 427 494
#     4  11  24  48  80 117 154 218 278 339 397 495
#     4  11  23  48  82 112 162 216 283 337 402 500
#     4  11  23  45  80 111 158 213 281 330 407 489
#     4  11  27  47  81 124 169 216 268 351 424 494
#
# _framework density 29.731570000000001
#
# number of rings (size 3 to 8) (size 9 to 14) (size 15 to 20)
#    0.000    0.800    4.000    1.800    2.800    3.200 
#    3.600    2.000    0.000    0.000    0.000    0.000 
#    0.000    0.000    0.000    0.000    0.000    0.000 
#
# Total GULP energy -223844.470080 kJ/mol
# GULP energy per Si atom -5596.111752 kJ/mol
# Density = 2.966390 g / cm^3
# Si number density = 29.731570 Si / 1000 Ang^3
#
#
#
# Elastic Constant Matrix: (Units=GPa)
#
#
# Indices 1 2 3 4 5 6 
#
# 1 158.8465 20.7873 30.5587 0.0000 0.0000 0.0000
# 2 20.7873 159.5327 17.0949 0.0000 0.0000 0.0000
# 3 30.5587 17.0949 105.7214 0.0000 0.0000 0.0000
# 4 0.0000 0.0000 0.0000 51.2463 0.0000 0.0000
# 5 0.0000 0.0000 0.0000 0.0000 56.6900 0.0000
# 6 0.0000 0.0000 0.0000 0.0000 0.0000 47.5804
#
#
#
# Elastic Compliance Matrix: (Units=1/GPa)
#
#
# Indices 1 2 3 4 5 6 
#
# 1 0.006738 -0.000681 -0.001837 0.000000 0.000000 0.000000
# 2 -0.000681 0.006448 -0.000846 0.000000 0.000000 0.000000
# 3 -0.001837 -0.000846 0.010127 0.000000 0.000000 0.000000
# 4 0.000000 0.000000 0.000000 0.019514 0.000000 0.000000
# 5 0.000000 0.000000 0.000000 0.000000 0.017640 0.000000
# 6 0.000000 0.000000 0.000000 0.000000 0.000000 0.021017
#
#
# Mechanical properties :
#
#
# Convention : Reuss Voigt Hill
#
# Bulk Modulus (GPa) = 60.29967 62.33137 61.31552
# Shear Modulus (GPa) = 53.33941 54.81399 54.07670
#
# Velocity S-wave (km/s) = 4.24020 4.29841 4.26940
# Velocity P-wave (km/s) = 6.65566 6.75613 6.70608
#
# Compressibility (1/GPa) = 0.01658384
#
# Stress axis : x y z
#
# Youngs Moduli (GPa) = 148.41182 155.09461 98.74886
#
# Poissons Ratio (x) = 0.10563 0.18145
# Poissons Ratio (y) = 0.10108 0.08351
# Poissons Ratio (z) = 0.27270 0.13117
#
# Static dielectric constant tensor:
#      x y z
#    x 2.307880 0.000000 0.000000 
#    y 0.000000 2.554350 0.000000 
#    z 0.000000 0.000000 2.317260 
# 
# From -- ./inp_files/4786.got.cif
#   From: 2010.05.17/outbox.cif.g08.bks.cpg/sg61_3_cif.got.tgz:4786.got - 2010.06.03 15:17:17.
