data_PCOD9461702
_publ_section_title
;
Structure prediction by ZEFSAII (Michael W. Deem and Ramdas Pophale) SiO2 
 PCOD9461702
Probable space group: P N M A
;
_chemical_formula_sum "Si O2"
_cell_formula_units_Z 56
_cell_length_a 18.826629
_cell_length_b 8.767304
_cell_length_c 21.320286
_cell_angle_alpha 90.000000
_cell_angle_beta 90.000000
_cell_angle_gamma 90.000000
_cell_volume 3519.100391
_symmetry_space_group_name_H-M "P N M A"
_symmetry_group_IT_number 62
_symmetry_cell_setting 'orthorhombic'
loop_
_space_group_symop_operation_xyz
x,y,z
1/2-x,-y,1/2+z
1/2+x,1/2-y,1/2-z
-x,1/2+y,-z
-x,-y,-z
1/2+x,y,1/2-z
1/2-x,1/2+y,1/2+z
x,1/2-y,z
loop_
_atom_site_type_symbol
_atom_site_label
_atom_site_fract_x
_atom_site_fract_y
_atom_site_fract_z
Si Si1 0.852186 0.432445 0.871298
Si Si2 0.791865 0.575047 0.678121
Si Si3 0.716181 0.926466 0.814990
Si Si4 0.572821 0.065624 0.247632
Si Si5 0.657460 0.067484 0.623805
Si Si6 0.417317 0.566534 0.245943
Si Si7 0.579213 0.065705 0.496672
O O1 0.856452 0.250000 0.871620
O O2 0.771398 0.487206 0.859599
O O3 0.898436 0.496775 0.813033
O O4 0.882667 0.501624 0.935090
O O5 0.795843 0.750000 0.657161
O O6 0.754404 0.572284 0.746680
O O7 0.871044 0.518036 0.693410
O O8 0.738163 0.486585 0.633441
O O9 0.707732 0.750000 0.833624
O O10 0.641151 0.007515 0.803435
O O11 0.575075 0.250000 0.251763
O O12 0.493993 0.006564 0.235709
O O13 0.657045 0.250000 0.624342
O O14 0.611648 0.018798 0.684808
O O15 0.621465 0.016839 0.559357
O O16 0.421430 0.750000 0.244431
O O17 0.577010 0.250000 0.494569
O O18 0.500000 0.000000 0.500000
#
# Coordination Sequence:
#
# PCOD9461702 Si02
#       7
#     8   8   8   8   8   8   8
#     4  11  21  33  48  68  94 127 164 201 237 279
#     4   8  16  29  46  66  89 118 154 190 231 278
#     4   9  17  31  48  67  92 124 157 193 237 285
#     4  10  19  31  47  70  97 126 157 194 239 286
#     4   9  19  32  46  65  92 123 157 192 229 273
#     4  10  18  29  47  73  99 124 155 195 238 282
#     4  11  22  35  49  69  96 128 163 197 232 277
#
# _framework density 15.913159
#
# number of rings (size 3 to 8) (size 9 to 14) (size 15 to 20)
#    0.000    2.286    0.000    4.714    0.000    6.857 
#    0.000    0.000    0.000    0.000    0.000    1.000 
#    0.000    0.000    0.000    0.000    0.000    0.000 
#
# Total GULP energy -312252.489810 kJ/mol
# GULP energy per Si atom -5575.937318 kJ/mol
# Density = 1.587694 g / cm^3
# Si number density = 15.913159 Si / 1000 Ang^3
#
#
#
# Elastic Constant Matrix: (Units=GPa)
#
#
# Indices 1 2 3 4 5 6 
#
# 1 166.3372 51.3033 65.7041 0.0000 0.0000 0.0000
# 2 51.3033 74.7808 33.3490 0.0000 0.0000 0.0000
# 3 65.7041 33.3490 73.7861 0.0000 0.0000 0.0000
# 4 0.0000 0.0000 0.0000 19.7693 0.0000 0.0000
# 5 0.0000 0.0000 0.0000 0.0000 25.8867 0.0000
# 6 0.0000 0.0000 0.0000 0.0000 0.0000 32.5296
#
#
#
# Elastic Compliance Matrix: (Units=1/GPa)
#
#
# Indices 1 2 3 4 5 6 
#
# 1 0.009999 -0.003618 -0.007268 0.000000 0.000000 0.000000
# 2 -0.003618 0.018058 -0.004939 0.000000 0.000000 0.000000
# 3 -0.007268 -0.004939 0.022257 0.000000 0.000000 0.000000
# 4 0.000000 0.000000 0.000000 0.050583 0.000000 0.000000
# 5 0.000000 0.000000 0.000000 0.000000 0.038630 0.000000
# 6 0.000000 0.000000 0.000000 0.000000 0.000000 0.030741
#
#
# Mechanical properties :
#
#
# Convention : Reuss Voigt Hill
#
# Bulk Modulus (GPa) = 53.58591 68.40186 60.99389
# Shear Modulus (GPa) = 24.02216 26.60697 25.31457
#
# Velocity S-wave (km/s) = 3.88954 4.09346 3.99280
# Velocity P-wave (km/s) = 7.34292 8.08824 7.72458
#
# Compressibility (1/GPa) = 0.01866162
#
# Stress axis : x y z
#
# Youngs Moduli (GPa) = 100.01075 55.37842 44.92900
#
# Poissons Ratio (x) = 0.20038 0.32656
# Poissons Ratio (y) = 0.36188 0.22192
# Poissons Ratio (z) = 0.72691 0.27354
#
# Static dielectric constant tensor:
#      x y z
#    x 1.536190 0.000000 0.000000 
#    y 0.000000 1.538810 0.000000 
#    z 0.000000 0.000000 1.514300 
# 
# From -- ./inp_files/27519.got.cif
#   From: 2010.05.17/outbox.cif.g08.bks.cpg/sg62_14_cif.got.tgz:27519.got - 2010.06.03 15:25:27.
