data_PCOD9461985
_publ_section_title
;
Structure prediction by ZEFSAII (Michael W. Deem and Ramdas Pophale) SiO2 
 PCOD9461985
Probable space group: P N M A
;
_chemical_formula_sum "Si O2"
_cell_formula_units_Z 48
_cell_length_a 18.763325
_cell_length_b 7.503174
_cell_length_c 17.107693
_cell_angle_alpha 90.000000
_cell_angle_beta 90.000000
_cell_angle_gamma 90.000000
_cell_volume 2408.497873
_symmetry_space_group_name_H-M "P N M A"
_symmetry_group_IT_number 62
_symmetry_cell_setting 'orthorhombic'
loop_
_space_group_symop_operation_xyz
x,y,z
1/2-x,-y,1/2+z
1/2+x,1/2-y,1/2-z
-x,1/2+y,-z
-x,-y,-z
1/2+x,y,1/2-z
1/2-x,1/2+y,1/2+z
x,1/2-y,z
loop_
_atom_site_type_symbol
_atom_site_label
_atom_site_fract_x
_atom_site_fract_y
_atom_site_fract_z
Si Si1 0.050139 0.967874 0.742245
Si Si2 0.672296 0.957886 0.649014
Si Si3 0.475818 0.963074 0.912537
Si Si4 0.097079 0.466615 0.176839
Si Si5 0.084338 0.461983 0.004555
Si Si6 0.330592 0.532147 0.835454
O O1 0.052306 0.750000 0.742699
O O2 0.122179 0.033920 0.782446
O O3 0.030605 0.026640 0.654641
O O4 0.982431 0.018601 0.795828
O O5 0.681950 0.750000 0.668501
O O6 0.752020 0.031845 0.642079
O O7 0.627683 0.966671 0.569065
O O8 0.473593 0.750000 0.904092
O O9 0.396584 0.028472 0.889540
O O10 0.500000 0.000000 0.000000
O O11 0.097706 0.250000 0.175098
O O12 0.111005 0.529098 0.089080
O O13 0.149790 0.519783 0.246455
O O14 0.093224 0.250000 0.002548
O O15 0.000000 0.500000 0.000000
O O16 0.331608 0.750000 0.838770
#
# Coordination Sequence:
#
# PCOD9461985 Si02
#       6
#     8   8   8   8   8   8
#     4   8  14  27  49  70  90 122 165 201 235 289
#     4  10  18  32  52  74  99 130 167 209 255 304
#     4   9  17  32  52  73  96 128 169 210 244 292
#     4   8  14  28  48  70  92 122 163 200 231 285
#     4  11  20  31  51  78 106 133 166 208 251 300
#     4   8  16  31  52  71  94 130 170 205 247 297
#
# _framework density 19.929433
#
# number of rings (size 3 to 8) (size 9 to 14) (size 15 to 20)
#    0.000    3.000    1.667    2.500    0.000    0.000 
#    3.000    1.667    0.000    2.000    0.000    0.000 
#    0.000    0.000    0.000    0.000    0.000    0.000 
#
# Total GULP energy -267600.239308 kJ/mol
# GULP energy per Si atom -5575.004986 kJ/mol
# Density = 1.988407 g / cm^3
# Si number density = 19.929433 Si / 1000 Ang^3
#
#
#
# Elastic Constant Matrix: (Units=GPa)
#
#
# Indices 1 2 3 4 5 6 
#
# 1 161.7434 0.9218 100.7661 0.0000 0.0000 0.0000
# 2 0.9218 51.0176 -6.9261 0.0000 0.0000 0.0000
# 3 100.7661 -6.9261 166.2464 0.0000 0.0000 0.0000
# 4 0.0000 0.0000 0.0000 19.7539 0.0000 0.0000
# 5 0.0000 0.0000 0.0000 0.0000 22.3007 0.0000
# 6 0.0000 0.0000 0.0000 0.0000 0.0000 3.8415
#
#
#
# Elastic Compliance Matrix: (Units=1/GPa)
#
#
# Indices 1 2 3 4 5 6 
#
# 1 0.009985 -0.001008 -0.006094 0.000000 0.000000 0.000000
# 2 -0.001008 0.019814 0.001436 0.000000 0.000000 0.000000
# 3 -0.006094 0.001436 0.009769 0.000000 0.000000 0.000000
# 4 0.000000 0.000000 0.000000 0.050623 0.000000 0.000000
# 5 0.000000 0.000000 0.000000 0.000000 0.044842 0.000000
# 6 0.000000 0.000000 0.000000 0.000000 0.000000 0.260313
#
#
# Mechanical properties :
#
#
# Convention : Reuss Voigt Hill
#
# Bulk Modulus (GPa) = 35.41457 63.17010 49.29234
# Shear Modulus (GPa) = 12.01665 28.12893 20.07279
#
# Velocity S-wave (km/s) = 2.45819 3.76097 3.17707
# Velocity P-wave (km/s) = 5.08581 7.11517 6.18430
#
# Compressibility (1/GPa) = 0.02823696
#
# Stress axis : x y z
#
# Youngs Moduli (GPa) = 100.14990 50.46864 102.36640
#
# Poissons Ratio (x) = 0.05086 0.62384
# Poissons Ratio (y) = 0.10093 -0.14703
# Poissons Ratio (z) = 0.61033 -0.07249
#
# Static dielectric constant tensor:
#      x y z
#    x 1.667700 0.000000 0.000000 
#    y 0.000000 1.773330 0.000000 
#    z 0.000000 0.000000 1.691790 
# 
# From -- ./inp_files/24197.got.cif
#   From: 2010.05.17/outbox.cif.g08.bks.cpg/sg62_13_cif.got.tgz:24197.got - 2010.06.03 15:25:27.
