data_PCOD9461615
_publ_section_title
;
Structure prediction by ZEFSAII (Michael W. Deem and Ramdas Pophale) SiO2 
 PCOD9461615
Probable space group: P N M A
;
_chemical_formula_sum "Si O2"
_cell_formula_units_Z 56
_cell_length_a 21.601910
_cell_length_b 8.292300
_cell_length_c 19.029729
_cell_angle_alpha 90.000000
_cell_angle_beta 90.000000
_cell_angle_gamma 90.000000
_cell_volume 3408.786189
_symmetry_space_group_name_H-M "P N M A"
_symmetry_group_IT_number 62
_symmetry_cell_setting 'orthorhombic'
loop_
_space_group_symop_operation_xyz
x,y,z
1/2-x,-y,1/2+z
1/2+x,1/2-y,1/2-z
-x,1/2+y,-z
-x,-y,-z
1/2+x,y,1/2-z
1/2-x,1/2+y,1/2+z
x,1/2-y,z
loop_
_atom_site_type_symbol
_atom_site_label
_atom_site_fract_x
_atom_site_fract_y
_atom_site_fract_z
Si Si1 0.124708 0.946750 0.343659
Si Si2 0.746727 0.444973 0.581813
Si Si3 0.695931 0.937961 0.717668
Si Si4 0.999616 0.554896 0.419648
Si Si5 0.253425 0.059034 0.078129
Si Si6 0.375240 0.941842 0.158262
Si Si7 0.184067 0.937720 0.205636
O O1 0.124694 0.750000 0.342226
O O2 0.185136 0.993623 0.389126
O O3 0.134727 0.000029 0.262834
O O4 0.061576 0.001012 0.379721
O O5 0.742971 0.250000 0.585082
O O6 0.696977 0.517505 0.635913
O O7 0.740451 0.496036 0.501103
O O8 0.711363 0.750000 0.726544
O O9 0.637385 0.978326 0.766004
O O10 0.751377 0.042970 0.751568
O O11 0.999869 0.750000 0.418876
O O12 0.937423 0.500683 0.379983
O O13 0.000000 0.500000 0.500000
O O14 0.264719 0.250000 0.076407
O O15 0.315632 0.980385 0.109719
O O16 0.197817 0.024016 0.132365
O O17 0.378867 0.750000 0.167850
O O18 0.172568 0.750000 0.191756
#
# Coordination Sequence:
#
# PCOD9461615 Si02
#       7
#     8   8   8   8   8   8   8
#     4   8  15  29  45  60  83 117 150 175 207 254
#     4   9  17  29  45  64  88 116 142 175 220 264
#     4  10  18  28  44  63  85 113 146 183 219 259
#     4  10  20  32  46  65  89 119 153 183 212 251
#     4  10  18  28  45  67  91 117 144 179 222 265
#     4  10  19  30  44  63  90 121 151 182 215 256
#     4   9  16  28  45  62  85 115 145 179 218 261
#
# _framework density 16.428134
#
# number of rings (size 3 to 8) (size 9 to 14) (size 15 to 20)
#    0.000    2.571    0.000    6.000    0.000    3.429 
#    0.000    5.000    0.000    0.000    0.000    1.000 
#    0.000    0.000    0.000    0.000    0.000    0.000 
#
# Total GULP energy -311988.360532 kJ/mol
# GULP energy per Si atom -5571.220724 kJ/mol
# Density = 1.639074 g / cm^3
# Si number density = 16.428134 Si / 1000 Ang^3
#
#
#
# Elastic Constant Matrix: (Units=GPa)
#
#
# Indices 1 2 3 4 5 6 
#
# 1 77.3341 6.9748 65.7513 0.0000 0.0000 0.0000
# 2 6.9748 19.2838 12.6253 0.0000 0.0000 0.0000
# 3 65.7513 12.6253 161.3595 0.0000 0.0000 0.0000
# 4 0.0000 0.0000 0.0000 26.1684 0.0000 0.0000
# 5 0.0000 0.0000 0.0000 0.0000 27.9674 0.0000
# 6 0.0000 0.0000 0.0000 0.0000 0.0000 7.7718
#
#
#
# Elastic Compliance Matrix: (Units=1/GPa)
#
#
# Indices 1 2 3 4 5 6 
#
# 1 0.019858 -0.001986 -0.007936 0.000000 0.000000 0.000000
# 2 -0.001986 0.054856 -0.003483 0.000000 0.000000 0.000000
# 3 -0.007936 -0.003483 0.009704 0.000000 0.000000 0.000000
# 4 0.000000 0.000000 0.000000 0.038214 0.000000 0.000000
# 5 0.000000 0.000000 0.000000 0.000000 0.035756 0.000000
# 6 0.000000 0.000000 0.000000 0.000000 0.000000 0.128671
#
#
# Mechanical properties :
#
#
# Convention : Reuss Voigt Hill
#
# Bulk Modulus (GPa) = 17.35921 47.63116 32.49518
# Shear Modulus (GPa) = 15.01182 23.88990 19.45086
#
# Velocity S-wave (km/s) = 3.02617 3.81754 3.44466
# Velocity P-wave (km/s) = 4.77493 6.96334 5.97026
#
# Compressibility (1/GPa) = 0.05760630
#
# Stress axis : x y z
#
# Youngs Moduli (GPa) = 50.35840 18.22968 103.05320
#
# Poissons Ratio (x) = 0.03621 0.81786
# Poissons Ratio (y) = 0.10003 0.35890
# Poissons Ratio (z) = 0.39966 0.06349
#
# Static dielectric constant tensor:
#      x y z
#    x 1.544200 0.000000 0.000000 
#    y 0.000000 1.571260 0.000000 
#    z 0.000000 0.000000 1.584160 
# 
# From -- ./inp_files/27847.got.cif
#   From: 2010.05.17/outbox.cif.g08.bks.cpg/sg62_14_cif.got.tgz:27847.got - 2010.06.03 15:25:27.
