data_PCOD9461469
_publ_section_title
;
Structure prediction by ZEFSAII (Michael W. Deem and Ramdas Pophale) SiO2 
 PCOD9461469
Probable space group: P N M A
;
_chemical_formula_sum "Si O2"
_cell_formula_units_Z 56
_cell_length_a 20.078645
_cell_length_b 7.799609
_cell_length_c 19.711384
_cell_angle_alpha 90.000000
_cell_angle_beta 90.000000
_cell_angle_gamma 90.000000
_cell_volume 3086.912729
_symmetry_space_group_name_H-M "P N M A"
_symmetry_group_IT_number 62
_symmetry_cell_setting 'orthorhombic'
loop_
_space_group_symop_operation_xyz
x,y,z
1/2-x,-y,1/2+z
1/2+x,1/2-y,1/2-z
-x,1/2+y,-z
-x,-y,-z
1/2+x,y,1/2-z
1/2-x,1/2+y,1/2+z
x,1/2-y,z
loop_
_atom_site_type_symbol
_atom_site_label
_atom_site_fract_x
_atom_site_fract_y
_atom_site_fract_z
Si Si1 0.270439 0.458352 0.345657
Si Si2 0.951216 0.053377 0.560813
Si Si3 0.232827 0.542785 0.628020
Si Si4 0.302716 0.952506 0.976271
Si Si5 0.160931 0.459346 0.233722
Si Si6 0.124334 0.960173 0.739544
Si Si7 0.477124 0.550005 0.787880
O O1 0.273504 0.250000 0.346514
O O2 0.250434 0.516626 0.420521
O O3 0.209491 0.506337 0.295963
O O4 0.337816 0.515255 0.308205
O O5 0.964690 0.250000 0.576637
O O6 0.875110 0.032592 0.536867
O O7 0.964023 0.957108 0.631418
O O8 0.000000 0.000000 0.500000
O O9 0.232705 0.750000 0.627073
O O10 0.222024 0.481256 0.552198
O O11 0.300795 0.486865 0.665519
O O12 0.171629 0.488860 0.676650
O O13 0.311922 0.750000 0.964928
O O14 0.159031 0.250000 0.233381
O O15 0.087099 0.524363 0.249299
O O16 0.123540 0.750000 0.738722
O O17 0.049397 0.023579 0.729956
O O18 0.480043 0.750000 0.768551
#
# Coordination Sequence:
#
# PCOD9461469 Si02
#       7
#     8   8   8   8   8   8   8
#     4   8  14  27  46  69  94 122 159 201 245 291
#     4  12  24  35  48  71 105 137 165 196 245 308
#     4   9  17  30  47  69  98 130 164 204 249 296
#     4  11  20  32  51  72  98 130 165 206 250 293
#     4   8  14  27  48  69  93 127 165 206 246 292
#     4   8  15  27  48  72  93 121 160 204 242 286
#     4  10  17  30  52  76  97 125 167 210 248 287
#
# _framework density 18.141103000000001
#
# number of rings (size 3 to 8) (size 9 to 14) (size 15 to 20)
#    0.000    2.571    1.429    4.286    0.000    1.143 
#    0.000    0.714    0.000    2.571    0.000    0.000 
#    0.000    0.000    0.000    0.000    0.000    0.143 
#
# Total GULP energy -312264.555919 kJ/mol
# GULP energy per Si atom -5576.152784 kJ/mol
# Density = 1.809981 g / cm^3
# Si number density = 18.141103 Si / 1000 Ang^3
#
#
#
# Elastic Constant Matrix: (Units=GPa)
#
#
# Indices 1 2 3 4 5 6 
#
# 1 158.9754 -1.9391 90.3071 0.0000 0.0000 0.0000
# 2 -1.9391 24.1905 -7.2602 0.0000 0.0000 0.0000
# 3 90.3071 -7.2602 89.7356 0.0000 0.0000 0.0000
# 4 0.0000 0.0000 0.0000 19.9346 0.0000 0.0000
# 5 0.0000 0.0000 0.0000 0.0000 25.4626 0.0000
# 6 0.0000 0.0000 0.0000 0.0000 0.0000 5.4982
#
#
#
# Elastic Compliance Matrix: (Units=1/GPa)
#
#
# Indices 1 2 3 4 5 6 
#
# 1 0.014954 -0.003401 -0.015324 0.000000 0.000000 0.000000
# 2 -0.003401 0.043141 0.006913 0.000000 0.000000 0.000000
# 3 -0.015324 0.006913 0.027125 0.000000 0.000000 0.000000
# 4 0.000000 0.000000 0.000000 0.050164 0.000000 0.000000
# 5 0.000000 0.000000 0.000000 0.000000 0.039273 0.000000
# 6 0.000000 0.000000 0.000000 0.000000 0.000000 0.181878
#
#
# Mechanical properties :
#
#
# Convention : Reuss Voigt Hill
#
# Bulk Modulus (GPa) = 16.23506 48.34632 32.29069
# Shear Modulus (GPa) = 12.47846 22.96532 17.72189
#
# Velocity S-wave (km/s) = 2.62555 3.56185 3.12892
# Velocity P-wave (km/s) = 4.26146 6.60482 5.55805
#
# Compressibility (1/GPa) = 0.06159509
#
# Stress axis : x y z
#
# Youngs Moduli (GPa) = 66.87264 23.17998 36.86653
#
# Poissons Ratio (x) = 0.07882 0.56495
# Poissons Ratio (y) = 0.22740 -0.25484
# Poissons Ratio (z) = 1.02477 -0.16023
#
# Static dielectric constant tensor:
#      x y z
#    x 1.630270 0.000000 0.000000 
#    y 0.000000 1.670720 0.000000 
#    z 0.000000 0.000000 1.516980 
# 
# From -- ./inp_files/24613.got.cif
#   From: 2010.05.17/outbox.cif.g08.bks.cpg/sg62_13_cif.got.tgz:24613.got - 2010.06.03 15:25:27.
