data_PCOD9461385
_publ_section_title
;
Structure prediction by ZEFSAII (Michael W. Deem and Ramdas Pophale) SiO2 
 PCOD9461385
Probable space group: P N M A
;
_chemical_formula_sum "Si O2"
_cell_formula_units_Z 48
_cell_length_a 8.151529
_cell_length_b 24.318190
_cell_length_c 16.137569
_cell_angle_alpha 90.000000
_cell_angle_beta 90.000000
_cell_angle_gamma 90.000000
_cell_volume 3198.957258
_symmetry_space_group_name_H-M "P N M A"
_symmetry_group_IT_number 62
_symmetry_cell_setting 'orthorhombic'
loop_
_space_group_symop_operation_xyz
x,y,z
1/2-x,-y,1/2+z
1/2+x,1/2-y,1/2-z
-x,1/2+y,-z
-x,-y,-z
1/2+x,y,1/2-z
1/2-x,1/2+y,1/2+z
x,1/2-y,z
loop_
_atom_site_type_symbol
_atom_site_label
_atom_site_fract_x
_atom_site_fract_y
_atom_site_fract_z
Si Si1 0.604277 0.985784 0.217691
Si Si2 0.472347 0.313147 0.799856
Si Si3 0.812654 0.916404 0.339866
Si Si4 0.905383 0.476871 0.126011
Si Si5 0.108752 0.187176 0.876705
Si Si6 0.020433 0.583991 0.033354
O O1 0.528769 0.016793 0.296868
O O2 0.725809 0.023342 0.165549
O O3 0.706126 0.934727 0.258813
O O4 0.458671 0.961078 0.162675
O O5 0.525324 0.250000 0.815857
O O6 0.598299 0.357997 0.833807
O O7 0.482697 0.320033 0.700294
O O8 0.291036 0.319563 0.837856
O O9 0.693540 0.918523 0.418019
O O10 0.918358 0.533615 0.073477
O O11 0.951366 0.428996 0.062680
O O12 0.095408 0.250000 0.906783
O O13 0.066878 0.140812 0.943168
#
# Coordination Sequence:
#
# PCOD9461385 Si02
#       6
#     8   8   8   8   8   8
#     4   9  17  30  45  60  83 115 146 173 211 256
#     4  10  18  27  41  61  87 122 154 170 192 244
#     4  10  17  26  42  62  88 117 143 176 208 242
#     4   9  18  31  46  64  87 113 142 176 214 257
#     4  10  19  29  42  61  88 120 149 176 206 245
#     4  10  19  29  43  66  91 113 140 177 217 249
#
# _framework density 15.004889
#
# number of rings (size 3 to 8) (size 9 to 14) (size 15 to 20)
#    0.000    2.333    0.000    6.000    0.000    2.667 
#    0.000    3.333    0.000    0.000    0.000    1.167 
#    0.000    0.000    0.000    0.000    0.000    0.000 
#
# Total GULP energy -267604.660437 kJ/mol
# GULP energy per Si atom -5575.097092 kJ/mol
# Density = 1.497074 g / cm^3
# Si number density = 15.004889 Si / 1000 Ang^3
#
#
#
# Elastic Constant Matrix: (Units=GPa)
#
#
# Indices 1 2 3 4 5 6 
#
# 1 62.6967 20.4840 17.8229 0.0000 0.0000 0.0000
# 2 20.4840 73.5955 31.0280 0.0000 0.0000 0.0000
# 3 17.8229 31.0280 50.5955 0.0000 0.0000 0.0000
# 4 0.0000 0.0000 0.0000 22.1584 0.0000 0.0000
# 5 0.0000 0.0000 0.0000 0.0000 9.9734 0.0000
# 6 0.0000 0.0000 0.0000 0.0000 0.0000 16.6518
#
#
#
# Elastic Compliance Matrix: (Units=1/GPa)
#
#
# Indices 1 2 3 4 5 6 
#
# 1 0.018266 -0.003198 -0.004473 0.000000 0.000000 0.000000
# 2 -0.003198 0.018886 -0.010455 0.000000 0.000000 0.000000
# 3 -0.004473 -0.010455 0.027752 0.000000 0.000000 0.000000
# 4 0.000000 0.000000 0.000000 0.045130 0.000000 0.000000
# 5 0.000000 0.000000 0.000000 0.000000 0.100267 0.000000
# 6 0.000000 0.000000 0.000000 0.000000 0.000000 0.060054
#
#
# Mechanical properties :
#
#
# Convention : Reuss Voigt Hill
#
# Bulk Modulus (GPa) = 34.90286 36.17303 35.53795
# Shear Modulus (GPa) = 15.81485 17.59357 16.70421
#
# Velocity S-wave (km/s) = 3.25003 3.42793 3.34016
# Velocity P-wave (km/s) = 6.11515 6.31090 6.21379
#
# Compressibility (1/GPa) = 0.02865095
#
# Stress axis : x y z
#
# Youngs Moduli (GPa) = 54.74566 52.94957 36.03329
#
# Poissons Ratio (x) = 0.16934 0.16118
# Poissons Ratio (y) = 0.17509 0.37674
# Poissons Ratio (z) = 0.24489 0.55360
#
# Static dielectric constant tensor:
#      x y z
#    x 1.534990 0.000000 0.000000 
#    y 0.000000 1.512850 0.000000 
#    z 0.000000 0.000000 1.477890 
# 
# From -- ./inp_files/17271.got.cif
#   From: 2010.05.17/outbox.cif.g08.bks.cpg/sg62_9_cif.got.tgz:17271.got - 2010.06.03 15:25:27.
