data_PCOD9461295
_publ_section_title
;
Structure prediction by ZEFSAII (Michael W. Deem and Ramdas Pophale) SiO2 
 PCOD9461295
Probable space group: P B C A
;
_chemical_formula_sum "Si O2"
_cell_formula_units_Z 48
_cell_length_a 15.000000
_cell_length_b 9.000000
_cell_length_c 18.000000
_cell_angle_alpha 90.000000
_cell_angle_beta 90.000000
_cell_angle_gamma 90.000000
_cell_volume 2430.000000
_symmetry_space_group_name_H-M "P B C A"
_symmetry_group_IT_number 61
_symmetry_cell_setting 'orthorhombic'
loop_
_space_group_symop_operation_xyz
x,y,z
1/2-x,-y,1/2+z
1/2+x,1/2-y,-z
-x,1/2+y,1/2-z
-x,-y,-z
1/2+x,y,1/2-z
1/2-x,1/2+y,z
x,1/2-y,1/2+z
loop_
_atom_site_type_symbol
_atom_site_label
_atom_site_fract_x
_atom_site_fract_y
_atom_site_fract_z
Si Si1 0.300213 0.822193 0.355925
Si Si2 0.424880 0.119630 0.987688
Si Si3 0.098811 0.776624 0.317607
Si Si4 0.930185 0.081344 0.945253
Si Si5 0.524581 0.048044 0.706635
Si Si6 0.248585 0.437289 0.965717
O O1 0.206761 0.799102 0.311207
O O2 0.393828 0.835311 0.311917
O O3 0.295046 0.707514 0.426164
O O4 0.292015 0.981195 0.395297
O O5 0.420778 0.197496 0.905983
O O6 0.330317 0.038966 0.996568
O O7 0.445481 0.244138 0.047555
O O8 0.500000 0.000000 0.000000
O O9 0.069416 0.614921 0.287469
O O10 0.036608 0.894798 0.274218
O O11 0.956999 0.034485 0.863153
O O12 0.828333 0.070153 0.974678
O O13 0.000000 0.000000 0.000000
#
# Coordination Sequence:
#
# PCOD9461295 Si02
#       6
#     8   8   8   8   8   8
#     4  11  20  44  68  90 130 183 217 263 340 403
#     4  11  24  41  68 100 130 171 230 272 332 402
#     4  11  26  44  64 103 130 180 225 268 340 408
#     4  12  21  43  67  98 128 171 221 281 333 389
#     4  12  26  43  71  95 142 175 225 282 337 407
#     4  11  21  39  69  95 128 172 224 271 329 403
#
# _framework density 19.753086
#
# number of rings (size 3 to 8) (size 9 to 14) (size 15 to 20)
#    0.000    0.667    8.333    1.000    7.000    0.000 
#    3.000    0.000    0.000    0.000    0.000    0.000 
#    0.000    0.000    0.000    0.000    0.000    0.000 
#
# Total GULP energy -267684.918262 kJ/mol
# GULP energy per Si atom -5576.769130 kJ/mol
# Density = 1.970813 g / cm^3
# Si number density = 19.753086 Si / 1000 Ang^3
#
#
#
# Elastic Constant Matrix: (Units=GPa)
#
#
# Indices 1 2 3 4 5 6 
#
# 1 107.4350 20.4284 13.7087 0.0000 0.0000 0.0000
# 2 20.4284 79.6999 -4.6876 0.0000 0.0000 0.0000
# 3 13.7087 -4.6876 34.6077 0.0000 0.0000 0.0000
# 4 0.0000 0.0000 0.0000 30.2223 0.0000 0.0000
# 5 0.0000 0.0000 0.0000 0.0000 36.0752 0.0000
# 6 0.0000 0.0000 0.0000 0.0000 0.0000 40.4715
#
#
#
# Elastic Compliance Matrix: (Units=1/GPa)
#
#
# Indices 1 2 3 4 5 6 
#
# 1 0.010447 -0.002945 -0.004537 0.000000 0.000000 0.000000
# 2 -0.002945 0.013478 0.002992 0.000000 0.000000 0.000000
# 3 -0.004537 0.002992 0.031098 0.000000 0.000000 0.000000
# 4 0.000000 0.000000 0.000000 0.033088 0.000000 0.000000
# 5 0.000000 0.000000 0.000000 0.000000 0.027720 0.000000
# 6 0.000000 0.000000 0.000000 0.000000 0.000000 0.024709
#
#
# Mechanical properties :
#
#
# Convention : Reuss Voigt Hill
#
# Bulk Modulus (GPa) = 21.71877 31.18240 26.45059
# Shear Modulus (GPa) = 30.32769 34.17335 32.25052
#
# Velocity S-wave (km/s) = 3.92259 4.16387 4.04503
# Velocity P-wave (km/s) = 5.61557 6.23999 5.93599
#
# Compressibility (1/GPa) = 0.04604312
#
# Stress axis : x y z
#
# Youngs Moduli (GPa) = 95.72338 74.19628 32.15667
#
# Poissons Ratio (x) = 0.21847 0.14589
# Poissons Ratio (y) = 0.28186 -0.09621
# Poissons Ratio (z) = 0.43430 -0.22199
#
# Static dielectric constant tensor:
#      x y z
#    x 1.715660 0.000000 0.000000 
#    y 0.000000 1.732410 0.000000 
#    z 0.000000 0.000000 1.648880 
# 
# From -- ./inp_files/3419.got.cif
#   From: 2010.05.17/outbox.ucp.g08.bks.cvg/sg61_2_cif.got.tgz:3419.got - 2010.06.11 16:28:26.
