data_PCOD9461724
_publ_section_title
;
Structure prediction by ZEFSAII (Michael W. Deem and Ramdas Pophale) SiO2 
 PCOD9461724
Probable space group: P N M A
;
_chemical_formula_sum "Si O2"
_cell_formula_units_Z 64
_cell_length_a 12.336406
_cell_length_b 7.866827
_cell_length_c 34.951791
_cell_angle_alpha 90.000000
_cell_angle_beta 90.000000
_cell_angle_gamma 90.000000
_cell_volume 3392.014408
_symmetry_space_group_name_H-M "P N M A"
_symmetry_group_IT_number 62
_symmetry_cell_setting 'orthorhombic'
loop_
_space_group_symop_operation_xyz
x,y,z
1/2-x,-y,1/2+z
1/2+x,1/2-y,1/2-z
-x,1/2+y,-z
-x,-y,-z
1/2+x,y,1/2-z
1/2-x,1/2+y,1/2+z
x,1/2-y,z
loop_
_atom_site_type_symbol
_atom_site_label
_atom_site_fract_x
_atom_site_fract_y
_atom_site_fract_z
Si Si1 0.974624 0.951904 0.663253
Si Si2 0.696803 0.050485 0.871643
Si Si3 0.819374 0.455686 0.729697
Si Si4 0.377901 0.549117 0.321921
Si Si5 0.861081 0.047101 0.533887
Si Si6 0.726677 0.451846 0.112103
Si Si7 0.105017 0.453090 0.549379
Si Si8 0.623073 0.959202 0.314654
O O1 0.986804 0.750000 0.658594
O O2 0.884088 0.015391 0.632749
O O3 0.089656 0.034188 0.654490
O O4 0.922525 0.989849 0.704381
O O5 0.719543 0.250000 0.877574
O O6 0.664549 0.976979 0.913099
O O7 0.798975 0.979512 0.848620
O O8 0.816950 0.250000 0.729020
O O9 0.711603 0.520383 0.707928
O O10 0.830403 0.510552 0.773363
O O11 0.385224 0.750000 0.314168
O O12 0.326082 0.525034 0.363782
O O13 0.499219 0.481487 0.318563
O O14 0.866069 0.250000 0.532981
O O15 0.981765 0.979256 0.544924
O O16 0.780852 0.993952 0.567576
O O17 0.837422 0.986423 0.491021
O O18 0.729226 0.250000 0.117057
O O19 0.095399 0.250000 0.554321
O O20 0.623694 0.750000 0.315340
#
# Coordination Sequence:
#
# PCOD9461724 Si02
#       8
#     8   8   8   8   8   8   8   8
#     4  10  20  32  48  73 103 134 168 206 252 302
#     4  10  19  33  53  76 105 138 172 209 253 306
#     4   9  18  32  53  75  98 129 167 211 254 297
#     4   9  18  33  51  75 102 130 169 213 254 300
#     4  10  18  29  49  77 104 134 168 207 254 304
#     4  10  19  32  51  73 101 135 169 208 254 303
#     4   9  18  30  46  73 108 139 165 201 253 310
#     4   9  19  33  54  79  99 130 174 216 254 296
#
# _framework density 18.867844000000002
#
# number of rings (size 3 to 8) (size 9 to 14) (size 15 to 20)
#    0.000    2.500    1.250    1.125    1.750    2.000 
#    0.000    1.875    0.000    0.750    0.000    0.000 
#    0.000    0.000    0.000    0.000    0.000    0.000 
#
# Total GULP energy -357012.816998 kJ/mol
# GULP energy per Si atom -5578.325266 kJ/mol
# Density = 1.882490 g / cm^3
# Si number density = 18.867844 Si / 1000 Ang^3
#
#
#
# Elastic Constant Matrix: (Units=GPa)
#
#
# Indices 1 2 3 4 5 6 
#
# 1 109.0133 -3.2289 68.3961 0.0000 0.0000 0.0000
# 2 -3.2289 13.2753 -4.4273 0.0000 0.0000 0.0000
# 3 68.3961 -4.4273 135.1593 0.0000 0.0000 0.0000
# 4 0.0000 0.0000 0.0000 14.1682 0.0000 0.0000
# 5 0.0000 0.0000 0.0000 0.0000 18.9160 0.0000
# 6 0.0000 0.0000 0.0000 0.0000 0.0000 4.3231
#
#
#
# Elastic Compliance Matrix: (Units=1/GPa)
#
#
# Indices 1 2 3 4 5 6 
#
# 1 0.013454 0.001013 -0.006775 0.000000 0.000000 0.000000
# 2 0.001013 0.076236 0.001985 0.000000 0.000000 0.000000
# 3 -0.006775 0.001985 0.010892 0.000000 0.000000 0.000000
# 4 0.000000 0.000000 0.000000 0.070581 0.000000 0.000000
# 5 0.000000 0.000000 0.000000 0.000000 0.052865 0.000000
# 6 0.000000 0.000000 0.000000 0.000000 0.000000 0.231315
#
#
# Mechanical properties :
#
#
# Convention : Reuss Voigt Hill
#
# Bulk Modulus (GPa) = 10.74956 42.10307 26.42632
# Shear Modulus (GPa) = 10.12336 20.59533 15.35935
#
# Velocity S-wave (km/s) = 2.31885 3.30746 2.85625
# Velocity P-wave (km/s) = 3.58874 6.07856 4.99139
#
# Compressibility (1/GPa) = 0.09302706
#
# Stress axis : x y z
#
# Youngs Moduli (GPa) = 74.32769 13.11715 91.80937
#
# Poissons Ratio (x) = -0.01329 0.62201
# Poissons Ratio (y) = -0.07529 -0.18221
# Poissons Ratio (z) = 0.50357 -0.02603
#
# Static dielectric constant tensor:
#      x y z
#    x 1.642970 0.000000 0.000000 
#    y 0.000000 1.684500 0.000000 
#    z 0.000000 0.000000 1.663590 
# 
# From -- ./inp_files/32516.got.cif
#   From: 2010.05.17/outbox.cif.g08.bks.cpg/sg62_17_cif.got.tgz:32516.got - 2010.06.03 15:25:27.
