data_PCOD9461279
_publ_section_title
;
Structure prediction by ZEFSAII (Michael W. Deem and Ramdas Pophale) SiO2 
 PCOD9461279
Probable space group: P B C A
;
_chemical_formula_sum "Si O2"
_cell_formula_units_Z 56
_cell_length_a 21.000000
_cell_length_b 15.000000
_cell_length_c 9.000000
_cell_angle_alpha 90.000000
_cell_angle_beta 90.000000
_cell_angle_gamma 90.000000
_cell_volume 2835.000000
_symmetry_space_group_name_H-M "P B C A"
_symmetry_group_IT_number 61
_symmetry_cell_setting 'orthorhombic'
loop_
_space_group_symop_operation_xyz
x,y,z
1/2-x,-y,1/2+z
1/2+x,1/2-y,-z
-x,1/2+y,1/2-z
-x,-y,-z
1/2+x,y,1/2-z
1/2-x,1/2+y,z
x,1/2-y,1/2+z
loop_
_atom_site_type_symbol
_atom_site_label
_atom_site_fract_x
_atom_site_fract_y
_atom_site_fract_z
Si Si1 0.966450 0.714910 0.710509
Si Si2 0.897622 0.951884 0.132448
Si Si3 0.671002 0.187933 0.189849
Si Si4 0.441032 0.069268 0.861211
Si Si5 0.296605 0.860399 0.150972
Si Si6 0.467237 0.404550 0.679225
Si Si7 0.325679 0.007926 0.663599
O O1 0.943118 0.634922 0.596313
O O2 0.899615 0.770962 0.730134
O O3 0.006097 0.646423 0.820010
O O4 0.013192 0.800639 0.691603
O O5 0.853859 0.913920 0.266566
O O6 0.934630 0.040809 0.186218
O O7 0.854263 0.980655 0.995822
O O8 0.714551 0.268929 0.254180
O O9 0.683816 0.089724 0.259145
O O10 0.681341 0.172212 0.013245
O O11 0.380247 0.062572 0.754109
O O12 0.472535 0.970254 0.852199
O O13 0.423906 0.086369 0.032185
O O14 0.236431 0.928426 0.149152
#
# Coordination Sequence:
#
# PCOD9461279 Si02
#       7
#     8   8   8   8   8   8   8
#     4  10  22  38  68  98 130 170 229 273 343 406
#     4  10  24  41  67 103 131 181 227 273 339 406
#     4  11  23  44  75  95 134 180 230 285 340 411
#     4  10  23  39  65 102 128 178 218 281 345 401
#     4  11  25  46  70 101 131 184 235 276 340 405
#     4  10  21  41  65  95 141 167 220 281 339 406
#     4  12  24  46  68  99 142 180 229 283 338 407
#
# _framework density 19.753086
#
# number of rings (size 3 to 8) (size 9 to 14) (size 15 to 20)
#    0.000    1.429    1.429    3.429    8.000    3.429 
#    7.714    0.000    0.000    0.000    0.000    0.000 
#    0.000    0.000    0.000    0.000    0.000    0.000 
#
# Total GULP energy -311971.276661 kJ/mol
# GULP energy per Si atom -5570.915655 kJ/mol
# Density = 1.970813 g / cm^3
# Si number density = 19.753086 Si / 1000 Ang^3
#
#
#
# Elastic Constant Matrix: (Units=GPa)
#
#
# Indices 1 2 3 4 5 6 
#
# 1 61.6525 44.5810 21.4701 0.0000 0.0000 0.0000
# 2 44.5810 176.7617 49.0678 0.0000 0.0000 0.0000
# 3 21.4701 49.0678 92.7643 0.0000 0.0000 0.0000
# 4 0.0000 0.0000 0.0000 28.9530 0.0000 0.0000
# 5 0.0000 0.0000 0.0000 0.0000 23.8291 0.0000
# 6 0.0000 0.0000 0.0000 0.0000 0.0000 53.2724
#
#
#
# Elastic Compliance Matrix: (Units=1/GPa)
#
#
# Indices 1 2 3 4 5 6 
#
# 1 0.020258 -0.004463 -0.002328 0.000000 0.000000 0.000000
# 2 -0.004463 0.007614 -0.002995 0.000000 0.000000 0.000000
# 3 -0.002328 -0.002995 0.012903 0.000000 0.000000 0.000000
# 4 0.000000 0.000000 0.000000 0.034539 0.000000 0.000000
# 5 0.000000 0.000000 0.000000 0.000000 0.041966 0.000000
# 6 0.000000 0.000000 0.000000 0.000000 0.000000 0.018771
#
#
# Mechanical properties :
#
#
# Convention : Reuss Voigt Hill
#
# Bulk Modulus (GPa) = 47.16132 62.37959 54.77046
# Shear Modulus (GPa) = 30.73338 35.61487 33.17412
#
# Velocity S-wave (km/s) = 3.94874 4.25078 4.10254
# Velocity P-wave (km/s) = 6.68710 7.46595 7.08723
#
# Compressibility (1/GPa) = 0.02120382
#
# Stress axis : x y z
#
# Youngs Moduli (GPa) = 49.36358 131.33299 77.50256
#
# Poissons Ratio (x) = 0.58614 0.18042
# Poissons Ratio (y) = 0.22031 0.23209
# Poissons Ratio (z) = 0.11491 0.39329
#
# Static dielectric constant tensor:
#      x y z
#    x 1.732050 0.000000 0.000000 
#    y 0.000000 1.672630 0.000000 
#    z 0.000000 0.000000 1.745220 
# 
# From -- ./inp_files/3992.got.cif
#   From: 2010.05.17/outbox.ucp.g08.bks.cvg/sg61_2_cif.got.tgz:3992.got - 2010.06.11 16:28:26.
