data_PCOD9461410
_publ_section_title
;
Structure prediction by ZEFSAII (Michael W. Deem and Ramdas Pophale) SiO2 
 PCOD9461410
Probable space group: P N M A
;
_chemical_formula_sum "Si O2"
_cell_formula_units_Z 56
_cell_length_a 26.156649
_cell_length_b 7.451060
_cell_length_c 14.704312
_cell_angle_alpha 90.000000
_cell_angle_beta 90.000000
_cell_angle_gamma 90.000000
_cell_volume 2865.793374
_symmetry_space_group_name_H-M "P N M A"
_symmetry_group_IT_number 62
_symmetry_cell_setting 'orthorhombic'
loop_
_space_group_symop_operation_xyz
x,y,z
1/2-x,-y,1/2+z
1/2+x,1/2-y,1/2-z
-x,1/2+y,-z
-x,-y,-z
1/2+x,y,1/2-z
1/2-x,1/2+y,1/2+z
x,1/2-y,z
loop_
_atom_site_type_symbol
_atom_site_label
_atom_site_fract_x
_atom_site_fract_y
_atom_site_fract_z
Si Si1 0.290850 0.029667 0.733982
Si Si2 0.336180 0.965988 0.009718
Si Si3 0.606313 0.033129 0.806946
Si Si4 0.222396 0.535371 0.026571
Si Si5 0.607495 0.953207 0.167228
Si Si6 0.186343 0.036290 0.834038
Si Si7 0.499989 0.533663 0.108870
O O1 0.290734 0.250000 0.737928
O O2 0.289599 0.973328 0.628431
O O3 0.343981 0.967256 0.779342
O O4 0.239599 0.969673 0.787834
O O5 0.338476 0.750000 0.997014
O O6 0.278562 0.030807 0.998014
O O7 0.373136 0.050549 0.936460
O O8 0.354762 0.003673 0.110796
O O9 0.601214 0.250000 0.799814
O O10 0.635783 0.967651 0.717419
O O11 0.551135 0.967374 0.840674
O O12 0.226225 0.750000 0.033747
O O13 0.186280 0.495148 0.941765
O O14 0.601381 0.750000 0.202520
O O15 0.551280 0.036058 0.158256
O O16 0.187284 0.250000 0.819288
O O17 0.500960 0.750000 0.116338
O O18 0.500000 0.500000 0.000000
#
# Coordination Sequence:
#
# PCOD9461410 Si02
#       7
#     8   8   8   8   8   8   8
#     4   9  17  30  47  66  92 124 153 184 231 280
#     4  10  17  27  46  69  94 124 153 184 227 281
#     4   9  17  30  47  67  94 128 158 182 226 288
#     4  10  19  31  47  69  95 124 156 190 233 281
#     4  10  19  30  46  70  96 123 155 191 228 273
#     4  10  18  31  50  68  90 125 160 192 229 274
#     4  10  19  30  47  71  96 123 156 192 233 280
#
# _framework density 19.540835999999999
#
# number of rings (size 3 to 8) (size 9 to 14) (size 15 to 20)
#    0.000    2.286    4.286    0.000    0.000    0.000 
#    0.000    2.857    0.000    0.857    0.000    0.000 
#    0.000    0.000    0.000    0.000    0.000    0.000 
#
# Total GULP energy -312289.792462 kJ/mol
# GULP energy per Si atom -5576.603437 kJ/mol
# Density = 1.949636 g / cm^3
# Si number density = 19.540836 Si / 1000 Ang^3
#
#
#
# Elastic Constant Matrix: (Units=GPa)
#
#
# Indices 1 2 3 4 5 6 
#
# 1 91.7831 5.6098 17.3013 0.0000 0.0000 0.0000
# 2 5.6098 57.4776 -0.5757 0.0000 0.0000 0.0000
# 3 17.3013 -0.5757 71.5305 0.0000 0.0000 0.0000
# 4 0.0000 0.0000 0.0000 7.7187 0.0000 0.0000
# 5 0.0000 0.0000 0.0000 0.0000 30.6507 0.0000
# 6 0.0000 0.0000 0.0000 0.0000 0.0000 3.6069
#
#
#
# Elastic Compliance Matrix: (Units=1/GPa)
#
#
# Indices 1 2 3 4 5 6 
#
# 1 0.011491 -0.001149 -0.002789 0.000000 0.000000 0.000000
# 2 -0.001149 0.017514 0.000419 0.000000 0.000000 0.000000
# 3 -0.002789 0.000419 0.014658 0.000000 0.000000 0.000000
# 4 0.000000 0.000000 0.000000 0.129555 0.000000 0.000000
# 5 0.000000 0.000000 0.000000 0.000000 0.032626 0.000000
# 6 0.000000 0.000000 0.000000 0.000000 0.000000 0.277248
#
#
# Mechanical properties :
#
#
# Convention : Reuss Voigt Hill
#
# Bulk Modulus (GPa) = 27.30354 29.49578 28.39966
# Shear Modulus (GPa) = 9.95344 21.62566 15.78955
#
# Velocity S-wave (km/s) = 2.25936 3.33030 2.84567
# Velocity P-wave (km/s) = 4.56171 5.46947 5.03608
#
# Compressibility (1/GPa) = 0.03662529
#
# Stress axis : x y z
#
# Youngs Moduli (GPa) = 87.02325 57.09570 68.22247
#
# Poissons Ratio (x) = 0.06563 0.19025
# Poissons Ratio (y) = 0.10003 -0.02858
# Poissons Ratio (z) = 0.24268 -0.02392
#
# Static dielectric constant tensor:
#      x y z
#    x 1.713820 0.000000 0.000000 
#    y 0.000000 1.824060 0.000000 
#    z 0.000000 0.000000 1.665610 
# 
# From -- ./inp_files/15234.got.cif
#   From: 2010.05.17/outbox.cif.g08.bks.cpg/sg62_8_cif.got.tgz:15234.got - 2010.06.03 15:25:27.
