data_PCOD9461169
_publ_section_title
;
Structure prediction by ZEFSAII (Michael W. Deem and Ramdas Pophale) SiO2 
 PCOD9461169
Probable space group: P B C A
;
_chemical_formula_sum "Si O2"
_cell_formula_units_Z 48
_cell_length_a 8.635859
_cell_length_b 12.307869
_cell_length_c 17.469359
_cell_angle_alpha 90.000000
_cell_angle_beta 90.000000
_cell_angle_gamma 90.000000
_cell_volume 1856.801070
_symmetry_space_group_name_H-M "P B C A"
_symmetry_group_IT_number 61
_symmetry_cell_setting 'orthorhombic'
loop_
_space_group_symop_operation_xyz
x,y,z
1/2-x,-y,1/2+z
1/2+x,1/2-y,-z
-x,1/2+y,1/2-z
-x,-y,-z
1/2+x,y,1/2-z
1/2-x,1/2+y,z
x,1/2-y,1/2+z
loop_
_atom_site_type_symbol
_atom_site_label
_atom_site_fract_x
_atom_site_fract_y
_atom_site_fract_z
Si Si1 0.646668 0.414699 0.872293
Si Si2 0.515674 0.828037 0.290307
Si Si3 0.627818 0.909099 0.738246
Si Si4 0.688639 0.576443 0.657969
Si Si5 0.326797 0.120276 0.551783
Si Si6 0.488537 0.709082 0.548911
O O1 0.509267 0.449631 0.816416
O O2 0.799972 0.435652 0.821830
O O3 0.644499 0.491062 0.946735
O O4 0.603386 0.291429 0.893470
O O5 0.562587 0.709959 0.258677
O O6 0.339430 0.850860 0.317448
O O7 0.548344 0.898429 0.215159
O O8 0.633678 0.851965 0.359592
O O9 0.764539 0.951826 0.678862
O O10 0.620754 0.628492 0.580933
O O11 0.433099 0.204978 0.507199
O O12 0.154168 0.137612 0.520594
#
# Coordination Sequence:
#
# PCOD9461169 Si02
#       6
#     8   8   8   8   8   8
#     4  12  26  45  76 112 151 192 255 313 376 455
#     4  12  23  43  73 109 147 192 247 310 373 441
#     4  12  24  42  74 113 145 190 248 311 375 451
#     4  12  24  44  74 109 147 196 246 310 379 442
#     4  12  26  49  73 104 150 200 252 310 384 459
#     4  12  28  51  75 105 155 203 254 315 384 461
#
# _framework density 25.850911
#
# number of rings (size 3 to 8) (size 9 to 14) (size 15 to 20)
#    0.000    0.000    6.667    3.500    2.333    0.000 
#    0.000    0.833    0.000    0.000    0.000    0.000 
#    0.000    0.000    0.000    0.000    0.000    0.000 
#
# Total GULP energy -267480.634396 kJ/mol
# GULP energy per Si atom -5572.513217 kJ/mol
# Density = 2.579207 g / cm^3
# Si number density = 25.850911 Si / 1000 Ang^3
#
#
#
# Elastic Constant Matrix: (Units=GPa)
#
#
# Indices 1 2 3 4 5 6 
#
# 1 95.9495 35.1263 -0.3273 0.0000 0.0000 0.0000
# 2 35.1263 73.5581 10.2139 0.0000 0.0000 0.0000
# 3 -0.3273 10.2139 20.5094 0.0000 0.0000 0.0000
# 4 0.0000 0.0000 0.0000 21.9040 0.0000 0.0000
# 5 0.0000 0.0000 0.0000 0.0000 41.8476 0.0000
# 6 0.0000 0.0000 0.0000 0.0000 0.0000 23.8826
#
#
#
# Elastic Compliance Matrix: (Units=1/GPa)
#
#
# Indices 1 2 3 4 5 6 
#
# 1 0.012861 -0.006628 0.003506 0.000000 0.000000 0.000000
# 2 -0.006628 0.018021 -0.009080 0.000000 0.000000 0.000000
# 3 0.003506 -0.009080 0.053336 0.000000 0.000000 0.000000
# 4 0.000000 0.000000 0.000000 0.045654 0.000000 0.000000
# 5 0.000000 0.000000 0.000000 0.000000 0.023896 0.000000
# 6 0.000000 0.000000 0.000000 0.000000 0.000000 0.041871
#
#
# Mechanical properties :
#
#
# Convention : Reuss Voigt Hill
#
# Bulk Modulus (GPa) = 16.71881 31.11588 23.91734
# Shear Modulus (GPa) = 20.83495 27.19378 24.01437
#
# Velocity S-wave (km/s) = 2.84203 3.24689 3.05118
# Velocity P-wave (km/s) = 4.15343 5.11069 4.65673
#
# Compressibility (1/GPa) = 0.05981286
#
# Stress axis : x y z
#
# Youngs Moduli (GPa) = 77.75660 55.49165 18.74900
#
# Poissons Ratio (x) = 0.36781 -0.06574
# Poissons Ratio (y) = 0.51539 0.17025
# Poissons Ratio (z) = -0.27263 0.50388
#
# Static dielectric constant tensor:
#      x y z
#    x 2.127730 0.000000 0.000000 
#    y 0.000000 2.390940 0.000000 
#    z 0.000000 0.000000 2.123650 
# 
# From -- ./inp_files/8911.got.cif
#   From: 2010.05.17/outbox.cif.g08.bks.cpg/sg61_5_cif.got.tgz:8911.got - 2010.06.03 15:17:17.
