data_PCOD9461876
_publ_section_title
;
Structure prediction by ZEFSAII (Michael W. Deem and Ramdas Pophale) SiO2 
 PCOD9461876
Probable space group: P N M A
;
_chemical_formula_sum "Si O2"
_cell_formula_units_Z 64
_cell_length_a 21.641140
_cell_length_b 7.507674
_cell_length_c 20.029470
_cell_angle_alpha 90.000000
_cell_angle_beta 90.000000
_cell_angle_gamma 90.000000
_cell_volume 3254.280609
_symmetry_space_group_name_H-M "P N M A"
_symmetry_group_IT_number 62
_symmetry_cell_setting 'orthorhombic'
loop_
_space_group_symop_operation_xyz
x,y,z
1/2-x,-y,1/2+z
1/2+x,1/2-y,1/2-z
-x,1/2+y,-z
-x,-y,-z
1/2+x,y,1/2-z
1/2-x,1/2+y,1/2+z
x,1/2-y,z
loop_
_atom_site_type_symbol
_atom_site_label
_atom_site_fract_x
_atom_site_fract_y
_atom_site_fract_z
Si Si1 0.309242 0.542757 0.790391
Si Si2 0.813375 0.032195 0.283954
Si Si3 0.887260 0.461811 0.062734
Si Si4 0.115396 0.958868 0.085493
Si Si5 0.758142 0.037205 0.569522
Si Si6 0.567492 0.046545 0.272482
Si Si7 0.760285 0.034548 0.421191
Si Si8 0.434200 0.469248 0.296757
O O1 0.311180 0.750000 0.769285
O O2 0.247690 0.468940 0.755407
O O3 0.297599 0.533872 0.869095
O O4 0.373800 0.463257 0.765228
O O5 0.813975 0.250000 0.281701
O O6 0.803942 0.977879 0.360669
O O7 0.875453 0.974945 0.247011
O O8 0.897027 0.250000 0.058991
O O9 0.814313 0.489545 0.077154
O O10 0.924506 0.529045 0.126602
O O11 0.900921 0.532011 0.988299
O O12 0.099984 0.750000 0.088124
O O13 0.084190 0.047693 0.148963
O O14 0.189616 0.977583 0.092027
O O15 0.762624 0.250000 0.571320
O O16 0.777176 0.973866 0.495685
O O17 0.562125 0.250000 0.247983
O O18 0.499263 0.967613 0.267612
O O19 0.759579 0.250000 0.421764
O O20 0.434836 0.250000 0.298080
#
# Coordination Sequence:
#
# PCOD9461876 Si02
#       8
#     8   8   8   8   8   8   8   8
#     4  10  18  31  51  70  92 125 160 196 237 279
#     4   9  15  28  52  73  89 118 159 199 235 273
#     4   9  17  31  48  69  98 131 162 191 231 282
#     4  10  19  29  45  70 101 132 159 190 233 284
#     4  10  19  29  47  75 101 123 154 198 241 282
#     4  10  20  33  49  69  93 125 164 201 235 277
#     4   9  17  31  50  73  98 124 158 198 238 280
#     4   9  17  30  50  71  90 120 164 203 232 274
#
# _framework density 19.666405000000001
#
# number of rings (size 3 to 8) (size 9 to 14) (size 15 to 20)
#    0.000    2.500    2.500    0.750    0.000    2.000 
#    0.000    0.625    0.000    0.750    0.000    0.000 
#    0.000    0.000    0.000    0.000    0.000    0.375 
#
# Total GULP energy -357097.159866 kJ/mol
# GULP energy per Si atom -5579.643123 kJ/mol
# Density = 1.962164 g / cm^3
# Si number density = 19.666405 Si / 1000 Ang^3
#
#
#
# Elastic Constant Matrix: (Units=GPa)
#
#
# Indices 1 2 3 4 5 6 
#
# 1 95.0091 -7.9296 55.3563 0.0000 0.0000 0.0000
# 2 -7.9296 50.3502 -5.6454 0.0000 0.0000 0.0000
# 3 55.3563 -5.6454 94.6707 0.0000 0.0000 0.0000
# 4 0.0000 0.0000 0.0000 14.8099 0.0000 0.0000
# 5 0.0000 0.0000 0.0000 0.0000 22.6657 0.0000
# 6 0.0000 0.0000 0.0000 0.0000 0.0000 -0.1661
#
#
#
# Elastic Compliance Matrix: (Units=1/GPa)
#
#
# Indices 1 2 3 4 5 6 
#
# 1 0.016074 0.001488 -0.009310 0.000000 0.000000 0.000000
# 2 0.001488 0.020132 0.000331 0.000000 0.000000 0.000000
# 3 -0.009310 0.000331 0.016027 0.000000 0.000000 0.000000
# 4 0.000000 0.000000 0.000000 0.067523 0.000000 0.000000
# 5 0.000000 0.000000 0.000000 0.000000 0.044120 0.000000
# 6 0.000000 0.000000 0.000000 0.000000 0.000000 -6.020945
#
#
# Mechanical properties :
#
#
# Convention : Reuss Voigt Hill
#
# Bulk Modulus (GPa) = 26.84635 35.95476 31.40055
# Shear Modulus (GPa) = -0.85768 20.67847 9.91039
#
# Velocity S-wave (km/s) = -0.66111 3.24614 2.24726
# Velocity P-wave (km/s) = 3.61908 5.68963 4.76811
#
# Compressibility (1/GPa) = 0.03724901
#
# Stress axis : x y z
#
# Youngs Moduli (GPa) = 62.21254 49.67154 62.39664
#
# Poissons Ratio (x) = -0.07389 0.58092
# Poissons Ratio (y) = -0.09255 -0.02063
# Poissons Ratio (z) = 0.57921 -0.01643
#
# Static dielectric constant tensor:
#      x y z
#    x 1.677050 0.000000 0.000000 
#    y 0.000000 1.757530 0.000000 
#    z 0.000000 0.000000 1.702980 
# 
# From -- ./inp_files/27889.got.cif
#   From: 2010.05.17/outbox.cif.g08.bks.cpg/sg62_14_cif.got.tgz:27889.got - 2010.06.03 15:25:27.
