data_PCOD9461522
_publ_section_title
;
Structure prediction by ZEFSAII (Michael W. Deem and Ramdas Pophale) SiO2 
 PCOD9461522
Probable space group: P N M A
;
_chemical_formula_sum "Si O2"
_cell_formula_units_Z 64
_cell_length_a 5.117952
_cell_length_b 23.728217
_cell_length_c 26.761816
_cell_angle_alpha 90.000000
_cell_angle_beta 90.000000
_cell_angle_gamma 90.000000
_cell_volume 3249.951607
_symmetry_space_group_name_H-M "P N M A"
_symmetry_group_IT_number 62
_symmetry_cell_setting 'orthorhombic'
loop_
_space_group_symop_operation_xyz
x,y,z
1/2-x,-y,1/2+z
1/2+x,1/2-y,1/2-z
-x,1/2+y,-z
-x,-y,-z
1/2+x,y,1/2-z
1/2-x,1/2+y,1/2+z
x,1/2-y,z
loop_
_atom_site_type_symbol
_atom_site_label
_atom_site_fract_x
_atom_site_fract_y
_atom_site_fract_z
Si Si1 0.352793 0.433459 0.880108
Si Si2 0.752618 0.923365 0.928637
Si Si3 0.644628 0.957954 0.446637
Si Si4 0.667755 0.837505 0.480263
Si Si5 0.521114 0.312819 0.072842
Si Si6 0.728552 0.404205 0.134796
Si Si7 0.670830 0.687648 0.086870
Si Si8 0.831983 0.989547 0.716425
O O1 0.637458 0.444079 0.904133
O O2 0.314100 0.365861 0.876689
O O3 0.308497 0.465296 0.828269
O O4 0.134406 0.453633 0.919770
O O5 0.678616 0.860901 0.948065
O O6 0.492834 0.937210 0.896813
O O7 0.993939 0.915888 0.890823
O O8 0.800580 0.977751 0.963095
O O9 0.671334 0.905845 0.484586
O O10 0.741955 0.813029 0.533628
O O11 0.405699 0.818707 0.452962
O O12 0.903096 0.819146 0.443878
O O13 0.415546 0.250000 0.077895
O O14 0.634655 0.340356 0.123749
O O15 0.712302 0.428984 0.189761
O O16 0.683466 0.750000 0.109429
O O17 0.612568 0.995631 0.758367
#
# Coordination Sequence:
#
# PCOD9461522 Si02
#       8
#     8   8   8   8   8   8   8   8
#     4  10  19  34  55  83 114 146 179 222 291 333
#     4  10  19  35  57  76 111 148 182 218 280 333
#     4  10  17  35  56  79 118 149 179 233 273 331
#     4  10  22  33  55  85 113 153 201 237 261 301
#     4  10  23  38  57  81 115 156 195 231 266 327
#     4  10  22  38  56  83 110 146 178 225 289 342
#     4  10  20  35  55  79 116 159 195 229 261 314
#     4  12  22  36  63  88 108 132 176 240 290 349
#
# _framework density 19.692602000000001
#
# number of rings (size 3 to 8) (size 9 to 14) (size 15 to 20)
#    0.750    1.000    2.500    2.625    1.750    1.000 
#    0.000    0.625    0.000    1.500    0.000    0.000 
#    0.000    0.000    0.000    0.000    0.000    0.000 
#
# Total GULP energy -357188.919514 kJ/mol
# GULP energy per Si atom -5581.076867 kJ/mol
# Density = 1.964778 g / cm^3
# Si number density = 19.692602 Si / 1000 Ang^3
#
#
#
# Elastic Constant Matrix: (Units=GPa)
#
#
# Indices 1 2 3 4 5 6 
#
# 1 82.1725 -4.1897 -9.6262 0.0000 0.0000 0.0000
# 2 -4.1897 173.0513 25.3291 0.0000 0.0000 0.0000
# 3 -9.6262 25.3291 44.7897 0.0000 0.0000 0.0000
# 4 0.0000 0.0000 0.0000 14.9933 0.0000 0.0000
# 5 0.0000 0.0000 0.0000 0.0000 26.5741 0.0000
# 6 0.0000 0.0000 0.0000 0.0000 0.0000 18.7573
#
#
#
# Elastic Compliance Matrix: (Units=1/GPa)
#
#
# Indices 1 2 3 4 5 6 
#
# 1 0.012485 -0.000099 0.002739 0.000000 0.000000 0.000000
# 2 -0.000099 0.006301 -0.003584 0.000000 0.000000 0.000000
# 3 0.002739 -0.003584 0.024942 0.000000 0.000000 0.000000
# 4 0.000000 0.000000 0.000000 0.066696 0.000000 0.000000
# 5 0.000000 0.000000 0.000000 0.000000 0.037631 0.000000
# 6 0.000000 0.000000 0.000000 0.000000 0.000000 0.053313
#
#
# Mechanical properties :
#
#
# Convention : Reuss Voigt Hill
#
# Bulk Modulus (GPa) = 23.90018 35.89333 29.89675
# Shear Modulus (GPa) = 23.01995 31.29830 27.15913
#
# Velocity S-wave (km/s) = 3.42272 3.99098 3.71772
# Velocity P-wave (km/s) = 5.27096 6.28519 5.80029
#
# Compressibility (1/GPa) = 0.04184070
#
# Stress axis : x y z
#
# Youngs Moduli (GPa) = 80.09370 158.70779 40.09258
#
# Poissons Ratio (x) = 0.01566 -0.10982
# Poissons Ratio (y) = 0.00790 0.14371
# Poissons Ratio (z) = -0.21939 0.56888
#
# Static dielectric constant tensor:
#      x y z
#    x 1.721550 0.000000 0.000000 
#    y 0.000000 1.781010 0.000000 
#    z 0.000000 0.000000 1.654080 
# 
# From -- ./inp_files/30585.got.cif
#   From: 2010.05.17/outbox.cif.g08.bks.cpg/sg62_16_cif.got.tgz:30585.got - 2010.06.03 15:25:27.
