data_PCOD9461825
_publ_section_title
;
Structure prediction by ZEFSAII (Michael W. Deem and Ramdas Pophale) SiO2 
 PCOD9461825
Probable space group: P N M A
;
_chemical_formula_sum "Si O2"
_cell_formula_units_Z 64
_cell_length_a 22.575579
_cell_length_b 9.129061
_cell_length_c 14.896539
_cell_angle_alpha 90.000000
_cell_angle_beta 90.000000
_cell_angle_gamma 90.000000
_cell_volume 3070.084892
_symmetry_space_group_name_H-M "P N M A"
_symmetry_group_IT_number 62
_symmetry_cell_setting 'orthorhombic'
loop_
_space_group_symop_operation_xyz
x,y,z
1/2-x,-y,1/2+z
1/2+x,1/2-y,1/2-z
-x,1/2+y,-z
-x,-y,-z
1/2+x,y,1/2-z
1/2-x,1/2+y,1/2+z
x,1/2-y,z
loop_
_atom_site_type_symbol
_atom_site_label
_atom_site_fract_x
_atom_site_fract_y
_atom_site_fract_z
Si Si1 0.054251 0.080836 0.801419
Si Si2 0.284113 0.076481 0.165994
Si Si3 0.688278 0.420199 0.649241
Si Si4 0.629972 0.425366 0.978694
Si Si5 0.923164 0.423266 0.854056
Si Si6 0.604030 0.080438 0.170568
Si Si7 0.325747 0.924027 0.543268
Si Si8 0.034315 0.583179 0.622314
O O1 0.047317 0.250000 0.768091
O O2 0.116321 0.075139 0.851818
O O3 0.993739 0.045455 0.853801
O O4 0.058696 0.971069 0.718241
O O5 0.295867 0.250000 0.167711
O O6 0.219122 0.051934 0.125090
O O7 0.290326 0.010175 0.265100
O O8 0.327859 0.999226 0.094797
O O9 0.706068 0.250000 0.661006
O O10 0.704487 0.474047 0.549839
O O11 0.634065 0.250000 0.973601
O O12 0.564332 0.476862 0.949157
O O13 0.640627 0.468480 0.082802
O O14 0.915276 0.250000 0.857839
O O15 0.897110 0.484617 0.759908
O O16 0.886908 0.498466 0.933163
O O17 0.619152 0.250000 0.192570
O O18 0.536003 0.078087 0.135964
O O19 0.335394 0.750000 0.534051
O O20 0.051449 0.750000 0.602039
#
# Coordination Sequence:
#
# PCOD9461825 Si02
#       8
#     8   8   8   8   8   8   8   8
#     4   9  18  34  58  88 121 156 197 243 295 355
#     4  11  24  41  61  88 120 153 201 257 299 349
#     4  10  21  41  67  90 118 158 198 240 301 362
#     4  11  21  34  54  81 115 157 202 245 296 353
#     4  10  21  37  59  89 122 156 199 251 298 353
#     4   9  20  35  53  81 120 163 199 236 292 356
#     4  10  24  44  63  86 119 158 198 245 301 361
#     4  10  18  30  51  82 119 157 198 242 291 347
#
# _framework density 20.846329000000001
#
# number of rings (size 3 to 8) (size 9 to 14) (size 15 to 20)
#    0.000    2.000    1.250    1.875    0.000    5.000 
#    0.000    2.500    0.000    0.000    0.000    0.000 
#    0.000    0.000    0.000    0.000    0.000    0.000 
#
# Total GULP energy -357350.512625 kJ/mol
# GULP energy per Si atom -5583.601760 kJ/mol
# Density = 2.079888 g / cm^3
# Si number density = 20.846329 Si / 1000 Ang^3
#
#
#
# Elastic Constant Matrix: (Units=GPa)
#
#
# Indices 1 2 3 4 5 6 
#
# 1 33.7580 19.2651 19.4969 0.0000 0.0000 0.0000
# 2 19.2651 44.3104 26.1338 0.0000 0.0000 0.0000
# 3 19.4969 26.1338 86.6951 0.0000 0.0000 0.0000
# 4 0.0000 0.0000 0.0000 24.8145 0.0000 0.0000
# 5 0.0000 0.0000 0.0000 0.0000 24.2956 0.0000
# 6 0.0000 0.0000 0.0000 0.0000 0.0000 12.5392
#
#
#
# Elastic Compliance Matrix: (Units=1/GPa)
#
#
# Indices 1 2 3 4 5 6 
#
# 1 0.040894 -0.015027 -0.004667 0.000000 0.000000 0.000000
# 2 -0.015027 0.032970 -0.006559 0.000000 0.000000 0.000000
# 3 -0.004667 -0.006559 0.014561 0.000000 0.000000 0.000000
# 4 0.000000 0.000000 0.000000 0.040299 0.000000 0.000000
# 5 0.000000 0.000000 0.000000 0.000000 0.041160 0.000000
# 6 0.000000 0.000000 0.000000 0.000000 0.000000 0.079750
#
#
# Mechanical properties :
#
#
# Convention : Reuss Voigt Hill
#
# Bulk Modulus (GPa) = 27.84047 32.72834 30.28441
# Shear Modulus (GPa) = 15.91786 18.98772 17.45279
#
# Velocity S-wave (km/s) = 2.76630 3.02129 2.89660
# Velocity P-wave (km/s) = 4.85667 5.28250 5.07406
#
# Compressibility (1/GPa) = 0.03591893
#
# Stress axis : x y z
#
# Youngs Moduli (GPa) = 24.45370 30.33057 68.67473
#
# Poissons Ratio (x) = 0.45578 0.32048
# Poissons Ratio (y) = 0.36747 0.45045
# Poissons Ratio (z) = 0.11412 0.19894
#
# Static dielectric constant tensor:
#      x y z
#    x 1.795070 0.000000 0.000000 
#    y 0.000000 1.705530 0.000000 
#    z 0.000000 0.000000 1.753540 
# 
# From -- ./inp_files/20951.got.cif
#   From: 2010.05.17/outbox.cif.g08.bks.cpg/sg62_11_cif.got.tgz:20951.got - 2010.06.03 15:25:27.
