data_PCOD9461460
_publ_section_title
;
Structure prediction by ZEFSAII (Michael W. Deem and Ramdas Pophale) SiO2 
 PCOD9461460
Probable space group: P N M A
;
_chemical_formula_sum "Si O2"
_cell_formula_units_Z 64
_cell_length_a 30.978848
_cell_length_b 8.714005
_cell_length_c 15.012142
_cell_angle_alpha 90.000000
_cell_angle_beta 90.000000
_cell_angle_gamma 90.000000
_cell_volume 4052.525276
_symmetry_space_group_name_H-M "P N M A"
_symmetry_group_IT_number 62
_symmetry_cell_setting 'orthorhombic'
loop_
_space_group_symop_operation_xyz
x,y,z
1/2-x,-y,1/2+z
1/2+x,1/2-y,1/2-z
-x,1/2+y,-z
-x,-y,-z
1/2+x,y,1/2-z
1/2-x,1/2+y,1/2+z
x,1/2-y,z
loop_
_atom_site_type_symbol
_atom_site_label
_atom_site_fract_x
_atom_site_fract_y
_atom_site_fract_z
Si Si1 0.545485 0.564905 0.105911
Si Si2 0.132133 0.567450 0.304949
Si Si3 0.633410 0.070392 0.835178
Si Si4 0.547842 0.567193 0.899183
Si Si5 0.713420 0.437000 0.713894
Si Si6 0.796753 0.565730 0.819109
Si Si7 0.222481 0.070386 0.986486
Si Si8 0.325517 0.425550 0.997253
O O1 0.544885 0.750000 0.107083
O O2 0.583528 0.515115 0.172363
O O3 0.498251 0.502191 0.127541
O O4 0.555620 0.519082 0.003054
O O5 0.131725 0.750000 0.285316
O O6 0.159481 0.481580 0.230545
O O7 0.157457 0.547977 0.398250
O O8 0.626221 0.250000 0.821203
O O9 0.669662 0.017362 0.764988
O O10 0.587459 0.987388 0.839020
O O11 0.654616 0.039083 0.931396
O O12 0.545110 0.750000 0.898187
O O13 0.716484 0.250000 0.714398
O O14 0.755597 0.498548 0.765471
O O15 0.712250 0.492813 0.611488
O O16 0.792094 0.750000 0.820343
O O17 0.796365 0.506794 0.921323
O O18 0.209729 0.250000 0.983059
O O19 0.274117 0.064238 0.997311
O O20 0.338220 0.250000 0.022270
#
# Coordination Sequence:
#
# PCOD9461460 Si02
#       8
#     8   8   8   8   8   8   8   8
#     4   9  18  32  49  70  95 128 164 193 231 288
#     4  10  19  33  50  68  96 134 163 190 235 292
#     4  11  21  30  47  73  98 126 166 207 236 280
#     4  10  19  32  49  69  98 130 158 194 243 292
#     4  10  20  35  50  66  93 132 168 197 238 288
#     4  11  21  31  48  73  96 123 164 207 239 277
#     4   9  18  33  49  64  93 132 164 197 238 284
#     4  10  17  30  49  66  94 134 166 191 236 289
#
# _framework density 15.792622
#
# number of rings (size 3 to 8) (size 9 to 14) (size 15 to 20)
#    0.000    2.000    3.750    1.125    0.000    2.000 
#    0.000    1.250    0.000    0.000    0.000    0.875 
#    0.000    0.000    0.000    0.000    0.000    0.000 
#
# Total GULP energy -356830.461037 kJ/mol
# GULP energy per Si atom -5575.475954 kJ/mol
# Density = 1.575668 g / cm^3
# Si number density = 15.792622 Si / 1000 Ang^3
#
#
#
# Elastic Constant Matrix: (Units=GPa)
#
#
# Indices 1 2 3 4 5 6 
#
# 1 95.8620 23.2300 45.3359 0.0000 0.0000 0.0000
# 2 23.2300 15.9438 17.5386 0.0000 0.0000 0.0000
# 3 45.3359 17.5386 80.8296 0.0000 0.0000 0.0000
# 4 0.0000 0.0000 0.0000 15.7507 0.0000 0.0000
# 5 0.0000 0.0000 0.0000 0.0000 23.0881 0.0000
# 6 0.0000 0.0000 0.0000 0.0000 0.0000 193.8698
#
#
#
# Elastic Compliance Matrix: (Units=1/GPa)
#
#
# Indices 1 2 3 4 5 6 
#
# 1 0.017967 -0.019824 -0.005776 0.000000 0.000000 0.000000
# 2 -0.019824 0.104258 -0.011503 0.000000 0.000000 0.000000
# 3 -0.005776 -0.011503 0.018107 0.000000 0.000000 0.000000
# 4 0.000000 0.000000 0.000000 0.063489 0.000000 0.000000
# 5 0.000000 0.000000 0.000000 0.000000 0.043312 0.000000
# 6 0.000000 0.000000 0.000000 0.000000 0.000000 0.005158
#
#
# Mechanical properties :
#
#
# Convention : Reuss Voigt Hill
#
# Bulk Modulus (GPa) = 15.12269 40.53826 27.83047
# Shear Modulus (GPa) = 14.34550 53.64377 33.99463
#
# Velocity S-wave (km/s) = 3.01718 5.83450 4.64461
# Velocity P-wave (km/s) = 4.66202 8.43287 6.81351
#
# Compressibility (1/GPa) = 0.06612581
#
# Stress axis : x y z
#
# Youngs Moduli (GPa) = 55.65673 9.59157 55.22631
#
# Poissons Ratio (x) = 0.19015 0.31898
# Poissons Ratio (y) = 1.10337 0.63527
# Poissons Ratio (z) = 0.32147 0.11033
#
# Static dielectric constant tensor:
#      x y z
#    x 1.525900 0.000000 0.000000 
#    y 0.000000 1.542620 0.000000 
#    z 0.000000 0.000000 1.529050 
# 
# From -- ./inp_files/21247.got.cif
#   From: 2010.05.17/outbox.cif.g08.bks.cpg/sg62_11_cif.got.tgz:21247.got - 2010.06.03 15:25:27.
