data_PCOD9461759
_publ_section_title
;
Structure prediction by ZEFSAII (Michael W. Deem and Ramdas Pophale) SiO2 
 PCOD9461759
Probable space group: P N M A
;
_chemical_formula_sum "Si O2"
_cell_formula_units_Z 28
_cell_length_a 5.092815
_cell_length_b 14.161062
_cell_length_c 18.343791
_cell_angle_alpha 90.000000
_cell_angle_beta 90.000000
_cell_angle_gamma 90.000000
_cell_volume 1322.948135
_symmetry_space_group_name_H-M "P N M A"
_symmetry_group_IT_number 62
_symmetry_cell_setting 'orthorhombic'
loop_
_space_group_symop_operation_xyz
x,y,z
1/2-x,-y,1/2+z
1/2+x,1/2-y,1/2-z
-x,1/2+y,-z
-x,-y,-z
1/2+x,y,1/2-z
1/2-x,1/2+y,1/2+z
x,1/2-y,z
loop_
_atom_site_type_symbol
_atom_site_label
_atom_site_fract_x
_atom_site_fract_y
_atom_site_fract_z
Si Si1 0.988156 0.972991 0.914119
Si Si2 0.017260 0.140112 0.427195
Si Si3 0.343416 0.645651 0.095796
Si Si4 0.173875 0.750000 0.298830
O O1 0.773671 0.890435 0.906121
O O2 0.269097 0.931032 0.893098
O O3 0.857107 0.065745 0.879666
O O4 0.000000 0.000000 0.000000
O O5 0.069446 0.250000 0.411671
O O6 0.046281 0.126407 0.514980
O O7 0.213635 0.750000 0.090062
O O8 0.584546 0.662134 0.150715
O O9 0.961574 0.750000 0.233326
#
# Coordination Sequence:
#
# PCOD9461759 Si02
#       4
#     8   8   8   4
#     4  10  18  30  47  70  95 129 165 190 240 305
#     4  10  19  31  47  72  99 129 159 197 242 298
#     4   8  18  33  46  69  97 132 158 201 239 282
#     4  10  22  34  48  68  98 134 174 202 234 282
#
# _framework density 21.164849
#
# number of rings (size 3 to 8) (size 9 to 14) (size 15 to 20)
#    0.857    1.714    0.000    4.286    0.000    8.000 
#    0.000    0.000    0.000    0.000    0.000    0.000 
#    0.000   22.857    0.000    0.000    0.000    0.000 
#
# Total GULP energy -156158.988742 kJ/mol
# GULP energy per Si atom -5577.106741 kJ/mol
# Density = 2.111668 g / cm^3
# Si number density = 21.164849 Si / 1000 Ang^3
#
#
#
# Elastic Constant Matrix: (Units=GPa)
#
#
# Indices 1 2 3 4 5 6 
#
# 1 78.0526 12.0581 4.1120 0.0000 0.0000 0.0000
# 2 12.0581 93.6445 0.9517 0.0000 0.0000 0.0000
# 3 4.1120 0.9517 18.9588 0.0000 0.0000 0.0000
# 4 0.0000 0.0000 0.0000 13.2087 0.0000 0.0000
# 5 0.0000 0.0000 0.0000 0.0000 24.7551 0.0000
# 6 0.0000 0.0000 0.0000 0.0000 0.0000 29.4676
#
#
#
# Elastic Compliance Matrix: (Units=1/GPa)
#
#
# Indices 1 2 3 4 5 6 
#
# 1 0.013217 -0.001674 -0.002783 0.000000 0.000000 0.000000
# 2 -0.001674 0.010896 -0.000184 0.000000 0.000000 0.000000
# 3 -0.002783 -0.000184 0.053359 0.000000 0.000000 0.000000
# 4 0.000000 0.000000 0.000000 0.075707 0.000000 0.000000
# 5 0.000000 0.000000 0.000000 0.000000 0.040396 0.000000
# 6 0.000000 0.000000 0.000000 0.000000 0.000000 0.033936
#
#
# Mechanical properties :
#
#
# Convention : Reuss Voigt Hill
#
# Bulk Modulus (GPa) = 14.66462 24.98883 19.82673
# Shear Modulus (GPa) = 19.26623 25.05522 22.16072
#
# Velocity S-wave (km/s) = 3.02038 3.44439 3.23933
# Velocity P-wave (km/s) = 4.37120 5.25841 4.83520
#
# Compressibility (1/GPa) = 0.06819133
#
# Stress axis : x y z
#
# Youngs Moduli (GPa) = 75.65997 91.77635 18.74108
#
# Poissons Ratio (x) = 0.15360 0.05215
# Poissons Ratio (y) = 0.12662 0.00345
# Poissons Ratio (z) = 0.21054 0.01688
#
# Static dielectric constant tensor:
#      x y z
#    x 1.800490 0.000000 0.000000 
#    y 0.000000 1.825640 0.000000 
#    z 0.000000 0.000000 1.789100 
# 
# From -- ./inp_files/25151.got.cif
#   From: 2010.05.17/outbox.cif.g08.bks.cpg/sg62_13_cif.got.tgz:25151.got - 2010.06.03 15:25:27.
