data_PCOD9461259
_publ_section_title
;
Structure prediction by ZEFSAII (Michael W. Deem and Ramdas Pophale) SiO2 
 PCOD9461259
Probable space group: P B C A
;
_chemical_formula_sum "Si O2"
_cell_formula_units_Z 64
_cell_length_a 18.000000
_cell_length_b 12.000000
_cell_length_c 15.000000
_cell_angle_alpha 90.000000
_cell_angle_beta 90.000000
_cell_angle_gamma 90.000000
_cell_volume 3240.000000
_symmetry_space_group_name_H-M "P B C A"
_symmetry_group_IT_number 61
_symmetry_cell_setting 'orthorhombic'
loop_
_space_group_symop_operation_xyz
x,y,z
1/2-x,-y,1/2+z
1/2+x,1/2-y,-z
-x,1/2+y,1/2-z
-x,-y,-z
1/2+x,y,1/2-z
1/2-x,1/2+y,z
x,1/2-y,1/2+z
loop_
_atom_site_type_symbol
_atom_site_label
_atom_site_fract_x
_atom_site_fract_y
_atom_site_fract_z
Si Si1 0.251535 0.310395 0.496459
Si Si2 0.906907 0.745274 0.049160
Si Si3 0.297482 0.549547 0.251980
Si Si4 0.391220 0.771187 0.240676
Si Si5 0.866758 0.483212 0.063087
Si Si6 0.826491 0.300220 0.675311
Si Si7 0.737192 0.842246 0.330490
Si Si8 0.023157 0.781358 0.401251
O O1 0.162627 0.317624 0.486997
O O2 0.303304 0.420937 0.495977
O O3 0.277268 0.245551 0.406862
O O4 0.265298 0.230375 0.580701
O O5 0.913291 0.773350 0.154597
O O6 0.886375 0.611654 0.038538
O O7 0.979658 0.762799 0.988621
O O8 0.352330 0.650331 0.228474
O O9 0.333149 0.490866 0.337753
O O10 0.217383 0.592446 0.287686
O O11 0.289002 0.468968 0.168276
O O12 0.320525 0.845600 0.211300
O O13 0.460443 0.792817 0.175583
O O14 0.936419 0.397953 0.070807
O O15 0.816012 0.218207 0.758947
O O16 0.910372 0.296217 0.638257
#
# Coordination Sequence:
#
# PCOD9461259 Si02
#       8
#     8   8   8   8   8   8   8   8
#     4  11  20  37  68  95 120 162 217 268 302 370
#     4  11  21  40  65  94 124 170 211 255 325 379
#     4  10  19  42  64  85 121 172 212 249 306 383
#     4  10  22  39  61  90 128 162 200 264 317 365
#     4  10  21  40  68  89 124 163 215 263 303 383
#     4  10  22  41  61  90 127 159 209 261 312 367
#     4  11  20  39  65  92 116 170 214 259 307 375
#     4  11  22  40  60  95 130 155 201 268 316 371
#
# _framework density 19.753086
#
# number of rings (size 3 to 8) (size 9 to 14) (size 15 to 20)
#    0.000    1.500    7.500    0.375    0.000    4.000 
#    4.500    0.000    0.000    6.000    0.000    0.000 
#    0.000    0.000    0.000    0.000    0.000    0.000 
#
# Total GULP energy -356937.988249 kJ/mol
# GULP energy per Si atom -5577.156066 kJ/mol
# Density = 1.970813 g / cm^3
# Si number density = 19.753086 Si / 1000 Ang^3
#
#
#
# Elastic Constant Matrix: (Units=GPa)
#
#
# Indices 1 2 3 4 5 6 
#
# 1 109.1663 11.8461 10.1425 0.0000 0.0000 0.0000
# 2 11.8461 7.0037 5.5952 0.0000 0.0000 0.0000
# 3 10.1425 5.5952 79.9156 0.0000 0.0000 0.0000
# 4 0.0000 0.0000 0.0000 28.9315 0.0000 0.0000
# 5 0.0000 0.0000 0.0000 0.0000 40.3577 0.0000
# 6 0.0000 0.0000 0.0000 0.0000 0.0000 24.8695
#
#
#
# Elastic Compliance Matrix: (Units=1/GPa)
#
#
# Indices 1 2 3 4 5 6 
#
# 1 0.011220 -0.018897 -0.000101 0.000000 0.000000 0.000000
# 2 -0.018897 0.183067 -0.010419 0.000000 0.000000 0.000000
# 3 -0.000101 -0.010419 0.013255 0.000000 0.000000 0.000000
# 4 0.000000 0.000000 0.000000 0.034564 0.000000 0.000000
# 5 0.000000 0.000000 0.000000 0.000000 0.024778 0.000000
# 6 0.000000 0.000000 0.000000 0.000000 0.000000 0.040210
#
#
# Mechanical properties :
#
#
# Convention : Reuss Voigt Hill
#
# Bulk Modulus (GPa) = 6.72456 27.91702 17.32079
# Shear Modulus (GPa) = 12.03370 30.06520 21.04945
#
# Velocity S-wave (km/s) = 2.47089 3.90558 3.26794
# Velocity P-wave (km/s) = 3.39884 5.87382 4.79864
#
# Compressibility (1/GPa) = 0.14870854
#
# Stress axis : x y z
#
# Youngs Moduli (GPa) = 89.12374 5.46248 75.44046
#
# Poissons Ratio (x) = 0.10323 0.00762
# Poissons Ratio (y) = 1.68421 0.78601
# Poissons Ratio (z) = 0.00900 0.05691
#
# Static dielectric constant tensor:
#      x y z
#    x 1.694560 0.000000 0.000000 
#    y 0.000000 1.779690 0.000000 
#    z 0.000000 0.000000 1.693930 
# 
# From -- ./inp_files/8224.got.cif
#   From: 2010.05.17/outbox.ucp.g08.bks.cvg/sg61_5_cif.got.tgz:8224.got - 2010.06.11 16:28:26.
