data_PCOD9461418
_publ_section_title
;
Structure prediction by ZEFSAII (Michael W. Deem and Ramdas Pophale) SiO2 
 PCOD9461418
Probable space group: P N M A
;
_chemical_formula_sum "Si O2"
_cell_formula_units_Z 56
_cell_length_a 8.411324
_cell_length_b 25.839186
_cell_length_c 14.499265
_cell_angle_alpha 90.000000
_cell_angle_beta 90.000000
_cell_angle_gamma 90.000000
_cell_volume 3151.295851
_symmetry_space_group_name_H-M "P N M A"
_symmetry_group_IT_number 62
_symmetry_cell_setting 'orthorhombic'
loop_
_space_group_symop_operation_xyz
x,y,z
1/2-x,-y,1/2+z
1/2+x,1/2-y,1/2-z
-x,1/2+y,-z
-x,-y,-z
1/2+x,y,1/2-z
1/2-x,1/2+y,1/2+z
x,1/2-y,z
loop_
_atom_site_type_symbol
_atom_site_label
_atom_site_fract_x
_atom_site_fract_y
_atom_site_fract_z
Si Si1 0.081917 0.549831 0.374614
Si Si2 0.204124 0.635413 0.643672
Si Si3 0.163731 0.250000 0.349239
Si Si4 0.880511 0.522958 0.209985
Si Si5 0.658878 0.050525 0.019994
Si Si6 0.282258 0.250000 0.139201
Si Si7 0.176608 0.025106 0.125197
Si Si8 0.319217 0.638412 0.855291
O O1 0.266219 0.557666 0.353346
O O2 0.080869 0.489106 0.406557
O O3 0.989456 0.555989 0.279001
O O4 0.980443 0.574882 0.456025
O O5 0.255708 0.691784 0.602913
O O6 0.280776 0.583886 0.600280
O O7 0.259149 0.633699 0.750845
O O8 0.011809 0.632446 0.644040
O O9 0.210149 0.250000 0.241807
O O10 0.223281 0.304000 0.389009
O O11 0.973365 0.250000 0.354398
O O12 0.772024 0.489512 0.280340
O O13 0.994813 0.486986 0.149826
O O14 0.744373 0.094788 0.076769
O O15 0.764533 0.015128 0.952609
#
# Coordination Sequence:
#
# PCOD9461418 Si02
#       8
#     8   8   4   8   8   4   8   8
#     4   9  17  29  41  58  82 111 141 174 210 254
#     4  10  17  28  44  60  84 116 149 181 214 252
#     4   8  16  28  44  62  82 110 146 184 216 252
#     4   9  17  29  43  57  80 113 149 174 207 259
#     4  10  19  28  40  61  89 114 142 180 223 263
#     4   8  16  26  40  62  80 106 148 184 208 244
#     4  10  18  28  43  62  85 118 148 180 220 261
#     4  10  18  30  45  63  87 116 150 184 218 256
#
# _framework density 17.770465999999999
#
# number of rings (size 3 to 8) (size 9 to 14) (size 15 to 20)
#    0.000    2.571    0.000    5.143    0.000    0.571 
#    0.000    1.429    0.000    0.000    0.000    0.000 
#    0.000   18.286    0.000   10.286    0.000    4.000 
#
# Total GULP energy -311911.243545 kJ/mol
# GULP energy per Si atom -5569.843635 kJ/mol
# Density = 1.773002 g / cm^3
# Si number density = 17.770466 Si / 1000 Ang^3
#
#
#
# Elastic Constant Matrix: (Units=GPa)
#
#
# Indices 1 2 3 4 5 6 
#
# 1 59.0182 14.2252 25.7861 0.0000 0.0000 0.0000
# 2 14.2252 62.8064 12.1368 0.0000 0.0000 0.0000
# 3 25.7861 12.1368 50.9333 0.0000 0.0000 0.0000
# 4 0.0000 0.0000 0.0000 21.8091 0.0000 0.0000
# 5 0.0000 0.0000 0.0000 0.0000 21.7687 0.0000
# 6 0.0000 0.0000 0.0000 0.0000 0.0000 13.2989
#
#
#
# Elastic Compliance Matrix: (Units=1/GPa)
#
#
# Indices 1 2 3 4 5 6 
#
# 1 0.022285 -0.003006 -0.010566 0.000000 0.000000 0.000000
# 2 -0.003006 0.017096 -0.002552 0.000000 0.000000 0.000000
# 3 -0.010566 -0.002552 0.025591 0.000000 0.000000 0.000000
# 4 0.000000 0.000000 0.000000 0.045852 0.000000 0.000000
# 5 0.000000 0.000000 0.000000 0.000000 0.045937 0.000000
# 6 0.000000 0.000000 0.000000 0.000000 0.000000 0.075194
#
#
# Mechanical properties :
#
#
# Convention : Reuss Voigt Hill
#
# Bulk Modulus (GPa) = 30.55835 30.78379 30.67107
# Shear Modulus (GPa) = 18.17448 19.41600 18.79524
#
# Velocity S-wave (km/s) = 3.20149 3.30903 3.25571
# Velocity P-wave (km/s) = 5.55874 5.65334 5.60624
#
# Compressibility (1/GPa) = 0.03272428
#
# Stress axis : x y z
#
# Youngs Moduli (GPa) = 44.87361 58.49367 39.07630
#
# Poissons Ratio (x) = 0.17581 0.41288
# Poissons Ratio (y) = 0.13487 0.09973
# Poissons Ratio (z) = 0.47413 0.14928
#
# Static dielectric constant tensor:
#      x y z
#    x 1.696280 0.000000 0.000000 
#    y 0.000000 1.644170 0.000000 
#    z 0.000000 0.000000 1.625400 
# 
# From -- ./inp_files/17413.got.cif
#   From: 2010.05.17/outbox.cif.g08.bks.cpg/sg62_9_cif.got.tgz:17413.got - 2010.06.03 15:25:27.
