data_PCOD9461055
_publ_section_title
;
Structure prediction by ZEFSAII (Michael W. Deem and Ramdas Pophale) SiO2 
 PCOD9461055
Probable space group: P B C A
;
_chemical_formula_sum "Si O2"
_cell_formula_units_Z 32
_cell_length_a 4.885032
_cell_length_b 10.305024
_cell_length_c 25.944168
_cell_angle_alpha 90.000000
_cell_angle_beta 90.000000
_cell_angle_gamma 90.000000
_cell_volume 1306.039068
_symmetry_space_group_name_H-M "P B C A"
_symmetry_group_IT_number 61
_symmetry_cell_setting 'orthorhombic'
loop_
_space_group_symop_operation_xyz
x,y,z
1/2-x,-y,1/2+z
1/2+x,1/2-y,-z
-x,1/2+y,1/2-z
-x,-y,-z
1/2+x,y,1/2-z
1/2-x,1/2+y,z
x,1/2-y,1/2+z
loop_
_atom_site_type_symbol
_atom_site_label
_atom_site_fract_x
_atom_site_fract_y
_atom_site_fract_z
Si Si1 0.693065 0.026635 0.147513
Si Si2 0.162870 0.516782 0.579985
Si Si3 0.704253 0.278515 0.214500
Si Si4 0.195629 0.328027 0.488678
O O1 0.429232 0.976859 0.115622
O O2 0.818565 0.909765 0.181465
O O3 0.935302 0.068620 0.109194
O O4 0.628333 0.150689 0.182390
O O5 0.237971 0.450174 0.525951
O O6 0.975541 0.639199 0.562767
O O7 0.513185 0.278029 0.264697
O O8 0.490488 0.267180 0.480937
#
# Coordination Sequence:
#
# PCOD9461055 Si02
#       4
#     8   8   8   8
#     4  12  26  44  76 103 141 184 238 293 343 444
#     4  11  26  43  66 109 135 190 238 285 355 412
#     4  12  26  48  72 104 140 182 230 296 370 420
#     4  11  24  43  70  96 150 187 234 295 348 419
#
# _framework density 24.501567000000001
#
# number of rings (size 3 to 8) (size 9 to 14) (size 15 to 20)
#    0.000    0.500    0.000    7.500   10.500    4.000 
#    0.000    0.000    0.000    0.000    0.000    0.000 
#    0.000    0.000    0.000    0.000    0.000    0.000 
#
# Total GULP energy -179150.983768 kJ/mol
# GULP energy per Si atom -5598.468243 kJ/mol
# Density = 2.444580 g / cm^3
# Si number density = 24.501567 Si / 1000 Ang^3
#
#
#
# Elastic Constant Matrix: (Units=GPa)
#
#
# Indices 1 2 3 4 5 6 
#
# 1 91.8738 -10.9191 -0.1796 0.0000 0.0000 0.0000
# 2 -10.9191 89.2694 25.1905 0.0000 0.0000 0.0000
# 3 -0.1796 25.1905 74.0307 0.0000 0.0000 0.0000
# 4 0.0000 0.0000 0.0000 28.6022 0.0000 0.0000
# 5 0.0000 0.0000 0.0000 0.0000 34.8316 0.0000
# 6 0.0000 0.0000 0.0000 0.0000 0.0000 26.8975
#
#
#
# Elastic Compliance Matrix: (Units=1/GPa)
#
#
# Indices 1 2 3 4 5 6 
#
# 1 0.011060 0.001488 -0.000480 0.000000 0.000000 0.000000
# 2 0.001488 0.012592 -0.004281 0.000000 0.000000 0.000000
# 3 -0.000480 -0.004281 0.014963 0.000000 0.000000 0.000000
# 4 0.000000 0.000000 0.000000 0.034962 0.000000 0.000000
# 5 0.000000 0.000000 0.000000 0.000000 0.028710 0.000000
# 6 0.000000 0.000000 0.000000 0.000000 0.000000 0.037178
#
#
# Mechanical properties :
#
#
# Convention : Reuss Voigt Hill
#
# Bulk Modulus (GPa) = 31.18074 31.48417 31.33246
# Shear Modulus (GPa) = 31.90780 34.13841 33.02310
#
# Velocity S-wave (km/s) = 3.61262 3.73676 3.67522
# Velocity P-wave (km/s) = 5.49136 5.61210 5.55206
#
# Compressibility (1/GPa) = 0.03207108
#
# Stress axis : x y z
#
# Youngs Moduli (GPa) = 90.41239 79.41457 66.82931
#
# Poissons Ratio (x) = -0.11818 0.03205
# Poissons Ratio (y) = -0.13455 0.28611
# Poissons Ratio (z) = 0.04336 0.33998
#
# Static dielectric constant tensor:
#      x y z
#    x 1.877940 0.000000 0.000000 
#    y 0.000000 1.968620 0.000000 
#    z 0.000000 0.000000 1.982700 
# 
# From -- ./inp_files/161.got.cif
#   From: 2010.05.17/outbox.cif.g08.bks.cpg/sg61_1_cif.got.tgz:161.got - 2010.06.03 15:17:17.
