data_PCOD9461449
_publ_section_title
;
Structure prediction by ZEFSAII (Michael W. Deem and Ramdas Pophale) SiO2 
 PCOD9461449
Probable space group: P N M A
;
_chemical_formula_sum "Si O2"
_cell_formula_units_Z 64
_cell_length_a 12.244746
_cell_length_b 7.896492
_cell_length_c 29.536073
_cell_angle_alpha 90.000000
_cell_angle_beta 90.000000
_cell_angle_gamma 90.000000
_cell_volume 2855.858813
_symmetry_space_group_name_H-M "P N M A"
_symmetry_group_IT_number 62
_symmetry_cell_setting 'orthorhombic'
loop_
_space_group_symop_operation_xyz
x,y,z
1/2-x,-y,1/2+z
1/2+x,1/2-y,1/2-z
-x,1/2+y,-z
-x,-y,-z
1/2+x,y,1/2-z
1/2-x,1/2+y,1/2+z
x,1/2-y,z
loop_
_atom_site_type_symbol
_atom_site_label
_atom_site_fract_x
_atom_site_fract_y
_atom_site_fract_z
Si Si1 0.793885 0.942811 0.018931
Si Si2 0.646995 0.551208 0.149809
Si Si3 0.674167 0.542917 0.936193
Si Si4 0.936118 0.946084 0.825648
Si Si5 0.066863 0.053772 0.443398
Si Si6 0.493411 0.447652 0.769179
Si Si7 0.694109 0.955472 0.831395
Si Si8 0.878427 0.049989 0.112144
O O1 0.831156 0.750000 0.014724
O O2 0.669691 0.949102 0.038660
O O3 0.865308 0.026169 0.058222
O O4 0.771994 0.016263 0.968938
O O5 0.619172 0.750000 0.146237
O O6 0.580037 0.454057 0.111098
O O7 0.607844 0.494154 0.199204
O O8 0.773487 0.528886 0.137247
O O9 0.674449 0.750000 0.938123
O O10 0.554343 0.489017 0.953827
O O11 0.682786 0.495236 0.884066
O O12 0.917841 0.750000 0.838307
O O13 0.011242 0.019435 0.865461
O O14 0.815182 0.015746 0.818018
O O15 0.998884 0.957654 0.778273
O O16 0.079438 0.250000 0.456968
O O17 0.479256 0.250000 0.758499
O O18 0.600299 0.471336 0.799776
O O19 0.685284 0.750000 0.828338
O O20 0.872102 0.250000 0.121111
#
# Coordination Sequence:
#
# PCOD9461449 Si02
#       8
#     8   8   8   8   8   8   8   8
#     4  10  19  32  52  81 115 153 192 232 289 346
#     4  10  20  34  53  82 115 150 182 224 284 341
#     4   9  18  32  54  82 113 150 191 236 287 341
#     4  10  24  42  63  85 110 151 198 243 285 338
#     4  10  17  29  50  79 113 150 187 231 280 331
#     4  11  24  39  59  88 120 147 183 235 294 353
#     4  10  21  42  65  86 115 151 196 241 286 342
#     4  10  21  38  57  82 113 149 196 241 280 330
#
# _framework density 22.410070999999999
#
# number of rings (size 3 to 8) (size 9 to 14) (size 15 to 20)
#    0.000    2.000    1.250    3.750    1.750    3.000 
#    0.000    3.750    0.000    0.000    0.000    0.000 
#    0.000    0.000    0.000    0.000    0.000    0.000 
#
# Total GULP energy -357371.998603 kJ/mol
# GULP energy per Si atom -5583.937478 kJ/mol
# Density = 2.235906 g / cm^3
# Si number density = 22.410071 Si / 1000 Ang^3
#
#
#
# Elastic Constant Matrix: (Units=GPa)
#
#
# Indices 1 2 3 4 5 6 
#
# 1 43.5176 -2.3331 6.0006 0.0000 0.0000 0.0000
# 2 -2.3331 40.4758 -11.8037 0.0000 0.0000 0.0000
# 3 6.0006 -11.8037 60.8586 0.0000 0.0000 0.0000
# 4 0.0000 0.0000 0.0000 16.9909 0.0000 0.0000
# 5 0.0000 0.0000 0.0000 0.0000 19.0860 0.0000
# 6 0.0000 0.0000 0.0000 0.0000 0.0000 7.7380
#
#
#
# Elastic Compliance Matrix: (Units=1/GPa)
#
#
# Indices 1 2 3 4 5 6 
#
# 1 0.023315 0.000714 -0.002160 0.000000 0.000000 0.000000
# 2 0.000714 0.026209 0.005013 0.000000 0.000000 0.000000
# 3 -0.002160 0.005013 0.017617 0.000000 0.000000 0.000000
# 4 0.000000 0.000000 0.000000 0.058855 0.000000 0.000000
# 5 0.000000 0.000000 0.000000 0.000000 0.052394 0.000000
# 6 0.000000 0.000000 0.000000 0.000000 0.000000 0.129233
#
#
# Mechanical properties :
#
#
# Convention : Reuss Voigt Hill
#
# Bulk Modulus (GPa) = 13.46358 14.28659 13.87508
# Shear Modulus (GPa) = 15.37284 18.96218 17.16751
#
# Velocity S-wave (km/s) = 2.62196 2.91201 2.77079
# Velocity P-wave (km/s) = 3.89706 4.20658 4.05478
#
# Compressibility (1/GPa) = 0.07427447
#
# Stress axis : x y z
#
# Youngs Moduli (GPa) = 42.89010 38.15453 56.76391
#
# Poissons Ratio (x) = -0.02724 0.12263
# Poissons Ratio (y) = -0.03062 -0.28456
# Poissons Ratio (z) = 0.09266 -0.19127
#
# Static dielectric constant tensor:
#      x y z
#    x 1.831390 0.000000 0.000000 
#    y 0.000000 1.785780 0.000000 
#    z 0.000000 0.000000 1.876190 
# 
# From -- ./inp_files/32491.got.cif
#   From: 2010.05.17/outbox.cif.g08.bks.cpg/sg62_17_cif.got.tgz:32491.got - 2010.06.03 15:25:27.
