data_PCOD9461444
_publ_section_title
;
Structure prediction by ZEFSAII (Michael W. Deem and Ramdas Pophale) SiO2 
 PCOD9461444
Probable space group: P N M A
;
_chemical_formula_sum "Si O2"
_cell_formula_units_Z 56
_cell_length_a 20.161385
_cell_length_b 7.490091
_cell_length_c 19.625369
_cell_angle_alpha 90.000000
_cell_angle_beta 90.000000
_cell_angle_gamma 90.000000
_cell_volume 2963.638912
_symmetry_space_group_name_H-M "P N M A"
_symmetry_group_IT_number 62
_symmetry_cell_setting 'orthorhombic'
loop_
_space_group_symop_operation_xyz
x,y,z
1/2-x,-y,1/2+z
1/2+x,1/2-y,1/2-z
-x,1/2+y,-z
-x,-y,-z
1/2+x,y,1/2-z
1/2-x,1/2+y,1/2+z
x,1/2-y,z
loop_
_atom_site_type_symbol
_atom_site_label
_atom_site_fract_x
_atom_site_fract_y
_atom_site_fract_z
Si Si1 0.193517 0.540281 0.987557
Si Si2 0.161468 0.031740 0.740377
Si Si3 0.949250 0.462408 0.061294
Si Si4 0.730696 0.967812 0.363802
Si Si5 0.480380 0.541598 0.284078
Si Si6 0.767198 0.034998 0.645622
Si Si7 0.624916 0.968188 0.249129
O O1 0.180790 0.750000 0.998967
O O2 0.123780 0.466294 0.958961
O O3 0.249251 0.523010 0.929944
O O4 0.216595 0.466953 0.060254
O O5 0.160345 0.250000 0.741345
O O6 0.200884 0.976544 0.672564
O O7 0.207509 0.977103 0.804174
O O8 0.087053 0.966118 0.751775
O O9 0.944645 0.250000 0.070018
O O10 0.973824 0.533090 0.134017
O O11 0.000000 0.500000 0.000000
O O12 0.732161 0.750000 0.364753
O O13 0.671023 0.019427 0.313144
O O14 0.481522 0.750000 0.265074
O O15 0.550400 0.465744 0.259232
O O16 0.767371 0.250000 0.645964
O O17 0.835447 0.976128 0.681277
O O18 0.623727 0.750000 0.249380
#
# Coordination Sequence:
#
# PCOD9461444 Si02
#       7
#     8   8   8   8   8   8   8
#     4  10  19  30  46  67  92 122 154 191 233 274
#     4   8  14  25  45  67  85 112 153 192 223 263
#     4  11  22  32  44  67  98 130 156 185 230 285
#     4   8  14  26  42  63  89 117 150 186 222 269
#     4  10  17  29  49  71  91 117 152 195 237 273
#     4   9  16  29  47  67  89 117 153 191 227 274
#     4   8  15  27  46  68  91 117 149 188 230 273
#
# _framework density 18.895688
#
# number of rings (size 3 to 8) (size 9 to 14) (size 15 to 20)
#    0.000    2.857    1.429    3.000    0.000    2.857 
#    0.000    0.714    0.000    5.143    0.000    0.000 
#    0.000    0.000    0.000    0.000    0.000    0.000 
#
# Total GULP energy -312334.336460 kJ/mol
# GULP energy per Si atom -5577.398865 kJ/mol
# Density = 1.885268 g / cm^3
# Si number density = 18.895688 Si / 1000 Ang^3
#
#
#
# Elastic Constant Matrix: (Units=GPa)
#
#
# Indices 1 2 3 4 5 6 
#
# 1 163.4516 2.2065 53.5787 0.0000 0.0000 0.0000
# 2 2.2065 48.8671 -3.4253 0.0000 0.0000 0.0000
# 3 53.5787 -3.4253 61.4225 0.0000 0.0000 0.0000
# 4 0.0000 0.0000 0.0000 14.9207 0.0000 0.0000
# 5 0.0000 0.0000 0.0000 0.0000 25.3475 0.0000
# 6 0.0000 0.0000 0.0000 0.0000 0.0000 -7.4664
#
#
#
# Elastic Compliance Matrix: (Units=1/GPa)
#
#
# Indices 1 2 3 4 5 6 
#
# 1 0.008609 -0.000919 -0.007561 0.000000 0.000000 0.000000
# 2 -0.000919 0.020642 0.001952 0.000000 0.000000 0.000000
# 3 -0.007561 0.001952 0.022985 0.000000 0.000000 0.000000
# 4 0.000000 0.000000 0.000000 0.067021 0.000000 0.000000
# 5 0.000000 0.000000 0.000000 0.000000 0.039452 0.000000
# 6 0.000000 0.000000 0.000000 0.000000 0.000000 -0.133933
#
#
# Mechanical properties :
#
#
# Convention : Reuss Voigt Hill
#
# Bulk Modulus (GPa) = 25.52206 42.05122 33.78664
# Shear Modulus (GPa) = 98.25242 21.31912 59.78577
#
# Velocity S-wave (km/s) = 7.21874 3.36259 5.63104
# Velocity P-wave (km/s) = 9.11133 6.11382 7.75871
#
# Compressibility (1/GPa) = 0.03918180
#
# Stress axis : x y z
#
# Youngs Moduli (GPa) = 116.16069 48.44490 43.50722
#
# Poissons Ratio (x) = 0.04450 0.32894
# Poissons Ratio (y) = 0.10671 -0.08495
# Poissons Ratio (z) = 0.87825 -0.09459
#
# Static dielectric constant tensor:
#      x y z
#    x 1.666930 0.000000 0.000000 
#    y 0.000000 1.731600 0.000000 
#    z 0.000000 0.000000 1.634730 
# 
# From -- ./inp_files/24446.got.cif
#   From: 2010.05.17/outbox.cif.g08.bks.cpg/sg62_13_cif.got.tgz:24446.got - 2010.06.03 15:25:27.
