data_PCOD9461268
_publ_section_title
;
Structure prediction by ZEFSAII (Michael W. Deem and Ramdas Pophale) SiO2 
 PCOD9461268
Probable space group: P B C A
;
_chemical_formula_sum "Si O2"
_cell_formula_units_Z 56
_cell_length_a 21.000000
_cell_length_b 15.000000
_cell_length_c 9.000000
_cell_angle_alpha 90.000000
_cell_angle_beta 90.000000
_cell_angle_gamma 90.000000
_cell_volume 2835.000000
_symmetry_space_group_name_H-M "P B C A"
_symmetry_group_IT_number 61
_symmetry_cell_setting 'orthorhombic'
loop_
_space_group_symop_operation_xyz
x,y,z
1/2-x,-y,1/2+z
1/2+x,1/2-y,-z
-x,1/2+y,1/2-z
-x,-y,-z
1/2+x,y,1/2-z
1/2-x,1/2+y,z
x,1/2-y,1/2+z
loop_
_atom_site_type_symbol
_atom_site_label
_atom_site_fract_x
_atom_site_fract_y
_atom_site_fract_z
Si Si1 0.923629 0.898388 0.788988
Si Si2 0.256029 0.641834 0.626255
Si Si3 0.621898 0.572173 0.954826
Si Si4 0.545653 0.874033 0.895249
Si Si5 0.468253 0.284129 0.902186
Si Si6 0.780973 0.829759 0.721102
Si Si7 0.330356 0.464836 0.712307
O O1 0.853720 0.862416 0.746340
O O2 0.976899 0.912718 0.658268
O O3 0.960232 0.824579 0.891127
O O4 0.912651 0.991042 0.872913
O O5 0.182890 0.608026 0.635945
O O6 0.267189 0.665117 0.453866
O O7 0.270087 0.729843 0.720915
O O8 0.302092 0.560561 0.670663
O O9 0.573159 0.651086 0.993649
O O10 0.647412 0.537799 0.115495
O O11 0.558288 0.801703 0.762962
O O12 0.607254 0.937487 0.884508
O O13 0.537080 0.816604 0.043235
O O14 0.728249 0.894134 0.799488
#
# Coordination Sequence:
#
# PCOD9461268 Si02
#       7
#     8   8   8   8   8   8   8
#     4  10  22  39  64  91 126 162 214 265 315 394
#     4  11  25  41  68  93 132 171 216 274 322 383
#     4  10  20  42  66  93 121 174 213 263 328 381
#     4   9  21  39  64  95 128 165 214 255 328 381
#     4   9  20  37  65  90 127 165 210 260 318 385
#     4  11  25  41  64  97 126 170 218 263 327 380
#     4  10  22  43  65  93 130 167 216 267 320 388
#
# _framework density 19.753086
#
# number of rings (size 3 to 8) (size 9 to 14) (size 15 to 20)
#    0.857    1.143    1.429    1.286    4.000    0.000 
#    2.571    0.714    0.000    0.000    0.000    0.000 
#    0.000    0.000    0.000    0.000    0.000    0.000 
#
# Total GULP energy -312489.263816 kJ/mol
# GULP energy per Si atom -5580.165425 kJ/mol
# Density = 1.970813 g / cm^3
# Si number density = 19.753086 Si / 1000 Ang^3
#
#
#
# Elastic Constant Matrix: (Units=GPa)
#
#
# Indices 1 2 3 4 5 6 
#
# 1 113.4665 31.6888 3.5550 0.0000 0.0000 0.0000
# 2 31.6888 92.4226 25.7895 0.0000 0.0000 0.0000
# 3 3.5550 25.7895 22.1718 0.0000 0.0000 0.0000
# 4 0.0000 0.0000 0.0000 23.0883 0.0000 0.0000
# 5 0.0000 0.0000 0.0000 0.0000 27.0156 0.0000
# 6 0.0000 0.0000 0.0000 0.0000 0.0000 26.4552
#
#
#
# Elastic Compliance Matrix: (Units=1/GPa)
#
#
# Indices 1 2 3 4 5 6 
#
# 1 0.009927 -0.004382 0.003505 0.000000 0.000000 0.000000
# 2 -0.004382 0.017953 -0.020180 0.000000 0.000000 0.000000
# 3 0.003505 -0.020180 0.068013 0.000000 0.000000 0.000000
# 4 0.000000 0.000000 0.000000 0.043312 0.000000 0.000000
# 5 0.000000 0.000000 0.000000 0.000000 0.037016 0.000000
# 6 0.000000 0.000000 0.000000 0.000000 0.000000 0.037800
#
#
# Mechanical properties :
#
#
# Convention : Reuss Voigt Hill
#
# Bulk Modulus (GPa) = 18.59439 38.90306 28.74872
# Shear Modulus (GPa) = 18.24416 26.44700 22.34558
#
# Velocity S-wave (km/s) = 3.04239 3.66304 3.36705
# Velocity P-wave (km/s) = 4.66641 6.13416 5.44992
#
# Compressibility (1/GPa) = 0.05377967
#
# Stress axis : x y z
#
# Youngs Moduli (GPa) = 100.73461 55.70043 14.70311
#
# Poissons Ratio (x) = 0.24406 -0.05153
# Poissons Ratio (y) = 0.44139 0.29671
# Poissons Ratio (z) = -0.35307 1.12403
#
# Static dielectric constant tensor:
#      x y z
#    x 1.692210 0.000000 0.000000 
#    y 0.000000 1.668810 0.000000 
#    z 0.000000 0.000000 1.717520 
# 
# From -- ./inp_files/3976.got.cif
#   From: 2010.05.17/outbox.ucp.g08.bks.cvg/sg61_2_cif.got.tgz:3976.got - 2010.06.11 16:28:26.
