data_PCOD9461059
_publ_section_title
;
Structure prediction by ZEFSAII (Michael W. Deem and Ramdas Pophale) SiO2 
 PCOD9461059
Probable space group: P B C A
;
_chemical_formula_sum "Si O2"
_cell_formula_units_Z 48
_cell_length_a 9.265999
_cell_length_b 8.794659
_cell_length_c 26.396189
_cell_angle_alpha 90.000000
_cell_angle_beta 90.000000
_cell_angle_gamma 90.000000
_cell_volume 2151.059796
_symmetry_space_group_name_H-M "P B C A"
_symmetry_group_IT_number 61
_symmetry_cell_setting 'orthorhombic'
loop_
_space_group_symop_operation_xyz
x,y,z
1/2-x,-y,1/2+z
1/2+x,1/2-y,-z
-x,1/2+y,1/2-z
-x,-y,-z
1/2+x,y,1/2-z
1/2-x,1/2+y,z
x,1/2-y,1/2+z
loop_
_atom_site_type_symbol
_atom_site_label
_atom_site_fract_x
_atom_site_fract_y
_atom_site_fract_z
Si Si1 0.353199 0.639301 0.616403
Si Si2 0.364437 0.365917 0.776814
Si Si3 0.441051 0.017196 0.803397
Si Si4 0.904060 0.580579 0.542194
Si Si5 0.574566 0.012979 0.361721
Si Si6 0.353254 0.588501 0.499376
O O1 0.494730 0.556895 0.640350
O O2 0.214474 0.588414 0.648772
O O3 0.527600 0.951580 0.684905
O O4 0.376654 0.820124 0.618629
O O5 0.396541 0.185030 0.781750
O O6 0.423929 0.433556 0.724057
O O7 0.200967 0.412245 0.793164
O O8 0.878181 0.747372 0.522752
O O9 0.754849 0.493411 0.538316
O O10 0.000000 0.500000 0.500000
O O11 0.979582 0.568666 0.595712
O O12 0.811202 0.903436 0.441280
O O13 0.500000 0.500000 0.500000
#
# Coordination Sequence:
#
# PCOD9461059 Si02
#       6
#     8   8   8   8   8   8
#     4  11  24  44  65  98 132 177 223 275 336 396
#     4  11  25  46  70 103 135 178 221 284 333 407
#     4  11  25  45  71  99 137 171 227 272 342 398
#     4  12  24  44  66  97 135 178 229 271 334 398
#     4  11  26  43  69  97 138 177 230 277 337 401
#     4  12  26  42  67  96 137 179 223 281 332 397
#
# _framework density 22.314582000000001
#
# number of rings (size 3 to 8) (size 9 to 14) (size 15 to 20)
#    0.000    0.667    3.333    3.000    4.667    6.667 
#    0.000    0.000    0.000    0.000    0.000    0.000 
#    0.000    0.000    0.000    0.000    0.000    0.000 
#
# Total GULP energy -268412.962919 kJ/mol
# GULP energy per Si atom -5591.936727 kJ/mol
# Density = 2.226379 g / cm^3
# Si number density = 22.314582 Si / 1000 Ang^3
#
#
#
# Elastic Constant Matrix: (Units=GPa)
#
#
# Indices 1 2 3 4 5 6 
#
# 1 114.4887 26.9059 -4.0906 0.0000 0.0000 0.0000
# 2 26.9059 78.8553 -7.5379 0.0000 0.0000 0.0000
# 3 -4.0906 -7.5379 44.8375 0.0000 0.0000 0.0000
# 4 0.0000 0.0000 0.0000 22.8399 0.0000 0.0000
# 5 0.0000 0.0000 0.0000 0.0000 45.7882 0.0000
# 6 0.0000 0.0000 0.0000 0.0000 0.0000 22.0441
#
#
#
# Elastic Compliance Matrix: (Units=1/GPa)
#
#
# Indices 1 2 3 4 5 6 
#
# 1 0.009501 -0.003210 0.000327 0.000000 0.000000 0.000000
# 2 -0.003210 0.013973 0.002056 0.000000 0.000000 0.000000
# 3 0.000327 0.002056 0.022678 0.000000 0.000000 0.000000
# 4 0.000000 0.000000 0.000000 0.043783 0.000000 0.000000
# 5 0.000000 0.000000 0.000000 0.000000 0.021840 0.000000
# 6 0.000000 0.000000 0.000000 0.000000 0.000000 0.045364
#
#
# Mechanical properties :
#
#
# Convention : Reuss Voigt Hill
#
# Bulk Modulus (GPa) = 22.47285 29.85960 26.16623
# Shear Modulus (GPa) = 28.79759 32.99471 30.89615
#
# Velocity S-wave (km/s) = 3.59629 3.84945 3.72502
# Velocity P-wave (km/s) = 5.22850 5.75916 5.50023
#
# Compressibility (1/GPa) = 0.04449815
#
# Stress axis : x y z
#
# Youngs Moduli (GPa) = 105.25598 71.56435 44.09501
#
# Poissons Ratio (x) = 0.22975 -0.01442
# Poissons Ratio (y) = 0.33792 -0.09067
# Poissons Ratio (z) = -0.03442 -0.14716
#
# Static dielectric constant tensor:
#      x y z
#    x 1.979630 0.000000 0.000000 
#    y 0.000000 1.780420 0.000000 
#    z 0.000000 0.000000 1.919130 
# 
# From -- ./inp_files/11684.got.cif
#   From: 2010.05.17/outbox.cif.g08.bks.cpg/sg61_6_cif.got.tgz:11684.got - 2010.06.03 15:17:17.
