data_PCOD9461815
_publ_section_title
;
Structure prediction by ZEFSAII (Michael W. Deem and Ramdas Pophale) SiO2 
 PCOD9461815
Probable space group: P N M A
;
_chemical_formula_sum "Si O2"
_cell_formula_units_Z 64
_cell_length_a 10.514790
_cell_length_b 11.182357
_cell_length_c 31.652577
_cell_angle_alpha 90.000000
_cell_angle_beta 90.000000
_cell_angle_gamma 90.000000
_cell_volume 3721.714294
_symmetry_space_group_name_H-M "P N M A"
_symmetry_group_IT_number 62
_symmetry_cell_setting 'orthorhombic'
loop_
_space_group_symop_operation_xyz
x,y,z
1/2-x,-y,1/2+z
1/2+x,1/2-y,1/2-z
-x,1/2+y,-z
-x,-y,-z
1/2+x,y,1/2-z
1/2-x,1/2+y,1/2+z
x,1/2-y,z
loop_
_atom_site_type_symbol
_atom_site_label
_atom_site_fract_x
_atom_site_fract_y
_atom_site_fract_z
Si Si1 0.078995 0.889462 0.353205
Si Si2 0.813294 0.607341 0.385500
Si Si3 0.127249 0.611024 0.040574
Si Si4 0.058508 0.615849 0.946407
Si Si5 0.794542 0.383212 0.233365
Si Si6 0.574116 0.887541 0.333227
Si Si7 0.168001 0.540145 0.860557
Si Si8 0.960200 0.027191 0.740963
O O1 0.097873 0.750000 0.363061
O O2 0.052599 0.903807 0.303057
O O3 0.953926 0.939553 0.376770
O O4 0.205555 0.961129 0.364202
O O5 0.824458 0.750000 0.377985
O O6 0.753833 0.591443 0.431854
O O7 0.706008 0.563416 0.352497
O O8 0.084496 0.750000 0.050387
O O9 0.033742 0.500787 0.052562
O O10 0.138209 0.606677 0.989922
O O11 0.997049 0.750000 0.947378
O O12 0.140216 0.607885 0.903874
O O13 0.812272 0.250000 0.249810
O O14 0.816351 0.386064 0.182742
O O15 0.651670 0.428414 0.240997
O O16 0.900481 0.469922 0.253461
O O17 0.563914 0.750000 0.346166
O O18 0.567417 0.896251 0.282764
O O19 0.455163 0.958428 0.351636
#
# Coordination Sequence:
#
# PCOD9461815 Si02
#       8
#     8   8   8   8   8   8   8   8
#     4  10  20  33  50  74 107 140 171 213 261 318
#     4   9  17  31  51  74 103 136 170 209 261 315
#     4   9  18  33  56  82 107 137 174 218 269 322
#     4  10  19  33  55  82 109 135 172 222 269 314
#     4  10  20  34  49  66  94 133 175 215 256 311
#     4  10  18  30  51  75 101 129 167 218 259 305
#     4  10  20  32  49  75 103 135 173 209 260 312
#     4  10  20  32  49  71  97 130 173 216 260 306
#
# _framework density 17.196376000000001
#
# number of rings (size 3 to 8) (size 9 to 14) (size 15 to 20)
#    0.000    2.250    1.250    2.250    0.000    0.500 
#    0.000    4.375    0.000    3.750    0.000    0.000 
#    0.000    0.000    0.000    0.000    0.000    0.000 
#
# Total GULP energy -356404.401894 kJ/mol
# GULP energy per Si atom -5568.818780 kJ/mol
# Density = 1.715724 g / cm^3
# Si number density = 17.196376 Si / 1000 Ang^3
#
#
#
# Elastic Constant Matrix: (Units=GPa)
#
#
# Indices 1 2 3 4 5 6 
#
# 1 77.6854 20.2604 15.3660 0.0000 0.0000 0.0000
# 2 20.2604 66.6206 11.9059 0.0000 0.0000 0.0000
# 3 15.3660 11.9059 82.0921 0.0000 0.0000 0.0000
# 4 0.0000 0.0000 0.0000 7.4634 0.0000 0.0000
# 5 0.0000 0.0000 0.0000 0.0000 17.4571 0.0000
# 6 0.0000 0.0000 0.0000 0.0000 0.0000 6.8545
#
#
#
# Elastic Compliance Matrix: (Units=1/GPa)
#
#
# Indices 1 2 3 4 5 6 
#
# 1 0.014327 -0.003981 -0.002104 0.000000 0.000000 0.000000
# 2 -0.003981 0.016516 -0.001650 0.000000 0.000000 0.000000
# 3 -0.002104 -0.001650 0.012815 0.000000 0.000000 0.000000
# 4 0.000000 0.000000 0.000000 0.133987 0.000000 0.000000
# 5 0.000000 0.000000 0.000000 0.000000 0.057283 0.000000
# 6 0.000000 0.000000 0.000000 0.000000 0.000000 0.145889
#
#
# Mechanical properties :
#
#
# Convention : Reuss Voigt Hill
#
# Bulk Modulus (GPa) = 35.47794 35.71810 35.59802
# Shear Modulus (GPa) = 12.32487 18.27939 15.30213
#
# Velocity S-wave (km/s) = 2.68005 3.26387 2.98627
# Velocity P-wave (km/s) = 5.50025 5.91774 5.71281
#
# Compressibility (1/GPa) = 0.02818653
#
# Stress axis : x y z
#
# Youngs Moduli (GPa) = 69.79872 60.54753 78.03559
#
# Poissons Ratio (x) = 0.24104 0.16421
# Poissons Ratio (y) = 0.27787 0.12877
# Poissons Ratio (z) = 0.14688 0.09991
#
# Static dielectric constant tensor:
#      x y z
#    x 1.568470 0.000000 0.000000 
#    y 0.000000 1.592550 0.000000 
#    z 0.000000 0.000000 1.592270 
# 
# From -- ./inp_files/32236.got.cif
#   From: 2010.05.17/outbox.cif.g08.bks.cpg/sg62_17_cif.got.tgz:32236.got - 2010.06.03 15:25:27.
