data_PCOD9461542
_publ_section_title
;
Structure prediction by ZEFSAII (Michael W. Deem and Ramdas Pophale) SiO2 
 PCOD9461542
Probable space group: P N M A
;
_chemical_formula_sum "Si O2"
_cell_formula_units_Z 64
_cell_length_a 18.643289
_cell_length_b 9.332274
_cell_length_c 26.950754
_cell_angle_alpha 90.000000
_cell_angle_beta 90.000000
_cell_angle_gamma 90.000000
_cell_volume 4689.007563
_symmetry_space_group_name_H-M "P N M A"
_symmetry_group_IT_number 62
_symmetry_cell_setting 'orthorhombic'
loop_
_space_group_symop_operation_xyz
x,y,z
1/2-x,-y,1/2+z
1/2+x,1/2-y,1/2-z
-x,1/2+y,-z
-x,-y,-z
1/2+x,y,1/2-z
1/2-x,1/2+y,1/2+z
x,1/2-y,z
loop_
_atom_site_type_symbol
_atom_site_label
_atom_site_fract_x
_atom_site_fract_y
_atom_site_fract_z
Si Si1 0.844610 0.077995 0.145235
Si Si2 0.917389 0.078830 0.752731
Si Si3 0.085488 0.920893 0.048911
Si Si4 0.584093 0.420192 0.553526
Si Si5 0.295323 0.585278 0.798165
Si Si6 0.568666 0.577289 0.746327
Si Si7 0.670644 0.921296 0.352807
Si Si8 0.205283 0.585496 0.695094
O O1 0.848070 0.250000 0.137674
O O2 0.762617 0.042531 0.160313
O O3 0.894490 0.045102 0.193088
O O4 0.872981 0.994364 0.097843
O O5 0.923544 0.250000 0.749025
O O6 0.881937 0.043957 0.806515
O O7 0.862312 0.016528 0.711985
O O8 0.993900 0.003045 0.748938
O O9 0.094517 0.750000 0.040349
O O10 0.133687 0.964511 0.095735
O O11 0.001415 0.944108 0.061259
O O12 0.102330 0.007763 0.999160
O O13 0.596358 0.250000 0.552399
O O14 0.318322 0.750000 0.806694
O O15 0.249117 0.585370 0.747143
O O16 0.559614 0.750000 0.748661
O O17 0.626049 0.536004 0.788994
O O18 0.678812 0.750000 0.353033
O O19 0.747100 0.993112 0.342034
O O20 0.201345 0.750000 0.678105
#
# Coordination Sequence:
#
# PCOD9461542 Si02
#       8
#     8   8   8   8   8   8   8   8
#     4   9  17  29  44  59  78 108 141 169 201 241
#     4  10  18  26  39  61  85 107 134 168 203 236
#     4   9  18  31  42  55  80 110 138 168 202 241
#     4  10  19  29  42  60  81 105 136 174 208 236
#     4   8  15  28  42  56  77 106 137 165 196 238
#     4   9  17  28  41  58  81 109 138 165 196 238
#     4   9  17  28  41  57  79 107 136 167 203 238
#     4   8  15  27  41  57  77 102 134 168 197 232
#
# _framework density 13.648942999999999
#
# number of rings (size 3 to 8) (size 9 to 14) (size 15 to 20)
#    0.000    3.000    0.000    3.000    0.000    4.000 
#    0.000    2.500    0.000    0.000    0.000    0.000 
#    0.000    1.000    0.000    3.250    0.000    4.000 
#
# Total GULP energy -356397.079169 kJ/mol
# GULP energy per Si atom -5568.704362 kJ/mol
# Density = 1.361788 g / cm^3
# Si number density = 13.648943 Si / 1000 Ang^3
#
#
#
# Elastic Constant Matrix: (Units=GPa)
#
#
# Indices 1 2 3 4 5 6 
#
# 1 111.5829 58.3084 61.1505 0.0000 0.0000 0.0000
# 2 58.3084 46.0330 48.9634 0.0000 0.0000 0.0000
# 3 61.1505 48.9634 92.5093 0.0000 0.0000 0.0000
# 4 0.0000 0.0000 0.0000 20.5877 0.0000 0.0000
# 5 0.0000 0.0000 0.0000 0.0000 26.1516 0.0000
# 6 0.0000 0.0000 0.0000 0.0000 0.0000 23.9725
#
#
#
# Elastic Compliance Matrix: (Units=1/GPa)
#
#
# Indices 1 2 3 4 5 6 
#
# 1 0.026520 -0.034199 0.000570 0.000000 0.000000 0.000000
# 2 -0.034199 0.093809 -0.027045 0.000000 0.000000 0.000000
# 3 0.000570 -0.027045 0.024747 0.000000 0.000000 0.000000
# 4 0.000000 0.000000 0.000000 0.048573 0.000000 0.000000
# 5 0.000000 0.000000 0.000000 0.000000 0.038239 0.000000
# 6 0.000000 0.000000 0.000000 0.000000 0.000000 0.041714
#
#
# Mechanical properties :
#
#
# Convention : Reuss Voigt Hill
#
# Bulk Modulus (GPa) = 42.14247 65.21887 53.68067
# Shear Modulus (GPa) = 12.41130 19.58921 16.00026
#
# Velocity S-wave (km/s) = 3.01877 3.79254 3.42756
# Velocity P-wave (km/s) = 6.56458 8.18930 7.42153
#
# Compressibility (1/GPa) = 0.02372903
#
# Stress axis : x y z
#
# Youngs Moduli (GPa) = 37.70699 10.65998 40.40895
#
# Poissons Ratio (x) = 0.36456 -0.02305
# Poissons Ratio (y) = 1.28955 1.09286
# Poissons Ratio (z) = -0.02151 0.28830
#
# Static dielectric constant tensor:
#      x y z
#    x 1.441070 0.000000 0.000000 
#    y 0.000000 1.451450 0.000000 
#    z 0.000000 0.000000 1.429290 
# 
# From -- ./inp_files/31343.got.cif
#   From: 2010.05.17/outbox.cif.g08.bks.cpg/sg62_16_cif.got.tgz:31343.got - 2010.06.03 15:25:27.
