data_PCOD9461647
_publ_section_title
;
Structure prediction by ZEFSAII (Michael W. Deem and Ramdas Pophale) SiO2 
 PCOD9461647
Probable space group: P N M A
;
_chemical_formula_sum "Si O2"
_cell_formula_units_Z 56
_cell_length_a 14.301254
_cell_length_b 7.790898
_cell_length_c 21.055670
_cell_angle_alpha 90.000000
_cell_angle_beta 90.000000
_cell_angle_gamma 90.000000
_cell_volume 2346.014565
_symmetry_space_group_name_H-M "P N M A"
_symmetry_group_IT_number 62
_symmetry_cell_setting 'orthorhombic'
loop_
_space_group_symop_operation_xyz
x,y,z
1/2-x,-y,1/2+z
1/2+x,1/2-y,1/2-z
-x,1/2+y,-z
-x,-y,-z
1/2+x,y,1/2-z
1/2-x,1/2+y,1/2+z
x,1/2-y,z
loop_
_atom_site_type_symbol
_atom_site_label
_atom_site_fract_x
_atom_site_fract_y
_atom_site_fract_z
Si Si1 0.988035 0.556325 0.571305
Si Si2 0.655630 0.942416 0.168360
Si Si3 0.843821 0.053917 0.332242
Si Si4 0.509782 0.946343 0.593592
Si Si5 0.801560 0.538123 0.928759
Si Si6 0.713054 0.449704 0.566524
Si Si7 0.998921 0.047701 0.764111
O O1 0.950224 0.750000 0.574622
O O2 0.919164 0.437706 0.610926
O O3 0.000000 0.500000 0.500000
O O4 0.086205 0.556887 0.607566
O O5 0.682555 0.750000 0.189538
O O6 0.742829 0.026411 0.131336
O O7 0.591479 0.019852 0.224284
O O8 0.824984 0.250000 0.311881
O O9 0.750964 0.978892 0.364716
O O10 0.906141 0.970299 0.277360
O O11 0.517518 0.750000 0.571969
O O12 0.409407 0.015701 0.572546
O O13 0.601589 0.042139 0.570649
O O14 0.508773 0.953973 0.669767
O O15 0.798474 0.750000 0.927617
O O16 0.759080 0.481672 0.996817
O O17 0.741190 0.250000 0.567329
O O18 0.984952 0.250000 0.775334
#
# Coordination Sequence:
#
# PCOD9461647 Si02
#       7
#     8   8   8   8   8   8   8
#     4  10  18  28  48  77 111 147 182 221 272 330
#     4   9  19  35  56  80 108 141 181 228 280 336
#     4   9  18  35  57  81 109 144 182 224 274 331
#     4  11  23  38  56  80 110 148 191 233 272 321
#     4   9  19  36  59  84 112 146 184 226 278 331
#     4  10  20  38  61  84 112 147 184 228 281 333
#     4  10  21  38  57  82 113 145 182 226 277 332
#
# _framework density 23.870270999999999
#
# number of rings (size 3 to 8) (size 9 to 14) (size 15 to 20)
#    0.000    2.286    0.000    2.571    0.000    5.143 
#    0.000    5.714    0.000    0.000    0.000    0.000 
#    0.000    0.000    0.000    0.000    0.000    0.000 
#
# Total GULP energy -312594.517209 kJ/mol
# GULP energy per Si atom -5582.044950 kJ/mol
# Density = 2.381594 g / cm^3
# Si number density = 23.870271 Si / 1000 Ang^3
#
#
#
# Elastic Constant Matrix: (Units=GPa)
#
#
# Indices 1 2 3 4 5 6 
#
# 1 91.3674 1.5361 9.4822 0.0000 0.0000 0.0000
# 2 1.5361 52.4771 -6.3490 0.0000 0.0000 0.0000
# 3 9.4822 -6.3490 97.5135 0.0000 0.0000 0.0000
# 4 0.0000 0.0000 0.0000 -17.4165 0.0000 0.0000
# 5 0.0000 0.0000 0.0000 0.0000 27.5232 0.0000
# 6 0.0000 0.0000 0.0000 0.0000 0.0000 28.4457
#
#
#
# Elastic Compliance Matrix: (Units=1/GPa)
#
#
# Indices 1 2 3 4 5 6 
#
# 1 0.011067 -0.000458 -0.001106 0.000000 0.000000 0.000000
# 2 -0.000458 0.019226 0.001296 0.000000 0.000000 0.000000
# 3 -0.001106 0.001296 0.010447 0.000000 0.000000 0.000000
# 4 0.000000 0.000000 0.000000 -0.057417 0.000000 0.000000
# 5 0.000000 0.000000 0.000000 0.000000 0.036333 0.000000
# 6 0.000000 0.000000 0.000000 0.000000 0.000000 0.035155
#
#
# Mechanical properties :
#
#
# Convention : Reuss Voigt Hill
#
# Bulk Modulus (GPa) = 24.87223 27.85519 26.36371
# Shear Modulus (GPa) = 72.72907 23.48969 48.10938
#
# Velocity S-wave (km/s) = 5.52581 3.14037 4.49425
# Velocity P-wave (km/s) = 7.15229 4.98437 6.16438
#
# Compressibility (1/GPa) = 0.04020549
#
# Stress axis : x y z
#
# Youngs Moduli (GPa) = 90.35624 52.01241 95.72185
#
# Poissons Ratio (x) = 0.02381 0.10587
# Poissons Ratio (y) = 0.04136 -0.12408
# Poissons Ratio (z) = 0.09993 -0.06742
#
# Static dielectric constant tensor:
#      x y z
#    x 1.956690 0.000000 0.000000 
#    y 0.000000 2.059080 0.000000 
#    z 0.000000 0.000000 1.910500 
# 
# From -- ./inp_files/27259.got.cif
#   From: 2010.05.17/outbox.cif.g08.bks.cpg/sg62_14_cif.got.tgz:27259.got - 2010.06.03 15:25:27.
