data_PCOD9461871
_publ_section_title
;
Structure prediction by ZEFSAII (Michael W. Deem and Ramdas Pophale) SiO2 
 PCOD9461871
Probable space group: P N M A
;
_chemical_formula_sum "Si O2"
_cell_formula_units_Z 64
_cell_length_a 20.234592
_cell_length_b 8.650647
_cell_length_c 21.335309
_cell_angle_alpha 90.000000
_cell_angle_beta 90.000000
_cell_angle_gamma 90.000000
_cell_volume 3734.581827
_symmetry_space_group_name_H-M "P N M A"
_symmetry_group_IT_number 62
_symmetry_cell_setting 'orthorhombic'
loop_
_space_group_symop_operation_xyz
x,y,z
1/2-x,-y,1/2+z
1/2+x,1/2-y,1/2-z
-x,1/2+y,-z
-x,-y,-z
1/2+x,y,1/2-z
1/2-x,1/2+y,1/2+z
x,1/2-y,z
loop_
_atom_site_type_symbol
_atom_site_label
_atom_site_fract_x
_atom_site_fract_y
_atom_site_fract_z
Si Si1 0.208336 0.063705 0.688759
Si Si2 0.211796 0.562982 0.928710
Si Si3 0.570805 0.935119 0.377677
Si Si4 0.208546 0.564744 0.311255
Si Si5 0.789967 0.438345 0.932011
Si Si6 0.068936 0.564355 0.880555
Si Si7 0.426629 0.064476 0.233484
Si Si8 0.574432 0.435463 0.236655
O O1 0.209913 0.250000 0.688558
O O2 0.249379 0.011782 0.750190
O O3 0.244213 0.008904 0.625420
O O4 0.133361 0.009217 0.696047
O O5 0.215304 0.750000 0.924829
O O6 0.256189 0.494394 0.873738
O O7 0.135132 0.519764 0.916833
O O8 0.231204 0.512819 0.998661
O O9 0.570649 0.750000 0.373460
O O10 0.634247 0.983339 0.418042
O O11 0.499888 0.991235 0.402192
O O12 0.579941 0.002666 0.307791
O O13 0.207440 0.750000 0.310811
O O14 0.134615 0.502010 0.302963
O O15 0.788799 0.250000 0.931608
O O16 0.061971 0.750000 0.883330
O O17 0.079001 0.521595 0.807231
O O18 0.421079 0.250000 0.229959
O O19 0.500893 0.020095 0.213550
O O20 0.577723 0.250000 0.238191
#
# Coordination Sequence:
#
# PCOD9461871 Si02
#       8
#     8   8   8   8   8   8   8   8
#     4  10  19  33  53  77 104 135 171 213 261 311
#     4  10  20  36  55  72 103 146 181 214 257 314
#     4  10  18  31  50  74 106 142 177 216 259 305
#     4  11  21  34  54  81 108 134 173 222 267 310
#     4   9  19  35  52  74 104 142 179 212 261 317
#     4   9  18  31  47  73 104 138 179 215 251 306
#     4   9  18  32  50  77 105 130 170 215 255 304
#     4  10  20  34  53  78 106 137 174 215 261 315
#
# _framework density 17.137127
#
# number of rings (size 3 to 8) (size 9 to 14) (size 15 to 20)
#    0.000    2.250    2.500    1.875    0.000    4.000 
#    0.000    1.875    0.000    0.750    0.000    0.000 
#    0.000    0.000    0.000    0.000    0.000    0.000 
#
# Total GULP energy -357034.793426 kJ/mol
# GULP energy per Si atom -5578.668647 kJ/mol
# Density = 1.709812 g / cm^3
# Si number density = 17.137127 Si / 1000 Ang^3
#
#
#
# Elastic Constant Matrix: (Units=GPa)
#
#
# Indices 1 2 3 4 5 6 
#
# 1 131.9351 29.7942 76.3477 0.0000 0.0000 0.0000
# 2 29.7942 21.2326 26.7242 0.0000 0.0000 0.0000
# 3 76.3477 26.7242 118.6806 0.0000 0.0000 0.0000
# 4 0.0000 0.0000 0.0000 16.8878 0.0000 0.0000
# 5 0.0000 0.0000 0.0000 0.0000 22.5749 0.0000
# 6 0.0000 0.0000 0.0000 0.0000 0.0000 27.8918
#
#
#
# Elastic Compliance Matrix: (Units=1/GPa)
#
#
# Indices 1 2 3 4 5 6 
#
# 1 0.013816 -0.011443 -0.006311 0.000000 0.000000 0.000000
# 2 -0.011443 0.075203 -0.009573 0.000000 0.000000 0.000000
# 3 -0.006311 -0.009573 0.014641 0.000000 0.000000 0.000000
# 4 0.000000 0.000000 0.000000 0.059214 0.000000 0.000000
# 5 0.000000 0.000000 0.000000 0.000000 0.044297 0.000000
# 6 0.000000 0.000000 0.000000 0.000000 0.000000 0.035853
#
#
# Mechanical properties :
#
#
# Convention : Reuss Voigt Hill
#
# Bulk Modulus (GPa) = 20.40538 59.73117 40.06828
# Shear Modulus (GPa) = 15.92290 22.73640 19.32965
#
# Velocity S-wave (km/s) = 3.05150 3.64639 3.36212
# Velocity P-wave (km/s) = 4.93442 7.25663 6.20513
#
# Compressibility (1/GPa) = 0.04900667
#
# Stress axis : x y z
#
# Youngs Moduli (GPa) = 72.38200 13.29730 68.29994
#
# Poissons Ratio (x) = 0.15217 0.43103
# Poissons Ratio (y) = 0.82829 0.65381
# Poissons Ratio (z) = 0.45679 0.12729
#
# Static dielectric constant tensor:
#      x y z
#    x 1.579900 0.000000 0.000000 
#    y 0.000000 1.583750 0.000000 
#    z 0.000000 0.000000 1.573380 
# 
# From -- ./inp_files/27778.got.cif
#   From: 2010.05.17/outbox.cif.g08.bks.cpg/sg62_14_cif.got.tgz:27778.got - 2010.06.03 15:25:27.
