data_PCOD9461887
_publ_section_title
;
Structure prediction by ZEFSAII (Michael W. Deem and Ramdas Pophale) SiO2 
 PCOD9461887
Probable space group: P N M A
;
_chemical_formula_sum "Si O2"
_cell_formula_units_Z 64
_cell_length_a 21.767215
_cell_length_b 7.615618
_cell_length_c 17.549074
_cell_angle_alpha 90.000000
_cell_angle_beta 90.000000
_cell_angle_gamma 90.000000
_cell_volume 2909.123937
_symmetry_space_group_name_H-M "P N M A"
_symmetry_group_IT_number 62
_symmetry_cell_setting 'orthorhombic'
loop_
_space_group_symop_operation_xyz
x,y,z
1/2-x,-y,1/2+z
1/2+x,1/2-y,1/2-z
-x,1/2+y,-z
-x,-y,-z
1/2+x,y,1/2-z
1/2-x,1/2+y,1/2+z
x,1/2-y,z
loop_
_atom_site_type_symbol
_atom_site_label
_atom_site_fract_x
_atom_site_fract_y
_atom_site_fract_z
Si Si1 0.106810 0.965609 0.265155
Si Si2 0.814263 0.465067 0.598855
Si Si3 0.283367 0.038906 0.164439
Si Si4 0.376344 0.957644 0.288353
Si Si5 0.677532 0.042842 0.560936
Si Si6 0.022227 0.460048 0.669965
Si Si7 0.649804 0.550220 0.391064
Si Si8 0.111640 0.960157 0.544110
O O1 0.107640 0.750000 0.262518
O O2 0.164585 0.019520 0.317099
O O3 0.110406 0.029007 0.178142
O O4 0.045102 0.022776 0.307865
O O5 0.813690 0.250000 0.597649
O O6 0.747162 0.526553 0.571594
O O7 0.866689 0.522118 0.538554
O O8 0.277538 0.250000 0.161093
O O9 0.334390 0.983064 0.102304
O O10 0.311707 0.983410 0.244888
O O11 0.218789 0.957620 0.142423
O O12 0.389329 0.750000 0.293420
O O13 0.367077 0.029632 0.373229
O O14 0.428449 0.031695 0.231885
O O15 0.682711 0.250000 0.576339
O O16 0.653345 0.026058 0.475409
O O17 0.020557 0.250000 0.677215
O O18 0.048229 0.492807 0.585434
O O19 0.629743 0.750000 0.401161
O O20 0.112694 0.750000 0.541395
#
# Coordination Sequence:
#
# PCOD9461887 Si02
#       8
#     8   8   8   8   8   8   8   8
#     4   9  19  34  52  73 101 139 175 210 254 308
#     4   9  16  30  51  73 100 135 169 199 250 319
#     4  10  18  31  51  76 106 136 166 207 262 315
#     4   9  18  32  54  78 101 135 176 215 254 309
#     4  10  19  34  53  75 103 135 172 212 265 320
#     4   9  18  34  53  75 102 134 176 216 249 294
#     4  11  21  33  51  75 103 135 175 218 263 311
#     4   9  17  30  50  75 101 134 167 201 250 308
#
# _framework density 21.999751
#
# number of rings (size 3 to 8) (size 9 to 14) (size 15 to 20)
#    0.000    2.500    1.250    1.500    0.000    3.500 
#    0.000    1.875    0.000    2.250    0.000    0.000 
#    0.000    0.000    0.000    0.000    0.000    0.000 
#
# Total GULP energy -357114.026180 kJ/mol
# GULP energy per Si atom -5579.906659 kJ/mol
# Density = 2.194968 g / cm^3
# Si number density = 21.999751 Si / 1000 Ang^3
#
#
#
# Elastic Constant Matrix: (Units=GPa)
#
#
# Indices 1 2 3 4 5 6 
#
# 1 38.5331 2.5564 18.5254 0.0000 0.0000 0.0000
# 2 2.5564 38.5774 0.7146 0.0000 0.0000 0.0000
# 3 18.5254 0.7146 134.5473 0.0000 0.0000 0.0000
# 4 0.0000 0.0000 0.0000 13.3600 0.0000 0.0000
# 5 0.0000 0.0000 0.0000 0.0000 22.2258 0.0000
# 6 0.0000 0.0000 0.0000 0.0000 0.0000 11.0625
#
#
#
# Elastic Compliance Matrix: (Units=1/GPa)
#
#
# Indices 1 2 3 4 5 6 
#
# 1 0.027913 -0.001779 -0.003834 0.000000 0.000000 0.000000
# 2 -0.001779 0.026038 0.000107 0.000000 0.000000 0.000000
# 3 -0.003834 0.000107 0.007960 0.000000 0.000000 0.000000
# 4 0.000000 0.000000 0.000000 0.074850 0.000000 0.000000
# 5 0.000000 0.000000 0.000000 0.000000 0.044993 0.000000
# 6 0.000000 0.000000 0.000000 0.000000 0.000000 0.090396
#
#
# Mechanical properties :
#
#
# Convention : Reuss Voigt Hill
#
# Bulk Modulus (GPa) = 19.64694 28.36120 24.00407
# Shear Modulus (GPa) = 16.65962 21.98709 19.32336
#
# Velocity S-wave (km/s) = 2.75483 3.16480 2.96690
# Velocity P-wave (km/s) = 4.36677 5.12583 4.76145
#
# Compressibility (1/GPa) = 0.05089850
#
# Stress axis : x y z
#
# Youngs Moduli (GPa) = 35.82579 38.40574 125.63402
#
# Poissons Ratio (x) = 0.06831 0.48165
# Poissons Ratio (y) = 0.06372 -0.01339
# Poissons Ratio (z) = 0.13735 -0.00409
#
# Static dielectric constant tensor:
#      x y z
#    x 1.804620 0.000000 0.000000 
#    y 0.000000 1.833660 0.000000 
#    z 0.000000 0.000000 1.827070 
# 
# From -- ./inp_files/20859.got.cif
#   From: 2010.05.17/outbox.cif.g08.bks.cpg/sg62_11_cif.got.tgz:20859.got - 2010.06.03 15:25:27.
