data_PCOD9461718
_publ_section_title
;
Structure prediction by ZEFSAII (Michael W. Deem and Ramdas Pophale) SiO2 
 PCOD9461718
Probable space group: P N M A
;
_chemical_formula_sum "Si O2"
_cell_formula_units_Z 64
_cell_length_a 24.073048
_cell_length_b 8.490917
_cell_length_c 19.767677
_cell_angle_alpha 90.000000
_cell_angle_beta 90.000000
_cell_angle_gamma 90.000000
_cell_volume 4040.557706
_symmetry_space_group_name_H-M "P N M A"
_symmetry_group_IT_number 62
_symmetry_cell_setting 'orthorhombic'
loop_
_space_group_symop_operation_xyz
x,y,z
1/2-x,-y,1/2+z
1/2+x,1/2-y,1/2-z
-x,1/2+y,-z
-x,-y,-z
1/2+x,y,1/2-z
1/2-x,1/2+y,1/2+z
x,1/2-y,z
loop_
_atom_site_type_symbol
_atom_site_label
_atom_site_fract_x
_atom_site_fract_y
_atom_site_fract_z
Si Si1 0.834229 0.563359 0.776953
Si Si2 0.934924 0.061193 0.859709
Si Si3 0.747436 0.439847 0.501755
Si Si4 0.272308 0.938469 0.142070
Si Si5 0.381896 0.940737 0.501510
Si Si6 0.838059 0.558807 0.230405
Si Si7 0.273957 0.440196 0.849890
Si Si8 0.061836 0.057677 0.860002
O O1 0.831370 0.750000 0.783514
O O2 0.893269 0.503760 0.803197
O O3 0.786288 0.490860 0.825099
O O4 0.818691 0.512041 0.701047
O O5 0.934087 0.250000 0.857273
O O6 0.998454 0.006200 0.851623
O O7 0.911555 0.006887 0.932275
O O8 0.747202 0.250000 0.501863
O O9 0.776003 0.497787 0.433489
O O10 0.682662 0.490295 0.500786
O O11 0.775122 0.491297 0.572214
O O12 0.273087 0.750000 0.140530
O O13 0.319572 0.994085 0.194936
O O14 0.382747 0.750000 0.504899
O O15 0.413296 0.988815 0.432911
O O16 0.840237 0.750000 0.231974
O O17 0.786773 0.518746 0.180701
O O18 0.895555 0.503341 0.198088
O O19 0.278493 0.250000 0.846867
O O20 0.062025 0.250000 0.859238
#
# Coordination Sequence:
#
# PCOD9461718 Si02
#       8
#     8   8   8   8   8   8   8   8
#     4  11  21  33  47  65  93 127 160 199 243 281
#     4  11  21  31  46  68  94 127 166 204 231 272
#     4  10  18  29  49  73  99 130 155 185 236 290
#     4  10  19  30  49  71  95 123 158 198 235 283
#     4  10  18  30  47  67  96 132 162 191 227 277
#     4   8  14  28  47  67  89 118 155 195 233 273
#     4   9  17  31  51  71  92 121 157 193 235 287
#     4   9  17  30  48  68  92 126 167 198 232 277
#
# _framework density 15.839397999999999
#
# number of rings (size 3 to 8) (size 9 to 14) (size 15 to 20)
#    0.000    2.250    2.500    3.000    0.000    0.500 
#    0.000    0.625    0.000    7.500    0.000    0.875 
#    0.000    0.000    0.000    0.000    0.000    0.000 
#
# Total GULP energy -356932.599579 kJ/mol
# GULP energy per Si atom -5577.071868 kJ/mol
# Density = 1.580335 g / cm^3
# Si number density = 15.839398 Si / 1000 Ang^3
#
#
#
# Elastic Constant Matrix: (Units=GPa)
#
#
# Indices 1 2 3 4 5 6 
#
# 1 102.4559 14.0075 76.9652 0.0000 0.0000 0.0000
# 2 14.0075 13.2094 19.8656 0.0000 0.0000 0.0000
# 3 76.9652 19.8656 154.9572 0.0000 0.0000 0.0000
# 4 0.0000 0.0000 0.0000 25.6531 0.0000 0.0000
# 5 0.0000 0.0000 0.0000 0.0000 20.1454 0.0000
# 6 0.0000 0.0000 0.0000 0.0000 0.0000 11.1227
#
#
#
# Elastic Compliance Matrix: (Units=1/GPa)
#
#
# Indices 1 2 3 4 5 6 
#
# 1 0.015969 -0.006201 -0.007137 0.000000 0.000000 0.000000
# 2 -0.006201 0.096194 -0.009252 0.000000 0.000000 0.000000
# 3 -0.007137 -0.009252 0.011184 0.000000 0.000000 0.000000
# 4 0.000000 0.000000 0.000000 0.038982 0.000000 0.000000
# 5 0.000000 0.000000 0.000000 0.000000 0.049639 0.000000
# 6 0.000000 0.000000 0.000000 0.000000 0.000000 0.089906
#
#
# Mechanical properties :
#
#
# Convention : Reuss Voigt Hill
#
# Bulk Modulus (GPa) = 12.79303 54.69991 33.74647
# Shear Modulus (GPa) = 13.40085 22.03651 17.71868
#
# Velocity S-wave (km/s) = 2.91184 3.73399 3.34825
# Velocity P-wave (km/s) = 4.40447 7.29378 6.02489
#
# Compressibility (1/GPa) = 0.07816755
#
# Stress axis : x y z
#
# Youngs Moduli (GPa) = 62.62045 10.39564 89.41174
#
# Poissons Ratio (x) = 0.06447 0.63810
# Poissons Ratio (y) = 0.38833 0.82724
# Poissons Ratio (z) = 0.44690 0.09618
#
# Static dielectric constant tensor:
#      x y z
#    x 1.516840 0.000000 0.000000 
#    y 0.000000 1.543210 0.000000 
#    z 0.000000 0.000000 1.533430 
# 
# From -- ./inp_files/24965.got.cif
#   From: 2010.05.17/outbox.cif.g08.bks.cpg/sg62_13_cif.got.tgz:24965.got - 2010.06.03 15:25:27.
