data_PCOD9461214
_publ_section_title
;
Structure prediction by ZEFSAII (Michael W. Deem and Ramdas Pophale) SiO2 
 PCOD9461214
Probable space group: P B C A
;
_chemical_formula_sum "Si O2"
_cell_formula_units_Z 40
_cell_length_a 18.394787
_cell_length_b 5.432577
_cell_length_c 13.942291
_cell_angle_alpha 90.000000
_cell_angle_beta 90.000000
_cell_angle_gamma 90.000000
_cell_volume 1393.268431
_symmetry_space_group_name_H-M "P B C A"
_symmetry_group_IT_number 61
_symmetry_cell_setting 'orthorhombic'
loop_
_space_group_symop_operation_xyz
x,y,z
1/2-x,-y,1/2+z
1/2+x,1/2-y,-z
-x,1/2+y,1/2-z
-x,-y,-z
1/2+x,y,1/2-z
1/2-x,1/2+y,z
x,1/2-y,1/2+z
loop_
_atom_site_type_symbol
_atom_site_label
_atom_site_fract_x
_atom_site_fract_y
_atom_site_fract_z
Si Si1 0.412124 0.706666 0.221027
Si Si2 0.767785 0.006390 0.721198
Si Si3 0.366670 0.062539 0.069766
Si Si4 0.499013 0.345222 0.107556
Si Si5 0.838880 0.555553 0.535280
O O1 0.353870 0.547341 0.281950
O O2 0.442349 0.562472 0.129570
O O3 0.480004 0.744362 0.288611
O O4 0.375887 0.952515 0.177979
O O5 0.741113 0.762850 0.773825
O O6 0.717514 0.032955 0.625570
O O7 0.451096 0.143603 0.052822
O O8 0.327943 0.312917 0.031393
O O9 0.335471 0.827072 0.012469
O O10 0.576959 0.442776 0.072618
#
# Coordination Sequence:
#
# PCOD9461214 Si02
#       5
#     8   8   8   8   8
#     4  12  28  48  86 126 167 216 282 342 418 500
#     4  12  29  54  82 110 165 231 275 329 417 508
#     4  12  27  50  82 129 160 210 279 353 407 508
#     4  12  26  48  88 127 168 214 275 353 426 499
#     4  12  28  51  83 116 171 222 273 343 431 496
#
# _framework density 28.709471000000001
#
# number of rings (size 3 to 8) (size 9 to 14) (size 15 to 20)
#    0.000    0.000    6.000    2.400    8.400    0.000 
#    0.000    6.000    0.000    0.000    0.000    0.000 
#    0.000    0.000    0.000    0.000    0.000    0.000 
#
# Total GULP energy -223573.068430 kJ/mol
# GULP energy per Si atom -5589.326711 kJ/mol
# Density = 2.864413 g / cm^3
# Si number density = 28.709471 Si / 1000 Ang^3
#
#
#
# Elastic Constant Matrix: (Units=GPa)
#
#
# Indices 1 2 3 4 5 6 
#
# 1 195.5927 70.0148 55.3261 0.0000 0.0000 0.0000
# 2 70.0148 215.3082 22.4494 0.0000 0.0000 0.0000
# 3 55.3261 22.4494 94.2649 0.0000 0.0000 0.0000
# 4 0.0000 0.0000 0.0000 53.6472 0.0000 0.0000
# 5 0.0000 0.0000 0.0000 0.0000 59.9037 0.0000
# 6 0.0000 0.0000 0.0000 0.0000 0.0000 51.8386
#
#
#
# Elastic Compliance Matrix: (Units=1/GPa)
#
#
# Indices 1 2 3 4 5 6 
#
# 1 0.006769 -0.001832 -0.003536 0.000000 0.000000 0.000000
# 2 -0.001832 0.005259 -0.000177 0.000000 0.000000 0.000000
# 3 -0.003536 -0.000177 0.012726 0.000000 0.000000 0.000000
# 4 0.000000 0.000000 0.000000 0.018640 0.000000 0.000000
# 5 0.000000 0.000000 0.000000 0.000000 0.016693 0.000000
# 6 0.000000 0.000000 0.000000 0.000000 0.000000 0.019291
#
#
# Mechanical properties :
#
#
# Convention : Reuss Voigt Hill
#
# Bulk Modulus (GPa) = 73.19382 88.97184 81.08283
# Shear Modulus (GPa) = 52.61830 56.90293 54.76062
#
# Velocity S-wave (km/s) = 4.28575 4.45683 4.37212
# Velocity P-wave (km/s) = 7.07391 7.58565 7.33424
#
# Compressibility (1/GPa) = 0.01366236
#
# Stress axis : x y z
#
# Youngs Moduli (GPa) = 147.73379 190.15657 78.57842
#
# Poissons Ratio (x) = 0.34845 0.27789
# Poissons Ratio (y) = 0.27071 0.01390
# Poissons Ratio (z) = 0.52245 0.03364
#
# Static dielectric constant tensor:
#      x y z
#    x 2.224140 0.000000 0.000000 
#    y 0.000000 2.286710 0.000000 
#    z 0.000000 0.000000 2.333840 
# 
# From -- ./inp_files/10506.got.cif
#   From: 2010.05.17/outbox.cif.g08.bks.cpg/sg61_6_cif.got.tgz:10506.got - 2010.06.03 15:17:17.
