data_PCOD9461778
_publ_section_title
;
Structure prediction by ZEFSAII (Michael W. Deem and Ramdas Pophale) SiO2 
 PCOD9461778
Probable space group: P N M A
;
_chemical_formula_sum "Si O2"
_cell_formula_units_Z 64
_cell_length_a 7.399573
_cell_length_b 15.093056
_cell_length_c 29.038301
_cell_angle_alpha 90.000000
_cell_angle_beta 90.000000
_cell_angle_gamma 90.000000
_cell_volume 3243.060459
_symmetry_space_group_name_H-M "P N M A"
_symmetry_group_IT_number 62
_symmetry_cell_setting 'orthorhombic'
loop_
_space_group_symop_operation_xyz
x,y,z
1/2-x,-y,1/2+z
1/2+x,1/2-y,1/2-z
-x,1/2+y,-z
-x,-y,-z
1/2+x,y,1/2-z
1/2-x,1/2+y,1/2+z
x,1/2-y,z
loop_
_atom_site_type_symbol
_atom_site_label
_atom_site_fract_x
_atom_site_fract_y
_atom_site_fract_z
Si Si1 0.484573 0.850715 0.197603
Si Si2 0.551754 0.849829 0.303891
Si Si3 0.983452 0.901916 0.021132
Si Si4 0.434885 0.471820 0.616346
Si Si5 0.519234 0.020125 0.880139
Si Si6 0.564692 0.645686 0.035277
Si Si7 0.529966 0.154639 0.424662
Si Si8 0.027853 0.648956 0.568170
O O1 0.553738 0.750000 0.189698
O O2 0.515642 0.873618 0.250944
O O3 0.268603 0.846363 0.190353
O O4 0.557778 0.924671 0.162710
O O5 0.482119 0.750000 0.311356
O O6 0.480386 0.918143 0.341635
O O7 0.778774 0.872926 0.031524
O O8 0.073831 0.908862 0.071058
O O9 0.045328 0.846115 0.976967
O O10 0.000000 0.000000 0.000000
O O11 0.230642 0.494509 0.630220
O O12 0.524097 0.564722 0.601384
O O13 0.505859 0.084115 0.924324
O O14 0.452411 0.924190 0.896996
O O15 0.534723 0.750000 0.044087
O O16 0.485122 0.624005 0.984795
O O17 0.487878 0.250000 0.403071
O O18 0.750641 0.148853 0.429512
O O19 0.970596 0.750000 0.576881
#
# Coordination Sequence:
#
# PCOD9461778 Si02
#       8
#     8   8   8   8   8   8   8   8
#     4   9  18  32  47  66  89 115 148 186 231 279
#     4   9  18  31  46  64  88 114 145 187 231 275
#     4   9  17  29  44  65  93 124 157 188 218 262
#     4   9  18  30  47  70  91 117 155 191 227 270
#     4  10  18  30  49  70  94 121 151 194 234 270
#     4  10  19  30  45  68  97 127 156 187 225 274
#     4   8  14  27  45  65  91 121 151 184 218 262
#     4   8  15  27  44  66  92 123 156 183 216 264
#
# _framework density 19.734445000000001
#
# number of rings (size 3 to 8) (size 9 to 14) (size 15 to 20)
#    0.000    3.000    0.000    2.625    0.000    2.500 
#    0.000    1.250    0.000    6.000    0.000    0.000 
#    0.000    0.000    0.000    0.000    0.000    0.000 
#
# Total GULP energy -356684.625386 kJ/mol
# GULP energy per Si atom -5573.197272 kJ/mol
# Density = 1.968953 g / cm^3
# Si number density = 19.734445 Si / 1000 Ang^3
#
#
#
# Elastic Constant Matrix: (Units=GPa)
#
#
# Indices 1 2 3 4 5 6 
#
# 1 51.2996 -5.1372 -4.0364 0.0000 0.0000 0.0000
# 2 -5.1372 145.2615 99.0071 0.0000 0.0000 0.0000
# 3 -4.0364 99.0071 128.3827 0.0000 0.0000 0.0000
# 4 0.0000 0.0000 0.0000 29.4558 0.0000 0.0000
# 5 0.0000 0.0000 0.0000 0.0000 10.0284 0.0000
# 6 0.0000 0.0000 0.0000 0.0000 0.0000 3.6334
#
#
#
# Elastic Compliance Matrix: (Units=1/GPa)
#
#
# Indices 1 2 3 4 5 6 
#
# 1 0.019564 0.000575 0.000172 0.000000 0.000000 0.000000
# 2 0.000575 0.014529 -0.011186 0.000000 0.000000 0.000000
# 3 0.000172 -0.011186 0.016421 0.000000 0.000000 0.000000
# 4 0.000000 0.000000 0.000000 0.033949 0.000000 0.000000
# 5 0.000000 0.000000 0.000000 0.000000 0.099716 0.000000
# 6 0.000000 0.000000 0.000000 0.000000 0.000000 0.275227
#
#
# Mechanical properties :
#
#
# Convention : Reuss Voigt Hill
#
# Bulk Modulus (GPa) = 33.74370 56.06785 44.90577
# Shear Modulus (GPa) = 10.20063 24.29755 17.24909
#
# Velocity S-wave (km/s) = 2.27600 3.51269 2.95966
# Velocity P-wave (km/s) = 4.90336 6.70260 5.87230
#
# Compressibility (1/GPa) = 0.02963516
#
# Stress axis : x y z
#
# Youngs Moduli (GPa) = 51.11319 68.82842 60.89601
#
# Poissons Ratio (x) = -0.03956 -0.01047
# Poissons Ratio (y) = -0.02938 0.68121
# Poissons Ratio (z) = -0.00878 0.76994
#
# Static dielectric constant tensor:
#      x y z
#    x 1.736180 0.000000 0.000000 
#    y 0.000000 1.731450 0.000000 
#    z 0.000000 0.000000 1.677780 
# 
# From -- ./inp_files/32316.got.cif
#   From: 2010.05.17/outbox.cif.g08.bks.cpg/sg62_17_cif.got.tgz:32316.got - 2010.06.03 15:25:27.
