data_PCOD9461208
_publ_section_title
;
Structure prediction by ZEFSAII (Michael W. Deem and Ramdas Pophale) SiO2 
 PCOD9461208
Probable space group: P B C A
;
_chemical_formula_sum "Si O2"
_cell_formula_units_Z 40
_cell_length_a 13.957482
_cell_length_b 13.797453
_cell_length_c 8.330885
_cell_angle_alpha 90.000000
_cell_angle_beta 90.000000
_cell_angle_gamma 90.000000
_cell_volume 1604.342688
_symmetry_space_group_name_H-M "P B C A"
_symmetry_group_IT_number 61
_symmetry_cell_setting 'orthorhombic'
loop_
_space_group_symop_operation_xyz
x,y,z
1/2-x,-y,1/2+z
1/2+x,1/2-y,-z
-x,1/2+y,1/2-z
-x,-y,-z
1/2+x,y,1/2-z
1/2-x,1/2+y,z
x,1/2-y,1/2+z
loop_
_atom_site_type_symbol
_atom_site_label
_atom_site_fract_x
_atom_site_fract_y
_atom_site_fract_z
Si Si1 0.325104 0.025761 0.495985
Si Si2 0.847829 0.084867 0.636860
Si Si3 0.313953 0.293306 0.764851
Si Si4 0.998442 0.171170 0.430564
Si Si5 0.109624 0.159324 0.110826
O O1 0.341468 0.054537 0.679045
O O2 0.339613 0.115432 0.378107
O O3 0.217038 0.988261 0.465507
O O4 0.389133 0.928754 0.483166
O O5 0.802042 0.192835 0.642419
O O6 0.951251 0.097230 0.556476
O O7 0.405463 0.279055 0.650721
O O8 0.216402 0.317060 0.672560
O O9 0.055402 0.132355 0.276538
O O10 0.061528 0.248119 0.527936
#
# Coordination Sequence:
#
# PCOD9461208 Si02
#       5
#     8   8   8   8   8
#     4  12  27  51  86 118 163 228 277 338 421 508
#     4  12  25  51  82 117 165 219 271 347 410 482
#     4  12  27  55  81 118 175 216 277 349 415 491
#     4  12  27  49  84 123 165 217 274 352 408 501
#     4  12  28  50  83 126 157 226 277 333 435 488
#
# _framework density 24.932327999999998
#
# number of rings (size 3 to 8) (size 9 to 14) (size 15 to 20)
#    0.000    0.000    6.000    2.400    2.800    1.600 
#    0.000    0.000    0.000    0.000    0.000    0.000 
#    0.000    0.000    0.000    0.000    0.000    0.000 
#
# Total GULP energy -224135.412529 kJ/mol
# GULP energy per Si atom -5603.385313 kJ/mol
# Density = 2.487558 g / cm^3
# Si number density = 24.932328 Si / 1000 Ang^3
#
#
#
# Elastic Constant Matrix: (Units=GPa)
#
#
# Indices 1 2 3 4 5 6 
#
# 1 96.2639 22.2846 65.9908 0.0000 0.0000 0.0000
# 2 22.2846 115.1245 49.3661 0.0000 0.0000 0.0000
# 3 65.9908 49.3661 122.6558 0.0000 0.0000 0.0000
# 4 0.0000 0.0000 0.0000 54.0692 0.0000 0.0000
# 5 0.0000 0.0000 0.0000 0.0000 54.6642 0.0000
# 6 0.0000 0.0000 0.0000 0.0000 0.0000 47.5421
#
#
#
# Elastic Compliance Matrix: (Units=1/GPa)
#
#
# Indices 1 2 3 4 5 6 
#
# 1 0.016510 0.000741 -0.009181 0.000000 0.000000 0.000000
# 2 0.000741 0.010531 -0.004637 0.000000 0.000000 0.000000
# 3 -0.009181 -0.004637 0.014959 0.000000 0.000000 0.000000
# 4 0.000000 0.000000 0.000000 0.018495 0.000000 0.000000
# 5 0.000000 0.000000 0.000000 0.000000 0.018294 0.000000
# 6 0.000000 0.000000 0.000000 0.000000 0.000000 0.021034
#
#
# Mechanical properties :
#
#
# Convention : Reuss Voigt Hill
#
# Bulk Modulus (GPa) = 63.10810 67.70303 65.40556
# Shear Modulus (GPa) = 38.09246 44.34861 41.22053
#
# Velocity S-wave (km/s) = 3.91299 4.22211 4.07049
# Velocity P-wave (km/s) = 6.76624 7.14016 6.95572
#
# Compressibility (1/GPa) = 0.01584583
#
# Stress axis : x y z
#
# Youngs Moduli (GPa) = 60.56791 94.95498 66.84996
#
# Poissons Ratio (x) = -0.07036 0.61376
# Poissons Ratio (y) = -0.04488 0.31000
# Poissons Ratio (z) = 0.55608 0.44033
#
# Static dielectric constant tensor:
#      x y z
#    x 1.974100 0.000000 0.000000 
#    y 0.000000 2.013630 0.000000 
#    z 0.000000 0.000000 1.988390 
# 
# From -- ./inp_files/2677.got.cif
#   From: 2010.05.17/outbox.cif.g08.bks.cpg/sg61_2_cif.got.tgz:2677.got - 2010.06.03 15:17:17.
