data_PCOD9461524
_publ_section_title
;
Structure prediction by ZEFSAII (Michael W. Deem and Ramdas Pophale) SiO2 
 PCOD9461524
Probable space group: P N M A
;
_chemical_formula_sum "Si O2"
_cell_formula_units_Z 48
_cell_length_a 14.381931
_cell_length_b 13.647241
_cell_length_c 13.153143
_cell_angle_alpha 90.000000
_cell_angle_beta 90.000000
_cell_angle_gamma 90.000000
_cell_volume 2581.615759
_symmetry_space_group_name_H-M "P N M A"
_symmetry_group_IT_number 62
_symmetry_cell_setting 'orthorhombic'
loop_
_space_group_symop_operation_xyz
x,y,z
1/2-x,-y,1/2+z
1/2+x,1/2-y,1/2-z
-x,1/2+y,-z
-x,-y,-z
1/2+x,y,1/2-z
1/2-x,1/2+y,1/2+z
x,1/2-y,z
loop_
_atom_site_type_symbol
_atom_site_label
_atom_site_fract_x
_atom_site_fract_y
_atom_site_fract_z
Si Si1 0.820936 0.481419 0.796318
Si Si2 0.312199 0.137964 0.291372
Si Si3 0.665653 0.641124 0.094036
Si Si4 0.027214 0.112224 0.496735
Si Si5 0.472828 0.641761 0.755184
Si Si6 0.768315 0.937035 0.497330
O O1 0.734067 0.554840 0.777827
O O2 0.825392 0.399537 0.708659
O O3 0.908560 0.553340 0.781597
O O4 0.804746 0.436508 0.906413
O O5 0.288825 0.250000 0.261807
O O6 0.422833 0.129056 0.284653
O O7 0.271891 0.115310 0.402830
O O8 0.708126 0.750000 0.080844
O O9 0.708040 0.550705 0.028004
O O10 0.557354 0.652552 0.062902
O O11 0.024786 0.142016 0.378365
O O12 0.134353 0.116313 0.531521
O O13 0.000000 0.000000 0.500000
O O14 0.438863 0.750000 0.723097
#
# Coordination Sequence:
#
# PCOD9461524 Si02
#       6
#     8   8   8   8   8   8
#     4  11  22  36  59  85 121 152 192 237 291 342
#     4  10  21  37  59  88 118 149 192 242 290 339
#     4  10  21  37  57  84 116 152 195 243 286 339
#     4  10  17  35  58  83 108 143 192 237 284 335
#     4  11  21  35  61  89 113 147 194 240 287 343
#     4  10  22  37  59  85 117 154 189 239 292 345
#
# _framework density 18.593007
#
# number of rings (size 3 to 8) (size 9 to 14) (size 15 to 20)
#    0.000    1.667    5.000    3.000    0.000    4.667 
#    0.000    0.000    0.000    0.000    0.000    0.000 
#    0.000    0.000    0.000    0.000    0.000    0.000 
#
# Total GULP energy -267521.004707 kJ/mol
# GULP energy per Si atom -5573.354265 kJ/mol
# Density = 1.855069 g / cm^3
# Si number density = 18.593007 Si / 1000 Ang^3
#
#
#
# Elastic Constant Matrix: (Units=GPa)
#
#
# Indices 1 2 3 4 5 6 
#
# 1 65.6507 8.9286 6.0052 0.0000 0.0000 0.0000
# 2 8.9286 56.9546 5.7856 0.0000 0.0000 0.0000
# 3 6.0052 5.7856 26.8934 0.0000 0.0000 0.0000
# 4 0.0000 0.0000 0.0000 19.2816 0.0000 0.0000
# 5 0.0000 0.0000 0.0000 0.0000 27.6505 0.0000
# 6 0.0000 0.0000 0.0000 0.0000 0.0000 54.5314
#
#
#
# Elastic Compliance Matrix: (Units=1/GPa)
#
#
# Indices 1 2 3 4 5 6 
#
# 1 0.015807 -0.002167 -0.003064 0.000000 0.000000 0.000000
# 2 -0.002167 0.018247 -0.003442 0.000000 0.000000 0.000000
# 3 -0.003064 -0.003442 0.038608 0.000000 0.000000 0.000000
# 4 0.000000 0.000000 0.000000 0.051863 0.000000 0.000000
# 5 0.000000 0.000000 0.000000 0.000000 0.036166 0.000000
# 6 0.000000 0.000000 0.000000 0.000000 0.000000 0.018338
#
#
# Mechanical properties :
#
#
# Convention : Reuss Voigt Hill
#
# Bulk Modulus (GPa) = 18.07714 21.21528 19.64621
# Shear Modulus (GPa) = 23.27609 28.87799 26.07704
#
# Velocity S-wave (km/s) = 3.54202 3.94530 3.74908
# Velocity P-wave (km/s) = 5.14505 5.67353 5.41574
#
# Compressibility (1/GPa) = 0.05531850
#
# Stress axis : x y z
#
# Youngs Moduli (GPa) = 63.26289 54.80315 25.90116
#
# Poissons Ratio (x) = 0.11875 0.07935
# Poissons Ratio (y) = 0.13708 0.08914
# Poissons Ratio (z) = 0.19381 0.18861
#
# Static dielectric constant tensor:
#      x y z
#    x 1.647500 0.000000 0.000000 
#    y 0.000000 1.675430 0.000000 
#    z 0.000000 0.000000 1.623570 
# 
# From -- ./inp_files/13303.got.cif
#   From: 2010.05.17/outbox.cif.g08.bks.cpg/sg62_7_cif.got.tgz:13303.got - 2010.06.03 15:25:27.
