data_PCOD9461744
_publ_section_title
;
Structure prediction by ZEFSAII (Michael W. Deem and Ramdas Pophale) SiO2 
 PCOD9461744
Probable space group: P N M A
;
_chemical_formula_sum "Si O2"
_cell_formula_units_Z 64
_cell_length_a 8.183800
_cell_length_b 27.376040
_cell_length_c 17.475352
_cell_angle_alpha 90.000000
_cell_angle_beta 90.000000
_cell_angle_gamma 90.000000
_cell_volume 3915.178494
_symmetry_space_group_name_H-M "P N M A"
_symmetry_group_IT_number 62
_symmetry_cell_setting 'orthorhombic'
loop_
_space_group_symop_operation_xyz
x,y,z
1/2-x,-y,1/2+z
1/2+x,1/2-y,1/2-z
-x,1/2+y,-z
-x,-y,-z
1/2+x,y,1/2-z
1/2-x,1/2+y,1/2+z
x,1/2-y,z
loop_
_atom_site_type_symbol
_atom_site_label
_atom_site_fract_x
_atom_site_fract_y
_atom_site_fract_z
Si Si1 0.164255 0.040958 0.168306
Si Si2 0.036377 0.458648 0.328511
Si Si3 0.848226 0.493196 0.097984
Si Si4 0.500265 0.124221 0.041614
Si Si5 0.174810 0.412899 0.005175
Si Si6 0.543170 0.691847 0.667692
Si Si7 0.351366 0.118734 0.463754
Si Si8 0.652347 0.693150 0.835726
O O1 0.350023 0.022307 0.178848
O O2 0.098486 0.062976 0.247762
O O3 0.019533 0.003824 0.143875
O O4 0.174682 0.078685 0.097581
O O5 0.181712 0.495397 0.352560
O O6 0.027176 0.418974 0.395889
O O7 0.849134 0.438279 0.063070
O O8 0.841223 0.534527 0.033999
O O9 0.350462 0.109588 0.987606
O O10 0.674754 0.130229 0.001647
O O11 0.439740 0.168254 0.094336
O O12 0.017648 0.379912 0.987335
O O13 0.586601 0.750000 0.658950
O O14 0.626974 0.656295 0.606462
O O15 0.594797 0.674998 0.752562
O O16 0.347695 0.688067 0.658741
O O17 0.611275 0.750000 0.836475
#
# Coordination Sequence:
#
# PCOD9461744 Si02
#       8
#     8   8   8   8   8   8   8   8
#     4  10  18  30  45  63  88 117 150 197 242 278
#     4  10  20  29  46  67  88 117 159 200 242 281
#     4  10  21  34  47  67  92 121 159 208 241 289
#     4  10  21  30  48  67  89 120 159 203 242 289
#     4  10  21  34  47  67  93 120 161 207 242 288
#     4  10  20  32  46  65  92 122 162 205 248 289
#     4  10  19  31  47  65  85 119 153 191 248 276
#     4  10  20  32  45  65  93 124 158 208 252 282
#
# _framework density 16.346636
#
# number of rings (size 3 to 8) (size 9 to 14) (size 15 to 20)
#    0.000    2.000    2.500    2.250    3.500    8.000 
#    0.000    0.000    0.000    0.000    0.000    0.000 
#    0.000    0.000    0.000    0.000    0.000   12.500 
#
# Total GULP energy -356354.297038 kJ/mol
# GULP energy per Si atom -5568.035891 kJ/mol
# Density = 1.630943 g / cm^3
# Si number density = 16.346636 Si / 1000 Ang^3
#
#
#
# Elastic Constant Matrix: (Units=GPa)
#
#
# Indices 1 2 3 4 5 6 
#
# 1 141.0837 14.0833 9.1441 0.0000 0.0000 0.0000
# 2 14.0833 49.0432 11.6653 0.0000 0.0000 0.0000
# 3 9.1441 11.6653 12.2967 0.0000 0.0000 0.0000
# 4 0.0000 0.0000 0.0000 10.9724 0.0000 0.0000
# 5 0.0000 0.0000 0.0000 0.0000 13.5195 0.0000
# 6 0.0000 0.0000 0.0000 0.0000 0.0000 13.0794
#
#
#
# Elastic Compliance Matrix: (Units=1/GPa)
#
#
# Indices 1 2 3 4 5 6 
#
# 1 0.007490 -0.001067 -0.004558 0.000000 0.000000 0.000000
# 2 -0.001067 0.026484 -0.024331 0.000000 0.000000 0.000000
# 3 -0.004558 -0.024331 0.107793 0.000000 0.000000 0.000000
# 4 0.000000 0.000000 0.000000 0.091138 0.000000 0.000000
# 5 0.000000 0.000000 0.000000 0.000000 0.073967 0.000000
# 6 0.000000 0.000000 0.000000 0.000000 0.000000 0.076456
#
#
# Mechanical properties :
#
#
# Convention : Reuss Voigt Hill
#
# Bulk Modulus (GPa) = 12.21648 30.24545 21.23097
# Shear Modulus (GPa) = 10.62645 18.68297 14.65471
#
# Velocity S-wave (km/s) = 2.55241 3.38438 2.99740
# Velocity P-wave (km/s) = 4.02194 5.81505 4.99954
#
# Compressibility (1/GPa) = 0.08185665
#
# Stress axis : x y z
#
# Youngs Moduli (GPa) = 133.51360 37.75901 9.27702
#
# Poissons Ratio (x) = 0.04028 0.04228
# Poissons Ratio (y) = 0.14242 0.22572
# Poissons Ratio (z) = 0.60851 0.91870
#
# Static dielectric constant tensor:
#      x y z
#    x 1.674480 0.000000 0.000000 
#    y 0.000000 1.551540 0.000000 
#    z 0.000000 0.000000 1.538060 
# 
# From -- ./inp_files/22638.got.cif
#   From: 2010.05.17/outbox.cif.g08.bks.cpg/sg62_12_cif.got.tgz:22638.got - 2010.06.03 15:25:27.
