data_PCOD9461347
_publ_section_title
;
Structure prediction by ZEFSAII (Michael W. Deem and Ramdas Pophale) SiO2 
 PCOD9461347
Probable space group: P N M A
;
_chemical_formula_sum "Si O2"
_cell_formula_units_Z 52
_cell_length_a 12.973766
_cell_length_b 21.853846
_cell_length_c 7.747822
_cell_angle_alpha 90.000000
_cell_angle_beta 90.000000
_cell_angle_gamma 90.000000
_cell_volume 2196.714281
_symmetry_space_group_name_H-M "P N M A"
_symmetry_group_IT_number 62
_symmetry_cell_setting 'orthorhombic'
loop_
_space_group_symop_operation_xyz
x,y,z
1/2-x,-y,1/2+z
1/2+x,1/2-y,1/2-z
-x,1/2+y,-z
-x,-y,-z
1/2+x,y,1/2-z
1/2-x,1/2+y,1/2+z
x,1/2-y,z
loop_
_atom_site_type_symbol
_atom_site_label
_atom_site_fract_x
_atom_site_fract_y
_atom_site_fract_z
Si Si1 0.685482 0.049422 0.188046
Si Si2 0.063473 0.820747 0.330040
Si Si3 0.196893 0.918361 0.461142
Si Si4 0.138392 0.250000 0.419327
Si Si5 0.020441 0.351814 0.238168
Si Si6 0.185760 0.646439 0.977026
Si Si7 0.638050 0.318795 0.613781
O O1 0.755263 0.060535 0.357628
O O2 0.577117 0.084090 0.220179
O O3 0.751254 0.083077 0.037838
O O4 0.671510 0.978783 0.145336
O O5 0.088456 0.750000 0.368206
O O6 0.099370 0.872770 0.463413
O O7 0.946359 0.823359 0.262735
O O8 0.127809 0.838719 0.154914
O O9 0.284154 0.874533 0.379316
O O10 0.050542 0.303037 0.382190
O O11 0.228672 0.302836 0.437275
O O12 0.904771 0.353989 0.166566
O O13 0.084052 0.324157 0.071992
O O14 0.682604 0.250000 0.628329
#
# Coordination Sequence:
#
# PCOD9461347 Si02
#       7
#     8   8   8   4   8   8   8
#     4  10  23  38  58  85 114 160 200 239 295 344
#     4  10  20  37  61  88 115 148 192 244 297 347
#     4  11  22  40  59  83 118 156 202 248 287 351
#     4  10  16  28  56  88 112 142 182 234 278 330
#     4   9  18  33  57  85 117 149 192 235 279 360
#     4  10  19  36  59  87 116 150 192 235 291 346
#     4   9  18  35  61  85 110 153 196 235 290 358
#
# _framework density 23.671717000000001
#
# number of rings (size 3 to 8) (size 9 to 14) (size 15 to 20)
#    0.000    2.154    1.538    1.846    0.000    1.231 
#    1.385   10.769    3.385    0.000    0.000    0.000 
#    0.000    0.000    0.000    0.000    0.000    0.000 
#
# Total GULP energy -290006.940829 kJ/mol
# GULP energy per Si atom -5577.056554 kJ/mol
# Density = 2.361784 g / cm^3
# Si number density = 23.671717 Si / 1000 Ang^3
#
#
#
# Elastic Constant Matrix: (Units=GPa)
#
#
# Indices 1 2 3 4 5 6 
#
# 1 101.9655 54.7285 3.0516 0.0000 0.0000 0.0000
# 2 54.7285 208.3899 33.8140 0.0000 0.0000 0.0000
# 3 3.0516 33.8140 84.5518 0.0000 0.0000 0.0000
# 4 0.0000 0.0000 0.0000 524.1114 0.0000 0.0000
# 5 0.0000 0.0000 0.0000 0.0000 32.3255 0.0000
# 6 0.0000 0.0000 0.0000 0.0000 0.0000 96.2111
#
#
#
# Elastic Compliance Matrix: (Units=1/GPa)
#
#
# Indices 1 2 3 4 5 6 
#
# 1 0.011473 -0.003150 0.000846 0.000000 0.000000 0.000000
# 2 -0.003150 0.005997 -0.002285 0.000000 0.000000 0.000000
# 3 0.000846 -0.002285 0.012710 0.000000 0.000000 0.000000
# 4 0.000000 0.000000 0.000000 0.001908 0.000000 0.000000
# 5 0.000000 0.000000 0.000000 0.000000 0.030935 0.000000
# 6 0.000000 0.000000 0.000000 0.000000 0.000000 0.010394
#
#
# Mechanical properties :
#
#
# Convention : Reuss Voigt Hill
#
# Bulk Modulus (GPa) = 47.61525 64.23283 55.92404
# Shear Modulus (GPa) = 55.80642 150.75048 103.27845
#
# Velocity S-wave (km/s) = 4.86069 7.98887 6.61243
# Velocity P-wave (km/s) = 7.18751 10.59669 9.05401
#
# Compressibility (1/GPa) = 0.02100168
#
# Stress axis : x y z
#
# Youngs Moduli (GPa) = 87.16270 166.75735 78.67717
#
# Poissons Ratio (x) = 0.52533 -0.06655
# Poissons Ratio (y) = 0.27459 0.17974
# Poissons Ratio (z) = -0.07372 0.38096
#
# Static dielectric constant tensor:
#      x y z
#    x 1.916850 0.000000 0.000000 
#    y 0.000000 1.775670 0.000000 
#    z 0.000000 0.000000 2.112970 
# 
# From -- ./inp_files/6698.got.cif
#   From: 2010.05.17/outbox.cif.g08.bks.cpg/sg62_4_cif.got.tgz:6698.got - 2010.06.03 15:25:27.
