data_PCOD9461266
_publ_section_title
;
Structure prediction by ZEFSAII (Michael W. Deem and Ramdas Pophale) SiO2 
 PCOD9461266
Probable space group: P B C A
;
_chemical_formula_sum "Si O2"
_cell_formula_units_Z 48
_cell_length_a 15.000000
_cell_length_b 9.000000
_cell_length_c 18.000000
_cell_angle_alpha 90.000000
_cell_angle_beta 90.000000
_cell_angle_gamma 90.000000
_cell_volume 2430.000000
_symmetry_space_group_name_H-M "P B C A"
_symmetry_group_IT_number 61
_symmetry_cell_setting 'orthorhombic'
loop_
_space_group_symop_operation_xyz
x,y,z
1/2-x,-y,1/2+z
1/2+x,1/2-y,-z
-x,1/2+y,1/2-z
-x,-y,-z
1/2+x,y,1/2-z
1/2-x,1/2+y,z
x,1/2-y,1/2+z
loop_
_atom_site_type_symbol
_atom_site_label
_atom_site_fract_x
_atom_site_fract_y
_atom_site_fract_z
Si Si1 0.713179 0.129981 0.075638
Si Si2 0.913924 0.295378 0.304397
Si Si3 0.140552 0.194770 0.575099
Si Si4 0.575136 0.445964 0.282663
Si Si5 0.757587 0.384121 0.190529
Si Si6 0.821286 0.453361 0.435550
O O1 0.732373 0.276584 0.122238
O O2 0.698364 0.016753 0.142949
O O3 0.635770 0.149184 0.012725
O O4 0.799066 0.086984 0.022316
O O5 0.933514 0.119634 0.303381
O O6 0.829029 0.321571 0.249519
O O7 0.891216 0.358155 0.387107
O O8 0.995766 0.387069 0.269507
O O9 0.226970 0.097750 0.599044
O O10 0.160336 0.371488 0.574314
O O11 0.073148 0.149585 0.640163
O O12 0.667699 0.424556 0.236176
#
# Coordination Sequence:
#
# PCOD9461266 Si02
#       6
#     8   8   8   8   8   8
#     4  10  21  38  69  98 126 173 209 269 332 383
#     4  12  27  43  67  97 132 174 223 268 322 392
#     4  10  20  39  65  92 128 168 210 255 330 380
#     4  12  27  43  67  97 132 176 221 269 324 388
#     4  12  23  42  69  98 128 167 224 270 320 388
#     4  10  20  39  65  92 128 169 209 256 327 385
#
# _framework density 19.753086
#
# number of rings (size 3 to 8) (size 9 to 14) (size 15 to 20)
#    1.000    0.000    5.000    2.000    7.000    0.000 
#    0.000    3.333    0.000    0.000    0.000    0.000 
#    0.000    0.000    0.000    0.000    0.000    0.000 
#
# Total GULP energy -267346.170859 kJ/mol
# GULP energy per Si atom -5569.711893 kJ/mol
# Density = 1.970813 g / cm^3
# Si number density = 19.753086 Si / 1000 Ang^3
#
#
#
# Elastic Constant Matrix: (Units=GPa)
#
#
# Indices 1 2 3 4 5 6 
#
# 1 0.3505 -24.6019 6.3955 0.0000 0.0000 0.0000
# 2 -24.6019 57.5256 18.5614 0.0000 0.0000 0.0000
# 3 6.3955 18.5614 95.3353 0.0000 0.0000 0.0000
# 4 0.0000 0.0000 0.0000 47.5294 0.0000 0.0000
# 5 0.0000 0.0000 0.0000 0.0000 12.0041 0.0000
# 6 0.0000 0.0000 0.0000 0.0000 0.0000 23.9686
#
#
#
# Elastic Compliance Matrix: (Units=1/GPa)
#
#
# Indices 1 2 3 4 5 6 
#
# 1 -0.080190 -0.038446 0.012865 0.000000 0.000000 0.000000
# 2 -0.038446 0.000117 0.002556 0.000000 0.000000 0.000000
# 3 0.012865 0.002556 0.009129 0.000000 0.000000 0.000000
# 4 0.000000 0.000000 0.000000 0.021040 0.000000 0.000000
# 5 0.000000 0.000000 0.000000 0.000000 0.083305 0.000000
# 6 0.000000 0.000000 0.000000 0.000000 0.000000 0.041721
#
#
# Mechanical properties :
#
#
# Convention : Reuss Voigt Hill
#
# Bulk Modulus (GPa) = -8.54750 17.10236 4.27743
# Shear Modulus (GPa) = 60.84733 26.89086 43.86909
#
# Velocity S-wave (km/s) = 5.55615 3.69365 4.71773
# Velocity P-wave (km/s) = 6.06832 5.18340 5.64323
#
# Compressibility (1/GPa) = -0.11699328
#
# Stress axis : x y z
#
# Youngs Moduli (GPa) = -12.47046 8564.48227 109.54610
#
# Poissons Ratio (x) = 329.26596 -1.40927
# Poissons Ratio (y) = -0.47943 -0.28004
# Poissons Ratio (z) = 0.16043 -21.89382
#
# Static dielectric constant tensor:
#      x y z
#    x 1.715320 0.000000 0.000000 
#    y 0.000000 1.870590 0.000000 
#    z 0.000000 0.000000 1.692750 
# 
# From -- ./inp_files/3431.got.cif
#   From: 2010.05.17/outbox.ucp.g08.bks.cvg/sg61_2_cif.got.tgz:3431.got - 2010.06.11 16:28:26.
