data_PCOD9461234
_publ_section_title
;
Structure prediction by ZEFSAII (Michael W. Deem and Ramdas Pophale) SiO2 
 PCOD9461234
Probable space group: P B C A
;
_chemical_formula_sum "Si O2"
_cell_formula_units_Z 28
_cell_length_a 8.670787
_cell_length_b 8.188721
_cell_length_c 14.000849
_cell_angle_alpha 90.000000
_cell_angle_beta 90.000000
_cell_angle_gamma 90.000000
_cell_volume 994.097460
_symmetry_space_group_name_H-M "P B C A"
_symmetry_group_IT_number 61
_symmetry_cell_setting 'orthorhombic'
loop_
_space_group_symop_operation_xyz
x,y,z
1/2-x,-y,1/2+z
1/2+x,1/2-y,-z
-x,1/2+y,1/2-z
-x,-y,-z
1/2+x,y,1/2-z
1/2-x,1/2+y,z
x,1/2-y,1/2+z
loop_
_atom_site_type_symbol
_atom_site_label
_atom_site_fract_x
_atom_site_fract_y
_atom_site_fract_z
Si Si1 0.000000 0.000000 0.500000
Si Si2 0.226334 0.362522 0.226324
Si Si3 0.444406 0.146555 0.328650
Si Si4 0.185133 0.826213 0.023794
O O1 0.134386 0.143439 0.500961
O O2 0.867558 0.137512 0.474570
O O3 0.333679 0.306711 0.312858
O O4 0.120922 0.514332 0.254907
O O5 0.331881 0.386603 0.133100
O O6 0.109316 0.216041 0.200412
O O7 0.406985 0.095596 0.435622
#
# Coordination Sequence:
#
# PCOD9461234 Si02
#       4
#     4   8   8   8
#     4  12  28  54  88 132 174 236 302 364 462 544
#     4  12  28  50  84 121 172 230 305 377 461 544
#     4  12  28  52  83 125 171 231 306 375 462 545
#     4  12  28  55  87 129 181 242 300 380 459 546
#
# _framework density 28.166252
#
# number of rings (size 3 to 8) (size 9 to 14) (size 15 to 20)
#    0.000    0.000    2.857    5.143    8.000    1.143 
#    5.143    0.000    0.000    0.000    0.000    0.000 
#    0.000    0.000    0.000    0.000    0.000    0.000 
#
# Total GULP energy -156165.146585 kJ/mol
# GULP energy per Si atom -5577.326664 kJ/mol
# Density = 2.810214 g / cm^3
# Si number density = 28.166252 Si / 1000 Ang^3
#
#
#
# Elastic Constant Matrix: (Units=GPa)
#
#
# Indices 1 2 3 4 5 6 
#
# 1 105.1151 36.0003 9.1823 0.0000 0.0000 0.0000
# 2 36.0003 142.2437 20.3888 0.0000 0.0000 0.0000
# 3 9.1823 20.3888 165.7309 0.0000 0.0000 0.0000
# 4 0.0000 0.0000 0.0000 43.1626 0.0000 0.0000
# 5 0.0000 0.0000 0.0000 0.0000 29.8939 0.0000
# 6 0.0000 0.0000 0.0000 0.0000 0.0000 95.4708
#
#
#
# Elastic Compliance Matrix: (Units=1/GPa)
#
#
# Indices 1 2 3 4 5 6 
#
# 1 0.010427 -0.002602 -0.000258 0.000000 0.000000 0.000000
# 2 -0.002602 0.007806 -0.000816 0.000000 0.000000 0.000000
# 3 -0.000258 -0.000816 0.006149 0.000000 0.000000 0.000000
# 4 0.000000 0.000000 0.000000 0.023168 0.000000 0.000000
# 5 0.000000 0.000000 0.000000 0.000000 0.033452 0.000000
# 6 0.000000 0.000000 0.000000 0.000000 0.000000 0.010474
#
#
# Mechanical properties :
#
#
# Convention : Reuss Voigt Hill
#
# Bulk Modulus (GPa) = 58.72063 60.47027 59.59545
# Shear Modulus (GPa) = 47.84522 56.87336 52.35929
#
# Velocity S-wave (km/s) = 4.12597 4.49843 4.31622
# Velocity P-wave (km/s) = 6.60237 6.96396 6.78557
#
# Compressibility (1/GPa) = 0.01702979
#
# Stress axis : x y z
#
# Youngs Moduli (GPa) = 95.90445 128.11125 162.63989
#
# Poissons Ratio (x) = 0.33335 0.04190
# Poissons Ratio (y) = 0.24955 0.13273
# Poissons Ratio (z) = 0.02470 0.10455
#
# Static dielectric constant tensor:
#      x y z
#    x 2.066170 0.000000 0.000000 
#    y 0.000000 2.149780 0.000000 
#    z 0.000000 0.000000 2.259130 
# 
# From -- ./inp_files/1618.got.cif
#   From: 2010.05.17/outbox.cif.g08.bks.cpg/sg61_1_cif.got.tgz:1618.got - 2010.06.03 15:17:17.
