data_PCOD9461082
_publ_section_title
;
Structure prediction by ZEFSAII (Michael W. Deem and Ramdas Pophale) SiO2 
 PCOD9461082
Probable space group: P B C A
;
_chemical_formula_sum "Si O2"
_cell_formula_units_Z 44
_cell_length_a 15.318416
_cell_length_b 13.427060
_cell_length_c 8.972508
_cell_angle_alpha 90.000000
_cell_angle_beta 90.000000
_cell_angle_gamma 90.000000
_cell_volume 1845.477027
_symmetry_space_group_name_H-M "P B C A"
_symmetry_group_IT_number 61
_symmetry_cell_setting 'orthorhombic'
loop_
_space_group_symop_operation_xyz
x,y,z
1/2-x,-y,1/2+z
1/2+x,1/2-y,-z
-x,1/2+y,1/2-z
-x,-y,-z
1/2+x,y,1/2-z
1/2-x,1/2+y,z
x,1/2-y,1/2+z
loop_
_atom_site_type_symbol
_atom_site_label
_atom_site_fract_x
_atom_site_fract_y
_atom_site_fract_z
Si Si1 0.949270 0.786094 0.351184
Si Si2 0.121171 0.690210 0.275583
Si Si3 0.000000 0.500000 0.000000
Si Si4 0.211337 0.657755 0.566903
Si Si5 0.309245 0.036595 0.044779
Si Si6 0.667944 0.190637 0.575124
O O1 0.910867 0.699227 0.456718
O O2 0.858530 0.092030 0.318906
O O3 0.025969 0.735159 0.256755
O O4 0.985161 0.884599 0.433385
O O5 0.132326 0.664957 0.449138
O O6 0.186074 0.772808 0.205005
O O7 0.286591 0.704174 0.461544
O O8 0.105868 0.503353 0.952241
O O9 0.245616 0.549445 0.602632
O O10 0.373707 0.681238 0.763497
O O11 0.242491 0.111514 0.964917
#
# Coordination Sequence:
#
# PCOD9461082 Si02
#       6
#     8   8   4   8   8   8
#     4  12  25  50  74 114 151 205 249 328 384 467
#     4  11  26  47  76 108 159 196 252 325 391 458
#     4  12  26  46  76 108 152 196 266 310 388 460
#     4  11  24  47  74 109 148 203 256 315 385 473
#     4  11  26  46  74 115 145 209 256 322 387 469
#     4  11  24  47  74 106 156 192 256 313 392 456
#
# _framework density 23.842072999999999
#
# number of rings (size 3 to 8) (size 9 to 14) (size 15 to 20)
#    0.000    0.727    1.818    6.545    2.545    2.909 
#    6.545    1.818    0.000    0.000    0.000    0.000 
#    0.000    0.000    0.000    0.000    0.000    0.000 
#
# Total GULP energy -244944.723479 kJ/mol
# GULP energy per Si atom -5566.925534 kJ/mol
# Density = 2.378781 g / cm^3
# Si number density = 23.842073 Si / 1000 Ang^3
#
#
#
# Elastic Constant Matrix: (Units=GPa)
#
#
# Indices 1 2 3 4 5 6 
#
# 1 116.9542 8.9585 15.0173 0.0000 0.0000 0.0000
# 2 8.9585 62.9779 15.8558 0.0000 0.0000 0.0000
# 3 15.0173 15.8558 97.7582 0.0000 0.0000 0.0000
# 4 0.0000 0.0000 0.0000 20.8207 0.0000 0.0000
# 5 0.0000 0.0000 0.0000 0.0000 37.3431 0.0000
# 6 0.0000 0.0000 0.0000 0.0000 0.0000 -7.0257
#
#
#
# Elastic Compliance Matrix: (Units=1/GPa)
#
#
# Indices 1 2 3 4 5 6 
#
# 1 0.008776 -0.000948 -0.001194 0.000000 0.000000 0.000000
# 2 -0.000948 0.016657 -0.002556 0.000000 0.000000 0.000000
# 3 -0.001194 -0.002556 0.010827 0.000000 0.000000 0.000000
# 4 0.000000 0.000000 0.000000 0.048029 0.000000 0.000000
# 5 0.000000 0.000000 0.000000 0.000000 0.026779 0.000000
# 6 0.000000 0.000000 0.000000 0.000000 0.000000 -0.142334
#
#
# Mechanical properties :
#
#
# Convention : Reuss Voigt Hill
#
# Bulk Modulus (GPa) = 37.22430 39.70593 38.46511
# Shear Modulus (GPa) = -387.15438 26.08487 -180.53475
#
# Velocity S-wave (km/s) = -12.75678 3.31126 -8.71123
# Velocity P-wave (km/s) = 14.18921 5.59546 9.22021
#
# Compressibility (1/GPa) = 0.02686417
#
# Stress axis : x y z
#
# Youngs Moduli (GPa) = 113.94290 60.03510 92.35834
#
# Poissons Ratio (x) = 0.05689 0.11032
# Poissons Ratio (y) = 0.10798 0.23607
# Poissons Ratio (z) = 0.13610 0.15345
#
# Static dielectric constant tensor:
#      x y z
#    x 2.033000 0.000000 0.000000 
#    y 0.000000 1.913750 0.000000 
#    z 0.000000 0.000000 3.829140 
# 
# From -- ./inp_files/6116.got.cif
#   From: 2010.05.17/outbox.cif.g08.bks.cpg/sg61_4_cif.got.tgz:6116.got - 2010.06.03 15:17:17.
