data_PCOD9461276
_publ_section_title
;
Structure prediction by ZEFSAII (Michael W. Deem and Ramdas Pophale) SiO2 
 PCOD9461276
Probable space group: P B C A
;
_chemical_formula_sum "Si O2"
_cell_formula_units_Z 56
_cell_length_a 30.000000
_cell_length_b 6.000000
_cell_length_c 15.000000
_cell_angle_alpha 90.000000
_cell_angle_beta 90.000000
_cell_angle_gamma 90.000000
_cell_volume 2700.000000
_symmetry_space_group_name_H-M "P B C A"
_symmetry_group_IT_number 61
_symmetry_cell_setting 'orthorhombic'
loop_
_space_group_symop_operation_xyz
x,y,z
1/2-x,-y,1/2+z
1/2+x,1/2-y,-z
-x,1/2+y,1/2-z
-x,-y,-z
1/2+x,y,1/2-z
1/2-x,1/2+y,z
x,1/2-y,1/2+z
loop_
_atom_site_type_symbol
_atom_site_label
_atom_site_fract_x
_atom_site_fract_y
_atom_site_fract_z
Si Si1 0.164303 0.846521 0.405205
Si Si2 0.449018 0.636838 0.322055
Si Si3 0.226698 0.475676 0.749337
Si Si4 0.168597 0.577263 0.578901
Si Si5 0.610913 0.753490 0.757501
Si Si6 0.961054 0.920616 0.344839
Si Si7 0.600887 0.220508 0.009669
O O1 0.185349 0.713774 0.490581
O O2 0.140855 0.685389 0.329937
O O3 0.194769 0.996132 0.337600
O O4 0.128706 0.004463 0.456540
O O5 0.412349 0.471418 0.279094
O O6 0.469807 0.743760 0.233426
O O7 0.490847 0.518288 0.369469
O O8 0.425556 0.785241 0.399050
O O9 0.251725 0.723256 0.754523
O O10 0.204503 0.477046 0.649388
O O11 0.140419 0.717317 0.653235
O O12 0.135204 0.396382 0.534039
O O13 0.572131 0.913322 0.791807
O O14 0.934390 0.835810 0.431374
#
# Coordination Sequence:
#
# PCOD9461276 Si02
#       7
#     8   8   8   8   8   8   8
#     4  10  24  43  70  97 136 177 225 277 346 420
#     4  11  23  38  58  92 132 183 225 296 346 397
#     4  11  29  50  75 110 147 177 224 287 359 438
#     4  11  23  44  72  99 132 181 227 284 349 425
#     4  10  21  40  59  93 128 175 230 275 340 407
#     4  12  21  39  62  88 138 178 235 292 350 401
#     4  11  24  40  66  99 129 179 239 284 338 428
#
# _framework density 20.740741
#
# number of rings (size 3 to 8) (size 9 to 14) (size 15 to 20)
#    0.000    1.143    4.286    1.286    4.000    1.143 
#    0.000    1.429    0.000    0.000    0.000    0.000 
#    0.000    0.000    0.000    0.000    0.000    0.000 
#
# Total GULP energy -311829.267631 kJ/mol
# GULP energy per Si atom -5568.379779 kJ/mol
# Density = 2.069353 g / cm^3
# Si number density = 20.740741 Si / 1000 Ang^3
#
#
#
# Elastic Constant Matrix: (Units=GPa)
#
#
# Indices 1 2 3 4 5 6 
#
# 1 48.6102 7.5682 21.0705 0.0000 0.0000 0.0000
# 2 7.5682 29.5513 12.6177 0.0000 0.0000 0.0000
# 3 21.0705 12.6177 168.2740 0.0000 0.0000 0.0000
# 4 0.0000 0.0000 0.0000 33.5976 0.0000 0.0000
# 5 0.0000 0.0000 0.0000 0.0000 41.0226 0.0000
# 6 0.0000 0.0000 0.0000 0.0000 0.0000 40.2882
#
#
#
# Elastic Compliance Matrix: (Units=1/GPa)
#
#
# Indices 1 2 3 4 5 6 
#
# 1 0.022362 -0.004681 -0.002449 0.000000 0.000000 0.000000
# 2 -0.004681 0.035939 -0.002109 0.000000 0.000000 0.000000
# 3 -0.002449 -0.002109 0.006407 0.000000 0.000000 0.000000
# 4 0.000000 0.000000 0.000000 0.029764 0.000000 0.000000
# 5 0.000000 0.000000 0.000000 0.000000 0.024377 0.000000
# 6 0.000000 0.000000 0.000000 0.000000 0.000000 0.024821
#
#
# Mechanical properties :
#
#
# Convention : Reuss Voigt Hill
#
# Bulk Modulus (GPa) = 21.63083 36.54978 29.09031
# Shear Modulus (GPa) = 28.15974 36.66029 32.41002
#
# Velocity S-wave (km/s) = 3.68870 4.20878 3.95729
# Velocity P-wave (km/s) = 5.34732 6.42487 5.91070
#
# Compressibility (1/GPa) = 0.04623032
#
# Stress axis : x y z
#
# Youngs Moduli (GPa) = 44.71823 27.82520 156.06805
#
# Poissons Ratio (x) = 0.13026 0.38222
# Poissons Ratio (y) = 0.20934 0.32909
# Poissons Ratio (z) = 0.10952 0.05867
#
# Static dielectric constant tensor:
#      x y z
#    x 1.811730 0.000000 0.000000 
#    y 0.000000 1.824940 0.000000 
#    z 0.000000 0.000000 1.700480 
# 
# From -- ./inp_files/8646.got.cif
#   From: 2010.05.17/outbox.ucp.g08.bks.cvg/sg61_5_cif.got.tgz:8646.got - 2010.06.11 16:28:26.
