data_PCOD9461373
_publ_section_title
;
Structure prediction by ZEFSAII (Michael W. Deem and Ramdas Pophale) SiO2 
 PCOD9461373
Probable space group: P N M A
;
_chemical_formula_sum "Si O2"
_cell_formula_units_Z 48
_cell_length_a 32.212356
_cell_length_b 9.125140
_cell_length_c 7.012268
_cell_angle_alpha 90.000000
_cell_angle_beta 90.000000
_cell_angle_gamma 90.000000
_cell_volume 2061.201891
_symmetry_space_group_name_H-M "P N M A"
_symmetry_group_IT_number 62
_symmetry_cell_setting 'orthorhombic'
loop_
_space_group_symop_operation_xyz
x,y,z
1/2-x,-y,1/2+z
1/2+x,1/2-y,1/2-z
-x,1/2+y,-z
-x,-y,-z
1/2+x,y,1/2-z
1/2-x,1/2+y,1/2+z
x,1/2-y,z
loop_
_atom_site_type_symbol
_atom_site_label
_atom_site_fract_x
_atom_site_fract_y
_atom_site_fract_z
Si Si1 0.300661 0.584617 0.958381
Si Si2 0.216767 0.415639 0.009268
Si Si3 0.974499 0.583323 0.728765
Si Si4 0.884549 0.928025 0.669024
Si Si5 0.864448 0.424444 0.073506
Si Si6 0.945790 0.917123 0.176907
O O1 0.295311 0.750000 0.028581
O O2 0.297194 0.589563 0.728357
O O3 0.348376 0.537117 0.981888
O O4 0.262033 0.486963 0.015687
O O5 0.219388 0.250000 0.939315
O O6 0.181212 0.503924 0.895224
O O7 0.986863 0.750000 0.683555
O O8 0.932293 0.544160 0.617692
O O9 0.013641 0.477696 0.716647
O O10 0.959725 0.583102 0.952114
O O11 0.881959 0.750000 0.709202
O O12 0.875377 0.024004 0.856732
O O13 0.861596 0.250000 0.089073
O O14 0.904228 0.486694 0.186017
O O15 0.936007 0.750000 0.229968
#
# Coordination Sequence:
#
# PCOD9461373 Si02
#       6
#     8   8   8   8   8   8
#     4   9  18  32  48  67  91 119 152 188 226 268
#     4  10  20  33  48  67  92 120 151 189 229 268
#     4   8  13  21  33  50  74 106 140 172 211 258
#     4   8  15  27  40  56  82 112 142 180 221 261
#     4  10  17  25  39  57  79 110 146 180 218 266
#     4   9  15  22  32  49  76 107 139 176 215 257
#
# _framework density 23.287386000000001
#
# number of rings (size 3 to 8) (size 9 to 14) (size 15 to 20)
#    0.000    3.000    0.000    4.500    0.000    7.333 
#    0.000    0.000    0.000    0.000    0.000    0.000 
#    0.000    1.333    0.000    4.000    0.000   12.500 
#
# Total GULP energy -268137.256125 kJ/mol
# GULP energy per Si atom -5586.192836 kJ/mol
# Density = 2.323438 g / cm^3
# Si number density = 23.287386 Si / 1000 Ang^3
#
#
#
# Elastic Constant Matrix: (Units=GPa)
#
#
# Indices 1 2 3 4 5 6 
#
# 1 211.4405 110.1722 29.4404 0.0000 0.0000 0.0000
# 2 110.1722 135.1079 -2.3229 0.0000 0.0000 0.0000
# 3 29.4404 -2.3229 61.4311 0.0000 0.0000 0.0000
# 4 0.0000 0.0000 0.0000 6.3867 0.0000 0.0000
# 5 0.0000 0.0000 0.0000 0.0000 43.8358 0.0000
# 6 0.0000 0.0000 0.0000 0.0000 0.0000 35.8729
#
#
#
# Elastic Compliance Matrix: (Units=1/GPa)
#
#
# Indices 1 2 3 4 5 6 
#
# 1 0.009469 -0.007804 -0.004833 0.000000 0.000000 0.000000
# 2 -0.007804 0.013839 0.004264 0.000000 0.000000 0.000000
# 3 -0.004833 0.004264 0.018756 0.000000 0.000000 0.000000
# 4 0.000000 0.000000 0.000000 0.156576 0.000000 0.000000
# 5 0.000000 0.000000 0.000000 0.000000 0.022812 0.000000
# 6 0.000000 0.000000 0.000000 0.000000 0.000000 0.027876
#
#
# Mechanical properties :
#
#
# Convention : Reuss Voigt Hill
#
# Bulk Modulus (GPa) = 39.50124 75.83990 57.67057
# Shear Modulus (GPa) = 18.21399 35.26507 26.73953
#
# Velocity S-wave (km/s) = 2.79971 3.89568 3.39225
# Velocity P-wave (km/s) = 5.23932 7.27136 6.33732
#
# Compressibility (1/GPa) = 0.02531566
#
# Stress axis : x y z
#
# Youngs Moduli (GPa) = 105.60837 72.26045 53.31681
#
# Poissons Ratio (x) = 0.56395 0.25768
# Poissons Ratio (y) = 0.82421 -0.22732
# Poissons Ratio (z) = 0.51041 -0.30808
#
# Static dielectric constant tensor:
#      x y z
#    x 1.913150 0.000000 0.000000 
#    y 0.000000 1.783640 0.000000 
#    z 0.000000 0.000000 1.993710 
# 
# From -- ./inp_files/15400.got.cif
#   From: 2010.05.17/outbox.cif.g08.bks.cpg/sg62_8_cif.got.tgz:15400.got - 2010.06.03 15:25:27.
