data_PCOD9461304
_publ_section_title
;
Structure prediction by ZEFSAII (Michael W. Deem and Ramdas Pophale) SiO2 
 PCOD9461304
Probable space group: P B C A
;
_chemical_formula_sum "Si O2"
_cell_formula_units_Z 48
_cell_length_a 9.000000
_cell_length_b 15.000000
_cell_length_c 18.000000
_cell_angle_alpha 90.000000
_cell_angle_beta 90.000000
_cell_angle_gamma 90.000000
_cell_volume 2430.000000
_symmetry_space_group_name_H-M "P B C A"
_symmetry_group_IT_number 61
_symmetry_cell_setting 'orthorhombic'
loop_
_space_group_symop_operation_xyz
x,y,z
1/2-x,-y,1/2+z
1/2+x,1/2-y,-z
-x,1/2+y,1/2-z
-x,-y,-z
1/2+x,y,1/2-z
1/2-x,1/2+y,z
x,1/2-y,1/2+z
loop_
_atom_site_type_symbol
_atom_site_label
_atom_site_fract_x
_atom_site_fract_y
_atom_site_fract_z
Si Si1 0.581031 0.120954 0.656698
Si Si2 0.587240 0.324292 0.502091
Si Si3 0.284579 0.460691 0.091979
Si Si4 0.374820 0.670113 0.324102
Si Si5 0.764123 0.863840 0.006015
Si Si6 0.357217 0.450460 0.737369
O O1 0.427504 0.099817 0.612671
O O2 0.591659 0.223023 0.689313
O O3 0.706621 0.118825 0.593088
O O4 0.600481 0.037149 0.712469
O O5 0.664768 0.395584 0.447456
O O6 0.641991 0.338214 0.586879
O O7 0.637487 0.222796 0.482783
O O8 0.409541 0.339116 0.503894
O O9 0.229978 0.505886 0.168330
O O10 0.308462 0.546275 0.038106
O O11 0.235529 0.623892 0.283227
O O12 0.507721 0.606329 0.296711
#
# Coordination Sequence:
#
# PCOD9461304 Si02
#       6
#     8   8   8   8   8   8
#     4  11  27  46  70 105 138 184 234 284 352 421
#     4  11  24  45  71 103 137 184 235 290 356 413
#     4  12  25  43  72 100 141 180 236 287 350 414
#     4  11  26  47  67  99 140 183 231 284 348 412
#     4  11  24  44  72 100 139 180 232 295 347 416
#     4  12  26  45  69 100 141 184 229 281 347 415
#
# _framework density 19.753086
#
# number of rings (size 3 to 8) (size 9 to 14) (size 15 to 20)
#    0.000    0.667    3.333    4.000    4.667    2.667 
#    3.000    0.000    0.000    0.000    0.000    0.000 
#    0.000    0.000    0.000    0.000    0.000    0.000 
#
# Total GULP energy -268199.587919 kJ/mol
# GULP energy per Si atom -5587.491415 kJ/mol
# Density = 1.970813 g / cm^3
# Si number density = 19.753086 Si / 1000 Ang^3
#
#
#
# Elastic Constant Matrix: (Units=GPa)
#
#
# Indices 1 2 3 4 5 6 
#
# 1 55.4311 20.8415 14.3383 0.0000 0.0000 0.0000
# 2 20.8415 175.8813 46.3068 0.0000 0.0000 0.0000
# 3 14.3383 46.3068 81.7927 0.0000 0.0000 0.0000
# 4 0.0000 0.0000 0.0000 48.1450 0.0000 0.0000
# 5 0.0000 0.0000 0.0000 0.0000 24.5677 0.0000
# 6 0.0000 0.0000 0.0000 0.0000 0.0000 44.3515
#
#
#
# Elastic Compliance Matrix: (Units=1/GPa)
#
#
# Indices 1 2 3 4 5 6 
#
# 1 0.019292 -0.001640 -0.002453 0.000000 0.000000 0.000000
# 2 -0.001640 0.006821 -0.003574 0.000000 0.000000 0.000000
# 3 -0.002453 -0.003574 0.014680 0.000000 0.000000 0.000000
# 4 0.000000 0.000000 0.000000 0.020771 0.000000 0.000000
# 5 0.000000 0.000000 0.000000 0.000000 0.040704 0.000000
# 6 0.000000 0.000000 0.000000 0.000000 0.000000 0.022547
#
#
# Mechanical properties :
#
#
# Convention : Reuss Voigt Hill
#
# Bulk Modulus (GPa) = 39.28173 52.89759 46.08966
# Shear Modulus (GPa) = 33.63948 38.85407 36.24678
#
# Velocity S-wave (km/s) = 4.13122 4.43988 4.28833
# Velocity P-wave (km/s) = 6.53341 7.28841 6.92122
#
# Compressibility (1/GPa) = 0.02545713
#
# Stress axis : x y z
#
# Youngs Moduli (GPa) = 51.83583 146.60530 68.12166
#
# Poissons Ratio (x) = 0.24045 0.16712
# Poissons Ratio (y) = 0.08502 0.24348
# Poissons Ratio (z) = 0.12717 0.52400
#
# Static dielectric constant tensor:
#      x y z
#    x 1.729610 0.000000 0.000000 
#    y 0.000000 1.676030 0.000000 
#    z 0.000000 0.000000 1.697490 
# 
# From -- ./inp_files/8115.got.cif
#   From: 2010.05.17/outbox.ucp.g08.bks.cvg/sg61_5_cif.got.tgz:8115.got - 2010.06.11 16:28:26.
