data_PCOD9461023
_publ_section_title
;
Structure prediction by ZEFSAII (Michael W. Deem and Ramdas Pophale) SiO2 
 PCOD9461023
Probable space group: P B C A
;
_chemical_formula_sum "Si O2"
_cell_formula_units_Z 40
_cell_length_a 10.645466
_cell_length_b 9.456886
_cell_length_c 14.921942
_cell_angle_alpha 90.000000
_cell_angle_beta 90.000000
_cell_angle_gamma 90.000000
_cell_volume 1502.236046
_symmetry_space_group_name_H-M "P B C A"
_symmetry_group_IT_number 61
_symmetry_cell_setting 'orthorhombic'
loop_
_space_group_symop_operation_xyz
x,y,z
1/2-x,-y,1/2+z
1/2+x,1/2-y,-z
-x,1/2+y,1/2-z
-x,-y,-z
1/2+x,y,1/2-z
1/2-x,1/2+y,z
x,1/2-y,1/2+z
loop_
_atom_site_type_symbol
_atom_site_label
_atom_site_fract_x
_atom_site_fract_y
_atom_site_fract_z
Si Si1 0.279252 0.955342 0.566769
Si Si2 0.409924 0.077220 0.928309
Si Si3 0.563674 0.400556 0.248153
Si Si4 0.819175 0.228593 0.821869
Si Si5 0.534649 0.893828 0.582285
O O1 0.227145 0.968249 0.466247
O O2 0.186177 0.885460 0.638665
O O3 0.389548 0.843409 0.588671
O O4 0.310348 0.110029 0.600926
O O5 0.476505 0.051804 0.833517
O O6 0.396934 0.247665 0.934629
O O7 0.500000 0.000000 0.000000
O O8 0.461120 0.288261 0.212176
O O9 0.700547 0.324361 0.260544
O O10 0.572629 0.521062 0.171054
O O11 0.500000 0.000000 0.500000
#
# Coordination Sequence:
#
# PCOD9461023 Si02
#       5
#     8   8   8   8   8
#     4  11  23  47  68 104 147 192 241 317 371 450
#     4  12  24  46  77 104 147 202 251 312 387 456
#     4  11  26  46  71 112 145 202 246 316 382 454
#     4  11  25  46  73 102 155 185 254 306 374 463
#     4  11  26  46  72 106 151 189 258 313 378 459
#
# _framework density 26.626974000000001
#
# number of rings (size 3 to 8) (size 9 to 14) (size 15 to 20)
#    0.000    0.800    4.000    2.400    5.600    1.600 
#    0.000    0.000    0.000    0.000    0.000    0.000 
#    0.000    0.000    0.000    0.000    0.000    0.000 
#
# Total GULP energy -222898.457826 kJ/mol
# GULP energy per Si atom -5572.461446 kJ/mol
# Density = 2.656637 g / cm^3
# Si number density = 26.626974 Si / 1000 Ang^3
#
#
#
# Elastic Constant Matrix: (Units=GPa)
#
#
# Indices 1 2 3 4 5 6 
#
# 1 95.7962 -3.8176 0.4586 0.0000 0.0000 0.0000
# 2 -3.8176 84.0744 44.3775 0.0000 0.0000 0.0000
# 3 0.4586 44.3775 108.4827 0.0000 0.0000 0.0000
# 4 0.0000 0.0000 0.0000 51.1619 0.0000 0.0000
# 5 0.0000 0.0000 0.0000 0.0000 53.5544 0.0000
# 6 0.0000 0.0000 0.0000 0.0000 0.0000 35.2039
#
#
#
# Elastic Compliance Matrix: (Units=1/GPa)
#
#
# Indices 1 2 3 4 5 6 
#
# 1 0.010466 0.000636 -0.000304 0.000000 0.000000 0.000000
# 2 0.000636 0.015208 -0.006224 0.000000 0.000000 0.000000
# 3 -0.000304 -0.006224 0.011765 0.000000 0.000000 0.000000
# 4 0.000000 0.000000 0.000000 0.019546 0.000000 0.000000
# 5 0.000000 0.000000 0.000000 0.000000 0.018673 0.000000
# 6 0.000000 0.000000 0.000000 0.000000 0.000000 0.028406
#
#
# Mechanical properties :
#
#
# Convention : Reuss Voigt Hill
#
# Bulk Modulus (GPa) = 38.97975 41.15452 40.06713
# Shear Modulus (GPa) = 40.19282 44.47303 42.33292
#
# Velocity S-wave (km/s) = 3.88941 4.09127 3.99162
# Velocity P-wave (km/s) = 5.90263 6.14878 6.02696
#
# Compressibility (1/GPa) = 0.02565435
#
# Stress axis : x y z
#
# Youngs Moduli (GPa) = 95.55096 65.75320 84.99464
#
# Poissons Ratio (x) = -0.04181 0.02587
# Poissons Ratio (y) = -0.06076 0.52901
# Poissons Ratio (z) = 0.02908 0.40925
#
# Static dielectric constant tensor:
#      x y z
#    x 3.563800 0.000000 0.000000 
#    y 0.000000 2.070470 0.000000 
#    z 0.000000 0.000000 2.499600 
# 
# From -- ./inp_files/9095.got.cif
#   From: 2010.05.17/outbox.cif.g08.bks.cpg/sg61_5_cif.got.tgz:9095.got - 2010.06.03 15:17:17.
