data_PCOD9461946
_publ_section_title
;
Structure prediction by ZEFSAII (Michael W. Deem and Ramdas Pophale) SiO2 
 PCOD9461946
Probable space group: P N M A
;
_chemical_formula_sum "Si O2"
_cell_formula_units_Z 48
_cell_length_a 8.428871
_cell_length_b 23.975577
_cell_length_c 11.898468
_cell_angle_alpha 90.000000
_cell_angle_beta 90.000000
_cell_angle_gamma 90.000000
_cell_volume 2404.526246
_symmetry_space_group_name_H-M "P N M A"
_symmetry_group_IT_number 62
_symmetry_cell_setting 'orthorhombic'
loop_
_space_group_symop_operation_xyz
x,y,z
1/2-x,-y,1/2+z
1/2+x,1/2-y,1/2-z
-x,1/2+y,-z
-x,-y,-z
1/2+x,y,1/2-z
1/2-x,1/2+y,1/2+z
x,1/2-y,z
loop_
_atom_site_type_symbol
_atom_site_label
_atom_site_fract_x
_atom_site_fract_y
_atom_site_fract_z
Si Si1 0.275314 0.101388 0.913472
Si Si2 0.356385 0.867534 0.737174
Si Si3 0.182905 0.493273 0.543051
Si Si4 0.597627 0.685344 0.908578
Si Si5 0.460053 0.554826 0.256857
Si Si6 0.890206 0.439541 0.140058
O O1 0.401256 0.078931 0.820830
O O2 0.112677 0.100080 0.842502
O O3 0.345793 0.154401 0.977800
O O4 0.256044 0.054651 0.011086
O O5 0.242976 0.822793 0.679069
O O6 0.449710 0.845209 0.846951
O O7 0.246526 0.919600 0.773152
O O8 0.487557 0.889031 0.649441
O O9 0.167544 0.467256 0.664970
O O10 0.292550 0.452131 0.471277
O O11 0.000000 0.500000 0.500000
O O12 0.563152 0.750000 0.926491
O O13 0.478891 0.496777 0.325316
#
# Coordination Sequence:
#
# PCOD9461946 Si02
#       6
#     8   8   8   8   8   8
#     4  10  21  35  55  81 115 154 191 230 277 336
#     4  10  20  35  58  86 111 139 182 241 302 353
#     4   9  16  29  50  78 113 149 179 216 270 340
#     4  11  23  41  60  81 109 149 199 252 296 335
#     4  10  19  33  53  82 119 154 182 218 276 349
#     4  10  18  31  55  86 116 145 179 225 290 361
#
# _framework density 19.962353
#
# number of rings (size 3 to 8) (size 9 to 14) (size 15 to 20)
#    0.000    2.000    0.000    7.500    0.000    1.333 
#    0.000    5.000    0.000    0.000    0.000    0.000 
#    0.000    0.000    0.000    0.000    0.000    0.000 
#
# Total GULP energy -267657.425098 kJ/mol
# GULP energy per Si atom -5576.196356 kJ/mol
# Density = 1.991692 g / cm^3
# Si number density = 19.962353 Si / 1000 Ang^3
#
#
#
# Elastic Constant Matrix: (Units=GPa)
#
#
# Indices 1 2 3 4 5 6 
#
# 1 65.7099 21.8743 23.1323 0.0000 0.0000 0.0000
# 2 21.8743 79.7461 21.5617 0.0000 0.0000 0.0000
# 3 23.1323 21.5617 76.5435 0.0000 0.0000 0.0000
# 4 0.0000 0.0000 0.0000 27.7611 0.0000 0.0000
# 5 0.0000 0.0000 0.0000 0.0000 45.6572 0.0000
# 6 0.0000 0.0000 0.0000 0.0000 0.0000 18.1622
#
#
#
# Elastic Compliance Matrix: (Units=1/GPa)
#
#
# Indices 1 2 3 4 5 6 
#
# 1 0.018012 -0.003755 -0.004386 0.000000 0.000000 0.000000
# 2 -0.003755 0.014356 -0.002909 0.000000 0.000000 0.000000
# 3 -0.004386 -0.002909 0.015209 0.000000 0.000000 0.000000
# 4 0.000000 0.000000 0.000000 0.036022 0.000000 0.000000
# 5 0.000000 0.000000 0.000000 0.000000 0.021902 0.000000
# 6 0.000000 0.000000 0.000000 0.000000 0.000000 0.055059
#
#
# Mechanical properties :
#
#
# Convention : Reuss Voigt Hill
#
# Bulk Modulus (GPa) = 39.24939 39.45956 39.35448
# Shear Modulus (GPa) = 26.15687 28.67817 27.41752
#
# Velocity S-wave (km/s) = 3.62375 3.79438 3.71004
# Velocity P-wave (km/s) = 6.10026 6.24550 6.17331
#
# Compressibility (1/GPa) = 0.02547810
#
# Stress axis : x y z
#
# Youngs Moduli (GPa) = 55.51743 69.65541 65.74867
#
# Poissons Ratio (x) = 0.26155 0.28836
# Poissons Ratio (y) = 0.20847 0.19128
# Poissons Ratio (z) = 0.24349 0.20265
#
# Static dielectric constant tensor:
#      x y z
#    x 1.870870 0.000000 0.000000 
#    y 0.000000 1.712490 0.000000 
#    z 0.000000 0.000000 1.765500 
# 
# From -- ./inp_files/11306.got.cif
#   From: 2010.05.17/outbox.cif.g08.bks.cpg/sg62_6_cif.got.tgz:11306.got - 2010.06.03 15:25:27.
