data_PCOD9461915
_publ_section_title
;
Structure prediction by ZEFSAII (Michael W. Deem and Ramdas Pophale) SiO2 
 PCOD9461915
Probable space group: P N M A
;
_chemical_formula_sum "Si O2"
_cell_formula_units_Z 40
_cell_length_a 8.124975
_cell_length_b 7.935597
_cell_length_c 24.250569
_cell_angle_alpha 90.000000
_cell_angle_beta 90.000000
_cell_angle_gamma 90.000000
_cell_volume 1563.592473
_symmetry_space_group_name_H-M "P N M A"
_symmetry_group_IT_number 62
_symmetry_cell_setting 'orthorhombic'
loop_
_space_group_symop_operation_xyz
x,y,z
1/2-x,-y,1/2+z
1/2+x,1/2-y,1/2-z
-x,1/2+y,-z
-x,-y,-z
1/2+x,y,1/2-z
1/2-x,1/2+y,1/2+z
x,1/2-y,z
loop_
_atom_site_type_symbol
_atom_site_label
_atom_site_fract_x
_atom_site_fract_y
_atom_site_fract_z
Si Si1 0.843994 0.949740 0.268979
Si Si2 0.527566 0.541931 0.334336
Si Si3 0.142257 0.054791 0.938776
Si Si4 0.950882 0.944965 0.632717
Si Si5 0.155696 0.053796 0.537585
O O1 0.818958 0.750000 0.264049
O O2 0.883247 0.012206 0.207789
O O3 0.689812 0.018215 0.302829
O O4 0.000764 0.979807 0.308496
O O5 0.530691 0.750000 0.336736
O O6 0.494991 0.485020 0.396735
O O7 0.110545 0.250000 0.949510
O O8 0.306306 0.039392 0.900183
O O9 0.189557 0.974461 0.997234
O O10 0.905886 0.750000 0.636750
O O11 0.114298 0.960031 0.594051
O O12 0.149699 0.250000 0.551167
O O13 0.000000 0.000000 0.500000
#
# Coordination Sequence:
#
# PCOD9461915 Si02
#       5
#     8   8   8   8   8
#     4  10  19  36  57  80 105 137 177 219 263 316
#     4   9  19  34  58  83 106 136 176 218 265 319
#     4  10  18  33  56  83 110 141 176 218 263 315
#     4  11  21  34  52  79 109 143 180 220 263 311
#     4  10  18  31  52  79 107 141 178 219 262 311
#
# _framework density 25.582114000000001
#
# number of rings (size 3 to 8) (size 9 to 14) (size 15 to 20)
#    0.000    2.000    0.000    7.800    0.000    3.200 
#    0.000    8.000    0.000    0.000    0.000    0.000 
#    0.000    0.000    0.000    0.000    0.000    0.000 
#
# Total GULP energy -223727.785313 kJ/mol
# GULP energy per Si atom -5593.194633 kJ/mol
# Density = 2.552389 g / cm^3
# Si number density = 25.582114 Si / 1000 Ang^3
#
#
#
# Elastic Constant Matrix: (Units=GPa)
#
#
# Indices 1 2 3 4 5 6 
#
# 1 92.5841 -7.7498 20.5418 0.0000 0.0000 0.0000
# 2 -7.7498 64.3827 -6.8691 0.0000 0.0000 0.0000
# 3 20.5418 -6.8691 160.8470 0.0000 0.0000 0.0000
# 4 0.0000 0.0000 0.0000 18.9127 0.0000 0.0000
# 5 0.0000 0.0000 0.0000 0.0000 43.1271 0.0000
# 6 0.0000 0.0000 0.0000 0.0000 0.0000 7.9399
#
#
#
# Elastic Compliance Matrix: (Units=1/GPa)
#
#
# Indices 1 2 3 4 5 6 
#
# 1 0.011208 0.001202 -0.001380 0.000000 0.000000 0.000000
# 2 0.001202 0.015732 0.000518 0.000000 0.000000 0.000000
# 3 -0.001380 0.000518 0.006415 0.000000 0.000000 0.000000
# 4 0.000000 0.000000 0.000000 0.052874 0.000000 0.000000
# 5 0.000000 0.000000 0.000000 0.000000 0.023187 0.000000
# 6 0.000000 0.000000 0.000000 0.000000 0.000000 0.125946
#
#
# Mechanical properties :
#
#
# Convention : Reuss Voigt Hill
#
# Bulk Modulus (GPa) = 29.38089 36.62885 33.00487
# Shear Modulus (GPa) = 20.32287 34.78867 27.55577
#
# Velocity S-wave (km/s) = 2.82160 3.69166 3.28556
# Velocity P-wave (km/s) = 4.70373 5.70266 5.22711
#
# Compressibility (1/GPa) = 0.03403573
#
# Stress axis : x y z
#
# Youngs Moduli (GPa) = 89.22372 63.56434 155.87324
#
# Poissons Ratio (x) = -0.07640 0.21511
# Poissons Ratio (y) = -0.10723 -0.08080
# Poissons Ratio (z) = 0.12313 -0.03295
#
# Static dielectric constant tensor:
#      x y z
#    x 2.147210 0.000000 0.000000 
#    y 0.000000 1.879420 0.000000 
#    z 0.000000 0.000000 2.001500 
# 
# From -- ./inp_files/30671.got.cif
#   From: 2010.05.17/outbox.cif.g08.bks.cpg/sg62_16_cif.got.tgz:30671.got - 2010.06.03 15:25:27.
