data_PCOD9461132
_publ_section_title
;
Structure prediction by ZEFSAII (Michael W. Deem and Ramdas Pophale) SiO2 
 PCOD9461132
Probable space group: P B C A
;
_chemical_formula_sum "Si O2"
_cell_formula_units_Z 40
_cell_length_a 14.863884
_cell_length_b 10.320760
_cell_length_c 9.417316
_cell_angle_alpha 90.000000
_cell_angle_beta 90.000000
_cell_angle_gamma 90.000000
_cell_volume 1444.678235
_symmetry_space_group_name_H-M "P B C A"
_symmetry_group_IT_number 61
_symmetry_cell_setting 'orthorhombic'
loop_
_space_group_symop_operation_xyz
x,y,z
1/2-x,-y,1/2+z
1/2+x,1/2-y,-z
-x,1/2+y,1/2-z
-x,-y,-z
1/2+x,y,1/2-z
1/2-x,1/2+y,z
x,1/2-y,1/2+z
loop_
_atom_site_type_symbol
_atom_site_label
_atom_site_fract_x
_atom_site_fract_y
_atom_site_fract_z
Si Si1 0.561768 0.965999 0.209997
Si Si2 0.030309 0.725863 0.146429
Si Si3 0.109413 0.415084 0.495157
Si Si4 0.261849 0.251858 0.642468
Si Si5 0.745238 0.422025 0.598124
O O1 0.498104 0.076722 0.148945
O O2 0.661164 0.992827 0.149389
O O3 0.532933 0.815934 0.209029
O O4 0.436403 0.996067 0.621697
O O5 0.133968 0.732337 0.102251
O O6 0.952270 0.800984 0.062435
O O7 0.195390 0.351248 0.569009
O O8 0.157748 0.509565 0.382807
O O9 0.235371 0.117256 0.567410
O O10 0.248517 0.290681 0.806680
#
# Coordination Sequence:
#
# PCOD9461132 Si02
#       5
#     8   8   8   8   8
#     4  11  26  45  79 113 159 207 271 325 402 471
#     4  12  25  47  77 116 154 209 264 331 398 478
#     4  11  25  48  75 110 161 208 267 329 402 471
#     4  11  26  45  79 107 157 206 259 320 403 466
#     4  11  25  49  75 110 157 211 253 330 394 479
#
# _framework density 27.687826999999999
#
# number of rings (size 3 to 8) (size 9 to 14) (size 15 to 20)
#    0.000    0.800    4.000    1.800    5.600    0.000 
#    7.200    2.000    0.000    0.000    0.000    0.000 
#    0.000    0.000    0.000    0.000    0.000    0.000 
#
# Total GULP energy -224059.780697 kJ/mol
# GULP energy per Si atom -5601.494517 kJ/mol
# Density = 2.762481 g / cm^3
# Si number density = 27.687827 Si / 1000 Ang^3
#
#
#
# Elastic Constant Matrix: (Units=GPa)
#
#
# Indices 1 2 3 4 5 6 
#
# 1 83.3994 30.6277 20.8765 0.0000 0.0000 0.0000
# 2 30.6277 105.7374 13.6647 0.0000 0.0000 0.0000
# 3 20.8765 13.6647 78.3081 0.0000 0.0000 0.0000
# 4 0.0000 0.0000 0.0000 48.7870 0.0000 0.0000
# 5 0.0000 0.0000 0.0000 0.0000 44.2511 0.0000
# 6 0.0000 0.0000 0.0000 0.0000 0.0000 58.1056
#
#
#
# Elastic Compliance Matrix: (Units=1/GPa)
#
#
# Indices 1 2 3 4 5 6 
#
# 1 0.014127 -0.003688 -0.003122 0.000000 0.000000 0.000000
# 2 -0.003688 0.010639 -0.000873 0.000000 0.000000 0.000000
# 3 -0.003122 -0.000873 0.013755 0.000000 0.000000 0.000000
# 4 0.000000 0.000000 0.000000 0.020497 0.000000 0.000000
# 5 0.000000 0.000000 0.000000 0.000000 0.022598 0.000000
# 6 0.000000 0.000000 0.000000 0.000000 0.000000 0.017210
#
#
# Mechanical properties :
#
#
# Convention : Reuss Voigt Hill
#
# Bulk Modulus (GPa) = 43.19248 44.19806 43.69527
# Shear Modulus (GPa) = 41.01352 43.71380 42.36366
#
# Velocity S-wave (km/s) = 3.85292 3.97773 3.91582
# Velocity P-wave (km/s) = 5.95206 6.09050 6.02167
#
# Compressibility (1/GPa) = 0.02315218
#
# Stress axis : x y z
#
# Youngs Moduli (GPa) = 70.78827 93.99739 72.70157
#
# Poissons Ratio (x) = 0.34670 0.22701
# Poissons Ratio (y) = 0.26109 0.06348
# Poissons Ratio (z) = 0.22103 0.08207
#
# Static dielectric constant tensor:
#      x y z
#    x 2.112260 0.000000 0.000000 
#    y 0.000000 2.211120 0.000000 
#    z 0.000000 0.000000 2.252130 
# 
# From -- ./inp_files/5595.got.cif
#   From: 2010.05.17/outbox.cif.g08.bks.cpg/sg61_3_cif.got.tgz:5595.got - 2010.06.03 15:17:17.
