data_PCOD9461271
_publ_section_title
;
Structure prediction by ZEFSAII (Michael W. Deem and Ramdas Pophale) SiO2 
 PCOD9461271
Probable space group: P B C A
;
_chemical_formula_sum "Si O2"
_cell_formula_units_Z 64
_cell_length_a 9.000000
_cell_length_b 21.000000
_cell_length_c 18.000000
_cell_angle_alpha 90.000000
_cell_angle_beta 90.000000
_cell_angle_gamma 90.000000
_cell_volume 3402.000000
_symmetry_space_group_name_H-M "P B C A"
_symmetry_group_IT_number 61
_symmetry_cell_setting 'orthorhombic'
loop_
_space_group_symop_operation_xyz
x,y,z
1/2-x,-y,1/2+z
1/2+x,1/2-y,-z
-x,1/2+y,1/2-z
-x,-y,-z
1/2+x,y,1/2-z
1/2-x,1/2+y,z
x,1/2-y,1/2+z
loop_
_atom_site_type_symbol
_atom_site_label
_atom_site_fract_x
_atom_site_fract_y
_atom_site_fract_z
Si Si1 0.116673 0.250191 0.651740
Si Si2 0.636363 0.048053 0.508694
Si Si3 0.049267 0.749693 0.205754
Si Si4 0.521666 0.602402 0.297734
Si Si5 0.891285 0.957063 0.553228
Si Si6 0.457090 0.811197 0.440985
Si Si7 0.146531 0.396318 0.651722
Si Si8 0.700861 0.314752 0.493079
O O1 0.275083 0.250700 0.693122
O O2 0.103411 0.324165 0.626202
O O3 0.126896 0.199160 0.586870
O O4 0.990283 0.234967 0.710232
O O5 0.607537 0.118274 0.543458
O O6 0.674405 0.063779 0.422590
O O7 0.500000 0.000000 0.500000
O O8 0.752575 0.005254 0.554265
O O9 0.984096 0.678055 0.191950
O O10 0.985128 0.798764 0.146156
O O11 0.455352 0.560547 0.365143
O O12 0.471258 0.583493 0.214701
O O13 0.698476 0.602415 0.304802
O O14 0.845928 0.885742 0.521402
O O15 0.000000 0.000000 0.500000
O O16 0.359076 0.748775 0.463929
O O17 0.620418 0.809407 0.481141
#
# Coordination Sequence:
#
# PCOD9461271 Si02
#       8
#     8   8   8   8   8   8   8   8
#     4   9  19  37  60  90 122 155 204 263 313 366
#     4  12  25  43  63  95 133 172 215 266 321 385
#     4   9  19  37  60  90 121 154 206 262 311 372
#     4  10  21  39  63  92 123 167 214 260 320 387
#     4  12  25  43  65  93 133 171 216 266 322 386
#     4  11  23  40  65  92 125 162 214 262 315 376
#     4  10  21  39  63  91 126 166 214 262 318 387
#     4  11  23  40  65  93 123 164 213 262 315 377
#
# _framework density 18.812463000000001
#
# number of rings (size 3 to 8) (size 9 to 14) (size 15 to 20)
#    0.000    1.500    5.000    0.000    3.500    1.000 
#    0.000    2.500    0.000    0.000    0.000    0.000 
#    0.000    0.000    0.000    0.000    0.000    0.000 
#
# Total GULP energy -356574.302403 kJ/mol
# GULP energy per Si atom -5571.473475 kJ/mol
# Density = 1.876965 g / cm^3
# Si number density = 18.812463 Si / 1000 Ang^3
#
#
#
# Elastic Constant Matrix: (Units=GPa)
#
#
# Indices 1 2 3 4 5 6 
#
# 1 11.4561 8.4772 -17.7378 0.0000 0.0000 0.0000
# 2 8.4772 99.0388 -5.1899 0.0000 0.0000 0.0000
# 3 -17.7378 -5.1899 23.3822 0.0000 0.0000 0.0000
# 4 0.0000 0.0000 0.0000 33.9518 0.0000 0.0000
# 5 0.0000 0.0000 0.0000 0.0000 33.7572 0.0000
# 6 0.0000 0.0000 0.0000 0.0000 0.0000 30.9214
#
#
#
# Elastic Compliance Matrix: (Units=1/GPa)
#
#
# Indices 1 2 3 4 5 6 
#
# 1 -0.452406 0.020983 -0.338540 0.000000 0.000000 0.000000
# 2 0.020983 0.009243 0.017970 0.000000 0.000000 0.000000
# 3 -0.338540 0.017970 -0.210061 0.000000 0.000000 0.000000
# 4 0.000000 0.000000 0.000000 0.029454 0.000000 0.000000
# 5 0.000000 0.000000 0.000000 0.000000 0.029623 0.000000
# 6 0.000000 0.000000 0.000000 0.000000 0.000000 0.032340
#
#
# Mechanical properties :
#
#
# Convention : Reuss Voigt Hill
#
# Bulk Modulus (GPa) = -0.79847 11.66403 5.43278
# Shear Modulus (GPa) = -13.15440 29.61459 8.23009
#
# Velocity S-wave (km/s) = -2.64718 3.97192 2.09387
# Velocity P-wave (km/s) = 3.12550 5.22001 2.95633
#
# Compressibility (1/GPa) = -1.25239769
#
# Stress axis : x y z
#
# Youngs Moduli (GPa) = -2.21040 108.19443 -4.76052
#
# Poissons Ratio (x) = -2.27029 -1.61162
# Poissons Ratio (y) = 0.04638 0.08554
# Poissons Ratio (z) = -0.74831 -1.94421
#
# Static dielectric constant tensor:
#      x y z
#    x 1.720150 0.000000 0.000000 
#    y 0.000000 1.640820 0.000000 
#    z 0.000000 0.000000 1.693600 
# 
# From -- ./inp_files/4060.got.cif
#   From: 2010.05.17/outbox.ucp.g08.bks.cvg/sg61_3_cif.got.tgz:4060.got - 2010.06.11 16:28:26.
