data_PCOD9461207
_publ_section_title
;
Structure prediction by ZEFSAII (Michael W. Deem and Ramdas Pophale) SiO2 
 PCOD9461207
Probable space group: P B C A
;
_chemical_formula_sum "Si O2"
_cell_formula_units_Z 48
_cell_length_a 17.677601
_cell_length_b 7.419078
_cell_length_c 14.559859
_cell_angle_alpha 90.000000
_cell_angle_beta 90.000000
_cell_angle_gamma 90.000000
_cell_volume 1909.547357
_symmetry_space_group_name_H-M "P B C A"
_symmetry_group_IT_number 61
_symmetry_cell_setting 'orthorhombic'
loop_
_space_group_symop_operation_xyz
x,y,z
1/2-x,-y,1/2+z
1/2+x,1/2-y,-z
-x,1/2+y,1/2-z
-x,-y,-z
1/2+x,y,1/2-z
1/2-x,1/2+y,z
x,1/2-y,1/2+z
loop_
_atom_site_type_symbol
_atom_site_label
_atom_site_fract_x
_atom_site_fract_y
_atom_site_fract_z
Si Si1 0.494258 0.470646 0.606967
Si Si2 0.713949 0.551001 0.220600
Si Si3 0.190295 0.026458 0.986170
Si Si4 0.446282 0.087660 0.577967
Si Si5 0.872630 0.433181 0.233956
Si Si6 0.170330 0.108728 0.593340
O O1 0.500000 0.500000 0.500000
O O2 0.491560 0.256788 0.618755
O O3 0.561951 0.563940 0.658897
O O4 0.411601 0.545547 0.625439
O O5 0.804715 0.568515 0.208488
O O6 0.664788 0.732303 0.237764
O O7 0.712348 0.422270 0.310001
O O8 0.687101 0.470751 0.123225
O O9 0.162632 0.204705 0.038638
O O10 0.132435 0.873214 0.023426
O O11 0.275397 0.998274 0.022335
O O12 0.413711 0.003223 0.672262
O O13 0.500000 0.000000 0.500000
#
# Coordination Sequence:
#
# PCOD9461207 Si02
#       6
#     8   8   8   8   8   8
#     4  12  27  51  78 119 166 211 276 356 429 507
#     4  12  26  52  83 120 167 226 291 347 430 512
#     4  12  26  47  83 119 164 230 288 348 434 511
#     4  12  28  50  78 118 164 215 273 347 429 509
#     4  12  28  53  85 123 166 222 287 354 432 511
#     4  12  25  49  80 120 170 217 284 357 417 515
#
# _framework density 25.136846999999999
#
# number of rings (size 3 to 8) (size 9 to 14) (size 15 to 20)
#    0.000    0.000    3.333    6.000    2.333    4.000 
#    0.000    0.000    0.000    0.000    0.000    0.000 
#    0.000    0.000    0.000    0.000    0.000    0.000 
#
# Total GULP energy -268242.652636 kJ/mol
# GULP energy per Si atom -5588.388597 kJ/mol
# Density = 2.507963 g / cm^3
# Si number density = 25.136847 Si / 1000 Ang^3
#
#
#
# Elastic Constant Matrix: (Units=GPa)
#
#
# Indices 1 2 3 4 5 6 
#
# 1 155.7771 37.6596 41.9310 0.0000 0.0000 0.0000
# 2 37.6596 96.4378 34.7053 0.0000 0.0000 0.0000
# 3 41.9310 34.7053 166.6070 0.0000 0.0000 0.0000
# 4 0.0000 0.0000 0.0000 24.0098 0.0000 0.0000
# 5 0.0000 0.0000 0.0000 0.0000 60.2379 0.0000
# 6 0.0000 0.0000 0.0000 0.0000 0.0000 37.5332
#
#
#
# Elastic Compliance Matrix: (Units=1/GPa)
#
#
# Indices 1 2 3 4 5 6 
#
# 1 0.007361 -0.002387 -0.001355 0.000000 0.000000 0.000000
# 2 -0.002387 0.011984 -0.001896 0.000000 0.000000 0.000000
# 3 -0.001355 -0.001896 0.006738 0.000000 0.000000 0.000000
# 4 0.000000 0.000000 0.000000 0.041650 0.000000 0.000000
# 5 0.000000 0.000000 0.000000 0.000000 0.016601 0.000000
# 6 0.000000 0.000000 0.000000 0.000000 0.000000 0.026643
#
#
# Mechanical properties :
#
#
# Convention : Reuss Voigt Hill
#
# Bulk Modulus (GPa) = 67.53409 71.93486 69.73447
# Shear Modulus (GPa) = 39.31181 44.65790 41.98486
#
# Velocity S-wave (km/s) = 3.95892 4.21954 4.09130
# Velocity P-wave (km/s) = 6.91537 7.24008 7.07959
#
# Compressibility (1/GPa) = 0.01480734
#
# Stress axis : x y z
#
# Youngs Moduli (GPa) = 135.84538 83.44728 148.40884
#
# Poissons Ratio (x) = 0.19918 0.20116
# Poissons Ratio (y) = 0.32424 0.28132
# Poissons Ratio (z) = 0.18413 0.15818
#
# Static dielectric constant tensor:
#      x y z
#    x 1.368290 0.000000 0.000000 
#    y 0.000000 2.004990 0.000000 
#    z 0.000000 0.000000 2.002600 
# 
# From -- ./inp_files/8112.got.cif
#   From: 2010.05.17/outbox.cif.g08.bks.cpg/sg61_5_cif.got.tgz:8112.got - 2010.06.03 15:17:17.
