data_PCOD9461090
_publ_section_title
;
Structure prediction by ZEFSAII (Michael W. Deem and Ramdas Pophale) SiO2 
 PCOD9461090
Probable space group: P B C A
;
_chemical_formula_sum "Si O2"
_cell_formula_units_Z 56
_cell_length_a 9.661974
_cell_length_b 13.661677
_cell_length_c 16.584327
_cell_angle_alpha 90.000000
_cell_angle_beta 90.000000
_cell_angle_gamma 90.000000
_cell_volume 2189.110732
_symmetry_space_group_name_H-M "P B C A"
_symmetry_group_IT_number 61
_symmetry_cell_setting 'orthorhombic'
loop_
_space_group_symop_operation_xyz
x,y,z
1/2-x,-y,1/2+z
1/2+x,1/2-y,-z
-x,1/2+y,1/2-z
-x,-y,-z
1/2+x,y,1/2-z
1/2-x,1/2+y,z
x,1/2-y,1/2+z
loop_
_atom_site_type_symbol
_atom_site_label
_atom_site_fract_x
_atom_site_fract_y
_atom_site_fract_z
Si Si1 0.744199 0.216967 0.757379
Si Si2 0.418351 0.988833 0.583864
Si Si3 0.083675 0.214202 0.040696
Si Si4 0.112754 0.106688 0.345196
Si Si5 0.363223 0.936155 0.015552
Si Si6 0.134054 0.777870 0.574314
Si Si7 0.514445 0.584913 0.748972
O O1 0.778648 0.242007 0.849484
O O2 0.684242 0.309791 0.709015
O O3 0.639468 0.125711 0.757934
O O4 0.888359 0.175786 0.723795
O O5 0.256663 0.015339 0.568359
O O6 0.465468 0.204345 0.527133
O O7 0.500000 0.000000 0.500000
O O8 0.438595 0.872825 0.604220
O O9 0.242968 0.192198 0.013107
O O10 0.084375 0.332106 0.051110
O O11 0.199344 0.083358 0.426041
O O12 0.972095 0.149703 0.383349
O O13 0.066737 0.009090 0.299785
O O14 0.500000 0.000000 0.000000
O O15 0.032882 0.553620 0.658152
#
# Coordination Sequence:
#
# PCOD9461090 Si02
#       7
#     8   8   8   8   8   8   8
#     4  12  27  53  78 115 170 215 279 332 418 490
#     4  12  27  47  75 118 155 204 271 329 411 481
#     4  11  24  48  81 110 168 205 267 342 412 480
#     4  11  28  49  82 121 162 219 277 332 425 487
#     4  11  27  47  79 117 158 209 268 335 405 491
#     4  11  25  52  75 118 157 216 268 343 404 492
#     4  12  30  48  85 112 166 219 275 344 404 509
#
# _framework density 25.581164000000001
#
# number of rings (size 3 to 8) (size 9 to 14) (size 15 to 20)
#    0.000    0.571    1.429    5.143   12.000    0.000 
#    7.714    0.000    0.000    0.000    0.000    0.000 
#    0.000    0.000    0.000    0.000    0.000    0.000 
#
# Total GULP energy -313194.489339 kJ/mol
# GULP energy per Si atom -5592.758738 kJ/mol
# Density = 2.552294 g / cm^3
# Si number density = 25.581164 Si / 1000 Ang^3
#
#
#
# Elastic Constant Matrix: (Units=GPa)
#
#
# Indices 1 2 3 4 5 6 
#
# 1 113.6219 3.5590 31.6543 0.0000 0.0000 0.0000
# 2 3.5590 119.3421 21.6471 0.0000 0.0000 0.0000
# 3 31.6543 21.6471 101.7135 0.0000 0.0000 0.0000
# 4 0.0000 0.0000 0.0000 37.4521 0.0000 0.0000
# 5 0.0000 0.0000 0.0000 0.0000 48.3045 0.0000
# 6 0.0000 0.0000 0.0000 0.0000 0.0000 31.7184
#
#
#
# Elastic Compliance Matrix: (Units=1/GPa)
#
#
# Indices 1 2 3 4 5 6 
#
# 1 0.009645 0.000267 -0.003058 0.000000 0.000000 0.000000
# 2 0.000267 0.008723 -0.001940 0.000000 0.000000 0.000000
# 3 -0.003058 -0.001940 0.011196 0.000000 0.000000 0.000000
# 4 0.000000 0.000000 0.000000 0.026701 0.000000 0.000000
# 5 0.000000 0.000000 0.000000 0.000000 0.020702 0.000000
# 6 0.000000 0.000000 0.000000 0.000000 0.000000 0.031527
#
#
# Mechanical properties :
#
#
# Convention : Reuss Voigt Hill
#
# Bulk Modulus (GPa) = 49.74566 49.82204 49.78385
# Shear Modulus (GPa) = 40.11010 42.01614 41.06312
#
# Velocity S-wave (km/s) = 3.96404 4.05713 4.01085
# Velocity P-wave (km/s) = 6.35924 6.43936 6.39942
#
# Compressibility (1/GPa) = 0.02010225
#
# Stress axis : x y z
#
# Youngs Moduli (GPa) = 103.68271 114.63778 89.31645
#
# Poissons Ratio (x) = -0.03062 0.27317
# Poissons Ratio (y) = -0.02770 0.17324
# Poissons Ratio (z) = 0.31711 0.22235
#
# Static dielectric constant tensor:
#      x y z
#    x 2.084790 0.000000 0.000000 
#    y 0.000000 2.142440 0.000000 
#    z 0.000000 0.000000 2.100890 
# 
# From -- ./inp_files/10286.got.cif
#   From: 2010.05.17/outbox.cif.g08.bks.cpg/sg61_6_cif.got.tgz:10286.got - 2010.06.03 15:17:17.
