data_PCOD9461511
_publ_section_title
;
Structure prediction by ZEFSAII (Michael W. Deem and Ramdas Pophale) SiO2 
 PCOD9461511
Probable space group: P N M A
;
_chemical_formula_sum "Si O2"
_cell_formula_units_Z 40
_cell_length_a 12.432741
_cell_length_b 9.846176
_cell_length_c 16.725653
_cell_angle_alpha 90.000000
_cell_angle_beta 90.000000
_cell_angle_gamma 90.000000
_cell_volume 2047.470077
_symmetry_space_group_name_H-M "P N M A"
_symmetry_group_IT_number 62
_symmetry_cell_setting 'orthorhombic'
loop_
_space_group_symop_operation_xyz
x,y,z
1/2-x,-y,1/2+z
1/2+x,1/2-y,1/2-z
-x,1/2+y,-z
-x,-y,-z
1/2+x,y,1/2-z
1/2-x,1/2+y,1/2+z
x,1/2-y,z
loop_
_atom_site_type_symbol
_atom_site_label
_atom_site_fract_x
_atom_site_fract_y
_atom_site_fract_z
Si Si1 0.552355 0.750000 0.817570
Si Si2 0.204551 0.250000 0.113883
Si Si3 0.316644 0.486425 0.882370
Si Si4 0.092070 0.046144 0.224302
Si Si5 0.995927 0.250000 0.625087
Si Si6 0.880660 0.750000 0.536588
Si Si7 0.013943 0.750000 0.197265
Si Si8 0.335698 0.750000 0.425542
O O1 0.674409 0.750000 0.849537
O O2 0.512588 0.878555 0.763335
O O3 0.479106 0.750000 0.898499
O O4 0.138969 0.123683 0.149256
O O5 0.193774 0.250000 0.018783
O O6 0.321854 0.555528 0.795941
O O7 0.420094 0.384007 0.885885
O O8 0.320659 0.608739 0.945102
O O9 0.218258 0.386075 0.891402
O O10 0.077340 0.889949 0.203517
O O11 0.078944 0.250000 0.553490
O O12 0.044996 0.250000 0.714677
O O13 0.952168 0.750000 0.113693
#
# Coordination Sequence:
#
# PCOD9461511 Si02
#       8
#     4   4   8   8   4   4   4   4
#     4   9  19  36  63  93 115 157 195 245 312 360
#     4  11  23  40  63  88 119 158 210 245 289 367
#     4   9  19  36  55  85 123 147 191 247 295 348
#     4   9  21  41  61  88 119 159 199 249 297 361
#     4   9  17  32  57  81 111 154 186 238 307 361
#     4  10  17  33  59  87 126 149 186 245 304 357
#     4  10  22  39  57  80 117 161 204 241 304 344
#     4  11  24  38  57  89 122 163 199 246 302 343
#
# _framework density 19.536304000000001
#
# number of rings (size 3 to 8) (size 9 to 14) (size 15 to 20)
#    0.000    2.400    0.000    3.000    2.800    4.000 
#    0.000    1.000    0.000    0.000    0.000    0.000 
#    0.000    0.000    0.000    0.000    0.000    0.000 
#
# Total GULP energy -222838.825637 kJ/mol
# GULP energy per Si atom -5570.970641 kJ/mol
# Density = 1.949184 g / cm^3
# Si number density = 19.536304 Si / 1000 Ang^3
#
#
#
# Elastic Constant Matrix: (Units=GPa)
#
#
# Indices 1 2 3 4 5 6 
#
# 1 25.7365 1.6465 9.8134 0.0000 0.0000 0.0000
# 2 1.6465 108.4866 -2.4669 0.0000 0.0000 0.0000
# 3 9.8134 -2.4669 31.0639 0.0000 0.0000 0.0000
# 4 0.0000 0.0000 0.0000 29.8474 0.0000 0.0000
# 5 0.0000 0.0000 0.0000 0.0000 12.3720 0.0000
# 6 0.0000 0.0000 0.0000 0.0000 0.0000 -15.5877
#
#
#
# Elastic Compliance Matrix: (Units=1/GPa)
#
#
# Indices 1 2 3 4 5 6 
#
# 1 0.044283 -0.000992 -0.014068 0.000000 0.000000 0.000000
# 2 -0.000992 0.009257 0.001048 0.000000 0.000000 0.000000
# 3 -0.014068 0.001048 0.036719 0.000000 0.000000 0.000000
# 4 0.000000 0.000000 0.000000 0.033504 0.000000 0.000000
# 5 0.000000 0.000000 0.000000 0.000000 0.080828 0.000000
# 6 0.000000 0.000000 0.000000 0.000000 0.000000 -0.064153
#
#
# Mechanical properties :
#
#
# Convention : Reuss Voigt Hill
#
# Bulk Modulus (GPa) = 16.06801 20.36366 18.21584
# Shear Modulus (GPa) = 26.42624 15.74594 21.08609
#
# Velocity S-wave (km/s) = 3.68186 2.84206 3.28888
# Velocity P-wave (km/s) = 5.13004 4.60607 4.87510
#
# Compressibility (1/GPa) = 0.06223544
#
# Stress axis : x y z
#
# Youngs Moduli (GPa) = 22.58205 108.03069 27.23363
#
# Poissons Ratio (x) = 0.10716 0.38313
# Poissons Ratio (y) = 0.02240 -0.02855
# Poissons Ratio (z) = 0.31769 -0.11327
#
# Static dielectric constant tensor:
#      x y z
#    x 1.688900 0.000000 0.000000 
#    y 0.000000 1.714860 0.000000 
#    z 0.000000 0.000000 1.706200 
# 
# From -- ./inp_files/22855.got.cif
#   From: 2010.05.17/outbox.cif.g08.bks.cpg/sg62_12_cif.got.tgz:22855.got - 2010.06.03 15:25:27.
