data_PCOD9461479
_publ_section_title
;
Structure prediction by ZEFSAII (Michael W. Deem and Ramdas Pophale) SiO2 
 PCOD9461479
Probable space group: P N M A
;
_chemical_formula_sum "Si O2"
_cell_formula_units_Z 56
_cell_length_a 15.439698
_cell_length_b 9.146267
_cell_length_c 21.673967
_cell_angle_alpha 90.000000
_cell_angle_beta 90.000000
_cell_angle_gamma 90.000000
_cell_volume 3060.702261
_symmetry_space_group_name_H-M "P N M A"
_symmetry_group_IT_number 62
_symmetry_cell_setting 'orthorhombic'
loop_
_space_group_symop_operation_xyz
x,y,z
1/2-x,-y,1/2+z
1/2+x,1/2-y,1/2-z
-x,1/2+y,-z
-x,-y,-z
1/2+x,y,1/2-z
1/2-x,1/2+y,1/2+z
x,1/2-y,z
loop_
_atom_site_type_symbol
_atom_site_label
_atom_site_fract_x
_atom_site_fract_y
_atom_site_fract_z
Si Si1 0.181938 0.571471 0.764208
Si Si2 0.514889 0.080040 0.274364
Si Si3 0.682216 0.072151 0.343230
Si Si4 0.949401 0.918569 0.634347
Si Si5 0.264743 0.077887 0.531099
Si Si6 0.559725 0.080707 0.950515
Si Si7 0.260411 0.571799 0.896714
O O1 0.181481 0.750000 0.761031
O O2 0.243623 0.525778 0.706894
O O3 0.219557 0.529315 0.831338
O O4 0.081911 0.519604 0.764934
O O5 0.501904 0.250000 0.292657
O O6 0.587433 0.019321 0.320210
O O7 0.559786 0.079520 0.207501
O O8 0.682589 0.250000 0.343544
O O9 0.698944 0.011769 0.411450
O O10 0.961614 0.750000 0.614941
O O11 0.860773 0.975803 0.604803
O O12 0.032254 0.008478 0.613667
O O13 0.287741 0.250000 0.536899
O O14 0.160630 0.066607 0.536305
O O15 0.284832 0.027420 0.460832
O O16 0.537491 0.250000 0.950594
O O17 0.500000 0.000000 0.000000
O O18 0.262465 0.750000 0.897623
#
# Coordination Sequence:
#
# PCOD9461479 Si02
#       7
#     8   8   8   8   8   8   8
#     4   9  16  29  52  79 102 132 173 215 258 303
#     4   9  17  29  51  80 104 128 171 224 263 301
#     4  10  19  33  54  80 105 131 169 220 267 303
#     4  10  17  31  52  75 104 134 167 214 265 312
#     4  10  21  35  49  70 104 142 172 205 255 316
#     4  11  21  32  48  73 104 136 172 210 256 314
#     4   9  16  30  50  70 100 140 174 202 248 315
#
# _framework density 18.296454000000001
#
# number of rings (size 3 to 8) (size 9 to 14) (size 15 to 20)
#    0.000    2.286    2.857    1.286    0.000    2.286 
#    0.000    1.429    0.000    1.714    0.000    0.000 
#    0.000    0.000    0.000    0.000    0.000    0.000 
#
# Total GULP energy -311878.985317 kJ/mol
# GULP energy per Si atom -5569.267595 kJ/mol
# Density = 1.825481 g / cm^3
# Si number density = 18.296454 Si / 1000 Ang^3
#
#
#
# Elastic Constant Matrix: (Units=GPa)
#
#
# Indices 1 2 3 4 5 6 
#
# 1 57.8247 1.9553 22.1697 0.0000 0.0000 0.0000
# 2 1.9553 6.7383 3.2999 0.0000 0.0000 0.0000
# 3 22.1697 3.2999 99.2942 0.0000 0.0000 0.0000
# 4 0.0000 0.0000 0.0000 24.1018 0.0000 0.0000
# 5 0.0000 0.0000 0.0000 0.0000 32.1419 0.0000
# 6 0.0000 0.0000 0.0000 0.0000 0.0000 11.8047
#
#
#
# Elastic Compliance Matrix: (Units=1/GPa)
#
#
# Indices 1 2 3 4 5 6 
#
# 1 0.018993 -0.003492 -0.004125 0.000000 0.000000 0.000000
# 2 -0.003492 0.151502 -0.004255 0.000000 0.000000 0.000000
# 3 -0.004125 -0.004255 0.011133 0.000000 0.000000 0.000000
# 4 0.000000 0.000000 0.000000 0.041491 0.000000 0.000000
# 5 0.000000 0.000000 0.000000 0.000000 0.031112 0.000000
# 6 0.000000 0.000000 0.000000 0.000000 0.000000 0.084712
#
#
# Mechanical properties :
#
#
# Convention : Reuss Voigt Hill
#
# Bulk Modulus (GPa) = 6.33369 24.30078 15.31723
# Shear Modulus (GPa) = 12.03904 22.70515 17.37209
#
# Velocity S-wave (km/s) = 2.56793 3.52655 3.08470
# Velocity P-wave (km/s) = 3.50165 5.46741 4.59098
#
# Compressibility (1/GPa) = 0.15788597
#
# Stress axis : x y z
#
# Youngs Moduli (GPa) = 52.65076 6.60055 89.81971
#
# Poissons Ratio (x) = 0.02305 0.37047
# Poissons Ratio (y) = 0.18383 0.38222
# Poissons Ratio (z) = 0.21716 0.02809
#
# Static dielectric constant tensor:
#      x y z
#    x 1.650310 0.000000 0.000000 
#    y 0.000000 1.619810 0.000000 
#    z 0.000000 0.000000 1.687850 
# 
# From -- ./inp_files/27225.got.cif
#   From: 2010.05.17/outbox.cif.g08.bks.cpg/sg62_14_cif.got.tgz:27225.got - 2010.06.03 15:25:27.
