data_PCOD9461961
_publ_section_title
;
Structure prediction by ZEFSAII (Michael W. Deem and Ramdas Pophale) SiO2 
 PCOD9461961
Probable space group: P N M A
;
_chemical_formula_sum "Si O2"
_cell_formula_units_Z 64
_cell_length_a 8.661116
_cell_length_b 13.896419
_cell_length_c 30.137868
_cell_angle_alpha 90.000000
_cell_angle_beta 90.000000
_cell_angle_gamma 90.000000
_cell_volume 3627.348494
_symmetry_space_group_name_H-M "P N M A"
_symmetry_group_IT_number 62
_symmetry_cell_setting 'orthorhombic'
loop_
_space_group_symop_operation_xyz
x,y,z
1/2-x,-y,1/2+z
1/2+x,1/2-y,1/2-z
-x,1/2+y,-z
-x,-y,-z
1/2+x,y,1/2-z
1/2-x,1/2+y,1/2+z
x,1/2-y,z
loop_
_atom_site_type_symbol
_atom_site_label
_atom_site_fract_x
_atom_site_fract_y
_atom_site_fract_z
Si Si1 0.317228 0.853126 0.930761
Si Si2 0.128164 0.633968 0.226610
Si Si3 0.865624 0.443578 0.941301
Si Si4 0.975604 0.639673 0.974040
Si Si5 0.542268 0.365073 0.639669
Si Si6 0.870100 0.433440 0.603537
Si Si7 0.538954 0.397106 0.979810
Si Si8 0.457590 0.866886 0.186931
O O1 0.327442 0.750000 0.906411
O O2 0.141149 0.864298 0.948714
O O3 0.358693 0.952240 0.906261
O O4 0.423226 0.844340 0.974641
O O5 0.134960 0.750000 0.229172
O O6 0.291763 0.603743 0.206513
O O7 0.996601 0.610466 0.190536
O O8 0.082376 0.602566 0.275799
O O9 0.869841 0.557425 0.952271
O O10 0.699160 0.401518 0.952868
O O11 0.921333 0.417579 0.892574
O O12 0.986175 0.394390 0.975875
O O13 0.920241 0.750000 0.972912
O O14 0.524992 0.250000 0.634734
O O15 0.710870 0.396206 0.624046
O O16 0.909188 0.378981 0.557172
O O17 0.000538 0.411015 0.639749
O O18 0.500000 0.500000 0.000000
O O19 0.460202 0.750000 0.182707
#
# Coordination Sequence:
#
# PCOD9461961 Si02
#       8
#     8   8   8   8   8   8   8   8
#     4   9  18  34  51  70  99 137 175 214 260 300
#     4   9  19  34  52  77 107 137 164 201 254 310
#     4  10  18  32  49  70  99 130 172 215 249 306
#     4   9  17  30  50  70  94 130 171 215 258 294
#     4  11  21  32  49  76 105 135 172 212 257 305
#     4  11  20  33  50  78 102 136 174 213 248 305
#     4   9  20  34  49  69 101 134 170 216 260 299
#     4  10  19  33  53  77 108 136 164 204 252 308
#
# _framework density 17.643742
#
# number of rings (size 3 to 8) (size 9 to 14) (size 15 to 20)
#    0.000    2.250    1.250    2.250    1.750    3.500 
#    0.000    2.500    0.000    0.000    0.000    4.375 
#    0.000    0.000    0.000    0.000    0.000    0.000 
#
# Total GULP energy -356752.884656 kJ/mol
# GULP energy per Si atom -5574.263823 kJ/mol
# Density = 1.760358 g / cm^3
# Si number density = 17.643742 Si / 1000 Ang^3
#
#
#
# Elastic Constant Matrix: (Units=GPa)
#
#
# Indices 1 2 3 4 5 6 
#
# 1 29.1691 -12.7554 -1.9561 0.0000 0.0000 0.0000
# 2 -12.7554 72.5004 2.2114 0.0000 0.0000 0.0000
# 3 -1.9561 2.2114 65.6165 0.0000 0.0000 0.0000
# 4 0.0000 0.0000 0.0000 20.0559 0.0000 0.0000
# 5 0.0000 0.0000 0.0000 0.0000 30.2945 0.0000
# 6 0.0000 0.0000 0.0000 0.0000 0.0000 9.0662
#
#
#
# Elastic Compliance Matrix: (Units=1/GPa)
#
#
# Indices 1 2 3 4 5 6 
#
# 1 0.037192 0.006516 0.000889 0.000000 0.000000 0.000000
# 2 0.006516 0.014949 -0.000310 0.000000 0.000000 0.000000
# 3 0.000889 -0.000310 0.015277 0.000000 0.000000 0.000000
# 4 0.000000 0.000000 0.000000 0.049861 0.000000 0.000000
# 5 0.000000 0.000000 0.000000 0.000000 0.033009 0.000000
# 6 0.000000 0.000000 0.000000 0.000000 0.000000 0.110300
#
#
# Mechanical properties :
#
#
# Convention : Reuss Voigt Hill
#
# Bulk Modulus (GPa) = 12.25347 15.80955 14.03151
# Shear Modulus (GPa) = 18.27492 23.86907 21.07199
#
# Velocity S-wave (km/s) = 3.22183 3.68208 3.45962
# Velocity P-wave (km/s) = 4.56074 5.20162 4.89168
#
# Compressibility (1/GPa) = 0.08160953
#
# Stress axis : x y z
#
# Youngs Moduli (GPa) = 26.88752 66.89453 65.45788
#
# Poissons Ratio (x) = -0.43590 -0.05820
# Poissons Ratio (y) = -0.17521 0.02026
# Poissons Ratio (z) = -0.02391 0.02071
#
# Static dielectric constant tensor:
#      x y z
#    x 1.565970 0.000000 0.000000 
#    y 0.000000 1.627860 0.000000 
#    z 0.000000 0.000000 1.591610 
# 
# From -- ./inp_files/32312.got.cif
#   From: 2010.05.17/outbox.cif.g08.bks.cpg/sg62_17_cif.got.tgz:32312.got - 2010.06.03 15:25:27.
