data_PCOD9461109
_publ_section_title
;
Structure prediction by ZEFSAII (Michael W. Deem and Ramdas Pophale) SiO2 
 PCOD9461109
Probable space group: P B C A
;
_chemical_formula_sum "Si O2"
_cell_formula_units_Z 48
_cell_length_a 9.482881
_cell_length_b 26.014784
_cell_length_c 8.040204
_cell_angle_alpha 90.000000
_cell_angle_beta 90.000000
_cell_angle_gamma 90.000000
_cell_volume 1983.478937
_symmetry_space_group_name_H-M "P B C A"
_symmetry_group_IT_number 61
_symmetry_cell_setting 'orthorhombic'
loop_
_space_group_symop_operation_xyz
x,y,z
1/2-x,-y,1/2+z
1/2+x,1/2-y,-z
-x,1/2+y,1/2-z
-x,-y,-z
1/2+x,y,1/2-z
1/2-x,1/2+y,z
x,1/2-y,1/2+z
loop_
_atom_site_type_symbol
_atom_site_label
_atom_site_fract_x
_atom_site_fract_y
_atom_site_fract_z
Si Si1 0.891015 0.041625 0.577408
Si Si2 0.611055 0.472715 0.876163
Si Si3 0.998647 0.364520 0.285659
Si Si4 0.256395 0.700922 0.703047
Si Si5 0.058180 0.621711 0.331942
Si Si6 0.680491 0.184943 0.183491
O O1 0.749264 0.048909 0.469249
O O2 0.969637 0.093264 0.643353
O O3 0.835584 0.014641 0.746097
O O4 0.000000 0.000000 0.500000
O O5 0.518172 0.430226 0.778023
O O6 0.500000 0.500000 0.000000
O O7 0.903964 0.313879 0.260119
O O8 0.950918 0.383119 0.467868
O O9 0.155392 0.342683 0.299892
O O10 0.307125 0.691857 0.514319
O O11 0.278975 0.759880 0.744876
O O12 0.213688 0.637664 0.279748
O O13 0.966522 0.668441 0.260945
#
# Coordination Sequence:
#
# PCOD9461109 Si02
#       6
#     8   8   8   8   8   8
#     4  12  29  46  76 108 152 204 256 317 392 454
#     4  12  27  48  73 109 155 197 259 316 378 463
#     4  11  25  46  73 105 145 193 241 313 376 453
#     4  11  25  45  72 105 145 187 247 303 383 456
#     4  11  26  45  73 104 147 190 249 307 376 447
#     4  11  26  45  73 107 144 193 245 310 379 457
#
# _framework density 24.199904
#
# number of rings (size 3 to 8) (size 9 to 14) (size 15 to 20)
#    0.000    0.667    1.667    4.000    9.333    5.333 
#    0.000    0.000    0.000    0.000    0.000    0.000 
#    0.000    0.000    0.000    0.000    0.000    0.000 
#
# Total GULP energy -268538.622659 kJ/mol
# GULP energy per Si atom -5594.554639 kJ/mol
# Density = 2.414482 g / cm^3
# Si number density = 24.199904 Si / 1000 Ang^3
#
#
#
# Elastic Constant Matrix: (Units=GPa)
#
#
# Indices 1 2 3 4 5 6 
#
# 1 66.0380 -13.8305 16.0414 0.0000 0.0000 0.0000
# 2 -13.8305 94.9087 34.2846 0.0000 0.0000 0.0000
# 3 16.0414 34.2846 73.3153 0.0000 0.0000 0.0000
# 4 0.0000 0.0000 0.0000 11.9349 0.0000 0.0000
# 5 0.0000 0.0000 0.0000 0.0000 23.5736 0.0000
# 6 0.0000 0.0000 0.0000 0.0000 0.0000 34.5193
#
#
#
# Elastic Compliance Matrix: (Units=1/GPa)
#
#
# Indices 1 2 3 4 5 6 
#
# 1 0.017618 0.004765 -0.006083 0.000000 0.000000 0.000000
# 2 0.004765 0.013967 -0.007574 0.000000 0.000000 0.000000
# 3 -0.006083 -0.007574 0.018512 0.000000 0.000000 0.000000
# 4 0.000000 0.000000 0.000000 0.083788 0.000000 0.000000
# 5 0.000000 0.000000 0.000000 0.000000 0.042420 0.000000
# 6 0.000000 0.000000 0.000000 0.000000 0.000000 0.028969
#
#
# Mechanical properties :
#
#
# Convention : Reuss Voigt Hill
#
# Bulk Modulus (GPa) = 30.94689 34.13922 32.54305
# Shear Modulus (GPa) = 21.38303 27.19000 24.28652
#
# Velocity S-wave (km/s) = 2.97577 3.35559 3.17137
# Velocity P-wave (km/s) = 4.96213 5.39918 5.18526
#
# Compressibility (1/GPa) = 0.03231342
#
# Stress axis : x y z
#
# Youngs Moduli (GPa) = 56.75895 71.59860 54.01765
#
# Poissons Ratio (x) = -0.34116 0.32860
# Poissons Ratio (y) = -0.27045 0.40912
# Poissons Ratio (z) = 0.34527 0.54228
#
# Static dielectric constant tensor:
#      x y z
#    x 1.878860 0.000000 0.000000 
#    y 0.000000 1.916600 0.000000 
#    z 0.000000 0.000000 1.987070 
# 
# From -- ./inp_files/1890.got.cif
#   From: 2010.05.17/outbox.cif.g08.bks.cpg/sg61_1_cif.got.tgz:1890.got - 2010.06.03 15:17:17.
