data_PCOD9461453
_publ_section_title
;
Structure prediction by ZEFSAII (Michael W. Deem and Ramdas Pophale) SiO2 
 PCOD9461453
Probable space group: P N M A
;
_chemical_formula_sum "Si O2"
_cell_formula_units_Z 56
_cell_length_a 15.932102
_cell_length_b 7.554354
_cell_length_c 19.728258
_cell_angle_alpha 90.000000
_cell_angle_beta 90.000000
_cell_angle_gamma 90.000000
_cell_volume 2374.428789
_symmetry_space_group_name_H-M "P N M A"
_symmetry_group_IT_number 62
_symmetry_cell_setting 'orthorhombic'
loop_
_space_group_symop_operation_xyz
x,y,z
1/2-x,-y,1/2+z
1/2+x,1/2-y,1/2-z
-x,1/2+y,-z
-x,-y,-z
1/2+x,y,1/2-z
1/2-x,1/2+y,1/2+z
x,1/2-y,z
loop_
_atom_site_type_symbol
_atom_site_label
_atom_site_fract_x
_atom_site_fract_y
_atom_site_fract_z
Si Si1 0.903035 0.460306 0.501152
Si Si2 0.659222 0.963858 0.146486
Si Si3 0.842653 0.035357 0.353578
Si Si4 0.495396 0.050506 0.609147
Si Si5 0.809999 0.544066 0.926201
Si Si6 0.679728 0.467579 0.578339
Si Si7 0.001268 0.958327 0.737941
O O1 0.888165 0.250000 0.502790
O O2 0.870380 0.527849 0.572430
O O3 0.869420 0.521107 0.429196
O O4 0.000000 0.500000 0.500000
O O5 0.657656 0.750000 0.150588
O O6 0.757645 0.017563 0.140318
O O7 0.587306 0.024488 0.198080
O O8 0.845808 0.250000 0.345953
O O9 0.744437 0.978483 0.360840
O O10 0.916625 0.973330 0.303465
O O11 0.493753 0.250000 0.581939
O O12 0.584580 0.970407 0.588149
O O13 0.408921 0.966336 0.585524
O O14 0.494961 0.051125 0.690239
O O15 0.787436 0.750000 0.930763
O O16 0.792555 0.473851 0.002483
O O17 0.679488 0.250000 0.578111
O O18 0.013469 0.750000 0.750813
#
# Coordination Sequence:
#
# PCOD9461453 Si02
#       7
#     8   8   8   8   8   8   8
#     4  10  17  29  52  83 117 149 180 224 281 338
#     4  10  19  34  59  89 117 148 185 230 286 343
#     4   9  18  33  57  86 115 146 185 227 278 341
#     4  11  24  41  57  80 114 153 196 240 281 330
#     4  10  19  38  65  89 112 146 189 235 287 341
#     4   9  19  37  63  88 114 148 187 233 289 343
#     4  11  23  39  57  82 117 156 191 229 279 341
#
# _framework density 23.584620999999999
#
# number of rings (size 3 to 8) (size 9 to 14) (size 15 to 20)
#    0.000    2.000    2.857    1.286    0.000    1.143 
#    0.000    7.857    0.000    0.000    0.000    0.000 
#    0.000    0.000    0.000    0.000    0.000    0.000 
#
# Total GULP energy -312195.251344 kJ/mol
# GULP energy per Si atom -5574.915203 kJ/mol
# Density = 2.353094 g / cm^3
# Si number density = 23.584621 Si / 1000 Ang^3
#
#
#
# Elastic Constant Matrix: (Units=GPa)
#
#
# Indices 1 2 3 4 5 6 
#
# 1 158.2983 1.7826 19.8215 0.0000 0.0000 0.0000
# 2 1.7826 57.4033 -7.3850 0.0000 0.0000 0.0000
# 3 19.8215 -7.3850 62.1576 0.0000 0.0000 0.0000
# 4 0.0000 0.0000 0.0000 24.4838 0.0000 0.0000
# 5 0.0000 0.0000 0.0000 0.0000 28.3594 0.0000
# 6 0.0000 0.0000 0.0000 0.0000 0.0000 17.9005
#
#
#
# Elastic Compliance Matrix: (Units=1/GPa)
#
#
# Indices 1 2 3 4 5 6 
#
# 1 0.006593 -0.000483 -0.002160 0.000000 0.000000 0.000000
# 2 -0.000483 0.017726 0.002260 0.000000 0.000000 0.000000
# 3 -0.002160 0.002260 0.017045 0.000000 0.000000 0.000000
# 4 0.000000 0.000000 0.000000 0.040843 0.000000 0.000000
# 5 0.000000 0.000000 0.000000 0.000000 0.035262 0.000000
# 6 0.000000 0.000000 0.000000 0.000000 0.000000 0.055864
#
#
# Mechanical properties :
#
#
# Convention : Reuss Voigt Hill
#
# Bulk Modulus (GPa) = 24.63056 34.03303 29.33179
# Shear Modulus (GPa) = 26.64784 31.72473 29.18628
#
# Velocity S-wave (km/s) = 3.36502 3.67160 3.52165
# Velocity P-wave (km/s) = 5.05608 5.69524 5.38515
#
# Compressibility (1/GPa) = 0.04059998
#
# Stress axis : x y z
#
# Youngs Moduli (GPa) = 151.67452 56.41321 58.66685
#
# Poissons Ratio (x) = 0.02723 0.12671
# Poissons Ratio (y) = 0.07320 -0.13259
# Poissons Ratio (z) = 0.32759 -0.12749
#
# Static dielectric constant tensor:
#      x y z
#    x 1.990440 0.000000 0.000000 
#    y 0.000000 1.945530 0.000000 
#    z 0.000000 0.000000 1.866670 
# 
# From -- ./inp_files/27265.got.cif
#   From: 2010.05.17/outbox.cif.g08.bks.cpg/sg62_14_cif.got.tgz:27265.got - 2010.06.03 15:25:27.
