data_PCOD9461192
_publ_section_title
;
Structure prediction by ZEFSAII (Michael W. Deem and Ramdas Pophale) SiO2 
 PCOD9461192
Probable space group: P B C A
;
_chemical_formula_sum "Si O2"
_cell_formula_units_Z 36
_cell_length_a 10.201395
_cell_length_b 9.734053
_cell_length_c 13.002086
_cell_angle_alpha 90.000000
_cell_angle_beta 90.000000
_cell_angle_gamma 90.000000
_cell_volume 1291.119097
_symmetry_space_group_name_H-M "P B C A"
_symmetry_group_IT_number 61
_symmetry_cell_setting 'orthorhombic'
loop_
_space_group_symop_operation_xyz
x,y,z
1/2-x,-y,1/2+z
1/2+x,1/2-y,-z
-x,1/2+y,1/2-z
-x,-y,-z
1/2+x,y,1/2-z
1/2-x,1/2+y,z
x,1/2-y,1/2+z
loop_
_atom_site_type_symbol
_atom_site_label
_atom_site_fract_x
_atom_site_fract_y
_atom_site_fract_z
Si Si1 0.301518 0.750364 0.798984
Si Si2 0.848549 0.423694 0.856270
Si Si3 0.948749 0.431759 0.261376
Si Si4 0.000000 0.500000 0.500000
Si Si5 0.764173 0.165758 0.990314
O O1 0.254601 0.884889 0.735214
O O2 0.427685 0.673975 0.755534
O O3 0.175215 0.650211 0.782880
O O4 0.322937 0.766020 0.920799
O O5 0.826881 0.291886 0.928215
O O6 0.818999 0.557488 0.924942
O O7 0.991601 0.446001 0.808042
O O8 0.939982 0.468716 0.382603
O O9 0.878335 0.415339 0.548572
#
# Coordination Sequence:
#
# PCOD9461192 Si02
#       5
#     8   8   8   4   8
#     4  12  29  51  84 122 167 223 278 359 423 516
#     4  12  26  53  80 121 167 221 282 354 432 516
#     4  12  27  54  83 122 172 220 286 348 434 509
#     4  12  24  48  76 116 164 224 272 352 410 512
#     4  12  28  50  83 124 166 224 286 360 432 516
#
# _framework density 27.88279
#
# number of rings (size 3 to 8) (size 9 to 14) (size 15 to 20)
#    0.000    0.000    6.667    1.333    3.111    4.444 
#    0.000    0.000    0.000    0.000    0.000    0.000 
#    0.000    0.000    0.000    0.000    0.000    0.000 
#
# Total GULP energy -201112.100351 kJ/mol
# GULP energy per Si atom -5586.447232 kJ/mol
# Density = 2.781933 g / cm^3
# Si number density = 27.882790 Si / 1000 Ang^3
#
#
#
# Elastic Constant Matrix: (Units=GPa)
#
#
# Indices 1 2 3 4 5 6 
#
# 1 86.5159 15.1637 13.9284 0.0000 0.0000 0.0000
# 2 15.1637 111.0966 59.3995 0.0000 0.0000 0.0000
# 3 13.9284 59.3995 152.4607 0.0000 0.0000 0.0000
# 4 0.0000 0.0000 0.0000 46.0882 0.0000 0.0000
# 5 0.0000 0.0000 0.0000 0.0000 50.8095 0.0000
# 6 0.0000 0.0000 0.0000 0.0000 0.0000 44.9128
#
#
#
# Elastic Compliance Matrix: (Units=1/GPa)
#
#
# Indices 1 2 3 4 5 6 
#
# 1 0.011881 -0.001315 -0.000573 0.000000 0.000000 0.000000
# 2 -0.001315 0.011515 -0.004366 0.000000 0.000000 0.000000
# 3 -0.000573 -0.004366 0.008313 0.000000 0.000000 0.000000
# 4 0.000000 0.000000 0.000000 0.021698 0.000000 0.000000
# 5 0.000000 0.000000 0.000000 0.000000 0.019681 0.000000
# 6 0.000000 0.000000 0.000000 0.000000 0.000000 0.022265
#
#
# Mechanical properties :
#
#
# Convention : Reuss Voigt Hill
#
# Bulk Modulus (GPa) = 52.08340 58.56181 55.32261
# Shear Modulus (GPa) = 43.75896 45.80089 44.77992
#
# Velocity S-wave (km/s) = 3.96585 4.05732 4.01185
# Velocity P-wave (km/s) = 6.30005 6.55726 6.42994
#
# Compressibility (1/GPa) = 0.01919997
#
# Stress axis : x y z
#
# Youngs Moduli (GPa) = 84.16549 86.84193 120.30057
#
# Poissons Ratio (x) = 0.11423 0.06893
# Poissons Ratio (y) = 0.11071 0.52526
# Poissons Ratio (z) = 0.04823 0.37917
#
# Static dielectric constant tensor:
#      x y z
#    x 2.536590 0.000000 0.000000 
#    y 0.000000 2.486420 0.000000 
#    z 0.000000 0.000000 2.151090 
# 
# From -- ./inp_files/7323.got.cif
#   From: 2010.05.17/outbox.cif.g08.bks.cpg/sg61_4_cif.got.tgz:7323.got - 2010.06.03 15:17:17.
