data_PCOD9461685
_publ_section_title
;
Structure prediction by ZEFSAII (Michael W. Deem and Ramdas Pophale) SiO2 
 PCOD9461685
Probable space group: P N M A
;
_chemical_formula_sum "Si O2"
_cell_formula_units_Z 64
_cell_length_a 12.253333
_cell_length_b 13.134480
_cell_length_c 25.101464
_cell_angle_alpha 90.000000
_cell_angle_beta 90.000000
_cell_angle_gamma 90.000000
_cell_volume 4039.858664
_symmetry_space_group_name_H-M "P N M A"
_symmetry_group_IT_number 62
_symmetry_cell_setting 'orthorhombic'
loop_
_space_group_symop_operation_xyz
x,y,z
1/2-x,-y,1/2+z
1/2+x,1/2-y,1/2-z
-x,1/2+y,-z
-x,-y,-z
1/2+x,y,1/2-z
1/2-x,1/2+y,1/2+z
x,1/2-y,z
loop_
_atom_site_type_symbol
_atom_site_label
_atom_site_fract_x
_atom_site_fract_y
_atom_site_fract_z
Si Si1 0.590144 0.626232 0.140414
Si Si2 0.605168 0.373039 0.784560
Si Si3 0.496562 0.449513 0.585526
Si Si4 0.279641 0.129193 0.627730
Si Si5 0.673042 0.433625 0.982168
Si Si6 0.432937 0.367854 0.984174
Si Si7 0.832230 0.872402 0.168562
Si Si8 0.594445 0.631044 0.525065
O O1 0.587503 0.750000 0.142007
O O2 0.496211 0.588916 0.180279
O O3 0.572194 0.600957 0.078402
O O4 0.708719 0.591756 0.159696
O O5 0.593541 0.250000 0.782077
O O6 0.714347 0.392008 0.818478
O O7 0.617060 0.410303 0.724275
O O8 0.387570 0.437186 0.620351
O O9 0.594523 0.401815 0.618620
O O10 0.532146 0.561836 0.567758
O O11 0.466849 0.389512 0.531193
O O12 0.307588 0.250000 0.626088
O O13 0.202279 0.105588 0.577072
O O14 0.559836 0.381617 0.000362
O O15 0.644513 0.553433 0.984928
O O16 0.780836 0.407316 0.016188
O O17 0.400842 0.250000 0.989262
O O18 0.828482 0.750000 0.171751
O O19 0.594846 0.750000 0.536977
#
# Coordination Sequence:
#
# PCOD9461685 Si02
#       8
#     8   8   8   8   8   8   8   8
#     4   9  17  29  42  63  96 128 157 190 236 285
#     4   9  18  29  45  66  95 134 163 189 239 299
#     4  10  20  32  50  75  98 126 168 198 249 291
#     4  10  18  32  49  67  98 134 166 199 238 298
#     4  10  18  29  49  70  94 134 172 195 240 301
#     4  10  18  29  46  71 102 132 164 206 246 289
#     4  10  19  29  45  71 103 129 157 201 243 287
#     4  10  20  35  51  71 100 131 166 207 246 302
#
# _framework density 15.842139
#
# number of rings (size 3 to 8) (size 9 to 14) (size 15 to 20)
#    0.000    2.250    1.250    3.750    1.750    0.000 
#    0.000    7.500    0.000    0.000    0.000    1.750 
#    0.000    0.000    0.000    0.000    0.000    0.000 
#
# Total GULP energy -356665.361891 kJ/mol
# GULP energy per Si atom -5572.896280 kJ/mol
# Density = 1.580608 g / cm^3
# Si number density = 15.842139 Si / 1000 Ang^3
#
#
#
# Elastic Constant Matrix: (Units=GPa)
#
#
# Indices 1 2 3 4 5 6 
#
# 1 91.4705 28.2058 35.9878 0.0000 0.0000 0.0000
# 2 28.2058 65.2236 14.0533 0.0000 0.0000 0.0000
# 3 35.9878 14.0533 49.5125 0.0000 0.0000 0.0000
# 4 0.0000 0.0000 0.0000 14.7615 0.0000 0.0000
# 5 0.0000 0.0000 0.0000 0.0000 8.2988 0.0000
# 6 0.0000 0.0000 0.0000 0.0000 0.0000 20.7050
#
#
#
# Elastic Compliance Matrix: (Units=1/GPa)
#
#
# Indices 1 2 3 4 5 6 
#
# 1 0.016659 -0.004895 -0.010719 0.000000 0.000000 0.000000
# 2 -0.004895 0.017769 -0.001486 0.000000 0.000000 0.000000
# 3 -0.010719 -0.001486 0.028410 0.000000 0.000000 0.000000
# 4 0.000000 0.000000 0.000000 0.067744 0.000000 0.000000
# 5 0.000000 0.000000 0.000000 0.000000 0.120499 0.000000
# 6 0.000000 0.000000 0.000000 0.000000 0.000000 0.048298
#
#
# Mechanical properties :
#
#
# Convention : Reuss Voigt Hill
#
# Bulk Modulus (GPa) = 34.91820 40.30005 37.60913
# Shear Modulus (GPa) = 14.57203 17.28372 15.92788
#
# Velocity S-wave (km/s) = 3.03616 3.30661 3.17426
# Velocity P-wave (km/s) = 5.86346 6.33024 6.10132
#
# Compressibility (1/GPa) = 0.02863836
#
# Stress axis : x y z
#
# Youngs Moduli (GPa) = 60.02706 56.27891 35.19897
#
# Poissons Ratio (x) = 0.27546 0.37731
# Poissons Ratio (y) = 0.29381 0.05230
# Poissons Ratio (z) = 0.64345 0.08362
#
# Static dielectric constant tensor:
#      x y z
#    x 1.560050 0.000000 0.000000 
#    y 0.000000 1.507120 0.000000 
#    z 0.000000 0.000000 1.535590 
# 
# From -- ./inp_files/31225.got.cif
#   From: 2010.05.17/outbox.cif.g08.bks.cpg/sg62_16_cif.got.tgz:31225.got - 2010.06.03 15:25:27.
